IDG.pdb
     RDKit          3D

 21 20  0  0  1  0  0  0  0  0999 V2000
   27.5749  -10.8710  -16.0050 C   0  0  0  0  0  0  0  0  0  0  0  0
   26.1641  -11.3638  -15.9495 C   0  0  0  0  0  0  0  0  0  0  0  0
   25.1496  -10.2450  -16.0346 C   0  0  2  0  0  0  0  0  0  0  0  0
   25.3399   -9.2195  -14.9666 C   0  0  0  0  0  0  0  0  0  0  0  0
   23.7554  -10.8475  -16.0349 C   0  0  2  0  0  0  0  0  0  0  0  0
   23.7556  -11.9355  -16.9794 N   0  0  0  0  0  0  0  0  0  0  0  0
   22.7242   -9.8757  -16.4041 C   0  0  0  0  0  0  0  0  0  0  0  0
   22.6777   -9.4152  -17.5699 O   0  0  0  0  0  0  0  0  0  0  0  0
   21.7476   -9.4173  -15.4798 N   0  0  0  0  0  0  0  0  0  0  0  0
   20.7000   -8.4608  -15.9194 C   0  0  1  0  0  0  0  0  0  0  0  0
   19.4000   -9.1705  -15.6647 C   0  0  0  0  0  0  0  0  0  0  0  0
   19.0919  -10.2934  -16.5389 C   0  0  0  0  0  0  0  0  0  0  0  0
   18.5454  -11.3547  -16.1701 O   0  0  0  0  0  0  0  0  0  0  0  0
   20.8512   -7.2015  -15.1406 C   0  0  0  0  0  0  0  0  0  0  0  0
   20.0018   -6.2909  -15.2796 O   0  0  0  0  0  0  0  0  0  0  0  0
   19.4137  -10.2295  -17.9126 O   0  0  0  0  0  0  0  0  0  0  0  0
   21.9656   -7.0561  -14.2476 N   0  0  0  0  0  0  0  0  0  0  0  0
   22.2249   -5.7920  -13.6120 C   0  0  0  0  0  0  0  0  0  0  0  0
   22.7365   -4.7778  -14.5784 C   0  0  0  0  0  0  0  0  0  0  0  0
   22.7394   -3.4257  -14.3119 O   0  0  0  0  0  0  0  0  0  0  0  0
   23.1765   -5.1884  -15.6689 O   0  0  0  0  0  0  0  0  0  0  0  0
  1  2  1  0
  2  3  1  0
  3  5  1  0
  3  4  1  1
  5  7  1  0
  5  6  1  6
  7  9  1  0
  8  7  2  0
  9 10  1  0
 10 14  1  0
 10 11  1  1
 11 12  1  0
 12 13  2  0
 14 15  2  0
 14 17  1  0
 16 12  1  0
 17 18  1  0
 18 19  1  0
 19 20  1  0
 21 19  2  0
M  END
$$$$
