IDG.pdb
     RDKit          3D

 21 20  0  0  1  0  0  0  0  0999 V2000
   25.0232  -15.2841  -16.4853 C   0  0  0  0  0  0  0  0  0  0  0  0
   25.0243  -13.9340  -15.8424 C   0  0  0  0  0  0  0  0  0  0  0  0
   24.1787  -12.9282  -16.5918 C   0  0  2  0  0  0  0  0  0  0  0  0
   24.5615  -12.8201  -18.0306 C   0  0  0  0  0  0  0  0  0  0  0  0
   24.2389  -11.5976  -15.8618 C   0  0  2  0  0  0  0  0  0  0  0  0
   24.0241  -11.8631  -14.4621 N   0  0  0  0  0  0  0  0  0  0  0  0
   23.2333  -10.6480  -16.3425 C   0  0  0  0  0  0  0  0  0  0  0  0
   23.3495  -10.1237  -17.4760 O   0  0  0  0  0  0  0  0  0  0  0  0
   22.1019  -10.2824  -15.5651 N   0  0  0  0  0  0  0  0  0  0  0  0
   21.0912   -9.3457  -16.1190 C   0  0  1  0  0  0  0  0  0  0  0  0
   19.8011  -10.1163  -16.0994 C   0  0  0  0  0  0  0  0  0  0  0  0
   18.6151   -9.4072  -16.5582 C   0  0  0  0  0  0  0  0  0  0  0  0
   18.5503   -8.7301  -17.6062 O   0  0  0  0  0  0  0  0  0  0  0  0
   21.0647   -8.1221  -15.2722 C   0  0  0  0  0  0  0  0  0  0  0  0
   20.1382   -7.2926  -15.4252 O   0  0  0  0  0  0  0  0  0  0  0  0
   17.4244   -9.4560  -15.8002 O   0  0  0  0  0  0  0  0  0  0  0  0
   22.0998   -7.9176  -14.2990 N   0  0  0  0  0  0  0  0  0  0  0  0
   22.0474   -6.7862  -13.4121 C   0  0  0  0  0  0  0  0  0  0  0  0
   22.3519   -5.5094  -14.1201 C   0  0  0  0  0  0  0  0  0  0  0  0
   22.4580   -4.2998  -13.4683 O   0  0  0  0  0  0  0  0  0  0  0  0
   22.5143   -5.5569  -15.3541 O   0  0  0  0  0  0  0  0  0  0  0  0
  1  2  1  0
  2  3  1  0
  3  5  1  0
  3  4  1  6
  5  7  1  0
  5  6  1  1
  7  9  1  0
  8  7  2  0
  9 10  1  0
 10 14  1  0
 10 11  1  1
 11 12  1  0
 12 13  2  0
 14 15  2  0
 14 17  1  0
 16 12  1  0
 17 18  1  0
 18 19  1  0
 19 20  1  0
 21 19  2  0
M  END
$$$$
