IDG.pdb
     RDKit          3D

 21 20  0  0  1  0  0  0  0  0999 V2000
   17.0317  -12.8071  -16.5946 C   0  0  0  0  0  0  0  0  0  0  0  0
   18.3540  -12.1201  -16.7199 C   0  0  0  0  0  0  0  0  0  0  0  0
   18.4796  -10.9213  -15.8059 C   0  0  2  0  0  0  0  0  0  0  0  0
   17.3622   -9.9477  -15.9847 C   0  0  0  0  0  0  0  0  0  0  0  0
   19.8485  -10.2945  -16.0063 C   0  0  2  0  0  0  0  0  0  0  0  0
   20.8324  -11.3158  -15.7518 N   0  0  0  0  0  0  0  0  0  0  0  0
   20.0799   -9.1555  -15.1156 C   0  0  0  0  0  0  0  0  0  0  0  0
   20.5179   -9.3394  -13.9548 O   0  0  0  0  0  0  0  0  0  0  0  0
   19.8251   -7.8161  -15.5145 N   0  0  0  0  0  0  0  0  0  0  0  0
   20.0549   -6.7007  -14.5613 C   0  0  1  0  0  0  0  0  0  0  0  0
   21.5081   -6.8030  -14.1925 C   0  0  0  0  0  0  0  0  0  0  0  0
   22.0369   -5.7476  -13.3402 C   0  0  0  0  0  0  0  0  0  0  0  0
   22.7904   -4.8293  -13.7273 O   0  0  0  0  0  0  0  0  0  0  0  0
   19.7023   -5.4213  -15.2351 C   0  0  0  0  0  0  0  0  0  0  0  0
   20.1700   -5.1799  -16.3721 O   0  0  0  0  0  0  0  0  0  0  0  0
   21.7046   -5.7134  -11.9679 O   0  0  0  0  0  0  0  0  0  0  0  0
   18.8350   -4.4912  -14.5692 N   0  0  0  0  0  0  0  0  0  0  0  0
   18.4314   -3.2776  -15.2277 C   0  0  0  0  0  0  0  0  0  0  0  0
   19.5304   -2.2700  -15.2600 C   0  0  0  0  0  0  0  0  0  0  0  0
   20.7775   -2.5062  -14.7233 O   0  0  0  0  0  0  0  0  0  0  0  0
   19.2931   -1.1726  -15.7993 O   0  0  0  0  0  0  0  0  0  0  0  0
  1  2  1  0
  2  3  1  0
  3  5  1  0
  3  4  1  6
  5  7  1  0
  5  6  1  1
  7  9  1  0
  8  7  2  0
  9 10  1  0
 10 14  1  0
 10 11  1  6
 11 12  1  0
 12 13  2  0
 14 15  2  0
 14 17  1  0
 16 12  1  0
 17 18  1  0
 18 19  1  0
 19 20  1  0
 21 19  2  0
M  END
$$$$
