IDG.pdb
     RDKit          3D

 21 20  0  0  1  0  0  0  0  0999 V2000
   12.0247   -8.9793   -7.8175 C   0  0  0  0  0  0  0  0  0  0  0  0
   13.5025   -8.7776   -7.9250 C   0  0  0  0  0  0  0  0  0  0  0  0
   14.0125   -8.9291   -9.3410 C   0  0  2  0  0  0  0  0  0  0  0  0
   13.6053  -10.2257   -9.9587 C   0  0  0  0  0  0  0  0  0  0  0  0
   15.5167   -8.7184   -9.3447 C   0  0  2  0  0  0  0  0  0  0  0  0
   15.7722   -7.4210   -8.7726 N   0  0  0  0  0  0  0  0  0  0  0  0
   16.0891   -8.7839  -10.6908 C   0  0  0  0  0  0  0  0  0  0  0  0
   16.4282   -9.8877  -11.1806 O   0  0  0  0  0  0  0  0  0  0  0  0
   16.2839   -7.6257  -11.4900 N   0  0  0  0  0  0  0  0  0  0  0  0
   16.8073   -7.7572  -12.8735 C   0  0  1  0  0  0  0  0  0  0  0  0
   15.8615   -8.7063  -13.5540 C   0  0  0  0  0  0  0  0  0  0  0  0
   16.2194  -10.1171  -13.5162 C   0  0  0  0  0  0  0  0  0  0  0  0
   17.3731  -10.5646  -13.6886 O   0  0  0  0  0  0  0  0  0  0  0  0
   16.8432   -6.4062  -13.4971 C   0  0  0  0  0  0  0  0  0  0  0  0
   15.8087   -5.6995  -13.4850 O   0  0  0  0  0  0  0  0  0  0  0  0
   15.2276  -11.0921  -13.2705 O   0  0  0  0  0  0  0  0  0  0  0  0
   18.0607   -5.9414  -14.0990 N   0  0  0  0  0  0  0  0  0  0  0  0
   18.0768   -4.7114  -14.8448 C   0  0  0  0  0  0  0  0  0  0  0  0
   19.4145   -4.4433  -15.4471 C   0  0  0  0  0  0  0  0  0  0  0  0
   20.5202   -5.2249  -15.1909 O   0  0  0  0  0  0  0  0  0  0  0  0
   19.5188   -3.4663  -16.2126 O   0  0  0  0  0  0  0  0  0  0  0  0
  1  2  1  0
  2  3  1  0
  3  5  1  0
  3  4  1  1
  5  7  1  0
  5  6  1  6
  7  9  1  0
  8  7  2  0
  9 10  1  0
 10 14  1  0
 10 11  1  6
 11 12  1  0
 12 13  2  0
 14 15  2  0
 14 17  1  0
 16 12  1  0
 17 18  1  0
 18 19  1  0
 19 20  1  0
 21 19  2  0
M  END
$$$$
