IDG.pdb
     RDKit          3D

 21 20  0  0  1  0  0  0  0  0999 V2000
   28.4574  -12.0907  -16.4675 C   0  0  0  0  0  0  0  0  0  0  0  0
   26.9864  -12.3142  -16.3181 C   0  0  0  0  0  0  0  0  0  0  0  0
   26.1925  -11.0270  -16.3517 C   0  0  2  0  0  0  0  0  0  0  0  0
   26.6293  -10.0595  -15.3021 C   0  0  0  0  0  0  0  0  0  0  0  0
   24.7133  -11.3620  -16.2691 C   0  0  2  0  0  0  0  0  0  0  0  0
   24.4489  -12.3912  -17.2421 N   0  0  0  0  0  0  0  0  0  0  0  0
   23.8597  -10.2024  -16.5350 C   0  0  0  0  0  0  0  0  0  0  0  0
   23.9049   -9.6261  -17.6481 O   0  0  0  0  0  0  0  0  0  0  0  0
   22.9585   -9.6853  -15.5662 N   0  0  0  0  0  0  0  0  0  0  0  0
   22.1141   -8.5076  -15.8911 C   0  0  1  0  0  0  0  0  0  0  0  0
   20.7074   -9.0361  -15.9091 C   0  0  0  0  0  0  0  0  0  0  0  0
   20.4291  -10.1076  -16.8549 C   0  0  0  0  0  0  0  0  0  0  0  0
   20.6329  -10.0426  -18.0858 O   0  0  0  0  0  0  0  0  0  0  0  0
   22.3418   -7.4615  -14.8572 C   0  0  0  0  0  0  0  0  0  0  0  0
   22.8567   -7.7861  -13.7619 O   0  0  0  0  0  0  0  0  0  0  0  0
   19.8890  -11.3305  -16.3994 O   0  0  0  0  0  0  0  0  0  0  0  0
   21.9672   -6.1040  -15.1355 N   0  0  0  0  0  0  0  0  0  0  0  0
   22.1799   -5.0771  -14.1508 C   0  0  0  0  0  0  0  0  0  0  0  0
   21.7641   -3.7341  -14.6486 C   0  0  0  0  0  0  0  0  0  0  0  0
   20.7129   -3.0278  -14.1052 O   0  0  0  0  0  0  0  0  0  0  0  0
   22.4059   -3.2449  -15.5973 O   0  0  0  0  0  0  0  0  0  0  0  0
  1  2  1  0
  2  3  1  0
  3  5  1  0
  3  4  1  1
  5  7  1  0
  5  6  1  6
  7  9  1  0
  8  7  2  0
  9 10  1  0
 10 14  1  0
 10 11  1  1
 11 12  1  0
 12 13  2  0
 14 15  2  0
 14 17  1  0
 16 12  1  0
 17 18  1  0
 18 19  1  0
 19 20  1  0
 21 19  2  0
M  END
$$$$
