IDG.pdb
     RDKit          3D

 21 20  0  0  1  0  0  0  0  0999 V2000
   16.8160  -15.6873  -15.9323 C   0  0  0  0  0  0  0  0  0  0  0  0
   17.8138  -14.8263  -16.6387 C   0  0  0  0  0  0  0  0  0  0  0  0
   18.1029  -13.5385  -15.8996 C   0  0  2  0  0  0  0  0  0  0  0  0
   16.8725  -12.7262  -15.6655 C   0  0  0  0  0  0  0  0  0  0  0  0
   19.1819  -12.7759  -16.6486 C   0  0  2  0  0  0  0  0  0  0  0  0
   20.2977  -13.6698  -16.8267 N   0  0  0  0  0  0  0  0  0  0  0  0
   19.6216  -11.5769  -15.9323 C   0  0  0  0  0  0  0  0  0  0  0  0
   20.2772  -11.6809  -14.8681 O   0  0  0  0  0  0  0  0  0  0  0  0
   19.3331  -10.2660  -16.3979 N   0  0  0  0  0  0  0  0  0  0  0  0
   19.8013   -9.0849  -15.6291 C   0  0  1  0  0  0  0  0  0  0  0  0
   21.2024   -8.8406  -16.1145 C   0  0  0  0  0  0  0  0  0  0  0  0
   21.8950   -7.6930  -15.5460 C   0  0  0  0  0  0  0  0  0  0  0  0
   21.4205   -6.9341  -14.6743 O   0  0  0  0  0  0  0  0  0  0  0  0
   18.8754   -7.9500  -15.8934 C   0  0  0  0  0  0  0  0  0  0  0  0
   18.5902   -7.6565  -17.0777 O   0  0  0  0  0  0  0  0  0  0  0  0
   23.2008   -7.3703  -15.9767 O   0  0  0  0  0  0  0  0  0  0  0  0
   18.3289   -7.2157  -14.7876 N   0  0  0  0  0  0  0  0  0  0  0  0
   17.3850   -6.1549  -15.0177 C   0  0  0  0  0  0  0  0  0  0  0  0
   18.0539   -4.9065  -15.4851 C   0  0  0  0  0  0  0  0  0  0  0  0
   17.3653   -3.7411  -15.7438 O   0  0  0  0  0  0  0  0  0  0  0  0
   19.2890   -4.9365  -15.6433 O   0  0  0  0  0  0  0  0  0  0  0  0
  1  2  1  0
  2  3  1  0
  3  5  1  0
  3  4  1  6
  5  7  1  0
  5  6  1  1
  7  9  1  0
  8  7  2  0
  9 10  1  0
 10 14  1  0
 10 11  1  6
 11 12  1  0
 12 13  2  0
 14 15  2  0
 14 17  1  0
 16 12  1  0
 17 18  1  0
 18 19  1  0
 19 20  1  0
 21 19  2  0
M  END
$$$$
