IDG.pdb
     RDKit          3D

 21 20  0  0  1  0  0  0  0  0999 V2000
   20.6742  -13.4102  -18.5540 C   0  0  0  0  0  0  0  0  0  0  0  0
   21.6636  -12.3615  -18.1573 C   0  0  0  0  0  0  0  0  0  0  0  0
   21.0750  -11.3232  -17.2279 C   0  0  2  0  0  0  0  0  0  0  0  0
   19.8403  -10.6943  -17.7834 C   0  0  0  0  0  0  0  0  0  0  0  0
   22.1516  -10.3091  -16.8823 C   0  0  2  0  0  0  0  0  0  0  0  0
   23.2689  -11.0354  -16.3346 N   0  0  0  0  0  0  0  0  0  0  0  0
   21.6921   -9.3105  -15.9150 C   0  0  0  0  0  0  0  0  0  0  0  0
   21.3825   -9.6549  -14.7494 O   0  0  0  0  0  0  0  0  0  0  0  0
   21.5771   -7.9330  -16.2428 N   0  0  0  0  0  0  0  0  0  0  0  0
   21.0941   -6.9650  -15.2253 C   0  0  1  0  0  0  0  0  0  0  0  0
   22.3197   -6.2017  -14.8083 C   0  0  0  0  0  0  0  0  0  0  0  0
   22.1118   -5.0953  -13.8849 C   0  0  0  0  0  0  0  0  0  0  0  0
   21.6029   -5.2011  -12.7488 O   0  0  0  0  0  0  0  0  0  0  0  0
   20.0448   -6.1104  -15.8446 C   0  0  0  0  0  0  0  0  0  0  0  0
   20.2239   -5.6642  -17.0017 O   0  0  0  0  0  0  0  0  0  0  0  0
   22.4957   -3.7865  -14.2515 O   0  0  0  0  0  0  0  0  0  0  0  0
   18.8509   -5.8149  -15.1046 N   0  0  0  0  0  0  0  0  0  0  0  0
   17.8431   -4.9566  -15.6675 C   0  0  0  0  0  0  0  0  0  0  0  0
   18.3427   -3.5649  -15.8622 C   0  0  0  0  0  0  0  0  0  0  0  0
   18.2084   -2.8818  -17.0515 O   0  0  0  0  0  0  0  0  0  0  0  0
   18.9032   -3.0114  -14.8974 O   0  0  0  0  0  0  0  0  0  0  0  0
  1  2  1  0
  2  3  1  0
  3  5  1  0
  3  4  1  6
  5  7  1  0
  5  6  1  1
  7  9  1  0
  8  7  2  0
  9 10  1  0
 10 14  1  0
 10 11  1  6
 11 12  1  0
 12 13  2  0
 14 15  2  0
 14 17  1  0
 16 12  1  0
 17 18  1  0
 18 19  1  0
 19 20  1  0
 21 19  2  0
M  END
$$$$
