IDG.pdb
     RDKit          3D

 21 20  0  0  1  0  0  0  0  0999 V2000
   24.6089  -12.1212  -16.8035 C   0  0  0  0  0  0  0  0  0  0  0  0
   23.2023  -11.6138  -16.8121 C   0  0  0  0  0  0  0  0  0  0  0  0
   22.8993  -10.7091  -15.6383 C   0  0  2  0  0  0  0  0  0  0  0  0
   23.1614  -11.3700  -14.3257 C   0  0  0  0  0  0  0  0  0  0  0  0
   21.4751  -10.1975  -15.7695 C   0  0  2  0  0  0  0  0  0  0  0  0
   21.2726   -9.8334  -17.1487 N   0  0  0  0  0  0  0  0  0  0  0  0
   21.2134   -9.0402  -14.9115 C   0  0  0  0  0  0  0  0  0  0  0  0
   20.9404   -9.2016  -13.6980 O   0  0  0  0  0  0  0  0  0  0  0  0
   21.2550   -7.7074  -15.4014 N   0  0  0  0  0  0  0  0  0  0  0  0
   21.0360   -6.5680  -14.4743 C   0  0  1  0  0  0  0  0  0  0  0  0
   22.2964   -5.7542  -14.5606 C   0  0  0  0  0  0  0  0  0  0  0  0
   22.3444   -4.5450  -13.7510 C   0  0  0  0  0  0  0  0  0  0  0  0
   22.1253   -4.5011  -12.5217 O   0  0  0  0  0  0  0  0  0  0  0  0
   19.8208   -5.8282  -14.9114 C   0  0  0  0  0  0  0  0  0  0  0  0
   19.5919   -4.6923  -14.4348 O   0  0  0  0  0  0  0  0  0  0  0  0
   22.6569   -3.3046  -14.3498 O   0  0  0  0  0  0  0  0  0  0  0  0
   18.9368   -6.4307  -15.8686 N   0  0  0  0  0  0  0  0  0  0  0  0
   17.7405   -5.7465  -16.2812 C   0  0  0  0  0  0  0  0  0  0  0  0
   16.6500   -5.8746  -15.2720 C   0  0  0  0  0  0  0  0  0  0  0  0
   15.4058   -5.3060  -15.4392 O   0  0  0  0  0  0  0  0  0  0  0  0
   16.8917   -6.5271  -14.2390 O   0  0  0  0  0  0  0  0  0  0  0  0
  1  2  1  0
  2  3  1  0
  3  5  1  0
  3  4  1  1
  5  7  1  0
  5  6  1  6
  7  9  1  0
  8  7  2  0
  9 10  1  0
 10 14  1  0
 10 11  1  6
 11 12  1  0
 12 13  2  0
 14 15  2  0
 14 17  1  0
 16 12  1  0
 17 18  1  0
 18 19  1  0
 19 20  1  0
 21 19  2  0
M  END
$$$$
