IDG.pdb
     RDKit          3D

 21 20  0  0  1  0  0  0  0  0999 V2000
   27.3946  -20.1760   -7.6969 C   0  0  0  0  0  0  0  0  0  0  0  0
   27.3091  -20.8994   -9.0028 C   0  0  0  0  0  0  0  0  0  0  0  0
   26.0743  -20.5321   -9.7956 C   0  0  2  0  0  0  0  0  0  0  0  0
   24.8122  -20.8152   -9.0501 C   0  0  0  0  0  0  0  0  0  0  0  0
   26.1336  -21.2279  -11.1444 C   0  0  2  0  0  0  0  0  0  0  0  0
   27.4525  -21.0132  -11.6832 N   0  0  0  0  0  0  0  0  0  0  0  0
   25.1303  -20.7203  -12.0823 C   0  0  0  0  0  0  0  0  0  0  0  0
   25.1973  -19.5403  -12.5024 O   0  0  0  0  0  0  0  0  0  0  0  0
   24.0557  -21.5221  -12.5518 N   0  0  0  0  0  0  0  0  0  0  0  0
   23.0639  -20.9540  -13.4999 C   0  0  1  0  0  0  0  0  0  0  0  0
   23.1598  -21.8221  -14.7229 C   0  0  0  0  0  0  0  0  0  0  0  0
   24.4328  -21.8088  -15.4296 C   0  0  0  0  0  0  0  0  0  0  0  0
   24.9212  -20.8100  -15.9995 O   0  0  0  0  0  0  0  0  0  0  0  0
   21.7225  -20.9822  -12.8558 C   0  0  0  0  0  0  0  0  0  0  0  0
   21.4300  -21.9326  -12.0936 O   0  0  0  0  0  0  0  0  0  0  0  0
   25.2117  -22.9845  -15.5060 O   0  0  0  0  0  0  0  0  0  0  0  0
   20.7923  -19.9215  -13.1211 N   0  0  0  0  0  0  0  0  0  0  0  0
   19.4928  -19.9261  -12.5043 C   0  0  0  0  0  0  0  0  0  0  0  0
   18.6397  -21.0391  -13.0119 C   0  0  0  0  0  0  0  0  0  0  0  0
   18.9999  -21.8291  -14.0821 O   0  0  0  0  0  0  0  0  0  0  0  0
   17.5580  -21.2497  -12.4314 O   0  0  0  0  0  0  0  0  0  0  0  0
  1  2  1  0
  2  3  1  0
  3  5  1  0
  3  4  1  1
  5  7  1  0
  5  6  1  6
  7  9  1  0
  8  7  2  0
  9 10  1  0
 10 14  1  0
 10 11  1  6
 11 12  1  0
 12 13  2  0
 14 15  2  0
 14 17  1  0
 16 12  1  0
 17 18  1  0
 18 19  1  0
 19 20  1  0
 21 19  2  0
M  END
$$$$
