IDG.pdb
     RDKit          3D

 21 20  0  0  1  0  0  0  0  0999 V2000
   24.2973  -33.3469  -11.4185 C   0  0  0  0  0  0  0  0  0  0  0  0
   25.1328  -32.4174  -10.5976 C   0  0  0  0  0  0  0  0  0  0  0  0
   25.9746  -33.1404   -9.5696 C   0  0  2  0  0  0  0  0  0  0  0  0
   26.7818  -34.2447  -10.1675 C   0  0  0  0  0  0  0  0  0  0  0  0
   25.0728  -33.6104   -8.4414 C   0  0  2  0  0  0  0  0  0  0  0  0
   24.4349  -32.4447   -7.8846 N   0  0  0  0  0  0  0  0  0  0  0  0
   25.8094  -34.3170   -7.3915 C   0  0  0  0  0  0  0  0  0  0  0  0
   26.9368  -34.8107   -7.6330 O   0  0  0  0  0  0  0  0  0  0  0  0
   25.2940  -34.4741   -6.0771 N   0  0  0  0  0  0  0  0  0  0  0  0
   26.0534  -35.2580   -5.0701 C   0  0  1  0  0  0  0  0  0  0  0  0
   25.9248  -34.4734   -3.7949 C   0  0  0  0  0  0  0  0  0  0  0  0
   26.9897  -33.5228   -3.5079 C   0  0  0  0  0  0  0  0  0  0  0  0
   28.2090  -33.7950   -3.5147 O   0  0  0  0  0  0  0  0  0  0  0  0
   25.4645  -36.6225   -4.9893 C   0  0  0  0  0  0  0  0  0  0  0  0
   26.1356  -37.5489   -4.4779 O   0  0  0  0  0  0  0  0  0  0  0  0
   26.6754  -32.1824   -3.1930 O   0  0  0  0  0  0  0  0  0  0  0  0
   24.1417  -36.8491   -5.4987 N   0  0  0  0  0  0  0  0  0  0  0  0
   23.5208  -38.1386   -5.3548 C   0  0  0  0  0  0  0  0  0  0  0  0
   22.6677  -38.2125   -4.1337 C   0  0  0  0  0  0  0  0  0  0  0  0
   21.8885  -39.3081   -3.8310 O   0  0  0  0  0  0  0  0  0  0  0  0
   22.6718  -37.2323   -3.3652 O   0  0  0  0  0  0  0  0  0  0  0  0
  1  2  1  0
  2  3  1  0
  3  5  1  0
  3  4  1  6
  5  7  1  0
  5  6  1  1
  7  9  1  0
  8  7  2  0
  9 10  1  0
 10 14  1  0
 10 11  1  1
 11 12  1  0
 12 13  2  0
 14 15  2  0
 14 17  1  0
 16 12  1  0
 17 18  1  0
 18 19  1  0
 19 20  1  0
 21 19  2  0
M  END
$$$$
