IDG.pdb
     RDKit          3D

 21 20  0  0  1  0  0  0  0  0999 V2000
   24.8300  -11.8045  -16.1473 C   0  0  0  0  0  0  0  0  0  0  0  0
   23.4480  -11.2833  -16.3806 C   0  0  0  0  0  0  0  0  0  0  0  0
   22.9100  -10.5029  -15.2017 C   0  0  2  0  0  0  0  0  0  0  0  0
   22.8211  -11.3302  -13.9623 C   0  0  0  0  0  0  0  0  0  0  0  0
   21.5818   -9.8786  -15.5930 C   0  0  2  0  0  0  0  0  0  0  0  0
   21.6752   -9.4989  -16.9797 N   0  0  0  0  0  0  0  0  0  0  0  0
   21.2533   -8.7043  -14.7824 C   0  0  0  0  0  0  0  0  0  0  0  0
   20.8063   -8.8442  -13.6189 O   0  0  0  0  0  0  0  0  0  0  0  0
   21.4213   -7.3784  -15.2641 N   0  0  0  0  0  0  0  0  0  0  0  0
   20.9682   -6.2268  -14.4431 C   0  0  1  0  0  0  0  0  0  0  0  0
   22.1809   -5.3495  -14.3087 C   0  0  0  0  0  0  0  0  0  0  0  0
   22.0084   -4.1152  -13.5558 C   0  0  0  0  0  0  0  0  0  0  0  0
   21.4663   -4.0351  -12.4330 O   0  0  0  0  0  0  0  0  0  0  0  0
   19.8318   -5.5656  -15.1405 C   0  0  0  0  0  0  0  0  0  0  0  0
   19.4113   -4.4643  -14.7161 O   0  0  0  0  0  0  0  0  0  0  0  0
   22.4697   -2.8913  -14.0886 O   0  0  0  0  0  0  0  0  0  0  0  0
   19.2412   -6.2026  -16.2833 N   0  0  0  0  0  0  0  0  0  0  0  0
   18.0825   -5.6295  -16.9143 C   0  0  0  0  0  0  0  0  0  0  0  0
   16.8204   -6.0263  -16.2259 C   0  0  0  0  0  0  0  0  0  0  0  0
   16.3641   -5.4043  -15.0839 O   0  0  0  0  0  0  0  0  0  0  0  0
   16.1629   -6.9625  -16.7183 O   0  0  0  0  0  0  0  0  0  0  0  0
  1  2  1  0
  2  3  1  0
  3  5  1  0
  3  4  1  1
  5  7  1  0
  5  6  1  6
  7  9  1  0
  8  7  2  0
  9 10  1  0
 10 14  1  0
 10 11  1  6
 11 12  1  0
 12 13  2  0
 14 15  2  0
 14 17  1  0
 16 12  1  0
 17 18  1  0
 18 19  1  0
 19 20  1  0
 21 19  2  0
M  END
$$$$
