IDG.pdb
     RDKit          3D

 21 20  0  0  1  0  0  0  0  0999 V2000
   18.3671  -12.7339  -17.9531 C   0  0  0  0  0  0  0  0  0  0  0  0
   19.5767  -11.9151  -17.6329 C   0  0  0  0  0  0  0  0  0  0  0  0
   19.2477  -10.6711  -16.8377 C   0  0  2  0  0  0  0  0  0  0  0  0
   18.2309   -9.8131  -17.5148 C   0  0  0  0  0  0  0  0  0  0  0  0
   20.5379   -9.9302  -16.5318 C   0  0  2  0  0  0  0  0  0  0  0  0
   21.4629  -10.8854  -15.9770 N   0  0  0  0  0  0  0  0  0  0  0  0
   20.3421   -8.8288  -15.5870 C   0  0  0  0  0  0  0  0  0  0  0  0
   19.8074   -9.0397  -14.4722 O   0  0  0  0  0  0  0  0  0  0  0  0
   20.7395   -7.4970  -15.8809 N   0  0  0  0  0  0  0  0  0  0  0  0
   20.4736   -6.4099  -14.9048 C   0  0  1  0  0  0  0  0  0  0  0  0
   21.8281   -5.8467  -14.5779 C   0  0  0  0  0  0  0  0  0  0  0  0
   22.0692   -5.5053  -13.1831 C   0  0  0  0  0  0  0  0  0  0  0  0
   21.6759   -6.1780  -12.2064 O   0  0  0  0  0  0  0  0  0  0  0  0
   19.5562   -5.4215  -15.5345 C   0  0  0  0  0  0  0  0  0  0  0  0
   19.0980   -4.4840  -14.8408 O   0  0  0  0  0  0  0  0  0  0  0  0
   22.7953   -4.3391  -12.8557 O   0  0  0  0  0  0  0  0  0  0  0  0
   19.2153   -5.5625  -16.9217 N   0  0  0  0  0  0  0  0  0  0  0  0
   18.2468   -4.6849  -17.5228 C   0  0  0  0  0  0  0  0  0  0  0  0
   18.8825   -3.4640  -18.0967 C   0  0  0  0  0  0  0  0  0  0  0  0
   18.1746   -2.5108  -18.7963 O   0  0  0  0  0  0  0  0  0  0  0  0
   20.1075   -3.3156  -17.9270 O   0  0  0  0  0  0  0  0  0  0  0  0
  1  2  1  0
  2  3  1  0
  3  5  1  0
  3  4  1  6
  5  7  1  0
  5  6  1  1
  7  9  1  0
  8  7  2  0
  9 10  1  0
 10 14  1  0
 10 11  1  6
 11 12  1  0
 12 13  2  0
 14 15  2  0
 14 17  1  0
 16 12  1  0
 17 18  1  0
 18 19  1  0
 19 20  1  0
 21 19  2  0
M  END
$$$$
