IDG.pdb
     RDKit          3D

 21 20  0  0  1  0  0  0  0  0999 V2000
   26.1635  -15.2634  -15.2187 C   0  0  0  0  0  0  0  0  0  0  0  0
   24.7306  -14.9260  -15.4817 C   0  0  0  0  0  0  0  0  0  0  0  0
   24.5176  -13.4548  -15.7612 C   0  0  2  0  0  0  0  0  0  0  0  0
   24.9583  -12.5888  -14.6280 C   0  0  0  0  0  0  0  0  0  0  0  0
   23.0642  -13.2347  -16.1438 C   0  0  2  0  0  0  0  0  0  0  0  0
   22.7642  -14.1294  -17.2325 N   0  0  0  0  0  0  0  0  0  0  0  0
   22.7942  -11.8547  -16.5522 C   0  0  0  0  0  0  0  0  0  0  0  0
   23.1919  -11.4356  -17.6654 O   0  0  0  0  0  0  0  0  0  0  0  0
   22.0842  -10.9436  -15.7253 N   0  0  0  0  0  0  0  0  0  0  0  0
   21.8106   -9.5645  -16.2036 C   0  0  1  0  0  0  0  0  0  0  0  0
   20.3834   -9.5962  -16.6731 C   0  0  0  0  0  0  0  0  0  0  0  0
   19.8280   -8.3361  -17.1460 C   0  0  0  0  0  0  0  0  0  0  0  0
   20.4781   -7.2784  -17.2859 O   0  0  0  0  0  0  0  0  0  0  0  0
   22.0446   -8.6178  -15.0792 C   0  0  0  0  0  0  0  0  0  0  0  0
   21.5792   -8.8859  -13.9472 O   0  0  0  0  0  0  0  0  0  0  0  0
   18.4596   -8.2491  -17.4848 O   0  0  0  0  0  0  0  0  0  0  0  0
   22.7973   -7.4184  -15.3146 N   0  0  0  0  0  0  0  0  0  0  0  0
   23.0751   -6.5129  -14.2318 C   0  0  0  0  0  0  0  0  0  0  0  0
   21.9453   -5.5694  -13.9917 C   0  0  0  0  0  0  0  0  0  0  0  0
   21.9786   -4.5958  -13.0169 O   0  0  0  0  0  0  0  0  0  0  0  0
   20.9358   -5.6805  -14.7127 O   0  0  0  0  0  0  0  0  0  0  0  0
  1  2  1  0
  2  3  1  0
  3  5  1  0
  3  4  1  1
  5  7  1  0
  5  6  1  6
  7  9  1  0
  8  7  2  0
  9 10  1  0
 10 14  1  0
 10 11  1  1
 11 12  1  0
 12 13  2  0
 14 15  2  0
 14 17  1  0
 16 12  1  0
 17 18  1  0
 18 19  1  0
 19 20  1  0
 21 19  2  0
M  END
$$$$
