WLD.pdb
     RDKit          3D

 31 32  0  0  1  0  0  0  0  0999 V2000
    8.8862  -16.9201   25.3521 N   0  0  0  0  0  0  0  0  0  0  0  0
    7.5206  -17.0542   24.9449 C   0  0  1  0  0  0  0  0  0  0  0  0
    6.6219  -16.3805   25.9597 C   0  0  0  0  0  0  0  0  0  0  0  0
    7.3005  -15.2608   26.6390 C   0  0  0  0  0  0  0  0  0  0  0  0
    8.4015  -15.3766   27.4434 C   0  0  0  0  0  0  0  0  0  0  0  0
    8.7284  -14.1379   27.8790 N   0  0  0  0  0  0  0  0  0  0  0  0
    7.8515  -13.2374   27.3632 C   0  0  0  0  0  0  0  0  0  0  0  0
    7.7274  -11.8662   27.4826 C   0  0  0  0  0  0  0  0  0  0  0  0
    6.6990  -11.2302   26.8130 C   0  0  0  0  0  0  0  0  0  0  0  0
    5.8011  -11.9100   26.0373 C   0  0  0  0  0  0  0  0  0  0  0  0
    5.9395  -13.2834   25.9282 C   0  0  0  0  0  0  0  0  0  0  0  0
    6.9584  -13.9427   26.5872 C   0  0  0  0  0  0  0  0  0  0  0  0
    7.2549  -16.4190   23.6348 C   0  0  0  0  0  0  0  0  0  0  0  0
    6.1340  -16.4488   23.0732 O   0  0  0  0  0  0  0  0  0  0  0  0
    6.6765  -13.3663   19.7271 C   0  0  0  0  0  0  0  0  0  0  0  0
    8.2016  -13.3362   20.0180 C   0  0  1  0  0  0  0  0  0  0  0  0
    8.5315  -11.8488   19.9686 C   0  0  0  0  0  0  0  0  0  0  0  0
    8.3595  -13.9306   21.3561 C   0  0  0  0  0  0  0  0  0  0  0  0
    8.1455  -15.3562   21.5838 C   0  0  2  0  0  0  0  0  0  0  0  0
    8.3270  -15.7299   22.9612 N   0  0  0  0  0  0  0  0  0  0  0  0
    8.9382  -16.2846   20.7549 C   0  0  0  0  0  0  0  0  0  0  0  0
    8.6886  -16.6460   19.6002 O   0  0  0  0  0  0  0  0  0  0  0  0
   10.1144  -16.8127   21.3649 N   0  0  0  0  0  0  0  0  0  0  0  0
   11.1189  -17.5588   20.6201 C   0  0  1  0  0  0  0  0  0  0  0  0
   11.5811  -16.6935   19.4729 C   0  0  0  0  0  0  0  0  0  0  0  0
   12.4995  -17.4436   18.5982 C   0  0  0  0  0  0  0  0  0  0  0  0
   12.8831  -18.5879   18.8759 O   0  0  0  0  0  0  0  0  0  0  0  0
   12.2091  -18.0294   21.4748 C   0  0  0  0  0  0  0  0  0  0  0  0
   13.1830  -18.6232   20.9933 O   0  0  0  0  0  0  0  0  0  0  0  0
   12.9352  -16.8182   17.4233 O   0  0  0  0  0  0  0  0  0  0  0  0
   12.1524  -17.8061   22.8554 O   0  0  0  0  0  0  0  0  0  0  0  0
  2  1  1  1
  3  4  1  0
  3  2  1  0
  4  5  2  0
  6  5  1  0
  7  6  1  0
  8  7  2  0
  9  8  1  0
 10  9  2  0
 10 11  1  0
 11 12  2  0
 12  7  1  0
 12  4  1  0
 13  2  1  0
 13 20  1  0
 14 13  2  0
 16 18  1  0
 16 15  1  1
 17 16  1  0
 19 18  1  1
 19 20  1  0
 19 21  1  0
 21 22  2  0
 21 23  1  0
 23 24  1  0
 24 28  1  0
 25 26  1  0
 24 25  1  6
 26 27  2  0
 28 29  2  0
 28 31  1  0
 30 26  1  0
M  END
$$$$
