WLD.pdb
     RDKit          3D

 31 32  0  0  1  0  0  0  0  0999 V2000
    6.3981  -18.4218   24.8025 N   0  0  0  0  0  0  0  0  0  0  0  0
    6.8017  -17.0827   24.4977 C   0  0  1  0  0  0  0  0  0  0  0  0
    7.5020  -16.4804   25.6970 C   0  0  0  0  0  0  0  0  0  0  0  0
    6.7885  -15.2980   26.2152 C   0  0  0  0  0  0  0  0  0  0  0  0
    5.4377  -15.2182   26.4193 C   0  0  0  0  0  0  0  0  0  0  0  0
    5.1635  -13.9829   26.8989 N   0  0  0  0  0  0  0  0  0  0  0  0
    6.3200  -13.2774   27.0024 C   0  0  0  0  0  0  0  0  0  0  0  0
    6.6074  -11.9938   27.4263 C   0  0  0  0  0  0  0  0  0  0  0  0
    7.9217  -11.5660   27.4093 C   0  0  0  0  0  0  0  0  0  0  0  0
    8.9461  -12.3679   26.9880 C   0  0  0  0  0  0  0  0  0  0  0  0
    8.6411  -13.6511   26.5666 C   0  0  0  0  0  0  0  0  0  0  0  0
    7.3360  -14.1027   26.5738 C   0  0  0  0  0  0  0  0  0  0  0  0
    7.7479  -17.0208   23.3614 C   0  0  0  0  0  0  0  0  0  0  0  0
    8.0615  -18.0224   22.6751 O   0  0  0  0  0  0  0  0  0  0  0  0
    7.2855  -13.8537   19.2012 C   0  0  0  0  0  0  0  0  0  0  0  0
    8.5863  -13.5002   19.9722 C   0  0  1  0  0  0  0  0  0  0  0  0
    8.6205  -11.9776   19.9083 C   0  0  0  0  0  0  0  0  0  0  0  0
    8.3938  -14.0285   21.3333 C   0  0  0  0  0  0  0  0  0  0  0  0
    8.5530  -15.4495   21.6258 C   0  0  2  0  0  0  0  0  0  0  0  0
    8.3448  -15.7549   23.0162 N   0  0  0  0  0  0  0  0  0  0  0  0
    9.8254  -16.0714   21.2116 C   0  0  0  0  0  0  0  0  0  0  0  0
   10.1275  -16.4586   20.0780 O   0  0  0  0  0  0  0  0  0  0  0  0
   10.8001  -16.2367   22.2398 N   0  0  0  0  0  0  0  0  0  0  0  0
   11.9189  -17.1610   22.1210 C   0  0  1  0  0  0  0  0  0  0  0  0
   13.1674  -16.4344   22.5590 C   0  0  0  0  0  0  0  0  0  0  0  0
   13.5696  -15.4429   21.5459 C   0  0  0  0  0  0  0  0  0  0  0  0
   13.3479  -15.6102   20.3390 O   0  0  0  0  0  0  0  0  0  0  0  0
   11.6859  -18.4119   22.8433 C   0  0  0  0  0  0  0  0  0  0  0  0
   10.6575  -18.5772   23.5127 O   0  0  0  0  0  0  0  0  0  0  0  0
   14.2206  -14.2855   21.9907 O   0  0  0  0  0  0  0  0  0  0  0  0
   12.6370  -19.4367   22.7778 O   0  0  0  0  0  0  0  0  0  0  0  0
  2  1  1  1
  3  4  1  0
  3  2  1  0
  4  5  2  0
  6  5  1  0
  7  6  1  0
  8  7  2  0
  9  8  1  0
 10  9  2  0
 10 11  1  0
 11 12  2  0
 12  7  1  0
 12  4  1  0
 13  2  1  0
 13 20  1  0
 14 13  2  0
 16 18  1  0
 16 15  1  6
 17 16  1  0
 19 18  1  1
 19 20  1  0
 19 21  1  0
 21 22  2  0
 21 23  1  0
 23 24  1  0
 24 28  1  0
 25 26  1  0
 24 25  1  1
 26 27  2  0
 28 29  2  0
 28 31  1  0
 30 26  1  0
M  END
$$$$
