WLD.pdb
     RDKit          3D

 31 32  0  0  1  0  0  0  0  0999 V2000
    6.5127  -17.7987   24.4681 N   0  0  0  0  0  0  0  0  0  0  0  0
    7.2175  -16.6165   24.0751 C   0  0  1  0  0  0  0  0  0  0  0  0
    7.8428  -15.9722   25.2938 C   0  0  0  0  0  0  0  0  0  0  0  0
    6.9546  -14.9626   25.9000 C   0  0  0  0  0  0  0  0  0  0  0  0
    5.6918  -15.2026   26.3694 C   0  0  0  0  0  0  0  0  0  0  0  0
    5.1988  -14.0365   26.8471 N   0  0  0  0  0  0  0  0  0  0  0  0
    6.1298  -13.0597   26.6881 C   0  0  0  0  0  0  0  0  0  0  0  0
    6.1461  -11.7126   26.9961 C   0  0  0  0  0  0  0  0  0  0  0  0
    7.2767  -10.9753   26.6978 C   0  0  0  0  0  0  0  0  0  0  0  0
    8.3782  -11.5321   26.1092 C   0  0  0  0  0  0  0  0  0  0  0  0
    8.3456  -12.8831   25.8072 C   0  0  0  0  0  0  0  0  0  0  0  0
    7.2282  -13.6419   26.0949 C   0  0  0  0  0  0  0  0  0  0  0  0
    8.3117  -16.9003   23.1198 C   0  0  0  0  0  0  0  0  0  0  0  0
    8.6427  -18.0618   22.7819 O   0  0  0  0  0  0  0  0  0  0  0  0
    8.3682  -12.3825   20.2143 C   0  0  0  0  0  0  0  0  0  0  0  0
    8.0294  -13.7661   20.8328 C   0  0  1  0  0  0  0  0  0  0  0  0
    6.6866  -14.1070   20.1973 C   0  0  0  0  0  0  0  0  0  0  0  0
    9.1222  -14.6618   20.4176 C   0  0  0  0  0  0  0  0  0  0  0  0
    9.4289  -15.8803   21.1601 C   0  0  2  0  0  0  0  0  0  0  0  0
    9.0401  -15.7983   22.5428 N   0  0  0  0  0  0  0  0  0  0  0  0
   10.8266  -16.3508   21.1103 C   0  0  0  0  0  0  0  0  0  0  0  0
   11.5362  -16.4632   20.1053 O   0  0  0  0  0  0  0  0  0  0  0  0
   11.4062  -16.7105   22.3629 N   0  0  0  0  0  0  0  0  0  0  0  0
   12.8223  -17.0135   22.5156 C   0  0  1  0  0  0  0  0  0  0  0  0
   13.6064  -15.8369   21.9869 C   0  0  0  0  0  0  0  0  0  0  0  0
   15.0536  -16.0987   22.0773 C   0  0  0  0  0  0  0  0  0  0  0  0
   15.5724  -17.1020   21.5696 O   0  0  0  0  0  0  0  0  0  0  0  0
   13.1680  -17.3775   23.8898 C   0  0  0  0  0  0  0  0  0  0  0  0
   14.3329  -17.6617   24.1981 O   0  0  0  0  0  0  0  0  0  0  0  0
   15.8417  -15.1669   22.7644 O   0  0  0  0  0  0  0  0  0  0  0  0
   12.1698  -17.4053   24.8707 O   0  0  0  0  0  0  0  0  0  0  0  0
  2  1  1  1
  3  4  1  0
  3  2  1  0
  4  5  2  0
  6  5  1  0
  7  6  1  0
  8  7  2  0
  9  8  1  0
 10  9  2  0
 10 11  1  0
 11 12  2  0
 12  7  1  0
 12  4  1  0
 13  2  1  0
 13 20  1  0
 14 13  2  0
 16 18  1  0
 16 15  1  6
 17 16  1  0
 19 18  1  1
 19 20  1  0
 19 21  1  0
 21 22  2  0
 21 23  1  0
 23 24  1  0
 24 28  1  0
 25 26  1  0
 24 25  1  1
 26 27  2  0
 28 29  2  0
 28 31  1  0
 30 26  1  0
M  END
$$$$
