WLD.pdb
     RDKit          3D

 31 32  0  0  1  0  0  0  0  0999 V2000
    7.1429  -17.2450   25.1877 N   0  0  0  0  0  0  0  0  0  0  0  0
    7.5774  -16.1258   24.4082 C   0  0  1  0  0  0  0  0  0  0  0  0
    8.7844  -15.4906   25.0648 C   0  0  0  0  0  0  0  0  0  0  0  0
    8.4161  -14.7241   26.2701 C   0  0  0  0  0  0  0  0  0  0  0  0
    8.7469  -15.0647   27.5535 C   0  0  0  0  0  0  0  0  0  0  0  0
    8.2332  -14.1225   28.3777 N   0  0  0  0  0  0  0  0  0  0  0  0
    7.5812  -13.1888   27.6368 C   0  0  0  0  0  0  0  0  0  0  0  0
    6.8909  -12.0373   27.9650 C   0  0  0  0  0  0  0  0  0  0  0  0
    6.3281  -11.2866   26.9499 C   0  0  0  0  0  0  0  0  0  0  0  0
    6.4304  -11.6434   25.6338 C   0  0  0  0  0  0  0  0  0  0  0  0
    7.1254  -12.7997   25.3220 C   0  0  0  0  0  0  0  0  0  0  0  0
    7.6970  -13.5675   26.3175 C   0  0  0  0  0  0  0  0  0  0  0  0
    7.9776  -16.5118   23.0366 C   0  0  0  0  0  0  0  0  0  0  0  0
    7.8530  -17.6763   22.5882 O   0  0  0  0  0  0  0  0  0  0  0  0
    8.3525  -12.2966   19.4252 C   0  0  0  0  0  0  0  0  0  0  0  0
    7.9765  -13.3011   20.5482 C   0  0  1  0  0  0  0  0  0  0  0  0
    6.5276  -12.9436   20.8580 C   0  0  0  0  0  0  0  0  0  0  0  0
    8.1390  -14.6379   19.9520 C   0  0  0  0  0  0  0  0  0  0  0  0
    8.5804  -15.7770   20.7506 C   0  0  2  0  0  0  0  0  0  0  0  0
    8.5388  -15.5111   22.1639 N   0  0  0  0  0  0  0  0  0  0  0  0
    9.9107  -16.3311   20.4334 C   0  0  0  0  0  0  0  0  0  0  0  0
   10.3127  -16.7091   19.3281 O   0  0  0  0  0  0  0  0  0  0  0  0
   10.8179  -16.4354   21.5292 N   0  0  0  0  0  0  0  0  0  0  0  0
   12.2429  -16.6752   21.3498 C   0  0  1  0  0  0  0  0  0  0  0  0
   12.7643  -15.6514   20.3707 C   0  0  0  0  0  0  0  0  0  0  0  0
   14.2031  -15.8556   20.1277 C   0  0  0  0  0  0  0  0  0  0  0  0
   14.8369  -16.7719   20.6685 O   0  0  0  0  0  0  0  0  0  0  0  0
   12.9681  -16.6926   22.6203 C   0  0  0  0  0  0  0  0  0  0  0  0
   12.4396  -16.2761   23.6596 O   0  0  0  0  0  0  0  0  0  0  0  0
   14.8474  -14.9711   19.2537 O   0  0  0  0  0  0  0  0  0  0  0  0
   14.2771  -17.1864   22.6636 O   0  0  0  0  0  0  0  0  0  0  0  0
  2  1  1  1
  3  4  1  0
  3  2  1  0
  4  5  2  0
  6  5  1  0
  7  6  1  0
  8  7  2  0
  9  8  1  0
 10  9  2  0
 10 11  1  0
 11 12  2  0
 12  7  1  0
 12  4  1  0
 13  2  1  0
 13 20  1  0
 14 13  2  0
 16 18  1  0
 16 15  1  6
 17 16  1  0
 19 18  1  6
 19 20  1  0
 19 21  1  0
 21 22  2  0
 21 23  1  0
 23 24  1  0
 24 28  1  0
 25 26  1  0
 24 25  1  6
 26 27  2  0
 28 29  2  0
 28 31  1  0
 30 26  1  0
M  END
$$$$
