WLD.pdb
     RDKit          3D

 31 32  0  0  1  0  0  0  0  0999 V2000
    6.5154  -18.7366   24.8312 N   0  0  0  0  0  0  0  0  0  0  0  0
    6.7990  -17.3544   24.5907 C   0  0  1  0  0  0  0  0  0  0  0  0
    7.5309  -16.7738   25.7817 C   0  0  0  0  0  0  0  0  0  0  0  0
    7.0398  -15.4264   26.1269 C   0  0  0  0  0  0  0  0  0  0  0  0
    5.7262  -15.0426   26.1318 C   0  0  0  0  0  0  0  0  0  0  0  0
    5.6764  -13.7411   26.4985 N   0  0  0  0  0  0  0  0  0  0  0  0
    6.9385  -13.2928   26.7264 C   0  0  0  0  0  0  0  0  0  0  0  0
    7.4493  -12.0689   27.1153 C   0  0  0  0  0  0  0  0  0  0  0  0
    8.8172  -11.9349   27.2619 C   0  0  0  0  0  0  0  0  0  0  0  0
    9.6816  -12.9701   27.0357 C   0  0  0  0  0  0  0  0  0  0  0  0
    9.1536  -14.1896   26.6468 C   0  0  0  0  0  0  0  0  0  0  0  0
    7.7905  -14.3496   26.4931 C   0  0  0  0  0  0  0  0  0  0  0  0
    7.6611  -17.1507   23.4051 C   0  0  0  0  0  0  0  0  0  0  0  0
    8.2066  -18.0939   22.7840 O   0  0  0  0  0  0  0  0  0  0  0  0
    6.9422  -12.3525   19.7583 C   0  0  0  0  0  0  0  0  0  0  0  0
    7.5458  -13.7831   19.7400 C   0  0  1  0  0  0  0  0  0  0  0  0
    8.9381  -13.5612   19.1607 C   0  0  0  0  0  0  0  0  0  0  0  0
    7.5557  -14.2248   21.1448 C   0  0  0  0  0  0  0  0  0  0  0  0
    7.9478  -15.5820   21.5113 C   0  0  2  0  0  0  0  0  0  0  0  0
    7.8932  -15.8094   22.9309 N   0  0  0  0  0  0  0  0  0  0  0  0
    9.2643  -16.0428   21.0297 C   0  0  0  0  0  0  0  0  0  0  0  0
    9.6325  -16.1380   19.8543 O   0  0  0  0  0  0  0  0  0  0  0  0
   10.2004  -16.4144   22.0396 N   0  0  0  0  0  0  0  0  0  0  0  0
   11.6113  -16.6399   21.7590 C   0  0  1  0  0  0  0  0  0  0  0  0
   12.1622  -15.3868   21.1228 C   0  0  0  0  0  0  0  0  0  0  0  0
   13.5752  -15.5755   20.7501 C   0  0  0  0  0  0  0  0  0  0  0  0
   14.1777  -16.6341   20.9739 O   0  0  0  0  0  0  0  0  0  0  0  0
   12.3527  -17.0687   22.9452 C   0  0  0  0  0  0  0  0  0  0  0  0
   12.1138  -16.5770   24.0561 O   0  0  0  0  0  0  0  0  0  0  0  0
   14.2314  -14.5079   20.1249 O   0  0  0  0  0  0  0  0  0  0  0  0
   13.3457  -18.0479   22.8246 O   0  0  0  0  0  0  0  0  0  0  0  0
  2  1  1  1
  3  4  1  0
  3  2  1  0
  4  5  2  0
  6  5  1  0
  7  6  1  0
  8  7  2  0
  9  8  1  0
 10  9  2  0
 10 11  1  0
 11 12  2  0
 12  7  1  0
 12  4  1  0
 13  2  1  0
 13 20  1  0
 14 13  2  0
 16 18  1  0
 16 15  1  1
 17 16  1  0
 19 18  1  1
 19 20  1  0
 19 21  1  0
 21 22  2  0
 21 23  1  0
 23 24  1  0
 24 28  1  0
 25 26  1  0
 24 25  1  1
 26 27  2  0
 28 29  2  0
 28 31  1  0
 30 26  1  0
M  END
$$$$
