WLD.pdb
     RDKit          3D

 31 32  0  0  1  0  0  0  0  0999 V2000
    8.3687  -17.9063   23.7982 N   0  0  0  0  0  0  0  0  0  0  0  0
    8.8598  -16.8066   23.0247 C   0  0  1  0  0  0  0  0  0  0  0  0
    7.7164  -15.8721   22.6918 C   0  0  0  0  0  0  0  0  0  0  0  0
    7.0506  -15.3622   23.9052 C   0  0  0  0  0  0  0  0  0  0  0  0
    6.4039  -16.1324   24.8333 C   0  0  0  0  0  0  0  0  0  0  0  0
    5.9256  -15.3087   25.7944 N   0  0  0  0  0  0  0  0  0  0  0  0
    6.2589  -14.0271   25.4904 C   0  0  0  0  0  0  0  0  0  0  0  0
    6.0262  -12.8176   26.1173 C   0  0  0  0  0  0  0  0  0  0  0  0
    6.5113  -11.6619   25.5346 C   0  0  0  0  0  0  0  0  0  0  0  0
    7.2127  -11.6738   24.3608 C   0  0  0  0  0  0  0  0  0  0  0  0
    7.4373  -12.8938   23.7457 C   0  0  0  0  0  0  0  0  0  0  0  0
    6.9632  -14.0631   24.3072 C   0  0  0  0  0  0  0  0  0  0  0  0
    9.8769  -16.0131   23.7502 C   0  0  0  0  0  0  0  0  0  0  0  0
   10.5978  -15.1505   23.1944 O   0  0  0  0  0  0  0  0  0  0  0  0
   10.5920  -14.8034   29.0368 C   0  0  0  0  0  0  0  0  0  0  0  0
    9.8014  -14.6337   27.7111 C   0  0  1  0  0  0  0  0  0  0  0  0
    9.0009  -13.3587   27.9493 C   0  0  0  0  0  0  0  0  0  0  0  0
   10.8219  -14.5006   26.6577 C   0  0  0  0  0  0  0  0  0  0  0  0
   11.1925  -15.6311   25.8123 C   0  0  2  0  0  0  0  0  0  0  0  0
   10.0578  -16.2321   25.1634 N   0  0  0  0  0  0  0  0  0  0  0  0
   11.9706  -16.7089   26.4531 C   0  0  0  0  0  0  0  0  0  0  0  0
   12.9667  -16.5781   27.1719 O   0  0  0  0  0  0  0  0  0  0  0  0
   11.5121  -18.0369   26.2072 N   0  0  0  0  0  0  0  0  0  0  0  0
   12.2432  -19.2155   26.6507 C   0  0  1  0  0  0  0  0  0  0  0  0
   11.2540  -20.1595   27.2903 C   0  0  0  0  0  0  0  0  0  0  0  0
   10.8824  -19.6844   28.6347 C   0  0  0  0  0  0  0  0  0  0  0  0
   11.6431  -18.9855   29.3177 O   0  0  0  0  0  0  0  0  0  0  0  0
   13.0214  -19.8256   25.5724 C   0  0  0  0  0  0  0  0  0  0  0  0
   13.0179  -19.3408   24.4332 O   0  0  0  0  0  0  0  0  0  0  0  0
    9.6241  -20.0498   29.1291 O   0  0  0  0  0  0  0  0  0  0  0  0
   13.7808  -20.9729   25.8302 O   0  0  0  0  0  0  0  0  0  0  0  0
  2  1  1  1
  3  4  1  0
  3  2  1  0
  4  5  2  0
  6  5  1  0
  7  6  1  0
  8  7  2  0
  9  8  1  0
 10  9  2  0
 10 11  1  0
 11 12  2  0
 12  7  1  0
 12  4  1  0
 13  2  1  0
 13 20  1  0
 14 13  2  0
 16 18  1  0
 16 15  1  1
 17 16  1  0
 19 18  1  1
 19 20  1  0
 19 21  1  0
 21 22  2  0
 21 23  1  0
 23 24  1  0
 24 28  1  0
 25 26  1  0
 24 25  1  6
 26 27  2  0
 28 29  2  0
 28 31  1  0
 30 26  1  0
M  END
$$$$
