WLD.pdb
     RDKit          3D

 31 32  0  0  1  0  0  0  0  0999 V2000
    6.5766  -17.0369   25.3049 N   0  0  0  0  0  0  0  0  0  0  0  0
    7.1297  -15.9687   24.5292 C   0  0  1  0  0  0  0  0  0  0  0  0
    8.4332  -15.5149   25.1506 C   0  0  0  0  0  0  0  0  0  0  0  0
    8.2148  -14.7556   26.3962 C   0  0  0  0  0  0  0  0  0  0  0  0
    8.6975  -15.1048   27.6281 C   0  0  0  0  0  0  0  0  0  0  0  0
    8.2889  -14.1671   28.5141 N   0  0  0  0  0  0  0  0  0  0  0  0
    7.5541  -13.2279   27.8631 C   0  0  0  0  0  0  0  0  0  0  0  0
    6.9109  -12.0777   28.2793 C   0  0  0  0  0  0  0  0  0  0  0  0
    6.2310  -11.3199   27.3443 C   0  0  0  0  0  0  0  0  0  0  0  0
    6.1730  -11.6685   26.0233 C   0  0  0  0  0  0  0  0  0  0  0  0
    6.8229  -12.8236   25.6228 C   0  0  0  0  0  0  0  0  0  0  0  0
    7.5090  -13.5984   26.5372 C   0  0  0  0  0  0  0  0  0  0  0  0
    7.4260  -16.3739   23.1369 C   0  0  0  0  0  0  0  0  0  0  0  0
    7.2480  -17.5394   22.7095 O   0  0  0  0  0  0  0  0  0  0  0  0
    7.5752  -12.4582   18.9471 C   0  0  0  0  0  0  0  0  0  0  0  0
    8.2750  -13.3218   20.0315 C   0  0  1  0  0  0  0  0  0  0  0  0
    7.9511  -12.5801   21.3232 C   0  0  0  0  0  0  0  0  0  0  0  0
    7.6477  -14.6511   19.9422 C   0  0  0  0  0  0  0  0  0  0  0  0
    8.0491  -15.7411   20.8259 C   0  0  2  0  0  0  0  0  0  0  0  0
    7.9445  -15.3920   22.2177 N   0  0  0  0  0  0  0  0  0  0  0  0
    9.3907  -16.3135   20.6027 C   0  0  0  0  0  0  0  0  0  0  0  0
    9.7549  -16.9969   19.6402 O   0  0  0  0  0  0  0  0  0  0  0  0
   10.3590  -16.0404   21.6137 N   0  0  0  0  0  0  0  0  0  0  0  0
   11.7207  -16.5532   21.5571 C   0  0  1  0  0  0  0  0  0  0  0  0
   12.6475  -15.3812   21.3427 C   0  0  0  0  0  0  0  0  0  0  0  0
   13.1758  -15.3858   19.9672 C   0  0  0  0  0  0  0  0  0  0  0  0
   12.8953  -16.2813   19.1591 O   0  0  0  0  0  0  0  0  0  0  0  0
   12.0598  -17.3611   22.7287 C   0  0  0  0  0  0  0  0  0  0  0  0
   11.4431  -17.2263   23.7938 O   0  0  0  0  0  0  0  0  0  0  0  0
   14.0183  -14.3326   19.5903 O   0  0  0  0  0  0  0  0  0  0  0  0
   13.0951  -18.2996   22.6465 O   0  0  0  0  0  0  0  0  0  0  0  0
  2  1  1  1
  3  4  1  0
  3  2  1  0
  4  5  2  0
  6  5  1  0
  7  6  1  0
  8  7  2  0
  9  8  1  0
 10  9  2  0
 10 11  1  0
 11 12  2  0
 12  7  1  0
 12  4  1  0
 13  2  1  0
 13 20  1  0
 14 13  2  0
 16 18  1  0
 16 15  1  6
 17 16  1  0
 19 18  1  6
 19 20  1  0
 19 21  1  0
 21 22  2  0
 21 23  1  0
 23 24  1  0
 24 28  1  0
 25 26  1  0
 24 25  1  1
 26 27  2  0
 28 29  2  0
 28 31  1  0
 30 26  1  0
M  END
$$$$
