WLD.pdb
     RDKit          3D

 31 32  0  0  1  0  0  0  0  0999 V2000
    6.5784  -17.6505   25.3407 N   0  0  0  0  0  0  0  0  0  0  0  0
    7.0875  -16.3786   24.9261 C   0  0  1  0  0  0  0  0  0  0  0  0
    8.3746  -16.0836   25.6662 C   0  0  0  0  0  0  0  0  0  0  0  0
    8.1738  -15.1063   26.7526 C   0  0  0  0  0  0  0  0  0  0  0  0
    8.4303  -15.3349   28.0771 C   0  0  0  0  0  0  0  0  0  0  0  0
    8.1224  -14.2076   28.7593 N   0  0  0  0  0  0  0  0  0  0  0  0
    7.6741  -13.2667   27.8877 C   0  0  0  0  0  0  0  0  0  0  0  0
    7.2353  -11.9659   28.0468 C   0  0  0  0  0  0  0  0  0  0  0  0
    6.8363  -11.2568   26.9293 C   0  0  0  0  0  0  0  0  0  0  0  0
    6.8606  -11.7973   25.6734 C   0  0  0  0  0  0  0  0  0  0  0  0
    7.3031  -13.1016   25.5314 C   0  0  0  0  0  0  0  0  0  0  0  0
    7.7072  -13.8316   26.6319 C   0  0  0  0  0  0  0  0  0  0  0  0
    7.3949  -16.3356   23.4790 C   0  0  0  0  0  0  0  0  0  0  0  0
    7.2457  -17.3204   22.7169 O   0  0  0  0  0  0  0  0  0  0  0  0
    6.9363  -13.7826   18.8156 C   0  0  0  0  0  0  0  0  0  0  0  0
    8.2577  -13.4004   19.5361 C   0  0  1  0  0  0  0  0  0  0  0  0
    8.3990  -11.9140   19.2291 C   0  0  0  0  0  0  0  0  0  0  0  0
    8.0270  -13.6882   20.9618 C   0  0  0  0  0  0  0  0  0  0  0  0
    8.0945  -15.0501   21.4822 C   0  0  2  0  0  0  0  0  0  0  0  0
    7.8900  -15.1095   22.9050 N   0  0  0  0  0  0  0  0  0  0  0  0
    9.3146  -15.8183   21.1680 C   0  0  0  0  0  0  0  0  0  0  0  0
    9.6317  -16.2914   20.0717 O   0  0  0  0  0  0  0  0  0  0  0  0
   10.2135  -16.0290   22.2551 N   0  0  0  0  0  0  0  0  0  0  0  0
   11.6068  -16.4054   22.0614 C   0  0  1  0  0  0  0  0  0  0  0  0
   12.2676  -15.3249   21.2402 C   0  0  0  0  0  0  0  0  0  0  0  0
   13.1268  -15.9192   20.2011 C   0  0  0  0  0  0  0  0  0  0  0  0
   13.2408  -17.1448   20.0651 O   0  0  0  0  0  0  0  0  0  0  0  0
   12.2897  -16.6797   23.3259 C   0  0  0  0  0  0  0  0  0  0  0  0
   13.4836  -17.0070   23.3454 O   0  0  0  0  0  0  0  0  0  0  0  0
   13.8238  -15.0468   19.3559 O   0  0  0  0  0  0  0  0  0  0  0  0
   11.5856  -16.5712   24.5308 O   0  0  0  0  0  0  0  0  0  0  0  0
  2  1  1  1
  3  4  1  0
  3  2  1  0
  4  5  2  0
  6  5  1  0
  7  6  1  0
  8  7  2  0
  9  8  1  0
 10  9  2  0
 10 11  1  0
 11 12  2  0
 12  7  1  0
 12  4  1  0
 13  2  1  0
 13 20  1  0
 14 13  2  0
 16 18  1  0
 16 15  1  6
 17 16  1  0
 19 18  1  1
 19 20  1  0
 19 21  1  0
 21 22  2  0
 21 23  1  0
 23 24  1  0
 24 28  1  0
 25 26  1  0
 24 25  1  1
 26 27  2  0
 28 29  2  0
 28 31  1  0
 30 26  1  0
M  END
$$$$
