WLD.pdb
     RDKit          3D

 31 32  0  0  1  0  0  0  0  0999 V2000
    6.9420  -18.9714   25.0925 N   0  0  0  0  0  0  0  0  0  0  0  0
    6.6886  -17.5718   24.9319 C   0  0  1  0  0  0  0  0  0  0  0  0
    7.4707  -16.7942   25.9687 C   0  0  0  0  0  0  0  0  0  0  0  0
    6.9697  -15.4148   26.1163 C   0  0  0  0  0  0  0  0  0  0  0  0
    5.6738  -15.0208   25.9213 C   0  0  0  0  0  0  0  0  0  0  0  0
    5.6070  -13.6886   26.1491 N   0  0  0  0  0  0  0  0  0  0  0  0
    6.8412  -13.2309   26.4857 C   0  0  0  0  0  0  0  0  0  0  0  0
    7.3264  -11.9788   26.8123 C   0  0  0  0  0  0  0  0  0  0  0  0
    8.6688  -11.8429   27.1127 C   0  0  0  0  0  0  0  0  0  0  0  0
    9.5322  -12.9032   27.0979 C   0  0  0  0  0  0  0  0  0  0  0  0
    9.0300  -14.1508   26.7688 C   0  0  0  0  0  0  0  0  0  0  0  0
    7.6927  -14.3134   26.4645 C   0  0  0  0  0  0  0  0  0  0  0  0
    7.1034  -17.0697   23.6029 C   0  0  0  0  0  0  0  0  0  0  0  0
    6.2967  -16.6022   22.7643 O   0  0  0  0  0  0  0  0  0  0  0  0
    7.3645  -12.7388   22.2828 C   0  0  0  0  0  0  0  0  0  0  0  0
    7.3196  -14.2618   21.9830 C   0  0  1  0  0  0  0  0  0  0  0  0
    7.2537  -14.3106   20.4609 C   0  0  0  0  0  0  0  0  0  0  0  0
    8.5694  -14.8096   22.5365 C   0  0  0  0  0  0  0  0  0  0  0  0
    8.9849  -16.1814   22.2612 C   0  0  2  0  0  0  0  0  0  0  0  0
    8.4984  -17.1143   23.2424 N   0  0  0  0  0  0  0  0  0  0  0  0
   10.4327  -16.4132   22.0953 C   0  0  0  0  0  0  0  0  0  0  0  0
   11.0961  -16.2549   21.0652 O   0  0  0  0  0  0  0  0  0  0  0  0
   11.1263  -16.8680   23.2556 N   0  0  0  0  0  0  0  0  0  0  0  0
   12.4813  -17.3986   23.2039 C   0  0  1  0  0  0  0  0  0  0  0  0
   13.4092  -16.2628   22.8469 C   0  0  0  0  0  0  0  0  0  0  0  0
   13.8479  -16.3759   21.4448 C   0  0  0  0  0  0  0  0  0  0  0  0
   13.3661  -17.2150   20.6717 O   0  0  0  0  0  0  0  0  0  0  0  0
   12.8538  -18.0936   24.4363 C   0  0  0  0  0  0  0  0  0  0  0  0
   13.9734  -18.6067   24.5629 O   0  0  0  0  0  0  0  0  0  0  0  0
   14.8413  -15.4944   21.0006 O   0  0  0  0  0  0  0  0  0  0  0  0
   11.9335  -18.1806   25.4873 O   0  0  0  0  0  0  0  0  0  0  0  0
  2  1  1  6
  3  4  1  0
  3  2  1  0
  4  5  2  0
  6  5  1  0
  7  6  1  0
  8  7  2  0
  9  8  1  0
 10  9  2  0
 10 11  1  0
 11 12  2  0
 12  7  1  0
 12  4  1  0
 13  2  1  0
 13 20  1  0
 14 13  2  0
 16 18  1  0
 16 15  1  6
 17 16  1  0
 19 18  1  1
 19 20  1  0
 19 21  1  0
 21 22  2  0
 21 23  1  0
 23 24  1  0
 24 28  1  0
 25 26  1  0
 24 25  1  1
 26 27  2  0
 28 29  2  0
 28 31  1  0
 30 26  1  0
M  END
$$$$
