WLD.pdb
     RDKit          3D

 31 32  0  0  1  0  0  0  0  0999 V2000
    7.1152  -19.2630   26.5597 N   0  0  0  0  0  0  0  0  0  0  0  0
    7.6651  -17.9415   26.5613 C   0  0  1  0  0  0  0  0  0  0  0  0
    9.1756  -18.0226   26.6186 C   0  0  0  0  0  0  0  0  0  0  0  0
    9.7036  -17.5551   27.9142 C   0  0  0  0  0  0  0  0  0  0  0  0
   10.0577  -18.3635   28.9600 C   0  0  0  0  0  0  0  0  0  0  0  0
   10.4935  -17.5713   29.9668 N   0  0  0  0  0  0  0  0  0  0  0  0
   10.4214  -16.2721   29.5758 C   0  0  0  0  0  0  0  0  0  0  0  0
   10.7342  -15.0799   30.2008 C   0  0  0  0  0  0  0  0  0  0  0  0
   10.5404  -13.8968   29.5127 C   0  0  0  0  0  0  0  0  0  0  0  0
   10.0505  -13.8653   28.2364 C   0  0  0  0  0  0  0  0  0  0  0  0
    9.7423  -15.0686   27.6245 C   0  0  0  0  0  0  0  0  0  0  0  0
    9.9266  -16.2644   28.2903 C   0  0  0  0  0  0  0  0  0  0  0  0
    7.3134  -17.1800   25.3420 C   0  0  0  0  0  0  0  0  0  0  0  0
    6.8171  -17.7121   24.3206 O   0  0  0  0  0  0  0  0  0  0  0  0
    7.4537  -11.4827   25.4648 C   0  0  0  0  0  0  0  0  0  0  0  0
    7.2226  -13.0046   25.6696 C   0  0  1  0  0  0  0  0  0  0  0  0
    5.8671  -13.0557   26.3650 C   0  0  0  0  0  0  0  0  0  0  0  0
    7.2133  -13.5875   24.3172 C   0  0  0  0  0  0  0  0  0  0  0  0
    7.2273  -15.0325   24.1130 C   0  0  2  0  0  0  0  0  0  0  0  0
    7.5474  -15.7578   25.3136 N   0  0  0  0  0  0  0  0  0  0  0  0
    8.0957  -15.5394   23.0330 C   0  0  0  0  0  0  0  0  0  0  0  0
    7.7490  -15.8617   21.8920 O   0  0  0  0  0  0  0  0  0  0  0  0
    9.4793  -15.6654   23.3555 N   0  0  0  0  0  0  0  0  0  0  0  0
   10.4681  -16.1474   22.4015 C   0  0  1  0  0  0  0  0  0  0  0  0
   10.9680  -14.9604   21.6143 C   0  0  0  0  0  0  0  0  0  0  0  0
   11.9702  -15.3850   20.6211 C   0  0  0  0  0  0  0  0  0  0  0  0
   12.6912  -14.5720   20.0269 O   0  0  0  0  0  0  0  0  0  0  0  0
   11.5348  -16.9140   23.0456 C   0  0  0  0  0  0  0  0  0  0  0  0
   11.6243  -16.9657   24.2794 O   0  0  0  0  0  0  0  0  0  0  0  0
   12.0889  -16.7560   20.3616 O   0  0  0  0  0  0  0  0  0  0  0  0
   12.4677  -17.5989   22.2583 O   0  0  0  0  0  0  0  0  0  0  0  0
  2  1  1  6
  3  4  1  0
  3  2  1  0
  4  5  2  0
  6  5  1  0
  7  6  1  0
  8  7  2  0
  9  8  1  0
 10  9  2  0
 10 11  1  0
 11 12  2  0
 12  7  1  0
 12  4  1  0
 13  2  1  0
 13 20  1  0
 14 13  2  0
 16 18  1  0
 16 15  1  6
 17 16  1  0
 19 18  1  1
 19 20  1  0
 19 21  1  0
 21 22  2  0
 21 23  1  0
 23 24  1  0
 24 28  1  0
 25 26  1  0
 24 25  1  1
 26 27  2  0
 28 29  2  0
 28 31  1  0
 30 26  1  0
M  END
$$$$
