WLD.pdb
     RDKit          3D

 31 32  0  0  1  0  0  0  0  0999 V2000
    6.8797  -17.5300   25.7301 N   0  0  0  0  0  0  0  0  0  0  0  0
    7.2420  -16.3628   24.9850 C   0  0  1  0  0  0  0  0  0  0  0  0
    8.5236  -15.7834   25.5447 C   0  0  0  0  0  0  0  0  0  0  0  0
    8.2641  -14.8171   26.6285 C   0  0  0  0  0  0  0  0  0  0  0  0
    8.7811  -14.8924   27.8933 C   0  0  0  0  0  0  0  0  0  0  0  0
    8.3163  -13.8325   28.5945 N   0  0  0  0  0  0  0  0  0  0  0  0
    7.5120  -13.0855   27.7939 C   0  0  0  0  0  0  0  0  0  0  0  0
    6.7941  -11.9225   27.9989 C   0  0  0  0  0  0  0  0  0  0  0  0
    6.0548  -11.4036   26.9526 C   0  0  0  0  0  0  0  0  0  0  0  0
    6.0091  -12.0004   25.7231 C   0  0  0  0  0  0  0  0  0  0  0  0
    6.7342  -13.1649   25.5343 C   0  0  0  0  0  0  0  0  0  0  0  0
    7.4808  -13.7039   26.5635 C   0  0  0  0  0  0  0  0  0  0  0  0
    7.4819  -16.6556   23.5543 C   0  0  0  0  0  0  0  0  0  0  0  0
    7.4524  -17.8151   23.0775 O   0  0  0  0  0  0  0  0  0  0  0  0
    7.5678  -12.5692   19.2715 C   0  0  0  0  0  0  0  0  0  0  0  0
    8.2636  -13.4982   20.3031 C   0  0  1  0  0  0  0  0  0  0  0  0
    8.3483  -12.6249   21.5495 C   0  0  0  0  0  0  0  0  0  0  0  0
    7.3687  -14.6578   20.4558 C   0  0  0  0  0  0  0  0  0  0  0  0
    7.7639  -15.8239   21.2395 C   0  0  2  0  0  0  0  0  0  0  0  0
    7.7642  -15.5651   22.6548 N   0  0  0  0  0  0  0  0  0  0  0  0
    9.0562  -16.4464   20.8932 C   0  0  0  0  0  0  0  0  0  0  0  0
    9.4127  -16.8453   19.7797 O   0  0  0  0  0  0  0  0  0  0  0  0
    9.9814  -16.5970   21.9682 N   0  0  0  0  0  0  0  0  0  0  0  0
   11.3469  -17.0624   21.7706 C   0  0  1  0  0  0  0  0  0  0  0  0
   12.0326  -16.0988   20.8326 C   0  0  0  0  0  0  0  0  0  0  0  0
   13.4319  -16.5031   20.6096 C   0  0  0  0  0  0  0  0  0  0  0  0
   13.9317  -17.4816   21.1810 O   0  0  0  0  0  0  0  0  0  0  0  0
   12.0575  -17.2542   23.0351 C   0  0  0  0  0  0  0  0  0  0  0  0
   11.5565  -16.8903   24.1072 O   0  0  0  0  0  0  0  0  0  0  0  0
   14.1958  -15.7391   19.7186 O   0  0  0  0  0  0  0  0  0  0  0  0
   13.3208  -17.8569   23.0349 O   0  0  0  0  0  0  0  0  0  0  0  0
  2  1  1  1
  3  4  1  0
  3  2  1  0
  4  5  2  0
  6  5  1  0
  7  6  1  0
  8  7  2  0
  9  8  1  0
 10  9  2  0
 10 11  1  0
 11 12  2  0
 12  7  1  0
 12  4  1  0
 13  2  1  0
 13 20  1  0
 14 13  2  0
 16 18  1  0
 16 15  1  6
 17 16  1  0
 19 18  1  6
 19 20  1  0
 19 21  1  0
 21 22  2  0
 21 23  1  0
 23 24  1  0
 24 28  1  0
 25 26  1  0
 24 25  1  6
 26 27  2  0
 28 29  2  0
 28 31  1  0
 30 26  1  0
M  END
$$$$
