WLD.pdb
     RDKit          3D

 31 32  0  0  1  0  0  0  0  0999 V2000
    9.5576  -16.3115   25.2058 N   0  0  0  0  0  0  0  0  0  0  0  0
    8.3905  -17.1038   24.9628 C   0  0  1  0  0  0  0  0  0  0  0  0
    7.3863  -16.8783   26.0728 C   0  0  0  0  0  0  0  0  0  0  0  0
    7.3572  -15.4704   26.5116 C   0  0  0  0  0  0  0  0  0  0  0  0
    6.3502  -14.5822   26.2475 C   0  0  0  0  0  0  0  0  0  0  0  0
    6.6836  -13.3983   26.8117 N   0  0  0  0  0  0  0  0  0  0  0  0
    7.8870  -13.5216   27.4301 C   0  0  0  0  0  0  0  0  0  0  0  0
    8.6750  -12.6399   28.1454 C   0  0  0  0  0  0  0  0  0  0  0  0
    9.8778  -13.0879   28.6584 C   0  0  0  0  0  0  0  0  0  0  0  0
   10.3144  -14.3719   28.4830 C   0  0  0  0  0  0  0  0  0  0  0  0
    9.5130  -15.2425   27.7641 C   0  0  0  0  0  0  0  0  0  0  0  0
    8.3068  -14.8197   27.2409 C   0  0  0  0  0  0  0  0  0  0  0  0
    7.7222  -16.7528   23.6898 C   0  0  0  0  0  0  0  0  0  0  0  0
    6.5886  -17.1827   23.3693 O   0  0  0  0  0  0  0  0  0  0  0  0
    8.2440  -12.2891   20.4165 C   0  0  0  0  0  0  0  0  0  0  0  0
    8.1890  -13.4096   21.4903 C   0  0  1  0  0  0  0  0  0  0  0  0
    7.0591  -12.9528   22.4059 C   0  0  0  0  0  0  0  0  0  0  0  0
    7.8859  -14.6478   20.7530 C   0  0  0  0  0  0  0  0  0  0  0  0
    8.0585  -15.9597   21.3687 C   0  0  2  0  0  0  0  0  0  0  0  0
    8.3955  -15.8757   22.7648 N   0  0  0  0  0  0  0  0  0  0  0  0
    9.0240  -16.8707   20.7243 C   0  0  0  0  0  0  0  0  0  0  0  0
    8.9855  -17.2922   19.5637 O   0  0  0  0  0  0  0  0  0  0  0  0
   10.1115  -17.3020   21.5402 N   0  0  0  0  0  0  0  0  0  0  0  0
   11.1061  -18.2616   21.0815 C   0  0  1  0  0  0  0  0  0  0  0  0
   11.7410  -17.7065   19.8296 C   0  0  0  0  0  0  0  0  0  0  0  0
   12.9494  -16.9321   20.1636 C   0  0  0  0  0  0  0  0  0  0  0  0
   13.3887  -16.8667   21.3196 O   0  0  0  0  0  0  0  0  0  0  0  0
   12.0721  -18.6034   22.1258 C   0  0  0  0  0  0  0  0  0  0  0  0
   12.9719  -19.4270   21.9141 O   0  0  0  0  0  0  0  0  0  0  0  0
   13.6002  -16.2601   19.1214 O   0  0  0  0  0  0  0  0  0  0  0  0
   11.9795  -17.9921   23.3816 O   0  0  0  0  0  0  0  0  0  0  0  0
  2  1  1  1
  3  4  1  0
  3  2  1  0
  4  5  2  0
  6  5  1  0
  7  6  1  0
  8  7  2  0
  9  8  1  0
 10  9  2  0
 10 11  1  0
 11 12  2  0
 12  7  1  0
 12  4  1  0
 13  2  1  0
 13 20  1  0
 14 13  2  0
 16 18  1  0
 16 15  1  6
 17 16  1  0
 19 18  1  6
 19 20  1  0
 19 21  1  0
 21 22  2  0
 21 23  1  0
 23 24  1  0
 24 28  1  0
 25 26  1  0
 24 25  1  6
 26 27  2  0
 28 29  2  0
 28 31  1  0
 30 26  1  0
M  END
$$$$
