HNQ.pdb
     RDKit          3D

 28 28  0  0  1  0  0  0  0  0999 V2000
   15.7246  -10.4742  -15.1192 N   0  0  0  0  0  0  0  0  0  0  0  0
   16.7887  -10.4788  -14.1652 C   0  0  1  0  0  0  0  0  0  0  0  0
   18.0525  -11.1080  -14.7135 C   0  0  0  0  0  0  0  0  0  0  0  0
   17.8433  -12.5381  -15.0481 C   0  0  0  0  0  0  0  0  0  0  0  0
   17.5835  -13.0943  -16.2879 C   0  0  0  0  0  0  0  0  0  0  0  0
   17.4580  -14.4372  -16.1600 N   0  0  0  0  0  0  0  0  0  0  0  0
   17.6353  -14.7312  -14.8564 C   0  0  0  0  0  0  0  0  0  0  0  0
   17.8705  -13.5701  -14.1805 N   0  0  0  0  0  0  0  0  0  0  0  0
   17.0547   -9.1413  -13.5819 C   0  0  0  0  0  0  0  0  0  0  0  0
   17.0866   -8.1691  -14.3818 O   0  0  0  0  0  0  0  0  0  0  0  0
   18.0577   -5.1096  -10.2872 N   0  0  0  0  0  0  0  0  0  0  0  0
   17.3995   -6.1648   -9.6133 C   0  0  0  0  0  0  0  0  0  0  0  0
   17.0762   -5.9861   -8.3944 O   0  0  0  0  0  0  0  0  0  0  0  0
   17.0583   -7.4633  -10.2227 C   0  0  0  0  0  0  0  0  0  0  0  0
   17.4979   -7.5543  -11.6841 C   0  0  2  0  0  0  0  0  0  0  0  0
   17.2716   -8.8790  -12.2177 N   0  0  0  0  0  0  0  0  0  0  0  0
   18.9504   -7.2542  -11.6955 C   0  0  0  0  0  0  0  0  0  0  0  0
   19.7403   -8.1143  -11.1718 O   0  0  0  0  0  0  0  0  0  0  0  0
   22.3422   -8.7870  -15.3973 N   0  0  0  0  0  0  0  0  0  0  0  0
   21.4631   -7.7578  -15.8055 C   0  0  0  0  0  0  0  0  0  0  0  0
   21.1060   -7.6951  -16.9954 O   0  0  0  0  0  0  0  0  0  0  0  0
   20.9841   -6.7724  -14.8159 C   0  0  0  0  0  0  0  0  0  0  0  0
   21.4713   -7.0057  -13.4159 C   0  0  0  0  0  0  0  0  0  0  0  0
   20.9806   -5.9859  -12.4753 C   0  0  2  0  0  0  0  0  0  0  0  0
   19.5350   -6.1056  -12.2323 N   0  0  0  0  0  0  0  0  0  0  0  0
   21.2097   -4.6289  -13.0391 C   0  0  0  0  0  0  0  0  0  0  0  0
   22.3476   -4.1322  -13.2205 O   0  0  0  0  0  0  0  0  0  0  0  0
   20.1421   -3.8056  -13.4097 O   0  0  0  0  0  0  0  0  0  0  0  0
  2  1  1  6
  2  3  1  0
  3  4  1  0
  4  8  1  0
  4  5  2  0
  5  6  1  0
  7  6  1  0
  8  7  2  0
  9 10  2  0
  9  2  1  0
 11 12  1  0
 12 14  1  0
 13 12  2  0
 15 14  1  1
 15 16  1  0
 16  9  1  0
 17 18  2  0
 17 15  1  0
 19 20  1  0
 20 21  2  0
 22 20  1  0
 22 23  1  0
 24 23  1  6
 24 25  1  0
 25 17  1  0
 26 24  1  0
 27 26  2  0
 28 26  1  0
M  END
$$$$
