HNQ.pdb
     RDKit          3D

 28 28  0  0  1  0  0  0  0  0999 V2000
   27.9162  -21.6282  -16.2287 N   0  0  0  0  0  0  0  0  0  0  0  0
   27.0929  -20.6067  -15.6619 C   0  0  1  0  0  0  0  0  0  0  0  0
   26.6163  -19.6091  -16.6970 C   0  0  0  0  0  0  0  0  0  0  0  0
   27.7499  -18.8456  -17.2741 C   0  0  0  0  0  0  0  0  0  0  0  0
   28.3999  -19.0627  -18.4758 C   0  0  0  0  0  0  0  0  0  0  0  0
   29.3811  -18.1410  -18.6284 N   0  0  0  0  0  0  0  0  0  0  0  0
   29.3557  -17.3484  -17.5382 C   0  0  0  0  0  0  0  0  0  0  0  0
   28.3590  -17.7809  -16.7137 N   0  0  0  0  0  0  0  0  0  0  0  0
   25.9646  -21.1436  -14.8627 C   0  0  0  0  0  0  0  0  0  0  0  0
   25.5262  -22.2780  -15.1900 O   0  0  0  0  0  0  0  0  0  0  0  0
   26.2479  -22.2451  -11.1146 N   0  0  0  0  0  0  0  0  0  0  0  0
   25.4181  -21.1833  -10.6851 C   0  0  0  0  0  0  0  0  0  0  0  0
   25.5638  -20.7545   -9.4947 O   0  0  0  0  0  0  0  0  0  0  0  0
   24.3914  -20.5329  -11.5198 C   0  0  0  0  0  0  0  0  0  0  0  0
   24.3484  -21.1012  -12.9384 C   0  0  2  0  0  0  0  0  0  0  0  0
   25.3538  -20.4893  -13.7786 N   0  0  0  0  0  0  0  0  0  0  0  0
   22.9988  -20.7857  -13.4666 C   0  0  0  0  0  0  0  0  0  0  0  0
   22.5814  -19.5812  -13.3531 O   0  0  0  0  0  0  0  0  0  0  0  0
   20.2542  -24.9353  -13.2357 N   0  0  0  0  0  0  0  0  0  0  0  0
   19.0633  -24.4025  -13.7803 C   0  0  0  0  0  0  0  0  0  0  0  0
   18.2610  -25.1603  -14.3540 O   0  0  0  0  0  0  0  0  0  0  0  0
   18.7905  -22.9563  -13.6626 C   0  0  0  0  0  0  0  0  0  0  0  0
   19.9352  -22.1461  -13.1288 C   0  0  0  0  0  0  0  0  0  0  0  0
   20.6888  -21.4705  -14.1970 C   0  0  2  0  0  0  0  0  0  0  0  0
   22.1375  -21.6964  -14.0816 N   0  0  0  0  0  0  0  0  0  0  0  0
   20.4758  -20.0011  -14.1118 C   0  0  0  0  0  0  0  0  0  0  0  0
   20.6350  -19.3332  -13.0616 O   0  0  0  0  0  0  0  0  0  0  0  0
   20.0751  -19.2585  -15.2265 O   0  0  0  0  0  0  0  0  0  0  0  0
  2  1  1  6
  2  3  1  0
  3  4  1  0
  4  8  1  0
  4  5  2  0
  5  6  1  0
  7  6  1  0
  8  7  2  0
  9 10  2  0
  9  2  1  0
 11 12  1  0
 12 14  1  0
 13 12  2  0
 15 14  1  1
 15 16  1  0
 16  9  1  0
 17 18  2  0
 17 15  1  0
 19 20  1  0
 20 21  2  0
 22 20  1  0
 22 23  1  0
 24 23  1  1
 24 25  1  0
 25 17  1  0
 26 24  1  0
 27 26  2  0
 28 26  1  0
M  END
$$$$
