HNQ.pdb
     RDKit          3D

 28 28  0  0  1  0  0  0  0  0999 V2000
   28.8796  -20.7346  -16.9370 N   0  0  0  0  0  0  0  0  0  0  0  0
   28.1198  -19.8315  -16.1311 C   0  0  1  0  0  0  0  0  0  0  0  0
   27.2649  -18.8967  -16.9613 C   0  0  0  0  0  0  0  0  0  0  0  0
   28.0991  -18.0185  -17.8178 C   0  0  0  0  0  0  0  0  0  0  0  0
   28.3741  -18.1555  -19.1667 C   0  0  0  0  0  0  0  0  0  0  0  0
   29.1773  -17.1402  -19.5664 N   0  0  0  0  0  0  0  0  0  0  0  0
   29.4102  -16.3680  -18.4862 C   0  0  0  0  0  0  0  0  0  0  0  0
   28.7507  -16.9066  -17.4208 N   0  0  0  0  0  0  0  0  0  0  0  0
   27.3214  -20.5145  -15.0842 C   0  0  0  0  0  0  0  0  0  0  0  0
   26.8593  -21.6500  -15.3729 O   0  0  0  0  0  0  0  0  0  0  0  0
   24.7802  -21.8534  -10.6424 N   0  0  0  0  0  0  0  0  0  0  0  0
   25.6573  -20.7723  -10.3926 C   0  0  0  0  0  0  0  0  0  0  0  0
   25.7794  -20.3667   -9.1914 O   0  0  0  0  0  0  0  0  0  0  0  0
   26.4453  -20.0773  -11.4269 C   0  0  0  0  0  0  0  0  0  0  0  0
   26.2601  -20.6949  -12.8131 C   0  0  2  0  0  0  0  0  0  0  0  0
   27.0443  -19.9962  -13.8070 N   0  0  0  0  0  0  0  0  0  0  0  0
   24.8179  -20.5616  -13.1329 C   0  0  0  0  0  0  0  0  0  0  0  0
   24.3926  -19.4108  -13.4973 O   0  0  0  0  0  0  0  0  0  0  0  0
   20.4141  -25.0235  -14.5154 N   0  0  0  0  0  0  0  0  0  0  0  0
   19.6749  -23.8232  -14.4083 C   0  0  0  0  0  0  0  0  0  0  0  0
   18.4402  -23.8504  -14.5565 O   0  0  0  0  0  0  0  0  0  0  0  0
   20.3780  -22.5563  -14.1249 C   0  0  0  0  0  0  0  0  0  0  0  0
   21.8394  -22.7077  -13.8197 C   0  0  0  0  0  0  0  0  0  0  0  0
   22.4808  -21.4222  -13.5012 C   0  0  2  0  0  0  0  0  0  0  0  0
   23.8768  -21.5909  -13.0700 N   0  0  0  0  0  0  0  0  0  0  0  0
   21.7614  -20.7651  -12.3775 C   0  0  0  0  0  0  0  0  0  0  0  0
   22.0404  -20.9496  -11.1682 O   0  0  0  0  0  0  0  0  0  0  0  0
   20.7042  -19.8801  -12.6094 O   0  0  0  0  0  0  0  0  0  0  0  0
  2  1  1  6
  2  3  1  0
  3  4  1  0
  4  8  1  0
  4  5  2  0
  5  6  1  0
  7  6  1  0
  8  7  2  0
  9 10  2  0
  9  2  1  0
 11 12  1  0
 12 14  1  0
 13 12  2  0
 15 14  1  1
 15 16  1  0
 16  9  1  0
 17 18  2  0
 17 15  1  0
 19 20  1  0
 20 21  2  0
 22 20  1  0
 22 23  1  0
 24 23  1  1
 24 25  1  0
 25 17  1  0
 26 24  1  0
 27 26  2  0
 28 26  1  0
M  END
$$$$
