HNQ.pdb
     RDKit          3D

 28 28  0  0  1  0  0  0  0  0999 V2000
   23.8793  -19.5961  -13.5899 N   0  0  0  0  0  0  0  0  0  0  0  0
   25.2463  -20.0093  -13.6437 C   0  0  1  0  0  0  0  0  0  0  0  0
   25.4915  -21.2935  -12.8792 C   0  0  0  0  0  0  0  0  0  0  0  0
   25.1383  -21.1452  -11.4459 C   0  0  0  0  0  0  0  0  0  0  0  0
   25.9307  -20.6667  -10.4178 C   0  0  0  0  0  0  0  0  0  0  0  0
   25.2287  -20.6952   -9.2594 N   0  0  0  0  0  0  0  0  0  0  0  0
   24.0062  -21.1855   -9.5468 C   0  0  0  0  0  0  0  0  0  0  0  0
   23.9542  -21.4590  -10.8820 N   0  0  0  0  0  0  0  0  0  0  0  0
   25.7776  -20.0884  -15.0263 C   0  0  0  0  0  0  0  0  0  0  0  0
   25.1068  -20.7589  -15.8549 O   0  0  0  0  0  0  0  0  0  0  0  0
   26.1681  -16.9568  -17.2744 N   0  0  0  0  0  0  0  0  0  0  0  0
   27.5766  -17.0709  -17.3346 C   0  0  0  0  0  0  0  0  0  0  0  0
   28.2537  -16.0128  -17.5451 O   0  0  0  0  0  0  0  0  0  0  0  0
   28.3222  -18.3322  -17.1700 C   0  0  0  0  0  0  0  0  0  0  0  0
   27.4051  -19.5136  -16.8531 C   0  0  2  0  0  0  0  0  0  0  0  0
   26.9609  -19.4779  -15.4775 N   0  0  0  0  0  0  0  0  0  0  0  0
   28.2144  -20.7352  -17.0836 C   0  0  0  0  0  0  0  0  0  0  0  0
   29.2722  -20.8902  -16.3801 O   0  0  0  0  0  0  0  0  0  0  0  0
   28.3132  -26.5207  -16.2048 N   0  0  0  0  0  0  0  0  0  0  0  0
   27.0547  -25.8931  -16.3497 C   0  0  0  0  0  0  0  0  0  0  0  0
   26.0171  -26.5650  -16.2114 O   0  0  0  0  0  0  0  0  0  0  0  0
   26.9901  -24.4522  -16.6648 C   0  0  0  0  0  0  0  0  0  0  0  0
   28.3213  -23.7605  -16.7017 C   0  0  0  0  0  0  0  0  0  0  0  0
   28.5551  -23.0642  -17.9767 C   0  0  2  0  0  0  0  0  0  0  0  0
   27.9197  -21.7382  -18.0089 N   0  0  0  0  0  0  0  0  0  0  0  0
   27.9664  -23.8490  -19.0945 C   0  0  0  0  0  0  0  0  0  0  0  0
   26.8767  -23.5648  -19.6479 O   0  0  0  0  0  0  0  0  0  0  0  0
   28.6099  -24.9792  -19.6075 O   0  0  0  0  0  0  0  0  0  0  0  0
  2  1  1  6
  2  3  1  0
  3  4  1  0
  4  8  1  0
  4  5  2  0
  5  6  1  0
  7  6  1  0
  8  7  2  0
  9 10  2  0
  9  2  1  0
 11 12  1  0
 12 14  1  0
 13 12  2  0
 15 14  1  1
 15 16  1  0
 16  9  1  0
 17 18  2  0
 17 15  1  0
 19 20  1  0
 20 21  2  0
 22 20  1  0
 22 23  1  0
 24 23  1  1
 24 25  1  0
 25 17  1  0
 26 24  1  0
 27 26  2  0
 28 26  1  0
M  END
$$$$
