HNQ.pdb
     RDKit          3D

 28 28  0  0  1  0  0  0  0  0999 V2000
   15.3910  -11.8014  -14.2354 N   0  0  0  0  0  0  0  0  0  0  0  0
   16.5622  -11.0582  -13.8911 C   0  0  1  0  0  0  0  0  0  0  0  0
   17.5522  -10.9790  -15.0345 C   0  0  0  0  0  0  0  0  0  0  0  0
   17.9641  -12.3302  -15.4875 C   0  0  0  0  0  0  0  0  0  0  0  0
   18.5701  -13.3295  -14.7472 C   0  0  0  0  0  0  0  0  0  0  0  0
   18.7795  -14.4097  -15.5377 N   0  0  0  0  0  0  0  0  0  0  0  0
   18.3132  -14.1015  -16.7645 C   0  0  0  0  0  0  0  0  0  0  0  0
   17.8161  -12.8319  -16.7305 N   0  0  0  0  0  0  0  0  0  0  0  0
   16.2592   -9.7154  -13.3387 C   0  0  0  0  0  0  0  0  0  0  0  0
   15.6144   -8.9283  -14.0809 O   0  0  0  0  0  0  0  0  0  0  0  0
   13.7595   -8.8364  -10.8123 N   0  0  0  0  0  0  0  0  0  0  0  0
   14.6713   -8.4084   -9.8193 C   0  0  0  0  0  0  0  0  0  0  0  0
   14.2915   -8.4426   -8.6041 O   0  0  0  0  0  0  0  0  0  0  0  0
   16.0371   -7.9234  -10.0900 C   0  0  0  0  0  0  0  0  0  0  0  0
   16.3692   -7.9210  -11.5823 C   0  0  2  0  0  0  0  0  0  0  0  0
   16.6332   -9.2592  -12.0625 N   0  0  0  0  0  0  0  0  0  0  0  0
   17.5882   -7.0891  -11.7306 C   0  0  0  0  0  0  0  0  0  0  0  0
   18.6998   -7.5860  -11.3363 O   0  0  0  0  0  0  0  0  0  0  0  0
   21.8026   -5.8425  -12.0434 N   0  0  0  0  0  0  0  0  0  0  0  0
   21.9267   -5.3227  -13.3523 C   0  0  0  0  0  0  0  0  0  0  0  0
   22.9848   -4.7627  -13.6899 O   0  0  0  0  0  0  0  0  0  0  0  0
   20.7996   -5.4496  -14.2974 C   0  0  0  0  0  0  0  0  0  0  0  0
   19.5691   -6.0859  -13.7204 C   0  0  0  0  0  0  0  0  0  0  0  0
   18.8613   -5.1927  -12.7894 C   0  0  2  0  0  0  0  0  0  0  0  0
   17.6282   -5.8009  -12.2671 N   0  0  0  0  0  0  0  0  0  0  0  0
   18.4594   -3.9464  -13.4945 C   0  0  0  0  0  0  0  0  0  0  0  0
   17.3892   -3.8234  -14.1379 O   0  0  0  0  0  0  0  0  0  0  0  0
   19.2723   -2.8090  -13.4811 O   0  0  0  0  0  0  0  0  0  0  0  0
  2  1  1  6
  2  3  1  0
  3  4  1  0
  4  8  1  0
  4  5  2  0
  5  6  1  0
  7  6  1  0
  8  7  2  0
  9 10  2  0
  9  2  1  0
 11 12  1  0
 12 14  1  0
 13 12  2  0
 15 14  1  1
 15 16  1  0
 16  9  1  0
 17 18  2  0
 17 15  1  0
 19 20  1  0
 20 21  2  0
 22 20  1  0
 22 23  1  0
 24 23  1  6
 24 25  1  0
 25 17  1  0
 26 24  1  0
 27 26  2  0
 28 26  1  0
M  END
$$$$
