HNQ.pdb
     RDKit          3D

 28 28  0  0  1  0  0  0  0  0999 V2000
   24.2388  -12.9226  -17.8624 N   0  0  0  0  0  0  0  0  0  0  0  0
   23.9121  -12.2287  -16.6566 C   0  0  1  0  0  0  0  0  0  0  0  0
   25.0838  -11.4410  -16.1085 C   0  0  0  0  0  0  0  0  0  0  0  0
   26.2478  -12.3205  -15.8390 C   0  0  0  0  0  0  0  0  0  0  0  0
   27.5263  -12.2256  -16.3590 C   0  0  0  0  0  0  0  0  0  0  0  0
   28.2903  -13.2256  -15.8571 N   0  0  0  0  0  0  0  0  0  0  0  0
   27.5082  -13.9471  -15.0294 C   0  0  0  0  0  0  0  0  0  0  0  0
   26.2624  -13.3920  -15.0204 N   0  0  0  0  0  0  0  0  0  0  0  0
   22.6984  -11.3850  -16.7798 C   0  0  0  0  0  0  0  0  0  0  0  0
   22.5672  -10.7314  -17.8483 O   0  0  0  0  0  0  0  0  0  0  0  0
   16.9209  -10.4511  -14.8177 N   0  0  0  0  0  0  0  0  0  0  0  0
   18.0365  -10.3694  -15.6833 C   0  0  0  0  0  0  0  0  0  0  0  0
   17.9956   -9.5217  -16.6331 O   0  0  0  0  0  0  0  0  0  0  0  0
   19.2503  -11.1980  -15.5652 C   0  0  0  0  0  0  0  0  0  0  0  0
   20.5146  -10.4401  -15.9705 C   0  0  2  0  0  0  0  0  0  0  0  0
   21.6934  -11.2609  -15.8044 N   0  0  0  0  0  0  0  0  0  0  0  0
   20.5954   -9.2645  -15.0697 C   0  0  0  0  0  0  0  0  0  0  0  0
   21.5321   -9.2456  -14.1979 O   0  0  0  0  0  0  0  0  0  0  0  0
   23.5997   -5.0703  -16.1755 N   0  0  0  0  0  0  0  0  0  0  0  0
   22.8311   -4.3255  -15.2518 C   0  0  0  0  0  0  0  0  0  0  0  0
   23.1665   -3.1597  -14.9771 O   0  0  0  0  0  0  0  0  0  0  0  0
   21.6445   -4.9418  -14.6257 C   0  0  0  0  0  0  0  0  0  0  0  0
   21.3433   -6.3350  -15.0950 C   0  0  0  0  0  0  0  0  0  0  0  0
   20.0909   -6.8584  -14.5269 C   0  0  2  0  0  0  0  0  0  0  0  0
   19.7311   -8.1683  -15.0908 N   0  0  0  0  0  0  0  0  0  0  0  0
   18.9697   -5.9335  -14.8417 C   0  0  0  0  0  0  0  0  0  0  0  0
   18.2684   -6.0155  -15.8790 O   0  0  0  0  0  0  0  0  0  0  0  0
   18.6225   -4.8908  -13.9774 O   0  0  0  0  0  0  0  0  0  0  0  0
  2  1  1  6
  2  3  1  0
  3  4  1  0
  4  8  1  0
  4  5  2  0
  5  6  1  0
  7  6  1  0
  8  7  2  0
  9 10  2  0
  9  2  1  0
 11 12  1  0
 12 14  1  0
 13 12  2  0
 15 14  1  1
 15 16  1  0
 16  9  1  0
 17 18  2  0
 17 15  1  0
 19 20  1  0
 20 21  2  0
 22 20  1  0
 22 23  1  0
 24 23  1  6
 24 25  1  0
 25 17  1  0
 26 24  1  0
 27 26  2  0
 28 26  1  0
M  END
$$$$
