HNQ.pdb
     RDKit          3D

 28 28  0  0  1  0  0  0  0  0999 V2000
   17.6948  -15.5040  -16.2304 N   0  0  0  0  0  0  0  0  0  0  0  0
   18.1855  -14.4929  -15.3476 C   0  0  1  0  0  0  0  0  0  0  0  0
   19.5786  -14.7984  -14.8380 C   0  0  0  0  0  0  0  0  0  0  0  0
   19.6150  -16.0864  -14.1028 C   0  0  0  0  0  0  0  0  0  0  0  0
   18.8479  -16.4703  -13.0174 C   0  0  0  0  0  0  0  0  0  0  0  0
   19.1933  -17.7264  -12.6454 N   0  0  0  0  0  0  0  0  0  0  0  0
   20.1673  -18.1359  -13.4827 C   0  0  0  0  0  0  0  0  0  0  0  0
   20.4222  -17.1329  -14.3711 N   0  0  0  0  0  0  0  0  0  0  0  0
   18.1024  -13.1276  -15.9212 C   0  0  0  0  0  0  0  0  0  0  0  0
   18.5431  -12.9754  -17.0911 O   0  0  0  0  0  0  0  0  0  0  0  0
   15.0127  -11.6271  -17.2873 N   0  0  0  0  0  0  0  0  0  0  0  0
   14.8936  -10.6713  -16.2515 C   0  0  0  0  0  0  0  0  0  0  0  0
   13.7262  -10.2654  -15.9439 O   0  0  0  0  0  0  0  0  0  0  0  0
   16.0286  -10.1081  -15.4975 C   0  0  0  0  0  0  0  0  0  0  0  0
   17.3652  -10.7249  -15.9100 C   0  0  2  0  0  0  0  0  0  0  0  0
   17.5743  -12.0020  -15.2649 N   0  0  0  0  0  0  0  0  0  0  0  0
   18.4114   -9.7687  -15.4724 C   0  0  0  0  0  0  0  0  0  0  0  0
   18.8072   -9.8344  -14.2571 O   0  0  0  0  0  0  0  0  0  0  0  0
   22.3084   -5.8515  -18.7707 N   0  0  0  0  0  0  0  0  0  0  0  0
   22.6588   -5.6643  -17.4139 C   0  0  0  0  0  0  0  0  0  0  0  0
   23.6282   -4.9395  -17.1273 O   0  0  0  0  0  0  0  0  0  0  0  0
   21.8719   -6.3325  -16.3584 C   0  0  0  0  0  0  0  0  0  0  0  0
   20.7517   -7.1932  -16.8646 C   0  0  0  0  0  0  0  0  0  0  0  0
   20.0152   -7.8517  -15.7741 C   0  0  2  0  0  0  0  0  0  0  0  0
   19.0059   -8.7956  -16.2777 N   0  0  0  0  0  0  0  0  0  0  0  0
   19.2869   -6.8333  -14.9714 C   0  0  0  0  0  0  0  0  0  0  0  0
   19.7022   -6.3804  -13.8774 O   0  0  0  0  0  0  0  0  0  0  0  0
   18.0646   -6.3073  -15.4003 O   0  0  0  0  0  0  0  0  0  0  0  0
  2  1  1  6
  2  3  1  0
  3  4  1  0
  4  8  1  0
  4  5  2  0
  5  6  1  0
  7  6  1  0
  8  7  2  0
  9 10  2  0
  9  2  1  0
 11 12  1  0
 12 14  1  0
 13 12  2  0
 15 14  1  1
 15 16  1  0
 16  9  1  0
 17 18  2  0
 17 15  1  0
 19 20  1  0
 20 21  2  0
 22 20  1  0
 22 23  1  0
 24 23  1  6
 24 25  1  0
 25 17  1  0
 26 24  1  0
 27 26  2  0
 28 26  1  0
M  END
$$$$
