HNQ.pdb
     RDKit          3D

 28 28  0  0  1  0  0  0  0  0999 V2000
   22.5388  -18.7081  -17.0167 N   0  0  0  0  0  0  0  0  0  0  0  0
   21.8983  -17.7432  -16.1794 C   0  0  1  0  0  0  0  0  0  0  0  0
   21.1160  -18.3855  -15.0528 C   0  0  0  0  0  0  0  0  0  0  0  0
   20.0289  -19.2503  -15.5738 C   0  0  0  0  0  0  0  0  0  0  0  0
   19.9622  -20.6321  -15.5681 C   0  0  0  0  0  0  0  0  0  0  0  0
   18.7996  -21.0277  -16.1404 N   0  0  0  0  0  0  0  0  0  0  0  0
   18.1360  -19.9125  -16.5054 C   0  0  0  0  0  0  0  0  0  0  0  0
   18.8887  -18.8295  -16.1580 N   0  0  0  0  0  0  0  0  0  0  0  0
   22.8260  -16.7022  -15.6741 C   0  0  0  0  0  0  0  0  0  0  0  0
   23.6870  -17.0693  -14.8315 O   0  0  0  0  0  0  0  0  0  0  0  0
   27.4160  -13.4157  -16.1149 N   0  0  0  0  0  0  0  0  0  0  0  0
   26.1501  -13.6757  -15.5399 C   0  0  0  0  0  0  0  0  0  0  0  0
   25.8332  -13.0432  -14.4808 O   0  0  0  0  0  0  0  0  0  0  0  0
   25.1652  -14.6304  -16.0806 C   0  0  0  0  0  0  0  0  0  0  0  0
   23.7527  -14.3688  -15.5574 C   0  0  2  0  0  0  0  0  0  0  0  0
   22.8175  -15.3503  -16.0604 N   0  0  0  0  0  0  0  0  0  0  0  0
   23.3747  -13.0221  -16.0509 C   0  0  0  0  0  0  0  0  0  0  0  0
   23.0822  -12.9028  -17.2911 O   0  0  0  0  0  0  0  0  0  0  0  0
   21.8319   -7.6893  -12.7916 N   0  0  0  0  0  0  0  0  0  0  0  0
   21.6923   -7.3306  -14.1520 C   0  0  0  0  0  0  0  0  0  0  0  0
   21.3472   -6.1725  -14.4464 O   0  0  0  0  0  0  0  0  0  0  0  0
   21.9555   -8.3347  -15.2019 C   0  0  0  0  0  0  0  0  0  0  0  0
   22.4254   -9.6649  -14.6903 C   0  0  0  0  0  0  0  0  0  0  0  0
   22.7682  -10.5938  -15.7788 C   0  0  2  0  0  0  0  0  0  0  0  0
   23.3100  -11.8643  -15.2734 N   0  0  0  0  0  0  0  0  0  0  0  0
   23.8195   -9.9925  -16.6419 C   0  0  0  0  0  0  0  0  0  0  0  0
   25.0500  -10.1087  -16.4255 O   0  0  0  0  0  0  0  0  0  0  0  0
   23.4893   -9.2426  -17.7747 O   0  0  0  0  0  0  0  0  0  0  0  0
  2  1  1  1
  2  3  1  0
  3  4  1  0
  4  8  1  0
  4  5  2  0
  5  6  1  0
  7  6  1  0
  8  7  2  0
  9 10  2  0
  9  2  1  0
 11 12  1  0
 12 14  1  0
 13 12  2  0
 15 14  1  6
 15 16  1  0
 16  9  1  0
 17 18  2  0
 17 15  1  0
 19 20  1  0
 20 21  2  0
 22 20  1  0
 22 23  1  0
 24 23  1  1
 24 25  1  0
 25 17  1  0
 26 24  1  0
 27 26  2  0
 28 26  1  0
M  END
$$$$
