HNQ.pdb
     RDKit          3D

 28 28  0  0  1  0  0  0  0  0999 V2000
   27.1830  -17.1325  -18.9013 N   0  0  0  0  0  0  0  0  0  0  0  0
   27.3663  -17.7213  -17.6121 C   0  0  1  0  0  0  0  0  0  0  0  0
   28.5738  -17.1624  -16.8888 C   0  0  0  0  0  0  0  0  0  0  0  0
   29.8049  -17.3009  -17.7050 C   0  0  0  0  0  0  0  0  0  0  0  0
   30.6032  -18.4201  -17.8601 C   0  0  0  0  0  0  0  0  0  0  0  0
   31.6321  -18.1258  -18.6911 N   0  0  0  0  0  0  0  0  0  0  0  0
   31.4902  -16.8368  -19.0593 C   0  0  0  0  0  0  0  0  0  0  0  0
   30.3741  -16.3363  -18.4559 N   0  0  0  0  0  0  0  0  0  0  0  0
   26.1494  -17.6633  -16.7662 C   0  0  0  0  0  0  0  0  0  0  0  0
   25.9391  -16.5870  -16.1468 O   0  0  0  0  0  0  0  0  0  0  0  0
   20.8832  -17.2749  -15.5607 N   0  0  0  0  0  0  0  0  0  0  0  0
   21.5142  -18.4634  -15.9962 C   0  0  0  0  0  0  0  0  0  0  0  0
   20.9551  -19.5736  -15.7184 O   0  0  0  0  0  0  0  0  0  0  0  0
   22.7788  -18.5111  -16.7529 C   0  0  0  0  0  0  0  0  0  0  0  0
   24.0021  -18.5829  -15.8387 C   0  0  2  0  0  0  0  0  0  0  0  0
   25.2220  -18.7077  -16.6049 N   0  0  0  0  0  0  0  0  0  0  0  0
   23.8163  -19.7907  -14.9980 C   0  0  0  0  0  0  0  0  0  0  0  0
   23.9286  -20.9331  -15.5639 O   0  0  0  0  0  0  0  0  0  0  0  0
   25.5791  -20.7332   -9.2063 N   0  0  0  0  0  0  0  0  0  0  0  0
   26.2913  -20.7915  -10.4262 C   0  0  0  0  0  0  0  0  0  0  0  0
   27.5347  -20.7631  -10.4101 O   0  0  0  0  0  0  0  0  0  0  0  0
   25.5502  -20.8829  -11.6999 C   0  0  0  0  0  0  0  0  0  0  0  0
   24.0584  -20.9496  -11.5511 C   0  0  0  0  0  0  0  0  0  0  0  0
   23.3693  -21.0240  -12.8492 C   0  0  2  0  0  0  0  0  0  0  0  0
   23.5271  -19.7890  -13.6322 N   0  0  0  0  0  0  0  0  0  0  0  0
   21.9098  -21.2122  -12.6346 C   0  0  0  0  0  0  0  0  0  0  0  0
   21.0502  -20.3306  -12.8760 O   0  0  0  0  0  0  0  0  0  0  0  0
   21.3967  -22.4142  -12.1381 O   0  0  0  0  0  0  0  0  0  0  0  0
  2  1  1  6
  2  3  1  0
  3  4  1  0
  4  8  1  0
  4  5  2  0
  5  6  1  0
  7  6  1  0
  8  7  2  0
  9 10  2  0
  9  2  1  0
 11 12  1  0
 12 14  1  0
 13 12  2  0
 15 14  1  6
 15 16  1  0
 16  9  1  0
 17 18  2  0
 17 15  1  0
 19 20  1  0
 20 21  2  0
 22 20  1  0
 22 23  1  0
 24 23  1  1
 24 25  1  0
 25 17  1  0
 26 24  1  0
 27 26  2  0
 28 26  1  0
M  END
$$$$
