HNQ.pdb
     RDKit          3D

 28 28  0  0  1  0  0  0  0  0999 V2000
   22.0891  -23.4148  -16.6948 N   0  0  0  0  0  0  0  0  0  0  0  0
   20.8046  -23.6164  -16.1016 C   0  0  1  0  0  0  0  0  0  0  0  0
   20.2488  -24.9967  -16.3839 C   0  0  0  0  0  0  0  0  0  0  0  0
   19.9767  -25.1845  -17.8301 C   0  0  0  0  0  0  0  0  0  0  0  0
   20.5006  -26.1436  -18.6784 C   0  0  0  0  0  0  0  0  0  0  0  0
   19.9943  -25.9670  -19.9227 N   0  0  0  0  0  0  0  0  0  0  0  0
   19.1598  -24.9097  -19.8666 C   0  0  0  0  0  0  0  0  0  0  0  0
   19.1511  -24.4346  -18.5881 N   0  0  0  0  0  0  0  0  0  0  0  0
   20.7762  -23.3036  -14.6520 C   0  0  0  0  0  0  0  0  0  0  0  0
   21.8552  -23.4477  -14.0187 O   0  0  0  0  0  0  0  0  0  0  0  0
   21.7496  -20.4785  -12.5101 N   0  0  0  0  0  0  0  0  0  0  0  0
   20.3987  -20.0881  -12.3580 C   0  0  0  0  0  0  0  0  0  0  0  0
   20.1484  -18.8492  -12.2003 O   0  0  0  0  0  0  0  0  0  0  0  0
   19.2528  -21.0158  -12.3691 C   0  0  0  0  0  0  0  0  0  0  0  0
   19.6840  -22.4717  -12.5468 C   0  0  2  0  0  0  0  0  0  0  0  0
   19.6478  -22.8628  -13.9385 N   0  0  0  0  0  0  0  0  0  0  0  0
   18.7123  -23.2849  -11.7756 C   0  0  0  0  0  0  0  0  0  0  0  0
   17.7079  -23.7677  -12.4048 O   0  0  0  0  0  0  0  0  0  0  0  0
   18.7261  -25.2507   -5.6189 N   0  0  0  0  0  0  0  0  0  0  0  0
   17.4825  -25.6770   -6.1392 C   0  0  0  0  0  0  0  0  0  0  0  0
   16.6646  -26.2361   -5.3872 O   0  0  0  0  0  0  0  0  0  0  0  0
   17.1739  -25.4548   -7.5658 C   0  0  0  0  0  0  0  0  0  0  0  0
   18.2202  -24.6867   -8.3190 C   0  0  0  0  0  0  0  0  0  0  0  0
   17.8288  -24.4278   -9.7137 C   0  0  2  0  0  0  0  0  0  0  0  0
   18.7994  -23.5713  -10.4120 N   0  0  0  0  0  0  0  0  0  0  0  0
   16.5249  -23.7133   -9.7466 C   0  0  0  0  0  0  0  0  0  0  0  0
   16.4097  -22.4677   -9.6480 O   0  0  0  0  0  0  0  0  0  0  0  0
   15.3194  -24.4062   -9.8931 O   0  0  0  0  0  0  0  0  0  0  0  0
  2  1  1  1
  2  3  1  0
  3  4  1  0
  4  8  1  0
  4  5  2  0
  5  6  1  0
  7  6  1  0
  8  7  2  0
  9 10  2  0
  9  2  1  0
 11 12  1  0
 12 14  1  0
 13 12  2  0
 15 14  1  6
 15 16  1  0
 16  9  1  0
 17 18  2  0
 17 15  1  0
 19 20  1  0
 20 21  2  0
 22 20  1  0
 22 23  1  0
 24 23  1  1
 24 25  1  0
 25 17  1  0
 26 24  1  0
 27 26  2  0
 28 26  1  0
M  END
$$$$
