HNQ.pdb
     RDKit          3D

 28 28  0  0  1  0  0  0  0  0999 V2000
   15.4407  -15.8315  -15.3818 N   0  0  0  0  0  0  0  0  0  0  0  0
   15.0672  -14.6017  -16.0067 C   0  0  1  0  0  0  0  0  0  0  0  0
   13.5697  -14.4840  -16.1996 C   0  0  0  0  0  0  0  0  0  0  0  0
   13.0471  -15.5778  -17.0548 C   0  0  0  0  0  0  0  0  0  0  0  0
   12.3712  -16.7188  -16.6610 C   0  0  0  0  0  0  0  0  0  0  0  0
   12.0688  -17.4610  -17.7534 N   0  0  0  0  0  0  0  0  0  0  0  0
   12.5462  -16.8011  -18.8276 C   0  0  0  0  0  0  0  0  0  0  0  0
   13.1425  -15.6521  -18.3979 N   0  0  0  0  0  0  0  0  0  0  0  0
   15.6241  -13.4083  -15.3244 C   0  0  0  0  0  0  0  0  0  0  0  0
   15.6322  -13.4262  -14.0651 O   0  0  0  0  0  0  0  0  0  0  0  0
   17.9798   -8.9281  -13.9626 N   0  0  0  0  0  0  0  0  0  0  0  0
   18.6654   -9.6691  -14.9532 C   0  0  0  0  0  0  0  0  0  0  0  0
   19.8498   -9.3109  -15.2552 O   0  0  0  0  0  0  0  0  0  0  0  0
   18.1061  -10.8328  -15.6653 C   0  0  0  0  0  0  0  0  0  0  0  0
   16.6579  -11.1182  -15.2671 C   0  0  2  0  0  0  0  0  0  0  0  0
   16.1386  -12.2702  -15.9700 N   0  0  0  0  0  0  0  0  0  0  0  0
   15.8823   -9.9121  -15.6464 C   0  0  0  0  0  0  0  0  0  0  0  0
   15.7383   -9.6647  -16.8938 O   0  0  0  0  0  0  0  0  0  0  0  0
   11.1299   -7.4588  -12.5565 N   0  0  0  0  0  0  0  0  0  0  0  0
   11.1105   -8.5039  -13.5083 C   0  0  0  0  0  0  0  0  0  0  0  0
   10.1263   -9.2624  -13.5633 O   0  0  0  0  0  0  0  0  0  0  0  0
   12.2579   -8.6813  -14.4204 C   0  0  0  0  0  0  0  0  0  0  0  0
   13.3300   -7.6400  -14.2854 C   0  0  0  0  0  0  0  0  0  0  0  0
   14.4633   -7.8827  -15.1920 C   0  0  2  0  0  0  0  0  0  0  0  0
   15.2912   -9.0164  -14.7534 N   0  0  0  0  0  0  0  0  0  0  0  0
   15.3505   -6.6894  -15.2200 C   0  0  0  0  0  0  0  0  0  0  0  0
   16.5492   -6.7029  -14.8495 O   0  0  0  0  0  0  0  0  0  0  0  0
   14.8882   -5.4500  -15.6729 O   0  0  0  0  0  0  0  0  0  0  0  0
  2  1  1  1
  2  3  1  0
  3  4  1  0
  4  8  1  0
  4  5  2  0
  5  6  1  0
  7  6  1  0
  8  7  2  0
  9 10  2  0
  9  2  1  0
 11 12  1  0
 12 14  1  0
 13 12  2  0
 15 14  1  6
 15 16  1  0
 16  9  1  0
 17 18  2  0
 17 15  1  0
 19 20  1  0
 20 21  2  0
 22 20  1  0
 22 23  1  0
 24 23  1  1
 24 25  1  0
 25 17  1  0
 26 24  1  0
 27 26  2  0
 28 26  1  0
M  END
$$$$
