HNQ.pdb
     RDKit          3D

 28 28  0  0  1  0  0  0  0  0999 V2000
   29.2631  -20.8472  -17.9221 N   0  0  0  0  0  0  0  0  0  0  0  0
   28.1827  -21.4159  -17.1794 C   0  0  1  0  0  0  0  0  0  0  0  0
   28.6568  -22.1556  -15.9457 C   0  0  0  0  0  0  0  0  0  0  0  0
   28.5346  -23.6243  -16.1157 C   0  0  0  0  0  0  0  0  0  0  0  0
   29.5367  -24.5363  -16.3948 C   0  0  0  0  0  0  0  0  0  0  0  0
   29.0038  -25.7798  -16.4697 N   0  0  0  0  0  0  0  0  0  0  0  0
   27.6806  -25.6602  -16.2415 C   0  0  0  0  0  0  0  0  0  0  0  0
   27.3974  -24.3436  -16.0257 N   0  0  0  0  0  0  0  0  0  0  0  0
   27.1202  -20.4343  -16.8513 C   0  0  0  0  0  0  0  0  0  0  0  0
   27.4952  -19.3257  -16.3862 O   0  0  0  0  0  0  0  0  0  0  0  0
   22.7651  -17.0313  -17.3279 N   0  0  0  0  0  0  0  0  0  0  0  0
   22.7240  -18.4396  -17.4525 C   0  0  0  0  0  0  0  0  0  0  0  0
   21.6201  -19.0290  -17.2147 O   0  0  0  0  0  0  0  0  0  0  0  0
   23.8720  -19.2797  -17.8402 C   0  0  0  0  0  0  0  0  0  0  0  0
   24.7320  -19.6799  -16.6412 C   0  0  2  0  0  0  0  0  0  0  0  0
   25.7402  -20.6453  -17.0186 N   0  0  0  0  0  0  0  0  0  0  0  0
   23.8051  -20.2874  -15.6554 C   0  0  0  0  0  0  0  0  0  0  0  0
   23.4221  -21.4911  -15.8613 O   0  0  0  0  0  0  0  0  0  0  0  0
   19.7702  -17.9855  -11.5696 N   0  0  0  0  0  0  0  0  0  0  0  0
   19.9680  -19.2699  -11.0128 C   0  0  0  0  0  0  0  0  0  0  0  0
   19.1970  -19.6769  -10.1256 O   0  0  0  0  0  0  0  0  0  0  0  0
   21.0864  -20.1074  -11.4899 C   0  0  0  0  0  0  0  0  0  0  0  0
   22.0046  -19.4280  -12.4632 C   0  0  0  0  0  0  0  0  0  0  0  0
   22.3241  -20.2802  -13.6195 C   0  0  2  0  0  0  0  0  0  0  0  0
   23.3103  -19.6547  -14.5135 N   0  0  0  0  0  0  0  0  0  0  0  0
   21.0980  -20.5119  -14.4286 C   0  0  0  0  0  0  0  0  0  0  0  0
   20.5259  -19.6187  -15.0990 O   0  0  0  0  0  0  0  0  0  0  0  0
   20.4953  -21.7719  -14.4912 O   0  0  0  0  0  0  0  0  0  0  0  0
  2  1  1  1
  2  3  1  0
  3  4  1  0
  4  8  1  0
  4  5  2  0
  5  6  1  0
  7  6  1  0
  8  7  2  0
  9 10  2  0
  9  2  1  0
 11 12  1  0
 12 14  1  0
 13 12  2  0
 15 14  1  6
 15 16  1  0
 16  9  1  0
 17 18  2  0
 17 15  1  0
 19 20  1  0
 20 21  2  0
 22 20  1  0
 22 23  1  0
 24 23  1  1
 24 25  1  0
 25 17  1  0
 26 24  1  0
 27 26  2  0
 28 26  1  0
M  END
$$$$
