HNQ.pdb
     RDKit          3D

 28 28  0  0  1  0  0  0  0  0999 V2000
   20.3764  -15.2839  -19.0911 N   0  0  0  0  0  0  0  0  0  0  0  0
   19.7704  -13.9899  -19.0614 C   0  0  1  0  0  0  0  0  0  0  0  0
   18.5046  -13.9645  -18.2301 C   0  0  0  0  0  0  0  0  0  0  0  0
   17.4210  -14.7493  -18.8710 C   0  0  0  0  0  0  0  0  0  0  0  0
   17.4559  -15.4219  -20.0794 C   0  0  0  0  0  0  0  0  0  0  0  0
   16.2565  -16.0125  -20.2992 N   0  0  0  0  0  0  0  0  0  0  0  0
   15.4693  -15.7193  -19.2448 C   0  0  0  0  0  0  0  0  0  0  0  0
   16.1830  -14.9485  -18.3750 N   0  0  0  0  0  0  0  0  0  0  0  0
   20.7094  -12.9153  -18.6572 C   0  0  0  0  0  0  0  0  0  0  0  0
   21.4316  -13.1413  -17.6505 O   0  0  0  0  0  0  0  0  0  0  0  0
   23.6308  -12.0276  -20.6613 N   0  0  0  0  0  0  0  0  0  0  0  0
   23.2684  -10.6871  -20.9304 C   0  0  0  0  0  0  0  0  0  0  0  0
   23.7810  -10.1224  -21.9505 O   0  0  0  0  0  0  0  0  0  0  0  0
   22.3351   -9.8917  -20.1118 C   0  0  0  0  0  0  0  0  0  0  0  0
   21.8107  -10.6697  -18.9047 C   0  0  2  0  0  0  0  0  0  0  0  0
   20.8532  -11.6763  -19.3060 N   0  0  0  0  0  0  0  0  0  0  0  0
   21.1476   -9.6724  -18.0296 C   0  0  0  0  0  0  0  0  0  0  0  0
   20.0055   -9.2255  -18.3951 O   0  0  0  0  0  0  0  0  0  0  0  0
   21.6934   -8.7990  -11.7781 N   0  0  0  0  0  0  0  0  0  0  0  0
   20.7296   -7.8413  -12.1686 C   0  0  0  0  0  0  0  0  0  0  0  0
   20.1356   -7.1816  -11.2973 O   0  0  0  0  0  0  0  0  0  0  0  0
   20.4407   -7.6398  -13.6024 C   0  0  0  0  0  0  0  0  0  0  0  0
   21.1247   -8.6105  -14.5198 C   0  0  0  0  0  0  0  0  0  0  0  0
   20.9017   -8.2915  -15.9389 C   0  0  2  0  0  0  0  0  0  0  0  0
   21.6659   -9.1752  -16.8325 N   0  0  0  0  0  0  0  0  0  0  0  0
   21.3536   -6.9028  -16.2200 C   0  0  0  0  0  0  0  0  0  0  0  0
   22.4434   -6.6231  -16.7754 O   0  0  0  0  0  0  0  0  0  0  0  0
   20.5696   -5.7986  -15.8726 O   0  0  0  0  0  0  0  0  0  0  0  0
  2  1  1  1
  2  3  1  0
  3  4  1  0
  4  8  1  0
  4  5  2  0
  5  6  1  0
  7  6  1  0
  8  7  2  0
  9 10  2  0
  9  2  1  0
 11 12  1  0
 12 14  1  0
 13 12  2  0
 15 14  1  6
 15 16  1  0
 16  9  1  0
 17 18  2  0
 17 15  1  0
 19 20  1  0
 20 21  2  0
 22 20  1  0
 22 23  1  0
 24 23  1  1
 24 25  1  0
 25 17  1  0
 26 24  1  0
 27 26  2  0
 28 26  1  0
M  END
$$$$
