HNQ.pdb
     RDKit          3D

 28 28  0  0  1  0  0  0  0  0999 V2000
   24.6946  -12.0085  -18.2073 N   0  0  0  0  0  0  0  0  0  0  0  0
   24.4454  -11.6462  -16.8476 C   0  0  1  0  0  0  0  0  0  0  0  0
   25.6735  -11.0778  -16.1675 C   0  0  0  0  0  0  0  0  0  0  0  0
   26.7691  -12.0763  -16.1074 C   0  0  0  0  0  0  0  0  0  0  0  0
   26.7629  -13.3777  -16.5765 C   0  0  0  0  0  0  0  0  0  0  0  0
   27.9639  -13.9517  -16.3238 N   0  0  0  0  0  0  0  0  0  0  0  0
   28.7236  -13.0278  -15.7021 C   0  0  0  0  0  0  0  0  0  0  0  0
   27.9917  -11.8843  -15.5717 N   0  0  0  0  0  0  0  0  0  0  0  0
   23.2718  -10.7535  -16.6876 C   0  0  0  0  0  0  0  0  0  0  0  0
   23.1720   -9.7958  -17.4994 O   0  0  0  0  0  0  0  0  0  0  0  0
   18.6877   -8.5377  -15.2666 N   0  0  0  0  0  0  0  0  0  0  0  0
   18.8658   -9.7587  -14.5753 C   0  0  0  0  0  0  0  0  0  0  0  0
   17.9071  -10.1811  -13.8509 O   0  0  0  0  0  0  0  0  0  0  0  0
   20.0870  -10.5829  -14.6327 C   0  0  0  0  0  0  0  0  0  0  0  0
   21.1207  -10.0249  -15.6112 C   0  0  2  0  0  0  0  0  0  0  0  0
   22.2724  -10.8938  -15.7087 N   0  0  0  0  0  0  0  0  0  0  0  0
   21.5344   -8.7091  -15.0656 C   0  0  0  0  0  0  0  0  0  0  0  0
   22.4254   -8.6989  -14.1469 O   0  0  0  0  0  0  0  0  0  0  0  0
   24.1785   -4.3725  -17.9797 N   0  0  0  0  0  0  0  0  0  0  0  0
   24.0020   -3.7239  -16.7360 C   0  0  0  0  0  0  0  0  0  0  0  0
   24.5738   -2.6395  -16.5255 O   0  0  0  0  0  0  0  0  0  0  0  0
   23.1448   -4.3430  -15.7055 C   0  0  0  0  0  0  0  0  0  0  0  0
   22.5067   -5.6368  -16.1187 C   0  0  0  0  0  0  0  0  0  0  0  0
   21.6396   -6.1937  -15.0683 C   0  0  2  0  0  0  0  0  0  0  0  0
   21.0318   -7.4712  -15.4706 N   0  0  0  0  0  0  0  0  0  0  0  0
   20.5201   -5.2553  -14.7893 C   0  0  0  0  0  0  0  0  0  0  0  0
   20.5535   -4.3763  -13.8945 O   0  0  0  0  0  0  0  0  0  0  0  0
   19.3335   -5.2989  -15.5275 O   0  0  0  0  0  0  0  0  0  0  0  0
  2  1  1  6
  2  3  1  0
  3  4  1  0
  4  8  1  0
  4  5  2  0
  5  6  1  0
  7  6  1  0
  8  7  2  0
  9 10  2  0
  9  2  1  0
 11 12  1  0
 12 14  1  0
 13 12  2  0
 15 14  1  1
 15 16  1  0
 16  9  1  0
 17 18  2  0
 17 15  1  0
 19 20  1  0
 20 21  2  0
 22 20  1  0
 22 23  1  0
 24 23  1  6
 24 25  1  0
 25 17  1  0
 26 24  1  0
 27 26  2  0
 28 26  1  0
M  END
$$$$
