HNQ.pdb
     RDKit          3D

 28 28  0  0  1  0  0  0  0  0999 V2000
   18.1237  -15.7550    4.6540 N   0  0  0  0  0  0  0  0  0  0  0  0
   18.7547  -17.0308    4.5248 C   0  0  1  0  0  0  0  0  0  0  0  0
   20.0916  -16.9445    3.8185 C   0  0  0  0  0  0  0  0  0  0  0  0
   20.0691  -15.9245    2.7413 C   0  0  0  0  0  0  0  0  0  0  0  0
   18.9916  -15.1814    2.2936 C   0  0  0  0  0  0  0  0  0  0  0  0
   19.3962  -14.3617    1.2935 N   0  0  0  0  0  0  0  0  0  0  0  0
   20.7133  -14.5808    1.1076 C   0  0  0  0  0  0  0  0  0  0  0  0
   21.1210  -15.5350    1.9928 N   0  0  0  0  0  0  0  0  0  0  0  0
   18.8645  -17.7600    5.8117 C   0  0  0  0  0  0  0  0  0  0  0  0
   20.0190  -18.1192    6.1642 O   0  0  0  0  0  0  0  0  0  0  0  0
   18.1778  -18.7419   10.9005 N   0  0  0  0  0  0  0  0  0  0  0  0
   18.6131  -17.5404   10.2945 C   0  0  0  0  0  0  0  0  0  0  0  0
   19.1428  -16.6530   11.0389 O   0  0  0  0  0  0  0  0  0  0  0  0
   18.4983  -17.2389    8.8558 C   0  0  0  0  0  0  0  0  0  0  0  0
   17.9445  -18.4183    8.0560 C   0  0  2  0  0  0  0  0  0  0  0  0
   17.7887  -18.0773    6.6595 N   0  0  0  0  0  0  0  0  0  0  0  0
   16.6182  -18.7269    8.6443 C   0  0  0  0  0  0  0  0  0  0  0  0
   15.6735  -17.8839    8.4580 O   0  0  0  0  0  0  0  0  0  0  0  0
   14.9256  -22.2711    5.1338 N   0  0  0  0  0  0  0  0  0  0  0  0
   13.9041  -22.6105    6.0504 C   0  0  0  0  0  0  0  0  0  0  0  0
   12.9542  -23.3190    5.6723 O   0  0  0  0  0  0  0  0  0  0  0  0
   13.9782  -22.1182    7.4403 C   0  0  0  0  0  0  0  0  0  0  0  0
   15.1457  -21.2188    7.7231 C   0  0  0  0  0  0  0  0  0  0  0  0
   15.1403  -20.7123    9.1046 C   0  0  2  0  0  0  0  0  0  0  0  0
   16.3091  -19.8662    9.3895 N   0  0  0  0  0  0  0  0  0  0  0  0
   15.1929  -21.8517   10.0590 C   0  0  0  0  0  0  0  0  0  0  0  0
   16.2540  -22.2855   10.5691 O   0  0  0  0  0  0  0  0  0  0  0  0
   14.0322  -22.5237   10.4540 O   0  0  0  0  0  0  0  0  0  0  0  0
  2  1  1  1
  2  3  1  0
  3  4  1  0
  4  8  1  0
  4  5  2  0
  5  6  1  0
  7  6  1  0
  8  7  2  0
  9 10  2  0
  9  2  1  0
 11 12  1  0
 12 14  1  0
 13 12  2  0
 15 14  1  1
 15 16  1  0
 16  9  1  0
 17 18  2  0
 17 15  1  0
 19 20  1  0
 20 21  2  0
 22 20  1  0
 22 23  1  0
 24 23  1  6
 24 25  1  0
 25 17  1  0
 26 24  1  0
 27 26  2  0
 28 26  1  0
M  END
$$$$
