HNQ.pdb
     RDKit          3D

 28 28  0  0  1  0  0  0  0  0999 V2000
   28.7592   -7.6616  -19.9647 N   0  0  0  0  0  0  0  0  0  0  0  0
   29.0930   -8.1267  -18.6553 C   0  0  1  0  0  0  0  0  0  0  0  0
   28.3792   -9.4146  -18.3009 C   0  0  0  0  0  0  0  0  0  0  0  0
   26.9080   -9.2260  -18.2683 C   0  0  0  0  0  0  0  0  0  0  0  0
   25.9553   -9.8124  -19.0822 C   0  0  0  0  0  0  0  0  0  0  0  0
   24.7254   -9.3724  -18.7224 N   0  0  0  0  0  0  0  0  0  0  0  0
   24.8937   -8.5175  -17.6937 C   0  0  0  0  0  0  0  0  0  0  0  0
   26.2267   -8.4305  -17.4189 N   0  0  0  0  0  0  0  0  0  0  0  0
   30.5551   -8.2344  -18.4299 C   0  0  0  0  0  0  0  0  0  0  0  0
   31.2351   -8.7555  -19.3530 O   0  0  0  0  0  0  0  0  0  0  0  0
   35.4615   -8.0280  -16.4557 N   0  0  0  0  0  0  0  0  0  0  0  0
   34.5758   -7.3159  -15.6137 C   0  0  0  0  0  0  0  0  0  0  0  0
   35.0506   -6.7880  -14.5563 O   0  0  0  0  0  0  0  0  0  0  0  0
   33.1351   -7.1388  -15.8725 C   0  0  0  0  0  0  0  0  0  0  0  0
   32.6619   -7.9263  -17.0945 C   0  0  2  0  0  0  0  0  0  0  0  0
   31.2326   -7.8032  -17.2758 N   0  0  0  0  0  0  0  0  0  0  0  0
   33.0100   -9.3437  -16.8298 C   0  0  0  0  0  0  0  0  0  0  0  0
   32.1601  -10.0563  -16.1912 O   0  0  0  0  0  0  0  0  0  0  0  0
   32.3096  -13.5584  -20.5437 N   0  0  0  0  0  0  0  0  0  0  0  0
   31.7344  -13.6012  -19.2530 C   0  0  0  0  0  0  0  0  0  0  0  0
   30.7854  -14.3743  -19.0320 O   0  0  0  0  0  0  0  0  0  0  0  0
   32.2659  -12.7274  -18.1882 C   0  0  0  0  0  0  0  0  0  0  0  0
   33.2924  -11.7345  -18.6491 C   0  0  0  0  0  0  0  0  0  0  0  0
   34.2566  -11.3942  -17.5910 C   0  0  2  0  0  0  0  0  0  0  0  0
   34.1938   -9.9724  -17.2200 N   0  0  0  0  0  0  0  0  0  0  0  0
   35.6411  -11.6519  -18.0693 C   0  0  0  0  0  0  0  0  0  0  0  0
   36.0473  -11.3583  -19.2195 O   0  0  0  0  0  0  0  0  0  0  0  0
   36.5960  -12.2521  -17.2431 O   0  0  0  0  0  0  0  0  0  0  0  0
  2  1  1  6
  2  3  1  0
  3  4  1  0
  4  8  1  0
  4  5  2  0
  5  6  1  0
  7  6  1  0
  8  7  2  0
  9 10  2  0
  9  2  1  0
 11 12  1  0
 12 14  1  0
 13 12  2  0
 15 14  1  1
 15 16  1  0
 16  9  1  0
 17 18  2  0
 17 15  1  0
 19 20  1  0
 20 21  2  0
 22 20  1  0
 22 23  1  0
 24 23  1  6
 24 25  1  0
 25 17  1  0
 26 24  1  0
 27 26  2  0
 28 26  1  0
M  END
$$$$
