HNQ.pdb
     RDKit          3D

 28 28  0  0  1  0  0  0  0  0999 V2000
   14.1661  -26.9140   -8.5216 N   0  0  0  0  0  0  0  0  0  0  0  0
   14.1290  -27.0535   -7.0998 C   0  0  1  0  0  0  0  0  0  0  0  0
   13.2035  -28.1660   -6.6531 C   0  0  0  0  0  0  0  0  0  0  0  0
   11.7901  -27.8587   -6.9832 C   0  0  0  0  0  0  0  0  0  0  0  0
   11.0791  -26.7069   -6.6975 C   0  0  0  0  0  0  0  0  0  0  0  0
    9.8162  -26.8296   -7.1723 N   0  0  0  0  0  0  0  0  0  0  0  0
    9.7250  -28.0433   -7.7519 C   0  0  0  0  0  0  0  0  0  0  0  0
   10.9314  -28.6688   -7.6350 N   0  0  0  0  0  0  0  0  0  0  0  0
   15.4752  -27.1875   -6.4917 C   0  0  0  0  0  0  0  0  0  0  0  0
   16.3020  -27.9188   -7.0981 O   0  0  0  0  0  0  0  0  0  0  0  0
   18.0122  -24.1446   -6.9300 N   0  0  0  0  0  0  0  0  0  0  0  0
   18.5798  -25.0144   -5.9698 C   0  0  0  0  0  0  0  0  0  0  0  0
   19.7163  -25.5288   -6.2268 O   0  0  0  0  0  0  0  0  0  0  0  0
   17.9484  -25.3704   -4.6859 C   0  0  0  0  0  0  0  0  0  0  0  0
   17.2214  -26.7139   -4.7472 C   0  0  2  0  0  0  0  0  0  0  0  0
   15.8942  -26.5665   -5.3019 N   0  0  0  0  0  0  0  0  0  0  0  0
   17.1254  -27.1934   -3.3468 C   0  0  0  0  0  0  0  0  0  0  0  0
   16.2697  -26.6281   -2.5812 O   0  0  0  0  0  0  0  0  0  0  0  0
   19.6019  -31.5998    0.7234 N   0  0  0  0  0  0  0  0  0  0  0  0
   18.9314  -31.9266   -0.4776 C   0  0  0  0  0  0  0  0  0  0  0  0
   18.6362  -33.1124   -0.7097 O   0  0  0  0  0  0  0  0  0  0  0  0
   18.5939  -30.8578   -1.4386 C   0  0  0  0  0  0  0  0  0  0  0  0
   18.9643  -29.4746   -0.9901 C   0  0  0  0  0  0  0  0  0  0  0  0
   17.9390  -28.4791   -1.3410 C   0  0  2  0  0  0  0  0  0  0  0  0
   17.8940  -28.2157   -2.7873 N   0  0  0  0  0  0  0  0  0  0  0  0
   18.2472  -27.1836   -0.6787 C   0  0  0  0  0  0  0  0  0  0  0  0
   18.9804  -26.2994   -1.1837 O   0  0  0  0  0  0  0  0  0  0  0  0
   17.7241  -26.8671    0.5786 O   0  0  0  0  0  0  0  0  0  0  0  0
  2  1  1  6
  2  3  1  0
  3  4  1  0
  4  8  1  0
  4  5  2  0
  5  6  1  0
  7  6  1  0
  8  7  2  0
  9 10  2  0
  9  2  1  0
 11 12  1  0
 12 14  1  0
 13 12  2  0
 15 14  1  1
 15 16  1  0
 16  9  1  0
 17 18  2  0
 17 15  1  0
 19 20  1  0
 20 21  2  0
 22 20  1  0
 22 23  1  0
 24 23  1  6
 24 25  1  0
 25 17  1  0
 26 24  1  0
 27 26  2  0
 28 26  1  0
M  END
$$$$
