GVS.pdb
     RDKit          3D

 18 17  0  0  1  0  0  0  0  0999 V2000
   17.4574  -10.7104  -12.1661 N   0  0  0  0  0  0  0  0  0  0  0  0
   17.6707  -10.0130  -10.9338 C   0  0  0  0  0  0  0  0  0  0  0  0
   16.6445   -8.9173  -10.8180 C   0  0  0  0  0  0  0  0  0  0  0  0
   15.9762   -8.5346  -11.8212 O   0  0  0  0  0  0  0  0  0  0  0  0
   13.7829   -8.4845   -8.0565 C   0  0  0  0  0  0  0  0  0  0  0  0
   14.6119   -7.2676   -8.2023 C   0  0  2  0  0  0  0  0  0  0  0  0
   13.7367   -6.0382   -8.1190 C   0  0  0  0  0  0  0  0  0  0  0  0
   15.4306   -7.1959   -9.4586 C   0  0  2  0  0  0  0  0  0  0  0  0
   16.3839   -8.2682   -9.5798 N   0  0  0  0  0  0  0  0  0  0  0  0
   16.0942   -5.8568   -9.6087 C   0  0  0  0  0  0  0  0  0  0  0  0
   17.0536   -5.5131   -8.8712 O   0  0  0  0  0  0  0  0  0  0  0  0
   15.3389   -3.6415  -12.9909 O   0  0  0  0  0  0  0  0  0  0  0  0
   16.4760   -3.3428  -12.2822 C   0  0  0  0  0  0  0  0  0  0  0  0
   16.2720   -3.6553  -10.8125 C   0  0  2  0  0  0  0  0  0  0  0  0
   15.6483   -4.9268  -10.6049 N   0  0  0  0  0  0  0  0  0  0  0  0
   15.4454   -2.5945  -10.1987 C   0  0  0  0  0  0  0  0  0  0  0  0
   14.2984   -2.8875   -9.7875 O   0  0  0  0  0  0  0  0  0  0  0  0
   15.8954   -1.2799  -10.0607 O   0  0  0  0  0  0  0  0  0  0  0  0
  1  2  1  0
  3  4  2  0
  3  2  1  0
  6  5  1  6
  6  8  1  0
  7  6  1  0
  8  9  1  1
  9  3  1  0
 10 15  1  0
 10  8  1  0
 11 10  2  0
 14 13  1  6
 13 12  1  0
 14 15  1  0
 14 16  1  0
 16 18  1  0
 17 16  2  0
M  END
$$$$
