GVS.pdb
     RDKit          3D

 18 17  0  0  1  0  0  0  0  0999 V2000
   11.8499   -9.7541  -10.0508 N   0  0  0  0  0  0  0  0  0  0  0  0
   12.2284  -10.5707  -11.1645 C   0  0  0  0  0  0  0  0  0  0  0  0
   13.6837  -10.3279  -11.4656 C   0  0  0  0  0  0  0  0  0  0  0  0
   14.4623   -9.8428  -10.5952 O   0  0  0  0  0  0  0  0  0  0  0  0
   16.1665  -12.8842  -12.6429 C   0  0  0  0  0  0  0  0  0  0  0  0
   16.3130  -11.7007  -13.5187 C   0  0  2  0  0  0  0  0  0  0  0  0
   17.7786  -11.4098  -13.7462 C   0  0  0  0  0  0  0  0  0  0  0  0
   15.6412  -10.4516  -13.0267 C   0  0  2  0  0  0  0  0  0  0  0  0
   14.2424  -10.6327  -12.7373 N   0  0  0  0  0  0  0  0  0  0  0  0
   15.8589   -9.3011  -13.9676 C   0  0  0  0  0  0  0  0  0  0  0  0
   15.0955   -9.1006  -14.9470 O   0  0  0  0  0  0  0  0  0  0  0  0
   16.1600   -5.0247  -14.8984 O   0  0  0  0  0  0  0  0  0  0  0  0
   15.9381   -6.2128  -14.2475 C   0  0  0  0  0  0  0  0  0  0  0  0
   17.0841   -7.1714  -14.5064 C   0  0  2  0  0  0  0  0  0  0  0  0
   16.9516   -8.3934  -13.7729 N   0  0  0  0  0  0  0  0  0  0  0  0
   18.3590   -6.5157  -14.1461 C   0  0  0  0  0  0  0  0  0  0  0  0
   18.8642   -6.7572  -13.0249 O   0  0  0  0  0  0  0  0  0  0  0  0
   19.0200   -5.6384  -15.0082 O   0  0  0  0  0  0  0  0  0  0  0  0
  1  2  1  0
  3  4  2  0
  3  2  1  0
  6  5  1  1
  6  8  1  0
  7  6  1  0
  8  9  1  6
  9  3  1  0
 10 15  1  0
 10  8  1  0
 11 10  2  0
 14 13  1  1
 13 12  1  0
 14 15  1  0
 14 16  1  0
 16 18  1  0
 17 16  2  0
M  END
$$$$
