GVS.pdb
     RDKit          3D

 18 17  0  0  1  0  0  0  0  0999 V2000
   23.1767  -12.8011  -16.5709 N   0  0  0  0  0  0  0  0  0  0  0  0
   22.1456  -12.3046  -15.7103 C   0  0  0  0  0  0  0  0  0  0  0  0
   21.7067  -10.9556  -16.2152 C   0  0  0  0  0  0  0  0  0  0  0  0
   22.1567  -10.4812  -17.2977 O   0  0  0  0  0  0  0  0  0  0  0  0
   18.5529   -9.7737  -17.5697 C   0  0  0  0  0  0  0  0  0  0  0  0
   18.8628   -8.9082  -16.4103 C   0  0  2  0  0  0  0  0  0  0  0  0
   18.4192   -7.4917  -16.6950 C   0  0  0  0  0  0  0  0  0  0  0  0
   20.3041   -8.8900  -15.9906 C   0  0  2  0  0  0  0  0  0  0  0  0
   20.7707  -10.1602  -15.4986 N   0  0  0  0  0  0  0  0  0  0  0  0
   20.5778   -7.7897  -15.0054 C   0  0  0  0  0  0  0  0  0  0  0  0
   20.1207   -7.8286  -13.8341 O   0  0  0  0  0  0  0  0  0  0  0  0
   23.1350   -4.5959  -16.0648 O   0  0  0  0  0  0  0  0  0  0  0  0
   23.1064   -5.0345  -14.7643 C   0  0  0  0  0  0  0  0  0  0  0  0
   21.7514   -5.6364  -14.4463 C   0  0  2  0  0  0  0  0  0  0  0  0
   21.3738   -6.6564  -15.3767 N   0  0  0  0  0  0  0  0  0  0  0  0
   20.7309   -4.5669  -14.4460 C   0  0  0  0  0  0  0  0  0  0  0  0
   19.9265   -4.5023  -15.4048 O   0  0  0  0  0  0  0  0  0  0  0  0
   20.6307   -3.6274  -13.4179 O   0  0  0  0  0  0  0  0  0  0  0  0
  1  2  1  0
  3  4  2  0
  3  2  1  0
  6  5  1  6
  6  8  1  0
  7  6  1  0
  8  9  1  1
  9  3  1  0
 10 15  1  0
 10  8  1  0
 11 10  2  0
 14 13  1  6
 13 12  1  0
 14 15  1  0
 14 16  1  0
 16 18  1  0
 17 16  2  0
M  END
$$$$
