GVS.pdb
     RDKit          3D

 18 17  0  0  1  0  0  0  0  0999 V2000
   23.8599  -27.7422  -17.3591 N   0  0  0  0  0  0  0  0  0  0  0  0
   24.4419  -28.9385  -17.8887 C   0  0  0  0  0  0  0  0  0  0  0  0
   25.8446  -29.0668  -17.3565 C   0  0  0  0  0  0  0  0  0  0  0  0
   26.3069  -28.2408  -16.5178 O   0  0  0  0  0  0  0  0  0  0  0  0
   27.3147  -32.1488  -15.6901 C   0  0  0  0  0  0  0  0  0  0  0  0
   28.2815  -31.6726  -16.7039 C   0  0  2  0  0  0  0  0  0  0  0  0
   29.6837  -31.7332  -16.1431 C   0  0  0  0  0  0  0  0  0  0  0  0
   28.0293  -30.2898  -17.2311 C   0  0  2  0  0  0  0  0  0  0  0  0
   26.7063  -30.1187  -17.7729 N   0  0  0  0  0  0  0  0  0  0  0  0
   29.0813  -29.8763  -18.2203 C   0  0  0  0  0  0  0  0  0  0  0  0
   29.0813  -30.3134  -19.3998 O   0  0  0  0  0  0  0  0  0  0  0  0
   32.9184  -26.9924  -19.0801 O   0  0  0  0  0  0  0  0  0  0  0  0
   32.0691  -27.5039  -18.1306 C   0  0  0  0  0  0  0  0  0  0  0  0
   31.1018  -28.4821  -18.7685 C   0  0  2  0  0  0  0  0  0  0  0  0
   30.1221  -28.9649  -17.8435 N   0  0  0  0  0  0  0  0  0  0  0  0
   31.8588  -29.6232  -19.3254 C   0  0  0  0  0  0  0  0  0  0  0  0
   32.2692  -30.5122  -18.5432 O   0  0  0  0  0  0  0  0  0  0  0  0
   32.1328  -29.7465  -20.6890 O   0  0  0  0  0  0  0  0  0  0  0  0
  1  2  1  0
  3  4  2  0
  3  2  1  0
  6  5  1  1
  6  8  1  0
  7  6  1  0
  8  9  1  6
  9  3  1  0
 10 15  1  0
 10  8  1  0
 11 10  2  0
 14 13  1  1
 13 12  1  0
 14 15  1  0
 14 16  1  0
 16 18  1  0
 17 16  2  0
M  END
$$$$
