GVS.pdb
     RDKit          3D

 18 17  0  0  1  0  0  0  0  0999 V2000
   21.7854  -10.2931    8.2523 N   0  0  0  0  0  0  0  0  0  0  0  0
   21.6221  -10.9524    6.9918 C   0  0  0  0  0  0  0  0  0  0  0  0
   20.4351  -11.8745    7.0821 C   0  0  0  0  0  0  0  0  0  0  0  0
   19.8556  -12.0928    8.1847 O   0  0  0  0  0  0  0  0  0  0  0  0
   17.4859  -12.2514    4.2727 C   0  0  0  0  0  0  0  0  0  0  0  0
   18.0108  -13.5467    4.7585 C   0  0  2  0  0  0  0  0  0  0  0  0
   16.8696  -14.5144    4.9722 C   0  0  0  0  0  0  0  0  0  0  0  0
   18.8290  -13.4766    6.0151 C   0  0  2  0  0  0  0  0  0  0  0  0
   19.9172  -12.5369    5.9353 N   0  0  0  0  0  0  0  0  0  0  0  0
   19.3118  -14.8354    6.4355 C   0  0  0  0  0  0  0  0  0  0  0  0
   20.2188  -15.4346    5.8027 O   0  0  0  0  0  0  0  0  0  0  0  0
   20.6396  -15.9743    9.7870 O   0  0  0  0  0  0  0  0  0  0  0  0
   19.5221  -16.7336    9.5442 C   0  0  0  0  0  0  0  0  0  0  0  0
   19.2182  -16.7546    8.0588 C   0  0  2  0  0  0  0  0  0  0  0  0
   18.7470  -15.4911    7.5787 N   0  0  0  0  0  0  0  0  0  0  0  0
   18.2057  -17.7957    7.7830 C   0  0  0  0  0  0  0  0  0  0  0  0
   17.1057  -17.4503    7.2917 O   0  0  0  0  0  0  0  0  0  0  0  0
   18.4298  -19.1479    8.0494 O   0  0  0  0  0  0  0  0  0  0  0  0
  1  2  1  0
  3  4  2  0
  3  2  1  0
  6  5  1  1
  6  8  1  0
  7  6  1  0
  8  9  1  6
  9  3  1  0
 10 15  1  0
 10  8  1  0
 11 10  2  0
 14 13  1  1
 13 12  1  0
 14 15  1  0
 14 16  1  0
 16 18  1  0
 17 16  2  0
M  END
$$$$
