GVS.pdb
     RDKit          3D

 18 17  0  0  1  0  0  0  0  0999 V2000
   13.6533  -11.1607   -9.4514 N   0  0  0  0  0  0  0  0  0  0  0  0
   14.6788  -10.1616   -9.4289 C   0  0  0  0  0  0  0  0  0  0  0  0
   15.3279  -10.1088  -10.7865 C   0  0  0  0  0  0  0  0  0  0  0  0
   15.0891  -10.9883  -11.6633 O   0  0  0  0  0  0  0  0  0  0  0  0
   14.6571   -8.3121  -13.6970 C   0  0  0  0  0  0  0  0  0  0  0  0
   16.0301   -7.9256  -13.3038 C   0  0  2  0  0  0  0  0  0  0  0  0
   16.8493   -7.6197  -14.5366 C   0  0  0  0  0  0  0  0  0  0  0  0
   16.7664   -8.9338  -12.4701 C   0  0  2  0  0  0  0  0  0  0  0  0
   16.2340   -9.0711  -11.1393 N   0  0  0  0  0  0  0  0  0  0  0  0
   18.2418   -8.6535  -12.4409 C   0  0  0  0  0  0  0  0  0  0  0  0
   18.7295   -7.7820  -11.6760 O   0  0  0  0  0  0  0  0  0  0  0  0
   22.6338   -9.8061  -14.2219 O   0  0  0  0  0  0  0  0  0  0  0  0
   21.2861  -10.0643  -14.2582 C   0  0  0  0  0  0  0  0  0  0  0  0
   20.5491   -9.1222  -13.3262 C   0  0  2  0  0  0  0  0  0  0  0  0
   19.1412   -9.3776  -13.2911 N   0  0  0  0  0  0  0  0  0  0  0  0
   20.7868   -7.7276  -13.7548 C   0  0  0  0  0  0  0  0  0  0  0  0
   21.4867   -6.9853  -13.0270 O   0  0  0  0  0  0  0  0  0  0  0  0
   20.2607   -7.2080  -14.9393 O   0  0  0  0  0  0  0  0  0  0  0  0
  1  2  1  0
  3  4  2  0
  3  2  1  0
  6  5  1  6
  6  8  1  0
  7  6  1  0
  8  9  1  1
  9  3  1  0
 10 15  1  0
 10  8  1  0
 11 10  2  0
 14 13  1  6
 13 12  1  0
 14 15  1  0
 14 16  1  0
 16 18  1  0
 17 16  2  0
M  END
$$$$
