GVS.pdb
     RDKit          3D

 18 17  0  0  1  0  0  0  0  0999 V2000
   19.4093  -22.9312   -9.5297 N   0  0  0  0  0  0  0  0  0  0  0  0
   19.6732  -21.6548  -10.1226 C   0  0  0  0  0  0  0  0  0  0  0  0
   20.5235  -21.8609  -11.3481 C   0  0  0  0  0  0  0  0  0  0  0  0
   21.0796  -22.9724  -11.5822 O   0  0  0  0  0  0  0  0  0  0  0  0
   19.8056  -20.8374  -15.1772 C   0  0  0  0  0  0  0  0  0  0  0  0
   21.0915  -20.3107  -14.6693 C   0  0  2  0  0  0  0  0  0  0  0  0
   22.1459  -20.4046  -15.7481 C   0  0  0  0  0  0  0  0  0  0  0  0
   21.6097  -20.9731  -13.4257 C   0  0  2  0  0  0  0  0  0  0  0  0
   20.7367  -20.8181  -12.2911 N   0  0  0  0  0  0  0  0  0  0  0  0
   23.0069  -20.5256  -13.1037 C   0  0  0  0  0  0  0  0  0  0  0  0
   23.2377  -19.3834  -12.6300 O   0  0  0  0  0  0  0  0  0  0  0  0
   27.2269  -21.4613  -11.4292 O   0  0  0  0  0  0  0  0  0  0  0  0
   25.9132  -21.7587  -11.6940 C   0  0  0  0  0  0  0  0  0  0  0  0
   25.4624  -21.0509  -12.9570 C   0  0  2  0  0  0  0  0  0  0  0  0
   24.1241  -21.3956  -13.3295 N   0  0  0  0  0  0  0  0  0  0  0  0
   26.3846  -21.3899  -14.0615 C   0  0  0  0  0  0  0  0  0  0  0  0
   25.9669  -22.1177  -14.9923 O   0  0  0  0  0  0  0  0  0  0  0  0
   27.7021  -20.9296  -14.1053 O   0  0  0  0  0  0  0  0  0  0  0  0
  1  2  1  0
  3  4  2  0
  3  2  1  0
  6  5  1  6
  6  8  1  0
  7  6  1  0
  8  9  1  1
  9  3  1  0
 10 15  1  0
 10  8  1  0
 11 10  2  0
 14 13  1  1
 13 12  1  0
 14 15  1  0
 14 16  1  0
 16 18  1  0
 17 16  2  0
M  END
$$$$
