GVS.pdb
     RDKit          3D

 18 17  0  0  1  0  0  0  0  0999 V2000
   23.0166  -12.5770  -20.3158 N   0  0  0  0  0  0  0  0  0  0  0  0
   23.4760  -11.2354  -20.1166 C   0  0  0  0  0  0  0  0  0  0  0  0
   23.2388  -10.8548  -18.6792 C   0  0  0  0  0  0  0  0  0  0  0  0
   22.2312  -11.2808  -18.0447 O   0  0  0  0  0  0  0  0  0  0  0  0
   24.8117   -9.7311  -14.2550 C   0  0  0  0  0  0  0  0  0  0  0  0
   25.0189  -10.0531  -15.6842 C   0  0  2  0  0  0  0  0  0  0  0  0
   26.3201   -9.4508  -16.1619 C   0  0  0  0  0  0  0  0  0  0  0  0
   23.9163   -9.6191  -16.6059 C   0  0  2  0  0  0  0  0  0  0  0  0
   24.1347  -10.0028  -17.9765 N   0  0  0  0  0  0  0  0  0  0  0  0
   23.6469   -8.1460  -16.4884 C   0  0  0  0  0  0  0  0  0  0  0  0
   24.3522   -7.2993  -17.0950 O   0  0  0  0  0  0  0  0  0  0  0  0
   20.4462   -6.2849  -17.0896 O   0  0  0  0  0  0  0  0  0  0  0  0
   20.7819   -5.9893  -15.7918 C   0  0  0  0  0  0  0  0  0  0  0  0
   22.2532   -6.2709  -15.5565 C   0  0  2  0  0  0  0  0  0  0  0  0
   22.5699   -7.6617  -15.6751 N   0  0  0  0  0  0  0  0  0  0  0  0
   22.6320   -5.7920  -14.2102 C   0  0  0  0  0  0  0  0  0  0  0  0
   22.8271   -6.6356  -13.3041 O   0  0  0  0  0  0  0  0  0  0  0  0
   22.7800   -4.4360  -13.9116 O   0  0  0  0  0  0  0  0  0  0  0  0
  1  2  1  0
  3  4  2  0
  3  2  1  0
  6  5  1  1
  6  8  1  0
  7  6  1  0
  8  9  1  6
  9  3  1  0
 10 15  1  0
 10  8  1  0
 11 10  2  0
 14 13  1  1
 13 12  1  0
 14 15  1  0
 14 16  1  0
 16 18  1  0
 17 16  2  0
M  END
$$$$
