GVS.pdb
     RDKit          3D

 18 17  0  0  1  0  0  0  0  0999 V2000
   23.8456  -20.5723  -14.8834 N   0  0  0  0  0  0  0  0  0  0  0  0
   23.4221  -19.2398  -14.5745 C   0  0  0  0  0  0  0  0  0  0  0  0
   24.0021  -18.3015  -15.5994 C   0  0  0  0  0  0  0  0  0  0  0  0
   24.7830  -18.7174  -16.5030 O   0  0  0  0  0  0  0  0  0  0  0  0
   21.8907  -15.1691  -17.3345 C   0  0  0  0  0  0  0  0  0  0  0  0
   23.1527  -15.8307  -17.7329 C   0  0  2  0  0  0  0  0  0  0  0  0
   22.8523  -17.1740  -18.3572 C   0  0  0  0  0  0  0  0  0  0  0  0
   24.1531  -16.0212  -16.6300 C   0  0  2  0  0  0  0  0  0  0  0  0
   23.6976  -16.9124  -15.5948 N   0  0  0  0  0  0  0  0  0  0  0  0
   24.6018  -14.7064  -16.0590 C   0  0  0  0  0  0  0  0  0  0  0  0
   23.9705  -14.1461  -15.1263 O   0  0  0  0  0  0  0  0  0  0  0  0
   28.2053  -11.4771  -15.7301 O   0  0  0  0  0  0  0  0  0  0  0  0
   27.7349  -12.5956  -16.3721 C   0  0  0  0  0  0  0  0  0  0  0  0
   26.2839  -12.8371  -16.0038 C   0  0  2  0  0  0  0  0  0  0  0  0
   25.7711  -14.0494  -16.5659 N   0  0  0  0  0  0  0  0  0  0  0  0
   25.4671  -11.6950  -16.4660 C   0  0  0  0  0  0  0  0  0  0  0  0
   25.0561  -11.6891  -17.6500 O   0  0  0  0  0  0  0  0  0  0  0  0
   25.1372  -10.6241  -15.6329 O   0  0  0  0  0  0  0  0  0  0  0  0
  1  2  1  0
  3  4  2  0
  3  2  1  0
  6  5  1  1
  6  8  1  0
  7  6  1  0
  8  9  1  1
  9  3  1  0
 10 15  1  0
 10  8  1  0
 11 10  2  0
 14 13  1  6
 13 12  1  0
 14 15  1  0
 14 16  1  0
 16 18  1  0
 17 16  2  0
M  END
$$$$
