GVS.pdb
     RDKit          3D

 18 17  0  0  1  0  0  0  0  0999 V2000
   21.8283  -12.6079  -18.9188 N   0  0  0  0  0  0  0  0  0  0  0  0
   22.2628  -13.2065  -17.6928 C   0  0  0  0  0  0  0  0  0  0  0  0
   22.7517  -12.1186  -16.7737 C   0  0  0  0  0  0  0  0  0  0  0  0
   22.2303  -11.9363  -15.6361 O   0  0  0  0  0  0  0  0  0  0  0  0
   26.4926  -11.6032  -15.8404 C   0  0  0  0  0  0  0  0  0  0  0  0
   25.8807  -10.3062  -16.2045 C   0  0  2  0  0  0  0  0  0  0  0  0
   26.3623   -9.2291  -15.2598 C   0  0  0  0  0  0  0  0  0  0  0  0
   24.3798  -10.2906  -16.2332 C   0  0  2  0  0  0  0  0  0  0  0  0
   23.8170  -11.2526  -17.1447 N   0  0  0  0  0  0  0  0  0  0  0  0
   23.8476   -8.9113  -16.4987 C   0  0  0  0  0  0  0  0  0  0  0  0
   23.9956   -8.3546  -17.6170 O   0  0  0  0  0  0  0  0  0  0  0  0
   20.5781   -7.5441  -14.5766 O   0  0  0  0  0  0  0  0  0  0  0  0
   21.5208   -6.5495  -14.6574 C   0  0  0  0  0  0  0  0  0  0  0  0
   22.5623   -6.9014  -15.7018 C   0  0  2  0  0  0  0  0  0  0  0  0
   23.1508   -8.1865  -15.4764 N   0  0  0  0  0  0  0  0  0  0  0  0
   23.6196   -5.8682  -15.7033 C   0  0  0  0  0  0  0  0  0  0  0  0
   23.2961   -4.6764  -15.9166 O   0  0  0  0  0  0  0  0  0  0  0  0
   24.9635   -6.1714  -15.4762 O   0  0  0  0  0  0  0  0  0  0  0  0
  1  2  1  0
  3  4  2  0
  3  2  1  0
  6  5  1  1
  6  8  1  0
  7  6  1  0
  8  9  1  6
  9  3  1  0
 10 15  1  0
 10  8  1  0
 11 10  2  0
 14 13  1  1
 13 12  1  0
 14 15  1  0
 14 16  1  0
 16 18  1  0
 17 16  2  0
M  END
$$$$
