WYC.pdb
     RDKit          3D

 33 35  0  0  1  0  0  0  0  0999 V2000
    7.1504  -17.8577   25.4104 N   0  0  0  0  0  0  0  0  0  0  0  0
    7.4324  -16.5714   24.8765 C   0  0  1  0  0  0  0  0  0  0  0  0
    8.6561  -15.9597   25.5164 C   0  0  0  0  0  0  0  0  0  0  0  0
    8.3226  -15.0239   26.6005 C   0  0  0  0  0  0  0  0  0  0  0  0
    8.6320  -15.1687   27.9336 C   0  0  0  0  0  0  0  0  0  0  0  0
    8.1959  -14.1048   28.6311 N   0  0  0  0  0  0  0  0  0  0  0  0
    7.6050  -13.2721   27.7546 C   0  0  0  0  0  0  0  0  0  0  0  0
    7.0052  -12.0632   27.9919 C   0  0  0  0  0  0  0  0  0  0  0  0
    6.4429  -11.3660   26.9219 C   0  0  0  0  0  0  0  0  0  0  0  0
    6.5055  -11.9106   25.6583 C   0  0  0  0  0  0  0  0  0  0  0  0
    7.1099  -13.1250   25.4293 C   0  0  0  0  0  0  0  0  0  0  0  0
    7.6714  -13.8266   26.4753 C   0  0  0  0  0  0  0  0  0  0  0  0
    7.5514  -16.5445   23.3882 C   0  0  0  0  0  0  0  0  0  0  0  0
    7.4534  -17.6407   22.7789 O   0  0  0  0  0  0  0  0  0  0  0  0
    8.0827  -13.5859   15.1928 O   0  0  0  0  0  0  0  0  0  0  0  0
    7.9622  -13.6419   16.5788 C   0  0  0  0  0  0  0  0  0  0  0  0
    7.0315  -14.4568   17.1885 C   0  0  0  0  0  0  0  0  0  0  0  0
    6.9246  -14.5011   18.5611 C   0  0  0  0  0  0  0  0  0  0  0  0
    7.7347  -13.7396   19.4070 C   0  0  0  0  0  0  0  0  0  0  0  0
    7.5759  -13.8345   20.8819 C   0  0  0  0  0  0  0  0  0  0  0  0
    7.8664  -15.2358   21.3306 C   0  0  2  0  0  0  0  0  0  0  0  0
    7.7662  -15.2887   22.7693 N   0  0  0  0  0  0  0  0  0  0  0  0
    9.1951  -15.7332   20.9267 C   0  0  0  0  0  0  0  0  0  0  0  0
    9.3164  -16.3699   19.8543 O   0  0  0  0  0  0  0  0  0  0  0  0
    8.6590  -12.9311   18.7846 C   0  0  0  0  0  0  0  0  0  0  0  0
    8.7674  -12.8857   17.4035 C   0  0  0  0  0  0  0  0  0  0  0  0
   10.3696  -15.5234   21.7077 N   0  0  0  0  0  0  0  0  0  0  0  0
   11.6126  -16.1065   21.2797 C   0  0  1  0  0  0  0  0  0  0  0  0
   12.6534  -15.0230   21.0641 C   0  0  0  0  0  0  0  0  0  0  0  0
   12.1990  -14.1678   19.5143 S   0  0  0  0  0  0  0  0  0  0  0  0
   12.1649  -17.0413   22.3045 C   0  0  0  0  0  0  0  0  0  0  0  0
   11.5133  -17.2084   23.5149 O   0  0  0  0  0  0  0  0  0  0  0  0
   13.2158  -17.6924   22.1059 O   0  0  0  0  0  0  0  0  0  0  0  0
  2 13  1  0
  2  1  1  1
  3  2  1  0
  4  3  1  0
  5  4  2  0
  6  5  1  0
  7  6  1  0
  7 12  2  0
  8  7  1  0
  9  8  2  0
  9 10  1  0
 10 11  2  0
 11 12  1  0
 12  4  1  0
 13 14  2  0
 15 16  1  0
 16 17  2  0
 17 18  1  0
 19 18  2  0
 19 20  1  0
 21 20  1  1
 22 21  1  0
 22 13  1  0
 23 21  1  0
 24 23  2  0
 25 19  1  0
 26 16  1  0
 26 25  2  0
 27 23  1  0
 28 27  1  0
 29 30  1  0
 28 29  1  1
 31 28  1  0
 31 32  1  0
 33 31  2  0
M  END
$$$$
