WYC.pdb
     RDKit          3D

 33 35  0  0  1  0  0  0  0  0999 V2000
    7.9308  -19.1738   21.4565 N   0  0  0  0  0  0  0  0  0  0  0  0
    7.7340  -17.7858   21.6892 C   0  0  1  0  0  0  0  0  0  0  0  0
    6.9301  -17.1449   20.5828 C   0  0  0  0  0  0  0  0  0  0  0  0
    7.6480  -16.0441   19.9234 C   0  0  0  0  0  0  0  0  0  0  0  0
    8.3609  -16.1167   18.7484 C   0  0  0  0  0  0  0  0  0  0  0  0
    8.8589  -14.9087   18.4305 N   0  0  0  0  0  0  0  0  0  0  0  0
    8.4716  -14.0545   19.3953 C   0  0  0  0  0  0  0  0  0  0  0  0
    8.7391  -12.7157   19.5125 C   0  0  0  0  0  0  0  0  0  0  0  0
    8.2371  -12.0198   20.6129 C   0  0  0  0  0  0  0  0  0  0  0  0
    7.4879  -12.6959   21.5503 C   0  0  0  0  0  0  0  0  0  0  0  0
    7.2243  -14.0403   21.4245 C   0  0  0  0  0  0  0  0  0  0  0  0
    7.7119  -14.7427   20.3426 C   0  0  0  0  0  0  0  0  0  0  0  0
    7.1346  -17.4724   23.0206 C   0  0  0  0  0  0  0  0  0  0  0  0
    5.9967  -17.9472   23.2703 O   0  0  0  0  0  0  0  0  0  0  0  0
   13.2183  -16.6227   27.5014 O   0  0  0  0  0  0  0  0  0  0  0  0
   11.8742  -16.7959   27.1822 C   0  0  0  0  0  0  0  0  0  0  0  0
   10.9044  -15.9390   27.6592 C   0  0  0  0  0  0  0  0  0  0  0  0
    9.5786  -16.1238   27.3344 C   0  0  0  0  0  0  0  0  0  0  0  0
    9.1393  -17.1689   26.5181 C   0  0  0  0  0  0  0  0  0  0  0  0
    7.6949  -17.3132   26.1981 C   0  0  0  0  0  0  0  0  0  0  0  0
    7.3021  -16.2929   25.1715 C   0  0  2  0  0  0  0  0  0  0  0  0
    7.8885  -16.6638   23.9059 N   0  0  0  0  0  0  0  0  0  0  0  0
    7.7154  -14.9162   25.5031 C   0  0  0  0  0  0  0  0  0  0  0  0
    8.5738  -14.3414   24.7942 O   0  0  0  0  0  0  0  0  0  0  0  0
   10.1180  -18.0160   26.0493 C   0  0  0  0  0  0  0  0  0  0  0  0
   11.4524  -17.8311   26.3756 C   0  0  0  0  0  0  0  0  0  0  0  0
    7.1789  -14.1929   26.6088 N   0  0  0  0  0  0  0  0  0  0  0  0
    7.0165  -12.7677   26.5051 C   0  0  1  0  0  0  0  0  0  0  0  0
    5.6505  -12.4357   25.9328 C   0  0  0  0  0  0  0  0  0  0  0  0
    5.5046  -10.6143   25.9611 S   0  0  0  0  0  0  0  0  0  0  0  0
    7.1009  -12.1046   27.8401 C   0  0  0  0  0  0  0  0  0  0  0  0
    7.2691  -10.7327   27.9245 O   0  0  0  0  0  0  0  0  0  0  0  0
    7.0235  -12.7559   28.9067 O   0  0  0  0  0  0  0  0  0  0  0  0
  2 13  1  0
  2  1  1  6
  3  2  1  0
  4  3  1  0
  5  4  2  0
  6  5  1  0
  7  6  1  0
  7 12  2  0
  8  7  1  0
  9  8  2  0
  9 10  1  0
 10 11  2  0
 11 12  1  0
 12  4  1  0
 13 14  2  0
 15 16  1  0
 16 17  2  0
 17 18  1  0
 19 18  2  0
 19 20  1  0
 21 20  1  1
 22 21  1  0
 22 13  1  0
 23 21  1  0
 24 23  2  0
 25 19  1  0
 26 16  1  0
 26 25  2  0
 27 23  1  0
 28 27  1  0
 29 30  1  0
 28 29  1  1
 31 28  1  0
 31 32  1  0
 33 31  2  0
M  END
$$$$
