WYC.pdb
     RDKit          3D

 33 35  0  0  1  0  0  0  0  0999 V2000
    6.7081  -18.1030   25.9707 N   0  0  0  0  0  0  0  0  0  0  0  0
    7.1012  -16.8465   25.4360 C   0  0  1  0  0  0  0  0  0  0  0  0
    8.3527  -16.3257   26.1019 C   0  0  0  0  0  0  0  0  0  0  0  0
    8.0769  -15.2566   27.0729 C   0  0  0  0  0  0  0  0  0  0  0  0
    8.3470  -15.2837   28.4221 C   0  0  0  0  0  0  0  0  0  0  0  0
    7.9871  -14.1202   28.9925 N   0  0  0  0  0  0  0  0  0  0  0  0
    7.4846  -13.3404   28.0178 C   0  0  0  0  0  0  0  0  0  0  0  0
    6.9825  -12.0688   28.1111 C   0  0  0  0  0  0  0  0  0  0  0  0
    6.5010  -11.4460   26.9589 C   0  0  0  0  0  0  0  0  0  0  0  0
    6.5429  -12.1247   25.7612 C   0  0  0  0  0  0  0  0  0  0  0  0
    7.0489  -13.4012   25.6769 C   0  0  0  0  0  0  0  0  0  0  0  0
    7.5297  -14.0308   26.8056 C   0  0  0  0  0  0  0  0  0  0  0  0
    7.2574  -16.8407   23.9509 C   0  0  0  0  0  0  0  0  0  0  0  0
    7.5269  -17.9352   23.3921 O   0  0  0  0  0  0  0  0  0  0  0  0
    8.5234  -13.7323   15.8416 O   0  0  0  0  0  0  0  0  0  0  0  0
    8.1468  -13.8589   17.1760 C   0  0  0  0  0  0  0  0  0  0  0  0
    8.6211  -12.9976   18.1431 C   0  0  0  0  0  0  0  0  0  0  0  0
    8.2392  -13.1361   19.4593 C   0  0  0  0  0  0  0  0  0  0  0  0
    7.3651  -14.1366   19.8911 C   0  0  0  0  0  0  0  0  0  0  0  0
    6.9850  -14.2318   21.3249 C   0  0  0  0  0  0  0  0  0  0  0  0
    7.5322  -15.5007   21.9078 C   0  0  2  0  0  0  0  0  0  0  0  0
    7.0916  -15.6054   23.2782 N   0  0  0  0  0  0  0  0  0  0  0  0
    9.0041  -15.5931   21.8720 C   0  0  0  0  0  0  0  0  0  0  0  0
    9.6771  -15.0918   22.8024 O   0  0  0  0  0  0  0  0  0  0  0  0
    6.8996  -14.9887   18.9151 C   0  0  0  0  0  0  0  0  0  0  0  0
    7.2833  -14.8504   17.5904 C   0  0  0  0  0  0  0  0  0  0  0  0
    9.7131  -16.2349   20.8142 N   0  0  0  0  0  0  0  0  0  0  0  0
   11.1487  -16.3015   20.8684 C   0  0  1  0  0  0  0  0  0  0  0  0
   11.5871  -17.4475   21.7618 C   0  0  0  0  0  0  0  0  0  0  0  0
   11.5843  -16.8030   23.4718 S   0  0  0  0  0  0  0  0  0  0  0  0
   11.7403  -16.5508   19.5205 C   0  0  0  0  0  0  0  0  0  0  0  0
   13.1154  -16.5934   19.3628 O   0  0  0  0  0  0  0  0  0  0  0  0
   11.0251  -16.7263   18.5078 O   0  0  0  0  0  0  0  0  0  0  0  0
  2 13  1  0
  2  1  1  1
  3  2  1  0
  4  3  1  0
  5  4  2  0
  6  5  1  0
  7  6  1  0
  7 12  2  0
  8  7  1  0
  9  8  2  0
  9 10  1  0
 10 11  2  0
 11 12  1  0
 12  4  1  0
 13 14  2  0
 15 16  1  0
 16 17  2  0
 17 18  1  0
 19 18  2  0
 19 20  1  0
 21 20  1  1
 22 21  1  0
 22 13  1  0
 23 21  1  0
 24 23  2  0
 25 19  1  0
 26 16  1  0
 26 25  2  0
 27 23  1  0
 28 27  1  0
 29 30  1  0
 28 29  1  1
 31 28  1  0
 31 32  1  0
 33 31  2  0
M  END
$$$$
