WYC.pdb
     RDKit          3D

 33 35  0  0  1  0  0  0  0  0999 V2000
    6.6245  -17.8925   25.8948 N   0  0  0  0  0  0  0  0  0  0  0  0
    7.1840  -16.6875   25.3907 C   0  0  1  0  0  0  0  0  0  0  0  0
    8.4731  -16.3357   26.0946 C   0  0  0  0  0  0  0  0  0  0  0  0
    8.3397  -15.1635   26.9722 C   0  0  0  0  0  0  0  0  0  0  0  0
    8.8975  -15.0050   28.2203 C   0  0  0  0  0  0  0  0  0  0  0  0
    8.5886  -13.7946   28.7181 N   0  0  0  0  0  0  0  0  0  0  0  0
    7.8325  -13.1691   27.7973 C   0  0  0  0  0  0  0  0  0  0  0  0
    7.2739  -11.9191   27.8528 C   0  0  0  0  0  0  0  0  0  0  0  0
    6.5110  -11.4711   26.7738 C   0  0  0  0  0  0  0  0  0  0  0  0
    6.3398  -12.2958   25.6840 C   0  0  0  0  0  0  0  0  0  0  0  0
    6.9045  -13.5494   25.6369 C   0  0  0  0  0  0  0  0  0  0  0  0
    7.6622  -14.0072   26.6942 C   0  0  0  0  0  0  0  0  0  0  0  0
    7.3777  -16.6809   23.9100 C   0  0  0  0  0  0  0  0  0  0  0  0
    7.2869  -17.7822   23.3086 O   0  0  0  0  0  0  0  0  0  0  0  0
    7.6822  -13.7624   15.6618 O   0  0  0  0  0  0  0  0  0  0  0  0
    7.5780  -13.8478   17.0476 C   0  0  0  0  0  0  0  0  0  0  0  0
    7.9660  -12.8066   17.8645 C   0  0  0  0  0  0  0  0  0  0  0  0
    7.8569  -12.9065   19.2340 C   0  0  0  0  0  0  0  0  0  0  0  0
    7.3565  -14.0446   19.8711 C   0  0  0  0  0  0  0  0  0  0  0  0
    7.2574  -14.0909   21.3535 C   0  0  0  0  0  0  0  0  0  0  0  0
    7.7939  -15.3991   21.8535 C   0  0  2  0  0  0  0  0  0  0  0  0
    7.6498  -15.4374   23.2890 N   0  0  0  0  0  0  0  0  0  0  0  0
    9.2082  -15.6398   21.5099 C   0  0  0  0  0  0  0  0  0  0  0  0
    9.4913  -16.4129   20.5653 O   0  0  0  0  0  0  0  0  0  0  0  0
    6.9730  -15.0756   19.0432 C   0  0  0  0  0  0  0  0  0  0  0  0
    7.0826  -14.9763   17.6651 C   0  0  0  0  0  0  0  0  0  0  0  0
   10.2891  -15.0272   22.2097 N   0  0  0  0  0  0  0  0  0  0  0  0
   11.5036  -15.7691   22.4169 C   0  0  1  0  0  0  0  0  0  0  0  0
   11.1977  -17.1040   23.0710 C   0  0  0  0  0  0  0  0  0  0  0  0
   12.8083  -17.9048   23.3943 S   0  0  0  0  0  0  0  0  0  0  0  0
   12.1952  -16.0657   21.1274 C   0  0  0  0  0  0  0  0  0  0  0  0
   13.4984  -15.6431   20.9251 O   0  0  0  0  0  0  0  0  0  0  0  0
   11.6294  -16.6947   20.2043 O   0  0  0  0  0  0  0  0  0  0  0  0
  2 13  1  0
  2  1  1  1
  3  2  1  0
  4  3  1  0
  5  4  2  0
  6  5  1  0
  7  6  1  0
  7 12  2  0
  8  7  1  0
  9  8  2  0
  9 10  1  0
 10 11  2  0
 11 12  1  0
 12  4  1  0
 13 14  2  0
 15 16  1  0
 16 17  2  0
 17 18  1  0
 19 18  2  0
 19 20  1  0
 21 20  1  1
 22 21  1  0
 22 13  1  0
 23 21  1  0
 24 23  2  0
 25 19  1  0
 26 16  1  0
 26 25  2  0
 27 23  1  0
 28 27  1  0
 29 30  1  0
 28 29  1  6
 31 28  1  0
 31 32  1  0
 33 31  2  0
M  END
$$$$
