WYC.pdb
     RDKit          3D

 33 35  0  0  1  0  0  0  0  0999 V2000
    6.6906  -18.2893   25.7320 N   0  0  0  0  0  0  0  0  0  0  0  0
    7.0694  -16.9801   25.3298 C   0  0  1  0  0  0  0  0  0  0  0  0
    8.2371  -16.4660   26.1380 C   0  0  0  0  0  0  0  0  0  0  0  0
    7.8592  -15.3814   27.0560 C   0  0  0  0  0  0  0  0  0  0  0  0
    7.5939  -15.5000   28.4012 C   0  0  0  0  0  0  0  0  0  0  0  0
    7.3100  -14.2956   28.9278 N   0  0  0  0  0  0  0  0  0  0  0  0
    7.3900  -13.3980   27.9285 C   0  0  0  0  0  0  0  0  0  0  0  0
    7.1792  -12.0447   27.9734 C   0  0  0  0  0  0  0  0  0  0  0  0
    7.3101  -11.3009   26.8000 C   0  0  0  0  0  0  0  0  0  0  0  0
    7.6467  -11.9456   25.6303 C   0  0  0  0  0  0  0  0  0  0  0  0
    7.8565  -13.3047   25.5946 C   0  0  0  0  0  0  0  0  0  0  0  0
    7.7322  -14.0545   26.7453 C   0  0  0  0  0  0  0  0  0  0  0  0
    7.3469  -16.8503   23.8683 C   0  0  0  0  0  0  0  0  0  0  0  0
    7.6201  -17.9021   23.2345 O   0  0  0  0  0  0  0  0  0  0  0  0
    8.2005  -13.4451   15.8456 O   0  0  0  0  0  0  0  0  0  0  0  0
    7.9188  -13.6137   17.1987 C   0  0  0  0  0  0  0  0  0  0  0  0
    8.3819  -12.7259   18.1469 C   0  0  0  0  0  0  0  0  0  0  0  0
    8.0947  -12.9065   19.4819 C   0  0  0  0  0  0  0  0  0  0  0  0
    7.3318  -13.9780   19.9523 C   0  0  0  0  0  0  0  0  0  0  0  0
    7.0503  -14.1165   21.4053 C   0  0  0  0  0  0  0  0  0  0  0  0
    7.6614  -15.3866   21.9178 C   0  0  2  0  0  0  0  0  0  0  0  0
    7.2833  -15.5543   23.3005 N   0  0  0  0  0  0  0  0  0  0  0  0
    9.1326  -15.4293   21.8175 C   0  0  0  0  0  0  0  0  0  0  0  0
    9.8235  -14.6845   22.5510 O   0  0  0  0  0  0  0  0  0  0  0  0
    6.8761  -14.8560   18.9948 C   0  0  0  0  0  0  0  0  0  0  0  0
    7.1646  -14.6753   17.6511 C   0  0  0  0  0  0  0  0  0  0  0  0
    9.8214  -16.2895   20.9125 N   0  0  0  0  0  0  0  0  0  0  0  0
   11.2575  -16.2426   20.8523 C   0  0  1  0  0  0  0  0  0  0  0  0
   11.8369  -17.6292   21.0648 C   0  0  0  0  0  0  0  0  0  0  0  0
   11.5603  -18.0436   22.8230 S   0  0  0  0  0  0  0  0  0  0  0  0
   11.7383  -15.7705   19.5200 C   0  0  0  0  0  0  0  0  0  0  0  0
   13.0957  -15.6456   19.2760 O   0  0  0  0  0  0  0  0  0  0  0  0
   10.9441  -15.4777   18.5973 O   0  0  0  0  0  0  0  0  0  0  0  0
  2 13  1  0
  2  1  1  6
  3  2  1  0
  4  3  1  0
  5  4  2  0
  6  5  1  0
  7  6  1  0
  7 12  2  0
  8  7  1  0
  9  8  2  0
  9 10  1  0
 10 11  2  0
 11 12  1  0
 12  4  1  0
 13 14  2  0
 15 16  1  0
 16 17  2  0
 17 18  1  0
 19 18  2  0
 19 20  1  0
 21 20  1  1
 22 21  1  0
 22 13  1  0
 23 21  1  0
 24 23  2  0
 25 19  1  0
 26 16  1  0
 26 25  2  0
 27 23  1  0
 28 27  1  0
 29 30  1  0
 28 29  1  6
 31 28  1  0
 31 32  1  0
 33 31  2  0
M  END
$$$$
