WYC.pdb
     RDKit          3D

 33 35  0  0  1  0  0  0  0  0999 V2000
    5.9010  -18.2412   23.3872 N   0  0  0  0  0  0  0  0  0  0  0  0
    6.6435  -17.0688   23.6931 C   0  0  1  0  0  0  0  0  0  0  0  0
    6.9703  -16.9857   25.1652 C   0  0  0  0  0  0  0  0  0  0  0  0
    6.5923  -15.6948   25.7591 C   0  0  0  0  0  0  0  0  0  0  0  0
    5.3242  -15.2947   26.1140 C   0  0  0  0  0  0  0  0  0  0  0  0
    5.3585  -14.0639   26.6548 N   0  0  0  0  0  0  0  0  0  0  0  0
    6.6438  -13.6656   26.6507 C   0  0  0  0  0  0  0  0  0  0  0  0
    7.1758  -12.4829   27.0935 C   0  0  0  0  0  0  0  0  0  0  0  0
    8.5515  -12.2772   26.9831 C   0  0  0  0  0  0  0  0  0  0  0  0
    9.3364  -13.2662   26.4329 C   0  0  0  0  0  0  0  0  0  0  0  0
    8.7937  -14.4506   25.9911 C   0  0  0  0  0  0  0  0  0  0  0  0
    7.4362  -14.6706   26.0937 C   0  0  0  0  0  0  0  0  0  0  0  0
    7.8799  -16.9019   22.8724 C   0  0  0  0  0  0  0  0  0  0  0  0
    8.2237  -17.8649   22.1396 O   0  0  0  0  0  0  0  0  0  0  0  0
    7.1721  -13.8943   16.7625 O   0  0  0  0  0  0  0  0  0  0  0  0
    7.8439  -13.9509   17.9807 C   0  0  0  0  0  0  0  0  0  0  0  0
    8.7704  -14.9371   18.2471 C   0  0  0  0  0  0  0  0  0  0  0  0
    9.4267  -14.9796   19.4574 C   0  0  0  0  0  0  0  0  0  0  0  0
    9.2014  -14.0463   20.4722 C   0  0  0  0  0  0  0  0  0  0  0  0
    9.9452  -14.1409   21.7557 C   0  0  0  0  0  0  0  0  0  0  0  0
    9.8416  -15.5361   22.2962 C   0  0  2  0  0  0  0  0  0  0  0  0
    8.5766  -15.6732   22.9774 N   0  0  0  0  0  0  0  0  0  0  0  0
   10.9261  -15.9025   23.2266 C   0  0  0  0  0  0  0  0  0  0  0  0
   12.1184  -15.8084   22.8530 O   0  0  0  0  0  0  0  0  0  0  0  0
    8.2743  -13.0678   20.1923 C   0  0  0  0  0  0  0  0  0  0  0  0
    7.6132  -13.0242   18.9748 C   0  0  0  0  0  0  0  0  0  0  0  0
   10.6834  -16.3669   24.5528 N   0  0  0  0  0  0  0  0  0  0  0  0
   11.7973  -16.7384   25.3831 C   0  0  1  0  0  0  0  0  0  0  0  0
   11.5478  -16.3104   26.8178 C   0  0  0  0  0  0  0  0  0  0  0  0
    9.8500  -16.8454   27.2313 S   0  0  0  0  0  0  0  0  0  0  0  0
   12.0030  -18.2171   25.4006 C   0  0  0  0  0  0  0  0  0  0  0  0
   13.0973  -18.7583   26.0543 O   0  0  0  0  0  0  0  0  0  0  0  0
   11.2071  -19.0010   24.8351 O   0  0  0  0  0  0  0  0  0  0  0  0
  2 13  1  0
  2  1  1  1
  3  2  1  0
  4  3  1  0
  5  4  2  0
  6  5  1  0
  7  6  1  0
  7 12  2  0
  8  7  1  0
  9  8  2  0
  9 10  1  0
 10 11  2  0
 11 12  1  0
 12  4  1  0
 13 14  2  0
 15 16  1  0
 16 17  2  0
 17 18  1  0
 19 18  2  0
 19 20  1  0
 21 20  1  1
 22 21  1  0
 22 13  1  0
 23 21  1  0
 24 23  2  0
 25 19  1  0
 26 16  1  0
 26 25  2  0
 27 23  1  0
 28 27  1  0
 29 30  1  0
 28 29  1  1
 31 28  1  0
 31 32  1  0
 33 31  2  0
M  END
$$$$
