WYC.pdb
     RDKit          3D

 33 35  0  0  1  0  0  0  0  0999 V2000
    6.1936  -17.3283   23.7401 N   0  0  0  0  0  0  0  0  0  0  0  0
    7.2751  -16.4068   23.7568 C   0  0  1  0  0  0  0  0  0  0  0  0
    7.7208  -16.0977   25.1663 C   0  0  0  0  0  0  0  0  0  0  0  0
    6.9316  -15.0248   25.7894 C   0  0  0  0  0  0  0  0  0  0  0  0
    5.6382  -15.1190   26.2500 C   0  0  0  0  0  0  0  0  0  0  0  0
    5.2481  -13.9486   26.7852 N   0  0  0  0  0  0  0  0  0  0  0  0
    6.2838  -13.0970   26.6723 C   0  0  0  0  0  0  0  0  0  0  0  0
    6.3635  -11.7875   27.0679 C   0  0  0  0  0  0  0  0  0  0  0  0
    7.5470  -11.0838   26.8415 C   0  0  0  0  0  0  0  0  0  0  0  0
    8.6013  -11.7229   26.2275 C   0  0  0  0  0  0  0  0  0  0  0  0
    8.5125  -13.0381   25.8338 C   0  0  0  0  0  0  0  0  0  0  0  0
    7.3505  -13.7483   26.0509 C   0  0  0  0  0  0  0  0  0  0  0  0
    8.4394  -16.8219   22.9189 C   0  0  0  0  0  0  0  0  0  0  0  0
    8.5373  -18.0414   22.6259 O   0  0  0  0  0  0  0  0  0  0  0  0
    6.2600  -13.5110   18.0519 O   0  0  0  0  0  0  0  0  0  0  0  0
    7.4019  -13.9131   18.7396 C   0  0  0  0  0  0  0  0  0  0  0  0
    8.0305  -15.1073   18.4558 C   0  0  0  0  0  0  0  0  0  0  0  0
    9.1596  -15.4911   19.1452 C   0  0  0  0  0  0  0  0  0  0  0  0
    9.7293  -14.7122   20.1553 C   0  0  0  0  0  0  0  0  0  0  0  0
   10.9525  -15.1773   20.8602 C   0  0  0  0  0  0  0  0  0  0  0  0
   10.5831  -16.2129   21.8802 C   0  0  2  0  0  0  0  0  0  0  0  0
    9.3495  -15.8147   22.5147 N   0  0  0  0  0  0  0  0  0  0  0  0
   11.6075  -16.4245   22.9204 C   0  0  0  0  0  0  0  0  0  0  0  0
   12.4415  -15.5203   23.1588 O   0  0  0  0  0  0  0  0  0  0  0  0
    9.0913  -13.5230   20.4278 C   0  0  0  0  0  0  0  0  0  0  0  0
    7.9551  -13.1359   19.7348 C   0  0  0  0  0  0  0  0  0  0  0  0
   11.6993  -17.6265   23.6821 N   0  0  0  0  0  0  0  0  0  0  0  0
   12.8198  -17.8172   24.5632 C   0  0  1  0  0  0  0  0  0  0  0  0
   12.4053  -18.6420   25.7680 C   0  0  0  0  0  0  0  0  0  0  0  0
   10.9703  -17.7892   26.5120 S   0  0  0  0  0  0  0  0  0  0  0  0
   13.9296  -18.5566   23.8918 C   0  0  0  0  0  0  0  0  0  0  0  0
   15.1470  -18.7135   24.5328 O   0  0  0  0  0  0  0  0  0  0  0  0
   13.7975  -19.0496   22.7484 O   0  0  0  0  0  0  0  0  0  0  0  0
  2 13  1  0
  2  1  1  1
  3  2  1  0
  4  3  1  0
  5  4  2  0
  6  5  1  0
  7  6  1  0
  7 12  2  0
  8  7  1  0
  9  8  2  0
  9 10  1  0
 10 11  2  0
 11 12  1  0
 12  4  1  0
 13 14  2  0
 15 16  1  0
 16 17  2  0
 17 18  1  0
 19 18  2  0
 19 20  1  0
 21 20  1  6
 22 21  1  0
 22 13  1  0
 23 21  1  0
 24 23  2  0
 25 19  1  0
 26 16  1  0
 26 25  2  0
 27 23  1  0
 28 27  1  0
 29 30  1  0
 28 29  1  1
 31 28  1  0
 31 32  1  0
 33 31  2  0
M  END
$$$$
