WYC.pdb
     RDKit          3D

 33 35  0  0  1  0  0  0  0  0999 V2000
    5.8883  -17.5959   21.4022 N   0  0  0  0  0  0  0  0  0  0  0  0
    6.7548  -16.7403   22.1345 C   0  0  1  0  0  0  0  0  0  0  0  0
    6.1567  -15.3652   22.3147 C   0  0  0  0  0  0  0  0  0  0  0  0
    7.0762  -14.4280   22.9767 C   0  0  0  0  0  0  0  0  0  0  0  0
    8.2295  -13.8970   22.4457 C   0  0  0  0  0  0  0  0  0  0  0  0
    8.8014  -13.0541   23.3238 N   0  0  0  0  0  0  0  0  0  0  0  0
    8.0229  -13.0378   24.4212 C   0  0  0  0  0  0  0  0  0  0  0  0
    8.1965  -12.3348   25.5846 C   0  0  0  0  0  0  0  0  0  0  0  0
    7.2578  -12.4776   26.6071 C   0  0  0  0  0  0  0  0  0  0  0  0
    6.1842  -13.3200   26.4204 C   0  0  0  0  0  0  0  0  0  0  0  0
    6.0179  -14.0218   25.2489 C   0  0  0  0  0  0  0  0  0  0  0  0
    6.9357  -13.8914   24.2280 C   0  0  0  0  0  0  0  0  0  0  0  0
    7.1898  -17.2981   23.4497 C   0  0  0  0  0  0  0  0  0  0  0  0
    6.2907  -17.6237   24.2672 O   0  0  0  0  0  0  0  0  0  0  0  0
   11.0446  -21.8261   29.6040 O   0  0  0  0  0  0  0  0  0  0  0  0
   10.6616  -21.2393   28.4008 C   0  0  0  0  0  0  0  0  0  0  0  0
    9.3348  -21.1410   28.0377 C   0  0  0  0  0  0  0  0  0  0  0  0
    8.9719  -20.5577   26.8437 C   0  0  0  0  0  0  0  0  0  0  0  0
    9.9043  -20.0388   25.9422 C   0  0  0  0  0  0  0  0  0  0  0  0
    9.4509  -19.4156   24.6711 C   0  0  0  0  0  0  0  0  0  0  0  0
    9.0247  -18.0008   24.9278 C   0  0  2  0  0  0  0  0  0  0  0  0
    8.5814  -17.4204   23.6829 N   0  0  0  0  0  0  0  0  0  0  0  0
   10.0836  -17.1484   25.5007 C   0  0  0  0  0  0  0  0  0  0  0  0
   11.0225  -16.7549   24.7702 O   0  0  0  0  0  0  0  0  0  0  0  0
   11.2246  -20.1438   26.3178 C   0  0  0  0  0  0  0  0  0  0  0  0
   11.5910  -20.7306   27.5188 C   0  0  0  0  0  0  0  0  0  0  0  0
   10.0942  -16.7420   26.8675 N   0  0  0  0  0  0  0  0  0  0  0  0
   11.2446  -16.0534   27.3879 C   0  0  1  0  0  0  0  0  0  0  0  0
   10.8609  -14.6545   27.8345 C   0  0  0  0  0  0  0  0  0  0  0  0
    9.5078  -14.8495   29.0473 S   0  0  0  0  0  0  0  0  0  0  0  0
   11.8112  -16.7499   28.5808 C   0  0  0  0  0  0  0  0  0  0  0  0
   12.9986  -16.3110   29.1422 O   0  0  0  0  0  0  0  0  0  0  0  0
   11.2412  -17.7353   29.1024 O   0  0  0  0  0  0  0  0  0  0  0  0
  2 13  1  0
  2  1  1  1
  3  2  1  0
  4  3  1  0
  5  4  2  0
  6  5  1  0
  7  6  1  0
  7 12  2  0
  8  7  1  0
  9  8  2  0
  9 10  1  0
 10 11  2  0
 11 12  1  0
 12  4  1  0
 13 14  2  0
 15 16  1  0
 16 17  2  0
 17 18  1  0
 19 18  2  0
 19 20  1  0
 21 20  1  6
 22 21  1  0
 22 13  1  0
 23 21  1  0
 24 23  2  0
 25 19  1  0
 26 16  1  0
 26 25  2  0
 27 23  1  0
 28 27  1  0
 29 30  1  0
 28 29  1  1
 31 28  1  0
 31 32  1  0
 33 31  2  0
M  END
$$$$
