WYC.pdb
     RDKit          3D

 33 35  0  0  1  0  0  0  0  0999 V2000
    6.0118  -18.0932   23.6060 N   0  0  0  0  0  0  0  0  0  0  0  0
    6.7780  -16.9269   23.8743 C   0  0  1  0  0  0  0  0  0  0  0  0
    6.9067  -16.6751   25.3579 C   0  0  0  0  0  0  0  0  0  0  0  0
    6.2861  -15.4092   25.7753 C   0  0  0  0  0  0  0  0  0  0  0  0
    4.9799  -15.2260   26.1682 C   0  0  0  0  0  0  0  0  0  0  0  0
    4.7717  -13.9417   26.5084 N   0  0  0  0  0  0  0  0  0  0  0  0
    5.9380  -13.2928   26.3367 C   0  0  0  0  0  0  0  0  0  0  0  0
    6.2207  -11.9685   26.5466 C   0  0  0  0  0  0  0  0  0  0  0  0
    7.5119  -11.5044   26.2923 C   0  0  0  0  0  0  0  0  0  0  0  0
    8.4657  -12.3879   25.8379 C   0  0  0  0  0  0  0  0  0  0  0  0
    8.1729  -13.7160   25.6300 C   0  0  0  0  0  0  0  0  0  0  0  0
    6.9022  -14.1913   25.8773 C   0  0  0  0  0  0  0  0  0  0  0  0
    8.1222  -16.9205   23.2239 C   0  0  0  0  0  0  0  0  0  0  0  0
    8.5935  -18.0274   22.8562 O   0  0  0  0  0  0  0  0  0  0  0  0
    7.0288  -14.3391   17.1964 O   0  0  0  0  0  0  0  0  0  0  0  0
    7.8469  -14.3572   18.3228 C   0  0  0  0  0  0  0  0  0  0  0  0
    7.6856  -13.4451   19.3447 C   0  0  0  0  0  0  0  0  0  0  0  0
    8.5033  -13.4759   20.4528 C   0  0  0  0  0  0  0  0  0  0  0  0
    9.5272  -14.4130   20.6104 C   0  0  0  0  0  0  0  0  0  0  0  0
   10.3736  -14.3996   21.8323 C   0  0  0  0  0  0  0  0  0  0  0  0
   10.1418  -15.6550   22.6194 C   0  0  2  0  0  0  0  0  0  0  0  0
    8.7700  -15.6707   23.0677 N   0  0  0  0  0  0  0  0  0  0  0  0
   11.0275  -15.8032   23.7897 C   0  0  0  0  0  0  0  0  0  0  0  0
   12.2682  -15.8557   23.6225 O   0  0  0  0  0  0  0  0  0  0  0  0
    9.6764  -15.3170   19.5829 C   0  0  0  0  0  0  0  0  0  0  0  0
    8.8543  -15.2869   18.4673 C   0  0  0  0  0  0  0  0  0  0  0  0
   10.5359  -15.8915   25.1253 N   0  0  0  0  0  0  0  0  0  0  0  0
   11.4653  -16.0830   26.2060 C   0  0  1  0  0  0  0  0  0  0  0  0
   10.8144  -15.7199   27.5281 C   0  0  0  0  0  0  0  0  0  0  0  0
   12.0921  -15.9458   28.8151 S   0  0  0  0  0  0  0  0  0  0  0  0
   11.9006  -17.5071   26.3130 C   0  0  0  0  0  0  0  0  0  0  0  0
   13.1477  -17.8150   26.8303 O   0  0  0  0  0  0  0  0  0  0  0  0
   11.1655  -18.4516   25.9450 O   0  0  0  0  0  0  0  0  0  0  0  0
  2 13  1  0
  2  1  1  1
  3  2  1  0
  4  3  1  0
  5  4  2  0
  6  5  1  0
  7  6  1  0
  7 12  2  0
  8  7  1  0
  9  8  2  0
  9 10  1  0
 10 11  2  0
 11 12  1  0
 12  4  1  0
 13 14  2  0
 15 16  1  0
 16 17  2  0
 17 18  1  0
 19 18  2  0
 19 20  1  0
 21 20  1  1
 22 21  1  0
 22 13  1  0
 23 21  1  0
 24 23  2  0
 25 19  1  0
 26 16  1  0
 26 25  2  0
 27 23  1  0
 28 27  1  0
 29 30  1  0
 28 29  1  1
 31 28  1  0
 31 32  1  0
 33 31  2  0
M  END
$$$$
