WYC.pdb
     RDKit          3D

 33 35  0  0  1  0  0  0  0  0999 V2000
    7.1517  -17.9505   25.8256 N   0  0  0  0  0  0  0  0  0  0  0  0
    7.3565  -16.6679   25.2491 C   0  0  1  0  0  0  0  0  0  0  0  0
    8.5241  -15.9521   25.8857 C   0  0  0  0  0  0  0  0  0  0  0  0
    8.1081  -15.0012   26.9273 C   0  0  0  0  0  0  0  0  0  0  0  0
    8.3692  -15.0946   28.2753 C   0  0  0  0  0  0  0  0  0  0  0  0
    7.8610  -14.0312   28.9229 N   0  0  0  0  0  0  0  0  0  0  0  0
    7.2714  -13.2501   27.9993 C   0  0  0  0  0  0  0  0  0  0  0  0
    6.6121  -12.0620   28.1766 C   0  0  0  0  0  0  0  0  0  0  0  0
    6.0646  -11.4204   27.0649 C   0  0  0  0  0  0  0  0  0  0  0  0
    6.2010  -11.9974   25.8218 C   0  0  0  0  0  0  0  0  0  0  0  0
    6.8647  -13.1905   25.6532 C   0  0  0  0  0  0  0  0  0  0  0  0
    7.4126  -13.8372   26.7409 C   0  0  0  0  0  0  0  0  0  0  0  0
    7.5013  -16.6864   23.7629 C   0  0  0  0  0  0  0  0  0  0  0  0
    7.7962  -17.7836   23.2228 O   0  0  0  0  0  0  0  0  0  0  0  0
    8.5750  -13.6005   15.6038 O   0  0  0  0  0  0  0  0  0  0  0  0
    8.2238  -13.7267   16.9452 C   0  0  0  0  0  0  0  0  0  0  0  0
    8.7816  -12.9200   17.9147 C   0  0  0  0  0  0  0  0  0  0  0  0
    8.4238  -13.0572   19.2378 C   0  0  0  0  0  0  0  0  0  0  0  0
    7.4924  -14.0023   19.6744 C   0  0  0  0  0  0  0  0  0  0  0  0
    7.1424  -14.0989   21.1158 C   0  0  0  0  0  0  0  0  0  0  0  0
    7.6058  -15.4176   21.6594 C   0  0  2  0  0  0  0  0  0  0  0  0
    7.2970  -15.4691   23.0683 N   0  0  0  0  0  0  0  0  0  0  0  0
    9.0479  -15.6695   21.4780 C   0  0  0  0  0  0  0  0  0  0  0  0
    9.8731  -15.1065   22.2343 O   0  0  0  0  0  0  0  0  0  0  0  0
    6.9438  -14.8004   18.6959 C   0  0  0  0  0  0  0  0  0  0  0  0
    7.3032  -14.6633   17.3643 C   0  0  0  0  0  0  0  0  0  0  0  0
    9.5606  -16.5360   20.4682 N   0  0  0  0  0  0  0  0  0  0  0  0
   10.9831  -16.7060   20.3426 C   0  0  1  0  0  0  0  0  0  0  0  0
   11.3958  -18.0718   20.8601 C   0  0  0  0  0  0  0  0  0  0  0  0
   13.2095  -18.1759   20.6616 S   0  0  0  0  0  0  0  0  0  0  0  0
   11.4239  -16.6300   18.9182 C   0  0  0  0  0  0  0  0  0  0  0  0
   12.7590  -16.4227   18.6146 O   0  0  0  0  0  0  0  0  0  0  0  0
   10.6152  -16.7490   17.9697 O   0  0  0  0  0  0  0  0  0  0  0  0
  2 13  1  0
  2  1  1  1
  3  2  1  0
  4  3  1  0
  5  4  2  0
  6  5  1  0
  7  6  1  0
  7 12  2  0
  8  7  1  0
  9  8  2  0
  9 10  1  0
 10 11  2  0
 11 12  1  0
 12  4  1  0
 13 14  2  0
 15 16  1  0
 16 17  2  0
 17 18  1  0
 19 18  2  0
 19 20  1  0
 21 20  1  1
 22 21  1  0
 22 13  1  0
 23 21  1  0
 24 23  2  0
 25 19  1  0
 26 16  1  0
 26 25  2  0
 27 23  1  0
 28 27  1  0
 29 30  1  0
 28 29  1  6
 31 28  1  0
 31 32  1  0
 33 31  2  0
M  END
$$$$
