VET.pdb
     RDKit          3D

 24 23  0  0  1  0  0  0  0  0999 V2000
    7.0507  -13.5329   21.0680 C   0  0  0  0  0  0  0  0  0  0  0  0
    8.2725  -13.2886   20.1640 C   0  0  2  0  0  0  0  0  0  0  0  0
    7.9582  -12.2799   19.1089 C   0  0  0  0  0  0  0  0  0  0  0  0
    8.5212  -14.6364   19.4930 C   0  0  2  0  0  0  0  0  0  0  0  0
    7.3091  -14.9799   18.7029 N   0  0  0  0  0  0  0  0  0  0  0  0
    8.6411  -15.7232   20.4963 C   0  0  0  0  0  0  0  0  0  0  0  0
    7.6045  -16.4125   20.8158 O   0  0  0  0  0  0  0  0  0  0  0  0
    9.8314  -16.0933   21.1623 N   0  0  0  0  0  0  0  0  0  0  0  0
    9.8381  -17.2085   22.1497 C   0  0  1  0  0  0  0  0  0  0  0  0
   11.0085  -18.0843   21.7670 C   0  0  0  0  0  0  0  0  0  0  0  0
   12.2907  -17.3519   21.6571 C   0  0  0  0  0  0  0  0  0  0  0  0
   13.4203  -18.2306   21.2312 C   0  0  0  0  0  0  0  0  0  0  0  0
   13.2420  -19.4489   21.1135 O   0  0  0  0  0  0  0  0  0  0  0  0
    9.9001  -16.6685   23.5123 C   0  0  0  0  0  0  0  0  0  0  0  0
   10.0642  -15.4113   23.6455 O   0  0  0  0  0  0  0  0  0  0  0  0
   14.6317  -17.6428   20.9830 O   0  0  0  0  0  0  0  0  0  0  0  0
    8.2446  -15.0097   24.7808 C   0  0  0  0  0  0  0  0  0  0  0  0
    8.0813  -16.1240   25.7844 C   0  0  1  0  0  0  0  0  0  0  0  0
    7.1375  -17.0470   25.3857 O   0  0  0  0  0  0  0  0  0  0  0  0
    9.4480  -16.7611   25.9855 C   0  0  2  0  0  0  0  0  0  0  0  0
    9.7900  -17.4074   24.7136 N   0  0  0  0  0  0  0  0  0  0  0  0
    9.3976  -17.8162   27.0199 C   0  0  0  0  0  0  0  0  0  0  0  0
    9.4183  -19.0264   26.7412 O   0  0  0  0  0  0  0  0  0  0  0  0
    9.3243  -17.4105   28.3482 O   0  0  0  0  0  0  0  0  0  0  0  0
  2  1  1  1
  2  3  1  0
  4  2  1  0
  4  5  1  6
  6  4  1  0
  7  6  2  0
  8  6  1  0
  9  8  1  0
 10 11  1  0
  9 10  1  6
 12 16  1  0
 12 11  1  0
 13 12  2  0
 14 15  2  0
 14  9  1  0
 18 20  1  0
 18 17  1  6
 19 18  1  0
 20 21  1  6
 21 14  1  0
 22 20  1  0
 23 22  2  0
 24 22  1  0
M  END
$$$$
