VET.pdb
     RDKit          3D

 24 23  0  0  1  0  0  0  0  0999 V2000
    7.5000  -12.9719   18.6004 C   0  0  0  0  0  0  0  0  0  0  0  0
    7.8471  -13.7852   19.8605 C   0  0  2  0  0  0  0  0  0  0  0  0
    8.6812  -12.9778   20.7995 C   0  0  0  0  0  0  0  0  0  0  0  0
    8.6855  -14.9490   19.3394 C   0  0  2  0  0  0  0  0  0  0  0  0
    7.8045  -15.8010   18.4972 N   0  0  0  0  0  0  0  0  0  0  0  0
    9.1244  -15.8343   20.4465 C   0  0  0  0  0  0  0  0  0  0  0  0
    8.3002  -16.6833   20.9483 O   0  0  0  0  0  0  0  0  0  0  0  0
   10.4126  -15.8392   21.0277 N   0  0  0  0  0  0  0  0  0  0  0  0
   10.7785  -16.8451   22.0637 C   0  0  1  0  0  0  0  0  0  0  0  0
   12.2822  -16.9751   21.9919 C   0  0  0  0  0  0  0  0  0  0  0  0
   12.7580  -17.7655   20.8337 C   0  0  0  0  0  0  0  0  0  0  0  0
   14.2471  -17.8543   20.7707 C   0  0  0  0  0  0  0  0  0  0  0  0
   14.8695  -17.1815   19.9400 O   0  0  0  0  0  0  0  0  0  0  0  0
   10.2642  -16.4244   23.3716 C   0  0  0  0  0  0  0  0  0  0  0  0
   10.5818  -15.2623   23.7883 O   0  0  0  0  0  0  0  0  0  0  0  0
   14.8775  -18.6922   21.6512 O   0  0  0  0  0  0  0  0  0  0  0  0
    6.8418  -16.0789   26.6472 C   0  0  0  0  0  0  0  0  0  0  0  0
    7.4039  -16.7180   25.4018 C   0  0  1  0  0  0  0  0  0  0  0  0
    6.9197  -16.1293   24.2527 O   0  0  0  0  0  0  0  0  0  0  0  0
    8.9202  -16.6303   25.4884 C   0  0  2  0  0  0  0  0  0  0  0  0
    9.4351  -17.1831   24.2307 N   0  0  0  0  0  0  0  0  0  0  0  0
    9.4410  -17.4700   26.5882 C   0  0  0  0  0  0  0  0  0  0  0  0
   10.0633  -18.5256   26.3855 O   0  0  0  0  0  0  0  0  0  0  0  0
    9.2113  -17.0381   27.8902 O   0  0  0  0  0  0  0  0  0  0  0  0
  2  1  1  6
  2  3  1  0
  4  2  1  0
  4  5  1  6
  6  4  1  0
  7  6  2  0
  8  6  1  0
  9  8  1  0
 10 11  1  0
  9 10  1  1
 12 16  1  0
 12 11  1  0
 13 12  2  0
 14 15  2  0
 14  9  1  0
 18 20  1  0
 18 17  1  1
 19 18  1  0
 20 21  1  6
 21 14  1  0
 22 20  1  0
 23 22  2  0
 24 22  1  0
M  END
$$$$
