VET.pdb
     RDKit          3D

 24 23  0  0  1  0  0  0  0  0999 V2000
    7.0738  -13.9180   21.0923 C   0  0  0  0  0  0  0  0  0  0  0  0
    8.1051  -13.5838   19.9995 C   0  0  2  0  0  0  0  0  0  0  0  0
    7.5172  -12.6670   18.9782 C   0  0  0  0  0  0  0  0  0  0  0  0
    8.4023  -14.9264   19.3377 C   0  0  2  0  0  0  0  0  0  0  0  0
    7.1168  -15.4764   18.8312 N   0  0  0  0  0  0  0  0  0  0  0  0
    8.8768  -15.9224   20.3301 C   0  0  0  0  0  0  0  0  0  0  0  0
    8.0265  -16.6669   20.9421 O   0  0  0  0  0  0  0  0  0  0  0  0
   10.2269  -16.1452   20.6833 N   0  0  0  0  0  0  0  0  0  0  0  0
   10.5803  -17.0365   21.8233 C   0  0  1  0  0  0  0  0  0  0  0  0
   12.0018  -17.4806   21.5677 C   0  0  0  0  0  0  0  0  0  0  0  0
   12.1275  -18.4852   20.4871 C   0  0  0  0  0  0  0  0  0  0  0  0
   13.5392  -18.6744   20.0392 C   0  0  0  0  0  0  0  0  0  0  0  0
   14.2737  -19.4697   20.6375 O   0  0  0  0  0  0  0  0  0  0  0  0
   10.3816  -16.3270   23.0919 C   0  0  0  0  0  0  0  0  0  0  0  0
   10.5319  -15.0611   23.0937 O   0  0  0  0  0  0  0  0  0  0  0  0
   13.9739  -17.9467   18.9639 O   0  0  0  0  0  0  0  0  0  0  0  0
    7.9495  -14.6088   26.3738 C   0  0  0  0  0  0  0  0  0  0  0  0
    8.3707  -15.4007   25.1610 C   0  0  1  0  0  0  0  0  0  0  0  0
    8.4762  -14.6100   24.0362 O   0  0  0  0  0  0  0  0  0  0  0  0
    9.6864  -16.0862   25.4978 C   0  0  2  0  0  0  0  0  0  0  0  0
   10.0299  -16.9087   24.3325 N   0  0  0  0  0  0  0  0  0  0  0  0
    9.5333  -16.9958   26.6532 C   0  0  0  0  0  0  0  0  0  0  0  0
    9.4196  -18.2259   26.5246 O   0  0  0  0  0  0  0  0  0  0  0  0
    9.5194  -16.4258   27.9219 O   0  0  0  0  0  0  0  0  0  0  0  0
  2  1  1  1
  2  3  1  0
  4  2  1  0
  4  5  1  1
  6  4  1  0
  7  6  2  0
  8  6  1  0
  9  8  1  0
 10 11  1  0
  9 10  1  6
 12 16  1  0
 12 11  1  0
 13 12  2  0
 14 15  2  0
 14  9  1  0
 18 20  1  0
 18 17  1  1
 19 18  1  0
 20 21  1  6
 21 14  1  0
 22 20  1  0
 23 22  2  0
 24 22  1  0
M  END
$$$$
