VET.pdb
     RDKit          3D

 24 23  0  0  1  0  0  0  0  0999 V2000
    7.6137  -12.7967   18.4377 C   0  0  0  0  0  0  0  0  0  0  0  0
    7.8291  -13.6304   19.7138 C   0  0  2  0  0  0  0  0  0  0  0  0
    8.6562  -12.8793   20.7044 C   0  0  0  0  0  0  0  0  0  0  0  0
    8.6188  -14.8475   19.2407 C   0  0  2  0  0  0  0  0  0  0  0  0
    7.7259  -15.6562   18.3687 N   0  0  0  0  0  0  0  0  0  0  0  0
    8.9563  -15.7440   20.3741 C   0  0  0  0  0  0  0  0  0  0  0  0
    8.0380  -16.4648   20.9116 O   0  0  0  0  0  0  0  0  0  0  0  0
   10.2407  -15.8923   20.9446 N   0  0  0  0  0  0  0  0  0  0  0  0
   10.4818  -16.8770   22.0360 C   0  0  1  0  0  0  0  0  0  0  0  0
   11.9083  -17.3422   21.8571 C   0  0  0  0  0  0  0  0  0  0  0  0
   12.1070  -18.2175   20.6794 C   0  0  0  0  0  0  0  0  0  0  0  0
   13.5281  -18.6445   20.5134 C   0  0  0  0  0  0  0  0  0  0  0  0
   14.0557  -19.3719   21.3634 O   0  0  0  0  0  0  0  0  0  0  0  0
   10.2000  -16.2597   23.3365 C   0  0  0  0  0  0  0  0  0  0  0  0
   10.9436  -15.2933   23.7084 O   0  0  0  0  0  0  0  0  0  0  0  0
   14.2043  -18.2063   19.4065 O   0  0  0  0  0  0  0  0  0  0  0  0
    7.4332  -14.2972   24.6964 C   0  0  0  0  0  0  0  0  0  0  0  0
    7.5628  -15.4995   25.5982 C   0  0  1  0  0  0  0  0  0  0  0  0
    6.6838  -16.5043   25.2527 O   0  0  0  0  0  0  0  0  0  0  0  0
    9.0098  -15.9647   25.5334 C   0  0  2  0  0  0  0  0  0  0  0  0
    9.1696  -16.6265   24.2338 N   0  0  0  0  0  0  0  0  0  0  0  0
    9.2945  -16.9688   26.5806 C   0  0  0  0  0  0  0  0  0  0  0  0
    9.4382  -18.1761   26.3270 O   0  0  0  0  0  0  0  0  0  0  0  0
    9.4005  -16.5170   27.8917 O   0  0  0  0  0  0  0  0  0  0  0  0
  2  1  1  6
  2  3  1  0
  4  2  1  0
  4  5  1  6
  6  4  1  0
  7  6  2  0
  8  6  1  0
  9  8  1  0
 10 11  1  0
  9 10  1  1
 12 16  1  0
 12 11  1  0
 13 12  2  0
 14 15  2  0
 14  9  1  0
 18 20  1  0
 18 17  1  6
 19 18  1  0
 20 21  1  6
 21 14  1  0
 22 20  1  0
 23 22  2  0
 24 22  1  0
M  END
$$$$
