VET.pdb
     RDKit          3D

 24 23  0  0  1  0  0  0  0  0999 V2000
    7.5071  -13.7696   20.7529 C   0  0  0  0  0  0  0  0  0  0  0  0
    8.5257  -13.1629   19.7710 C   0  0  2  0  0  0  0  0  0  0  0  0
    7.8621  -12.1908   18.8522 C   0  0  0  0  0  0  0  0  0  0  0  0
    9.0156  -14.3535   18.9517 C   0  0  2  0  0  0  0  0  0  0  0  0
    7.8289  -14.9848   18.3155 N   0  0  0  0  0  0  0  0  0  0  0  0
    9.5854  -15.4096   19.8246 C   0  0  0  0  0  0  0  0  0  0  0  0
    8.8390  -16.3760   20.2256 O   0  0  0  0  0  0  0  0  0  0  0  0
   10.9233  -15.4627   20.2767 N   0  0  0  0  0  0  0  0  0  0  0  0
   11.3548  -16.4912   21.2641 C   0  0  1  0  0  0  0  0  0  0  0  0
   12.8511  -16.6163   21.0944 C   0  0  0  0  0  0  0  0  0  0  0  0
   13.2571  -17.2044   19.7975 C   0  0  0  0  0  0  0  0  0  0  0  0
   14.7391  -17.3212   19.6578 C   0  0  0  0  0  0  0  0  0  0  0  0
   15.4807  -16.6339   20.3703 O   0  0  0  0  0  0  0  0  0  0  0  0
   10.9240  -16.1017   22.6112 C   0  0  0  0  0  0  0  0  0  0  0  0
   10.6231  -14.8786   22.8075 O   0  0  0  0  0  0  0  0  0  0  0  0
   15.2284  -18.2006   18.7295 O   0  0  0  0  0  0  0  0  0  0  0  0
    7.9725  -16.3250   26.0319 C   0  0  0  0  0  0  0  0  0  0  0  0
    8.6726  -16.4612   24.7027 C   0  0  1  0  0  0  0  0  0  0  0  0
    8.3382  -15.4441   23.8336 O   0  0  0  0  0  0  0  0  0  0  0  0
   10.1684  -16.5040   24.9770 C   0  0  2  0  0  0  0  0  0  0  0  0
   10.8004  -16.9555   23.7324 N   0  0  0  0  0  0  0  0  0  0  0  0
   10.4904  -17.4971   26.0238 C   0  0  0  0  0  0  0  0  0  0  0  0
   10.1246  -17.3667   27.2036 O   0  0  0  0  0  0  0  0  0  0  0  0
   11.2328  -18.6109   25.6458 O   0  0  0  0  0  0  0  0  0  0  0  0
  2  1  1  1
  2  3  1  0
  4  2  1  0
  4  5  1  1
  6  4  1  0
  7  6  2  0
  8  6  1  0
  9  8  1  0
 10 11  1  0
  9 10  1  1
 12 16  1  0
 12 11  1  0
 13 12  2  0
 14 15  2  0
 14  9  1  0
 18 20  1  0
 18 17  1  1
 19 18  1  0
 20 21  1  6
 21 14  1  0
 22 20  1  0
 23 22  2  0
 24 22  1  0
M  END
$$$$
