VET.pdb
     RDKit          3D

 24 23  0  0  1  0  0  0  0  0999 V2000
    7.1911  -15.2005   19.1520 C   0  0  0  0  0  0  0  0  0  0  0  0
    7.1558  -13.6884   19.4384 C   0  0  2  0  0  0  0  0  0  0  0  0
    7.2805  -12.9061   18.1728 C   0  0  0  0  0  0  0  0  0  0  0  0
    8.3953  -13.4370   20.2924 C   0  0  2  0  0  0  0  0  0  0  0  0
    9.5640  -14.0131   19.5757 N   0  0  0  0  0  0  0  0  0  0  0  0
    8.3280  -14.1852   21.5722 C   0  0  0  0  0  0  0  0  0  0  0  0
    7.3405  -13.9923   22.3718 O   0  0  0  0  0  0  0  0  0  0  0  0
    9.2800  -15.1299   22.0178 N   0  0  0  0  0  0  0  0  0  0  0  0
    9.0964  -15.8465   23.3108 C   0  0  1  0  0  0  0  0  0  0  0  0
   10.1413  -16.9379   23.3234 C   0  0  0  0  0  0  0  0  0  0  0  0
   10.1689  -17.7227   24.5789 C   0  0  0  0  0  0  0  0  0  0  0  0
   11.2650  -18.7363   24.5994 C   0  0  0  0  0  0  0  0  0  0  0  0
   12.3084  -18.5024   25.2212 O   0  0  0  0  0  0  0  0  0  0  0  0
    9.1918  -14.8975   24.4254 C   0  0  0  0  0  0  0  0  0  0  0  0
   10.1504  -14.0572   24.4090 O   0  0  0  0  0  0  0  0  0  0  0  0
   11.0690  -19.9068   23.9166 O   0  0  0  0  0  0  0  0  0  0  0  0
    7.1684  -12.1023   25.4877 C   0  0  0  0  0  0  0  0  0  0  0  0
    7.2136  -13.0269   26.6787 C   0  0  1  0  0  0  0  0  0  0  0  0
    6.1106  -13.8525   26.7367 O   0  0  0  0  0  0  0  0  0  0  0  0
    8.5102  -13.8181   26.5934 C   0  0  2  0  0  0  0  0  0  0  0  0
    8.3147  -14.8119   25.5320 N   0  0  0  0  0  0  0  0  0  0  0  0
    8.7691  -14.5547   27.8487 C   0  0  0  0  0  0  0  0  0  0  0  0
    8.7655  -15.7954   27.9082 O   0  0  0  0  0  0  0  0  0  0  0  0
    9.0235  -13.8053   28.9925 O   0  0  0  0  0  0  0  0  0  0  0  0
  2  1  1  6
  2  3  1  0
  4  2  1  0
  4  5  1  6
  6  4  1  0
  7  6  2  0
  8  6  1  0
  9  8  1  0
 10 11  1  0
  9 10  1  1
 12 16  1  0
 12 11  1  0
 13 12  2  0
 14 15  2  0
 14  9  1  0
 18 20  1  0
 18 17  1  6
 19 18  1  0
 20 21  1  6
 21 14  1  0
 22 20  1  0
 23 22  2  0
 24 22  1  0
M  END
$$$$
