VET.pdb
     RDKit          3D

 24 23  0  0  1  0  0  0  0  0999 V2000
    6.9737  -12.8439   19.0564 C   0  0  0  0  0  0  0  0  0  0  0  0
    7.4515  -13.5749   20.3240 C   0  0  2  0  0  0  0  0  0  0  0  0
    8.5705  -12.8310   20.9750 C   0  0  0  0  0  0  0  0  0  0  0  0
    7.9850  -14.9097   19.8115 C   0  0  2  0  0  0  0  0  0  0  0  0
    6.8309  -15.6886   19.2891 N   0  0  0  0  0  0  0  0  0  0  0  0
    8.5286  -15.7334   20.9197 C   0  0  0  0  0  0  0  0  0  0  0  0
    7.7233  -16.3283   21.7256 O   0  0  0  0  0  0  0  0  0  0  0  0
    9.9007  -15.9396   21.1880 N   0  0  0  0  0  0  0  0  0  0  0  0
   10.3361  -16.7246   22.3768 C   0  0  1  0  0  0  0  0  0  0  0  0
   11.7188  -17.2349   22.0437 C   0  0  0  0  0  0  0  0  0  0  0  0
   12.3761  -17.9498   23.1615 C   0  0  0  0  0  0  0  0  0  0  0  0
   13.7316  -18.4606   22.7996 C   0  0  0  0  0  0  0  0  0  0  0  0
   14.6845  -18.2752   23.5662 O   0  0  0  0  0  0  0  0  0  0  0  0
   10.2680  -15.8878   23.5798 C   0  0  0  0  0  0  0  0  0  0  0  0
   10.7919  -14.7269   23.5256 O   0  0  0  0  0  0  0  0  0  0  0  0
   13.8697  -19.1267   21.6114 O   0  0  0  0  0  0  0  0  0  0  0  0
    8.3205  -13.5604   27.0053 C   0  0  0  0  0  0  0  0  0  0  0  0
    8.3577  -14.5273   25.8481 C   0  0  1  0  0  0  0  0  0  0  0  0
    8.2400  -13.8867   24.6327 O   0  0  0  0  0  0  0  0  0  0  0  0
    9.6563  -15.3131   25.9516 C   0  0  2  0  0  0  0  0  0  0  0  0
    9.6678  -16.2373   24.8122 N   0  0  0  0  0  0  0  0  0  0  0  0
    9.6895  -16.1283   27.1844 C   0  0  0  0  0  0  0  0  0  0  0  0
    9.6084  -17.3677   27.1682 O   0  0  0  0  0  0  0  0  0  0  0  0
    9.8173  -15.4564   28.3955 O   0  0  0  0  0  0  0  0  0  0  0  0
  2  1  1  6
  2  3  1  0
  4  2  1  0
  4  5  1  1
  6  4  1  0
  7  6  2  0
  8  6  1  0
  9  8  1  0
 10 11  1  0
  9 10  1  6
 12 16  1  0
 12 11  1  0
 13 12  2  0
 14 15  2  0
 14  9  1  0
 18 20  1  0
 18 17  1  1
 19 18  1  0
 20 21  1  6
 21 14  1  0
 22 20  1  0
 23 22  2  0
 24 22  1  0
M  END
$$$$
