VET.pdb
     RDKit          3D

 24 23  0  0  1  0  0  0  0  0999 V2000
    7.0075  -13.9997   20.9418 C   0  0  0  0  0  0  0  0  0  0  0  0
    8.0781  -13.3650   20.0359 C   0  0  2  0  0  0  0  0  0  0  0  0
    7.4474  -12.4952   18.9991 C   0  0  0  0  0  0  0  0  0  0  0  0
    8.7378  -14.5531   19.3416 C   0  0  2  0  0  0  0  0  0  0  0  0
    7.6665  -15.3417   18.6768 N   0  0  0  0  0  0  0  0  0  0  0  0
    9.3402  -15.4855   20.3264 C   0  0  0  0  0  0  0  0  0  0  0  0
    8.6792  -16.5174   20.7138 O   0  0  0  0  0  0  0  0  0  0  0  0
   10.6227  -15.3479   20.9039 N   0  0  0  0  0  0  0  0  0  0  0  0
   11.1181  -16.3329   21.9056 C   0  0  1  0  0  0  0  0  0  0  0  0
   12.6181  -16.1547   21.9446 C   0  0  0  0  0  0  0  0  0  0  0  0
   13.2894  -16.9745   22.9790 C   0  0  0  0  0  0  0  0  0  0  0  0
   14.7732  -16.8087   22.9707 C   0  0  0  0  0  0  0  0  0  0  0  0
   15.3172  -16.0894   23.8173 O   0  0  0  0  0  0  0  0  0  0  0  0
   10.4446  -16.1191   23.1912 C   0  0  0  0  0  0  0  0  0  0  0  0
   10.3394  -14.9211   23.6140 O   0  0  0  0  0  0  0  0  0  0  0  0
   15.4872  -17.4714   22.0086 O   0  0  0  0  0  0  0  0  0  0  0  0
    7.0467  -16.9428   26.4060 C   0  0  0  0  0  0  0  0  0  0  0  0
    7.7459  -17.1554   25.0864 C   0  0  1  0  0  0  0  0  0  0  0  0
    7.1615  -16.4332   24.0674 O   0  0  0  0  0  0  0  0  0  0  0  0
    9.2082  -16.7828   25.2794 C   0  0  2  0  0  0  0  0  0  0  0  0
    9.8858  -17.1184   24.0222 N   0  0  0  0  0  0  0  0  0  0  0  0
    9.8287  -17.5942   26.3481 C   0  0  0  0  0  0  0  0  0  0  0  0
   10.4121  -18.6666   26.1193 O   0  0  0  0  0  0  0  0  0  0  0  0
    9.7413  -17.1152   27.6510 O   0  0  0  0  0  0  0  0  0  0  0  0
  2  1  1  1
  2  3  1  0
  4  2  1  0
  4  5  1  1
  6  4  1  0
  7  6  2  0
  8  6  1  0
  9  8  1  0
 10 11  1  0
  9 10  1  1
 12 16  1  0
 12 11  1  0
 13 12  2  0
 14 15  2  0
 14  9  1  0
 18 20  1  0
 18 17  1  1
 19 18  1  0
 20 21  1  6
 21 14  1  0
 22 20  1  0
 23 22  2  0
 24 22  1  0
M  END
$$$$
