VET.pdb
     RDKit          3D

 24 23  0  0  1  0  0  0  0  0999 V2000
    7.3826  -13.6472   20.8641 C   0  0  0  0  0  0  0  0  0  0  0  0
    8.3018  -13.4763   19.6411 C   0  0  2  0  0  0  0  0  0  0  0  0
    7.6450  -12.6338   18.5980 C   0  0  0  0  0  0  0  0  0  0  0  0
    8.4681  -14.8909   19.0934 C   0  0  2  0  0  0  0  0  0  0  0  0
    7.1150  -15.4094   18.7587 N   0  0  0  0  0  0  0  0  0  0  0  0
    8.9818  -15.8145   20.1350 C   0  0  0  0  0  0  0  0  0  0  0  0
    8.1574  -16.4127   20.9188 O   0  0  0  0  0  0  0  0  0  0  0  0
   10.3439  -16.1167   20.3599 N   0  0  0  0  0  0  0  0  0  0  0  0
   10.7515  -17.0216   21.4707 C   0  0  1  0  0  0  0  0  0  0  0  0
   12.1877  -17.3950   21.1858 C   0  0  0  0  0  0  0  0  0  0  0  0
   12.7841  -18.2908   22.2028 C   0  0  0  0  0  0  0  0  0  0  0  0
   14.1417  -18.7770   21.8157 C   0  0  0  0  0  0  0  0  0  0  0  0
   14.6120  -19.7853   22.3562 O   0  0  0  0  0  0  0  0  0  0  0  0
   10.5386  -16.3559   22.7605 C   0  0  0  0  0  0  0  0  0  0  0  0
   10.7354  -15.0978   22.8186 O   0  0  0  0  0  0  0  0  0  0  0  0
   14.8259  -18.0749   20.8599 O   0  0  0  0  0  0  0  0  0  0  0  0
    7.8870  -15.1293   26.2808 C   0  0  0  0  0  0  0  0  0  0  0  0
    8.3077  -15.8266   25.0111 C   0  0  1  0  0  0  0  0  0  0  0  0
    8.0719  -15.0549   23.8929 O   0  0  0  0  0  0  0  0  0  0  0  0
    9.7795  -16.1845   25.1531 C   0  0  2  0  0  0  0  0  0  0  0  0
   10.1260  -16.9725   23.9650 N   0  0  0  0  0  0  0  0  0  0  0  0
   10.0083  -17.0413   26.3360 C   0  0  0  0  0  0  0  0  0  0  0  0
    9.7692  -16.6597   27.4935 O   0  0  0  0  0  0  0  0  0  0  0  0
   10.5112  -18.3192   26.1158 O   0  0  0  0  0  0  0  0  0  0  0  0
  2  1  1  1
  2  3  1  0
  4  2  1  0
  4  5  1  1
  6  4  1  0
  7  6  2  0
  8  6  1  0
  9  8  1  0
 10 11  1  0
  9 10  1  6
 12 16  1  0
 12 11  1  0
 13 12  2  0
 14 15  2  0
 14  9  1  0
 18 20  1  0
 18 17  1  1
 19 18  1  0
 20 21  1  6
 21 14  1  0
 22 20  1  0
 23 22  2  0
 24 22  1  0
M  END
$$$$
