VET.pdb
     RDKit          3D

 24 23  0  0  1  0  0  0  0  0999 V2000
    7.1947  -13.6922   20.9706 C   0  0  0  0  0  0  0  0  0  0  0  0
    8.3226  -13.3842   19.9693 C   0  0  2  0  0  0  0  0  0  0  0  0
    7.8268  -12.5110   18.8644 C   0  0  0  0  0  0  0  0  0  0  0  0
    8.6932  -14.7455   19.3876 C   0  0  2  0  0  0  0  0  0  0  0  0
    7.4673  -15.3272   18.7790 N   0  0  0  0  0  0  0  0  0  0  0  0
    9.0768  -15.7011   20.4561 C   0  0  0  0  0  0  0  0  0  0  0  0
    8.1633  -16.2947   21.1380 O   0  0  0  0  0  0  0  0  0  0  0  0
   10.4017  -16.0397   20.8130 N   0  0  0  0  0  0  0  0  0  0  0  0
   10.6718  -17.0329   21.8898 C   0  0  1  0  0  0  0  0  0  0  0  0
   12.0986  -17.4836   21.6796 C   0  0  0  0  0  0  0  0  0  0  0  0
   12.5689  -18.4635   22.6852 C   0  0  0  0  0  0  0  0  0  0  0  0
   13.9876  -18.8748   22.4677 C   0  0  0  0  0  0  0  0  0  0  0  0
   14.5304  -19.6559   23.2585 O   0  0  0  0  0  0  0  0  0  0  0  0
   10.4091  -16.4308   23.2015 C   0  0  0  0  0  0  0  0  0  0  0  0
   11.0196  -15.3498   23.4913 O   0  0  0  0  0  0  0  0  0  0  0  0
   14.6447  -18.3621   21.3815 O   0  0  0  0  0  0  0  0  0  0  0  0
    7.7563  -14.6479   24.5758 C   0  0  0  0  0  0  0  0  0  0  0  0
    7.9105  -15.7991   25.5382 C   0  0  1  0  0  0  0  0  0  0  0  0
    7.0408  -16.8314   25.2559 O   0  0  0  0  0  0  0  0  0  0  0  0
    9.3625  -16.2496   25.4822 C   0  0  2  0  0  0  0  0  0  0  0  0
    9.5313  -16.9288   24.1928 N   0  0  0  0  0  0  0  0  0  0  0  0
    9.6566  -17.2348   26.5445 C   0  0  0  0  0  0  0  0  0  0  0  0
    9.8565  -18.4368   26.3041 O   0  0  0  0  0  0  0  0  0  0  0  0
    9.7054  -16.7711   27.8549 O   0  0  0  0  0  0  0  0  0  0  0  0
  2  1  1  1
  2  3  1  0
  4  2  1  0
  4  5  1  1
  6  4  1  0
  7  6  2  0
  8  6  1  0
  9  8  1  0
 10 11  1  0
  9 10  1  1
 12 16  1  0
 12 11  1  0
 13 12  2  0
 14 15  2  0
 14  9  1  0
 18 20  1  0
 18 17  1  6
 19 18  1  0
 20 21  1  6
 21 14  1  0
 22 20  1  0
 23 22  2  0
 24 22  1  0
M  END
$$$$
