VET.pdb
     RDKit          3D

 24 23  0  0  1  0  0  0  0  0999 V2000
    6.9385  -13.0403   20.6736 C   0  0  0  0  0  0  0  0  0  0  0  0
    8.2640  -13.1634   19.9006 C   0  0  2  0  0  0  0  0  0  0  0  0
    8.1304  -12.5967   18.5256 C   0  0  0  0  0  0  0  0  0  0  0  0
    8.4975  -14.6673   19.7888 C   0  0  2  0  0  0  0  0  0  0  0  0
    7.4257  -15.2294   18.9246 N   0  0  0  0  0  0  0  0  0  0  0  0
    8.3192  -15.3387   21.1001 C   0  0  0  0  0  0  0  0  0  0  0  0
    7.1583  -15.7717   21.4415 O   0  0  0  0  0  0  0  0  0  0  0  0
    9.3414  -15.5609   22.0504 N   0  0  0  0  0  0  0  0  0  0  0  0
    9.0349  -16.1804   23.3699 C   0  0  1  0  0  0  0  0  0  0  0  0
    9.9696  -17.3613   23.4923 C   0  0  0  0  0  0  0  0  0  0  0  0
   11.2163  -17.2192   22.7061 C   0  0  0  0  0  0  0  0  0  0  0  0
   12.1254  -18.3946   22.8523 C   0  0  0  0  0  0  0  0  0  0  0  0
   13.3493  -18.2235   22.9058 O   0  0  0  0  0  0  0  0  0  0  0  0
    9.1722  -15.1806   24.4347 C   0  0  0  0  0  0  0  0  0  0  0  0
   10.0853  -14.3001   24.3078 O   0  0  0  0  0  0  0  0  0  0  0  0
   11.5586  -19.6389   22.9228 O   0  0  0  0  0  0  0  0  0  0  0  0
    7.0086  -12.3991   25.5718 C   0  0  0  0  0  0  0  0  0  0  0  0
    7.2004  -13.3420   26.7335 C   0  0  1  0  0  0  0  0  0  0  0  0
    6.1886  -14.2752   26.8168 O   0  0  0  0  0  0  0  0  0  0  0  0
    8.5638  -13.9967   26.5696 C   0  0  2  0  0  0  0  0  0  0  0  0
    8.3817  -15.0862   25.6041 N   0  0  0  0  0  0  0  0  0  0  0  0
    9.0214  -14.6008   27.8390 C   0  0  0  0  0  0  0  0  0  0  0  0
    9.1542  -15.8270   27.9856 O   0  0  0  0  0  0  0  0  0  0  0  0
    9.3072  -13.7401   28.8936 O   0  0  0  0  0  0  0  0  0  0  0  0
  2  1  1  1
  2  3  1  0
  4  2  1  0
  4  5  1  6
  6  4  1  0
  7  6  2  0
  8  6  1  0
  9  8  1  0
 10 11  1  0
  9 10  1  1
 12 16  1  0
 12 11  1  0
 13 12  2  0
 14 15  2  0
 14  9  1  0
 18 20  1  0
 18 17  1  6
 19 18  1  0
 20 21  1  6
 21 14  1  0
 22 20  1  0
 23 22  2  0
 24 22  1  0
M  END
$$$$
