VET.pdb
     RDKit          3D

 24 23  0  0  1  0  0  0  0  0999 V2000
    7.5703  -15.0529   18.9773 C   0  0  0  0  0  0  0  0  0  0  0  0
    7.5377  -13.5938   19.4669 C   0  0  2  0  0  0  0  0  0  0  0  0
    7.6106  -12.6464   18.3152 C   0  0  0  0  0  0  0  0  0  0  0  0
    8.8069  -13.4472   20.3014 C   0  0  2  0  0  0  0  0  0  0  0  0
    9.9535  -13.8900   19.4642 N   0  0  0  0  0  0  0  0  0  0  0  0
    8.8006  -14.3760   21.4587 C   0  0  0  0  0  0  0  0  0  0  0  0
    7.8565  -14.3045   22.3278 O   0  0  0  0  0  0  0  0  0  0  0  0
    9.7682  -15.3747   21.7106 N   0  0  0  0  0  0  0  0  0  0  0  0
    9.6205  -16.3068   22.8632 C   0  0  1  0  0  0  0  0  0  0  0  0
   10.5597  -17.4562   22.5804 C   0  0  0  0  0  0  0  0  0  0  0  0
   10.6420  -18.4438   23.6806 C   0  0  0  0  0  0  0  0  0  0  0  0
   11.5657  -19.5750   23.3701 C   0  0  0  0  0  0  0  0  0  0  0  0
   11.1241  -20.6042   22.8451 O   0  0  0  0  0  0  0  0  0  0  0  0
    9.8875  -15.5953   24.1180 C   0  0  0  0  0  0  0  0  0  0  0  0
   10.9630  -14.9155   24.1975 O   0  0  0  0  0  0  0  0  0  0  0  0
   12.8900  -19.4263   23.6844 O   0  0  0  0  0  0  0  0  0  0  0  0
    8.5161  -12.8762   27.7528 C   0  0  0  0  0  0  0  0  0  0  0  0
    8.2072  -13.7766   26.5826 C   0  0  1  0  0  0  0  0  0  0  0  0
    7.9733  -13.0627   25.4263 O   0  0  0  0  0  0  0  0  0  0  0  0
    9.3741  -14.7403   26.4278 C   0  0  2  0  0  0  0  0  0  0  0  0
    9.0609  -15.5796   25.2660 N   0  0  0  0  0  0  0  0  0  0  0  0
    9.4886  -15.6321   27.6014 C   0  0  0  0  0  0  0  0  0  0  0  0
    9.0561  -16.7965   27.6003 O   0  0  0  0  0  0  0  0  0  0  0  0
   10.1087  -15.1225   28.7373 O   0  0  0  0  0  0  0  0  0  0  0  0
  2  1  1  6
  2  3  1  0
  4  2  1  0
  4  5  1  6
  6  4  1  0
  7  6  2  0
  8  6  1  0
  9  8  1  0
 10 11  1  0
  9 10  1  6
 12 16  1  0
 12 11  1  0
 13 12  2  0
 14 15  2  0
 14  9  1  0
 18 20  1  0
 18 17  1  1
 19 18  1  0
 20 21  1  6
 21 14  1  0
 22 20  1  0
 23 22  2  0
 24 22  1  0
M  END
$$$$
