VET.pdb
     RDKit          3D

 24 23  0  0  1  0  0  0  0  0999 V2000
    7.2617  -12.8840   26.9705 C   0  0  0  0  0  0  0  0  0  0  0  0
    7.0101  -12.5728   25.4841 C   0  0  2  0  0  0  0  0  0  0  0  0
    5.9435  -11.5391   25.3319 C   0  0  0  0  0  0  0  0  0  0  0  0
    6.5013  -13.8892   24.9037 C   0  0  2  0  0  0  0  0  0  0  0  0
    5.4587  -14.4172   25.8234 N   0  0  0  0  0  0  0  0  0  0  0  0
    7.5652  -14.9237   24.9019 C   0  0  0  0  0  0  0  0  0  0  0  0
    7.5720  -15.8322   25.8109 O   0  0  0  0  0  0  0  0  0  0  0  0
    8.6150  -15.0150   23.9601 N   0  0  0  0  0  0  0  0  0  0  0  0
    9.6075  -16.1237   24.0289 C   0  0  1  0  0  0  0  0  0  0  0  0
   10.3955  -16.0453   22.7420 C   0  0  0  0  0  0  0  0  0  0  0  0
   11.4503  -17.0779   22.6247 C   0  0  0  0  0  0  0  0  0  0  0  0
   10.9168  -18.3959   22.1690 C   0  0  0  0  0  0  0  0  0  0  0  0
   10.0702  -18.4392   21.2682 O   0  0  0  0  0  0  0  0  0  0  0  0
   10.4145  -15.9963   25.2473 C   0  0  0  0  0  0  0  0  0  0  0  0
   11.2607  -15.0444   25.3017 O   0  0  0  0  0  0  0  0  0  0  0  0
   11.3941  -19.5259   22.7770 O   0  0  0  0  0  0  0  0  0  0  0  0
   10.5257  -14.4527   28.0560 C   0  0  0  0  0  0  0  0  0  0  0  0
   10.6083  -15.8709   28.5631 C   0  0  1  0  0  0  0  0  0  0  0  0
    9.3674  -16.3813   28.8810 O   0  0  0  0  0  0  0  0  0  0  0  0
   11.3048  -16.6984   27.4932 C   0  0  2  0  0  0  0  0  0  0  0  0
   10.3479  -16.8291   26.3889 N   0  0  0  0  0  0  0  0  0  0  0  0
   11.6050  -18.0603   27.9837 C   0  0  0  0  0  0  0  0  0  0  0  0
   11.0209  -19.0689   27.5544 O   0  0  0  0  0  0  0  0  0  0  0  0
   12.5836  -18.1889   28.9637 O   0  0  0  0  0  0  0  0  0  0  0  0
  2  1  1  1
  2  3  1  0
  4  2  1  0
  4  5  1  1
  6  4  1  0
  7  6  2  0
  8  6  1  0
  9  8  1  0
 10 11  1  0
  9 10  1  6
 12 16  1  0
 12 11  1  0
 13 12  2  0
 14 15  2  0
 14  9  1  0
 18 20  1  0
 18 17  1  6
 19 18  1  0
 20 21  1  6
 21 14  1  0
 22 20  1  0
 23 22  2  0
 24 22  1  0
M  END
$$$$
