VET.pdb
     RDKit          3D

 24 23  0  0  1  0  0  0  0  0999 V2000
    7.9802  -12.8558   18.2078 C   0  0  0  0  0  0  0  0  0  0  0  0
    7.6062  -13.3677   19.6106 C   0  0  2  0  0  0  0  0  0  0  0  0
    7.8858  -12.3288   20.6459 C   0  0  0  0  0  0  0  0  0  0  0  0
    8.5406  -14.5519   19.8418 C   0  0  2  0  0  0  0  0  0  0  0  0
    8.2005  -15.5994   18.8425 N   0  0  0  0  0  0  0  0  0  0  0  0
    8.2885  -15.1873   21.1588 C   0  0  0  0  0  0  0  0  0  0  0  0
    7.0941  -15.5379   21.4789 O   0  0  0  0  0  0  0  0  0  0  0  0
    9.2717  -15.4589   22.1370 N   0  0  0  0  0  0  0  0  0  0  0  0
    8.8944  -16.0299   23.4601 C   0  0  1  0  0  0  0  0  0  0  0  0
    9.8082  -17.2153   23.6677 C   0  0  0  0  0  0  0  0  0  0  0  0
    9.5874  -18.3151   22.7011 C   0  0  0  0  0  0  0  0  0  0  0  0
   10.4631  -19.4956   22.9634 C   0  0  0  0  0  0  0  0  0  0  0  0
   10.1636  -20.6006   22.4950 O   0  0  0  0  0  0  0  0  0  0  0  0
    8.9915  -14.9958   24.4961 C   0  0  0  0  0  0  0  0  0  0  0  0
   10.0839  -14.3445   24.5838 O   0  0  0  0  0  0  0  0  0  0  0  0
   11.5841  -19.3058   23.7262 O   0  0  0  0  0  0  0  0  0  0  0  0
    6.6054  -12.0233   25.5163 C   0  0  0  0  0  0  0  0  0  0  0  0
    6.8641  -12.9431   26.6835 C   0  0  1  0  0  0  0  0  0  0  0  0
    5.8525  -13.8651   26.8516 O   0  0  0  0  0  0  0  0  0  0  0  0
    8.2091  -13.6135   26.4472 C   0  0  2  0  0  0  0  0  0  0  0  0
    7.9823  -14.6359   25.4197 N   0  0  0  0  0  0  0  0  0  0  0  0
    8.6814  -14.3056   27.6652 C   0  0  0  0  0  0  0  0  0  0  0  0
    8.7944  -15.5408   27.7303 O   0  0  0  0  0  0  0  0  0  0  0  0
    9.0048  -13.5195   28.7661 O   0  0  0  0  0  0  0  0  0  0  0  0
  2  1  1  6
  2  3  1  0
  4  2  1  0
  4  5  1  6
  6  4  1  0
  7  6  2  0
  8  6  1  0
  9  8  1  0
 10 11  1  0
  9 10  1  1
 12 16  1  0
 12 11  1  0
 13 12  2  0
 14 15  2  0
 14  9  1  0
 18 20  1  0
 18 17  1  6
 19 18  1  0
 20 21  1  6
 21 14  1  0
 22 20  1  0
 23 22  2  0
 24 22  1  0
M  END
$$$$
