RGL.pdb
     RDKit          3D

 24 23  0  0  1  0  0  0  0  0999 V2000
   29.3899  -23.0920  -16.2813 N   0  0  0  0  0  0  0  0  0  0  0  0
   29.3673  -21.9965  -17.1837 C   0  0  0  0  0  0  0  0  0  0  0  0
   29.8169  -22.1910  -18.3761 N   0  0  0  0  0  0  0  0  0  0  0  0
   28.8686  -20.6956  -16.8173 N   0  0  0  0  0  0  0  0  0  0  0  0
   28.4372  -20.4052  -15.4998 C   0  0  0  0  0  0  0  0  0  0  0  0
   27.5636  -19.2555  -15.2310 C   0  0  0  0  0  0  0  0  0  0  0  0
   26.2442  -19.4338  -14.6106 C   0  0  0  0  0  0  0  0  0  0  0  0
   25.1219  -19.9909  -15.4001 C   0  0  2  0  0  0  0  0  0  0  0  0
   24.5508  -19.1305  -16.3947 N   0  0  0  0  0  0  0  0  0  0  0  0
   23.9791  -20.3758  -14.5006 C   0  0  0  0  0  0  0  0  0  0  0  0
   24.1802  -20.9494  -13.3992 O   0  0  0  0  0  0  0  0  0  0  0  0
   29.8468  -21.4019  -19.0512 N   0  0  0  0  0  0  0  0  0  0  0  0
   22.6485  -20.0982  -14.8793 C   0  0  0  0  0  0  0  0  0  0  0  0
   21.5264  -20.4113  -13.9785 C   0  0  0  0  0  0  0  0  0  0  0  0
   20.2498  -19.9065  -14.5313 O   0  0  0  0  0  0  0  0  0  0  0  0
   20.1178  -18.7234  -14.9610 C   0  0  0  0  0  0  0  0  0  0  0  0
   18.2303  -19.6812  -18.0794 C   0  0  2  0  0  0  0  0  0  0  0  0
   18.4270  -21.0816  -17.4599 C   0  0  0  0  0  0  0  0  0  0  0  0
   18.0969  -22.0506  -18.5973 C   0  0  0  0  0  0  0  0  0  0  0  0
   17.4760  -21.1669  -16.3217 C   0  0  2  0  0  0  0  0  0  0  0  0
   17.8406  -20.4257  -15.0837 N   0  0  0  0  0  0  0  0  0  0  0  0
   19.1486  -20.7907  -14.5739 C   0  0  0  0  0  0  0  0  0  0  0  0
   16.8613  -20.5057  -13.9826 O   0  0  0  0  0  0  0  0  0  0  0  0
   15.6540  -19.8255  -14.0037 O   0  0  0  0  0  0  0  0  0  0  0  0
  1  2  1  0
  2  3  2  0
  4  2  1  0
  5  4  1  0
  6  5  1  0
  7  6  1  0
  8  7  1  0
  8 10  1  0
  8  9  1  6
 10 11  2  0
 10 12  1  0
 12 13  1  0
 14 21  1  0
 14 13  1  0
 15 14  2  0
 17 18  1  1
 17 16  1  0
 19 17  1  0
 20 22  1  0
 20 19  1  6
 20 21  1  0
 22 23  1  0
 24 22  2  0
M  END
$$$$
