RGL.pdb
     RDKit          3D

 24 23  0  0  1  0  0  0  0  0999 V2000
   20.3926  -29.1805   -8.6238 N   0  0  0  0  0  0  0  0  0  0  0  0
   21.0158  -29.1650   -9.8990 C   0  0  0  0  0  0  0  0  0  0  0  0
   20.7138  -28.2042  -10.7037 N   0  0  0  0  0  0  0  0  0  0  0  0
   21.9577  -30.1713  -10.3181 N   0  0  0  0  0  0  0  0  0  0  0  0
   22.3749  -31.2107   -9.4510 C   0  0  0  0  0  0  0  0  0  0  0  0
   23.2864  -32.2619   -9.9216 C   0  0  0  0  0  0  0  0  0  0  0  0
   23.6577  -33.3881   -9.0548 C   0  0  0  0  0  0  0  0  0  0  0  0
   24.9160  -33.3412   -8.2751 C   0  0  2  0  0  0  0  0  0  0  0  0
   26.1320  -33.2446   -9.0286 N   0  0  0  0  0  0  0  0  0  0  0  0
   25.0652  -34.5784   -7.4322 C   0  0  0  0  0  0  0  0  0  0  0  0
   25.4496  -35.6665   -7.9329 O   0  0  0  0  0  0  0  0  0  0  0  0
   21.1597  -28.1568  -11.6408 N   0  0  0  0  0  0  0  0  0  0  0  0
   24.7739  -34.5407   -6.0522 C   0  0  0  0  0  0  0  0  0  0  0  0
   24.9100  -35.7472   -5.2188 C   0  0  0  0  0  0  0  0  0  0  0  0
   25.2395  -35.3884   -3.8214 O   0  0  0  0  0  0  0  0  0  0  0  0
   25.4909  -34.1994   -3.4680 C   0  0  0  0  0  0  0  0  0  0  0  0
   23.0476  -36.4949    0.2995 C   0  0  1  0  0  0  0  0  0  0  0  0
   23.6756  -37.6219   -0.5485 C   0  0  0  0  0  0  0  0  0  0  0  0
   23.3308  -38.9057    0.2094 C   0  0  0  0  0  0  0  0  0  0  0  0
   25.1338  -37.3408   -0.5939 C   0  0  2  0  0  0  0  0  0  0  0  0
   25.5745  -36.2113   -1.4571 N   0  0  0  0  0  0  0  0  0  0  0  0
   25.2698  -36.4229   -2.8595 C   0  0  0  0  0  0  0  0  0  0  0  0
   26.9945  -35.8305   -1.3307 O   0  0  0  0  0  0  0  0  0  0  0  0
   27.8827  -35.8889   -2.3930 O   0  0  0  0  0  0  0  0  0  0  0  0
  1  2  1  0
  2  3  2  0
  4  2  1  0
  5  4  1  0
  6  5  1  0
  7  6  1  0
  8  7  1  0
  8 10  1  0
  8  9  1  6
 10 11  2  0
 10 12  1  0
 12 13  1  0
 14 21  1  0
 14 13  1  0
 15 14  2  0
 17 18  1  1
 17 16  1  0
 19 17  1  0
 20 22  1  0
 20 19  1  1
 20 21  1  0
 22 23  1  0
 24 22  2  0
M  END
$$$$
