RGL.pdb
     RDKit          3D

 24 23  0  0  1  0  0  0  0  0999 V2000
   23.2918  -27.3491  -16.2519 N   0  0  0  0  0  0  0  0  0  0  0  0
   24.4260  -28.0462  -16.7442 C   0  0  0  0  0  0  0  0  0  0  0  0
   24.2941  -29.3023  -17.0018 N   0  0  0  0  0  0  0  0  0  0  0  0
   25.6993  -27.4079  -16.9603 N   0  0  0  0  0  0  0  0  0  0  0  0
   25.8276  -25.9986  -17.0192 C   0  0  0  0  0  0  0  0  0  0  0  0
   24.6537  -25.1456  -17.2466 C   0  0  0  0  0  0  0  0  0  0  0  0
   24.6675  -23.7228  -16.8817 C   0  0  0  0  0  0  0  0  0  0  0  0
   25.9557  -23.0097  -16.7229 C   0  0  2  0  0  0  0  0  0  0  0  0
   27.0746  -23.7980  -16.2958 N   0  0  0  0  0  0  0  0  0  0  0  0
   25.8314  -21.9081  -15.7059 C   0  0  0  0  0  0  0  0  0  0  0  0
   24.9227  -21.0422  -15.7897 O   0  0  0  0  0  0  0  0  0  0  0  0
   25.1286  -29.8679  -17.2526 N   0  0  0  0  0  0  0  0  0  0  0  0
   26.7400  -21.8250  -14.6297 C   0  0  0  0  0  0  0  0  0  0  0  0
   26.5994  -20.7795  -13.6021 C   0  0  0  0  0  0  0  0  0  0  0  0
   25.6827  -21.2177  -12.5261 O   0  0  0  0  0  0  0  0  0  0  0  0
   25.1703  -22.3747  -12.5014 C   0  0  0  0  0  0  0  0  0  0  0  0
   26.6917  -21.4809   -8.2804 C   0  0  2  0  0  0  0  0  0  0  0  0
   26.4430  -20.0477   -8.7978 C   0  0  0  0  0  0  0  0  0  0  0  0
   26.8696  -19.1451   -7.6381 C   0  0  0  0  0  0  0  0  0  0  0  0
   24.9913  -19.9648   -9.1025 C   0  0  2  0  0  0  0  0  0  0  0  0
   24.5306  -20.6098  -10.3622 N   0  0  0  0  0  0  0  0  0  0  0  0
   25.3794  -20.2987  -11.4967 C   0  0  0  0  0  0  0  0  0  0  0  0
   23.1262  -20.3501  -10.7332 O   0  0  0  0  0  0  0  0  0  0  0  0
   22.0565  -20.9136  -10.0558 O   0  0  0  0  0  0  0  0  0  0  0  0
  1  2  1  0
  2  3  2  0
  4  2  1  0
  5  4  1  0
  6  5  1  0
  7  6  1  0
  8  7  1  0
  8 10  1  0
  8  9  1  1
 10 11  2  0
 10 12  1  0
 12 13  1  0
 14 21  1  0
 14 13  1  0
 15 14  2  0
 17 18  1  1
 17 16  1  0
 19 17  1  0
 20 22  1  0
 20 19  1  1
 20 21  1  0
 22 23  1  0
 24 22  2  0
M  END
$$$$
