RGL.pdb
     RDKit          3D

 24 23  0  0  1  0  0  0  0  0999 V2000
   12.0438  -22.2990   -7.9958 N   0  0  0  0  0  0  0  0  0  0  0  0
   13.1974  -22.0141   -8.7723 C   0  0  0  0  0  0  0  0  0  0  0  0
   13.0775  -21.1695   -9.7388 N   0  0  0  0  0  0  0  0  0  0  0  0
   14.4762  -22.6283   -8.5218 N   0  0  0  0  0  0  0  0  0  0  0  0
   14.6516  -23.6004   -7.5067 C   0  0  0  0  0  0  0  0  0  0  0  0
   15.9804  -24.1565   -7.2196 C   0  0  0  0  0  0  0  0  0  0  0  0
   16.1884  -25.0864   -6.1018 C   0  0  0  0  0  0  0  0  0  0  0  0
   17.5562  -25.5358   -5.7548 C   0  0  2  0  0  0  0  0  0  0  0  0
   18.3843  -25.9636   -6.8443 N   0  0  0  0  0  0  0  0  0  0  0  0
   17.5075  -26.7034   -4.8073 C   0  0  0  0  0  0  0  0  0  0  0  0
   17.1741  -27.8504   -5.2019 O   0  0  0  0  0  0  0  0  0  0  0  0
   13.9015  -20.9401  -10.3285 N   0  0  0  0  0  0  0  0  0  0  0  0
   17.8376  -26.5317   -3.4463 C   0  0  0  0  0  0  0  0  0  0  0  0
   17.1760  -27.3324   -2.4023 C   0  0  0  0  0  0  0  0  0  0  0  0
   17.7189  -27.0067   -1.0647 O   0  0  0  0  0  0  0  0  0  0  0  0
   18.6341  -26.1491   -0.8949 C   0  0  0  0  0  0  0  0  0  0  0  0
   15.1843  -23.7269    2.0336 C   0  0  1  0  0  0  0  0  0  0  0  0
   15.9053  -25.0252    2.4560 C   0  0  0  0  0  0  0  0  0  0  0  0
   17.1361  -24.5433    3.2270 C   0  0  0  0  0  0  0  0  0  0  0  0
   16.2433  -25.7381    1.1972 C   0  0  2  0  0  0  0  0  0  0  0  0
   16.9233  -27.0551    1.3319 N   0  0  0  0  0  0  0  0  0  0  0  0
   17.1847  -27.6869    0.0526 C   0  0  0  0  0  0  0  0  0  0  0  0
   16.2543  -28.0290    2.2159 O   0  0  0  0  0  0  0  0  0  0  0  0
   15.2709  -28.8959    1.7661 O   0  0  0  0  0  0  0  0  0  0  0  0
  1  2  1  0
  2  3  2  0
  4  2  1  0
  5  4  1  0
  6  5  1  0
  7  6  1  0
  8  7  1  0
  8 10  1  0
  8  9  1  6
 10 11  2  0
 10 12  1  0
 12 13  1  0
 14 21  1  0
 14 13  1  0
 15 14  2  0
 17 18  1  6
 17 16  1  0
 19 17  1  0
 20 22  1  0
 20 19  1  6
 20 21  1  0
 22 23  1  0
 24 22  2  0
M  END
$$$$
