RGL.pdb
     RDKit          3D

 24 23  0  0  1  0  0  0  0  0999 V2000
   27.9359  -18.8080   -5.6731 N   0  0  0  0  0  0  0  0  0  0  0  0
   27.8582  -19.6829   -6.7881 C   0  0  0  0  0  0  0  0  0  0  0  0
   28.9294  -20.3106   -7.1350 N   0  0  0  0  0  0  0  0  0  0  0  0
   26.6430  -19.8882   -7.5341 N   0  0  0  0  0  0  0  0  0  0  0  0
   26.5136  -20.9377   -8.4763 C   0  0  0  0  0  0  0  0  0  0  0  0
   27.1827  -20.8630   -9.7817 C   0  0  0  0  0  0  0  0  0  0  0  0
   26.5141  -20.2628  -10.9437 C   0  0  0  0  0  0  0  0  0  0  0  0
   25.4622  -21.0150  -11.6655 C   0  0  2  0  0  0  0  0  0  0  0  0
   25.8800  -22.2069  -12.3442 N   0  0  0  0  0  0  0  0  0  0  0  0
   24.8249  -20.1554  -12.7229 C   0  0  0  0  0  0  0  0  0  0  0  0
   24.9804  -18.9070  -12.7301 O   0  0  0  0  0  0  0  0  0  0  0  0
   28.9141  -20.9389   -7.9622 N   0  0  0  0  0  0  0  0  0  0  0  0
   24.0337  -20.7387  -13.7351 C   0  0  0  0  0  0  0  0  0  0  0  0
   23.0286  -19.9431  -14.4601 C   0  0  0  0  0  0  0  0  0  0  0  0
   22.2251  -20.8014  -15.3589 O   0  0  0  0  0  0  0  0  0  0  0  0
   22.6328  -21.1526  -16.5043 C   0  0  0  0  0  0  0  0  0  0  0  0
   23.3252  -24.5214  -15.3176 C   0  0  1  0  0  0  0  0  0  0  0  0
   22.0112  -24.7287  -14.5339 C   0  0  0  0  0  0  0  0  0  0  0  0
   21.0212  -25.2447  -15.5804 C   0  0  0  0  0  0  0  0  0  0  0  0
   21.6439  -23.3983  -13.9843 C   0  0  2  0  0  0  0  0  0  0  0  0
   20.6038  -22.6300  -14.7212 N   0  0  0  0  0  0  0  0  0  0  0  0
   20.9592  -21.2359  -14.9059 C   0  0  0  0  0  0  0  0  0  0  0  0
   19.2412  -22.7034  -14.1593 O   0  0  0  0  0  0  0  0  0  0  0  0
   18.8558  -21.9909  -13.0348 O   0  0  0  0  0  0  0  0  0  0  0  0
  1  2  1  0
  2  3  2  0
  4  2  1  0
  5  4  1  0
  6  5  1  0
  7  6  1  0
  8  7  1  0
  8 10  1  0
  8  9  1  6
 10 11  2  0
 10 12  1  0
 12 13  1  0
 14 21  1  0
 14 13  1  0
 15 14  2  0
 17 18  1  6
 17 16  1  0
 19 17  1  0
 20 22  1  0
 20 19  1  6
 20 21  1  0
 22 23  1  0
 24 22  2  0
M  END
$$$$
