RGL.pdb
     RDKit          3D

 24 23  0  0  1  0  0  0  0  0999 V2000
   25.4389  -20.4780  -11.0755 N   0  0  0  0  0  0  0  0  0  0  0  0
   25.7492  -21.4652  -12.0471 C   0  0  0  0  0  0  0  0  0  0  0  0
   25.8429  -22.6886  -11.6518 N   0  0  0  0  0  0  0  0  0  0  0  0
   25.9614  -21.1508  -13.4369 N   0  0  0  0  0  0  0  0  0  0  0  0
   27.0715  -20.3839  -13.8679 C   0  0  0  0  0  0  0  0  0  0  0  0
   27.1614  -18.9511  -13.5577 C   0  0  0  0  0  0  0  0  0  0  0  0
   26.6750  -17.9381  -14.5036 C   0  0  0  0  0  0  0  0  0  0  0  0
   26.6469  -18.2306  -15.9551 C   0  0  2  0  0  0  0  0  0  0  0  0
   27.3174  -17.2943  -16.8093 N   0  0  0  0  0  0  0  0  0  0  0  0
   25.2302  -18.2872  -16.4584 C   0  0  0  0  0  0  0  0  0  0  0  0
   24.4714  -19.2468  -16.1650 O   0  0  0  0  0  0  0  0  0  0  0  0
   26.0851  -23.4340  -12.3338 N   0  0  0  0  0  0  0  0  0  0  0  0
   24.7220  -17.2559  -17.2762 C   0  0  0  0  0  0  0  0  0  0  0  0
   23.3182  -17.2677  -17.7210 C   0  0  0  0  0  0  0  0  0  0  0  0
   22.4228  -16.7672  -16.6543 O   0  0  0  0  0  0  0  0  0  0  0  0
   22.8121  -16.6114  -15.4601 C   0  0  0  0  0  0  0  0  0  0  0  0
   17.3342  -13.4105  -16.6409 C   0  0  1  0  0  0  0  0  0  0  0  0
   18.2324  -14.2788  -15.7337 C   0  0  0  0  0  0  0  0  0  0  0  0
   18.7780  -13.3013  -14.6906 C   0  0  0  0  0  0  0  0  0  0  0  0
   19.2859  -14.8444  -16.6155 C   0  0  2  0  0  0  0  0  0  0  0  0
   20.1088  -15.9511  -16.0557 N   0  0  0  0  0  0  0  0  0  0  0  0
   21.0883  -16.4565  -16.9988 C   0  0  0  0  0  0  0  0  0  0  0  0
   19.3512  -17.0892  -15.5005 O   0  0  0  0  0  0  0  0  0  0  0  0
   18.9277  -17.1345  -14.1817 O   0  0  0  0  0  0  0  0  0  0  0  0
  1  2  1  0
  2  3  2  0
  4  2  1  0
  5  4  1  0
  6  5  1  0
  7  6  1  0
  8  7  1  0
  8 10  1  0
  8  9  1  6
 10 11  2  0
 10 12  1  0
 12 13  1  0
 14 21  1  0
 14 13  1  0
 15 14  2  0
 17 18  1  6
 17 16  1  0
 19 17  1  0
 20 22  1  0
 20 19  1  1
 20 21  1  0
 22 23  1  0
 24 22  2  0
M  END
$$$$
