RGL.pdb
     RDKit          3D

 24 23  0  0  1  0  0  0  0  0999 V2000
   15.2559  -22.1658   -9.1245 N   0  0  0  0  0  0  0  0  0  0  0  0
   13.9154  -21.7946   -8.8412 C   0  0  0  0  0  0  0  0  0  0  0  0
   13.1781  -21.4086   -9.8257 N   0  0  0  0  0  0  0  0  0  0  0  0
   13.3609  -21.8325   -7.5122 N   0  0  0  0  0  0  0  0  0  0  0  0
   14.0468  -22.4434   -6.4341 C   0  0  0  0  0  0  0  0  0  0  0  0
   14.3899  -23.8711   -6.4736 C   0  0  0  0  0  0  0  0  0  0  0  0
   15.1077  -24.5099   -5.3627 C   0  0  0  0  0  0  0  0  0  0  0  0
   16.5538  -24.8052   -5.4854 C   0  0  2  0  0  0  0  0  0  0  0  0
   17.0656  -24.9522   -6.8166 N   0  0  0  0  0  0  0  0  0  0  0  0
   16.8952  -26.0903   -4.7816 C   0  0  0  0  0  0  0  0  0  0  0  0
   17.2989  -27.0964   -5.4199 O   0  0  0  0  0  0  0  0  0  0  0  0
   12.1971  -21.1146   -9.6511 N   0  0  0  0  0  0  0  0  0  0  0  0
   16.7678  -26.1917   -3.3801 C   0  0  0  0  0  0  0  0  0  0  0  0
   17.0969  -27.4453   -2.6810 C   0  0  0  0  0  0  0  0  0  0  0  0
   18.4994  -27.4331   -2.2089 O   0  0  0  0  0  0  0  0  0  0  0  0
   19.3795  -26.6791   -2.7175 C   0  0  0  0  0  0  0  0  0  0  0  0
   20.8899  -25.5344    0.1985 C   0  0  2  0  0  0  0  0  0  0  0  0
   19.8553  -26.4254    0.9194 C   0  0  0  0  0  0  0  0  0  0  0  0
   19.8921  -25.9508    2.3737 C   0  0  0  0  0  0  0  0  0  0  0  0
   20.3237  -27.8246    0.7466 C   0  0  2  0  0  0  0  0  0  0  0  0
   20.1944  -28.4140   -0.6139 N   0  0  0  0  0  0  0  0  0  0  0  0
   18.8517  -28.3008   -1.1508 C   0  0  0  0  0  0  0  0  0  0  0  0
   20.6435  -29.8135   -0.7462 O   0  0  0  0  0  0  0  0  0  0  0  0
   21.9749  -30.1850   -0.6463 O   0  0  0  0  0  0  0  0  0  0  0  0
  1  2  1  0
  2  3  2  0
  4  2  1  0
  5  4  1  0
  6  5  1  0
  7  6  1  0
  8  7  1  0
  8 10  1  0
  8  9  1  6
 10 11  2  0
 10 12  1  0
 12 13  1  0
 14 21  1  0
 14 13  1  0
 15 14  2  0
 17 18  1  1
 17 16  1  0
 19 17  1  0
 20 22  1  0
 20 19  1  6
 20 21  1  0
 22 23  1  0
 24 22  2  0
M  END
$$$$
