RGL.pdb
     RDKit          3D

 24 23  0  0  1  0  0  0  0  0999 V2000
   17.4936  -23.9449  -10.7633 N   0  0  0  0  0  0  0  0  0  0  0  0
   16.4391  -23.7799  -11.6991 C   0  0  0  0  0  0  0  0  0  0  0  0
   15.2447  -24.0786  -11.3172 N   0  0  0  0  0  0  0  0  0  0  0  0
   16.6556  -23.2995  -13.0399 N   0  0  0  0  0  0  0  0  0  0  0  0
   17.8926  -22.7382  -13.4413 C   0  0  0  0  0  0  0  0  0  0  0  0
   19.0446  -22.7281  -12.5302 C   0  0  0  0  0  0  0  0  0  0  0  0
   20.3465  -22.2004  -12.9592 C   0  0  0  0  0  0  0  0  0  0  0  0
   20.6499  -22.0551  -14.4014 C   0  0  2  0  0  0  0  0  0  0  0  0
   21.7050  -22.8766  -14.9188 N   0  0  0  0  0  0  0  0  0  0  0  0
   21.0517  -20.6407  -14.7200 C   0  0  0  0  0  0  0  0  0  0  0  0
   20.1900  -19.7542  -14.9523 O   0  0  0  0  0  0  0  0  0  0  0  0
   14.4455  -23.9385  -11.9660 N   0  0  0  0  0  0  0  0  0  0  0  0
   22.4149  -20.2793  -14.7646 C   0  0  0  0  0  0  0  0  0  0  0  0
   22.8254  -18.8685  -14.6656 C   0  0  0  0  0  0  0  0  0  0  0  0
   24.3002  -18.7491  -14.6401 O   0  0  0  0  0  0  0  0  0  0  0  0
   24.8879  -17.6391  -14.4842 C   0  0  0  0  0  0  0  0  0  0  0  0
   25.7447  -19.9403  -11.8127 C   0  0  1  0  0  0  0  0  0  0  0  0
   26.1401  -21.1885  -12.6308 C   0  0  0  0  0  0  0  0  0  0  0  0
   26.7817  -22.1272  -11.6068 C   0  0  0  0  0  0  0  0  0  0  0  0
   27.0904  -20.7167  -13.6707 C   0  0  1  0  0  0  0  0  0  0  0  0
   26.5151  -19.9510  -14.8099 N   0  0  0  0  0  0  0  0  0  0  0  0
   25.0648  -19.9269  -14.7964 C   0  0  0  0  0  0  0  0  0  0  0  0
   26.9718  -20.3658  -16.1504 O   0  0  0  0  0  0  0  0  0  0  0  0
   26.0953  -20.7278  -17.1611 O   0  0  0  0  0  0  0  0  0  0  0  0
  1  2  1  0
  2  3  2  0
  4  2  1  0
  5  4  1  0
  6  5  1  0
  7  6  1  0
  8  7  1  0
  8 10  1  0
  8  9  1  1
 10 11  2  0
 10 12  1  0
 12 13  1  0
 14 21  1  0
 14 13  1  0
 15 14  2  0
 17 18  1  1
 17 16  1  0
 19 17  1  0
 20 22  1  0
 20 19  1  1
 20 21  1  0
 22 23  1  0
 24 22  2  0
M  END
$$$$
