RGL.pdb
     RDKit          3D

 24 23  0  0  1  0  0  0  0  0999 V2000
   27.0708  -25.4962  -20.1468 N   0  0  0  0  0  0  0  0  0  0  0  0
   26.1931  -25.0336  -21.1618 C   0  0  0  0  0  0  0  0  0  0  0  0
   26.2662  -25.5938  -22.3205 N   0  0  0  0  0  0  0  0  0  0  0  0
   25.2402  -23.9752  -20.9447 N   0  0  0  0  0  0  0  0  0  0  0  0
   25.0768  -23.3662  -19.6765 C   0  0  0  0  0  0  0  0  0  0  0  0
   24.6108  -24.1460  -18.5223 C   0  0  0  0  0  0  0  0  0  0  0  0
   24.3701  -23.5068  -17.2220 C   0  0  0  0  0  0  0  0  0  0  0  0
   25.4066  -22.6379  -16.6187 C   0  0  2  0  0  0  0  0  0  0  0  0
   26.7617  -23.0954  -16.7182 N   0  0  0  0  0  0  0  0  0  0  0  0
   25.1542  -22.4528  -15.1472 C   0  0  0  0  0  0  0  0  0  0  0  0
   25.8457  -23.0547  -14.2858 O   0  0  0  0  0  0  0  0  0  0  0  0
   25.6489  -25.2690  -23.0904 N   0  0  0  0  0  0  0  0  0  0  0  0
   24.1277  -21.5931  -14.7021 C   0  0  0  0  0  0  0  0  0  0  0  0
   23.9385  -21.3233  -13.2668 C   0  0  0  0  0  0  0  0  0  0  0  0
   22.8273  -20.3700  -13.0515 O   0  0  0  0  0  0  0  0  0  0  0  0
   23.0138  -19.2016  -12.6020 C   0  0  0  0  0  0  0  0  0  0  0  0
   21.4511  -17.5117  -15.6931 C   0  0  2  0  0  0  0  0  0  0  0  0
   22.1531  -18.8782  -15.8465 C   0  0  0  0  0  0  0  0  0  0  0  0
   22.6836  -18.8744  -17.2818 C   0  0  0  0  0  0  0  0  0  0  0  0
   21.1087  -19.9079  -15.6096 C   0  0  2  0  0  0  0  0  0  0  0  0
   20.6085  -20.0501  -14.2151 N   0  0  0  0  0  0  0  0  0  0  0  0
   21.5169  -20.7956  -13.3647 C   0  0  0  0  0  0  0  0  0  0  0  0
   19.2541  -20.6202  -14.0801 O   0  0  0  0  0  0  0  0  0  0  0  0
   19.0110  -21.9845  -14.0979 O   0  0  0  0  0  0  0  0  0  0  0  0
  1  2  1  0
  2  3  2  0
  4  2  1  0
  5  4  1  0
  6  5  1  0
  7  6  1  0
  8  7  1  0
  8 10  1  0
  8  9  1  1
 10 11  2  0
 10 12  1  0
 12 13  1  0
 14 21  1  0
 14 13  1  0
 15 14  2  0
 17 18  1  1
 17 16  1  0
 19 17  1  0
 20 22  1  0
 20 19  1  1
 20 21  1  0
 22 23  1  0
 24 22  2  0
M  END
$$$$
