QDN.pdb
     RDKit          3D

 26 25  0  0  1  0  0  0  0  0999 V2000
    6.5175  -13.8911   19.5204 N   0  0  0  0  0  0  0  0  0  0  0  0
    7.0153  -14.1423   18.1930 C   0  0  0  0  0  0  0  0  0  0  0  0
    6.6862  -13.3348   17.3195 O   0  0  0  0  0  0  0  0  0  0  0  0
    7.8602  -15.3393   18.0411 C   0  0  0  0  0  0  0  0  0  0  0  0
    8.0537  -16.1463   19.2708 C   0  0  0  0  0  0  0  0  0  0  0  0
    8.8720  -15.4150   20.2951 C   0  0  2  0  0  0  0  0  0  0  0  0
   10.0629  -14.8328   19.6650 N   0  0  0  0  0  0  0  0  0  0  0  0
    9.3440  -16.3660   21.3290 C   0  0  0  0  0  0  0  0  0  0  0  0
    8.5341  -17.1902   21.8128 O   0  0  0  0  0  0  0  0  0  0  0  0
   10.6974  -16.3769   21.7967 N   0  0  0  0  0  0  0  0  0  0  0  0
   11.0577  -17.2777   22.8372 C   0  0  1  0  0  0  0  0  0  0  0  0
   12.5379  -17.2405   23.0945 C   0  0  0  0  0  0  0  0  0  0  0  0
   13.2940  -17.5807   21.8771 C   0  0  0  0  0  0  0  0  0  0  0  0
   13.8005  -16.7008   21.1571 O   0  0  0  0  0  0  0  0  0  0  0  0
   10.3156  -17.0728   24.0898 C   0  0  0  0  0  0  0  0  0  0  0  0
   10.1222  -15.9981   24.6793 O   0  0  0  0  0  0  0  0  0  0  0  0
   13.4668  -18.9248   21.4899 O   0  0  0  0  0  0  0  0  0  0  0  0
    7.3434  -20.3090   28.0217 N   0  0  0  0  0  0  0  0  0  0  0  0
    7.1003  -19.2490   27.0724 C   0  0  0  0  0  0  0  0  0  0  0  0
    6.2236  -18.4264   27.4255 O   0  0  0  0  0  0  0  0  0  0  0  0
    7.8567  -19.1955   25.8071 C   0  0  0  0  0  0  0  0  0  0  0  0
    8.9808  -18.1968   25.8951 C   0  0  2  0  0  0  0  0  0  0  0  0
    9.7543  -18.2631   24.6895 N   0  0  0  0  0  0  0  0  0  0  0  0
    9.8793  -18.4269   27.0538 C   0  0  0  0  0  0  0  0  0  0  0  0
   11.1587  -18.9122   26.8278 O   0  0  0  0  0  0  0  0  0  0  0  0
    9.5478  -18.2059   28.2471 O   0  0  0  0  0  0  0  0  0  0  0  0
  2  1  1  0
  2  3  2  0
  4  5  1  0
  4  2  1  0
  5  6  1  0
  6  7  1  6
  8  6  1  0
  8 10  1  0
  9  8  2  0
 11 10  1  0
 11 12  1  1
 13 14  2  0
 13 12  1  0
 15 11  1  0
 16 15  2  0
 17 13  1  0
 18 19  1  0
 19 21  1  0
 20 19  2  0
 22 21  1  6
 22 24  1  0
 22 23  1  0
 23 15  1  0
 24 25  1  0
 26 24  2  0
M  END
$$$$
