QDN.pdb
     RDKit          3D

 26 25  0  0  1  0  0  0  0  0999 V2000
    7.4280  -12.7121   13.5476 N   0  0  0  0  0  0  0  0  0  0  0  0
    7.4800  -13.7753   14.5169 C   0  0  0  0  0  0  0  0  0  0  0  0
    6.7043  -14.7191   14.3412 O   0  0  0  0  0  0  0  0  0  0  0  0
    8.4581  -13.6037   15.6049 C   0  0  0  0  0  0  0  0  0  0  0  0
    8.9103  -14.8544   16.2623 C   0  0  0  0  0  0  0  0  0  0  0  0
    9.8445  -15.6384   15.3870 C   0  0  2  0  0  0  0  0  0  0  0  0
    9.0942  -16.2887   14.3061 N   0  0  0  0  0  0  0  0  0  0  0  0
   10.4892  -16.7116   16.1801 C   0  0  0  0  0  0  0  0  0  0  0  0
    9.7905  -17.3883   16.9695 O   0  0  0  0  0  0  0  0  0  0  0  0
   11.8872  -17.0039   16.0762 N   0  0  0  0  0  0  0  0  0  0  0  0
   12.4372  -18.0305   16.8933 C   0  0  1  0  0  0  0  0  0  0  0  0
   13.7494  -18.5135   16.3426 C   0  0  0  0  0  0  0  0  0  0  0  0
   13.5471  -19.3187   15.1261 C   0  0  0  0  0  0  0  0  0  0  0  0
   12.5666  -20.0748   15.0003 O   0  0  0  0  0  0  0  0  0  0  0  0
   12.5827  -17.6562   18.3077 C   0  0  0  0  0  0  0  0  0  0  0  0
   12.9261  -16.5527   18.7595 O   0  0  0  0  0  0  0  0  0  0  0  0
   14.4671  -19.2549   14.0602 O   0  0  0  0  0  0  0  0  0  0  0  0
    8.7214  -18.5354   20.7459 N   0  0  0  0  0  0  0  0  0  0  0  0
   10.0110  -18.0565   21.1831 C   0  0  0  0  0  0  0  0  0  0  0  0
   10.0610  -16.8234   21.4001 O   0  0  0  0  0  0  0  0  0  0  0  0
   11.1383  -18.9945   21.3419 C   0  0  0  0  0  0  0  0  0  0  0  0
   12.3799  -18.4594   20.6778 C   0  0  2  0  0  0  0  0  0  0  0  0
   12.2897  -18.6982   19.2667 N   0  0  0  0  0  0  0  0  0  0  0  0
   13.6295  -19.0762   21.1889 C   0  0  0  0  0  0  0  0  0  0  0  0
   14.0218  -20.3112   20.6948 O   0  0  0  0  0  0  0  0  0  0  0  0
   14.3667  -18.5403   22.0560 O   0  0  0  0  0  0  0  0  0  0  0  0
  2  1  1  0
  2  3  2  0
  4  5  1  0
  4  2  1  0
  5  6  1  0
  6  7  1  6
  8  6  1  0
  8 10  1  0
  9  8  2  0
 11 10  1  0
 11 12  1  6
 13 14  2  0
 13 12  1  0
 15 11  1  0
 16 15  2  0
 17 13  1  0
 18 19  1  0
 19 21  1  0
 20 19  2  0
 22 21  1  1
 22 24  1  0
 22 23  1  0
 23 15  1  0
 24 25  1  0
 26 24  2  0
M  END
$$$$
