QDN.pdb
     RDKit          3D

 26 25  0  0  1  0  0  0  0  0999 V2000
    6.5545  -14.9950   16.7736 N   0  0  0  0  0  0  0  0  0  0  0  0
    7.5853  -13.9920   16.7064 C   0  0  0  0  0  0  0  0  0  0  0  0
    8.5126  -14.2073   15.9209 O   0  0  0  0  0  0  0  0  0  0  0  0
    7.4044  -12.8267   17.5891 C   0  0  0  0  0  0  0  0  0  0  0  0
    7.5797  -13.0886   19.0387 C   0  0  0  0  0  0  0  0  0  0  0  0
    9.0190  -13.3272   19.3925 C   0  0  2  0  0  0  0  0  0  0  0  0
    9.7736  -13.7148   18.1948 N   0  0  0  0  0  0  0  0  0  0  0  0
    9.1172  -14.4501   20.3547 C   0  0  0  0  0  0  0  0  0  0  0  0
    8.5772  -14.3368   21.4793 O   0  0  0  0  0  0  0  0  0  0  0  0
    9.8098  -15.6643   20.0441 N   0  0  0  0  0  0  0  0  0  0  0  0
    9.9183  -16.6690   21.0455 C   0  0  1  0  0  0  0  0  0  0  0  0
    9.2420  -17.9389   20.6112 C   0  0  0  0  0  0  0  0  0  0  0  0
    8.9961  -18.8259   21.7610 C   0  0  0  0  0  0  0  0  0  0  0  0
    9.8343  -18.9612   22.6710 O   0  0  0  0  0  0  0  0  0  0  0  0
   11.2987  -16.9442   21.4702 C   0  0  0  0  0  0  0  0  0  0  0  0
   11.8307  -18.0558   21.6157 O   0  0  0  0  0  0  0  0  0  0  0  0
    7.7932  -19.5532   21.8639 O   0  0  0  0  0  0  0  0  0  0  0  0
   16.3522  -14.6698   20.3131 N   0  0  0  0  0  0  0  0  0  0  0  0
   15.6024  -14.5556   21.5413 C   0  0  0  0  0  0  0  0  0  0  0  0
   16.3063  -14.5004   22.5765 O   0  0  0  0  0  0  0  0  0  0  0  0
   14.1282  -14.5126   21.5117 C   0  0  0  0  0  0  0  0  0  0  0  0
   13.5454  -15.8718   21.7970 C   0  0  2  0  0  0  0  0  0  0  0  0
   12.1151  -15.7825   21.7446 N   0  0  0  0  0  0  0  0  0  0  0  0
   13.9432  -16.4137   23.1203 C   0  0  0  0  0  0  0  0  0  0  0  0
   15.0856  -17.1946   23.2123 O   0  0  0  0  0  0  0  0  0  0  0  0
   13.2988  -16.2056   24.1805 O   0  0  0  0  0  0  0  0  0  0  0  0
  2  1  1  0
  2  3  2  0
  4  5  1  0
  4  2  1  0
  5  6  1  0
  6  7  1  6
  8  6  1  0
  8 10  1  0
  9  8  2  0
 11 10  1  0
 11 12  1  6
 13 14  2  0
 13 12  1  0
 15 11  1  0
 16 15  2  0
 17 13  1  0
 18 19  1  0
 19 21  1  0
 20 19  2  0
 22 21  1  1
 22 24  1  0
 22 23  1  0
 23 15  1  0
 24 25  1  0
 26 24  2  0
M  END
$$$$
