QDN.pdb
     RDKit          3D

 26 25  0  0  1  0  0  0  0  0999 V2000
    7.2184  -12.8165   17.4452 N   0  0  0  0  0  0  0  0  0  0  0  0
    6.9133  -13.5453   16.2416 C   0  0  0  0  0  0  0  0  0  0  0  0
    6.4005  -12.9006   15.3225 O   0  0  0  0  0  0  0  0  0  0  0  0
    7.2526  -14.9787   16.2567 C   0  0  0  0  0  0  0  0  0  0  0  0
    7.7499  -15.5050   17.5515 C   0  0  0  0  0  0  0  0  0  0  0  0
    9.0153  -14.8218   17.9825 C   0  0  2  0  0  0  0  0  0  0  0  0
    9.7793  -14.3900   16.8060 N   0  0  0  0  0  0  0  0  0  0  0  0
    9.8670  -15.7750   18.7323 C   0  0  0  0  0  0  0  0  0  0  0  0
    9.3492  -16.4754   19.6326 O   0  0  0  0  0  0  0  0  0  0  0  0
   11.2656  -15.9247   18.4639 N   0  0  0  0  0  0  0  0  0  0  0  0
   12.0247  -16.8291   19.2574 C   0  0  1  0  0  0  0  0  0  0  0  0
   13.3466  -17.1353   18.6113 C   0  0  0  0  0  0  0  0  0  0  0  0
   13.1569  -17.7293   17.2769 C   0  0  0  0  0  0  0  0  0  0  0  0
   13.5464  -17.1524   16.2451 O   0  0  0  0  0  0  0  0  0  0  0  0
   12.2242  -16.3857   20.6450 C   0  0  0  0  0  0  0  0  0  0  0  0
   12.9357  -15.4477   21.0372 O   0  0  0  0  0  0  0  0  0  0  0  0
   12.5231  -18.9795   17.1297 O   0  0  0  0  0  0  0  0  0  0  0  0
   11.5858  -16.3425   25.7507 N   0  0  0  0  0  0  0  0  0  0  0  0
   10.3779  -16.8787   25.1699 C   0  0  0  0  0  0  0  0  0  0  0  0
    9.4458  -17.0623   25.9869 O   0  0  0  0  0  0  0  0  0  0  0  0
   10.3111  -17.1655   23.7245 C   0  0  0  0  0  0  0  0  0  0  0  0
   11.6019  -16.7938   23.0429 C   0  0  2  0  0  0  0  0  0  0  0  0
   11.5059  -17.1335   21.6530 N   0  0  0  0  0  0  0  0  0  0  0  0
   12.7869  -17.4749   23.6216 C   0  0  0  0  0  0  0  0  0  0  0  0
   13.3763  -16.9484   24.7613 O   0  0  0  0  0  0  0  0  0  0  0  0
   13.2984  -18.5163   23.1353 O   0  0  0  0  0  0  0  0  0  0  0  0
  2  1  1  0
  2  3  2  0
  4  5  1  0
  4  2  1  0
  5  6  1  0
  6  7  1  6
  8  6  1  0
  8 10  1  0
  9  8  2  0
 11 10  1  0
 11 12  1  6
 13 14  2  0
 13 12  1  0
 15 11  1  0
 16 15  2  0
 17 13  1  0
 18 19  1  0
 19 21  1  0
 20 19  2  0
 22 21  1  1
 22 24  1  0
 22 23  1  0
 23 15  1  0
 24 25  1  0
 26 24  2  0
M  END
$$$$
