QDN.pdb
     RDKit          3D

 26 25  0  0  1  0  0  0  0  0999 V2000
    8.2268  -12.6997   17.2532 N   0  0  0  0  0  0  0  0  0  0  0  0
    8.0535  -13.9197   16.5085 C   0  0  0  0  0  0  0  0  0  0  0  0
    8.2426  -13.8531   15.2907 O   0  0  0  0  0  0  0  0  0  0  0  0
    7.6691  -15.1030   17.2971 C   0  0  0  0  0  0  0  0  0  0  0  0
    7.4611  -14.8660   18.7468 C   0  0  0  0  0  0  0  0  0  0  0  0
    8.7624  -14.7138   19.4796 C   0  0  2  0  0  0  0  0  0  0  0  0
    9.8267  -15.4327   18.7691 N   0  0  0  0  0  0  0  0  0  0  0  0
    8.6499  -15.3183   20.8279 C   0  0  0  0  0  0  0  0  0  0  0  0
    7.6472  -15.0551   21.5311 O   0  0  0  0  0  0  0  0  0  0  0  0
    9.6499  -16.1957   21.3580 N   0  0  0  0  0  0  0  0  0  0  0  0
    9.4776  -16.7219   22.6685 C   0  0  1  0  0  0  0  0  0  0  0  0
   10.4293  -17.8567   22.9236 C   0  0  0  0  0  0  0  0  0  0  0  0
   10.1999  -18.9611   21.9765 C   0  0  0  0  0  0  0  0  0  0  0  0
   11.0292  -19.2450   21.0929 O   0  0  0  0  0  0  0  0  0  0  0  0
    9.5830  -15.7162   23.7359 C   0  0  0  0  0  0  0  0  0  0  0  0
   10.5775  -15.0337   24.0272 O   0  0  0  0  0  0  0  0  0  0  0  0
    9.0238  -19.7347   22.0451 O   0  0  0  0  0  0  0  0  0  0  0  0
    5.7816  -12.1264   26.9501 N   0  0  0  0  0  0  0  0  0  0  0  0
    6.9976  -12.8669   26.7119 C   0  0  0  0  0  0  0  0  0  0  0  0
    7.9082  -12.6527   27.5456 O   0  0  0  0  0  0  0  0  0  0  0  0
    7.0959  -13.7856   25.5621 C   0  0  0  0  0  0  0  0  0  0  0  0
    8.3702  -14.5866   25.6219 C   0  0  2  0  0  0  0  0  0  0  0  0
    8.3887  -15.5097   24.5247 N   0  0  0  0  0  0  0  0  0  0  0  0
    8.5264  -15.3447   26.8883 C   0  0  0  0  0  0  0  0  0  0  0  0
    9.2488  -14.7779   27.9277 O   0  0  0  0  0  0  0  0  0  0  0  0
    8.0369  -16.4874   27.0811 O   0  0  0  0  0  0  0  0  0  0  0  0
  2  1  1  0
  2  3  2  0
  4  5  1  0
  4  2  1  0
  5  6  1  0
  6  7  1  6
  8  6  1  0
  8 10  1  0
  9  8  2  0
 11 10  1  0
 11 12  1  1
 13 14  2  0
 13 12  1  0
 15 11  1  0
 16 15  2  0
 17 13  1  0
 18 19  1  0
 19 21  1  0
 20 19  2  0
 22 21  1  1
 22 24  1  0
 22 23  1  0
 23 15  1  0
 24 25  1  0
 26 24  2  0
M  END
$$$$
