QDN.pdb
     RDKit          3D

 26 25  0  0  1  0  0  0  0  0999 V2000
    7.7638  -15.3507   14.5131 N   0  0  0  0  0  0  0  0  0  0  0  0
    7.5639  -13.9579   14.8184 C   0  0  0  0  0  0  0  0  0  0  0  0
    6.8978  -13.3069   14.0086 O   0  0  0  0  0  0  0  0  0  0  0  0
    8.1834  -13.4799   16.0664 C   0  0  0  0  0  0  0  0  0  0  0  0
    8.9375  -14.4984   16.8376 C   0  0  0  0  0  0  0  0  0  0  0  0
    9.1413  -14.0797   18.2647 C   0  0  2  0  0  0  0  0  0  0  0  0
    9.9563  -12.8602   18.3194 N   0  0  0  0  0  0  0  0  0  0  0  0
    9.8829  -15.1353   18.9939 C   0  0  0  0  0  0  0  0  0  0  0  0
    9.3645  -16.2691   19.1164 O   0  0  0  0  0  0  0  0  0  0  0  0
   11.1755  -14.9053   19.5656 N   0  0  0  0  0  0  0  0  0  0  0  0
   11.8242  -15.9711   20.2490 C   0  0  1  0  0  0  0  0  0  0  0  0
   13.2416  -16.1319   19.7759 C   0  0  0  0  0  0  0  0  0  0  0  0
   13.8183  -14.8341   19.3855 C   0  0  0  0  0  0  0  0  0  0  0  0
   13.7635  -14.4229   18.2120 O   0  0  0  0  0  0  0  0  0  0  0  0
   11.7842  -15.8550   21.7142 C   0  0  0  0  0  0  0  0  0  0  0  0
   12.3646  -16.5774   22.5395 O   0  0  0  0  0  0  0  0  0  0  0  0
   14.4543  -14.0137   20.3389 O   0  0  0  0  0  0  0  0  0  0  0  0
    6.6955  -14.0365   24.4915 N   0  0  0  0  0  0  0  0  0  0  0  0
    7.9762  -14.6968   24.4048 C   0  0  0  0  0  0  0  0  0  0  0  0
    8.3054  -15.3294   25.4352 O   0  0  0  0  0  0  0  0  0  0  0  0
    8.7835  -14.5960   23.1744 C   0  0  0  0  0  0  0  0  0  0  0  0
   10.2271  -14.9253   23.4506 C   0  0  2  0  0  0  0  0  0  0  0  0
   10.9764  -14.7755   22.2371 N   0  0  0  0  0  0  0  0  0  0  0  0
   10.4249  -16.3021   23.9687 C   0  0  0  0  0  0  0  0  0  0  0  0
    9.9363  -17.3738   23.2364 O   0  0  0  0  0  0  0  0  0  0  0  0
   11.0173  -16.5619   25.0476 O   0  0  0  0  0  0  0  0  0  0  0  0
  2  1  1  0
  2  3  2  0
  4  5  1  0
  4  2  1  0
  5  6  1  0
  6  7  1  6
  8  6  1  0
  8 10  1  0
  9  8  2  0
 11 10  1  0
 11 12  1  6
 13 14  2  0
 13 12  1  0
 15 11  1  0
 16 15  2  0
 17 13  1  0
 18 19  1  0
 19 21  1  0
 20 19  2  0
 22 21  1  6
 22 24  1  0
 22 23  1  0
 23 15  1  0
 24 25  1  0
 26 24  2  0
M  END
$$$$
