QDN.pdb
     RDKit          3D

 26 25  0  0  1  0  0  0  0  0999 V2000
   16.1696  -13.0978   17.1337 N   0  0  0  0  0  0  0  0  0  0  0  0
   15.6775  -13.6130   18.3848 C   0  0  0  0  0  0  0  0  0  0  0  0
   16.5041  -13.7352   19.2932 O   0  0  0  0  0  0  0  0  0  0  0  0
   14.2402  -13.9328   18.4255 C   0  0  0  0  0  0  0  0  0  0  0  0
   13.8429  -15.1832   17.7330 C   0  0  0  0  0  0  0  0  0  0  0  0
   12.3737  -15.4570   17.8750 C   0  0  2  0  0  0  0  0  0  0  0  0
   11.6406  -14.1958   18.0370 N   0  0  0  0  0  0  0  0  0  0  0  0
   12.1317  -16.2642   19.0939 C   0  0  0  0  0  0  0  0  0  0  0  0
   11.5317  -15.7410   20.0611 O   0  0  0  0  0  0  0  0  0  0  0  0
   12.5607  -17.6258   19.2066 N   0  0  0  0  0  0  0  0  0  0  0  0
   12.2446  -18.3503   20.3894 C   0  0  1  0  0  0  0  0  0  0  0  0
   12.1745  -19.8264   20.1155 C   0  0  0  0  0  0  0  0  0  0  0  0
   13.4256  -20.3104   19.5073 C   0  0  0  0  0  0  0  0  0  0  0  0
   14.3732  -20.7192   20.2030 O   0  0  0  0  0  0  0  0  0  0  0  0
   13.1503  -18.0816   21.5160 C   0  0  0  0  0  0  0  0  0  0  0  0
   14.3391  -18.4221   21.6196 O   0  0  0  0  0  0  0  0  0  0  0  0
   13.5862  -20.3243   18.1071 O   0  0  0  0  0  0  0  0  0  0  0  0
   10.1627  -20.1958   25.8064 N   0  0  0  0  0  0  0  0  0  0  0  0
   11.2823  -19.3667   25.4284 C   0  0  0  0  0  0  0  0  0  0  0  0
   12.1538  -19.2331   26.3188 O   0  0  0  0  0  0  0  0  0  0  0  0
   11.3359  -18.7554   24.0871 C   0  0  0  0  0  0  0  0  0  0  0  0
   12.5509  -17.8765   23.9455 C   0  0  2  0  0  0  0  0  0  0  0  0
   12.5800  -17.3374   22.6170 N   0  0  0  0  0  0  0  0  0  0  0  0
   13.8253  -18.5937   24.1994 C   0  0  0  0  0  0  0  0  0  0  0  0
   14.7632  -18.0210   25.0454 O   0  0  0  0  0  0  0  0  0  0  0  0
   14.1127  -19.7061   23.6870 O   0  0  0  0  0  0  0  0  0  0  0  0
  2  1  1  0
  2  3  2  0
  4  5  1  0
  4  2  1  0
  5  6  1  0
  6  7  1  1
  8  6  1  0
  8 10  1  0
  9  8  2  0
 11 10  1  0
 11 12  1  6
 13 14  2  0
 13 12  1  0
 15 11  1  0
 16 15  2  0
 17 13  1  0
 18 19  1  0
 19 21  1  0
 20 19  2  0
 22 21  1  6
 22 24  1  0
 22 23  1  0
 23 15  1  0
 24 25  1  0
 26 24  2  0
M  END
$$$$
