QDN.pdb
     RDKit          3D

 26 25  0  0  1  0  0  0  0  0999 V2000
    8.6752  -12.5590   17.7249 N   0  0  0  0  0  0  0  0  0  0  0  0
    7.4957  -12.8383   18.5018 C   0  0  0  0  0  0  0  0  0  0  0  0
    6.4337  -12.3750   18.0765 O   0  0  0  0  0  0  0  0  0  0  0  0
    7.7040  -13.6467   19.7155 C   0  0  0  0  0  0  0  0  0  0  0  0
    9.1001  -14.0841   19.9613 C   0  0  0  0  0  0  0  0  0  0  0  0
    9.6498  -14.8709   18.8069 C   0  0  2  0  0  0  0  0  0  0  0  0
    8.8863  -16.1127   18.6359 N   0  0  0  0  0  0  0  0  0  0  0  0
   11.0534  -15.2546   19.0874 C   0  0  0  0  0  0  0  0  0  0  0  0
   11.2942  -16.4027   19.5268 O   0  0  0  0  0  0  0  0  0  0  0  0
   12.1485  -14.3569   18.8735 N   0  0  0  0  0  0  0  0  0  0  0  0
   13.4677  -14.7995   19.1696 C   0  0  1  0  0  0  0  0  0  0  0  0
   14.4745  -14.1296   18.2773 C   0  0  0  0  0  0  0  0  0  0  0  0
   15.7543  -14.8586   18.2849 C   0  0  0  0  0  0  0  0  0  0  0  0
   16.1926  -15.4171   17.2626 O   0  0  0  0  0  0  0  0  0  0  0  0
   13.8495  -14.6412   20.5806 C   0  0  0  0  0  0  0  0  0  0  0  0
   14.2419  -13.6049   21.1392 O   0  0  0  0  0  0  0  0  0  0  0  0
   16.5258  -14.9449   19.4613 O   0  0  0  0  0  0  0  0  0  0  0  0
   12.9107  -18.6904   24.1588 N   0  0  0  0  0  0  0  0  0  0  0  0
   12.5050  -17.6117   23.2894 C   0  0  0  0  0  0  0  0  0  0  0  0
   11.8210  -17.9693   22.3023 O   0  0  0  0  0  0  0  0  0  0  0  0
   12.8969  -16.2228   23.5946 C   0  0  0  0  0  0  0  0  0  0  0  0
   14.1005  -15.8144   22.7862 C   0  0  2  0  0  0  0  0  0  0  0  0
   13.7517  -15.8319   21.3954 N   0  0  0  0  0  0  0  0  0  0  0  0
   15.2745  -16.6977   22.9967 C   0  0  0  0  0  0  0  0  0  0  0  0
   15.8910  -16.7137   24.2389 O   0  0  0  0  0  0  0  0  0  0  0  0
   15.7531  -17.4446   22.1048 O   0  0  0  0  0  0  0  0  0  0  0  0
  2  1  1  0
  2  3  2  0
  4  5  1  0
  4  2  1  0
  5  6  1  0
  6  7  1  1
  8  6  1  0
  8 10  1  0
  9  8  2  0
 11 10  1  0
 11 12  1  6
 13 14  2  0
 13 12  1  0
 15 11  1  0
 16 15  2  0
 17 13  1  0
 18 19  1  0
 19 21  1  0
 20 19  2  0
 22 21  1  1
 22 24  1  0
 22 23  1  0
 23 15  1  0
 24 25  1  0
 26 24  2  0
M  END
$$$$
