QDN.pdb
     RDKit          3D

 26 25  0  0  1  0  0  0  0  0999 V2000
    8.4617  -12.1843   19.2949 N   0  0  0  0  0  0  0  0  0  0  0  0
    8.0758  -13.4314   18.6876 C   0  0  0  0  0  0  0  0  0  0  0  0
    8.6924  -13.7628   17.6711 O   0  0  0  0  0  0  0  0  0  0  0  0
    6.9863  -14.1611   19.3586 C   0  0  0  0  0  0  0  0  0  0  0  0
    7.1551  -14.3627   20.8186 C   0  0  0  0  0  0  0  0  0  0  0  0
    8.5638  -14.7445   21.1700 C   0  0  2  0  0  0  0  0  0  0  0  0
    9.0657  -15.7442   20.2197 N   0  0  0  0  0  0  0  0  0  0  0  0
    8.5920  -15.3657   22.5151 C   0  0  0  0  0  0  0  0  0  0  0  0
    7.6289  -15.1760   23.2933 O   0  0  0  0  0  0  0  0  0  0  0  0
    9.6847  -16.1778   22.9591 N   0  0  0  0  0  0  0  0  0  0  0  0
    9.7121  -16.6123   24.3135 C   0  0  1  0  0  0  0  0  0  0  0  0
   10.6910  -17.7373   24.4995 C   0  0  0  0  0  0  0  0  0  0  0  0
   10.4055  -18.8445   23.5712 C   0  0  0  0  0  0  0  0  0  0  0  0
    9.3069  -19.4294   23.5723 O   0  0  0  0  0  0  0  0  0  0  0  0
    9.9775  -15.5380   25.2816 C   0  0  0  0  0  0  0  0  0  0  0  0
   10.9455  -14.7617   25.2930 O   0  0  0  0  0  0  0  0  0  0  0  0
   11.3776  -19.2768   22.6467 O   0  0  0  0  0  0  0  0  0  0  0  0
    6.0097  -13.2169   25.9674 N   0  0  0  0  0  0  0  0  0  0  0  0
    7.3514  -13.0139   26.4598 C   0  0  0  0  0  0  0  0  0  0  0  0
    8.0249  -12.1843   25.8054 O   0  0  0  0  0  0  0  0  0  0  0  0
    7.8298  -13.7543   27.6424 C   0  0  0  0  0  0  0  0  0  0  0  0
    9.1607  -14.4039   27.3673 C   0  0  2  0  0  0  0  0  0  0  0  0
    8.9940  -15.3796   26.3298 N   0  0  0  0  0  0  0  0  0  0  0  0
    9.7461  -15.0673   28.5590 C   0  0  0  0  0  0  0  0  0  0  0  0
   10.1473  -14.2884   29.6341 O   0  0  0  0  0  0  0  0  0  0  0  0
    9.9035  -16.3116   28.6566 O   0  0  0  0  0  0  0  0  0  0  0  0
  2  1  1  0
  2  3  2  0
  4  5  1  0
  4  2  1  0
  5  6  1  0
  6  7  1  6
  8  6  1  0
  8 10  1  0
  9  8  2  0
 11 10  1  0
 11 12  1  6
 13 14  2  0
 13 12  1  0
 15 11  1  0
 16 15  2  0
 17 13  1  0
 18 19  1  0
 19 21  1  0
 20 19  2  0
 22 21  1  1
 22 24  1  0
 22 23  1  0
 23 15  1  0
 24 25  1  0
 26 24  2  0
M  END
$$$$
