QDN.pdb
     RDKit          3D

 26 25  0  0  1  0  0  0  0  0999 V2000
    8.7686  -15.6760   15.5917 N   0  0  0  0  0  0  0  0  0  0  0  0
    8.1135  -14.5069   15.0653 C   0  0  0  0  0  0  0  0  0  0  0  0
    7.4758  -14.6571   14.0193 O   0  0  0  0  0  0  0  0  0  0  0  0
    8.2872  -13.2692   15.8447 C   0  0  0  0  0  0  0  0  0  0  0  0
    9.0134  -13.4186   17.1297 C   0  0  0  0  0  0  0  0  0  0  0  0
    8.0884  -13.7847   18.2540 C   0  0  2  0  0  0  0  0  0  0  0  0
    7.5220  -12.5711   18.8545 N   0  0  0  0  0  0  0  0  0  0  0  0
    8.8469  -14.4862   19.3164 C   0  0  0  0  0  0  0  0  0  0  0  0
    9.5114  -13.8114   20.1364 O   0  0  0  0  0  0  0  0  0  0  0  0
    8.8478  -15.9129   19.4398 N   0  0  0  0  0  0  0  0  0  0  0  0
    9.7584  -16.5237   20.3463 C   0  0  1  0  0  0  0  0  0  0  0  0
    9.2774  -17.8867   20.7577 C   0  0  0  0  0  0  0  0  0  0  0  0
   10.1812  -18.4871   21.7537 C   0  0  0  0  0  0  0  0  0  0  0  0
   11.1607  -17.8650   22.2040 O   0  0  0  0  0  0  0  0  0  0  0  0
   11.1398  -16.5976   19.8482 C   0  0  0  0  0  0  0  0  0  0  0  0
   11.5446  -17.2134   18.8499 O   0  0  0  0  0  0  0  0  0  0  0  0
    9.9601  -19.7953   22.2294 O   0  0  0  0  0  0  0  0  0  0  0  0
   15.3832  -13.8435   18.0113 N   0  0  0  0  0  0  0  0  0  0  0  0
   15.1146  -14.0437   19.4154 C   0  0  0  0  0  0  0  0  0  0  0  0
   16.1313  -14.0193   20.1475 O   0  0  0  0  0  0  0  0  0  0  0  0
   13.7326  -14.2545   19.8858 C   0  0  0  0  0  0  0  0  0  0  0  0
   13.4711  -15.7147   20.1473 C   0  0  2  0  0  0  0  0  0  0  0  0
   12.1242  -15.8672   20.6154 N   0  0  0  0  0  0  0  0  0  0  0  0
   14.3954  -16.3053   21.1472 C   0  0  0  0  0  0  0  0  0  0  0  0
   14.1156  -16.1506   22.4967 O   0  0  0  0  0  0  0  0  0  0  0  0
   15.4332  -16.9477   20.8424 O   0  0  0  0  0  0  0  0  0  0  0  0
  2  1  1  0
  2  3  2  0
  4  5  1  0
  4  2  1  0
  5  6  1  0
  6  7  1  1
  8  6  1  0
  8 10  1  0
  9  8  2  0
 11 10  1  0
 11 12  1  6
 13 14  2  0
 13 12  1  0
 15 11  1  0
 16 15  2  0
 17 13  1  0
 18 19  1  0
 19 21  1  0
 20 19  2  0
 22 21  1  1
 22 24  1  0
 22 23  1  0
 23 15  1  0
 24 25  1  0
 26 24  2  0
M  END
$$$$
