QDN.pdb
     RDKit          3D

 26 25  0  0  1  0  0  0  0  0999 V2000
    8.2538  -12.6272   19.1677 N   0  0  0  0  0  0  0  0  0  0  0  0
    7.7119  -13.6531   18.3152 C   0  0  0  0  0  0  0  0  0  0  0  0
    7.5927  -13.3698   17.1199 O   0  0  0  0  0  0  0  0  0  0  0  0
    7.3643  -14.9211   18.9796 C   0  0  0  0  0  0  0  0  0  0  0  0
    7.5020  -14.9284   20.4567 C   0  0  0  0  0  0  0  0  0  0  0  0
    8.9362  -14.8086   20.8840 C   0  0  2  0  0  0  0  0  0  0  0  0
    9.8084  -15.4759   19.9102 N   0  0  0  0  0  0  0  0  0  0  0  0
    9.1284  -15.4919   22.1848 C   0  0  0  0  0  0  0  0  0  0  0  0
    8.2773  -15.3290   23.0894 O   0  0  0  0  0  0  0  0  0  0  0  0
   10.2562  -16.3347   22.4461 N   0  0  0  0  0  0  0  0  0  0  0  0
   10.4288  -16.8657   23.7546 C   0  0  1  0  0  0  0  0  0  0  0  0
   11.5423  -17.8746   23.7849 C   0  0  0  0  0  0  0  0  0  0  0  0
   11.3347  -18.9207   22.7691 C   0  0  0  0  0  0  0  0  0  0  0  0
   10.4251  -19.7633   22.8775 O   0  0  0  0  0  0  0  0  0  0  0  0
   10.6352  -15.8449   24.7924 C   0  0  0  0  0  0  0  0  0  0  0  0
   10.7657  -14.6222   24.6256 O   0  0  0  0  0  0  0  0  0  0  0  0
   12.1681  -18.9976   21.6352 O   0  0  0  0  0  0  0  0  0  0  0  0
    9.5514  -12.9558   27.8636 N   0  0  0  0  0  0  0  0  0  0  0  0
    8.5148  -13.7499   27.2482 C   0  0  0  0  0  0  0  0  0  0  0  0
    7.4511  -13.1284   27.0194 O   0  0  0  0  0  0  0  0  0  0  0  0
    8.7521  -15.1726   26.9393 C   0  0  0  0  0  0  0  0  0  0  0  0
   10.1758  -15.5583   27.2441 C   0  0  2  0  0  0  0  0  0  0  0  0
   10.6893  -16.3335   26.1524 N   0  0  0  0  0  0  0  0  0  0  0  0
   10.3147  -16.3435   28.4960 C   0  0  0  0  0  0  0  0  0  0  0  0
   10.9318  -15.7594   29.5921 O   0  0  0  0  0  0  0  0  0  0  0  0
    9.9011  -17.5242   28.6272 O   0  0  0  0  0  0  0  0  0  0  0  0
  2  1  1  0
  2  3  2  0
  4  5  1  0
  4  2  1  0
  5  6  1  0
  6  7  1  6
  8  6  1  0
  8 10  1  0
  9  8  2  0
 11 10  1  0
 11 12  1  6
 13 14  2  0
 13 12  1  0
 15 11  1  0
 16 15  2  0
 17 13  1  0
 18 19  1  0
 19 21  1  0
 20 19  2  0
 22 21  1  6
 22 24  1  0
 22 23  1  0
 23 15  1  0
 24 25  1  0
 26 24  2  0
M  END
$$$$
