QDN.pdb
     RDKit          3D

 26 25  0  0  1  0  0  0  0  0999 V2000
   12.9186  -18.4608   13.4515 N   0  0  0  0  0  0  0  0  0  0  0  0
   12.9273  -18.9669   14.7994 C   0  0  0  0  0  0  0  0  0  0  0  0
   13.9813  -19.4771   15.1892 O   0  0  0  0  0  0  0  0  0  0  0  0
   11.6693  -18.8125   15.5501 C   0  0  0  0  0  0  0  0  0  0  0  0
   10.6851  -17.8705   14.9630 C   0  0  0  0  0  0  0  0  0  0  0  0
    9.4156  -17.8197   15.7626 C   0  0  2  0  0  0  0  0  0  0  0  0
    8.5050  -16.8170   15.1973 N   0  0  0  0  0  0  0  0  0  0  0  0
    9.7172  -17.4036   17.1525 C   0  0  0  0  0  0  0  0  0  0  0  0
    9.9321  -16.1929   17.3922 O   0  0  0  0  0  0  0  0  0  0  0  0
    9.7723  -18.3389   18.2355 N   0  0  0  0  0  0  0  0  0  0  0  0
   10.1063  -17.8665   19.5352 C   0  0  1  0  0  0  0  0  0  0  0  0
    9.3750  -18.6412   20.5952 C   0  0  0  0  0  0  0  0  0  0  0  0
    9.6177  -18.0679   21.9301 C   0  0  0  0  0  0  0  0  0  0  0  0
   10.3931  -17.1087   22.0965 O   0  0  0  0  0  0  0  0  0  0  0  0
   11.5497  -17.8541   19.8150 C   0  0  0  0  0  0  0  0  0  0  0  0
   12.4056  -18.6363   19.3729 O   0  0  0  0  0  0  0  0  0  0  0  0
    8.9726  -18.5946   23.0671 O   0  0  0  0  0  0  0  0  0  0  0  0
   15.8186  -14.4148   22.0273 N   0  0  0  0  0  0  0  0  0  0  0  0
   15.2894  -15.1107   20.8787 C   0  0  0  0  0  0  0  0  0  0  0  0
   16.1593  -15.5461   20.0888 O   0  0  0  0  0  0  0  0  0  0  0  0
   13.8323  -15.2629   20.7073 C   0  0  0  0  0  0  0  0  0  0  0  0
   13.3968  -16.6675   21.0331 C   0  0  2  0  0  0  0  0  0  0  0  0
   12.0084  -16.8099   20.7040 N   0  0  0  0  0  0  0  0  0  0  0  0
   13.5896  -17.0241   22.4610 C   0  0  0  0  0  0  0  0  0  0  0  0
   14.7816  -17.6150   22.8524 O   0  0  0  0  0  0  0  0  0  0  0  0
   12.7256  -16.8207   23.3525 O   0  0  0  0  0  0  0  0  0  0  0  0
  2  1  1  0
  2  3  2  0
  4  5  1  0
  4  2  1  0
  5  6  1  0
  6  7  1  6
  8  6  1  0
  8 10  1  0
  9  8  2  0
 11 10  1  0
 11 12  1  1
 13 14  2  0
 13 12  1  0
 15 11  1  0
 16 15  2  0
 17 13  1  0
 18 19  1  0
 19 21  1  0
 20 19  2  0
 22 21  1  1
 22 24  1  0
 22 23  1  0
 23 15  1  0
 24 25  1  0
 26 24  2  0
M  END
$$$$
