QDN.pdb
     RDKit          3D

 26 25  0  0  1  0  0  0  0  0999 V2000
    7.2865  -12.6961   18.2170 N   0  0  0  0  0  0  0  0  0  0  0  0
    7.7532  -14.0438   18.0202 C   0  0  0  0  0  0  0  0  0  0  0  0
    7.2763  -14.6571   17.0613 O   0  0  0  0  0  0  0  0  0  0  0  0
    8.7475  -14.5265   18.9941 C   0  0  0  0  0  0  0  0  0  0  0  0
    9.0792  -13.5840   20.0906 C   0  0  0  0  0  0  0  0  0  0  0  0
   10.3974  -13.9128   20.7293 C   0  0  2  0  0  0  0  0  0  0  0  0
   11.3046  -14.5005   19.7363 N   0  0  0  0  0  0  0  0  0  0  0  0
   10.1980  -14.9246   21.7936 C   0  0  0  0  0  0  0  0  0  0  0  0
    9.2413  -14.7888   22.5908 O   0  0  0  0  0  0  0  0  0  0  0  0
   11.0628  -16.0560   21.9442 N   0  0  0  0  0  0  0  0  0  0  0  0
   10.7880  -16.9988   22.9735 C   0  0  1  0  0  0  0  0  0  0  0  0
   11.4150  -18.3298   22.6675 C   0  0  0  0  0  0  0  0  0  0  0  0
   10.7907  -18.9482   21.4854 C   0  0  0  0  0  0  0  0  0  0  0  0
    9.5975  -18.7439   21.1965 O   0  0  0  0  0  0  0  0  0  0  0  0
   11.1764  -16.5475   24.3179 C   0  0  0  0  0  0  0  0  0  0  0  0
   12.2644  -16.0579   24.6589 O   0  0  0  0  0  0  0  0  0  0  0  0
   11.5341  -19.7966   20.6405 O   0  0  0  0  0  0  0  0  0  0  0  0
    9.3015  -13.2326   28.5703 N   0  0  0  0  0  0  0  0  0  0  0  0
    9.7582  -14.5816   28.3355 C   0  0  0  0  0  0  0  0  0  0  0  0
   10.4901  -15.0471   29.2398 O   0  0  0  0  0  0  0  0  0  0  0  0
    9.3596  -15.2993   27.1099 C   0  0  0  0  0  0  0  0  0  0  0  0
   10.4190  -16.2874   26.6975 C   0  0  2  0  0  0  0  0  0  0  0  0
   10.1699  -16.6958   25.3457 N   0  0  0  0  0  0  0  0  0  0  0  0
   10.4632  -17.4934   27.5617 C   0  0  0  0  0  0  0  0  0  0  0  0
   11.2152  -17.4597   28.7265 O   0  0  0  0  0  0  0  0  0  0  0  0
    9.8517  -18.5610   27.2995 O   0  0  0  0  0  0  0  0  0  0  0  0
  2  1  1  0
  2  3  2  0
  4  5  1  0
  4  2  1  0
  5  6  1  0
  6  7  1  6
  8  6  1  0
  8 10  1  0
  9  8  2  0
 11 10  1  0
 11 12  1  6
 13 14  2  0
 13 12  1  0
 15 11  1  0
 16 15  2  0
 17 13  1  0
 18 19  1  0
 19 21  1  0
 20 19  2  0
 22 21  1  1
 22 24  1  0
 22 23  1  0
 23 15  1  0
 24 25  1  0
 26 24  2  0
M  END
$$$$
