QDN.pdb
     RDKit          3D

 26 25  0  0  1  0  0  0  0  0999 V2000
    8.4445  -12.0129   19.0482 N   0  0  0  0  0  0  0  0  0  0  0  0
    8.0961  -13.2686   18.4361 C   0  0  0  0  0  0  0  0  0  0  0  0
    8.1126  -13.3032   17.2025 O   0  0  0  0  0  0  0  0  0  0  0  0
    7.7608  -14.3627   19.3636 C   0  0  0  0  0  0  0  0  0  0  0  0
    8.8685  -14.8247   20.2355 C   0  0  0  0  0  0  0  0  0  0  0  0
    8.9865  -16.3213   20.2420 C   0  0  2  0  0  0  0  0  0  0  0  0
    7.7719  -16.9239   19.6800 N   0  0  0  0  0  0  0  0  0  0  0  0
    9.1113  -16.8063   21.6367 C   0  0  0  0  0  0  0  0  0  0  0  0
    8.0834  -16.8830   22.3486 O   0  0  0  0  0  0  0  0  0  0  0  0
   10.3692  -17.1919   22.2022 N   0  0  0  0  0  0  0  0  0  0  0  0
   10.3916  -17.7559   23.5080 C   0  0  1  0  0  0  0  0  0  0  0  0
   11.1468  -19.0552   23.5216 C   0  0  0  0  0  0  0  0  0  0  0  0
   11.1042  -19.6766   24.8563 C   0  0  0  0  0  0  0  0  0  0  0  0
   12.0685  -19.6047   25.6400 O   0  0  0  0  0  0  0  0  0  0  0  0
   10.9132  -16.8503   24.5423 C   0  0  0  0  0  0  0  0  0  0  0  0
   11.9264  -16.1374   24.4726 O   0  0  0  0  0  0  0  0  0  0  0  0
    9.9594  -20.3766   25.2875 O   0  0  0  0  0  0  0  0  0  0  0  0
    9.7783  -12.9968   28.5233 N   0  0  0  0  0  0  0  0  0  0  0  0
    9.7723  -14.4382   28.6009 C   0  0  0  0  0  0  0  0  0  0  0  0
   10.1086  -14.8999   29.7162 O   0  0  0  0  0  0  0  0  0  0  0  0
    9.3912  -15.2449   27.4262 C   0  0  0  0  0  0  0  0  0  0  0  0
   10.5800  -15.9892   26.8771 C   0  0  2  0  0  0  0  0  0  0  0  0
   10.1514  -16.7939   25.7702 N   0  0  0  0  0  0  0  0  0  0  0  0
   11.2369  -16.8646   27.8796 C   0  0  0  0  0  0  0  0  0  0  0  0
   10.7956  -18.1714   28.0246 O   0  0  0  0  0  0  0  0  0  0  0  0
   12.1840  -16.4896   28.6178 O   0  0  0  0  0  0  0  0  0  0  0  0
  2  1  1  0
  2  3  2  0
  4  5  1  0
  4  2  1  0
  5  6  1  0
  6  7  1  1
  8  6  1  0
  8 10  1  0
  9  8  2  0
 11 10  1  0
 11 12  1  6
 13 14  2  0
 13 12  1  0
 15 11  1  0
 16 15  2  0
 17 13  1  0
 18 19  1  0
 19 21  1  0
 20 19  2  0
 22 21  1  1
 22 24  1  0
 22 23  1  0
 23 15  1  0
 24 25  1  0
 26 24  2  0
M  END
$$$$
