QDN.pdb
     RDKit          3D

 26 25  0  0  1  0  0  0  0  0999 V2000
    8.1928  -12.4381   18.2454 N   0  0  0  0  0  0  0  0  0  0  0  0
    7.7627  -13.7088   17.7227 C   0  0  0  0  0  0  0  0  0  0  0  0
    7.7614  -13.8269   16.4942 O   0  0  0  0  0  0  0  0  0  0  0  0
    7.3748  -14.7161   18.7251 C   0  0  0  0  0  0  0  0  0  0  0  0
    7.4235  -14.2652   20.1376 C   0  0  0  0  0  0  0  0  0  0  0  0
    8.8278  -14.2419   20.6677 C   0  0  2  0  0  0  0  0  0  0  0  0
    9.7750  -14.5747   19.5970 N   0  0  0  0  0  0  0  0  0  0  0  0
    8.9803  -15.2709   21.7231 C   0  0  0  0  0  0  0  0  0  0  0  0
    8.1490  -15.3102   22.6594 O   0  0  0  0  0  0  0  0  0  0  0  0
   10.0477  -16.2255   21.7113 N   0  0  0  0  0  0  0  0  0  0  0  0
   10.2739  -17.0178   22.8711 C   0  0  1  0  0  0  0  0  0  0  0  0
   11.2197  -18.1479   22.5763 C   0  0  0  0  0  0  0  0  0  0  0  0
   11.1713  -19.1674   23.6383 C   0  0  0  0  0  0  0  0  0  0  0  0
   10.5671  -18.9666   24.7077 O   0  0  0  0  0  0  0  0  0  0  0  0
   10.7390  -16.2527   24.0373 C   0  0  0  0  0  0  0  0  0  0  0  0
   11.6882  -15.4545   24.0802 O   0  0  0  0  0  0  0  0  0  0  0  0
   11.8140  -20.4106   23.4716 O   0  0  0  0  0  0  0  0  0  0  0  0
   10.5373  -14.0240   28.6077 N   0  0  0  0  0  0  0  0  0  0  0  0
    9.3546  -13.8450   27.7996 C   0  0  0  0  0  0  0  0  0  0  0  0
    8.5915  -12.9313   28.1908 O   0  0  0  0  0  0  0  0  0  0  0  0
    9.1220  -14.7013   26.6212 C   0  0  0  0  0  0  0  0  0  0  0  0
   10.2559  -15.6747   26.4324 C   0  0  2  0  0  0  0  0  0  0  0  0
    9.9995  -16.4627   25.2622 N   0  0  0  0  0  0  0  0  0  0  0  0
   10.4460  -16.5840   27.5900 C   0  0  0  0  0  0  0  0  0  0  0  0
   11.1041  -16.1122   28.7159 O   0  0  0  0  0  0  0  0  0  0  0  0
   10.0411  -17.7748   27.6141 O   0  0  0  0  0  0  0  0  0  0  0  0
  2  1  1  0
  2  3  2  0
  4  5  1  0
  4  2  1  0
  5  6  1  0
  6  7  1  6
  8  6  1  0
  8 10  1  0
  9  8  2  0
 11 10  1  0
 11 12  1  6
 13 14  2  0
 13 12  1  0
 15 11  1  0
 16 15  2  0
 17 13  1  0
 18 19  1  0
 19 21  1  0
 20 19  2  0
 22 21  1  1
 22 24  1  0
 22 23  1  0
 23 15  1  0
 24 25  1  0
 26 24  2  0
M  END
$$$$
