QDN.pdb
     RDKit          3D

 26 25  0  0  1  0  0  0  0  0999 V2000
    1.6269  -22.3761   20.1915 N   0  0  0  0  0  0  0  0  0  0  0  0
    1.4308  -21.0842   19.5868 C   0  0  0  0  0  0  0  0  0  0  0  0
    0.4398  -20.9603   18.8618 O   0  0  0  0  0  0  0  0  0  0  0  0
    2.4437  -20.0648   19.9102 C   0  0  0  0  0  0  0  0  0  0  0  0
    3.5690  -20.5273   20.7590 C   0  0  0  0  0  0  0  0  0  0  0  0
    4.3699  -19.3780   21.2988 C   0  0  2  0  0  0  0  0  0  0  0  0
    4.1968  -18.1985   20.4426 N   0  0  0  0  0  0  0  0  0  0  0  0
    5.8111  -19.7228   21.2836 C   0  0  0  0  0  0  0  0  0  0  0  0
    6.1999  -20.7403   21.9022 O   0  0  0  0  0  0  0  0  0  0  0  0
    6.7788  -18.9317   20.5848 N   0  0  0  0  0  0  0  0  0  0  0  0
    8.1499  -19.3053   20.6524 C   0  0  1  0  0  0  0  0  0  0  0  0
    8.9607  -18.5708   19.6221 C   0  0  0  0  0  0  0  0  0  0  0  0
   10.2450  -19.2495   19.3788 C   0  0  0  0  0  0  0  0  0  0  0  0
   10.9999  -18.9035   18.4517 O   0  0  0  0  0  0  0  0  0  0  0  0
    8.7492  -19.1436   21.9853 C   0  0  0  0  0  0  0  0  0  0  0  0
    8.7785  -18.1116   22.6737 O   0  0  0  0  0  0  0  0  0  0  0  0
   10.6590  -20.3199   20.1969 O   0  0  0  0  0  0  0  0  0  0  0  0
    9.0108  -21.3905   27.3298 N   0  0  0  0  0  0  0  0  0  0  0  0
    9.6276  -20.7161   26.2124 C   0  0  0  0  0  0  0  0  0  0  0  0
   10.6290  -20.0247   26.5114 O   0  0  0  0  0  0  0  0  0  0  0  0
    9.0748  -20.8696   24.8535 C   0  0  0  0  0  0  0  0  0  0  0  0
   10.0126  -20.2952   23.8241 C   0  0  2  0  0  0  0  0  0  0  0  0
    9.3685  -20.3252   22.5433 N   0  0  0  0  0  0  0  0  0  0  0  0
   11.2995  -21.0286   23.7303 C   0  0  0  0  0  0  0  0  0  0  0  0
   12.4266  -20.3562   23.2820 O   0  0  0  0  0  0  0  0  0  0  0  0
   11.4342  -22.2412   24.0369 O   0  0  0  0  0  0  0  0  0  0  0  0
  2  1  1  0
  2  3  2  0
  4  5  1  0
  4  2  1  0
  5  6  1  0
  6  7  1  6
  8  6  1  0
  8 10  1  0
  9  8  2  0
 11 10  1  0
 11 12  1  6
 13 14  2  0
 13 12  1  0
 15 11  1  0
 16 15  2  0
 17 13  1  0
 18 19  1  0
 19 21  1  0
 20 19  2  0
 22 21  1  1
 22 24  1  0
 22 23  1  0
 23 15  1  0
 24 25  1  0
 26 24  2  0
M  END
$$$$
