KTD.pdb
     RDKit          3D

 25 24  0  0  1  0  0  0  0  0999 V2000
    7.9804  -17.1987   17.1725 N   0  0  0  0  0  0  0  0  0  0  0  0
    8.6575  -17.8432   18.2373 C   0  0  1  0  0  0  0  0  0  0  0  0
    9.5731  -18.9670   17.8108 C   0  0  0  0  0  0  0  0  0  0  0  0
    8.9299  -20.1551   17.2289 C   0  0  0  0  0  0  0  0  0  0  0  0
    8.7972  -20.2540   15.7585 C   0  0  0  0  0  0  0  0  0  0  0  0
    8.2572  -21.5716   15.2559 C   0  0  0  0  0  0  0  0  0  0  0  0
    6.8751  -21.8044   15.5499 N   0  0  0  0  0  0  0  0  0  0  0  0
    9.3115  -16.9511   19.2220 C   0  0  0  0  0  0  0  0  0  0  0  0
   10.3708  -16.3546   18.8731 O   0  0  0  0  0  0  0  0  0  0  0  0
    7.4326  -14.1864   21.0061 C   0  0  0  0  0  0  0  0  0  0  0  0
    8.2338  -14.9787   21.9851 C   0  0  1  0  0  0  0  0  0  0  0  0
    7.3416  -15.8774   22.6057 O   0  0  0  0  0  0  0  0  0  0  0  0
    9.3813  -15.7402   21.4206 C   0  0  2  0  0  0  0  0  0  0  0  0
    8.8197  -16.7416   20.5046 N   0  0  0  0  0  0  0  0  0  0  0  0
   10.1371  -16.4069   22.5020 C   0  0  0  0  0  0  0  0  0  0  0  0
    9.8651  -17.5975   22.8735 O   0  0  0  0  0  0  0  0  0  0  0  0
   11.1988  -15.7824   23.1862 N   0  0  0  0  0  0  0  0  0  0  0  0
   11.8771  -16.4167   24.3101 C   0  0  1  0  0  0  0  0  0  0  0  0
   13.1879  -15.6528   24.5977 C   0  0  0  0  0  0  0  0  0  0  0  0
   14.1759  -15.9009   23.5398 C   0  0  0  0  0  0  0  0  0  0  0  0
   13.7918  -16.3729   22.4418 O   0  0  0  0  0  0  0  0  0  0  0  0
   11.0804  -16.4352   25.5272 C   0  0  0  0  0  0  0  0  0  0  0  0
   10.0938  -15.6678   25.6472 O   0  0  0  0  0  0  0  0  0  0  0  0
   15.5078  -15.6239   23.7410 O   0  0  0  0  0  0  0  0  0  0  0  0
   11.3792  -17.2860   26.5752 O   0  0  0  0  0  0  0  0  0  0  0  0
  2  1  1  6
  3  4  1  0
  3  2  1  0
  5  6  1  0
  5  4  1  0
  6  7  1  0
  8  2  1  0
  8  9  2  0
 11 10  1  6
 11 13  1  0
 12 11  1  0
 13 14  1  6
 14  8  1  0
 15 13  1  0
 16 15  2  0
 17 15  1  0
 18 22  1  0
 18 17  1  0
 18 19  1  1
 20 19  1  0
 21 20  2  0
 22 25  1  0
 23 22  2  0
 24 20  1  0
M  END
$$$$
