KTD.pdb
     RDKit          3D

 25 24  0  0  1  0  0  0  0  0999 V2000
    8.2091  -15.7709   15.5021 N   0  0  0  0  0  0  0  0  0  0  0  0
    8.0254  -16.3806   16.7677 C   0  0  1  0  0  0  0  0  0  0  0  0
    8.1871  -17.8829   16.7708 C   0  0  0  0  0  0  0  0  0  0  0  0
    6.9752  -18.6747   17.0321 C   0  0  0  0  0  0  0  0  0  0  0  0
    7.0611  -20.1516   17.0064 C   0  0  0  0  0  0  0  0  0  0  0  0
    5.7424  -20.8684   17.1722 C   0  0  0  0  0  0  0  0  0  0  0  0
    5.8424  -22.2940   17.2635 N   0  0  0  0  0  0  0  0  0  0  0  0
    8.7459  -15.7525   17.8990 C   0  0  0  0  0  0  0  0  0  0  0  0
    9.9448  -15.3937   17.7152 O   0  0  0  0  0  0  0  0  0  0  0  0
    7.2459  -12.8575   20.0364 C   0  0  0  0  0  0  0  0  0  0  0  0
    7.8145  -13.9532   20.8758 C   0  0  1  0  0  0  0  0  0  0  0  0
    6.7304  -14.7623   21.2746 O   0  0  0  0  0  0  0  0  0  0  0  0
    8.8456  -14.8045   20.2219 C   0  0  2  0  0  0  0  0  0  0  0  0
    8.1704  -15.5420   19.1460 N   0  0  0  0  0  0  0  0  0  0  0  0
    9.4270  -15.7489   21.1991 C   0  0  0  0  0  0  0  0  0  0  0  0
    9.0380  -16.9626   21.2706 O   0  0  0  0  0  0  0  0  0  0  0  0
   10.4404  -15.3792   22.1056 N   0  0  0  0  0  0  0  0  0  0  0  0
   10.9896  -16.3154   23.0791 C   0  0  1  0  0  0  0  0  0  0  0  0
   12.4022  -15.8418   23.4851 C   0  0  0  0  0  0  0  0  0  0  0  0
   13.3986  -16.2740   22.4967 C   0  0  0  0  0  0  0  0  0  0  0  0
   13.0508  -17.0561   21.5783 O   0  0  0  0  0  0  0  0  0  0  0  0
   10.1818  -16.4341   24.2831 C   0  0  0  0  0  0  0  0  0  0  0  0
   10.4692  -17.2921   25.1537 O   0  0  0  0  0  0  0  0  0  0  0  0
   14.6994  -15.8337   22.5690 O   0  0  0  0  0  0  0  0  0  0  0  0
    9.0883  -15.6177   24.5045 O   0  0  0  0  0  0  0  0  0  0  0  0
  2  1  1  6
  3  4  1  0
  3  2  1  0
  5  6  1  0
  5  4  1  0
  6  7  1  0
  8  2  1  0
  8  9  2  0
 11 10  1  6
 11 13  1  0
 12 11  1  0
 13 14  1  6
 14  8  1  0
 15 13  1  0
 16 15  2  0
 17 15  1  0
 18 22  1  0
 18 17  1  0
 18 19  1  1
 20 19  1  0
 21 20  2  0
 22 25  1  0
 23 22  2  0
 24 20  1  0
M  END
$$$$
