KTD.pdb
     RDKit          3D

 25 24  0  0  1  0  0  0  0  0999 V2000
    5.7960  -17.1584   25.7601 N   0  0  0  0  0  0  0  0  0  0  0  0
    6.7276  -16.1950   25.3001 C   0  0  1  0  0  0  0  0  0  0  0  0
    7.6568  -15.6610   26.3651 C   0  0  0  0  0  0  0  0  0  0  0  0
    8.5643  -16.6329   26.9943 C   0  0  0  0  0  0  0  0  0  0  0  0
    9.4114  -16.1980   28.1269 C   0  0  0  0  0  0  0  0  0  0  0  0
   10.3765  -17.2414   28.6366 C   0  0  0  0  0  0  0  0  0  0  0  0
   11.2127  -16.8083   29.7155 N   0  0  0  0  0  0  0  0  0  0  0  0
    7.4611  -16.5444   24.0618 C   0  0  0  0  0  0  0  0  0  0  0  0
    7.8868  -17.7288   23.9364 O   0  0  0  0  0  0  0  0  0  0  0  0
    6.2357  -14.9636   20.7686 C   0  0  0  0  0  0  0  0  0  0  0  0
    7.7177  -15.1347   20.7164 C   0  0  1  0  0  0  0  0  0  0  0  0
    8.2788  -13.8463   20.8358 O   0  0  0  0  0  0  0  0  0  0  0  0
    8.3064  -16.0228   21.7557 C   0  0  2  0  0  0  0  0  0  0  0  0
    7.7038  -15.6366   23.0383 N   0  0  0  0  0  0  0  0  0  0  0  0
    9.7733  -15.8482   21.8097 C   0  0  0  0  0  0  0  0  0  0  0  0
   10.3264  -15.0938   22.6783 O   0  0  0  0  0  0  0  0  0  0  0  0
   10.6509  -16.4971   20.9186 N   0  0  0  0  0  0  0  0  0  0  0  0
   12.0211  -16.8332   21.2864 C   0  0  1  0  0  0  0  0  0  0  0  0
   11.9924  -17.7853   22.5018 C   0  0  0  0  0  0  0  0  0  0  0  0
   13.3560  -18.1459   22.9109 C   0  0  0  0  0  0  0  0  0  0  0  0
   14.3314  -17.6195   22.3216 O   0  0  0  0  0  0  0  0  0  0  0  0
   12.7628  -17.4797   20.2147 C   0  0  0  0  0  0  0  0  0  0  0  0
   12.2493  -18.4320   19.5774 O   0  0  0  0  0  0  0  0  0  0  0  0
   13.5713  -19.0495   23.9250 O   0  0  0  0  0  0  0  0  0  0  0  0
   14.0376  -17.0721   19.8684 O   0  0  0  0  0  0  0  0  0  0  0  0
  2  1  1  1
  3  4  1  0
  3  2  1  0
  5  6  1  0
  5  4  1  0
  6  7  1  0
  8  2  1  0
  8  9  2  0
 11 10  1  1
 11 13  1  0
 12 11  1  0
 13 14  1  1
 14  8  1  0
 15 13  1  0
 16 15  2  0
 17 15  1  0
 18 22  1  0
 18 17  1  0
 18 19  1  1
 20 19  1  0
 21 20  2  0
 22 25  1  0
 23 22  2  0
 24 20  1  0
M  END
$$$$
