KTD.pdb
     RDKit          3D

 25 24  0  0  1  0  0  0  0  0999 V2000
    6.8763  -17.6251   18.2555 N   0  0  0  0  0  0  0  0  0  0  0  0
    8.2754  -17.4505   18.1155 C   0  0  1  0  0  0  0  0  0  0  0  0
    8.7380  -17.1937   16.7002 C   0  0  0  0  0  0  0  0  0  0  0  0
    8.5433  -18.2871   15.7356 C   0  0  0  0  0  0  0  0  0  0  0  0
    9.0150  -18.1116   14.3442 C   0  0  0  0  0  0  0  0  0  0  0  0
    8.7790  -19.2966   13.4384 C   0  0  0  0  0  0  0  0  0  0  0  0
    9.9652  -19.9947   13.0432 N   0  0  0  0  0  0  0  0  0  0  0  0
    8.9098  -16.5168   19.0743 C   0  0  0  0  0  0  0  0  0  0  0  0
    9.6093  -15.5710   18.6096 O   0  0  0  0  0  0  0  0  0  0  0  0
    7.5404  -14.0540   21.1070 C   0  0  0  0  0  0  0  0  0  0  0  0
    8.3430  -14.9093   22.0303 C   0  0  1  0  0  0  0  0  0  0  0  0
    7.4348  -15.7773   22.6710 O   0  0  0  0  0  0  0  0  0  0  0  0
    9.4238  -15.7130   21.3969 C   0  0  2  0  0  0  0  0  0  0  0  0
    8.7748  -16.6317   20.4524 N   0  0  0  0  0  0  0  0  0  0  0  0
   10.1642  -16.4774   22.4229 C   0  0  0  0  0  0  0  0  0  0  0  0
    9.8717  -17.6896   22.6957 O   0  0  0  0  0  0  0  0  0  0  0  0
   11.2326  -15.9276   23.1589 N   0  0  0  0  0  0  0  0  0  0  0  0
   11.9836  -16.7070   24.1358 C   0  0  1  0  0  0  0  0  0  0  0  0
   13.3969  -16.1010   24.2776 C   0  0  0  0  0  0  0  0  0  0  0  0
   14.1378  -16.2110   23.0144 C   0  0  0  0  0  0  0  0  0  0  0  0
   14.2347  -17.3315   22.4569 O   0  0  0  0  0  0  0  0  0  0  0  0
   11.3622  -16.7345   25.4509 C   0  0  0  0  0  0  0  0  0  0  0  0
   10.3641  -16.0117   25.6923 O   0  0  0  0  0  0  0  0  0  0  0  0
   14.7228  -15.1055   22.4426 O   0  0  0  0  0  0  0  0  0  0  0  0
   11.8430  -17.5455   26.4620 O   0  0  0  0  0  0  0  0  0  0  0  0
  2  1  1  6
  3  4  1  0
  3  2  1  0
  5  6  1  0
  5  4  1  0
  6  7  1  0
  8  2  1  0
  8  9  2  0
 11 10  1  6
 11 13  1  0
 12 11  1  0
 13 14  1  6
 14  8  1  0
 15 13  1  0
 16 15  2  0
 17 15  1  0
 18 22  1  0
 18 17  1  0
 18 19  1  1
 20 19  1  0
 21 20  2  0
 22 25  1  0
 23 22  2  0
 24 20  1  0
M  END
$$$$
