KTD.pdb
     RDKit          3D

 25 24  0  0  1  0  0  0  0  0999 V2000
    7.7945  -16.7555   15.8013 N   0  0  0  0  0  0  0  0  0  0  0  0
    7.5956  -16.9804   17.1860 C   0  0  1  0  0  0  0  0  0  0  0  0
    7.6490  -18.4323   17.6008 C   0  0  0  0  0  0  0  0  0  0  0  0
    6.4488  -19.2387   17.3301 C   0  0  0  0  0  0  0  0  0  0  0  0
    5.8342  -20.0074   18.4349 C   0  0  0  0  0  0  0  0  0  0  0  0
    4.6030  -20.7944   18.0540 C   0  0  0  0  0  0  0  0  0  0  0  0
    4.8616  -21.9850   17.3015 N   0  0  0  0  0  0  0  0  0  0  0  0
    8.3844  -16.1229   18.1003 C   0  0  0  0  0  0  0  0  0  0  0  0
    9.5491  -15.7843   17.7419 O   0  0  0  0  0  0  0  0  0  0  0  0
    7.1785  -12.9049   20.1411 C   0  0  0  0  0  0  0  0  0  0  0  0
    7.8045  -13.9714   20.9772 C   0  0  1  0  0  0  0  0  0  0  0  0
    6.7483  -14.7140   21.5444 O   0  0  0  0  0  0  0  0  0  0  0  0
    8.7266  -14.8979   20.2652 C   0  0  2  0  0  0  0  0  0  0  0  0
    7.9082  -15.6772   19.3272 N   0  0  0  0  0  0  0  0  0  0  0  0
    9.3940  -15.7990   21.2284 C   0  0  0  0  0  0  0  0  0  0  0  0
    9.0127  -17.0063   21.3909 O   0  0  0  0  0  0  0  0  0  0  0  0
   10.4857  -15.3926   22.0212 N   0  0  0  0  0  0  0  0  0  0  0  0
   11.1630  -16.3049   22.9348 C   0  0  1  0  0  0  0  0  0  0  0  0
   12.6871  -16.0841   22.8218 C   0  0  0  0  0  0  0  0  0  0  0  0
   13.4098  -16.9742   23.7395 C   0  0  0  0  0  0  0  0  0  0  0  0
   13.0199  -18.1595   23.8769 O   0  0  0  0  0  0  0  0  0  0  0  0
   10.7746  -16.1214   24.3247 C   0  0  0  0  0  0  0  0  0  0  0  0
   10.1939  -15.0675   24.6836 O   0  0  0  0  0  0  0  0  0  0  0  0
   14.5007  -16.5230   24.4451 O   0  0  0  0  0  0  0  0  0  0  0  0
   11.0282  -17.0872   25.2808 O   0  0  0  0  0  0  0  0  0  0  0  0
  2  1  1  6
  3  4  1  0
  3  2  1  0
  5  6  1  0
  5  4  1  0
  6  7  1  0
  8  2  1  0
  8  9  2  0
 11 10  1  6
 11 13  1  0
 12 11  1  0
 13 14  1  6
 14  8  1  0
 15 13  1  0
 16 15  2  0
 17 15  1  0
 18 22  1  0
 18 17  1  0
 18 19  1  1
 20 19  1  0
 21 20  2  0
 22 25  1  0
 23 22  2  0
 24 20  1  0
M  END
$$$$
