KTD.pdb
     RDKit          3D

 25 24  0  0  1  0  0  0  0  0999 V2000
    9.2423  -16.6412   17.4028 N   0  0  0  0  0  0  0  0  0  0  0  0
   10.0737  -17.0808   18.4625 C   0  0  1  0  0  0  0  0  0  0  0  0
   11.4625  -17.4992   18.0394 C   0  0  0  0  0  0  0  0  0  0  0  0
   11.5611  -18.3150   16.8193 C   0  0  0  0  0  0  0  0  0  0  0  0
   12.8893  -18.7995   16.3830 C   0  0  0  0  0  0  0  0  0  0  0  0
   12.8664  -19.7434   15.2045 C   0  0  0  0  0  0  0  0  0  0  0  0
   14.1573  -20.1544   14.7405 N   0  0  0  0  0  0  0  0  0  0  0  0
   10.1076  -16.2118   19.6612 C   0  0  0  0  0  0  0  0  0  0  0  0
   11.1664  -15.5603   19.8941 O   0  0  0  0  0  0  0  0  0  0  0  0
    7.5399  -13.5086   20.7452 C   0  0  0  0  0  0  0  0  0  0  0  0
    7.7907  -14.5157   21.8180 C   0  0  1  0  0  0  0  0  0  0  0  0
    6.7360  -15.4495   21.7519 O   0  0  0  0  0  0  0  0  0  0  0  0
    9.0895  -15.2386   21.7400 C   0  0  2  0  0  0  0  0  0  0  0  0
    9.0376  -16.0809   20.5379 N   0  0  0  0  0  0  0  0  0  0  0  0
    9.2834  -16.0777   22.9414 C   0  0  0  0  0  0  0  0  0  0  0  0
    9.1299  -17.3444   22.9054 O   0  0  0  0  0  0  0  0  0  0  0  0
    9.6495  -15.5434   24.1927 N   0  0  0  0  0  0  0  0  0  0  0  0
    9.8573  -16.3853   25.3648 C   0  0  1  0  0  0  0  0  0  0  0  0
   10.5562  -15.5515   26.4606 C   0  0  0  0  0  0  0  0  0  0  0  0
   10.9629  -16.4066   27.5831 C   0  0  0  0  0  0  0  0  0  0  0  0
   10.8995  -17.6539   27.4570 O   0  0  0  0  0  0  0  0  0  0  0  0
    8.6219  -16.9218   25.9146 C   0  0  0  0  0  0  0  0  0  0  0  0
    7.5419  -16.2990   25.7650 O   0  0  0  0  0  0  0  0  0  0  0  0
   11.4078  -15.8564   28.7625 O   0  0  0  0  0  0  0  0  0  0  0  0
    8.5975  -18.1172   26.6086 O   0  0  0  0  0  0  0  0  0  0  0  0
  2  1  1  6
  3  4  1  0
  3  2  1  0
  5  6  1  0
  5  4  1  0
  6  7  1  0
  8  2  1  0
  8  9  2  0
 11 10  1  6
 11 13  1  0
 12 11  1  0
 13 14  1  6
 14  8  1  0
 15 13  1  0
 16 15  2  0
 17 15  1  0
 18 22  1  0
 18 17  1  0
 18 19  1  1
 20 19  1  0
 21 20  2  0
 22 25  1  0
 23 22  2  0
 24 20  1  0
M  END
$$$$
