KTD.pdb
     RDKit          3D

 25 24  0  0  1  0  0  0  0  0999 V2000
    7.4517  -18.5687   18.1744 N   0  0  0  0  0  0  0  0  0  0  0  0
    8.6759  -17.9823   17.7684 C   0  0  1  0  0  0  0  0  0  0  0  0
    8.6740  -17.4355   16.3599 C   0  0  0  0  0  0  0  0  0  0  0  0
    7.9662  -18.2319   15.3456 C   0  0  0  0  0  0  0  0  0  0  0  0
    6.8625  -17.6085   14.5825 C   0  0  0  0  0  0  0  0  0  0  0  0
    6.1996  -18.5117   13.5701 C   0  0  0  0  0  0  0  0  0  0  0  0
    5.0733  -17.9354   12.8994 N   0  0  0  0  0  0  0  0  0  0  0  0
    9.2836  -17.0270   18.7232 C   0  0  0  0  0  0  0  0  0  0  0  0
   10.3138  -16.3921   18.3553 O   0  0  0  0  0  0  0  0  0  0  0  0
    7.2272  -14.5133   21.0451 C   0  0  0  0  0  0  0  0  0  0  0  0
    8.2693  -15.2999   21.7687 C   0  0  1  0  0  0  0  0  0  0  0  0
    7.6035  -16.3722   22.3978 O   0  0  0  0  0  0  0  0  0  0  0  0
    9.3771  -15.8356   20.9315 C   0  0  2  0  0  0  0  0  0  0  0  0
    8.7790  -16.7985   19.9974 N   0  0  0  0  0  0  0  0  0  0  0  0
   10.3835  -16.5079   21.7802 C   0  0  0  0  0  0  0  0  0  0  0  0
   10.3433  -17.7650   21.9985 O   0  0  0  0  0  0  0  0  0  0  0  0
   11.4450  -15.8159   22.3963 N   0  0  0  0  0  0  0  0  0  0  0  0
   12.4397  -16.4944   23.2185 C   0  0  1  0  0  0  0  0  0  0  0  0
   13.7640  -15.7027   23.1548 C   0  0  0  0  0  0  0  0  0  0  0  0
   14.8245  -16.4054   23.8884 C   0  0  0  0  0  0  0  0  0  0  0  0
   14.9727  -17.6401   23.7172 O   0  0  0  0  0  0  0  0  0  0  0  0
   12.0460  -16.6183   24.6135 C   0  0  0  0  0  0  0  0  0  0  0  0
   11.2375  -15.7994   25.1160 O   0  0  0  0  0  0  0  0  0  0  0  0
   15.6492  -15.7275   24.7555 O   0  0  0  0  0  0  0  0  0  0  0  0
   12.5416  -17.6269   25.4187 O   0  0  0  0  0  0  0  0  0  0  0  0
  2  1  1  1
  3  4  1  0
  3  2  1  0
  5  6  1  0
  5  4  1  0
  6  7  1  0
  8  2  1  0
  8  9  2  0
 11 10  1  6
 11 13  1  0
 12 11  1  0
 13 14  1  6
 14  8  1  0
 15 13  1  0
 16 15  2  0
 17 15  1  0
 18 22  1  0
 18 17  1  0
 18 19  1  1
 20 19  1  0
 21 20  2  0
 22 25  1  0
 23 22  2  0
 24 20  1  0
M  END
$$$$
