KTD.pdb
     RDKit          3D

 25 24  0  0  1  0  0  0  0  0999 V2000
    7.7081  -17.6540   16.5831 N   0  0  0  0  0  0  0  0  0  0  0  0
    8.3826  -16.8946   17.5709 C   0  0  1  0  0  0  0  0  0  0  0  0
    7.5654  -15.7724   18.1674 C   0  0  0  0  0  0  0  0  0  0  0  0
    8.3111  -14.5998   18.6502 C   0  0  0  0  0  0  0  0  0  0  0  0
    7.5658  -13.4664   19.2411 C   0  0  0  0  0  0  0  0  0  0  0  0
    8.4270  -12.3353   19.7502 C   0  0  0  0  0  0  0  0  0  0  0  0
    9.4617  -11.9186   18.8521 N   0  0  0  0  0  0  0  0  0  0  0  0
    9.0855  -17.6726   18.6169 C   0  0  0  0  0  0  0  0  0  0  0  0
    8.3861  -18.2688   19.4859 O   0  0  0  0  0  0  0  0  0  0  0  0
   11.5696  -20.4513   17.9669 C   0  0  0  0  0  0  0  0  0  0  0  0
   12.1426  -19.4474   18.9115 C   0  0  1  0  0  0  0  0  0  0  0  0
   12.9631  -18.5931   18.1462 O   0  0  0  0  0  0  0  0  0  0  0  0
   11.1556  -18.6293   19.6677 C   0  0  2  0  0  0  0  0  0  0  0  0
   10.4692  -17.7760   18.6889 N   0  0  0  0  0  0  0  0  0  0  0  0
   11.8443  -17.7953   20.6754 C   0  0  0  0  0  0  0  0  0  0  0  0
   12.2620  -16.6209   20.4003 O   0  0  0  0  0  0  0  0  0  0  0  0
   12.0811  -18.2334   21.9935 N   0  0  0  0  0  0  0  0  0  0  0  0
   12.7656  -17.4017   22.9761 C   0  0  1  0  0  0  0  0  0  0  0  0
   12.2613  -17.7778   24.3863 C   0  0  0  0  0  0  0  0  0  0  0  0
   10.8420  -17.4330   24.5389 C   0  0  0  0  0  0  0  0  0  0  0  0
   10.2570  -16.8223   23.6111 O   0  0  0  0  0  0  0  0  0  0  0  0
   14.2123  -17.5532   22.9506 C   0  0  0  0  0  0  0  0  0  0  0  0
   14.9397  -16.7772   23.6181 O   0  0  0  0  0  0  0  0  0  0  0  0
   10.1543  -17.7698   25.6813 O   0  0  0  0  0  0  0  0  0  0  0  0
   14.8236  -18.5419   22.2024 O   0  0  0  0  0  0  0  0  0  0  0  0
  2  1  1  1
  3  4  1  0
  3  2  1  0
  5  6  1  0
  5  4  1  0
  6  7  1  0
  8  2  1  0
  8  9  2  0
 11 10  1  6
 11 13  1  0
 12 11  1  0
 13 14  1  6
 14  8  1  0
 15 13  1  0
 16 15  2  0
 17 15  1  0
 18 22  1  0
 18 17  1  0
 18 19  1  1
 20 19  1  0
 21 20  2  0
 22 25  1  0
 23 22  2  0
 24 20  1  0
M  END
$$$$
