KTD.pdb
     RDKit          3D

 25 24  0  0  1  0  0  0  0  0999 V2000
    8.1586  -15.2619   13.8413 N   0  0  0  0  0  0  0  0  0  0  0  0
    8.3380  -15.8130   15.1342 C   0  0  1  0  0  0  0  0  0  0  0  0
    8.7489  -17.2669   15.1459 C   0  0  0  0  0  0  0  0  0  0  0  0
   10.1210  -17.5667   14.7084 C   0  0  0  0  0  0  0  0  0  0  0  0
   10.5377  -18.9790   14.5635 C   0  0  0  0  0  0  0  0  0  0  0  0
   11.9703  -19.1781   14.1296 C   0  0  0  0  0  0  0  0  0  0  0  0
   12.3524  -20.5439   13.9317 N   0  0  0  0  0  0  0  0  0  0  0  0
    9.1535  -15.0084   16.0727 C   0  0  0  0  0  0  0  0  0  0  0  0
   10.1295  -14.3549   15.6035 O   0  0  0  0  0  0  0  0  0  0  0  0
    7.7647  -12.5714   18.7635 C   0  0  0  0  0  0  0  0  0  0  0  0
    8.7685  -13.5171   19.3349 C   0  0  1  0  0  0  0  0  0  0  0  0
    8.0414  -14.5356   19.9851 O   0  0  0  0  0  0  0  0  0  0  0  0
    9.7090  -14.1337   18.3599 C   0  0  2  0  0  0  0  0  0  0  0  0
    8.8993  -14.9398   17.4370 N   0  0  0  0  0  0  0  0  0  0  0  0
   10.6867  -14.9920   19.0617 C   0  0  0  0  0  0  0  0  0  0  0  0
   10.5229  -16.2544   19.1565 O   0  0  0  0  0  0  0  0  0  0  0  0
   11.8538  -14.4819   19.6641 N   0  0  0  0  0  0  0  0  0  0  0  0
   12.7886  -15.3342   20.3890 C   0  0  1  0  0  0  0  0  0  0  0  0
   14.1986  -14.7096   20.3089 C   0  0  0  0  0  0  0  0  0  0  0  0
   14.7279  -14.7967   18.9418 C   0  0  0  0  0  0  0  0  0  0  0  0
   14.4609  -15.8062   18.2450 O   0  0  0  0  0  0  0  0  0  0  0  0
   12.4421  -15.5063   21.7914 C   0  0  0  0  0  0  0  0  0  0  0  0
   11.5073  -14.8374   22.2969 O   0  0  0  0  0  0  0  0  0  0  0  0
   15.5086  -13.7902   18.4233 O   0  0  0  0  0  0  0  0  0  0  0  0
   13.1204  -16.3988   22.6004 O   0  0  0  0  0  0  0  0  0  0  0  0
  2  1  1  6
  3  4  1  0
  3  2  1  0
  5  6  1  0
  5  4  1  0
  6  7  1  0
  8  2  1  0
  8  9  2  0
 11 10  1  6
 11 13  1  0
 12 11  1  0
 13 14  1  6
 14  8  1  0
 15 13  1  0
 16 15  2  0
 17 15  1  0
 18 22  1  0
 18 17  1  0
 18 19  1  1
 20 19  1  0
 21 20  2  0
 22 25  1  0
 23 22  2  0
 24 20  1  0
M  END
$$$$
