KTD.pdb
     RDKit          3D

 25 24  0  0  1  0  0  0  0  0999 V2000
    8.2253  -17.3716   16.4658 N   0  0  0  0  0  0  0  0  0  0  0  0
    8.1080  -17.6282   17.8543 C   0  0  1  0  0  0  0  0  0  0  0  0
    8.3756  -19.0608   18.2532 C   0  0  0  0  0  0  0  0  0  0  0  0
    8.8731  -19.9561   17.1974 C   0  0  0  0  0  0  0  0  0  0  0  0
    9.1506  -21.3718   17.5260 C   0  0  0  0  0  0  0  0  0  0  0  0
    9.7672  -22.1756   16.4062 C   0  0  0  0  0  0  0  0  0  0  0  0
   10.0899  -23.5286   16.7467 N   0  0  0  0  0  0  0  0  0  0  0  0
    8.8024  -16.6743   18.7493 C   0  0  0  0  0  0  0  0  0  0  0  0
    9.8667  -16.1333   18.3316 O   0  0  0  0  0  0  0  0  0  0  0  0
    7.1798  -13.7842   20.9515 C   0  0  0  0  0  0  0  0  0  0  0  0
    8.0546  -14.7170   21.7215 C   0  0  1  0  0  0  0  0  0  0  0  0
    7.2007  -15.6431   22.3555 O   0  0  0  0  0  0  0  0  0  0  0  0
    9.0743  -15.4558   20.9278 C   0  0  2  0  0  0  0  0  0  0  0  0
    8.3432  -16.3491   20.0197 N   0  0  0  0  0  0  0  0  0  0  0  0
    9.9490  -16.2437   21.8218 C   0  0  0  0  0  0  0  0  0  0  0  0
    9.6943  -17.4622   22.1045 O   0  0  0  0  0  0  0  0  0  0  0  0
   11.1116  -15.7110   22.4134 N   0  0  0  0  0  0  0  0  0  0  0  0
   11.9417  -16.4861   23.3276 C   0  0  1  0  0  0  0  0  0  0  0  0
   13.3539  -15.8629   23.3698 C   0  0  0  0  0  0  0  0  0  0  0  0
   14.2496  -16.6638   24.2142 C   0  0  0  0  0  0  0  0  0  0  0  0
   14.1106  -17.9110   24.2435 O   0  0  0  0  0  0  0  0  0  0  0  0
   11.4185  -16.5290   24.6844 C   0  0  0  0  0  0  0  0  0  0  0  0
   10.6076  -15.6538   25.0758 O   0  0  0  0  0  0  0  0  0  0  0  0
   15.2306  -16.0633   24.9681 O   0  0  0  0  0  0  0  0  0  0  0  0
   11.7913  -17.5203   25.5730 O   0  0  0  0  0  0  0  0  0  0  0  0
  2  1  1  6
  3  4  1  0
  3  2  1  0
  5  6  1  0
  5  4  1  0
  6  7  1  0
  8  2  1  0
  8  9  2  0
 11 10  1  6
 11 13  1  0
 12 11  1  0
 13 14  1  6
 14  8  1  0
 15 13  1  0
 16 15  2  0
 17 15  1  0
 18 22  1  0
 18 17  1  0
 18 19  1  1
 20 19  1  0
 21 20  2  0
 22 25  1  0
 23 22  2  0
 24 20  1  0
M  END
$$$$
