KTD.pdb
     RDKit          3D

 25 24  0  0  1  0  0  0  0  0999 V2000
    8.3909  -16.8103   16.0570 N   0  0  0  0  0  0  0  0  0  0  0  0
    7.9742  -17.0380   17.3919 C   0  0  1  0  0  0  0  0  0  0  0  0
    7.7699  -18.4923   17.7470 C   0  0  0  0  0  0  0  0  0  0  0  0
    8.1392  -19.4787   16.7200 C   0  0  0  0  0  0  0  0  0  0  0  0
    7.8201  -20.9058   16.9452 C   0  0  0  0  0  0  0  0  0  0  0  0
    8.3208  -21.8461   15.8749 C   0  0  0  0  0  0  0  0  0  0  0  0
    7.9568  -23.2181   16.0642 N   0  0  0  0  0  0  0  0  0  0  0  0
    8.7397  -16.3234   18.4392 C   0  0  0  0  0  0  0  0  0  0  0  0
    9.9382  -16.0066   18.1885 O   0  0  0  0  0  0  0  0  0  0  0  0
    7.4432  -13.1843   20.1857 C   0  0  0  0  0  0  0  0  0  0  0  0
    7.9614  -14.1669   21.1828 C   0  0  1  0  0  0  0  0  0  0  0  0
    6.8390  -14.8352   21.7142 O   0  0  0  0  0  0  0  0  0  0  0  0
    8.9281  -15.1721   20.6626 C   0  0  2  0  0  0  0  0  0  0  0  0
    8.2064  -15.9885   19.6778 N   0  0  0  0  0  0  0  0  0  0  0  0
    9.4253  -16.0242   21.7635 C   0  0  0  0  0  0  0  0  0  0  0  0
    8.9511  -17.1904   21.9743 O   0  0  0  0  0  0  0  0  0  0  0  0
   10.4467  -15.6134   22.6429 N   0  0  0  0  0  0  0  0  0  0  0  0
   10.9864  -16.4954   23.6708 C   0  0  1  0  0  0  0  0  0  0  0  0
   12.4024  -16.0107   24.0512 C   0  0  0  0  0  0  0  0  0  0  0  0
   13.2870  -16.0219   22.8790 C   0  0  0  0  0  0  0  0  0  0  0  0
   13.3507  -17.0558   22.1698 O   0  0  0  0  0  0  0  0  0  0  0  0
   10.1757  -16.5360   24.8781 C   0  0  0  0  0  0  0  0  0  0  0  0
    9.2291  -15.7250   25.0300 O   0  0  0  0  0  0  0  0  0  0  0  0
   14.0412  -14.9185   22.5552 O   0  0  0  0  0  0  0  0  0  0  0  0
   10.4175  -17.4554   25.8818 O   0  0  0  0  0  0  0  0  0  0  0  0
  2  1  1  6
  3  4  1  0
  3  2  1  0
  5  6  1  0
  5  4  1  0
  6  7  1  0
  8  2  1  0
  8  9  2  0
 11 10  1  6
 11 13  1  0
 12 11  1  0
 13 14  1  6
 14  8  1  0
 15 13  1  0
 16 15  2  0
 17 15  1  0
 18 22  1  0
 18 17  1  0
 18 19  1  1
 20 19  1  0
 21 20  2  0
 22 25  1  0
 23 22  2  0
 24 20  1  0
M  END
$$$$
