KTD.pdb
     RDKit          3D

 25 24  0  0  1  0  0  0  0  0999 V2000
    7.1049  -17.1862   16.8750 N   0  0  0  0  0  0  0  0  0  0  0  0
    8.4681  -17.3118   17.2403 C   0  0  1  0  0  0  0  0  0  0  0  0
    9.4219  -17.4363   16.0750 C   0  0  0  0  0  0  0  0  0  0  0  0
    9.2030  -18.5701   15.1637 C   0  0  0  0  0  0  0  0  0  0  0  0
   10.0095  -18.6653   13.9268 C   0  0  0  0  0  0  0  0  0  0  0  0
    9.6371  -19.8066   13.0109 C   0  0  0  0  0  0  0  0  0  0  0  0
   10.3406  -19.8285   11.7638 N   0  0  0  0  0  0  0  0  0  0  0  0
    8.9601  -16.3426   18.2462 C   0  0  0  0  0  0  0  0  0  0  0  0
    9.8949  -15.5594   17.9106 O   0  0  0  0  0  0  0  0  0  0  0  0
    7.2313  -13.6341   20.1711 C   0  0  0  0  0  0  0  0  0  0  0  0
    7.8953  -14.5751   21.1209 C   0  0  1  0  0  0  0  0  0  0  0  0
    6.8935  -15.4482   21.5932 O   0  0  0  0  0  0  0  0  0  0  0  0
    9.0189  -15.3762   20.5630 C   0  0  2  0  0  0  0  0  0  0  0  0
    8.4471  -16.2551   19.5346 N   0  0  0  0  0  0  0  0  0  0  0  0
    9.6523  -16.1832   21.6272 C   0  0  0  0  0  0  0  0  0  0  0  0
    9.3115  -17.3946   21.8417 O   0  0  0  0  0  0  0  0  0  0  0  0
   10.6656  -15.6776   22.4656 N   0  0  0  0  0  0  0  0  0  0  0  0
   11.2101  -16.4491   23.5765 C   0  0  1  0  0  0  0  0  0  0  0  0
   12.6872  -16.0499   23.7847 C   0  0  0  0  0  0  0  0  0  0  0  0
   13.5222  -16.5610   22.6900 C   0  0  0  0  0  0  0  0  0  0  0  0
   13.1906  -17.6250   22.1124 O   0  0  0  0  0  0  0  0  0  0  0  0
   10.4974  -16.2391   24.8272 C   0  0  0  0  0  0  0  0  0  0  0  0
   10.7501  -16.9575   25.8256 O   0  0  0  0  0  0  0  0  0  0  0  0
   14.6561  -15.8895   22.2966 O   0  0  0  0  0  0  0  0  0  0  0  0
    9.5337  -15.2562   24.9550 O   0  0  0  0  0  0  0  0  0  0  0  0
  2  1  1  6
  3  4  1  0
  3  2  1  0
  5  6  1  0
  5  4  1  0
  6  7  1  0
  8  2  1  0
  8  9  2  0
 11 10  1  6
 11 13  1  0
 12 11  1  0
 13 14  1  6
 14  8  1  0
 15 13  1  0
 16 15  2  0
 17 15  1  0
 18 22  1  0
 18 17  1  0
 18 19  1  1
 20 19  1  0
 21 20  2  0
 22 25  1  0
 23 22  2  0
 24 20  1  0
M  END
$$$$
