KTD.pdb
     RDKit          3D

 25 24  0  0  1  0  0  0  0  0999 V2000
    7.7994  -13.7004   15.5315 N   0  0  0  0  0  0  0  0  0  0  0  0
    8.1556  -14.8281   16.3118 C   0  0  1  0  0  0  0  0  0  0  0  0
    8.9121  -15.8985   15.5602 C   0  0  0  0  0  0  0  0  0  0  0  0
    8.9205  -15.7915   14.0931 C   0  0  0  0  0  0  0  0  0  0  0  0
    9.5381  -16.8744   13.2962 C   0  0  0  0  0  0  0  0  0  0  0  0
    9.4182  -16.7106   11.7998 C   0  0  0  0  0  0  0  0  0  0  0  0
   10.0661  -17.7306   11.0313 N   0  0  0  0  0  0  0  0  0  0  0  0
    8.7812  -14.5364   17.6221 C   0  0  0  0  0  0  0  0  0  0  0  0
    9.7897  -13.7734   17.6433 O   0  0  0  0  0  0  0  0  0  0  0  0
    7.2028  -12.9405   20.4976 C   0  0  0  0  0  0  0  0  0  0  0  0
    7.8501  -14.1945   20.9845 C   0  0  1  0  0  0  0  0  0  0  0  0
    6.8253  -15.1540   21.1179 O   0  0  0  0  0  0  0  0  0  0  0  0
    8.9282  -14.7473   20.1198 C   0  0  2  0  0  0  0  0  0  0  0  0
    8.3160  -15.0603   18.8220 N   0  0  0  0  0  0  0  0  0  0  0  0
    9.4940  -15.9719   20.7242 C   0  0  0  0  0  0  0  0  0  0  0  0
    9.1434  -17.1353   20.3330 O   0  0  0  0  0  0  0  0  0  0  0  0
   10.4500  -15.9390   21.7588 N   0  0  0  0  0  0  0  0  0  0  0  0
   10.8910  -17.1469   22.4460 C   0  0  1  0  0  0  0  0  0  0  0  0
   12.3275  -17.4841   21.9904 C   0  0  0  0  0  0  0  0  0  0  0  0
   13.2320  -16.3564   22.2488 C   0  0  0  0  0  0  0  0  0  0  0  0
   12.7773  -15.3178   22.7878 O   0  0  0  0  0  0  0  0  0  0  0  0
   10.8876  -17.0186   23.8951 C   0  0  0  0  0  0  0  0  0  0  0  0
   11.2629  -17.9771   24.6142 O   0  0  0  0  0  0  0  0  0  0  0  0
   14.5621  -16.4277   21.9067 O   0  0  0  0  0  0  0  0  0  0  0  0
   10.4775  -15.8544   24.5178 O   0  0  0  0  0  0  0  0  0  0  0  0
  2  1  1  6
  3  4  1  0
  3  2  1  0
  5  6  1  0
  5  4  1  0
  6  7  1  0
  8  2  1  0
  8  9  2  0
 11 10  1  6
 11 13  1  0
 12 11  1  0
 13 14  1  6
 14  8  1  0
 15 13  1  0
 16 15  2  0
 17 15  1  0
 18 22  1  0
 18 17  1  0
 18 19  1  6
 20 19  1  0
 21 20  2  0
 22 25  1  0
 23 22  2  0
 24 20  1  0
M  END
$$$$
