IDQ.pdb
     RDKit          3D

 26 25  0  0  1  0  0  0  0  0999 V2000
   29.4990  -12.7088  -17.6613 C   0  0  0  0  0  0  0  0  0  0  0  0
   28.5605  -12.3298  -16.5597 C   0  0  0  0  0  0  0  0  0  0  0  0
   27.5541  -11.2763  -16.9667 C   0  0  2  0  0  0  0  0  0  0  0  0
   28.2424  -10.0440  -17.5264 C   0  0  0  0  0  0  0  0  0  0  0  0
   26.7048  -10.9357  -15.7655 C   0  0  2  0  0  0  0  0  0  0  0  0
   26.2802  -12.1687  -15.1472 N   0  0  0  0  0  0  0  0  0  0  0  0
   25.5074  -10.1414  -16.1941 C   0  0  0  0  0  0  0  0  0  0  0  0
   25.6796   -9.1018  -16.8730 O   0  0  0  0  0  0  0  0  0  0  0  0
   24.1882  -10.5239  -15.8594 N   0  0  0  0  0  0  0  0  0  0  0  0
   23.0897   -9.7437  -16.3912 C   0  0  1  0  0  0  0  0  0  0  0  0
   21.8628  -10.6259  -16.3750 C   0  0  0  0  0  0  0  0  0  0  0  0
   21.8840  -11.6518  -17.4121 C   0  0  0  0  0  0  0  0  0  0  0  0
   22.4796  -11.4500  -18.4911 O   0  0  0  0  0  0  0  0  0  0  0  0
   22.8534   -8.5222  -15.5611 C   0  0  0  0  0  0  0  0  0  0  0  0
   22.8642   -8.5565  -14.3074 O   0  0  0  0  0  0  0  0  0  0  0  0
   21.2310  -12.8511  -17.1740 O   0  0  0  0  0  0  0  0  0  0  0  0
   23.4351   -2.7606  -17.9517 N   0  0  0  0  0  0  0  0  0  0  0  0
   23.0451   -2.4654  -16.6165 C   0  0  0  0  0  0  0  0  0  0  0  0
   23.0116   -1.2369  -16.2703 O   0  0  0  0  0  0  0  0  0  0  0  0
   22.6858   -3.5286  -15.6427 C   0  0  0  0  0  0  0  0  0  0  0  0
   22.8145   -4.8645  -16.3093 C   0  0  0  0  0  0  0  0  0  0  0  0
   22.4685   -6.0211  -15.4127 C   0  0  2  0  0  0  0  0  0  0  0  0
   22.6032   -7.2552  -16.1603 N   0  0  0  0  0  0  0  0  0  0  0  0
   21.1235   -5.8972  -14.8089 C   0  0  0  0  0  0  0  0  0  0  0  0
   20.0214   -6.6260  -15.2107 O   0  0  0  0  0  0  0  0  0  0  0  0
   20.9709   -5.0796  -13.8726 O   0  0  0  0  0  0  0  0  0  0  0  0
  2  1  1  0
  3  5  1  0
  3  2  1  0
  3  4  1  1
  5  6  1  6
  7  5  1  0
  7  8  2  0
  9  7  1  0
 10  9  1  0
 11 12  1  0
 10 11  1  1
 12 16  1  0
 13 12  2  0
 14 10  1  0
 15 14  2  0
 17 18  1  0
 18 19  2  0
 18 20  1  0
 20 21  1  0
 22 21  1  6
 22 23  1  0
 22 24  1  0
 23 14  1  0
 24 25  1  0
 26 24  2  0
M  END
$$$$
