IDQ.pdb
     RDKit          3D

 26 25  0  0  1  0  0  0  0  0999 V2000
   25.4315  -16.7469  -16.2090 C   0  0  0  0  0  0  0  0  0  0  0  0
   24.2003  -16.0417  -15.7352 C   0  0  0  0  0  0  0  0  0  0  0  0
   24.1993  -14.5621  -16.0502 C   0  0  2  0  0  0  0  0  0  0  0  0
   25.3862  -13.8623  -15.4123 C   0  0  0  0  0  0  0  0  0  0  0  0
   22.8921  -13.9724  -15.5771 C   0  0  2  0  0  0  0  0  0  0  0  0
   21.8218  -14.8368  -16.0131 N   0  0  0  0  0  0  0  0  0  0  0  0
   22.7093  -12.6019  -16.1573 C   0  0  0  0  0  0  0  0  0  0  0  0
   23.5664  -11.7202  -15.9139 O   0  0  0  0  0  0  0  0  0  0  0  0
   21.6025  -12.2678  -16.9709 N   0  0  0  0  0  0  0  0  0  0  0  0
   21.4914  -10.9076  -17.4566 C   0  0  1  0  0  0  0  0  0  0  0  0
   20.5741  -10.9328  -18.6574 C   0  0  0  0  0  0  0  0  0  0  0  0
   21.2117  -11.4781  -19.8510 C   0  0  0  0  0  0  0  0  0  0  0  0
   22.3511  -11.0964  -20.1914 O   0  0  0  0  0  0  0  0  0  0  0  0
   20.9288  -10.0096  -16.4011 C   0  0  0  0  0  0  0  0  0  0  0  0
   20.1302  -10.4262  -15.5285 O   0  0  0  0  0  0  0  0  0  0  0  0
   20.5273  -12.4257  -20.5961 O   0  0  0  0  0  0  0  0  0  0  0  0
   23.3843   -4.3409  -15.2154 N   0  0  0  0  0  0  0  0  0  0  0  0
   22.3306   -4.3966  -14.2622 C   0  0  0  0  0  0  0  0  0  0  0  0
   22.2231   -3.4215  -13.4450 O   0  0  0  0  0  0  0  0  0  0  0  0
   21.3782   -5.5353  -14.1998 C   0  0  0  0  0  0  0  0  0  0  0  0
   21.7454   -6.5368  -15.2522 C   0  0  0  0  0  0  0  0  0  0  0  0
   20.8361   -7.7339  -15.2882 C   0  0  2  0  0  0  0  0  0  0  0  0
   21.2766   -8.6304  -16.3381 N   0  0  0  0  0  0  0  0  0  0  0  0
   19.4115   -7.3684  -15.4498 C   0  0  0  0  0  0  0  0  0  0  0  0
   18.5735   -7.0285  -14.4061 O   0  0  0  0  0  0  0  0  0  0  0  0
   18.9313   -7.3661  -16.6065 O   0  0  0  0  0  0  0  0  0  0  0  0
  2  1  1  0
  3  5  1  0
  3  2  1  0
  3  4  1  1
  5  6  1  6
  7  5  1  0
  7  8  2  0
  9  7  1  0
 10  9  1  0
 11 12  1  0
 10 11  1  6
 12 16  1  0
 13 12  2  0
 14 10  1  0
 15 14  2  0
 17 18  1  0
 18 19  2  0
 18 20  1  0
 20 21  1  0
 22 21  1  6
 22 23  1  0
 22 24  1  0
 23 14  1  0
 24 25  1  0
 26 24  2  0
M  END
$$$$
