IDQ.pdb
     RDKit          3D

 26 25  0  0  1  0  0  0  0  0999 V2000
   23.9344  -12.0892  -15.4412 C   0  0  0  0  0  0  0  0  0  0  0  0
   22.5146  -12.5597  -15.4582 C   0  0  0  0  0  0  0  0  0  0  0  0
   21.5092  -11.4295  -15.4481 C   0  0  2  0  0  0  0  0  0  0  0  0
   21.7334  -10.5034  -14.2660 C   0  0  0  0  0  0  0  0  0  0  0  0
   20.1209  -12.0233  -15.4277 C   0  0  2  0  0  0  0  0  0  0  0  0
   20.0091  -12.9502  -16.5282 N   0  0  0  0  0  0  0  0  0  0  0  0
   19.0975  -10.9367  -15.5701 C   0  0  0  0  0  0  0  0  0  0  0  0
   19.0606  -10.2728  -16.6327 O   0  0  0  0  0  0  0  0  0  0  0  0
   18.1706  -10.6335  -14.5467 N   0  0  0  0  0  0  0  0  0  0  0  0
   17.2586   -9.5266  -14.7502 C   0  0  1  0  0  0  0  0  0  0  0  0
   15.9302   -9.9224  -14.1481 C   0  0  0  0  0  0  0  0  0  0  0  0
   14.8875   -8.9243  -14.3605 C   0  0  0  0  0  0  0  0  0  0  0  0
   14.8295   -7.9053  -13.6407 O   0  0  0  0  0  0  0  0  0  0  0  0
   17.7711   -8.2864  -14.0898 C   0  0  0  0  0  0  0  0  0  0  0  0
   18.4425   -8.3242  -13.0312 O   0  0  0  0  0  0  0  0  0  0  0  0
   13.9661   -9.1312  -15.3753 O   0  0  0  0  0  0  0  0  0  0  0  0
   22.3634   -6.2224  -14.4323 N   0  0  0  0  0  0  0  0  0  0  0  0
   21.8552   -4.9514  -14.0472 C   0  0  0  0  0  0  0  0  0  0  0  0
   22.7022   -4.0310  -13.7910 O   0  0  0  0  0  0  0  0  0  0  0  0
   20.3982   -4.6802  -13.9398 C   0  0  0  0  0  0  0  0  0  0  0  0
   19.6432   -5.9303  -14.2756 C   0  0  0  0  0  0  0  0  0  0  0  0
   18.1510   -5.7811  -14.1643 C   0  0  2  0  0  0  0  0  0  0  0  0
   17.5182   -6.9963  -14.6366 N   0  0  0  0  0  0  0  0  0  0  0  0
   17.6381   -4.5905  -14.8773 C   0  0  0  0  0  0  0  0  0  0  0  0
   16.7709   -4.6417  -15.9509 O   0  0  0  0  0  0  0  0  0  0  0  0
   18.0124   -3.4618  -14.4846 O   0  0  0  0  0  0  0  0  0  0  0  0
  2  1  1  0
  3  5  1  0
  3  2  1  0
  3  4  1  1
  5  6  1  6
  7  5  1  0
  7  8  2  0
  9  7  1  0
 10  9  1  0
 11 12  1  0
 10 11  1  1
 12 16  1  0
 13 12  2  0
 14 10  1  0
 15 14  2  0
 17 18  1  0
 18 19  2  0
 18 20  1  0
 20 21  1  0
 22 21  1  6
 22 23  1  0
 22 24  1  0
 23 14  1  0
 24 25  1  0
 26 24  2  0
M  END
$$$$
