IDQ.pdb
     RDKit          3D

 26 25  0  0  1  0  0  0  0  0999 V2000
   15.4859  -13.6602  -10.6220 C   0  0  0  0  0  0  0  0  0  0  0  0
   14.2382  -12.9521  -11.0460 C   0  0  0  0  0  0  0  0  0  0  0  0
   14.4158  -11.4560  -11.1820 C   0  0  2  0  0  0  0  0  0  0  0  0
   15.7404  -11.1162  -11.8419 C   0  0  0  0  0  0  0  0  0  0  0  0
   14.3078  -10.8341   -9.8102 C   0  0  2  0  0  0  0  0  0  0  0  0
   13.0218  -11.1826   -9.2554 N   0  0  0  0  0  0  0  0  0  0  0  0
   14.4316   -9.3432   -9.9130 C   0  0  0  0  0  0  0  0  0  0  0  0
   13.5344   -8.6989  -10.5055 O   0  0  0  0  0  0  0  0  0  0  0  0
   15.5264   -8.6369   -9.3645 N   0  0  0  0  0  0  0  0  0  0  0  0
   15.6775   -7.2353   -9.6977 C   0  0  1  0  0  0  0  0  0  0  0  0
   15.5825   -6.4539   -8.4076 C   0  0  0  0  0  0  0  0  0  0  0  0
   15.6615   -5.0109   -8.6075 C   0  0  0  0  0  0  0  0  0  0  0  0
   15.7640   -4.5350   -9.7576 O   0  0  0  0  0  0  0  0  0  0  0  0
   16.9979   -6.9832  -10.3533 C   0  0  0  0  0  0  0  0  0  0  0  0
   18.0784   -7.3646   -9.8433 O   0  0  0  0  0  0  0  0  0  0  0  0
   15.6204   -4.1828   -7.4966 O   0  0  0  0  0  0  0  0  0  0  0  0
   20.1062   -9.8903  -13.0352 N   0  0  0  0  0  0  0  0  0  0  0  0
   20.7956   -8.7372  -13.5012 C   0  0  0  0  0  0  0  0  0  0  0  0
   21.9311   -8.9142  -14.0576 O   0  0  0  0  0  0  0  0  0  0  0  0
   20.2366   -7.3680  -13.3575 C   0  0  0  0  0  0  0  0  0  0  0  0
   18.9413   -7.4460  -12.6083 C   0  0  0  0  0  0  0  0  0  0  0  0
   18.3282   -6.1028  -12.3233 C   0  0  2  0  0  0  0  0  0  0  0  0
   17.0897   -6.2935  -11.5954 N   0  0  0  0  0  0  0  0  0  0  0  0
   18.1197   -5.2957  -13.5457 C   0  0  0  0  0  0  0  0  0  0  0  0
   16.8798   -4.9553  -14.0497 O   0  0  0  0  0  0  0  0  0  0  0  0
   19.1307   -4.8936  -14.1659 O   0  0  0  0  0  0  0  0  0  0  0  0
  2  1  1  0
  3  5  1  0
  3  2  1  0
  3  4  1  1
  5  6  1  6
  7  5  1  0
  7  8  2  0
  9  7  1  0
 10  9  1  0
 11 12  1  0
 10 11  1  1
 12 16  1  0
 13 12  2  0
 14 10  1  0
 15 14  2  0
 17 18  1  0
 18 19  2  0
 18 20  1  0
 20 21  1  0
 22 21  1  6
 22 23  1  0
 22 24  1  0
 23 14  1  0
 24 25  1  0
 26 24  2  0
M  END
$$$$
