IDQ.pdb
     RDKit          3D

 26 25  0  0  1  0  0  0  0  0999 V2000
   26.1838  -15.9511  -15.2699 C   0  0  0  0  0  0  0  0  0  0  0  0
   24.8489  -15.8524  -15.9379 C   0  0  0  0  0  0  0  0  0  0  0  0
   24.5895  -14.4981  -16.5598 C   0  0  2  0  0  0  0  0  0  0  0  0
   24.5782  -13.4023  -15.5087 C   0  0  0  0  0  0  0  0  0  0  0  0
   23.2793  -14.5576  -17.3082 C   0  0  2  0  0  0  0  0  0  0  0  0
   23.3319  -15.6714  -18.2245 N   0  0  0  0  0  0  0  0  0  0  0  0
   23.0653  -13.2823  -18.0674 C   0  0  0  0  0  0  0  0  0  0  0  0
   23.6872  -13.1030  -19.1408 O   0  0  0  0  0  0  0  0  0  0  0  0
   22.1852  -12.2728  -17.6148 N   0  0  0  0  0  0  0  0  0  0  0  0
   21.9846  -11.1085  -18.4531 C   0  0  1  0  0  0  0  0  0  0  0  0
   21.4717  -11.5986  -19.7875 C   0  0  0  0  0  0  0  0  0  0  0  0
   21.2115  -10.5167  -20.7309 C   0  0  0  0  0  0  0  0  0  0  0  0
   22.0512   -9.6078  -20.9004 O   0  0  0  0  0  0  0  0  0  0  0  0
   20.9945  -10.1726  -17.8362 C   0  0  0  0  0  0  0  0  0  0  0  0
   19.9589  -10.5834  -17.2600 O   0  0  0  0  0  0  0  0  0  0  0  0
   20.0160  -10.5199  -21.4326 O   0  0  0  0  0  0  0  0  0  0  0  0
   22.1732   -9.3344  -13.1112 N   0  0  0  0  0  0  0  0  0  0  0  0
   21.5614   -8.0507  -13.1197 C   0  0  0  0  0  0  0  0  0  0  0  0
   21.3542   -7.4892  -11.9918 O   0  0  0  0  0  0  0  0  0  0  0  0
   21.1693   -7.3684  -14.3800 C   0  0  0  0  0  0  0  0  0  0  0  0
   21.4625   -8.2743  -15.5370 C   0  0  0  0  0  0  0  0  0  0  0  0
   20.7791   -7.8638  -16.8120 C   0  0  2  0  0  0  0  0  0  0  0  0
   21.1833   -8.7620  -17.8750 N   0  0  0  0  0  0  0  0  0  0  0  0
   21.0328   -6.4509  -17.1704 C   0  0  0  0  0  0  0  0  0  0  0  0
   22.1263   -6.0173  -17.8939 O   0  0  0  0  0  0  0  0  0  0  0  0
   20.2045   -5.5899  -16.7951 O   0  0  0  0  0  0  0  0  0  0  0  0
  2  1  1  0
  3  5  1  0
  3  2  1  0
  3  4  1  1
  5  6  1  6
  7  5  1  0
  7  8  2  0
  9  7  1  0
 10  9  1  0
 11 12  1  0
 10 11  1  6
 12 16  1  0
 13 12  2  0
 14 10  1  0
 15 14  2  0
 17 18  1  0
 18 19  2  0
 18 20  1  0
 20 21  1  0
 22 21  1  1
 22 23  1  0
 22 24  1  0
 23 14  1  0
 24 25  1  0
 26 24  2  0
M  END
$$$$
