IDQ.pdb
     RDKit          3D

 26 25  0  0  1  0  0  0  0  0999 V2000
   18.2314  -13.8095  -17.3707 C   0  0  0  0  0  0  0  0  0  0  0  0
   19.3628  -12.8310  -17.3726 C   0  0  0  0  0  0  0  0  0  0  0  0
   19.2637  -11.7991  -16.2708 C   0  0  2  0  0  0  0  0  0  0  0  0
   17.9657  -11.0169  -16.3639 C   0  0  0  0  0  0  0  0  0  0  0  0
   20.4643  -10.8874  -16.3589 C   0  0  2  0  0  0  0  0  0  0  0  0
   21.6552  -11.6991  -16.2841 N   0  0  0  0  0  0  0  0  0  0  0  0
   20.4448   -9.9050  -15.2262 C   0  0  0  0  0  0  0  0  0  0  0  0
   20.1547  -10.3100  -14.0760 O   0  0  0  0  0  0  0  0  0  0  0  0
   20.7426   -8.5352  -15.4096 N   0  0  0  0  0  0  0  0  0  0  0  0
   20.6514   -7.6521  -14.2650 C   0  0  1  0  0  0  0  0  0  0  0  0
   21.6554   -6.5419  -14.4729 C   0  0  0  0  0  0  0  0  0  0  0  0
   21.6810   -5.5826  -13.3740 C   0  0  0  0  0  0  0  0  0  0  0  0
   22.2538   -4.4809  -13.5076 O   0  0  0  0  0  0  0  0  0  0  0  0
   19.2746   -7.0812  -14.1415 C   0  0  0  0  0  0  0  0  0  0  0  0
   18.6275   -6.6810  -15.1385 O   0  0  0  0  0  0  0  0  0  0  0  0
   21.0575   -5.9199  -12.1827 O   0  0  0  0  0  0  0  0  0  0  0  0
   15.0223   -7.3817   -9.3064 N   0  0  0  0  0  0  0  0  0  0  0  0
   16.2588   -6.7145   -9.0873 C   0  0  0  0  0  0  0  0  0  0  0  0
   16.5264   -6.3460   -7.8945 O   0  0  0  0  0  0  0  0  0  0  0  0
   17.2194   -6.4449  -10.1884 C   0  0  0  0  0  0  0  0  0  0  0  0
   16.6945   -7.0527  -11.4535 C   0  0  0  0  0  0  0  0  0  0  0  0
   17.2858   -6.4543  -12.6999 C   0  0  2  0  0  0  0  0  0  0  0  0
   18.6305   -6.9647  -12.8771 N   0  0  0  0  0  0  0  0  0  0  0  0
   17.2641   -4.9750  -12.6928 C   0  0  0  0  0  0  0  0  0  0  0  0
   16.1221   -4.2140  -12.8475 O   0  0  0  0  0  0  0  0  0  0  0  0
   18.3498   -4.3705  -12.5367 O   0  0  0  0  0  0  0  0  0  0  0  0
  2  1  1  0
  3  5  1  0
  3  2  1  0
  3  4  1  6
  5  6  1  1
  7  5  1  0
  7  8  2  0
  9  7  1  0
 10  9  1  0
 11 12  1  0
 10 11  1  6
 12 16  1  0
 13 12  2  0
 14 10  1  0
 15 14  2  0
 17 18  1  0
 18 19  2  0
 18 20  1  0
 20 21  1  0
 22 21  1  1
 22 23  1  0
 22 24  1  0
 23 14  1  0
 24 25  1  0
 26 24  2  0
M  END
$$$$
