IDQ.pdb
     RDKit          3D

 26 25  0  0  1  0  0  0  0  0999 V2000
   21.4061  -14.6363  -21.2582 C   0  0  0  0  0  0  0  0  0  0  0  0
   22.0992  -13.9911  -20.1001 C   0  0  0  0  0  0  0  0  0  0  0  0
   21.4412  -12.7059  -19.6491 C   0  0  2  0  0  0  0  0  0  0  0  0
   21.3015  -11.7253  -20.7999 C   0  0  0  0  0  0  0  0  0  0  0  0
   22.2571  -12.1199  -18.5216 C   0  0  2  0  0  0  0  0  0  0  0  0
   22.4963  -13.1589  -17.5488 N   0  0  0  0  0  0  0  0  0  0  0  0
   21.5097  -10.9869  -17.8843 C   0  0  0  0  0  0  0  0  0  0  0  0
   21.2181   -9.9850  -18.5788 O   0  0  0  0  0  0  0  0  0  0  0  0
   21.1213  -11.0082  -16.5251 N   0  0  0  0  0  0  0  0  0  0  0  0
   20.3716   -9.8827  -16.0061 C   0  0  1  0  0  0  0  0  0  0  0  0
   19.5275  -10.3943  -14.8617 C   0  0  0  0  0  0  0  0  0  0  0  0
   18.2941  -11.0353  -15.3046 C   0  0  0  0  0  0  0  0  0  0  0  0
   17.7938  -11.9706  -14.6454 O   0  0  0  0  0  0  0  0  0  0  0  0
   21.2919   -8.8074  -15.5229 C   0  0  0  0  0  0  0  0  0  0  0  0
   22.2570   -9.0499  -14.7594 O   0  0  0  0  0  0  0  0  0  0  0  0
   17.6919  -10.5847  -16.4691 O   0  0  0  0  0  0  0  0  0  0  0  0
   21.0739   -2.8713  -17.6657 N   0  0  0  0  0  0  0  0  0  0  0  0
   21.9520   -2.7393  -16.5551 C   0  0  0  0  0  0  0  0  0  0  0  0
   22.4144   -1.5759  -16.3044 O   0  0  0  0  0  0  0  0  0  0  0  0
   22.3320   -3.8963  -15.7038 C   0  0  0  0  0  0  0  0  0  0  0  0
   21.6608   -5.1291  -16.2281 C   0  0  0  0  0  0  0  0  0  0  0  0
   21.8949   -6.3492  -15.3809 C   0  0  2  0  0  0  0  0  0  0  0  0
   21.1135   -7.4490  -15.9102 N   0  0  0  0  0  0  0  0  0  0  0  0
   21.6046   -6.1181  -13.9486 C   0  0  0  0  0  0  0  0  0  0  0  0
   22.5079   -5.5876  -13.0487 O   0  0  0  0  0  0  0  0  0  0  0  0
   20.4673   -6.4221  -13.5213 O   0  0  0  0  0  0  0  0  0  0  0  0
  2  1  1  0
  3  5  1  0
  3  2  1  0
  3  4  1  6
  5  6  1  1
  7  5  1  0
  7  8  2  0
  9  7  1  0
 10  9  1  0
 11 12  1  0
 10 11  1  1
 12 16  1  0
 13 12  2  0
 14 10  1  0
 15 14  2  0
 17 18  1  0
 18 19  2  0
 18 20  1  0
 20 21  1  0
 22 21  1  6
 22 23  1  0
 22 24  1  0
 23 14  1  0
 24 25  1  0
 26 24  2  0
M  END
$$$$
