IDQ.pdb
     RDKit          3D

 26 25  0  0  1  0  0  0  0  0999 V2000
   30.4645  -21.6073  -10.5471 C   0  0  0  0  0  0  0  0  0  0  0  0
   29.0368  -21.2772  -10.2460 C   0  0  0  0  0  0  0  0  0  0  0  0
   28.2802  -20.7450  -11.4428 C   0  0  2  0  0  0  0  0  0  0  0  0
   28.8888  -19.4487  -11.9474 C   0  0  0  0  0  0  0  0  0  0  0  0
   26.8337  -20.5592  -11.0513 C   0  0  2  0  0  0  0  0  0  0  0  0
   26.3697  -21.7816  -10.4401 N   0  0  0  0  0  0  0  0  0  0  0  0
   26.0101  -20.2519  -12.2661 C   0  0  0  0  0  0  0  0  0  0  0  0
   26.1306  -19.1308  -12.8137 O   0  0  0  0  0  0  0  0  0  0  0  0
   25.1007  -21.1834  -12.8173 N   0  0  0  0  0  0  0  0  0  0  0  0
   24.3111  -20.7791  -13.9624 C   0  0  1  0  0  0  0  0  0  0  0  0
   24.8969  -21.4628  -15.1762 C   0  0  0  0  0  0  0  0  0  0  0  0
   24.9863  -20.5849  -16.3379 C   0  0  0  0  0  0  0  0  0  0  0  0
   24.1447  -19.6792  -16.5141 O   0  0  0  0  0  0  0  0  0  0  0  0
   22.8801  -21.1786  -13.7902 C   0  0  0  0  0  0  0  0  0  0  0  0
   22.5504  -22.2446  -13.2176 O   0  0  0  0  0  0  0  0  0  0  0  0
   26.0225  -20.7775  -17.2384 O   0  0  0  0  0  0  0  0  0  0  0  0
   18.1861  -17.0812  -14.5583 N   0  0  0  0  0  0  0  0  0  0  0  0
   18.9999  -17.2002  -13.3983 C   0  0  0  0  0  0  0  0  0  0  0  0
   19.0056  -16.2208  -12.5793 O   0  0  0  0  0  0  0  0  0  0  0  0
   19.8214  -18.4084  -13.1275 C   0  0  0  0  0  0  0  0  0  0  0  0
   19.6165  -19.3961  -14.2356 C   0  0  0  0  0  0  0  0  0  0  0  0
   20.4148  -20.6598  -14.0716 C   0  0  2  0  0  0  0  0  0  0  0  0
   21.8187  -20.3611  -14.2720 N   0  0  0  0  0  0  0  0  0  0  0  0
   19.9591  -21.7471  -14.9655 C   0  0  0  0  0  0  0  0  0  0  0  0
   18.9166  -22.6054  -14.6758 O   0  0  0  0  0  0  0  0  0  0  0  0
   20.5548  -21.9021  -16.0561 O   0  0  0  0  0  0  0  0  0  0  0  0
  2  1  1  0
  3  5  1  0
  3  2  1  0
  3  4  1  1
  5  6  1  6
  7  5  1  0
  7  8  2  0
  9  7  1  0
 10  9  1  0
 11 12  1  0
 10 11  1  6
 12 16  1  0
 13 12  2  0
 14 10  1  0
 15 14  2  0
 17 18  1  0
 18 19  2  0
 18 20  1  0
 20 21  1  0
 22 21  1  6
 22 23  1  0
 22 24  1  0
 23 14  1  0
 24 25  1  0
 26 24  2  0
M  END
$$$$
