IDQ.pdb
     RDKit          3D

 26 25  0  0  1  0  0  0  0  0999 V2000
   27.3976  -13.9656  -15.1752 C   0  0  0  0  0  0  0  0  0  0  0  0
   27.4412  -13.6510  -16.6370 C   0  0  0  0  0  0  0  0  0  0  0  0
   26.9340  -12.2644  -16.9663 C   0  0  2  0  0  0  0  0  0  0  0  0
   27.6239  -11.2100  -16.1191 C   0  0  0  0  0  0  0  0  0  0  0  0
   25.4377  -12.2411  -16.7647 C   0  0  2  0  0  0  0  0  0  0  0  0
   24.8808  -13.4258  -17.3725 N   0  0  0  0  0  0  0  0  0  0  0  0
   24.8541  -11.0172  -17.4049 C   0  0  0  0  0  0  0  0  0  0  0  0
   25.2060   -9.8882  -16.9893 O   0  0  0  0  0  0  0  0  0  0  0  0
   23.9191  -11.0911  -18.4626 N   0  0  0  0  0  0  0  0  0  0  0  0
   23.3895   -9.8547  -19.0004 C   0  0  1  0  0  0  0  0  0  0  0  0
   22.8960  -10.1477  -20.3984 C   0  0  0  0  0  0  0  0  0  0  0  0
   23.9464  -10.6409  -21.2826 C   0  0  0  0  0  0  0  0  0  0  0  0
   25.0548  -10.0675  -21.3314 O   0  0  0  0  0  0  0  0  0  0  0  0
   22.2648   -9.3456  -18.1563 C   0  0  0  0  0  0  0  0  0  0  0  0
   21.3903  -10.1087  -17.6809 O   0  0  0  0  0  0  0  0  0  0  0  0
   23.6878  -11.7559  -22.0645 O   0  0  0  0  0  0  0  0  0  0  0  0
   21.8800   -9.1143  -13.0925 N   0  0  0  0  0  0  0  0  0  0  0  0
   20.8543   -8.1353  -13.2006 C   0  0  0  0  0  0  0  0  0  0  0  0
   20.2138   -7.8331  -12.1382 O   0  0  0  0  0  0  0  0  0  0  0  0
   20.5221   -7.4750  -14.4895 C   0  0  0  0  0  0  0  0  0  0  0  0
   21.3698   -8.0674  -15.5739 C   0  0  0  0  0  0  0  0  0  0  0  0
   21.1611   -7.4281  -16.9189 C   0  0  2  0  0  0  0  0  0  0  0  0
   22.1340   -7.9610  -17.8514 N   0  0  0  0  0  0  0  0  0  0  0  0
   21.2132   -5.9504  -16.8666 C   0  0  0  0  0  0  0  0  0  0  0  0
   20.2664   -5.1612  -16.2438 O   0  0  0  0  0  0  0  0  0  0  0  0
   22.1769   -5.3747  -17.4220 O   0  0  0  0  0  0  0  0  0  0  0  0
  2  1  1  0
  3  5  1  0
  3  2  1  0
  3  4  1  1
  5  6  1  6
  7  5  1  0
  7  8  2  0
  9  7  1  0
 10  9  1  0
 11 12  1  0
 10 11  1  6
 12 16  1  0
 13 12  2  0
 14 10  1  0
 15 14  2  0
 17 18  1  0
 18 19  2  0
 18 20  1  0
 20 21  1  0
 22 21  1  1
 22 23  1  0
 22 24  1  0
 23 14  1  0
 24 25  1  0
 26 24  2  0
M  END
$$$$
