IDQ.pdb
     RDKit          3D

 26 25  0  0  1  0  0  0  0  0999 V2000
   27.8303  -13.3920  -15.3649 C   0  0  0  0  0  0  0  0  0  0  0  0
   26.3608  -13.5287  -15.6094 C   0  0  0  0  0  0  0  0  0  0  0  0
   25.6582  -12.2015  -15.7915 C   0  0  2  0  0  0  0  0  0  0  0  0
   25.8275  -11.3164  -14.5695 C   0  0  0  0  0  0  0  0  0  0  0  0
   24.2004  -12.4671  -16.0823 C   0  0  2  0  0  0  0  0  0  0  0  0
   24.1196  -13.3465  -17.2237 N   0  0  0  0  0  0  0  0  0  0  0  0
   23.4951  -11.1779  -16.3808 C   0  0  0  0  0  0  0  0  0  0  0  0
   23.7754  -10.5627  -17.4363 O   0  0  0  0  0  0  0  0  0  0  0  0
   22.5231  -10.6304  -15.5125 N   0  0  0  0  0  0  0  0  0  0  0  0
   21.8216   -9.4344  -15.9319 C   0  0  1  0  0  0  0  0  0  0  0  0
   20.3587   -9.6354  -15.6102 C   0  0  0  0  0  0  0  0  0  0  0  0
   19.7062  -10.5935  -16.4960 C   0  0  0  0  0  0  0  0  0  0  0  0
   20.2094  -10.8776  -17.6032 O   0  0  0  0  0  0  0  0  0  0  0  0
   22.3436   -8.2313  -15.2129 C   0  0  0  0  0  0  0  0  0  0  0  0
   22.5000   -8.2147  -13.9686 O   0  0  0  0  0  0  0  0  0  0  0  0
   18.5197  -11.1793  -16.0831 O   0  0  0  0  0  0  0  0  0  0  0  0
   23.5486   -6.2675  -18.6855 N   0  0  0  0  0  0  0  0  0  0  0  0
   24.8458   -6.3102  -18.1046 C   0  0  0  0  0  0  0  0  0  0  0  0
   25.7556   -6.9417  -18.7400 O   0  0  0  0  0  0  0  0  0  0  0  0
   25.1554   -5.6527  -16.8086 C   0  0  0  0  0  0  0  0  0  0  0  0
   23.9121   -5.0033  -16.2816 C   0  0  0  0  0  0  0  0  0  0  0  0
   23.1789   -5.8386  -15.2686 C   0  0  2  0  0  0  0  0  0  0  0  0
   22.6893   -7.0408  -15.9130 N   0  0  0  0  0  0  0  0  0  0  0  0
   22.0866   -5.1000  -14.5976 C   0  0  0  0  0  0  0  0  0  0  0  0
   22.2744   -4.2110  -13.5576 O   0  0  0  0  0  0  0  0  0  0  0  0
   20.9147   -5.2908  -14.9960 O   0  0  0  0  0  0  0  0  0  0  0  0
  2  1  1  0
  3  5  1  0
  3  2  1  0
  3  4  1  1
  5  6  1  6
  7  5  1  0
  7  8  2  0
  9  7  1  0
 10  9  1  0
 11 12  1  0
 10 11  1  1
 12 16  1  0
 13 12  2  0
 14 10  1  0
 15 14  2  0
 17 18  1  0
 18 19  2  0
 18 20  1  0
 20 21  1  0
 22 21  1  6
 22 23  1  0
 22 24  1  0
 23 14  1  0
 24 25  1  0
 26 24  2  0
M  END
$$$$
