IDQ.pdb
     RDKit          3D

 26 25  0  0  1  0  0  0  0  0999 V2000
   16.9285  -13.9445  -16.5064 C   0  0  0  0  0  0  0  0  0  0  0  0
   17.2160  -12.5298  -16.8986 C   0  0  0  0  0  0  0  0  0  0  0  0
   18.4010  -11.9356  -16.1698 C   0  0  2  0  0  0  0  0  0  0  0  0
   18.2224  -12.0233  -14.6645 C   0  0  0  0  0  0  0  0  0  0  0  0
   18.5735  -10.5052  -16.6220 C   0  0  2  0  0  0  0  0  0  0  0  0
   18.5282  -10.4781  -18.0643 N   0  0  0  0  0  0  0  0  0  0  0  0
   19.8907   -9.9724  -16.1431 C   0  0  0  0  0  0  0  0  0  0  0  0
   20.1089   -9.9112  -14.9102 O   0  0  0  0  0  0  0  0  0  0  0  0
   20.8977   -9.5357  -17.0341 N   0  0  0  0  0  0  0  0  0  0  0  0
   22.1114   -8.9733  -16.4783 C   0  0  1  0  0  0  0  0  0  0  0  0
   23.2451   -9.3466  -17.4053 C   0  0  0  0  0  0  0  0  0  0  0  0
   23.5023  -10.7821  -17.4427 C   0  0  0  0  0  0  0  0  0  0  0  0
   23.9266  -11.3766  -16.4296 O   0  0  0  0  0  0  0  0  0  0  0  0
   22.0074   -7.4852  -16.3696 C   0  0  0  0  0  0  0  0  0  0  0  0
   21.7999   -6.7572  -17.3695 O   0  0  0  0  0  0  0  0  0  0  0  0
   23.2662  -11.4692  -18.6233 O   0  0  0  0  0  0  0  0  0  0  0  0
   18.1694   -4.1752  -16.3114 N   0  0  0  0  0  0  0  0  0  0  0  0
   18.2706   -4.6764  -14.9846 C   0  0  0  0  0  0  0  0  0  0  0  0
   17.2096   -4.6820  -14.2742 O   0  0  0  0  0  0  0  0  0  0  0  0
   19.5509   -5.1800  -14.4234 C   0  0  0  0  0  0  0  0  0  0  0  0
   20.6413   -4.9678  -15.4290 C   0  0  0  0  0  0  0  0  0  0  0  0
   22.0001   -5.3901  -14.9426 C   0  0  2  0  0  0  0  0  0  0  0  0
   22.1403   -6.8219  -15.1169 N   0  0  0  0  0  0  0  0  0  0  0  0
   22.2601   -4.9864  -13.5431 C   0  0  0  0  0  0  0  0  0  0  0  0
   22.4375   -5.8729  -12.4991 O   0  0  0  0  0  0  0  0  0  0  0  0
   22.3241   -3.7626  -13.2850 O   0  0  0  0  0  0  0  0  0  0  0  0
  2  1  1  0
  3  5  1  0
  3  2  1  0
  3  4  1  1
  5  6  1  6
  7  5  1  0
  7  8  2  0
  9  7  1  0
 10  9  1  0
 11 12  1  0
 10 11  1  6
 12 16  1  0
 13 12  2  0
 14 10  1  0
 15 14  2  0
 17 18  1  0
 18 19  2  0
 18 20  1  0
 20 21  1  0
 22 21  1  1
 22 23  1  0
 22 24  1  0
 23 14  1  0
 24 25  1  0
 26 24  2  0
M  END
$$$$
