IDQ.pdb
     RDKit          3D

 26 25  0  0  1  0  0  0  0  0999 V2000
   17.0061  -14.5590  -17.5959 C   0  0  0  0  0  0  0  0  0  0  0  0
   17.4675  -13.7318  -16.4381 C   0  0  0  0  0  0  0  0  0  0  0  0
   17.7291  -12.2869  -16.8013 C   0  0  2  0  0  0  0  0  0  0  0  0
   18.7487  -12.1762  -17.9209 C   0  0  0  0  0  0  0  0  0  0  0  0
   18.1899  -11.5572  -15.5620 C   0  0  2  0  0  0  0  0  0  0  0  0
   17.2505  -11.8300  -14.5009 N   0  0  0  0  0  0  0  0  0  0  0  0
   18.2453  -10.0825  -15.8274 C   0  0  0  0  0  0  0  0  0  0  0  0
   19.0870   -9.6441  -16.6463 O   0  0  0  0  0  0  0  0  0  0  0  0
   17.3802   -9.1667  -15.1858 N   0  0  0  0  0  0  0  0  0  0  0  0
   17.5696   -7.7521  -15.4335 C   0  0  1  0  0  0  0  0  0  0  0  0
   16.3165   -7.0437  -14.9734 C   0  0  0  0  0  0  0  0  0  0  0  0
   15.1811   -7.2564  -15.8645 C   0  0  0  0  0  0  0  0  0  0  0  0
   14.1625   -7.8559  -15.4610 O   0  0  0  0  0  0  0  0  0  0  0  0
   18.7555   -7.2344  -14.6834 C   0  0  0  0  0  0  0  0  0  0  0  0
   19.4148   -7.9572  -13.8987 O   0  0  0  0  0  0  0  0  0  0  0  0
   15.2576   -6.7800  -17.1640 O   0  0  0  0  0  0  0  0  0  0  0  0
   22.8837   -7.2405  -17.7011 N   0  0  0  0  0  0  0  0  0  0  0  0
   23.5822   -6.5326  -16.6847 C   0  0  0  0  0  0  0  0  0  0  0  0
   24.8384   -6.3653  -16.8399 O   0  0  0  0  0  0  0  0  0  0  0  0
   22.8982   -5.9981  -15.4787 C   0  0  0  0  0  0  0  0  0  0  0  0
   21.4409   -6.3388  -15.5531 C   0  0  0  0  0  0  0  0  0  0  0  0
   20.5736   -5.4680  -14.6867 C   0  0  2  0  0  0  0  0  0  0  0  0
   19.1935   -5.8873  -14.8267 N   0  0  0  0  0  0  0  0  0  0  0  0
   20.7342   -4.0263  -14.9782 C   0  0  0  0  0  0  0  0  0  0  0  0
   21.6167   -3.1940  -14.3182 O   0  0  0  0  0  0  0  0  0  0  0  0
   20.0258   -3.5252  -15.8811 O   0  0  0  0  0  0  0  0  0  0  0  0
  2  1  1  0
  3  5  1  0
  3  2  1  0
  3  4  1  6
  5  6  1  1
  7  5  1  0
  7  8  2  0
  9  7  1  0
 10  9  1  0
 11 12  1  0
 10 11  1  1
 12 16  1  0
 13 12  2  0
 14 10  1  0
 15 14  2  0
 17 18  1  0
 18 19  2  0
 18 20  1  0
 20 21  1  0
 22 21  1  6
 22 23  1  0
 22 24  1  0
 23 14  1  0
 24 25  1  0
 26 24  2  0
M  END
$$$$
