NYY.pdb
     RDKit          3D

 33 34  0  0  1  0  0  0  0  0999 V2000
    8.8428  -20.1445   18.7211 N   0  0  0  0  0  0  0  0  0  0  0  0
    9.2425  -20.1633   20.0939 C   0  0  0  0  0  0  0  0  0  0  0  0
    8.7650  -21.0654   20.8261 O   0  0  0  0  0  0  0  0  0  0  0  0
   10.1789  -19.1213   20.5362 C   0  0  0  0  0  0  0  0  0  0  0  0
    9.6452  -17.7507   20.0799 C   0  0  2  0  0  0  0  0  0  0  0  0
   10.5096  -17.3081   19.0333 N   0  0  0  0  0  0  0  0  0  0  0  0
    9.5309  -16.8359   21.2308 C   0  0  0  0  0  0  0  0  0  0  0  0
   10.6495  -16.4642   21.7275 O   0  0  0  0  0  0  0  0  0  0  0  0
    7.0968  -11.3061   27.6301 O   0  0  0  0  0  0  0  0  0  0  0  0
    7.0834  -12.1451   26.5414 C   0  0  0  0  0  0  0  0  0  0  0  0
    6.5088  -13.4062   26.6680 C   0  0  0  0  0  0  0  0  0  0  0  0
    6.4834  -14.2725   25.5820 C   0  0  0  0  0  0  0  0  0  0  0  0
    7.0216  -13.9158   24.3599 C   0  0  0  0  0  0  0  0  0  0  0  0
    7.0327  -14.8083   23.1936 C   0  0  0  0  0  0  0  0  0  0  0  0
    8.3618  -15.4839   22.9249 C   0  0  2  0  0  0  0  0  0  0  0  0
    8.3186  -16.3640   21.7965 N   0  0  0  0  0  0  0  0  0  0  0  0
    8.7798  -16.1734   24.1784 C   0  0  0  0  0  0  0  0  0  0  0  0
    8.0655  -17.1668   24.5340 O   0  0  0  0  0  0  0  0  0  0  0  0
    7.5822  -12.6685   24.2632 C   0  0  0  0  0  0  0  0  0  0  0  0
    7.6174  -11.7827   25.3428 C   0  0  0  0  0  0  0  0  0  0  0  0
   12.3998  -21.3586   22.4731 O   0  0  0  0  0  0  0  0  0  0  0  0
   12.2269  -20.2836   23.3610 C   0  0  0  0  0  0  0  0  0  0  0  0
   12.5524  -18.9850   22.9663 C   0  0  0  0  0  0  0  0  0  0  0  0
   12.3775  -17.9316   23.8540 C   0  0  0  0  0  0  0  0  0  0  0  0
   11.8913  -18.0950   25.1312 C   0  0  0  0  0  0  0  0  0  0  0  0
   11.7118  -16.9744   26.0764 C   0  0  0  0  0  0  0  0  0  0  0  0
   10.2595  -16.5312   26.1861 C   0  0  2  0  0  0  0  0  0  0  0  0
    9.8731  -15.8179   24.9737 N   0  0  0  0  0  0  0  0  0  0  0  0
   10.0738  -15.6625   27.3561 C   0  0  0  0  0  0  0  0  0  0  0  0
    9.7417  -14.4622   27.2434 O   0  0  0  0  0  0  0  0  0  0  0  0
   11.5761  -19.4027   25.4951 C   0  0  0  0  0  0  0  0  0  0  0  0
   11.7417  -20.4637   24.6279 C   0  0  0  0  0  0  0  0  0  0  0  0
   10.2654  -16.1595   28.6564 O   0  0  0  0  0  0  0  0  0  0  0  0
  2  1  1  0
  3  2  2  0
  4  5  1  0
  4  2  1  0
  5  6  1  6
  7  5  1  0
  7  8  2  0
  9 10  1  0
 10 11  2  0
 11 12  1  0
 13 12  2  0
 13 14  1  0
 15 14  1  1
 15 16  1  0
 16  7  1  0
 17 15  1  0
 18 17  2  0
 19 13  1  0
 20 10  1  0
 20 19  2  0
 22 21  1  0
 22 23  2  0
 24 23  1  0
 25 24  2  0
 26 25  1  0
 27 28  1  0
 27 26  1  6
 28 17  1  0
 29 27  1  0
 30 29  2  0
 31 32  2  0
 31 25  1  0
 32 22  1  0
 33 29  1  0
M  END
$$$$
