NYY.pdb
     RDKit          3D

 33 34  0  0  1  0  0  0  0  0999 V2000
   15.9524  -13.0759   17.3151 N   0  0  0  0  0  0  0  0  0  0  0  0
   15.7401  -13.9964   18.3886 C   0  0  0  0  0  0  0  0  0  0  0  0
   16.7352  -14.6362   18.8111 O   0  0  0  0  0  0  0  0  0  0  0  0
   14.3715  -14.1202   18.9079 C   0  0  0  0  0  0  0  0  0  0  0  0
   13.8218  -15.5077   18.5278 C   0  0  2  0  0  0  0  0  0  0  0  0
   13.3180  -15.3924   17.1969 N   0  0  0  0  0  0  0  0  0  0  0  0
   12.8448  -15.9652   19.5332 C   0  0  0  0  0  0  0  0  0  0  0  0
   11.6937  -15.4148   19.4446 O   0  0  0  0  0  0  0  0  0  0  0  0
    9.9504  -21.2756   16.8158 O   0  0  0  0  0  0  0  0  0  0  0  0
   10.4282  -20.6846   17.9611 C   0  0  0  0  0  0  0  0  0  0  0  0
    9.5245  -20.1285   18.8614 C   0  0  0  0  0  0  0  0  0  0  0  0
    9.9830  -19.5251   20.0259 C   0  0  0  0  0  0  0  0  0  0  0  0
   11.3313  -19.4571   20.3224 C   0  0  0  0  0  0  0  0  0  0  0  0
   11.8583  -18.8116   21.5318 C   0  0  0  0  0  0  0  0  0  0  0  0
   12.0257  -17.3095   21.4270 C   0  0  2  0  0  0  0  0  0  0  0  0
   13.0873  -16.9299   20.5446 N   0  0  0  0  0  0  0  0  0  0  0  0
   12.2053  -16.7774   22.8076 C   0  0  0  0  0  0  0  0  0  0  0  0
   13.4013  -16.7557   23.2465 O   0  0  0  0  0  0  0  0  0  0  0  0
   12.1996  -20.0116   19.4180 C   0  0  0  0  0  0  0  0  0  0  0  0
   11.7589  -20.6230   18.2418 C   0  0  0  0  0  0  0  0  0  0  0  0
   10.3202  -14.8859   31.3251 O   0  0  0  0  0  0  0  0  0  0  0  0
   10.2484  -15.0705   29.9342 C   0  0  0  0  0  0  0  0  0  0  0  0
   10.3844  -13.9819   29.0713 C   0  0  0  0  0  0  0  0  0  0  0  0
   10.3105  -14.1783   27.6986 C   0  0  0  0  0  0  0  0  0  0  0  0
   10.1055  -15.4118   27.1236 C   0  0  0  0  0  0  0  0  0  0  0  0
   10.0209  -15.6180   25.6636 C   0  0  0  0  0  0  0  0  0  0  0  0
   11.3617  -15.9959   25.0494 C   0  0  2  0  0  0  0  0  0  0  0  0
   11.1809  -16.3111   23.6366 N   0  0  0  0  0  0  0  0  0  0  0  0
   11.9398  -17.1517   25.7480 C   0  0  0  0  0  0  0  0  0  0  0  0
   11.4997  -18.3109   25.5864 O   0  0  0  0  0  0  0  0  0  0  0  0
    9.9734  -16.4779   28.0112 C   0  0  0  0  0  0  0  0  0  0  0  0
   10.0444  -16.3046   29.3787 C   0  0  0  0  0  0  0  0  0  0  0  0
   13.0205  -16.9893   26.6312 O   0  0  0  0  0  0  0  0  0  0  0  0
  2  1  1  0
  3  2  2  0
  4  5  1  0
  4  2  1  0
  5  6  1  6
  7  5  1  0
  7  8  2  0
  9 10  1  0
 10 11  2  0
 11 12  1  0
 13 12  2  0
 13 14  1  0
 15 14  1  1
 15 16  1  0
 16  7  1  0
 17 15  1  0
 18 17  2  0
 19 13  1  0
 20 10  1  0
 20 19  2  0
 22 21  1  0
 22 23  2  0
 24 23  1  0
 25 24  2  0
 26 25  1  0
 27 28  1  0
 27 26  1  1
 28 17  1  0
 29 27  1  0
 30 29  2  0
 31 32  2  0
 31 25  1  0
 32 22  1  0
 33 29  1  0
M  END
$$$$
