NYY.pdb
     RDKit          3D

 33 34  0  0  1  0  0  0  0  0999 V2000
    6.7455  -20.5113   19.3395 N   0  0  0  0  0  0  0  0  0  0  0  0
    7.1455  -19.6872   18.2415 C   0  0  0  0  0  0  0  0  0  0  0  0
    6.7972  -20.0451   17.0889 O   0  0  0  0  0  0  0  0  0  0  0  0
    7.9356  -18.4885   18.5530 C   0  0  0  0  0  0  0  0  0  0  0  0
    8.2858  -18.5029   20.0526 C   0  0  2  0  0  0  0  0  0  0  0  0
    7.0537  -18.6703   20.7542 N   0  0  0  0  0  0  0  0  0  0  0  0
    9.0554  -17.2971   20.4111 C   0  0  0  0  0  0  0  0  0  0  0  0
   10.2997  -17.3548   20.1205 O   0  0  0  0  0  0  0  0  0  0  0  0
    7.0463  -13.3602   15.5390 O   0  0  0  0  0  0  0  0  0  0  0  0
    7.4624  -13.4300   16.8472 C   0  0  0  0  0  0  0  0  0  0  0  0
    8.6898  -14.0194   17.1347 C   0  0  0  0  0  0  0  0  0  0  0  0
    9.1321  -14.1023   18.4492 C   0  0  0  0  0  0  0  0  0  0  0  0
    8.3779  -13.6110   19.4981 C   0  0  0  0  0  0  0  0  0  0  0  0
    8.7996  -13.6960   20.9023 C   0  0  0  0  0  0  0  0  0  0  0  0
    9.3984  -15.0281   21.3049 C   0  0  2  0  0  0  0  0  0  0  0  0
    8.5305  -16.1327   21.0283 N   0  0  0  0  0  0  0  0  0  0  0  0
    9.7759  -14.9376   22.7439 C   0  0  0  0  0  0  0  0  0  0  0  0
    9.2350  -13.9918   23.4046 O   0  0  0  0  0  0  0  0  0  0  0  0
    7.1726  -13.0365   19.1869 C   0  0  0  0  0  0  0  0  0  0  0  0
    6.7102  -12.9431   17.8721 C   0  0  0  0  0  0  0  0  0  0  0  0
   10.8366  -15.4865   31.2633 O   0  0  0  0  0  0  0  0  0  0  0  0
   10.5635  -15.5408   29.8862 C   0  0  0  0  0  0  0  0  0  0  0  0
   10.4483  -16.7721   29.2391 C   0  0  0  0  0  0  0  0  0  0  0  0
   10.1791  -16.8115   27.8774 C   0  0  0  0  0  0  0  0  0  0  0  0
   10.0157  -15.6818   27.1084 C   0  0  0  0  0  0  0  0  0  0  0  0
    9.7356  -15.7254   25.6589 C   0  0  0  0  0  0  0  0  0  0  0  0
   11.0037  -15.6711   24.8182 C   0  0  2  0  0  0  0  0  0  0  0  0
   10.6596  -15.7948   23.4060 N   0  0  0  0  0  0  0  0  0  0  0  0
   11.9229  -16.7503   25.2037 C   0  0  0  0  0  0  0  0  0  0  0  0
   11.7833  -17.9201   24.7846 O   0  0  0  0  0  0  0  0  0  0  0  0
   10.1369  -14.4687   27.7832 C   0  0  0  0  0  0  0  0  0  0  0  0
   10.4034  -14.4073   29.1361 C   0  0  0  0  0  0  0  0  0  0  0  0
   13.0030  -16.4987   26.0665 O   0  0  0  0  0  0  0  0  0  0  0  0
  2  1  1  0
  3  2  2  0
  4  5  1  0
  4  2  1  0
  5  6  1  1
  7  5  1  0
  7  8  2  0
  9 10  1  0
 10 11  2  0
 11 12  1  0
 13 12  2  0
 13 14  1  0
 15 14  1  1
 15 16  1  0
 16  7  1  0
 17 15  1  0
 18 17  2  0
 19 13  1  0
 20 10  1  0
 20 19  2  0
 22 21  1  0
 22 23  2  0
 24 23  1  0
 25 24  2  0
 26 25  1  0
 27 28  1  0
 27 26  1  1
 28 17  1  0
 29 27  1  0
 30 29  2  0
 31 32  2  0
 31 25  1  0
 32 22  1  0
 33 29  1  0
M  END
$$$$
