NYY.pdb
     RDKit          3D

 33 34  0  0  1  0  0  0  0  0999 V2000
   10.6540  -17.2235   15.8743 N   0  0  0  0  0  0  0  0  0  0  0  0
   11.4144  -17.2740   17.0843 C   0  0  0  0  0  0  0  0  0  0  0  0
   12.3173  -18.1434   17.1676 O   0  0  0  0  0  0  0  0  0  0  0  0
   11.0738  -16.3041   18.1339 C   0  0  0  0  0  0  0  0  0  0  0  0
   10.5661  -17.0704   19.3695 C   0  0  2  0  0  0  0  0  0  0  0  0
    9.5348  -17.9434   18.9085 N   0  0  0  0  0  0  0  0  0  0  0  0
   10.1647  -16.1265   20.4290 C   0  0  0  0  0  0  0  0  0  0  0  0
   11.0998  -15.3538   20.8346 O   0  0  0  0  0  0  0  0  0  0  0  0
    6.2962  -11.7293   27.0040 O   0  0  0  0  0  0  0  0  0  0  0  0
    6.5183  -12.4762   25.8717 C   0  0  0  0  0  0  0  0  0  0  0  0
    6.2968  -13.8494   25.9146 C   0  0  0  0  0  0  0  0  0  0  0  0
    6.5146  -14.6260   24.7833 C   0  0  0  0  0  0  0  0  0  0  0  0
    6.9534  -14.0684   23.5971 C   0  0  0  0  0  0  0  0  0  0  0  0
    7.2143  -14.8558   22.3852 C   0  0  0  0  0  0  0  0  0  0  0  0
    8.6714  -15.2008   22.1546 C   0  0  2  0  0  0  0  0  0  0  0  0
    8.8705  -16.0249   21.0009 N   0  0  0  0  0  0  0  0  0  0  0  0
    9.1917  -15.8235   23.4048 C   0  0  0  0  0  0  0  0  0  0  0  0
    9.0056  -17.0785   23.5228 O   0  0  0  0  0  0  0  0  0  0  0  0
    7.1648  -12.7140   23.5829 C   0  0  0  0  0  0  0  0  0  0  0  0
    6.9514  -11.9156   24.7092 C   0  0  0  0  0  0  0  0  0  0  0  0
   12.1407  -16.8887   31.7594 O   0  0  0  0  0  0  0  0  0  0  0  0
   11.8140  -16.3587   30.4999 C   0  0  0  0  0  0  0  0  0  0  0  0
   12.3604  -16.9107   29.3403 C   0  0  0  0  0  0  0  0  0  0  0  0
   12.0297  -16.3767   28.1018 C   0  0  0  0  0  0  0  0  0  0  0  0
   11.1752  -15.3091   27.9452 C   0  0  0  0  0  0  0  0  0  0  0  0
   10.8294  -14.7383   26.6277 C   0  0  0  0  0  0  0  0  0  0  0  0
   10.3501  -15.7949   25.6421 C   0  0  2  0  0  0  0  0  0  0  0  0
    9.8536  -15.1466   24.4333 N   0  0  0  0  0  0  0  0  0  0  0  0
    9.2871  -16.6128   26.2415 C   0  0  0  0  0  0  0  0  0  0  0  0
    9.4701  -17.8092   26.5557 O   0  0  0  0  0  0  0  0  0  0  0  0
   10.6468  -14.7804   29.1212 C   0  0  0  0  0  0  0  0  0  0  0  0
   10.9618  -15.2966   30.3620 C   0  0  0  0  0  0  0  0  0  0  0  0
    8.0144  -16.0694   26.4847 O   0  0  0  0  0  0  0  0  0  0  0  0
  2  1  1  0
  3  2  2  0
  4  5  1  0
  4  2  1  0
  5  6  1  6
  7  5  1  0
  7  8  2  0
  9 10  1  0
 10 11  2  0
 11 12  1  0
 13 12  2  0
 13 14  1  0
 15 14  1  1
 15 16  1  0
 16  7  1  0
 17 15  1  0
 18 17  2  0
 19 13  1  0
 20 10  1  0
 20 19  2  0
 22 21  1  0
 22 23  2  0
 24 23  1  0
 25 24  2  0
 26 25  1  0
 27 28  1  0
 27 26  1  1
 28 17  1  0
 29 27  1  0
 30 29  2  0
 31 32  2  0
 31 25  1  0
 32 22  1  0
 33 29  1  0
M  END
$$$$
