NYY.pdb
     RDKit          3D

 33 34  0  0  1  0  0  0  0  0999 V2000
   11.0951  -20.9086   18.4340 N   0  0  0  0  0  0  0  0  0  0  0  0
   11.8410  -19.7306   18.1166 C   0  0  0  0  0  0  0  0  0  0  0  0
   12.4753  -19.7188   17.0324 O   0  0  0  0  0  0  0  0  0  0  0  0
   11.8059  -18.6298   19.0888 C   0  0  0  0  0  0  0  0  0  0  0  0
   10.4509  -17.9076   18.9696 C   0  0  2  0  0  0  0  0  0  0  0  0
   10.2920  -17.5708   17.5913 N   0  0  0  0  0  0  0  0  0  0  0  0
   10.3920  -16.7702   19.9063 C   0  0  0  0  0  0  0  0  0  0  0  0
   11.4334  -16.0277   19.9069 O   0  0  0  0  0  0  0  0  0  0  0  0
    6.6780  -13.0743   16.1550 O   0  0  0  0  0  0  0  0  0  0  0  0
    7.0098  -13.4179   17.4438 C   0  0  0  0  0  0  0  0  0  0  0  0
    7.7496  -12.5238   18.2117 C   0  0  0  0  0  0  0  0  0  0  0  0
    8.0977  -12.8484   19.5170 C   0  0  0  0  0  0  0  0  0  0  0  0
    7.7275  -14.0525   20.0859 C   0  0  0  0  0  0  0  0  0  0  0  0
    8.0913  -14.4423   21.4543 C   0  0  0  0  0  0  0  0  0  0  0  0
    9.3543  -15.2720   21.5626 C   0  0  2  0  0  0  0  0  0  0  0  0
    9.3070  -16.4609   20.7663 N   0  0  0  0  0  0  0  0  0  0  0  0
    9.5869  -15.5546   23.0074 C   0  0  0  0  0  0  0  0  0  0  0  0
    8.5447  -15.6280   23.7368 O   0  0  0  0  0  0  0  0  0  0  0  0
    7.0003  -14.9151   19.3070 C   0  0  0  0  0  0  0  0  0  0  0  0
    6.6400  -14.6075   17.9929 C   0  0  0  0  0  0  0  0  0  0  0  0
   10.3206  -15.2676   31.4444 O   0  0  0  0  0  0  0  0  0  0  0  0
   10.1774  -15.2948   30.0471 C   0  0  0  0  0  0  0  0  0  0  0  0
   10.0692  -16.5125   29.3737 C   0  0  0  0  0  0  0  0  0  0  0  0
    9.9289  -16.5251   27.9923 C   0  0  0  0  0  0  0  0  0  0  0  0
    9.8900  -15.3810   27.2282 C   0  0  0  0  0  0  0  0  0  0  0  0
    9.7472  -15.3963   25.7582 C   0  0  0  0  0  0  0  0  0  0  0  0
   11.0543  -15.7212   25.0487 C   0  0  2  0  0  0  0  0  0  0  0  0
   10.8362  -15.7406   23.6065 N   0  0  0  0  0  0  0  0  0  0  0  0
   11.5705  -17.0231   25.4924 C   0  0  0  0  0  0  0  0  0  0  0  0
   12.5230  -17.1183   26.2970 O   0  0  0  0  0  0  0  0  0  0  0  0
   10.0007  -14.1819   27.9294 C   0  0  0  0  0  0  0  0  0  0  0  0
   10.1400  -14.1472   29.3022 C   0  0  0  0  0  0  0  0  0  0  0  0
   11.0023  -18.2186   25.0210 O   0  0  0  0  0  0  0  0  0  0  0  0
  2  1  1  0
  3  2  2  0
  4  5  1  0
  4  2  1  0
  5  6  1  6
  7  5  1  0
  7  8  2  0
  9 10  1  0
 10 11  2  0
 11 12  1  0
 13 12  2  0
 13 14  1  0
 15 14  1  1
 15 16  1  0
 16  7  1  0
 17 15  1  0
 18 17  2  0
 19 13  1  0
 20 10  1  0
 20 19  2  0
 22 21  1  0
 22 23  2  0
 24 23  1  0
 25 24  2  0
 26 25  1  0
 27 28  1  0
 27 26  1  1
 28 17  1  0
 29 27  1  0
 30 29  2  0
 31 32  2  0
 31 25  1  0
 32 22  1  0
 33 29  1  0
M  END
$$$$
