NYY.pdb
     RDKit          3D

 33 34  0  0  1  0  0  0  0  0999 V2000
   10.5841  -19.8106   11.1596 N   0  0  0  0  0  0  0  0  0  0  0  0
   10.8803  -18.4126   11.2131 C   0  0  0  0  0  0  0  0  0  0  0  0
   11.3488  -17.8777   10.1776 O   0  0  0  0  0  0  0  0  0  0  0  0
   10.6144  -17.7166   12.4792 C   0  0  0  0  0  0  0  0  0  0  0  0
   10.2250  -18.7587   13.5442 C   0  0  2  0  0  0  0  0  0  0  0  0
    8.8553  -19.0855   13.3085 N   0  0  0  0  0  0  0  0  0  0  0  0
   10.5271  -18.2492   14.8946 C   0  0  0  0  0  0  0  0  0  0  0  0
    9.7159  -17.3563   15.3196 O   0  0  0  0  0  0  0  0  0  0  0  0
    6.9987  -21.9697   18.9071 O   0  0  0  0  0  0  0  0  0  0  0  0
    8.1617  -21.2604   18.7234 C   0  0  0  0  0  0  0  0  0  0  0  0
    9.0525  -21.6687   17.7354 C   0  0  0  0  0  0  0  0  0  0  0  0
   10.2349  -20.9685   17.5307 C   0  0  0  0  0  0  0  0  0  0  0  0
   10.5605  -19.8614   18.2916 C   0  0  0  0  0  0  0  0  0  0  0  0
   11.8080  -19.1055   18.1207 C   0  0  0  0  0  0  0  0  0  0  0  0
   11.7790  -18.0773   17.0084 C   0  0  2  0  0  0  0  0  0  0  0  0
   11.6078  -18.6649   15.7141 N   0  0  0  0  0  0  0  0  0  0  0  0
   13.0234  -17.2637   17.1124 C   0  0  0  0  0  0  0  0  0  0  0  0
   14.0069  -17.6544   16.4026 O   0  0  0  0  0  0  0  0  0  0  0  0
    9.6659  -19.4817   19.2585 C   0  0  0  0  0  0  0  0  0  0  0  0
    8.4718  -20.1719   19.4799 C   0  0  0  0  0  0  0  0  0  0  0  0
   19.0997  -11.2728   19.7265 O   0  0  0  0  0  0  0  0  0  0  0  0
   17.9046  -11.9830   19.5238 C   0  0  0  0  0  0  0  0  0  0  0  0
   17.3674  -12.7646   20.5478 C   0  0  0  0  0  0  0  0  0  0  0  0
   16.1859  -13.4622   20.3337 C   0  0  0  0  0  0  0  0  0  0  0  0
   15.4962  -13.4291   19.1432 C   0  0  0  0  0  0  0  0  0  0  0  0
   14.2430  -14.1766   18.9150 C   0  0  0  0  0  0  0  0  0  0  0  0
   14.4578  -15.4358   18.0869 C   0  0  2  0  0  0  0  0  0  0  0  0
   13.1863  -16.1295   17.9131 N   0  0  0  0  0  0  0  0  0  0  0  0
   15.4250  -16.3250   18.7441 C   0  0  0  0  0  0  0  0  0  0  0  0
   15.1042  -17.0564   19.7063 O   0  0  0  0  0  0  0  0  0  0  0  0
   16.0580  -12.6405   18.1410 C   0  0  0  0  0  0  0  0  0  0  0  0
   17.2309  -11.9387   18.3332 C   0  0  0  0  0  0  0  0  0  0  0  0
   16.7589  -16.3831   18.3063 O   0  0  0  0  0  0  0  0  0  0  0  0
  2  1  1  0
  3  2  2  0
  4  5  1  0
  4  2  1  0
  5  6  1  1
  7  5  1  0
  7  8  2  0
  9 10  1  0
 10 11  2  0
 11 12  1  0
 13 12  2  0
 13 14  1  0
 15 14  1  1
 15 16  1  0
 16  7  1  0
 17 15  1  0
 18 17  2  0
 19 13  1  0
 20 10  1  0
 20 19  2  0
 22 21  1  0
 22 23  2  0
 24 23  1  0
 25 24  2  0
 26 25  1  0
 27 28  1  0
 27 26  1  1
 28 17  1  0
 29 27  1  0
 30 29  2  0
 31 32  2  0
 31 25  1  0
 32 22  1  0
 33 29  1  0
M  END
$$$$
