NYY.pdb
     RDKit          3D

 33 34  0  0  1  0  0  0  0  0999 V2000
   11.5234  -17.3789   15.1001 N   0  0  0  0  0  0  0  0  0  0  0  0
   11.1217  -18.0040   16.3219 C   0  0  0  0  0  0  0  0  0  0  0  0
   11.0657  -19.2588   16.3419 O   0  0  0  0  0  0  0  0  0  0  0  0
   10.8040  -17.1244   17.4548 C   0  0  0  0  0  0  0  0  0  0  0  0
   10.5242  -17.9952   18.6938 C   0  0  2  0  0  0  0  0  0  0  0  0
    9.3106  -18.6987   18.4280 N   0  0  0  0  0  0  0  0  0  0  0  0
   10.5165  -17.1653   19.9127 C   0  0  0  0  0  0  0  0  0  0  0  0
   11.5619  -16.4458   20.0724 O   0  0  0  0  0  0  0  0  0  0  0  0
    6.8077  -12.2061   18.0301 O   0  0  0  0  0  0  0  0  0  0  0  0
    7.1922  -13.0044   19.0809 C   0  0  0  0  0  0  0  0  0  0  0  0
    8.1379  -12.5250   19.9821 C   0  0  0  0  0  0  0  0  0  0  0  0
    8.5431  -13.3133   21.0521 C   0  0  0  0  0  0  0  0  0  0  0  0
    8.0292  -14.5808   21.2518 C   0  0  0  0  0  0  0  0  0  0  0  0
    8.4446  -15.4531   22.3578 C   0  0  0  0  0  0  0  0  0  0  0  0
    9.6441  -16.3288   22.0584 C   0  0  2  0  0  0  0  0  0  0  0  0
    9.4748  -17.1157   20.8744 N   0  0  0  0  0  0  0  0  0  0  0  0
    9.9121  -17.1573   23.2680 C   0  0  0  0  0  0  0  0  0  0  0  0
    8.9927  -17.9749   23.5996 O   0  0  0  0  0  0  0  0  0  0  0  0
    7.1002  -15.0287   20.3486 C   0  0  0  0  0  0  0  0  0  0  0  0
    6.6793  -14.2517   19.2666 C   0  0  0  0  0  0  0  0  0  0  0  0
   10.5960  -14.2566   31.3550 O   0  0  0  0  0  0  0  0  0  0  0  0
   10.6168  -14.5445   29.9800 C   0  0  0  0  0  0  0  0  0  0  0  0
    9.9319  -13.7277   29.0790 C   0  0  0  0  0  0  0  0  0  0  0  0
    9.9600  -14.0241   27.7227 C   0  0  0  0  0  0  0  0  0  0  0  0
   10.6386  -15.1018   27.2006 C   0  0  0  0  0  0  0  0  0  0  0  0
   10.6623  -15.4193   25.7584 C   0  0  0  0  0  0  0  0  0  0  0  0
   11.0712  -16.8601   25.4852 C   0  0  2  0  0  0  0  0  0  0  0  0
   11.0715  -17.1040   24.0470 N   0  0  0  0  0  0  0  0  0  0  0  0
   10.1486  -17.7911   26.1485 C   0  0  0  0  0  0  0  0  0  0  0  0
    8.9492  -17.8893   25.8086 O   0  0  0  0  0  0  0  0  0  0  0  0
   11.3117  -15.8977   28.1253 C   0  0  0  0  0  0  0  0  0  0  0  0
   11.2972  -15.6204   29.4773 C   0  0  0  0  0  0  0  0  0  0  0  0
   10.5904  -18.6124   27.1995 O   0  0  0  0  0  0  0  0  0  0  0  0
  2  1  1  0
  3  2  2  0
  4  5  1  0
  4  2  1  0
  5  6  1  6
  7  5  1  0
  7  8  2  0
  9 10  1  0
 10 11  2  0
 11 12  1  0
 13 12  2  0
 13 14  1  0
 15 14  1  1
 15 16  1  0
 16  7  1  0
 17 15  1  0
 18 17  2  0
 19 13  1  0
 20 10  1  0
 20 19  2  0
 22 21  1  0
 22 23  2  0
 24 23  1  0
 25 24  2  0
 26 25  1  0
 27 28  1  0
 27 26  1  6
 28 17  1  0
 29 27  1  0
 30 29  2  0
 31 32  2  0
 31 25  1  0
 32 22  1  0
 33 29  1  0
M  END
$$$$
