NYY.pdb
     RDKit          3D

 33 34  0  0  1  0  0  0  0  0999 V2000
   10.0925  -19.4368   18.5832 N   0  0  0  0  0  0  0  0  0  0  0  0
   11.0960  -18.4206   18.6552 C   0  0  0  0  0  0  0  0  0  0  0  0
   11.9875  -18.4204   17.7702 O   0  0  0  0  0  0  0  0  0  0  0  0
   11.0027  -17.4603   19.7630 C   0  0  0  0  0  0  0  0  0  0  0  0
    9.6989  -17.7251   20.5387 C   0  0  2  0  0  0  0  0  0  0  0  0
    8.6482  -17.7350   19.5721 N   0  0  0  0  0  0  0  0  0  0  0  0
    9.5423  -16.7441   21.6285 C   0  0  0  0  0  0  0  0  0  0  0  0
   10.5273  -16.6927   22.4429 O   0  0  0  0  0  0  0  0  0  0  0  0
    6.6709  -10.9601   27.6321 O   0  0  0  0  0  0  0  0  0  0  0  0
    6.8012  -11.7114   26.4885 C   0  0  0  0  0  0  0  0  0  0  0  0
    6.1678  -12.9485   26.4176 C   0  0  0  0  0  0  0  0  0  0  0  0
    6.2849  -13.7266   25.2726 C   0  0  0  0  0  0  0  0  0  0  0  0
    7.0246  -13.3043   24.1840 C   0  0  0  0  0  0  0  0  0  0  0  0
    7.1897  -14.1042   22.9633 C   0  0  0  0  0  0  0  0  0  0  0  0
    8.3637  -15.0613   22.9864 C   0  0  2  0  0  0  0  0  0  0  0  0
    8.4233  -15.8943   21.8235 N   0  0  0  0  0  0  0  0  0  0  0  0
    8.2844  -15.8435   24.2526 C   0  0  0  0  0  0  0  0  0  0  0  0
    7.3884  -16.7485   24.2946 O   0  0  0  0  0  0  0  0  0  0  0  0
    7.6390  -12.0826   24.2809 C   0  0  0  0  0  0  0  0  0  0  0  0
    7.5333  -11.2850   25.4229 C   0  0  0  0  0  0  0  0  0  0  0  0
   10.2583  -22.2745   29.4853 O   0  0  0  0  0  0  0  0  0  0  0  0
   10.0656  -21.2331   28.5620 C   0  0  0  0  0  0  0  0  0  0  0  0
    8.7775  -20.7862   28.2633 C   0  0  0  0  0  0  0  0  0  0  0  0
    8.6012  -19.7567   27.3482 C   0  0  0  0  0  0  0  0  0  0  0  0
    9.6456  -19.1358   26.7016 C   0  0  0  0  0  0  0  0  0  0  0  0
    9.4559  -18.0452   25.7239 C   0  0  0  0  0  0  0  0  0  0  0  0
    9.3236  -16.6822   26.3891 C   0  0  2  0  0  0  0  0  0  0  0  0
    9.1024  -15.6609   25.3713 N   0  0  0  0  0  0  0  0  0  0  0  0
   10.5345  -16.3656   27.1582 C   0  0  0  0  0  0  0  0  0  0  0  0
   11.5289  -15.8197   26.6322 O   0  0  0  0  0  0  0  0  0  0  0  0
   10.9184  -19.6046   27.0210 C   0  0  0  0  0  0  0  0  0  0  0  0
   11.1157  -20.6260   27.9281 C   0  0  0  0  0  0  0  0  0  0  0  0
   10.6146  -16.6693   28.5277 O   0  0  0  0  0  0  0  0  0  0  0  0
  2  1  1  0
  3  2  2  0
  4  5  1  0
  4  2  1  0
  5  6  1  6
  7  5  1  0
  7  8  2  0
  9 10  1  0
 10 11  2  0
 11 12  1  0
 13 12  2  0
 13 14  1  0
 15 14  1  6
 15 16  1  0
 16  7  1  0
 17 15  1  0
 18 17  2  0
 19 13  1  0
 20 10  1  0
 20 19  2  0
 22 21  1  0
 22 23  2  0
 24 23  1  0
 25 24  2  0
 26 25  1  0
 27 28  1  0
 27 26  1  6
 28 17  1  0
 29 27  1  0
 30 29  2  0
 31 32  2  0
 31 25  1  0
 32 22  1  0
 33 29  1  0
M  END
$$$$
