NYY.pdb
     RDKit          3D

 33 34  0  0  1  0  0  0  0  0999 V2000
    7.6937  -16.1952   15.6382 N   0  0  0  0  0  0  0  0  0  0  0  0
    8.0888  -17.4745   16.1404 C   0  0  0  0  0  0  0  0  0  0  0  0
    8.7068  -18.2400   15.3593 O   0  0  0  0  0  0  0  0  0  0  0  0
    7.7355  -17.7896   17.5311 C   0  0  0  0  0  0  0  0  0  0  0  0
    9.0198  -17.7848   18.3809 C   0  0  2  0  0  0  0  0  0  0  0  0
    9.8345  -18.8490   17.8888 N   0  0  0  0  0  0  0  0  0  0  0  0
    8.6858  -17.8594   19.8153 C   0  0  0  0  0  0  0  0  0  0  0  0
    7.8533  -16.9740   20.2139 O   0  0  0  0  0  0  0  0  0  0  0  0
    7.3592  -20.0036   28.2351 O   0  0  0  0  0  0  0  0  0  0  0  0
    7.7885  -20.0084   26.9294 C   0  0  0  0  0  0  0  0  0  0  0  0
    9.1513  -19.9065   26.6664 C   0  0  0  0  0  0  0  0  0  0  0  0
    9.6099  -19.9087   25.3550 C   0  0  0  0  0  0  0  0  0  0  0  0
    8.7404  -20.0088   24.2851 C   0  0  0  0  0  0  0  0  0  0  0  0
    9.1820  -19.9952   22.8845 C   0  0  0  0  0  0  0  0  0  0  0  0
    8.7834  -18.7581   22.1060 C   0  0  2  0  0  0  0  0  0  0  0  0
    9.2036  -18.8042   20.7381 N   0  0  0  0  0  0  0  0  0  0  0  0
    9.3196  -17.5735   22.8344 C   0  0  0  0  0  0  0  0  0  0  0  0
   10.5888  -17.4953   22.9154 O   0  0  0  0  0  0  0  0  0  0  0  0
    7.4035  -20.1067   24.5725 C   0  0  0  0  0  0  0  0  0  0  0  0
    6.9222  -20.1067   25.8839 C   0  0  0  0  0  0  0  0  0  0  0  0
    7.6790  -12.9675   18.2801 O   0  0  0  0  0  0  0  0  0  0  0  0
    7.8096  -13.2651   19.6470 C   0  0  0  0  0  0  0  0  0  0  0  0
    9.0736  -13.3349   20.2349 C   0  0  0  0  0  0  0  0  0  0  0  0
    9.1885  -13.6308   21.5868 C   0  0  0  0  0  0  0  0  0  0  0  0
    8.1045  -13.8659   22.4017 C   0  0  0  0  0  0  0  0  0  0  0  0
    8.2287  -14.1868   23.8380 C   0  0  0  0  0  0  0  0  0  0  0  0
    9.1147  -15.3988   24.0902 C   0  0  2  0  0  0  0  0  0  0  0  0
    8.5493  -16.5654   23.4214 N   0  0  0  0  0  0  0  0  0  0  0  0
    9.2328  -15.6587   25.5312 C   0  0  0  0  0  0  0  0  0  0  0  0
    9.7779  -14.8446   26.3082 O   0  0  0  0  0  0  0  0  0  0  0  0
    6.8571  -13.7892   21.7853 C   0  0  0  0  0  0  0  0  0  0  0  0
    6.7208  -13.4958   20.4434 C   0  0  0  0  0  0  0  0  0  0  0  0
    8.7295  -16.8457   26.0898 O   0  0  0  0  0  0  0  0  0  0  0  0
  2  1  1  0
  3  2  2  0
  4  5  1  0
  4  2  1  0
  5  6  1  6
  7  5  1  0
  7  8  2  0
  9 10  1  0
 10 11  2  0
 11 12  1  0
 13 12  2  0
 13 14  1  0
 15 14  1  1
 15 16  1  0
 16  7  1  0
 17 15  1  0
 18 17  2  0
 19 13  1  0
 20 10  1  0
 20 19  2  0
 22 21  1  0
 22 23  2  0
 24 23  1  0
 25 24  2  0
 26 25  1  0
 27 28  1  0
 27 26  1  1
 28 17  1  0
 29 27  1  0
 30 29  2  0
 31 32  2  0
 31 25  1  0
 32 22  1  0
 33 29  1  0
M  END
$$$$
