NYY.pdb
     RDKit          3D

 33 34  0  0  1  0  0  0  0  0999 V2000
   14.6063  -25.9291   25.9821 N   0  0  0  0  0  0  0  0  0  0  0  0
   15.7089  -25.6378   26.8447 C   0  0  0  0  0  0  0  0  0  0  0  0
   16.7709  -26.2854   26.6695 O   0  0  0  0  0  0  0  0  0  0  0  0
   15.5068  -24.6044   27.8692 C   0  0  0  0  0  0  0  0  0  0  0  0
   16.7597  -23.7105   27.9239 C   0  0  2  0  0  0  0  0  0  0  0  0
   17.6552  -24.3256   28.8502 N   0  0  0  0  0  0  0  0  0  0  0  0
   16.3840  -22.3200   28.2402 C   0  0  0  0  0  0  0  0  0  0  0  0
   15.9093  -21.6600   27.2528 O   0  0  0  0  0  0  0  0  0  0  0  0
   10.9523  -23.9197   31.3675 O   0  0  0  0  0  0  0  0  0  0  0  0
   11.9858  -23.0182   31.2750 C   0  0  0  0  0  0  0  0  0  0  0  0
   11.8971  -21.9820   30.3504 C   0  0  0  0  0  0  0  0  0  0  0  0
   12.9289  -21.0584   30.2377 C   0  0  0  0  0  0  0  0  0  0  0  0
   14.0607  -21.1390   31.0271 C   0  0  0  0  0  0  0  0  0  0  0  0
   15.1817  -20.1955   30.9262 C   0  0  0  0  0  0  0  0  0  0  0  0
   16.0363  -20.3567   29.6856 C   0  0  2  0  0  0  0  0  0  0  0  0
   16.5094  -21.6962   29.5081 N   0  0  0  0  0  0  0  0  0  0  0  0
   17.1419  -19.3604   29.7658 C   0  0  0  0  0  0  0  0  0  0  0  0
   16.7880  -18.1420   29.8834 O   0  0  0  0  0  0  0  0  0  0  0  0
   14.1228  -22.1700   31.9285 C   0  0  0  0  0  0  0  0  0  0  0  0
   13.0961  -23.1085   32.0576 C   0  0  0  0  0  0  0  0  0  0  0  0
   24.6159  -15.0190   31.5250 O   0  0  0  0  0  0  0  0  0  0  0  0
   23.6077  -15.9861   31.3764 C   0  0  0  0  0  0  0  0  0  0  0  0
   22.3178  -15.6069   31.0017 C   0  0  0  0  0  0  0  0  0  0  0  0
   21.3305  -16.5729   30.8592 C   0  0  0  0  0  0  0  0  0  0  0  0
   21.5525  -17.9145   31.0711 C   0  0  0  0  0  0  0  0  0  0  0  0
   20.4996  -18.9400   30.9252 C   0  0  0  0  0  0  0  0  0  0  0  0
   19.5588  -18.6486   29.7644 C   0  0  2  0  0  0  0  0  0  0  0  0
   18.5069  -19.6585   29.7223 N   0  0  0  0  0  0  0  0  0  0  0  0
   20.2959  -18.6433   28.4937 C   0  0  0  0  0  0  0  0  0  0  0  0
   20.6051  -19.7014   27.9034 O   0  0  0  0  0  0  0  0  0  0  0  0
   22.8496  -18.2609   31.4442 C   0  0  0  0  0  0  0  0  0  0  0  0
   23.8457  -17.3168   31.5906 C   0  0  0  0  0  0  0  0  0  0  0  0
   20.6815  -17.4331   27.8929 O   0  0  0  0  0  0  0  0  0  0  0  0
  2  1  1  0
  3  2  2  0
  4  5  1  0
  4  2  1  0
  5  6  1  1
  7  5  1  0
  7  8  2  0
  9 10  1  0
 10 11  2  0
 11 12  1  0
 13 12  2  0
 13 14  1  0
 15 14  1  1
 15 16  1  0
 16  7  1  0
 17 15  1  0
 18 17  2  0
 19 13  1  0
 20 10  1  0
 20 19  2  0
 22 21  1  0
 22 23  2  0
 24 23  1  0
 25 24  2  0
 26 25  1  0
 27 28  1  0
 27 26  1  1
 28 17  1  0
 29 27  1  0
 30 29  2  0
 31 32  2  0
 31 25  1  0
 32 22  1  0
 33 29  1  0
M  END
$$$$
