NYY.pdb
     RDKit          3D

 33 34  0  0  1  0  0  0  0  0999 V2000
   12.0492  -18.8896   17.9994 N   0  0  0  0  0  0  0  0  0  0  0  0
   12.4018  -17.5156   17.8193 C   0  0  0  0  0  0  0  0  0  0  0  0
   13.2599  -17.2458   16.9424 O   0  0  0  0  0  0  0  0  0  0  0  0
   11.7317  -16.5308   18.6791 C   0  0  0  0  0  0  0  0  0  0  0  0
   10.9180  -17.2815   19.7497 C   0  0  2  0  0  0  0  0  0  0  0  0
    9.8612  -17.9492   19.0600 N   0  0  0  0  0  0  0  0  0  0  0  0
   10.4884  -16.3530   20.8118 C   0  0  0  0  0  0  0  0  0  0  0  0
   11.4449  -15.7492   21.4088 O   0  0  0  0  0  0  0  0  0  0  0  0
    6.2831  -11.7019   26.9899 O   0  0  0  0  0  0  0  0  0  0  0  0
    6.5588  -12.4803   25.8911 C   0  0  0  0  0  0  0  0  0  0  0  0
    6.2538  -13.8374   25.9316 C   0  0  0  0  0  0  0  0  0  0  0  0
    6.5234  -14.6452   24.8337 C   0  0  0  0  0  0  0  0  0  0  0  0
    7.0962  -14.1349   23.6839 C   0  0  0  0  0  0  0  0  0  0  0  0
    7.4151  -14.9573   22.5097 C   0  0  0  0  0  0  0  0  0  0  0  0
    8.8844  -15.2888   22.3479 C   0  0  2  0  0  0  0  0  0  0  0  0
    9.1469  -16.0984   21.1966 N   0  0  0  0  0  0  0  0  0  0  0  0
    9.3473  -15.9215   23.6155 C   0  0  0  0  0  0  0  0  0  0  0  0
    9.0425  -17.1490   23.7706 O   0  0  0  0  0  0  0  0  0  0  0  0
    7.3875  -12.7953   23.6714 C   0  0  0  0  0  0  0  0  0  0  0  0
    7.1240  -11.9662   24.7644 C   0  0  0  0  0  0  0  0  0  0  0  0
   11.8650  -17.0359   32.0712 O   0  0  0  0  0  0  0  0  0  0  0  0
   11.5999  -16.4943   30.8023 C   0  0  0  0  0  0  0  0  0  0  0  0
   10.6686  -15.4649   30.6565 C   0  0  0  0  0  0  0  0  0  0  0  0
   10.4154  -14.9391   29.3964 C   0  0  0  0  0  0  0  0  0  0  0  0
   11.0422  -15.3834   28.2545 C   0  0  0  0  0  0  0  0  0  0  0  0
   10.7671  -14.8274   26.9141 C   0  0  0  0  0  0  0  0  0  0  0  0
   10.4164  -15.9045   25.8969 C   0  0  2  0  0  0  0  0  0  0  0  0
   10.0746  -15.2812   24.6231 N   0  0  0  0  0  0  0  0  0  0  0  0
    9.2878  -16.7147   26.3742 C   0  0  0  0  0  0  0  0  0  0  0  0
    8.1318  -16.2479   26.4707 O   0  0  0  0  0  0  0  0  0  0  0  0
   11.9657  -16.4115   28.4330 C   0  0  0  0  0  0  0  0  0  0  0  0
   12.2327  -16.9476   29.6765 C   0  0  0  0  0  0  0  0  0  0  0  0
    9.4737  -18.0581   26.7416 O   0  0  0  0  0  0  0  0  0  0  0  0
  2  1  1  0
  3  2  2  0
  4  5  1  0
  4  2  1  0
  5  6  1  6
  7  5  1  0
  7  8  2  0
  9 10  1  0
 10 11  2  0
 11 12  1  0
 13 12  2  0
 13 14  1  0
 15 14  1  1
 15 16  1  0
 16  7  1  0
 17 15  1  0
 18 17  2  0
 19 13  1  0
 20 10  1  0
 20 19  2  0
 22 21  1  0
 22 23  2  0
 24 23  1  0
 25 24  2  0
 26 25  1  0
 27 28  1  0
 27 26  1  1
 28 17  1  0
 29 27  1  0
 30 29  2  0
 31 32  2  0
 31 25  1  0
 32 22  1  0
 33 29  1  0
M  END
$$$$
