NYY.pdb
     RDKit          3D

 33 34  0  0  1  0  0  0  0  0999 V2000
   13.5429  -17.7378   18.3928 N   0  0  0  0  0  0  0  0  0  0  0  0
   12.1233  -17.5695   18.4252 C   0  0  0  0  0  0  0  0  0  0  0  0
   11.4366  -18.2722   17.6424 O   0  0  0  0  0  0  0  0  0  0  0  0
   11.5841  -16.5840   19.3719 C   0  0  0  0  0  0  0  0  0  0  0  0
   10.8247  -17.3307   20.4842 C   0  0  2  0  0  0  0  0  0  0  0  0
    9.7161  -17.9742   19.8555 N   0  0  0  0  0  0  0  0  0  0  0  0
   10.4772  -16.4050   21.5783 C   0  0  0  0  0  0  0  0  0  0  0  0
   11.4800  -15.8339   22.1299 O   0  0  0  0  0  0  0  0  0  0  0  0
    6.5154  -11.4895   27.7887 O   0  0  0  0  0  0  0  0  0  0  0  0
    6.7698  -12.2831   26.6957 C   0  0  0  0  0  0  0  0  0  0  0  0
    7.6099  -11.8046   25.6948 C   0  0  0  0  0  0  0  0  0  0  0  0
    7.8820  -12.5878   24.5800 C   0  0  0  0  0  0  0  0  0  0  0  0
    7.3340  -13.8479   24.4305 C   0  0  0  0  0  0  0  0  0  0  0  0
    7.5803  -14.6994   23.2595 C   0  0  0  0  0  0  0  0  0  0  0  0
    8.9843  -15.2614   23.1683 C   0  0  2  0  0  0  0  0  0  0  0  0
    9.1655  -16.1206   22.0375 N   0  0  0  0  0  0  0  0  0  0  0  0
    9.2849  -15.9388   24.4614 C   0  0  0  0  0  0  0  0  0  0  0  0
    8.6870  -17.0456   24.6640 O   0  0  0  0  0  0  0  0  0  0  0  0
    6.5093  -14.2942   25.4305 C   0  0  0  0  0  0  0  0  0  0  0  0
    6.2234  -13.5225   26.5593 C   0  0  0  0  0  0  0  0  0  0  0  0
   12.9400  -21.1724   23.4849 O   0  0  0  0  0  0  0  0  0  0  0  0
   12.6883  -20.0402   24.2778 C   0  0  0  0  0  0  0  0  0  0  0  0
   12.3030  -20.1859   25.6114 C   0  0  0  0  0  0  0  0  0  0  0  0
   12.0565  -19.0585   26.3837 C   0  0  0  0  0  0  0  0  0  0  0  0
   12.1713  -17.7745   25.9013 C   0  0  0  0  0  0  0  0  0  0  0  0
   11.9027  -16.5766   26.7223 C   0  0  0  0  0  0  0  0  0  0  0  0
   10.4375  -16.1645   26.6904 C   0  0  2  0  0  0  0  0  0  0  0  0
   10.1548  -15.4595   25.4450 N   0  0  0  0  0  0  0  0  0  0  0  0
   10.1212  -15.3001   27.8354 C   0  0  0  0  0  0  0  0  0  0  0  0
    9.7802  -14.1060   27.6890 O   0  0  0  0  0  0  0  0  0  0  0  0
   12.5572  -17.6625   24.5670 C   0  0  0  0  0  0  0  0  0  0  0  0
   12.8078  -18.7700   23.7823 C   0  0  0  0  0  0  0  0  0  0  0  0
   10.1922  -15.7944   29.1488 O   0  0  0  0  0  0  0  0  0  0  0  0
  2  1  1  0
  3  2  2  0
  4  5  1  0
  4  2  1  0
  5  6  1  6
  7  5  1  0
  7  8  2  0
  9 10  1  0
 10 11  2  0
 11 12  1  0
 13 12  2  0
 13 14  1  0
 15 14  1  1
 15 16  1  0
 16  7  1  0
 17 15  1  0
 18 17  2  0
 19 13  1  0
 20 10  1  0
 20 19  2  0
 22 21  1  0
 22 23  2  0
 24 23  1  0
 25 24  2  0
 26 25  1  0
 27 28  1  0
 27 26  1  6
 28 17  1  0
 29 27  1  0
 30 29  2  0
 31 32  2  0
 31 25  1  0
 32 22  1  0
 33 29  1  0
M  END
$$$$
