KWK.pdb
     RDKit          3D

 33 34  0  0  1  0  0  0  0  0999 V2000
    7.2273  -16.8503   21.2570 N   0  0  0  0  0  0  0  0  0  0  0  0
    8.2568  -15.8386   21.1302 C   0  0  1  0  0  0  0  0  0  0  0  0
    7.5896  -14.5241   20.8452 C   0  0  0  0  0  0  0  0  0  0  0  0
    7.1947  -14.2824   19.4383 C   0  0  0  0  0  0  0  0  0  0  0  0
    8.0390  -13.3498   18.6453 C   0  0  0  0  0  0  0  0  0  0  0  0
    7.3446  -13.2165   17.2729 C   0  0  0  0  0  0  0  0  0  0  0  0
    8.1122  -12.1982   16.5466 N   0  0  0  0  0  0  0  0  0  0  0  0
    8.9530  -15.6942   22.4493 C   0  0  0  0  0  0  0  0  0  0  0  0
    9.8604  -14.8144   22.5800 O   0  0  0  0  0  0  0  0  0  0  0  0
    8.6633  -16.4839   23.5751 N   0  0  0  0  0  0  0  0  0  0  0  0
    9.4228  -16.3546   24.8313 C   0  0  1  0  0  0  0  0  0  0  0  0
    8.3946  -16.3089   25.9205 C   0  0  0  0  0  0  0  0  0  0  0  0
    7.4051  -15.2437   25.8107 C   0  0  0  0  0  0  0  0  0  0  0  0
    6.0949  -15.4135   25.4255 C   0  0  0  0  0  0  0  0  0  0  0  0
    5.4958  -14.2239   25.4428 N   0  0  0  0  0  0  0  0  0  0  0  0
    6.3655  -13.2693   25.8272 C   0  0  0  0  0  0  0  0  0  0  0  0
    6.2314  -11.8983   25.9984 C   0  0  0  0  0  0  0  0  0  0  0  0
    7.3111  -11.1378   26.4085 C   0  0  0  0  0  0  0  0  0  0  0  0
    8.5089  -11.7998   26.6359 C   0  0  0  0  0  0  0  0  0  0  0  0
    8.6683  -13.1506   26.4749 C   0  0  0  0  0  0  0  0  0  0  0  0
    7.5753  -13.9016   26.0625 C   0  0  0  0  0  0  0  0  0  0  0  0
   10.2643  -17.6048   24.9413 C   0  0  0  0  0  0  0  0  0  0  0  0
    9.7734  -18.7305   24.6547 O   0  0  0  0  0  0  0  0  0  0  0  0
   11.6079  -17.5486   25.3617 N   0  0  0  0  0  0  0  0  0  0  0  0
   12.4104  -18.8279   25.5377 C   0  0  1  0  0  0  0  0  0  0  0  0
   13.6044  -18.6953   24.7047 C   0  0  0  0  0  0  0  0  0  0  0  0
   13.6129  -18.2951   23.2998 C   0  0  0  0  0  0  0  0  0  0  0  0
   14.8970  -18.2673   22.5487 C   0  0  0  0  0  0  0  0  0  0  0  0
   14.5846  -17.8052   21.1282 C   0  0  0  0  0  0  0  0  0  0  0  0
   15.8436  -17.7464   20.4179 N   0  0  0  0  0  0  0  0  0  0  0  0
   12.4814  -19.0948   26.9630 C   0  0  0  0  0  0  0  0  0  0  0  0
   12.0732  -18.1954   27.8115 O   0  0  0  0  0  0  0  0  0  0  0  0
   12.9352  -20.2283   27.5970 O   0  0  0  0  0  0  0  0  0  0  0  0
  2  1  1  1
  2  3  1  0
  4  3  1  0
  4  5  1  0
  5  6  1  0
  6  7  1  0
  8  2  1  0
  9  8  2  0
 10  8  1  0
 11 12  1  1
 11 10  1  0
 12 13  1  0
 13 14  2  0
 14 15  1  0
 16 15  1  0
 17 16  2  0
 18 17  1  0
 19 20  1  0
 19 18  2  0
 20 21  2  0
 21 13  1  0
 21 16  1  0
 22 11  1  0
 23 22  2  0
 24 22  1  0
 25 31  1  0
 25 24  1  0
 25 26  1  1
 27 26  1  0
 27 28  1  0
 29 28  1  0
 29 30  1  0
 31 33  1  0
 32 31  2  0
M  END
$$$$
