KWK.pdb
     RDKit          3D

 33 34  0  0  1  0  0  0  0  0999 V2000
    7.8111  -17.2281   21.2424 N   0  0  0  0  0  0  0  0  0  0  0  0
    8.9312  -16.3091   21.2284 C   0  0  1  0  0  0  0  0  0  0  0  0
    8.4620  -15.0071   20.6465 C   0  0  0  0  0  0  0  0  0  0  0  0
    8.5559  -14.8769   19.1741 C   0  0  0  0  0  0  0  0  0  0  0  0
    8.1461  -13.5774   18.5785 C   0  0  0  0  0  0  0  0  0  0  0  0
    8.3138  -13.7418   17.0527 C   0  0  0  0  0  0  0  0  0  0  0  0
    7.9113  -12.4536   16.4766 N   0  0  0  0  0  0  0  0  0  0  0  0
    9.3403  -16.0294   22.6427 C   0  0  0  0  0  0  0  0  0  0  0  0
   10.1673  -15.0936   22.8767 O   0  0  0  0  0  0  0  0  0  0  0  0
    8.8603  -16.7484   23.7506 N   0  0  0  0  0  0  0  0  0  0  0  0
    9.4002  -16.5396   25.1057 C   0  0  1  0  0  0  0  0  0  0  0  0
    8.2060  -16.4647   26.0079 C   0  0  0  0  0  0  0  0  0  0  0  0
    7.3164  -15.3312   25.7852 C   0  0  0  0  0  0  0  0  0  0  0  0
    6.1174  -15.3830   25.1119 C   0  0  0  0  0  0  0  0  0  0  0  0
    5.5858  -14.1617   25.1086 N   0  0  0  0  0  0  0  0  0  0  0  0
    6.3927  -13.3001   25.7582 C   0  0  0  0  0  0  0  0  0  0  0  0
    6.2885  -11.9412   26.0218 C   0  0  0  0  0  0  0  0  0  0  0  0
    7.2853  -11.2886   26.7239 C   0  0  0  0  0  0  0  0  0  0  0  0
    8.3707  -12.0442   27.1430 C   0  0  0  0  0  0  0  0  0  0  0  0
    8.4982  -13.3854   26.8966 C   0  0  0  0  0  0  0  0  0  0  0  0
    7.4895  -14.0275   26.1903 C   0  0  0  0  0  0  0  0  0  0  0  0
   10.2310  -17.7627   25.4175 C   0  0  0  0  0  0  0  0  0  0  0  0
    9.7806  -18.9164   25.1797 O   0  0  0  0  0  0  0  0  0  0  0  0
   11.5197  -17.6499   25.9756 N   0  0  0  0  0  0  0  0  0  0  0  0
   12.2517  -18.8869   26.4712 C   0  0  1  0  0  0  0  0  0  0  0  0
   13.6455  -18.7490   26.0522 C   0  0  0  0  0  0  0  0  0  0  0  0
   14.1002  -18.5899   24.6731 C   0  0  0  0  0  0  0  0  0  0  0  0
   15.5578  -18.5568   24.3763 C   0  0  0  0  0  0  0  0  0  0  0  0
   15.7139  -18.5394   22.8584 C   0  0  0  0  0  0  0  0  0  0  0  0
   17.1308  -18.4431   22.5817 N   0  0  0  0  0  0  0  0  0  0  0  0
   11.8716  -19.0809   27.8588 C   0  0  0  0  0  0  0  0  0  0  0  0
   11.2544  -18.1305   28.5002 O   0  0  0  0  0  0  0  0  0  0  0  0
   12.0681  -20.1889   28.6502 O   0  0  0  0  0  0  0  0  0  0  0  0
  2  1  1  1
  2  3  1  0
  4  3  1  0
  4  5  1  0
  5  6  1  0
  6  7  1  0
  8  2  1  0
  9  8  2  0
 10  8  1  0
 11 12  1  1
 11 10  1  0
 12 13  1  0
 13 14  2  0
 14 15  1  0
 16 15  1  0
 17 16  2  0
 18 17  1  0
 19 20  1  0
 19 18  2  0
 20 21  2  0
 21 13  1  0
 21 16  1  0
 22 11  1  0
 23 22  2  0
 24 22  1  0
 25 31  1  0
 25 24  1  0
 25 26  1  1
 27 26  1  0
 27 28  1  0
 29 28  1  0
 29 30  1  0
 31 33  1  0
 32 31  2  0
M  END
$$$$
