KWK.pdb
     RDKit          3D

 33 34  0  0  1  0  0  0  0  0999 V2000
    7.5189  -17.0608   20.9632 N   0  0  0  0  0  0  0  0  0  0  0  0
    8.6325  -16.1375   20.8815 C   0  0  1  0  0  0  0  0  0  0  0  0
    8.1081  -14.8110   20.4131 C   0  0  0  0  0  0  0  0  0  0  0  0
    8.0123  -14.6262   18.9467 C   0  0  0  0  0  0  0  0  0  0  0  0
    7.5120  -13.3140   18.4576 C   0  0  0  0  0  0  0  0  0  0  0  0
    7.3118  -13.4802   16.9359 C   0  0  0  0  0  0  0  0  0  0  0  0
    8.6634  -13.4823   16.3642 N   0  0  0  0  0  0  0  0  0  0  0  0
    9.1814  -15.9245   22.2596 C   0  0  0  0  0  0  0  0  0  0  0  0
   10.1456  -15.1137   22.4258 O   0  0  0  0  0  0  0  0  0  0  0  0
    8.6908  -16.5754   23.4043 N   0  0  0  0  0  0  0  0  0  0  0  0
    9.2942  -16.3713   24.7331 C   0  0  1  0  0  0  0  0  0  0  0  0
    8.1502  -16.3825   25.7009 C   0  0  0  0  0  0  0  0  0  0  0  0
    7.2550  -15.2336   25.6338 C   0  0  0  0  0  0  0  0  0  0  0  0
    5.9197  -15.2853   25.3049 C   0  0  0  0  0  0  0  0  0  0  0  0
    5.4295  -14.0476   25.3482 N   0  0  0  0  0  0  0  0  0  0  0  0
    6.3958  -13.1751   25.6953 C   0  0  0  0  0  0  0  0  0  0  0  0
    6.3909  -11.7983   25.8724 C   0  0  0  0  0  0  0  0  0  0  0  0
    7.5501  -11.1379   26.2361 C   0  0  0  0  0  0  0  0  0  0  0  0
    8.6932  -11.9041   26.4119 C   0  0  0  0  0  0  0  0  0  0  0  0
    8.7255  -13.2630   26.2439 C   0  0  0  0  0  0  0  0  0  0  0  0
    7.5539  -13.9128   25.8784 C   0  0  0  0  0  0  0  0  0  0  0  0
   10.2037  -17.5556   24.9653 C   0  0  0  0  0  0  0  0  0  0  0  0
    9.7956  -18.7267   24.7370 O   0  0  0  0  0  0  0  0  0  0  0  0
   11.5204  -17.3863   25.4374 N   0  0  0  0  0  0  0  0  0  0  0  0
   12.3919  -18.5973   25.7291 C   0  0  1  0  0  0  0  0  0  0  0  0
   13.7344  -18.2775   25.2466 C   0  0  0  0  0  0  0  0  0  0  0  0
   14.9128  -19.1260   25.4063 C   0  0  0  0  0  0  0  0  0  0  0  0
   16.2086  -18.7091   24.8055 C   0  0  0  0  0  0  0  0  0  0  0  0
   17.2337  -19.7899   25.1370 C   0  0  0  0  0  0  0  0  0  0  0  0
   18.5001  -19.3503   24.5929 N   0  0  0  0  0  0  0  0  0  0  0  0
   12.1314  -18.9902   27.1023 C   0  0  0  0  0  0  0  0  0  0  0  0
   11.5713  -18.1476   27.9218 O   0  0  0  0  0  0  0  0  0  0  0  0
   12.3945  -20.1966   27.7089 O   0  0  0  0  0  0  0  0  0  0  0  0
  2  1  1  1
  2  3  1  0
  4  3  1  0
  4  5  1  0
  5  6  1  0
  6  7  1  0
  8  2  1  0
  9  8  2  0
 10  8  1  0
 11 12  1  1
 11 10  1  0
 12 13  1  0
 13 14  2  0
 14 15  1  0
 16 15  1  0
 17 16  2  0
 18 17  1  0
 19 20  1  0
 19 18  2  0
 20 21  2  0
 21 13  1  0
 21 16  1  0
 22 11  1  0
 23 22  2  0
 24 22  1  0
 25 31  1  0
 25 24  1  0
 25 26  1  1
 27 26  1  0
 27 28  1  0
 29 28  1  0
 29 30  1  0
 31 33  1  0
 32 31  2  0
M  END
$$$$
