KWK.pdb
     RDKit          3D

 33 34  0  0  1  0  0  0  0  0999 V2000
    6.8725  -16.5781   21.0426 N   0  0  0  0  0  0  0  0  0  0  0  0
    8.0805  -15.8484   20.7142 C   0  0  1  0  0  0  0  0  0  0  0  0
    7.6866  -14.4812   20.2352 C   0  0  0  0  0  0  0  0  0  0  0  0
    7.1794  -14.3955   18.8462 C   0  0  0  0  0  0  0  0  0  0  0  0
    7.6528  -13.2545   18.0183 C   0  0  0  0  0  0  0  0  0  0  0  0
    6.8713  -13.3451   16.6900 C   0  0  0  0  0  0  0  0  0  0  0  0
    7.3952  -12.2571   15.8561 N   0  0  0  0  0  0  0  0  0  0  0  0
    8.8800  -15.6552   21.9669 C   0  0  0  0  0  0  0  0  0  0  0  0
    9.8763  -14.8667   21.9526 O   0  0  0  0  0  0  0  0  0  0  0  0
    8.5955  -16.3016   23.1818 N   0  0  0  0  0  0  0  0  0  0  0  0
    9.4448  -16.1259   24.3731 C   0  0  1  0  0  0  0  0  0  0  0  0
    8.5224  -16.2515   25.5473 C   0  0  0  0  0  0  0  0  0  0  0  0
    7.5039  -15.2148   25.6642 C   0  0  0  0  0  0  0  0  0  0  0  0
    6.1487  -15.4143   25.5326 C   0  0  0  0  0  0  0  0  0  0  0  0
    5.5347  -14.2447   25.7031 N   0  0  0  0  0  0  0  0  0  0  0  0
    6.4380  -13.2744   25.9441 C   0  0  0  0  0  0  0  0  0  0  0  0
    6.3052  -11.9134   26.1822 C   0  0  0  0  0  0  0  0  0  0  0  0
    7.4244  -11.1314   26.4017 C   0  0  0  0  0  0  0  0  0  0  0  0
    8.6597  -11.7621   26.3732 C   0  0  0  0  0  0  0  0  0  0  0  0
    8.8188  -13.1025   26.1409 C   0  0  0  0  0  0  0  0  0  0  0  0
    7.6859  -13.8753   25.9220 C   0  0  0  0  0  0  0  0  0  0  0  0
   10.4390  -17.2637   24.3489 C   0  0  0  0  0  0  0  0  0  0  0  0
   10.0778  -18.4177   23.9912 O   0  0  0  0  0  0  0  0  0  0  0  0
   11.7841  -17.0689   24.7201 N   0  0  0  0  0  0  0  0  0  0  0  0
   12.7499  -18.2428   24.7467 C   0  0  1  0  0  0  0  0  0  0  0  0
   13.9593  -17.8105   24.0483 C   0  0  0  0  0  0  0  0  0  0  0  0
   14.6043  -18.5308   22.9533 C   0  0  0  0  0  0  0  0  0  0  0  0
   15.8603  -17.9984   22.3592 C   0  0  0  0  0  0  0  0  0  0  0  0
   16.2424  -18.9168   21.2018 C   0  0  0  0  0  0  0  0  0  0  0  0
   17.4073  -18.3362   20.5702 N   0  0  0  0  0  0  0  0  0  0  0  0
   12.7749  -18.7445   26.1089 C   0  0  0  0  0  0  0  0  0  0  0  0
   13.5353  -19.7570   26.4123 O   0  0  0  0  0  0  0  0  0  0  0  0
   12.0803  -18.2801   27.2018 O   0  0  0  0  0  0  0  0  0  0  0  0
  2  1  1  1
  2  3  1  0
  4  3  1  0
  4  5  1  0
  5  6  1  0
  6  7  1  0
  8  2  1  0
  9  8  2  0
 10  8  1  0
 11 12  1  1
 11 10  1  0
 12 13  1  0
 13 14  2  0
 14 15  1  0
 16 15  1  0
 17 16  2  0
 18 17  1  0
 19 20  1  0
 19 18  2  0
 20 21  2  0
 21 13  1  0
 21 16  1  0
 22 11  1  0
 23 22  2  0
 24 22  1  0
 25 31  1  0
 25 24  1  0
 25 26  1  1
 27 26  1  0
 27 28  1  0
 29 28  1  0
 29 30  1  0
 31 33  1  0
 32 31  2  0
M  END
$$$$
