KWK.pdb
     RDKit          3D

 33 34  0  0  1  0  0  0  0  0999 V2000
    5.8330  -14.7864   19.9580 N   0  0  0  0  0  0  0  0  0  0  0  0
    7.2601  -15.0000   19.8269 C   0  0  1  0  0  0  0  0  0  0  0  0
    7.8054  -13.9606   18.8907 C   0  0  0  0  0  0  0  0  0  0  0  0
    7.6337  -14.2285   17.4442 C   0  0  0  0  0  0  0  0  0  0  0  0
    8.7144  -13.7655   16.5336 C   0  0  0  0  0  0  0  0  0  0  0  0
    8.2257  -14.0833   15.1041 C   0  0  0  0  0  0  0  0  0  0  0  0
    8.7640  -13.0089   14.2618 N   0  0  0  0  0  0  0  0  0  0  0  0
    7.9050  -14.7646   21.1590 C   0  0  0  0  0  0  0  0  0  0  0  0
    7.8191  -13.6166   21.6967 O   0  0  0  0  0  0  0  0  0  0  0  0
    8.6137  -15.7496   21.8679 N   0  0  0  0  0  0  0  0  0  0  0  0
    9.3249  -15.4443   23.1218 C   0  0  1  0  0  0  0  0  0  0  0  0
    8.5803  -16.1775   24.1958 C   0  0  0  0  0  0  0  0  0  0  0  0
    7.5661  -15.4039   24.9021 C   0  0  0  0  0  0  0  0  0  0  0  0
    6.3082  -15.8555   25.2299 C   0  0  0  0  0  0  0  0  0  0  0  0
    5.6655  -14.8786   25.8677 N   0  0  0  0  0  0  0  0  0  0  0  0
    6.4559  -13.7926   25.9746 C   0  0  0  0  0  0  0  0  0  0  0  0
    6.2525  -12.5420   26.5418 C   0  0  0  0  0  0  0  0  0  0  0  0
    7.2549  -11.5901   26.5089 C   0  0  0  0  0  0  0  0  0  0  0  0
    8.4484  -11.9404   25.8946 C   0  0  0  0  0  0  0  0  0  0  0  0
    8.6753  -13.1665   25.3278 C   0  0  0  0  0  0  0  0  0  0  0  0
    7.6594  -14.1125   25.3681 C   0  0  0  0  0  0  0  0  0  0  0  0
   10.7188  -16.0043   22.9586 C   0  0  0  0  0  0  0  0  0  0  0  0
   10.9799  -16.7982   22.0141 O   0  0  0  0  0  0  0  0  0  0  0  0
   11.7559  -15.6579   23.8471 N   0  0  0  0  0  0  0  0  0  0  0  0
   12.3207  -16.6927   24.8071 C   0  0  1  0  0  0  0  0  0  0  0  0
   11.3130  -16.8994   25.8459 C   0  0  0  0  0  0  0  0  0  0  0  0
   11.1842  -18.0988   26.6698 C   0  0  0  0  0  0  0  0  0  0  0  0
   11.3527  -18.0017   28.1450 C   0  0  0  0  0  0  0  0  0  0  0  0
   10.2064  -18.7780   28.7870 C   0  0  0  0  0  0  0  0  0  0  0  0
   10.4467  -18.7809   30.2137 N   0  0  0  0  0  0  0  0  0  0  0  0
   12.8435  -17.7818   24.0021 C   0  0  0  0  0  0  0  0  0  0  0  0
   14.1153  -17.8319   23.7277 O   0  0  0  0  0  0  0  0  0  0  0  0
   12.1595  -18.8430   23.4553 O   0  0  0  0  0  0  0  0  0  0  0  0
  2  1  1  1
  2  3  1  0
  4  3  1  0
  4  5  1  0
  5  6  1  0
  6  7  1  0
  8  2  1  0
  9  8  2  0
 10  8  1  0
 11 12  1  1
 11 10  1  0
 12 13  1  0
 13 14  2  0
 14 15  1  0
 16 15  1  0
 17 16  2  0
 18 17  1  0
 19 20  1  0
 19 18  2  0
 20 21  2  0
 21 13  1  0
 21 16  1  0
 22 11  1  0
 23 22  2  0
 24 22  1  0
 25 31  1  0
 25 24  1  0
 25 26  1  1
 27 26  1  0
 27 28  1  0
 29 28  1  0
 29 30  1  0
 31 33  1  0
 32 31  2  0
M  END
$$$$
