KWK.pdb
     RDKit          3D

 33 34  0  0  1  0  0  0  0  0999 V2000
    7.5036  -16.4551   20.9509 N   0  0  0  0  0  0  0  0  0  0  0  0
    8.4374  -15.3585   21.1090 C   0  0  1  0  0  0  0  0  0  0  0  0
    7.6816  -14.0718   20.9438 C   0  0  0  0  0  0  0  0  0  0  0  0
    7.1765  -13.7800   19.5824 C   0  0  0  0  0  0  0  0  0  0  0  0
    8.1867  -13.5045   18.5265 C   0  0  0  0  0  0  0  0  0  0  0  0
    7.6309  -14.1421   17.2351 C   0  0  0  0  0  0  0  0  0  0  0  0
    8.6164  -13.8314   16.1931 N   0  0  0  0  0  0  0  0  0  0  0  0
    8.9638  -15.3749   22.5119 C   0  0  0  0  0  0  0  0  0  0  0  0
    9.7613  -14.4595   22.8870 O   0  0  0  0  0  0  0  0  0  0  0  0
    8.6275  -16.3559   23.4603 N   0  0  0  0  0  0  0  0  0  0  0  0
    9.2883  -16.4242   24.7756 C   0  0  1  0  0  0  0  0  0  0  0  0
    8.1795  -16.4272   25.7836 C   0  0  0  0  0  0  0  0  0  0  0  0
    7.3514  -15.2276   25.8153 C   0  0  0  0  0  0  0  0  0  0  0  0
    6.0147  -15.1766   25.4923 C   0  0  0  0  0  0  0  0  0  0  0  0
    5.5962  -13.9205   25.6383 N   0  0  0  0  0  0  0  0  0  0  0  0
    6.6116  -13.1352   26.0480 C   0  0  0  0  0  0  0  0  0  0  0  0
    6.6859  -11.7792   26.3353 C   0  0  0  0  0  0  0  0  0  0  0  0
    7.8819  -11.2174   26.7432 C   0  0  0  0  0  0  0  0  0  0  0  0
    8.9796  -12.0590   26.8490 C   0  0  0  0  0  0  0  0  0  0  0  0
    8.9337  -13.3996   26.5720 C   0  0  0  0  0  0  0  0  0  0  0  0
    7.7260  -13.9500   26.1633 C   0  0  0  0  0  0  0  0  0  0  0  0
   10.0373  -17.7365   24.7993 C   0  0  0  0  0  0  0  0  0  0  0  0
    9.4083  -18.8293   24.7799 O   0  0  0  0  0  0  0  0  0  0  0  0
   11.4450  -17.7756   24.8420 N   0  0  0  0  0  0  0  0  0  0  0  0
   12.1715  -19.1050   24.9702 C   0  0  1  0  0  0  0  0  0  0  0  0
   13.3923  -18.9976   24.1730 C   0  0  0  0  0  0  0  0  0  0  0  0
   13.4418  -18.7340   22.7370 C   0  0  0  0  0  0  0  0  0  0  0  0
   14.6052  -18.0076   22.1602 C   0  0  0  0  0  0  0  0  0  0  0  0
   14.3798  -17.9082   20.6542 C   0  0  0  0  0  0  0  0  0  0  0  0
   15.5145  -17.1988   20.1043 N   0  0  0  0  0  0  0  0  0  0  0  0
   12.1907  -19.4470   26.3810 C   0  0  0  0  0  0  0  0  0  0  0  0
   11.8188  -18.5671   27.2658 O   0  0  0  0  0  0  0  0  0  0  0  0
   12.5572  -20.6373   26.9653 O   0  0  0  0  0  0  0  0  0  0  0  0
  2  1  1  1
  2  3  1  0
  4  3  1  0
  4  5  1  0
  5  6  1  0
  6  7  1  0
  8  2  1  0
  9  8  2  0
 10  8  1  0
 11 12  1  1
 11 10  1  0
 12 13  1  0
 13 14  2  0
 14 15  1  0
 16 15  1  0
 17 16  2  0
 18 17  1  0
 19 20  1  0
 19 18  2  0
 20 21  2  0
 21 13  1  0
 21 16  1  0
 22 11  1  0
 23 22  2  0
 24 22  1  0
 25 31  1  0
 25 24  1  0
 25 26  1  1
 27 26  1  0
 27 28  1  0
 29 28  1  0
 29 30  1  0
 31 33  1  0
 32 31  2  0
M  END
$$$$
