KWK.pdb
     RDKit          3D

 33 34  0  0  1  0  0  0  0  0999 V2000
    7.6122  -16.5287   21.4218 N   0  0  0  0  0  0  0  0  0  0  0  0
    8.7133  -15.6069   21.2284 C   0  0  1  0  0  0  0  0  0  0  0  0
    8.1492  -14.2919   20.7738 C   0  0  0  0  0  0  0  0  0  0  0  0
    7.5742  -14.2635   19.4091 C   0  0  0  0  0  0  0  0  0  0  0  0
    8.3367  -13.5292   18.3647 C   0  0  0  0  0  0  0  0  0  0  0  0
    7.4807  -13.6108   17.0826 C   0  0  0  0  0  0  0  0  0  0  0  0
    8.2467  -12.8924   16.0576 N   0  0  0  0  0  0  0  0  0  0  0  0
    9.3721  -15.3616   22.5519 C   0  0  0  0  0  0  0  0  0  0  0  0
   10.2814  -14.4784   22.6390 O   0  0  0  0  0  0  0  0  0  0  0  0
    9.0445  -16.0581   23.7277 N   0  0  0  0  0  0  0  0  0  0  0  0
    9.7605  -15.8246   24.9943 C   0  0  1  0  0  0  0  0  0  0  0  0
    8.7519  -16.0627   26.0767 C   0  0  0  0  0  0  0  0  0  0  0  0
    7.5341  -15.2655   25.9918 C   0  0  0  0  0  0  0  0  0  0  0  0
    6.2944  -15.7447   25.6349 C   0  0  0  0  0  0  0  0  0  0  0  0
    5.4287  -14.7330   25.6688 N   0  0  0  0  0  0  0  0  0  0  0  0
    6.0529  -13.5971   26.0369 C   0  0  0  0  0  0  0  0  0  0  0  0
    5.5985  -12.2976   26.2149 C   0  0  0  0  0  0  0  0  0  0  0  0
    6.4737  -11.2999   26.6034 C   0  0  0  0  0  0  0  0  0  0  0  0
    7.7998  -11.6556   26.8025 C   0  0  0  0  0  0  0  0  0  0  0  0
    8.2741  -12.9294   26.6341 C   0  0  0  0  0  0  0  0  0  0  0  0
    7.3838  -13.9210   26.2436 C   0  0  0  0  0  0  0  0  0  0  0  0
   10.8601  -16.8596   25.0497 C   0  0  0  0  0  0  0  0  0  0  0  0
   11.4081  -17.1487   26.1481 O   0  0  0  0  0  0  0  0  0  0  0  0
   11.2987  -17.5251   23.8879 N   0  0  0  0  0  0  0  0  0  0  0  0
   12.3683  -18.6017   23.9785 C   0  0  1  0  0  0  0  0  0  0  0  0
   12.2041  -19.4597   22.8063 C   0  0  0  0  0  0  0  0  0  0  0  0
   11.2454  -20.5559   22.6906 C   0  0  0  0  0  0  0  0  0  0  0  0
   11.1881  -21.3563   21.4376 C   0  0  0  0  0  0  0  0  0  0  0  0
   10.1641  -22.4672   21.6525 C   0  0  0  0  0  0  0  0  0  0  0  0
   10.0667  -23.1970   20.4071 N   0  0  0  0  0  0  0  0  0  0  0  0
   13.6207  -17.9348   24.2858 C   0  0  0  0  0  0  0  0  0  0  0  0
   14.6636  -18.6382   24.6219 O   0  0  0  0  0  0  0  0  0  0  0  0
   13.8962  -16.5870   24.2676 O   0  0  0  0  0  0  0  0  0  0  0  0
  2  1  1  1
  2  3  1  0
  4  3  1  0
  4  5  1  0
  5  6  1  0
  6  7  1  0
  8  2  1  0
  9  8  2  0
 10  8  1  0
 11 12  1  1
 11 10  1  0
 12 13  1  0
 13 14  2  0
 14 15  1  0
 16 15  1  0
 17 16  2  0
 18 17  1  0
 19 20  1  0
 19 18  2  0
 20 21  2  0
 21 13  1  0
 21 16  1  0
 22 11  1  0
 23 22  2  0
 24 22  1  0
 25 31  1  0
 25 24  1  0
 25 26  1  6
 27 26  1  0
 27 28  1  0
 29 28  1  0
 29 30  1  0
 31 33  1  0
 32 31  2  0
M  END
$$$$
