KWK.pdb
     RDKit          3D

 33 34  0  0  1  0  0  0  0  0999 V2000
    7.3543  -16.7734   21.1991 N   0  0  0  0  0  0  0  0  0  0  0  0
    8.5537  -15.9680   21.0876 C   0  0  1  0  0  0  0  0  0  0  0  0
    8.1442  -14.5594   20.7679 C   0  0  0  0  0  0  0  0  0  0  0  0
    7.5765  -14.3334   19.4187 C   0  0  0  0  0  0  0  0  0  0  0  0
    8.2166  -13.2871   18.5778 C   0  0  0  0  0  0  0  0  0  0  0  0
    7.3720  -13.2084   17.2880 C   0  0  0  0  0  0  0  0  0  0  0  0
    7.9942  -12.1530   16.4801 N   0  0  0  0  0  0  0  0  0  0  0  0
    9.2319  -15.9297   22.4234 C   0  0  0  0  0  0  0  0  0  0  0  0
   10.2658  -15.2067   22.5747 O   0  0  0  0  0  0  0  0  0  0  0  0
    8.7916  -16.6555   23.5433 N   0  0  0  0  0  0  0  0  0  0  0  0
    9.4510  -16.5354   24.8556 C   0  0  1  0  0  0  0  0  0  0  0  0
    8.3406  -16.4658   25.8594 C   0  0  0  0  0  0  0  0  0  0  0  0
    7.4084  -15.3569   25.6942 C   0  0  0  0  0  0  0  0  0  0  0  0
    6.1222  -15.4650   25.2170 C   0  0  0  0  0  0  0  0  0  0  0  0
    5.5757  -14.2503   25.2072 N   0  0  0  0  0  0  0  0  0  0  0  0
    6.4571  -13.3387   25.6628 C   0  0  0  0  0  0  0  0  0  0  0  0
    6.3710  -11.9648   25.8410 C   0  0  0  0  0  0  0  0  0  0  0  0
    7.4515  -11.2566   26.3344 C   0  0  0  0  0  0  0  0  0  0  0  0
    8.6006  -11.9730   26.6362 C   0  0  0  0  0  0  0  0  0  0  0  0
    8.7119  -13.3280   26.4701 C   0  0  0  0  0  0  0  0  0  0  0  0
    7.6189  -14.0260   25.9737 C   0  0  0  0  0  0  0  0  0  0  0  0
   10.2572  -17.8008   25.0355 C   0  0  0  0  0  0  0  0  0  0  0  0
    9.7837  -18.9138   24.6789 O   0  0  0  0  0  0  0  0  0  0  0  0
   11.5479  -17.7728   25.5998 N   0  0  0  0  0  0  0  0  0  0  0  0
   12.2582  -19.0696   25.9536 C   0  0  1  0  0  0  0  0  0  0  0  0
   13.6544  -18.9099   25.5504 C   0  0  0  0  0  0  0  0  0  0  0  0
   14.7136  -19.8916   25.7700 C   0  0  0  0  0  0  0  0  0  0  0  0
   16.1172  -19.5553   25.4086 C   0  0  0  0  0  0  0  0  0  0  0  0
   16.9831  -20.7573   25.7752 C   0  0  0  0  0  0  0  0  0  0  0  0
   18.3539  -20.3907   25.4931 N   0  0  0  0  0  0  0  0  0  0  0  0
   11.8743  -19.4101   27.3117 C   0  0  0  0  0  0  0  0  0  0  0  0
   12.1098  -20.6055   27.7709 O   0  0  0  0  0  0  0  0  0  0  0  0
   11.2677  -18.6104   28.2526 O   0  0  0  0  0  0  0  0  0  0  0  0
  2  1  1  1
  2  3  1  0
  4  3  1  0
  4  5  1  0
  5  6  1  0
  6  7  1  0
  8  2  1  0
  9  8  2  0
 10  8  1  0
 11 12  1  1
 11 10  1  0
 12 13  1  0
 13 14  2  0
 14 15  1  0
 16 15  1  0
 17 16  2  0
 18 17  1  0
 19 20  1  0
 19 18  2  0
 20 21  2  0
 21 13  1  0
 21 16  1  0
 22 11  1  0
 23 22  2  0
 24 22  1  0
 25 31  1  0
 25 24  1  0
 25 26  1  1
 27 26  1  0
 27 28  1  0
 29 28  1  0
 29 30  1  0
 31 33  1  0
 32 31  2  0
M  END
$$$$
