KWK.pdb
     RDKit          3D

 33 34  0  0  1  0  0  0  0  0999 V2000
    6.7396  -17.1156   20.9532 N   0  0  0  0  0  0  0  0  0  0  0  0
    7.5487  -15.9681   20.5950 C   0  0  1  0  0  0  0  0  0  0  0  0
    6.6356  -14.7914   20.4062 C   0  0  0  0  0  0  0  0  0  0  0  0
    7.1928  -13.6454   19.6513 C   0  0  0  0  0  0  0  0  0  0  0  0
    6.9561  -13.6180   18.1834 C   0  0  0  0  0  0  0  0  0  0  0  0
    8.2459  -13.0433   17.5594 C   0  0  0  0  0  0  0  0  0  0  0  0
    8.0969  -13.2367   16.1124 N   0  0  0  0  0  0  0  0  0  0  0  0
    8.4491  -15.6375   21.7464 C   0  0  0  0  0  0  0  0  0  0  0  0
    9.3168  -14.7190   21.6127 O   0  0  0  0  0  0  0  0  0  0  0  0
    8.3970  -16.2896   22.9901 N   0  0  0  0  0  0  0  0  0  0  0  0
    9.4043  -16.0465   24.0379 C   0  0  1  0  0  0  0  0  0  0  0  0
    8.6961  -16.2765   25.3384 C   0  0  0  0  0  0  0  0  0  0  0  0
    7.6811  -15.2898   25.6879 C   0  0  0  0  0  0  0  0  0  0  0  0
    6.3219  -15.5016   25.6517 C   0  0  0  0  0  0  0  0  0  0  0  0
    5.7131  -14.3811   26.0364 N   0  0  0  0  0  0  0  0  0  0  0  0
    6.6238  -13.4317   26.3273 C   0  0  0  0  0  0  0  0  0  0  0  0
    6.4981  -12.1194   26.7620 C   0  0  0  0  0  0  0  0  0  0  0  0
    7.6239  -11.3484   26.9864 C   0  0  0  0  0  0  0  0  0  0  0  0
    8.8584  -11.9398   26.7608 C   0  0  0  0  0  0  0  0  0  0  0  0
    9.0105  -13.2318   26.3323 C   0  0  0  0  0  0  0  0  0  0  0  0
    7.8711  -13.9942   26.1109 C   0  0  0  0  0  0  0  0  0  0  0  0
   10.4852  -17.0811   23.8264 C   0  0  0  0  0  0  0  0  0  0  0  0
   10.1913  -18.2320   23.4029 O   0  0  0  0  0  0  0  0  0  0  0  0
   11.8381  -16.7916   24.0924 N   0  0  0  0  0  0  0  0  0  0  0  0
   12.8992  -17.8681   23.9284 C   0  0  1  0  0  0  0  0  0  0  0  0
   14.0581  -17.2277   23.3087 C   0  0  0  0  0  0  0  0  0  0  0  0
   15.3213  -17.8910   22.9952 C   0  0  0  0  0  0  0  0  0  0  0  0
   16.4320  -17.1114   22.3849 C   0  0  0  0  0  0  0  0  0  0  0  0
   17.5485  -18.0956   22.0476 C   0  0  0  0  0  0  0  0  0  0  0  0
   18.5388  -17.3648   21.2871 N   0  0  0  0  0  0  0  0  0  0  0  0
   12.9853  -18.5788   25.1914 C   0  0  0  0  0  0  0  0  0  0  0  0
   12.5224  -18.0287   26.2770 O   0  0  0  0  0  0  0  0  0  0  0  0
   13.5071  -19.8286   25.4331 O   0  0  0  0  0  0  0  0  0  0  0  0
  2  1  1  1
  2  3  1  0
  4  3  1  0
  4  5  1  0
  5  6  1  0
  6  7  1  0
  8  2  1  0
  9  8  2  0
 10  8  1  0
 11 12  1  1
 11 10  1  0
 12 13  1  0
 13 14  2  0
 14 15  1  0
 16 15  1  0
 17 16  2  0
 18 17  1  0
 19 20  1  0
 19 18  2  0
 20 21  2  0
 21 13  1  0
 21 16  1  0
 22 11  1  0
 23 22  2  0
 24 22  1  0
 25 31  1  0
 25 24  1  0
 25 26  1  1
 27 26  1  0
 27 28  1  0
 29 28  1  0
 29 30  1  0
 31 33  1  0
 32 31  2  0
M  END
$$$$
