KWK.pdb
     RDKit          3D

 33 34  0  0  1  0  0  0  0  0999 V2000
    8.9063  -16.3351   19.1930 N   0  0  0  0  0  0  0  0  0  0  0  0
    9.8093  -15.2348   19.4637 C   0  0  1  0  0  0  0  0  0  0  0  0
    9.3758  -14.0586   18.6375 C   0  0  0  0  0  0  0  0  0  0  0  0
    9.2008  -14.3064   17.1878 C   0  0  0  0  0  0  0  0  0  0  0  0
    7.8981  -13.9193   16.5838 C   0  0  0  0  0  0  0  0  0  0  0  0
    7.7162  -14.8334   15.3531 C   0  0  0  0  0  0  0  0  0  0  0  0
    8.6959  -14.3591   14.3688 N   0  0  0  0  0  0  0  0  0  0  0  0
    9.6604  -14.8339   20.9000 C   0  0  0  0  0  0  0  0  0  0  0  0
   10.3408  -13.8580   21.3464 O   0  0  0  0  0  0  0  0  0  0  0  0
    8.8006  -15.4791   21.8052 N   0  0  0  0  0  0  0  0  0  0  0  0
    8.6390  -15.0099   23.1927 C   0  0  1  0  0  0  0  0  0  0  0  0
    7.1628  -15.0156   23.4503 C   0  0  0  0  0  0  0  0  0  0  0  0
    6.7505  -14.5585   24.7720 C   0  0  0  0  0  0  0  0  0  0  0  0
    6.0673  -15.3149   25.6966 C   0  0  0  0  0  0  0  0  0  0  0  0
    5.8661  -14.5688   26.7815 N   0  0  0  0  0  0  0  0  0  0  0  0
    6.3937  -13.3413   26.6079 C   0  0  0  0  0  0  0  0  0  0  0  0
    6.4443  -12.2223   27.4277 C   0  0  0  0  0  0  0  0  0  0  0  0
    7.0598  -11.0640   26.9896 C   0  0  0  0  0  0  0  0  0  0  0  0
    7.6126  -11.0767   25.7172 C   0  0  0  0  0  0  0  0  0  0  0  0
    7.5768  -12.1665   24.8884 C   0  0  0  0  0  0  0  0  0  0  0  0
    6.9553  -13.3227   25.3417 C   0  0  0  0  0  0  0  0  0  0  0  0
    9.3384  -16.0286   24.0624 C   0  0  0  0  0  0  0  0  0  0  0  0
    9.2929  -15.9320   25.3189 O   0  0  0  0  0  0  0  0  0  0  0  0
   10.0526  -17.1049   23.4998 N   0  0  0  0  0  0  0  0  0  0  0  0
   10.7336  -18.1258   24.3972 C   0  0  1  0  0  0  0  0  0  0  0  0
   10.7803  -19.3810   23.6492 C   0  0  0  0  0  0  0  0  0  0  0  0
   11.3735  -20.6271   24.1282 C   0  0  0  0  0  0  0  0  0  0  0  0
   11.4132  -21.8162   23.2346 C   0  0  0  0  0  0  0  0  0  0  0  0
   12.0765  -22.9492   24.0124 C   0  0  0  0  0  0  0  0  0  0  0  0
   12.2649  -24.0432   23.0846 N   0  0  0  0  0  0  0  0  0  0  0  0
   11.9258  -17.4947   24.9340 C   0  0  0  0  0  0  0  0  0  0  0  0
   12.4748  -16.5004   24.2973 O   0  0  0  0  0  0  0  0  0  0  0  0
   12.6049  -17.7994   26.0910 O   0  0  0  0  0  0  0  0  0  0  0  0
  2  1  1  6
  2  3  1  0
  4  3  1  0
  4  5  1  0
  5  6  1  0
  6  7  1  0
  8  2  1  0
  9  8  2  0
 10  8  1  0
 11 12  1  1
 11 10  1  0
 12 13  1  0
 13 14  2  0
 14 15  1  0
 16 15  1  0
 17 16  2  0
 18 17  1  0
 19 20  1  0
 19 18  2  0
 20 21  2  0
 21 13  1  0
 21 16  1  0
 22 11  1  0
 23 22  2  0
 24 22  1  0
 25 31  1  0
 25 24  1  0
 25 26  1  6
 27 26  1  0
 27 28  1  0
 29 28  1  0
 29 30  1  0
 31 33  1  0
 32 31  2  0
M  END
$$$$
