KWK.pdb
     RDKit          3D

 33 34  0  0  1  0  0  0  0  0999 V2000
    8.8687  -16.9792   19.6654 N   0  0  0  0  0  0  0  0  0  0  0  0
    9.2821  -15.5923   19.5944 C   0  0  1  0  0  0  0  0  0  0  0  0
    8.4542  -14.9097   18.5442 C   0  0  0  0  0  0  0  0  0  0  0  0
    8.0043  -15.7550   17.4143 C   0  0  0  0  0  0  0  0  0  0  0  0
    7.3079  -15.0741   16.2905 C   0  0  0  0  0  0  0  0  0  0  0  0
    8.4087  -14.3387   15.4964 C   0  0  0  0  0  0  0  0  0  0  0  0
    7.7273  -13.7597   14.3328 N   0  0  0  0  0  0  0  0  0  0  0  0
    8.9609  -14.9283   20.8988 C   0  0  0  0  0  0  0  0  0  0  0  0
    7.9898  -14.1109   20.9574 O   0  0  0  0  0  0  0  0  0  0  0  0
    9.6773  -15.1538   22.0866 N   0  0  0  0  0  0  0  0  0  0  0  0
    9.1901  -14.6725   23.3914 C   0  0  1  0  0  0  0  0  0  0  0  0
    7.8390  -15.2952   23.5713 C   0  0  0  0  0  0  0  0  0  0  0  0
    7.1366  -14.9368   24.7977 C   0  0  0  0  0  0  0  0  0  0  0  0
    6.2575  -15.7496   25.4759 C   0  0  0  0  0  0  0  0  0  0  0  0
    5.8157  -15.0889   26.5448 N   0  0  0  0  0  0  0  0  0  0  0  0
    6.3731  -13.8634   26.5989 C   0  0  0  0  0  0  0  0  0  0  0  0
    6.2383  -12.8154   27.4991 C   0  0  0  0  0  0  0  0  0  0  0  0
    6.9415  -11.6396   27.3107 C   0  0  0  0  0  0  0  0  0  0  0  0
    7.7709  -11.5623   26.2013 C   0  0  0  0  0  0  0  0  0  0  0  0
    7.9222  -12.5809   25.2983 C   0  0  0  0  0  0  0  0  0  0  0  0
    7.2096  -13.7557   25.5001 C   0  0  0  0  0  0  0  0  0  0  0  0
   10.1635  -15.1983   24.4207 C   0  0  0  0  0  0  0  0  0  0  0  0
   10.0559  -14.8597   25.6306 O   0  0  0  0  0  0  0  0  0  0  0  0
   11.2073  -16.0739   24.0615 N   0  0  0  0  0  0  0  0  0  0  0  0
   11.1446  -17.5422   24.4508 C   0  0  1  0  0  0  0  0  0  0  0  0
   10.6620  -18.2697   23.2781 C   0  0  0  0  0  0  0  0  0  0  0  0
   10.4720  -19.7161   23.2017 C   0  0  0  0  0  0  0  0  0  0  0  0
    9.9834  -20.3299   21.9374 C   0  0  0  0  0  0  0  0  0  0  0  0
    9.8459  -21.8299   22.1821 C   0  0  0  0  0  0  0  0  0  0  0  0
    8.6325  -22.2554   21.5189 N   0  0  0  0  0  0  0  0  0  0  0  0
   12.4000  -17.8647   25.1047 C   0  0  0  0  0  0  0  0  0  0  0  0
   12.4320  -18.7807   26.0295 O   0  0  0  0  0  0  0  0  0  0  0  0
   13.6439  -17.3225   24.8778 O   0  0  0  0  0  0  0  0  0  0  0  0
  2  1  1  1
  2  3  1  0
  4  3  1  0
  4  5  1  0
  5  6  1  0
  6  7  1  0
  8  2  1  0
  9  8  2  0
 10  8  1  0
 11 12  1  1
 11 10  1  0
 12 13  1  0
 13 14  2  0
 14 15  1  0
 16 15  1  0
 17 16  2  0
 18 17  1  0
 19 20  1  0
 19 18  2  0
 20 21  2  0
 21 13  1  0
 21 16  1  0
 22 11  1  0
 23 22  2  0
 24 22  1  0
 25 31  1  0
 25 24  1  0
 25 26  1  6
 27 26  1  0
 27 28  1  0
 29 28  1  0
 29 30  1  0
 31 33  1  0
 32 31  2  0
M  END
$$$$
