KWK.pdb
     RDKit          3D

 33 34  0  0  1  0  0  0  0  0999 V2000
    7.1022  -16.6531   21.1828 N   0  0  0  0  0  0  0  0  0  0  0  0
    8.3212  -15.9023   20.9596 C   0  0  1  0  0  0  0  0  0  0  0  0
    7.9445  -14.5041   20.5632 C   0  0  0  0  0  0  0  0  0  0  0  0
    7.4295  -14.3311   19.1853 C   0  0  0  0  0  0  0  0  0  0  0  0
    8.1076  -13.3235   18.3271 C   0  0  0  0  0  0  0  0  0  0  0  0
    7.3008  -13.2792   17.0117 C   0  0  0  0  0  0  0  0  0  0  0  0
    8.0287  -12.3492   16.1406 N   0  0  0  0  0  0  0  0  0  0  0  0
    9.0658  -15.7995   22.2561 C   0  0  0  0  0  0  0  0  0  0  0  0
   10.1360  -15.1163   22.3054 O   0  0  0  0  0  0  0  0  0  0  0  0
    8.6507  -16.4216   23.4458 N   0  0  0  0  0  0  0  0  0  0  0  0
    9.4392  -16.3289   24.6873 C   0  0  1  0  0  0  0  0  0  0  0  0
    8.4367  -16.3173   25.8011 C   0  0  0  0  0  0  0  0  0  0  0  0
    7.4580  -15.2375   25.7587 C   0  0  0  0  0  0  0  0  0  0  0  0
    6.1264  -15.3844   25.4442 C   0  0  0  0  0  0  0  0  0  0  0  0
    5.5462  -14.1871   25.5088 N   0  0  0  0  0  0  0  0  0  0  0  0
    6.4492  -13.2494   25.8562 C   0  0  0  0  0  0  0  0  0  0  0  0
    6.3443  -11.8790   26.0509 C   0  0  0  0  0  0  0  0  0  0  0  0
    7.4557  -11.1387   26.4100 C   0  0  0  0  0  0  0  0  0  0  0  0
    8.6546  -11.8198   26.5631 C   0  0  0  0  0  0  0  0  0  0  0  0
    8.7855  -13.1704   26.3774 C   0  0  0  0  0  0  0  0  0  0  0  0
    7.6610  -13.9011   26.0168 C   0  0  0  0  0  0  0  0  0  0  0  0
   10.2840  -17.5807   24.7401 C   0  0  0  0  0  0  0  0  0  0  0  0
    9.8291  -18.6750   24.3089 O   0  0  0  0  0  0  0  0  0  0  0  0
   11.5910  -17.5605   25.2660 N   0  0  0  0  0  0  0  0  0  0  0  0
   12.4222  -18.8330   25.3033 C   0  0  1  0  0  0  0  0  0  0  0  0
   13.5756  -18.6095   24.4332 C   0  0  0  0  0  0  0  0  0  0  0  0
   14.6623  -19.5603   24.2118 C   0  0  0  0  0  0  0  0  0  0  0  0
   15.8324  -19.1629   23.3831 C   0  0  0  0  0  0  0  0  0  0  0  0
   16.6946  -20.4065   23.1853 C   0  0  0  0  0  0  0  0  0  0  0  0
   17.7738  -20.0339   22.2967 N   0  0  0  0  0  0  0  0  0  0  0  0
   12.5610  -19.2117   26.6979 C   0  0  0  0  0  0  0  0  0  0  0  0
   12.9976  -20.3991   27.0062 O   0  0  0  0  0  0  0  0  0  0  0  0
   12.2928  -18.4582   27.8172 O   0  0  0  0  0  0  0  0  0  0  0  0
  2  1  1  1
  2  3  1  0
  4  3  1  0
  4  5  1  0
  5  6  1  0
  6  7  1  0
  8  2  1  0
  9  8  2  0
 10  8  1  0
 11 12  1  1
 11 10  1  0
 12 13  1  0
 13 14  2  0
 14 15  1  0
 16 15  1  0
 17 16  2  0
 18 17  1  0
 19 20  1  0
 19 18  2  0
 20 21  2  0
 21 13  1  0
 21 16  1  0
 22 11  1  0
 23 22  2  0
 24 22  1  0
 25 31  1  0
 25 24  1  0
 25 26  1  1
 27 26  1  0
 27 28  1  0
 29 28  1  0
 29 30  1  0
 31 33  1  0
 32 31  2  0
M  END
$$$$
