KWK.pdb
     RDKit          3D

 33 34  0  0  1  0  0  0  0  0999 V2000
    8.8488  -16.6662   18.9353 N   0  0  0  0  0  0  0  0  0  0  0  0
    9.6101  -15.4477   19.1227 C   0  0  1  0  0  0  0  0  0  0  0  0
    8.9404  -14.3523   18.3443 C   0  0  0  0  0  0  0  0  0  0  0  0
    8.4242  -14.7221   17.0062 C   0  0  0  0  0  0  0  0  0  0  0  0
    7.6853  -13.6768   16.2494 C   0  0  0  0  0  0  0  0  0  0  0  0
    7.1249  -14.3816   14.9954 C   0  0  0  0  0  0  0  0  0  0  0  0
    6.3312  -13.3624   14.2991 N   0  0  0  0  0  0  0  0  0  0  0  0
    9.5420  -15.0566   20.5677 C   0  0  0  0  0  0  0  0  0  0  0  0
   10.2030  -14.0489   20.9704 O   0  0  0  0  0  0  0  0  0  0  0  0
    8.7800  -15.7446   21.5273 N   0  0  0  0  0  0  0  0  0  0  0  0
    8.8075  -15.3737   22.9532 C   0  0  1  0  0  0  0  0  0  0  0  0
    7.3744  -15.1830   23.3474 C   0  0  0  0  0  0  0  0  0  0  0  0
    7.1346  -14.9588   24.7680 C   0  0  0  0  0  0  0  0  0  0  0  0
    6.6970  -15.9114   25.6595 C   0  0  0  0  0  0  0  0  0  0  0  0
    6.5942  -15.3449   26.8607 N   0  0  0  0  0  0  0  0  0  0  0  0
    6.9497  -14.0469   26.7962 C   0  0  0  0  0  0  0  0  0  0  0  0
    7.0102  -13.0466   27.7567 C   0  0  0  0  0  0  0  0  0  0  0  0
    7.4164  -11.7709   27.4103 C   0  0  0  0  0  0  0  0  0  0  0  0
    7.7537  -11.5463   26.0835 C   0  0  0  0  0  0  0  0  0  0  0  0
    7.7030  -12.5148   25.1164 C   0  0  0  0  0  0  0  0  0  0  0  0
    7.2931  -13.7912   25.4787 C   0  0  0  0  0  0  0  0  0  0  0  0
    9.4106  -16.5532   23.6802 C   0  0  0  0  0  0  0  0  0  0  0  0
    9.0432  -17.7275   23.4038 O   0  0  0  0  0  0  0  0  0  0  0  0
   10.3912  -16.3762   24.6762 N   0  0  0  0  0  0  0  0  0  0  0  0
   10.9571  -17.5772   25.4171 C   0  0  1  0  0  0  0  0  0  0  0  0
   12.3778  -17.6503   25.0801 C   0  0  0  0  0  0  0  0  0  0  0  0
   13.3029  -18.6814   25.5437 C   0  0  0  0  0  0  0  0  0  0  0  0
   14.6969  -18.7090   25.0241 C   0  0  0  0  0  0  0  0  0  0  0  0
   15.4505  -19.7876   25.7972 C   0  0  0  0  0  0  0  0  0  0  0  0
   16.8079  -19.7938   25.2968 N   0  0  0  0  0  0  0  0  0  0  0  0
   10.4855  -17.4944   26.7877 C   0  0  0  0  0  0  0  0  0  0  0  0
    9.9594  -16.3869   27.2259 O   0  0  0  0  0  0  0  0  0  0  0  0
   10.5021  -18.4716   27.7560 O   0  0  0  0  0  0  0  0  0  0  0  0
  2  1  1  1
  2  3  1  0
  4  3  1  0
  4  5  1  0
  5  6  1  0
  6  7  1  0
  8  2  1  0
  9  8  2  0
 10  8  1  0
 11 12  1  1
 11 10  1  0
 12 13  1  0
 13 14  2  0
 14 15  1  0
 16 15  1  0
 17 16  2  0
 18 17  1  0
 19 20  1  0
 19 18  2  0
 20 21  2  0
 21 13  1  0
 21 16  1  0
 22 11  1  0
 23 22  2  0
 24 22  1  0
 25 31  1  0
 25 24  1  0
 25 26  1  1
 27 26  1  0
 27 28  1  0
 29 28  1  0
 29 30  1  0
 31 33  1  0
 32 31  2  0
M  END
$$$$
