HHW.pdb
     RDKit          3D

 35 38  0  0  1  0  0  0  0  0999 V2000
    8.2069  -18.4459   19.4656 N   0  0  0  0  0  0  0  0  0  0  0  0
    9.6271  -18.5652   19.4151 C   0  0  1  0  0  0  0  0  0  0  0  0
   10.1993  -18.6130   18.0229 C   0  0  0  0  0  0  0  0  0  0  0  0
    9.4216  -19.5013   17.1237 C   0  0  0  0  0  0  0  0  0  0  0  0
    8.3487  -20.2924   17.4866 C   0  0  0  0  0  0  0  0  0  0  0  0
    7.9384  -20.9311   16.3783 N   0  0  0  0  0  0  0  0  0  0  0  0
    8.7228  -20.5579   15.3513 C   0  0  0  0  0  0  0  0  0  0  0  0
    9.6298  -19.6821   15.8130 N   0  0  0  0  0  0  0  0  0  0  0  0
   10.3031  -17.4138   20.1386 C   0  0  0  0  0  0  0  0  0  0  0  0
   11.5356  -17.3043   20.0461 O   0  0  0  0  0  0  0  0  0  0  0  0
    9.5767  -16.4920   20.8931 N   0  0  0  0  0  0  0  0  0  0  0  0
    9.9360  -15.3418   21.6138 C   0  0  1  0  0  0  0  0  0  0  0  0
    9.2552  -14.0472   21.3717 C   0  0  0  0  0  0  0  0  0  0  0  0
    8.6117  -13.8416   20.0846 C   0  0  0  0  0  0  0  0  0  0  0  0
    7.3722  -13.3874   19.6853 C   0  0  0  0  0  0  0  0  0  0  0  0
    7.3073  -13.5016   18.3495 N   0  0  0  0  0  0  0  0  0  0  0  0
    8.4578  -14.0111   17.8850 C   0  0  0  0  0  0  0  0  0  0  0  0
    9.2429  -14.2160   18.9283 N   0  0  0  0  0  0  0  0  0  0  0  0
   10.2301  -15.4910   23.0381 C   0  0  0  0  0  0  0  0  0  0  0  0
   10.9608  -14.6309   23.6484 O   0  0  0  0  0  0  0  0  0  0  0  0
    9.7690  -16.5451   23.8705 N   0  0  0  0  0  0  0  0  0  0  0  0
   10.2076  -16.7291   25.2556 C   0  0  1  0  0  0  0  0  0  0  0  0
    9.9923  -15.5080   26.0592 C   0  0  0  0  0  0  0  0  0  0  0  0
    8.5756  -15.1611   26.2097 C   0  0  0  0  0  0  0  0  0  0  0  0
    7.4773  -16.0101   26.0093 C   0  0  0  0  0  0  0  0  0  0  0  0
    6.3328  -15.3326   26.1981 N   0  0  0  0  0  0  0  0  0  0  0  0
    6.6117  -14.0534   26.5209 C   0  0  0  0  0  0  0  0  0  0  0  0
    5.7573  -12.9947   26.8217 C   0  0  0  0  0  0  0  0  0  0  0  0
    6.3536  -11.7932   27.1410 C   0  0  0  0  0  0  0  0  0  0  0  0
    7.7197  -11.6477   27.1615 C   0  0  0  0  0  0  0  0  0  0  0  0
    8.5318  -12.7086   26.8595 C   0  0  0  0  0  0  0  0  0  0  0  0
    7.9877  -13.9385   26.5309 C   0  0  0  0  0  0  0  0  0  0  0  0
    9.6802  -17.9403   25.8721 C   0  0  0  0  0  0  0  0  0  0  0  0
    8.8320  -18.6441   25.2773 O   0  0  0  0  0  0  0  0  0  0  0  0
   10.0632  -18.4078   27.1424 O   0  0  0  0  0  0  0  0  0  0  0  0
  2  1  1  6
  2  3  1  0
  4  5  2  0
  4  3  1  0
  6  5  1  0
  7  8  2  0
  7  6  1  0
  8  4  1  0
  9  2  1  0
 10  9  2  0
 11  9  1  0
 12 11  1  0
 12 13  1  1
 14 13  1  0
 14 18  1  0
 15 14  2  0
 16 15  1  0
 16 17  1  0
 17 18  2  0
 19 21  1  0
 19 12  1  0
 20 19  2  0
 22 33  1  0
 22 21  1  0
 22 23  1  1
 24 23  1  0
 24 32  1  0
 25 24  2  0
 26 25  1  0
 26 27  1  0
 27 28  1  0
 27 32  2  0
 28 29  2  0
 29 30  1  0
 31 30  2  0
 32 31  1  0
 33 35  1  0
 34 33  2  0
M  END
$$$$
