HHW.pdb
     RDKit          3D

 35 38  0  0  1  0  0  0  0  0999 V2000
   12.8252  -17.8215   20.1983 N   0  0  0  0  0  0  0  0  0  0  0  0
   11.9381  -16.7190   20.0206 C   0  0  1  0  0  0  0  0  0  0  0  0
   11.3351  -16.6201   18.6442 C   0  0  0  0  0  0  0  0  0  0  0  0
   12.3537  -16.7435   17.5720 C   0  0  0  0  0  0  0  0  0  0  0  0
   13.4314  -15.9031   17.3699 C   0  0  0  0  0  0  0  0  0  0  0  0
   14.0981  -16.3687   16.3006 N   0  0  0  0  0  0  0  0  0  0  0  0
   13.4655  -17.4639   15.8425 C   0  0  0  0  0  0  0  0  0  0  0  0
   12.3976  -17.6892   16.6246 N   0  0  0  0  0  0  0  0  0  0  0  0
   10.7885  -16.7712   21.0113 C   0  0  0  0  0  0  0  0  0  0  0  0
    9.8894  -15.9217   20.9135 O   0  0  0  0  0  0  0  0  0  0  0  0
   10.7250  -17.7401   22.0133 N   0  0  0  0  0  0  0  0  0  0  0  0
    9.8015  -18.0076   23.0366 C   0  0  1  0  0  0  0  0  0  0  0  0
    9.1362  -19.3287   23.1364 C   0  0  0  0  0  0  0  0  0  0  0  0
    8.3565  -19.7908   22.0000 C   0  0  0  0  0  0  0  0  0  0  0  0
    7.9574  -19.2248   20.8073 C   0  0  0  0  0  0  0  0  0  0  0  0
    7.1639  -20.1086   20.1821 N   0  0  0  0  0  0  0  0  0  0  0  0
    7.0435  -21.2143   20.9318 C   0  0  0  0  0  0  0  0  0  0  0  0
    7.7607  -21.0237   22.0257 N   0  0  0  0  0  0  0  0  0  0  0  0
   10.0951  -17.4957   24.3741 C   0  0  0  0  0  0  0  0  0  0  0  0
   11.3017  -17.2358   24.7245 O   0  0  0  0  0  0  0  0  0  0  0  0
    9.1355  -17.2385   25.3888 N   0  0  0  0  0  0  0  0  0  0  0  0
    9.4876  -16.7726   26.7319 C   0  0  1  0  0  0  0  0  0  0  0  0
    8.3191  -16.1975   27.4298 C   0  0  0  0  0  0  0  0  0  0  0  0
    7.4460  -15.4201   26.5448 C   0  0  0  0  0  0  0  0  0  0  0  0
    6.4016  -15.9143   25.7498 C   0  0  0  0  0  0  0  0  0  0  0  0
    5.8520  -14.9147   25.0402 N   0  0  0  0  0  0  0  0  0  0  0  0
    6.4835  -13.7575   25.3239 C   0  0  0  0  0  0  0  0  0  0  0  0
    6.2535  -12.4676   24.8502 C   0  0  0  0  0  0  0  0  0  0  0  0
    7.0638  -11.4724   25.3543 C   0  0  0  0  0  0  0  0  0  0  0  0
    8.0472  -11.7392   26.2760 C   0  0  0  0  0  0  0  0  0  0  0  0
    8.2482  -13.0192   26.7205 C   0  0  0  0  0  0  0  0  0  0  0  0
    7.4646  -14.0580   26.2480 C   0  0  0  0  0  0  0  0  0  0  0  0
   10.2117  -17.7655   27.5160 C   0  0  0  0  0  0  0  0  0  0  0  0
   10.2562  -18.9622   27.1495 O   0  0  0  0  0  0  0  0  0  0  0  0
   10.8990  -17.4775   28.7092 O   0  0  0  0  0  0  0  0  0  0  0  0
  2  1  1  6
  2  3  1  0
  4  5  2  0
  4  3  1  0
  6  5  1  0
  7  8  2  0
  7  6  1  0
  8  4  1  0
  9  2  1  0
 10  9  2  0
 11  9  1  0
 12 11  1  0
 12 13  1  1
 14 13  1  0
 14 18  1  0
 15 14  2  0
 16 15  1  0
 16 17  1  0
 17 18  2  0
 19 21  1  0
 19 12  1  0
 20 19  2  0
 22 33  1  0
 22 21  1  0
 22 23  1  1
 24 23  1  0
 24 32  1  0
 25 24  2  0
 26 25  1  0
 26 27  1  0
 27 28  1  0
 27 32  2  0
 28 29  2  0
 29 30  1  0
 31 30  2  0
 32 31  1  0
 33 35  1  0
 34 33  2  0
M  END
$$$$
