HHW.pdb
     RDKit          3D

 35 38  0  0  1  0  0  0  0  0999 V2000
    9.0659  -17.2820   17.6278 N   0  0  0  0  0  0  0  0  0  0  0  0
    9.1256  -16.3320   18.6898 C   0  0  1  0  0  0  0  0  0  0  0  0
    8.0975  -15.2351   18.6032 C   0  0  0  0  0  0  0  0  0  0  0  0
    8.2432  -14.4217   17.3705 C   0  0  0  0  0  0  0  0  0  0  0  0
    9.1403  -14.6483   16.3447 C   0  0  0  0  0  0  0  0  0  0  0  0
    8.9407  -13.6869   15.4280 N   0  0  0  0  0  0  0  0  0  0  0  0
    7.9532  -12.8809   15.8578 C   0  0  0  0  0  0  0  0  0  0  0  0
    7.5294  -13.3352   17.0481 N   0  0  0  0  0  0  0  0  0  0  0  0
    8.9522  -17.0037   20.0407 C   0  0  0  0  0  0  0  0  0  0  0  0
    7.7995  -17.2222   20.4446 O   0  0  0  0  0  0  0  0  0  0  0  0
   10.0463  -17.3734   20.8236 N   0  0  0  0  0  0  0  0  0  0  0  0
   10.1669  -17.9836   22.0824 C   0  0  1  0  0  0  0  0  0  0  0  0
   10.7238  -19.3511   22.2162 C   0  0  0  0  0  0  0  0  0  0  0  0
   10.1787  -20.3989   21.3688 C   0  0  0  0  0  0  0  0  0  0  0  0
    8.9143  -20.9038   21.1485 C   0  0  0  0  0  0  0  0  0  0  0  0
    9.0320  -21.9460   20.3108 N   0  0  0  0  0  0  0  0  0  0  0  0
   10.3226  -22.1225   19.9906 C   0  0  0  0  0  0  0  0  0  0  0  0
   11.0129  -21.1921   20.6269 N   0  0  0  0  0  0  0  0  0  0  0  0
   10.6047  -17.1557   23.2049 C   0  0  0  0  0  0  0  0  0  0  0  0
   11.7358  -16.5511   23.1694 O   0  0  0  0  0  0  0  0  0  0  0  0
    9.8731  -16.9329   24.4014 N   0  0  0  0  0  0  0  0  0  0  0  0
   10.3738  -16.1219   25.5134 C   0  0  1  0  0  0  0  0  0  0  0  0
    9.9349  -14.7156   25.3993 C   0  0  0  0  0  0  0  0  0  0  0  0
    8.4895  -14.5479   25.5795 C   0  0  0  0  0  0  0  0  0  0  0  0
    7.5102  -15.5477   25.4877 C   0  0  0  0  0  0  0  0  0  0  0  0
    6.2908  -15.0143   25.6703 N   0  0  0  0  0  0  0  0  0  0  0  0
    6.4043  -13.6878   25.8841 C   0  0  0  0  0  0  0  0  0  0  0  0
    5.4242  -12.7305   26.1379 C   0  0  0  0  0  0  0  0  0  0  0  0
    5.8624  -11.4391   26.3416 C   0  0  0  0  0  0  0  0  0  0  0  0
    7.1964  -11.1133   26.2966 C   0  0  0  0  0  0  0  0  0  0  0  0
    8.1348  -12.0785   26.0435 C   0  0  0  0  0  0  0  0  0  0  0  0
    7.7519  -13.3918   25.8306 C   0  0  0  0  0  0  0  0  0  0  0  0
   10.1184  -16.7141   26.8207 C   0  0  0  0  0  0  0  0  0  0  0  0
    9.3445  -17.6915   26.9405 O   0  0  0  0  0  0  0  0  0  0  0  0
   10.6972  -16.2569   28.0186 O   0  0  0  0  0  0  0  0  0  0  0  0
  2  1  1  6
  2  3  1  0
  4  5  2  0
  4  3  1  0
  6  5  1  0
  7  8  2  0
  7  6  1  0
  8  4  1  0
  9  2  1  0
 10  9  2  0
 11  9  1  0
 12 11  1  0
 12 13  1  6
 14 13  1  0
 14 18  1  0
 15 14  2  0
 16 15  1  0
 16 17  1  0
 17 18  2  0
 19 21  1  0
 19 12  1  0
 20 19  2  0
 22 33  1  0
 22 21  1  0
 22 23  1  1
 24 23  1  0
 24 32  1  0
 25 24  2  0
 26 25  1  0
 26 27  1  0
 27 28  1  0
 27 32  2  0
 28 29  2  0
 29 30  1  0
 31 30  2  0
 32 31  1  0
 33 35  1  0
 34 33  2  0
M  END
$$$$
