HHW.pdb
     RDKit          3D

 35 38  0  0  1  0  0  0  0  0999 V2000
   11.1954  -18.8240   19.2853 N   0  0  0  0  0  0  0  0  0  0  0  0
   10.1485  -18.5584   20.2166 C   0  0  1  0  0  0  0  0  0  0  0  0
    9.9173  -19.6542   21.2233 C   0  0  0  0  0  0  0  0  0  0  0  0
    9.3795  -20.8888   20.5997 C   0  0  0  0  0  0  0  0  0  0  0  0
    9.0427  -21.0510   19.2698 C   0  0  0  0  0  0  0  0  0  0  0  0
    8.6003  -22.3114   19.1270 N   0  0  0  0  0  0  0  0  0  0  0  0
    8.6550  -22.9247   20.3230 C   0  0  0  0  0  0  0  0  0  0  0  0
    9.1329  -22.0491   21.2217 N   0  0  0  0  0  0  0  0  0  0  0  0
   10.4142  -17.2823   20.9956 C   0  0  0  0  0  0  0  0  0  0  0  0
   11.5098  -17.1587   21.5650 O   0  0  0  0  0  0  0  0  0  0  0  0
    9.4655  -16.2629   21.0822 N   0  0  0  0  0  0  0  0  0  0  0  0
    9.4042  -15.0644   21.8111 C   0  0  1  0  0  0  0  0  0  0  0  0
    8.3943  -14.0277   21.4895 C   0  0  0  0  0  0  0  0  0  0  0  0
    8.1372  -13.7325   20.0896 C   0  0  0  0  0  0  0  0  0  0  0  0
    8.4731  -12.6972   19.2426 C   0  0  0  0  0  0  0  0  0  0  0  0
    7.8716  -12.9232   18.0642 N   0  0  0  0  0  0  0  0  0  0  0  0
    7.1664  -14.0623   18.1300 C   0  0  0  0  0  0  0  0  0  0  0  0
    7.3258  -14.5496   19.3483 N   0  0  0  0  0  0  0  0  0  0  0  0
    9.6045  -15.1325   23.2576 C   0  0  0  0  0  0  0  0  0  0  0  0
    9.9058  -14.0797   23.9263 O   0  0  0  0  0  0  0  0  0  0  0  0
    9.4959  -16.3046   24.0520 N   0  0  0  0  0  0  0  0  0  0  0  0
    9.8252  -16.3450   25.4785 C   0  0  1  0  0  0  0  0  0  0  0  0
    8.6272  -16.6018   26.3043 C   0  0  0  0  0  0  0  0  0  0  0  0
    7.5232  -15.6803   26.0181 C   0  0  0  0  0  0  0  0  0  0  0  0
    6.3163  -15.9900   25.3743 C   0  0  0  0  0  0  0  0  0  0  0  0
    5.5648  -14.8834   25.2503 N   0  0  0  0  0  0  0  0  0  0  0  0
    6.2157  -13.8315   25.7872 C   0  0  0  0  0  0  0  0  0  0  0  0
    5.8273  -12.4987   25.9061 C   0  0  0  0  0  0  0  0  0  0  0  0
    6.7151  -11.6520   26.5355 C   0  0  0  0  0  0  0  0  0  0  0  0
    7.9202  -12.0997   27.0203 C   0  0  0  0  0  0  0  0  0  0  0  0
    8.2724  -13.4166   26.8861 C   0  0  0  0  0  0  0  0  0  0  0  0
    7.4202  -14.3114   26.2620 C   0  0  0  0  0  0  0  0  0  0  0  0
   10.9509  -17.2184   25.7866 C   0  0  0  0  0  0  0  0  0  0  0  0
   11.3981  -17.2988   26.9537 O   0  0  0  0  0  0  0  0  0  0  0  0
   11.6099  -18.0184   24.8353 O   0  0  0  0  0  0  0  0  0  0  0  0
  2  1  1  1
  2  3  1  0
  4  5  2  0
  4  3  1  0
  6  5  1  0
  7  8  2  0
  7  6  1  0
  8  4  1  0
  9  2  1  0
 10  9  2  0
 11  9  1  0
 12 11  1  0
 12 13  1  1
 14 13  1  0
 14 18  1  0
 15 14  2  0
 16 15  1  0
 16 17  1  0
 17 18  2  0
 19 21  1  0
 19 12  1  0
 20 19  2  0
 22 33  1  0
 22 21  1  0
 22 23  1  1
 24 23  1  0
 24 32  1  0
 25 24  2  0
 26 25  1  0
 26 27  1  0
 27 28  1  0
 27 32  2  0
 28 29  2  0
 29 30  1  0
 31 30  2  0
 32 31  1  0
 33 35  1  0
 34 33  2  0
M  END
$$$$
