HHW.pdb
     RDKit          3D

 35 38  0  0  1  0  0  0  0  0999 V2000
    7.8550  -17.1027   18.4636 N   0  0  0  0  0  0  0  0  0  0  0  0
    9.0142  -16.4205   18.9379 C   0  0  1  0  0  0  0  0  0  0  0  0
    8.9092  -14.9186   18.9078 C   0  0  0  0  0  0  0  0  0  0  0  0
    8.5521  -14.4050   17.5620 C   0  0  0  0  0  0  0  0  0  0  0  0
    7.5023  -13.5577   17.2642 C   0  0  0  0  0  0  0  0  0  0  0  0
    7.5355  -13.3412   15.9388 N   0  0  0  0  0  0  0  0  0  0  0  0
    8.5687  -14.0263   15.4167 C   0  0  0  0  0  0  0  0  0  0  0  0
    9.1881  -14.6763   16.4150 N   0  0  0  0  0  0  0  0  0  0  0  0
    9.3425  -16.8188   20.3660 C   0  0  0  0  0  0  0  0  0  0  0  0
    8.4033  -16.9964   21.1573 O   0  0  0  0  0  0  0  0  0  0  0  0
   10.6585  -16.9857   20.7985 N   0  0  0  0  0  0  0  0  0  0  0  0
   11.2279  -17.3674   22.0239 C   0  0  1  0  0  0  0  0  0  0  0  0
   12.4642  -18.1846   22.0680 C   0  0  0  0  0  0  0  0  0  0  0  0
   12.5379  -19.3621   21.2188 C   0  0  0  0  0  0  0  0  0  0  0  0
   12.8698  -19.5822   19.8984 C   0  0  0  0  0  0  0  0  0  0  0  0
   12.6663  -20.8832   19.6386 N   0  0  0  0  0  0  0  0  0  0  0  0
   12.2179  -21.4980   20.7431 C   0  0  0  0  0  0  0  0  0  0  0  0
   12.1403  -20.5834   21.6942 N   0  0  0  0  0  0  0  0  0  0  0  0
   11.2408  -16.3861   23.1074 C   0  0  0  0  0  0  0  0  0  0  0  0
   11.4373  -15.1424   22.8610 O   0  0  0  0  0  0  0  0  0  0  0  0
   11.0482  -16.6741   24.4846 N   0  0  0  0  0  0  0  0  0  0  0  0
   10.0405  -16.0095   25.3139 C   0  0  1  0  0  0  0  0  0  0  0  0
    8.7193  -15.9931   24.6525 C   0  0  0  0  0  0  0  0  0  0  0  0
    7.6975  -15.2817   25.4268 C   0  0  0  0  0  0  0  0  0  0  0  0
    6.4863  -15.8066   25.9008 C   0  0  0  0  0  0  0  0  0  0  0  0
    5.7866  -14.8491   26.5320 N   0  0  0  0  0  0  0  0  0  0  0  0
    6.4776  -13.6915   26.5058 C   0  0  0  0  0  0  0  0  0  0  0  0
    6.1640  -12.4443   27.0420 C   0  0  0  0  0  0  0  0  0  0  0  0
    7.0993  -11.4462   26.8686 C   0  0  0  0  0  0  0  0  0  0  0  0
    8.2795  -11.6701   26.2016 C   0  0  0  0  0  0  0  0  0  0  0  0
    8.5568  -12.9082   25.6854 C   0  0  0  0  0  0  0  0  0  0  0  0
    7.6537  -13.9475   25.8291 C   0  0  0  0  0  0  0  0  0  0  0  0
   10.0061  -16.5013   26.6858 C   0  0  0  0  0  0  0  0  0  0  0  0
    9.6190  -15.7634   27.6207 O   0  0  0  0  0  0  0  0  0  0  0  0
   10.3907  -17.7999   27.0662 O   0  0  0  0  0  0  0  0  0  0  0  0
  2  1  1  1
  2  3  1  0
  4  5  2  0
  4  3  1  0
  6  5  1  0
  7  8  2  0
  7  6  1  0
  8  4  1  0
  9  2  1  0
 10  9  2  0
 11  9  1  0
 12 11  1  0
 12 13  1  6
 14 13  1  0
 14 18  1  0
 15 14  2  0
 16 15  1  0
 16 17  1  0
 17 18  2  0
 19 21  1  0
 19 12  1  0
 20 19  2  0
 22 33  1  0
 22 21  1  0
 22 23  1  6
 24 23  1  0
 24 32  1  0
 25 24  2  0
 26 25  1  0
 26 27  1  0
 27 28  1  0
 27 32  2  0
 28 29  2  0
 29 30  1  0
 31 30  2  0
 32 31  1  0
 33 35  1  0
 34 33  2  0
M  END
$$$$
