HHW.pdb
     RDKit          3D

 35 38  0  0  1  0  0  0  0  0999 V2000
-1039.8793-17076.1992-14900.3984 N   0  0  0  0  0  0  0  0  0  0  0  0
-1041.1282-17076.7969-14900.7119 C   0  0  1  0  0  0  0  0  0  0  0  0
-1041.3256-17077.1289-14902.1689 C   0  0  0  0  0  0  0  0  0  0  0  0
-1040.6156-17076.1836-14903.0635 C   0  0  0  0  0  0  0  0  0  0  0  0
-1039.6714-17076.5059-14904.0195 C   0  0  0  0  0  0  0  0  0  0  0  0
-1039.2852-17075.3711-14904.5957 N   0  0  0  0  0  0  0  0  0  0  0  0
-1039.9512-17074.3457-14904.0312 C   0  0  0  0  0  0  0  0  0  0  0  0
-1040.7612-17074.8555-14903.0820 N   0  0  0  0  0  0  0  0  0  0  0  0
-1041.3173-17078.0879-14899.9346 C   0  0  0  0  0  0  0  0  0  0  0  0
-1041.1227-17079.1699-14900.5244 O   0  0  0  0  0  0  0  0  0  0  0  0
-1041.7035-17078.0879-14898.5947 N   0  0  0  0  0  0  0  0  0  0  0  0
-1042.4960-17077.2285-14897.8213 C   0  0  1  0  0  0  0  0  0  0  0  0
-1042.3768-17077.2090-14896.3418 C   0  0  0  0  0  0  0  0  0  0  0  0
-1043.4667-17076.6387-14895.5723 C   0  0  0  0  0  0  0  0  0  0  0  0
-1043.9811-17076.8555-14894.3164 C   0  0  0  0  0  0  0  0  0  0  0  0
-1045.0698-17076.0703-14894.1777 N   0  0  0  0  0  0  0  0  0  0  0  0
-1045.2639-17075.3770-14895.3027 C   0  0  0  0  0  0  0  0  0  0  0  0
-1044.3042-17075.7129-14896.1475 N   0  0  0  0  0  0  0  0  0  0  0  0
-1042.7291-17075.8828-14898.3232 C   0  0  0  0  0  0  0  0  0  0  0  0
-1043.8036-17075.5938-14898.9580 O   0  0  0  0  0  0  0  0  0  0  0  0
-1041.8430-17074.7832-14898.1738 N   0  0  0  0  0  0  0  0  0  0  0  0
-1042.2950-17073.4121-14897.9980 C   0  0  1  0  0  0  0  0  0  0  0  0
-1043.4238-17073.0801-14898.8838 C   0  0  0  0  0  0  0  0  0  0  0  0
-1043.1105-17072.0176-14899.8555 C   0  0  0  0  0  0  0  0  0  0  0  0
-1043.7073-17071.8477-14901.1113 C   0  0  0  0  0  0  0  0  0  0  0  0
-1043.1385-17070.8027-14901.7471 N   0  0  0  0  0  0  0  0  0  0  0  0
-1042.1824-17070.2559-14900.9629 C   0  0  0  0  0  0  0  0  0  0  0  0
-1041.3540-17069.1621-14901.1807 C   0  0  0  0  0  0  0  0  0  0  0  0
-1040.4849-17068.8340-14900.1562 C   0  0  0  0  0  0  0  0  0  0  0  0
-1040.4399-17069.5605-14898.9863 C   0  0  0  0  0  0  0  0  0  0  0  0
-1041.2704-17070.6367-14898.8076 C   0  0  0  0  0  0  0  0  0  0  0  0
-1042.1625-17071.0137-14899.7979 C   0  0  0  0  0  0  0  0  0  0  0  0
-1042.5288-17073.0449-14896.6016 C   0  0  0  0  0  0  0  0  0  0  0  0
-1043.3499-17072.1445-14896.2949 O   0  0  0  0  0  0  0  0  0  0  0  0
-1041.8784-17073.6562-14895.5127 O   0  0  0  0  0  0  0  0  0  0  0  0
  2  1  1  6
  2  3  1  0
  4  5  2  0
  4  3  1  0
  6  5  1  0
  7  8  2  0
  7  6  1  0
  8  4  1  0
  9  2  1  0
 10  9  2  0
 11  9  1  0
 12 11  1  0
 12 13  1  1
 14 13  1  0
 14 18  1  0
 15 14  2  0
 16 15  1  0
 16 17  1  0
 17 18  2  0
 19 21  1  0
 19 12  1  0
 20 19  2  0
 22 33  1  0
 22 21  1  0
 22 23  1  6
 24 23  1  0
 24 32  1  0
 25 24  2  0
 26 25  1  0
 26 27  1  0
 27 28  1  0
 27 32  2  0
 28 29  2  0
 29 30  1  0
 31 30  2  0
 32 31  1  0
 33 35  1  0
 34 33  2  0
M  END
$$$$
