HHW.pdb
     RDKit          3D

 35 38  0  0  1  0  0  0  0  0999 V2000
    8.5093  -17.0258   18.1077 N   0  0  0  0  0  0  0  0  0  0  0  0
    8.3668  -16.3310   19.3449 C   0  0  1  0  0  0  0  0  0  0  0  0
    7.2317  -15.3419   19.3769 C   0  0  0  0  0  0  0  0  0  0  0  0
    7.4355  -14.2186   18.4288 C   0  0  0  0  0  0  0  0  0  0  0  0
    6.8771  -14.1013   17.1706 C   0  0  0  0  0  0  0  0  0  0  0  0
    7.3157  -12.9423   16.6521 N   0  0  0  0  0  0  0  0  0  0  0  0
    8.1224  -12.3475   17.5493 C   0  0  0  0  0  0  0  0  0  0  0  0
    8.1925  -13.1332   18.6358 N   0  0  0  0  0  0  0  0  0  0  0  0
    8.1535  -17.2961   20.4978 C   0  0  0  0  0  0  0  0  0  0  0  0
    7.1938  -18.0803   20.4378 O   0  0  0  0  0  0  0  0  0  0  0  0
    9.0019  -17.3173   21.6052 N   0  0  0  0  0  0  0  0  0  0  0  0
    8.9948  -18.0390   22.8096 C   0  0  1  0  0  0  0  0  0  0  0  0
    9.2165  -19.5049   22.8209 C   0  0  0  0  0  0  0  0  0  0  0  0
    8.9887  -20.2228   24.0642 C   0  0  0  0  0  0  0  0  0  0  0  0
    7.9419  -20.2980   24.9590 C   0  0  0  0  0  0  0  0  0  0  0  0
    8.3398  -21.0621   25.9883 N   0  0  0  0  0  0  0  0  0  0  0  0
    9.5991  -21.4751   25.7818 C   0  0  0  0  0  0  0  0  0  0  0  0
    9.9901  -20.9704   24.6244 N   0  0  0  0  0  0  0  0  0  0  0  0
    9.6322  -17.4300   23.9759 C   0  0  0  0  0  0  0  0  0  0  0  0
   10.8703  -17.0954   23.9441 O   0  0  0  0  0  0  0  0  0  0  0  0
    8.9945  -17.1510   25.2137 N   0  0  0  0  0  0  0  0  0  0  0  0
    9.6384  -16.4160   26.3046 C   0  0  1  0  0  0  0  0  0  0  0  0
    8.6429  -15.8428   27.2338 C   0  0  0  0  0  0  0  0  0  0  0  0
    7.5373  -15.1676   26.5470 C   0  0  0  0  0  0  0  0  0  0  0  0
    6.3123  -15.7357   26.1678 C   0  0  0  0  0  0  0  0  0  0  0  0
    5.5643  -14.8255   25.5221 N   0  0  0  0  0  0  0  0  0  0  0  0
    6.2350  -13.6580   25.4489 C   0  0  0  0  0  0  0  0  0  0  0  0
    5.8576  -12.4372   24.8935 C   0  0  0  0  0  0  0  0  0  0  0  0
    6.7663  -11.4054   24.9983 C   0  0  0  0  0  0  0  0  0  0  0  0
    7.9809  -11.5727   25.6184 C   0  0  0  0  0  0  0  0  0  0  0  0
    8.3218  -12.7868   26.1532 C   0  0  0  0  0  0  0  0  0  0  0  0
    7.4485  -13.8583   26.0764 C   0  0  0  0  0  0  0  0  0  0  0  0
   10.6941  -17.1728   26.9663 C   0  0  0  0  0  0  0  0  0  0  0  0
   10.8687  -18.3862   26.7102 O   0  0  0  0  0  0  0  0  0  0  0  0
   11.5772  -16.6269   27.9157 O   0  0  0  0  0  0  0  0  0  0  0  0
  2  1  1  6
  2  3  1  0
  4  5  2  0
  4  3  1  0
  6  5  1  0
  7  8  2  0
  7  6  1  0
  8  4  1  0
  9  2  1  0
 10  9  2  0
 11  9  1  0
 12 11  1  0
 12 13  1  6
 14 13  1  0
 14 18  1  0
 15 14  2  0
 16 15  1  0
 16 17  1  0
 17 18  2  0
 19 21  1  0
 19 12  1  0
 20 19  2  0
 22 33  1  0
 22 21  1  0
 22 23  1  1
 24 23  1  0
 24 32  1  0
 25 24  2  0
 26 25  1  0
 26 27  1  0
 27 28  1  0
 27 32  2  0
 28 29  2  0
 29 30  1  0
 31 30  2  0
 32 31  1  0
 33 35  1  0
 34 33  2  0
M  END
$$$$
