HHW.pdb
     RDKit          3D

 35 38  0  0  1  0  0  0  0  0999 V2000
   12.9927  -16.5855   18.3139 N   0  0  0  0  0  0  0  0  0  0  0  0
   12.8005  -17.4395   19.4398 C   0  0  1  0  0  0  0  0  0  0  0  0
   14.0495  -18.1329   19.9162 C   0  0  0  0  0  0  0  0  0  0  0  0
   14.3917  -19.3131   19.0841 C   0  0  0  0  0  0  0  0  0  0  0  0
   13.7904  -20.5555   19.1437 C   0  0  0  0  0  0  0  0  0  0  0  0
   14.3946  -21.3293   18.2268 N   0  0  0  0  0  0  0  0  0  0  0  0
   15.3437  -20.6032   17.6091 C   0  0  0  0  0  0  0  0  0  0  0  0
   15.3380  -19.3691   18.1379 N   0  0  0  0  0  0  0  0  0  0  0  0
   12.2338  -16.6736   20.6223 C   0  0  0  0  0  0  0  0  0  0  0  0
   13.0172  -16.0221   21.3304 O   0  0  0  0  0  0  0  0  0  0  0  0
   10.8714  -16.6885   20.9229 N   0  0  0  0  0  0  0  0  0  0  0  0
   10.0918  -16.0337   21.8899 C   0  0  1  0  0  0  0  0  0  0  0  0
    8.6743  -15.6918   21.6220 C   0  0  0  0  0  0  0  0  0  0  0  0
    8.3693  -14.9200   20.4286 C   0  0  0  0  0  0  0  0  0  0  0  0
    9.1285  -14.2974   19.4600 C   0  0  0  0  0  0  0  0  0  0  0  0
    8.2884  -13.6502   18.6372 N   0  0  0  0  0  0  0  0  0  0  0  0
    7.0247  -13.8377   19.0460 C   0  0  0  0  0  0  0  0  0  0  0  0
    7.0727  -14.6015   20.1237 N   0  0  0  0  0  0  0  0  0  0  0  0
   10.2512  -16.4382   23.2857 C   0  0  0  0  0  0  0  0  0  0  0  0
   10.7662  -17.5753   23.5822 O   0  0  0  0  0  0  0  0  0  0  0  0
    9.8772  -15.6657   24.4171 N   0  0  0  0  0  0  0  0  0  0  0  0
   10.1490  -16.0735   25.7972 C   0  0  1  0  0  0  0  0  0  0  0  0
    9.7370  -15.0322   26.7612 C   0  0  0  0  0  0  0  0  0  0  0  0
    8.3194  -14.6747   26.6505 C   0  0  0  0  0  0  0  0  0  0  0  0
    7.2437  -15.5549   26.4624 C   0  0  0  0  0  0  0  0  0  0  0  0
    6.0961  -14.8633   26.3651 N   0  0  0  0  0  0  0  0  0  0  0  0
    6.3511  -13.5442   26.4811 C   0  0  0  0  0  0  0  0  0  0  0  0
    5.4825  -12.4550   26.4619 C   0  0  0  0  0  0  0  0  0  0  0  0
    6.0510  -11.2104   26.6322 C   0  0  0  0  0  0  0  0  0  0  0  0
    7.4040  -11.0528   26.8116 C   0  0  0  0  0  0  0  0  0  0  0  0
    8.2309  -12.1448   26.8243 C   0  0  0  0  0  0  0  0  0  0  0  0
    7.7148  -13.4185   26.6572 C   0  0  0  0  0  0  0  0  0  0  0  0
    9.6450  -17.4036   26.1160 C   0  0  0  0  0  0  0  0  0  0  0  0
    9.9789  -17.9770   27.1783 O   0  0  0  0  0  0  0  0  0  0  0  0
    8.7717  -18.1335   25.2892 O   0  0  0  0  0  0  0  0  0  0  0  0
  2  1  1  6
  2  3  1  0
  4  5  2  0
  4  3  1  0
  6  5  1  0
  7  8  2  0
  7  6  1  0
  8  4  1  0
  9  2  1  0
 10  9  2  0
 11  9  1  0
 12 11  1  0
 12 13  1  6
 14 13  1  0
 14 18  1  0
 15 14  2  0
 16 15  1  0
 16 17  1  0
 17 18  2  0
 19 21  1  0
 19 12  1  0
 20 19  2  0
 22 33  1  0
 22 21  1  0
 22 23  1  1
 24 23  1  0
 24 32  1  0
 25 24  2  0
 26 25  1  0
 26 27  1  0
 27 28  1  0
 27 32  2  0
 28 29  2  0
 29 30  1  0
 31 30  2  0
 32 31  1  0
 33 35  1  0
 34 33  2  0
M  END
$$$$
