HHW.pdb
     RDKit          3D

 35 38  0  0  1  0  0  0  0  0999 V2000
    7.1513  -16.6987   19.0366 N   0  0  0  0  0  0  0  0  0  0  0  0
    8.1171  -16.0876   19.8896 C   0  0  1  0  0  0  0  0  0  0  0  0
    8.1101  -14.5820   19.8605 C   0  0  0  0  0  0  0  0  0  0  0  0
    8.2860  -14.0436   18.4888 C   0  0  0  0  0  0  0  0  0  0  0  0
    7.5772  -13.0007   17.9245 C   0  0  0  0  0  0  0  0  0  0  0  0
    8.0473  -12.8352   16.6770 N   0  0  0  0  0  0  0  0  0  0  0  0
    9.0184  -13.7403   16.4595 C   0  0  0  0  0  0  0  0  0  0  0  0
    9.1607  -14.4781   17.5722 N   0  0  0  0  0  0  0  0  0  0  0  0
    7.9210  -16.5091   21.3353 C   0  0  0  0  0  0  0  0  0  0  0  0
    6.8349  -16.2555   21.8792 O   0  0  0  0  0  0  0  0  0  0  0  0
    8.9223  -17.1652   22.0519 N   0  0  0  0  0  0  0  0  0  0  0  0
    8.9459  -17.8196   23.2939 C   0  0  1  0  0  0  0  0  0  0  0  0
    9.0038  -19.2989   23.3749 C   0  0  0  0  0  0  0  0  0  0  0  0
    8.9979  -19.9138   24.6921 C   0  0  0  0  0  0  0  0  0  0  0  0
    9.9331  -20.5897   25.4474 C   0  0  0  0  0  0  0  0  0  0  0  0
    9.3243  -21.0136   26.5660 N   0  0  0  0  0  0  0  0  0  0  0  0
    8.0383  -20.6329   26.5503 C   0  0  0  0  0  0  0  0  0  0  0  0
    7.8412  -19.9713   25.4231 N   0  0  0  0  0  0  0  0  0  0  0  0
    9.7514  -17.2307   24.3624 C   0  0  0  0  0  0  0  0  0  0  0  0
   11.0315  -17.2069   24.2790 O   0  0  0  0  0  0  0  0  0  0  0  0
    9.2436  -16.6469   25.5532 N   0  0  0  0  0  0  0  0  0  0  0  0
   10.0971  -16.1377   26.6289 C   0  0  1  0  0  0  0  0  0  0  0  0
    9.5338  -14.9132   27.2342 C   0  0  0  0  0  0  0  0  0  0  0  0
    8.1768  -14.6127   26.7671 C   0  0  0  0  0  0  0  0  0  0  0  0
    7.1615  -15.5384   26.4853 C   0  0  0  0  0  0  0  0  0  0  0  0
    6.0677  -14.8986   26.0392 N   0  0  0  0  0  0  0  0  0  0  0  0
    6.3009  -13.5708   26.0079 C   0  0  0  0  0  0  0  0  0  0  0  0
    5.4652  -12.5192   25.6377 C   0  0  0  0  0  0  0  0  0  0  0  0
    5.9921  -11.2489   25.7378 C   0  0  0  0  0  0  0  0  0  0  0  0
    7.2747  -11.0316   26.1798 C   0  0  0  0  0  0  0  0  0  0  0  0
    8.0710  -12.0880   26.5351 C   0  0  0  0  0  0  0  0  0  0  0  0
    7.5945  -13.3853   26.4539 C   0  0  0  0  0  0  0  0  0  0  0  0
   10.4701  -17.1574   27.6016 C   0  0  0  0  0  0  0  0  0  0  0  0
   11.2665  -16.8941   28.5316 O   0  0  0  0  0  0  0  0  0  0  0  0
    9.9862  -18.4782   27.5821 O   0  0  0  0  0  0  0  0  0  0  0  0
  2  1  1  6
  2  3  1  0
  4  5  2  0
  4  3  1  0
  6  5  1  0
  7  8  2  0
  7  6  1  0
  8  4  1  0
  9  2  1  0
 10  9  2  0
 11  9  1  0
 12 11  1  0
 12 13  1  6
 14 13  1  0
 14 18  1  0
 15 14  2  0
 16 15  1  0
 16 17  1  0
 17 18  2  0
 19 21  1  0
 19 12  1  0
 20 19  2  0
 22 33  1  0
 22 21  1  0
 22 23  1  1
 24 23  1  0
 24 32  1  0
 25 24  2  0
 26 25  1  0
 26 27  1  0
 27 28  1  0
 27 32  2  0
 28 29  2  0
 29 30  1  0
 31 30  2  0
 32 31  1  0
 33 35  1  0
 34 33  2  0
M  END
$$$$
