HHW.pdb
     RDKit          3D

 35 38  0  0  1  0  0  0  0  0999 V2000
   11.6691  -16.3334   18.8381 N   0  0  0  0  0  0  0  0  0  0  0  0
   12.0169  -16.0200   20.1853 C   0  0  1  0  0  0  0  0  0  0  0  0
   12.5313  -14.6191   20.3863 C   0  0  0  0  0  0  0  0  0  0  0  0
   13.8178  -14.3846   19.6846 C   0  0  0  0  0  0  0  0  0  0  0  0
   14.0142  -13.5579   18.5953 C   0  0  0  0  0  0  0  0  0  0  0  0
   15.3165  -13.6326   18.2746 N   0  0  0  0  0  0  0  0  0  0  0  0
   15.9226  -14.4757   19.1298 C   0  0  0  0  0  0  0  0  0  0  0  0
   15.0003  -14.9337   19.9914 N   0  0  0  0  0  0  0  0  0  0  0  0
   10.8313  -16.2006   21.1169 C   0  0  0  0  0  0  0  0  0  0  0  0
    9.8438  -15.4657   20.9605 O   0  0  0  0  0  0  0  0  0  0  0  0
   10.8314  -17.1609   22.1291 N   0  0  0  0  0  0  0  0  0  0  0  0
    9.9004  -17.5174   23.1179 C   0  0  1  0  0  0  0  0  0  0  0  0
    9.8150  -18.9107   23.6173 C   0  0  0  0  0  0  0  0  0  0  0  0
    9.9414  -19.9926   22.6547 C   0  0  0  0  0  0  0  0  0  0  0  0
    9.3424  -20.2873   21.4478 C   0  0  0  0  0  0  0  0  0  0  0  0
    9.7973  -21.4856   21.0491 N   0  0  0  0  0  0  0  0  0  0  0  0
   10.6620  -21.9633   21.9563 C   0  0  0  0  0  0  0  0  0  0  0  0
   10.7491  -21.0656   22.9226 N   0  0  0  0  0  0  0  0  0  0  0  0
    9.6772  -16.5799   24.2172 C   0  0  0  0  0  0  0  0  0  0  0  0
    8.6902  -15.7608   24.1879 O   0  0  0  0  0  0  0  0  0  0  0  0
   10.4797  -16.4690   25.3836 N   0  0  0  0  0  0  0  0  0  0  0  0
    9.9276  -16.2804   26.7269 C   0  0  1  0  0  0  0  0  0  0  0  0
    8.4620  -16.4671   26.7418 C   0  0  0  0  0  0  0  0  0  0  0  0
    7.7379  -15.3872   26.0642 C   0  0  0  0  0  0  0  0  0  0  0  0
    7.0158  -15.4833   24.8656 C   0  0  0  0  0  0  0  0  0  0  0  0
    6.5231  -14.2798   24.5285 N   0  0  0  0  0  0  0  0  0  0  0  0
    6.8824  -13.3679   25.4546 C   0  0  0  0  0  0  0  0  0  0  0  0
    6.5918  -12.0078   25.5378 C   0  0  0  0  0  0  0  0  0  0  0  0
    7.0898  -11.3373   26.6349 C   0  0  0  0  0  0  0  0  0  0  0  0
    7.8342  -11.9774   27.5961 C   0  0  0  0  0  0  0  0  0  0  0  0
    8.1031  -13.3158   27.4836 C   0  0  0  0  0  0  0  0  0  0  0  0
    7.6290  -14.0391   26.4026 C   0  0  0  0  0  0  0  0  0  0  0  0
   10.6289  -17.0440   27.7517 C   0  0  0  0  0  0  0  0  0  0  0  0
   11.4881  -17.8992   27.4371 O   0  0  0  0  0  0  0  0  0  0  0  0
   10.4104  -16.8932   29.1332 O   0  0  0  0  0  0  0  0  0  0  0  0
  2  1  1  6
  2  3  1  0
  4  5  2  0
  4  3  1  0
  6  5  1  0
  7  8  2  0
  7  6  1  0
  8  4  1  0
  9  2  1  0
 10  9  2  0
 11  9  1  0
 12 11  1  0
 12 13  1  1
 14 13  1  0
 14 18  1  0
 15 14  2  0
 16 15  1  0
 16 17  1  0
 17 18  2  0
 19 21  1  0
 19 12  1  0
 20 19  2  0
 22 33  1  0
 22 21  1  0
 22 23  1  6
 24 23  1  0
 24 32  1  0
 25 24  2  0
 26 25  1  0
 26 27  1  0
 27 28  1  0
 27 32  2  0
 28 29  2  0
 29 30  1  0
 31 30  2  0
 32 31  1  0
 33 35  1  0
 34 33  2  0
M  END
$$$$
