HHW.pdb
     RDKit          3D

 35 38  0  0  1  0  0  0  0  0999 V2000
    8.1321  -16.7656   19.0005 N   0  0  0  0  0  0  0  0  0  0  0  0
    8.6151  -15.9997   20.1023 C   0  0  1  0  0  0  0  0  0  0  0  0
    7.8919  -14.6969   20.3201 C   0  0  0  0  0  0  0  0  0  0  0  0
    8.0047  -13.7872   19.1530 C   0  0  0  0  0  0  0  0  0  0  0  0
    8.6906  -14.0441   17.9817 C   0  0  0  0  0  0  0  0  0  0  0  0
    8.5391  -12.9672   17.1930 N   0  0  0  0  0  0  0  0  0  0  0  0
    7.7848  -12.0616   17.8414 C   0  0  0  0  0  0  0  0  0  0  0  0
    7.4601  -12.5686   19.0415 N   0  0  0  0  0  0  0  0  0  0  0  0
    8.5271  -16.7840   21.3996 C   0  0  0  0  0  0  0  0  0  0  0  0
    7.4061  -16.9737   21.8967 O   0  0  0  0  0  0  0  0  0  0  0  0
    9.6640  -17.2869   22.0332 N   0  0  0  0  0  0  0  0  0  0  0  0
    9.8605  -18.0466   23.1975 C   0  0  1  0  0  0  0  0  0  0  0  0
   10.3775  -19.4342   23.1237 C   0  0  0  0  0  0  0  0  0  0  0  0
    9.7477  -20.3512   22.1881 C   0  0  0  0  0  0  0  0  0  0  0  0
    8.6203  -21.1448   22.2232 C   0  0  0  0  0  0  0  0  0  0  0  0
    8.5881  -21.8576   21.0863 N   0  0  0  0  0  0  0  0  0  0  0  0
    9.6519  -21.5473   20.3304 C   0  0  0  0  0  0  0  0  0  0  0  0
   10.3499  -20.6412   20.9928 N   0  0  0  0  0  0  0  0  0  0  0  0
   10.4133  -17.3710   24.3701 C   0  0  0  0  0  0  0  0  0  0  0  0
   11.6243  -16.9471   24.3702 O   0  0  0  0  0  0  0  0  0  0  0  0
    9.7168  -17.1164   25.5812 N   0  0  0  0  0  0  0  0  0  0  0  0
   10.3612  -16.5900   26.7864 C   0  0  1  0  0  0  0  0  0  0  0  0
   10.0055  -15.1746   27.0171 C   0  0  0  0  0  0  0  0  0  0  0  0
    8.6161  -14.8661   26.6647 C   0  0  0  0  0  0  0  0  0  0  0  0
    7.6024  -15.7868   26.3616 C   0  0  0  0  0  0  0  0  0  0  0  0
    6.4705  -15.1359   26.0452 N   0  0  0  0  0  0  0  0  0  0  0  0
    6.6763  -13.8056   26.1228 C   0  0  0  0  0  0  0  0  0  0  0  0
    5.7992  -12.7454   25.9042 C   0  0  0  0  0  0  0  0  0  0  0  0
    6.3074  -11.4770   26.0889 C   0  0  0  0  0  0  0  0  0  0  0  0
    7.6113  -11.2696   26.4690 C   0  0  0  0  0  0  0  0  0  0  0  0
    8.4484  -12.3342   26.6749 C   0  0  0  0  0  0  0  0  0  0  0  0
    7.9920  -13.6299   26.5033 C   0  0  0  0  0  0  0  0  0  0  0  0
   10.1803  -17.4408   27.9562 C   0  0  0  0  0  0  0  0  0  0  0  0
    9.3486  -18.3771   27.9443 O   0  0  0  0  0  0  0  0  0  0  0  0
   10.8976  -17.2907   29.1571 O   0  0  0  0  0  0  0  0  0  0  0  0
  2  1  1  6
  2  3  1  0
  4  5  2  0
  4  3  1  0
  6  5  1  0
  7  8  2  0
  7  6  1  0
  8  4  1  0
  9  2  1  0
 10  9  2  0
 11  9  1  0
 12 11  1  0
 12 13  1  6
 14 13  1  0
 14 18  1  0
 15 14  2  0
 16 15  1  0
 16 17  1  0
 17 18  2  0
 19 21  1  0
 19 12  1  0
 20 19  2  0
 22 33  1  0
 22 21  1  0
 22 23  1  1
 24 23  1  0
 24 32  1  0
 25 24  2  0
 26 25  1  0
 26 27  1  0
 27 28  1  0
 27 32  2  0
 28 29  2  0
 29 30  1  0
 31 30  2  0
 32 31  1  0
 33 35  1  0
 34 33  2  0
M  END
$$$$
