RLR.pdb
     RDKit          3D

 31 30  0  0  1  0  0  0  0  0999 V2000
   15.0793  -23.2846  -17.8432 N   0  0  0  0  0  0  0  0  0  0  0  0
   14.3760  -22.2400  -17.1485 C   0  0  0  0  0  0  0  0  0  0  0  0
   13.2411  -21.8437  -17.5835 N   0  0  0  0  0  0  0  0  0  0  0  0
   14.9063  -21.6306  -15.9873 N   0  0  0  0  0  0  0  0  0  0  0  0
   16.2647  -21.8226  -15.5267 C   0  0  0  0  0  0  0  0  0  0  0  0
   16.4273  -23.0748  -14.7300 C   0  0  0  0  0  0  0  0  0  0  0  0
   17.1524  -22.9292  -13.4372 C   0  0  0  0  0  0  0  0  0  0  0  0
   18.5881  -23.3808  -13.4589 C   0  0  2  0  0  0  0  0  0  0  0  0
   18.8382  -24.4876  -14.3496 N   0  0  0  0  0  0  0  0  0  0  0  0
   19.1131  -23.6284  -12.0970 C   0  0  0  0  0  0  0  0  0  0  0  0
   19.3219  -24.7840  -11.7157 O   0  0  0  0  0  0  0  0  0  0  0  0
   12.6897  -21.1212  -17.0731 C   0  0  0  0  0  0  0  0  0  0  0  0
   22.1186  -21.8649   -7.7566 C   0  0  2  0  0  0  0  0  0  0  0  0
   20.8641  -21.1137   -8.1320 C   0  0  0  0  0  0  0  0  0  0  0  0
   21.2182  -19.6233   -7.9788 C   0  0  0  0  0  0  0  0  0  0  0  0
   20.5068  -21.3778   -9.5336 C   0  0  1  0  0  0  0  0  0  0  0  0
   19.8638  -22.6628   -9.8863 N   0  0  0  0  0  0  0  0  0  0  0  0
   19.3754  -22.5685  -11.2372 C   0  0  0  0  0  0  0  0  0  0  0  0
   18.9718  -23.2834   -8.9290 O   0  0  0  0  0  0  0  0  0  0  0  0
   17.8065  -22.8304   -8.6408 N   0  0  0  0  0  0  0  0  0  0  0  0
   18.7078  -31.2825   -6.0280 C   0  0  0  0  0  0  0  0  0  0  0  0
   18.3377  -30.6021   -7.2078 N   0  0  0  0  0  0  0  0  0  0  0  0
   18.2723  -31.2535   -8.3066 N   0  0  0  0  0  0  0  0  0  0  0  0
   18.0498  -29.2256   -7.1424 C   0  0  0  0  0  0  0  0  0  0  0  0
   17.8876  -28.6024   -5.8322 C   0  0  0  0  0  0  0  0  0  0  0  0
   17.6605  -27.1333   -5.9644 C   0  0  0  0  0  0  0  0  0  0  0  0
   18.5042  -26.4813   -6.9811 C   0  0  2  0  0  0  0  0  0  0  0  0
   18.4057  -25.0187   -7.1695 N   0  0  0  0  0  0  0  0  0  0  0  0
   19.2689  -24.4652   -8.1936 C   0  0  0  0  0  0  0  0  0  0  0  0
   18.5274  -24.2441   -5.9243 O   0  0  0  0  0  0  0  0  0  0  0  0
   19.6658  -23.8041   -5.5853 O   0  0  0  0  0  0  0  0  0  0  0  0
  2  1  1  0
  2  3  2  0
  4  2  1  0
  5  4  1  0
  6  5  1  0
  7  6  1  0
  8  7  1  0
  8  9  1  6
 10  8  1  0
 10 11  2  0
 13 12  1  1
 14 13  1  0
 16 15  1  6
 15 13  1  0
 17 16  1  0
 17 10  1  0
 18 16  1  0
 19 18  2  0
 21 20  1  0
 21 22  2  0
 23 21  1  0
 24 23  1  0
 25 24  1  0
 25 26  1  0
 27 26  1  6
 27 28  1  0
 28 18  1  0
 29 31  1  0
 29 27  1  0
 30 29  2  0
M  END
$$$$
