RLR.pdb
     RDKit          3D

 31 30  0  0  1  0  0  0  0  0999 V2000
   31.2748  -24.3333  -15.9056 N   0  0  0  0  0  0  0  0  0  0  0  0
   29.9937  -24.8984  -16.2344 C   0  0  0  0  0  0  0  0  0  0  0  0
   29.8671  -26.1670  -16.3281 N   0  0  0  0  0  0  0  0  0  0  0  0
   28.8578  -24.0861  -16.4601 N   0  0  0  0  0  0  0  0  0  0  0  0
   28.8873  -22.6394  -16.4444 C   0  0  0  0  0  0  0  0  0  0  0  0
   29.6026  -22.0943  -15.2527 C   0  0  0  0  0  0  0  0  0  0  0  0
   28.7573  -21.8335  -14.0544 C   0  0  0  0  0  0  0  0  0  0  0  0
   27.5148  -21.0252  -14.3163 C   0  0  2  0  0  0  0  0  0  0  0  0
   27.7227  -19.5991  -14.2539 N   0  0  0  0  0  0  0  0  0  0  0  0
   26.3795  -21.4630  -13.4731 C   0  0  0  0  0  0  0  0  0  0  0  0
   25.9855  -22.6320  -13.5253 O   0  0  0  0  0  0  0  0  0  0  0  0
   28.9601  -26.6000  -16.6048 C   0  0  0  0  0  0  0  0  0  0  0  0
   26.3799  -19.6590   -8.5287 C   0  0  1  0  0  0  0  0  0  0  0  0
   26.2647  -20.4456   -9.8120 C   0  0  0  0  0  0  0  0  0  0  0  0
   26.4155  -21.9219   -9.4022 C   0  0  0  0  0  0  0  0  0  0  0  0
   24.9386  -20.2513  -10.4169 C   0  0  2  0  0  0  0  0  0  0  0  0
   24.6489  -20.8580  -11.7348 N   0  0  0  0  0  0  0  0  0  0  0  0
   25.7480  -20.5678  -12.6179 C   0  0  0  0  0  0  0  0  0  0  0  0
   23.3231  -20.7059  -12.2974 O   0  0  0  0  0  0  0  0  0  0  0  0
   23.0042  -19.7889  -13.1361 N   0  0  0  0  0  0  0  0  0  0  0  0
   18.8309  -26.6115  -16.4965 C   0  0  0  0  0  0  0  0  0  0  0  0
   17.8571  -25.5916  -16.4391 N   0  0  0  0  0  0  0  0  0  0  0  0
   16.7498  -25.7536  -17.0584 N   0  0  0  0  0  0  0  0  0  0  0  0
   18.1310  -24.4246  -15.7008 C   0  0  0  0  0  0  0  0  0  0  0  0
   19.4175  -24.3084  -15.0205 C   0  0  0  0  0  0  0  0  0  0  0  0
   19.5157  -23.0153  -14.2819 C   0  0  0  0  0  0  0  0  0  0  0  0
   20.7810  -22.8332  -13.5495 C   0  0  1  0  0  0  0  0  0  0  0  0
   20.9964  -21.5894  -12.7807 N   0  0  0  0  0  0  0  0  0  0  0  0
   22.2149  -21.5470  -11.9972 C   0  0  0  0  0  0  0  0  0  0  0  0
   19.8450  -21.1858  -11.9583 O   0  0  0  0  0  0  0  0  0  0  0  0
   19.8958  -21.3616  -10.7048 O   0  0  0  0  0  0  0  0  0  0  0  0
  2  1  1  0
  2  3  2  0
  4  2  1  0
  5  4  1  0
  6  5  1  0
  7  6  1  0
  8  7  1  0
  8  9  1  1
 10  8  1  0
 10 11  2  0
 13 12  1  6
 14 13  1  0
 16 15  1  1
 15 13  1  0
 17 16  1  0
 17 10  1  0
 18 16  1  0
 19 18  2  0
 21 20  1  0
 21 22  2  0
 23 21  1  0
 24 23  1  0
 25 24  1  0
 25 26  1  0
 27 26  1  6
 27 28  1  0
 28 18  1  0
 29 31  1  0
 29 27  1  0
 30 29  2  0
M  END
$$$$
