RLR.pdb
     RDKit          3D

 31 30  0  0  1  0  0  0  0  0999 V2000
   26.1779  -16.2070  -19.3098 N   0  0  0  0  0  0  0  0  0  0  0  0
   27.2579  -17.1553  -19.2542 C   0  0  0  0  0  0  0  0  0  0  0  0
   28.3869  -16.8596  -19.7758 N   0  0  0  0  0  0  0  0  0  0  0  0
   27.1083  -18.4180  -18.6344 N   0  0  0  0  0  0  0  0  0  0  0  0
   25.8410  -18.9431  -18.1737 C   0  0  0  0  0  0  0  0  0  0  0  0
   25.8202  -19.1766  -16.6991 C   0  0  0  0  0  0  0  0  0  0  0  0
   27.1527  -19.2849  -16.0427 C   0  0  0  0  0  0  0  0  0  0  0  0
   27.4641  -20.6351  -15.4548 C   0  0  2  0  0  0  0  0  0  0  0  0
   27.7340  -21.6527  -16.4410 N   0  0  0  0  0  0  0  0  0  0  0  0
   26.4410  -21.0632  -14.4741 C   0  0  0  0  0  0  0  0  0  0  0  0
   25.5456  -21.8417  -14.8150 O   0  0  0  0  0  0  0  0  0  0  0  0
   29.1564  -17.5607  -19.8306 C   0  0  0  0  0  0  0  0  0  0  0  0
   25.0646  -21.7527   -9.1492 C   0  0  2  0  0  0  0  0  0  0  0  0
   25.1607  -20.3383   -9.6680 C   0  0  0  0  0  0  0  0  0  0  0  0
   25.8350  -19.5341   -8.5416 C   0  0  0  0  0  0  0  0  0  0  0  0
   26.0114  -20.2869  -10.8662 C   0  0  1  0  0  0  0  0  0  0  0  0
   25.5157  -20.8733  -12.1309 N   0  0  0  0  0  0  0  0  0  0  0  0
   26.4772  -20.5959  -13.1657 C   0  0  0  0  0  0  0  0  0  0  0  0
   24.1246  -20.6882  -12.4885 O   0  0  0  0  0  0  0  0  0  0  0  0
   23.6155  -19.5566  -12.8147 N   0  0  0  0  0  0  0  0  0  0  0  0
   17.0712  -24.2024  -12.3703 C   0  0  0  0  0  0  0  0  0  0  0  0
   16.6430  -23.7755  -13.6456 N   0  0  0  0  0  0  0  0  0  0  0  0
   15.3938  -23.5969  -13.8544 N   0  0  0  0  0  0  0  0  0  0  0  0
   17.6027  -23.5569  -14.6520 C   0  0  0  0  0  0  0  0  0  0  0  0
   19.0123  -23.7708  -14.3383 C   0  0  0  0  0  0  0  0  0  0  0  0
   19.5950  -22.5767  -13.6585 C   0  0  0  0  0  0  0  0  0  0  0  0
   21.0464  -22.6654  -13.4217 C   0  0  1  0  0  0  0  0  0  0  0  0
   21.7504  -21.5133  -12.8205 N   0  0  0  0  0  0  0  0  0  0  0  0
   23.1531  -21.7278  -12.5260 C   0  0  0  0  0  0  0  0  0  0  0  0
   21.0655  -20.9341  -11.6541 O   0  0  0  0  0  0  0  0  0  0  0  0
   21.4604  -21.2498  -10.4926 O   0  0  0  0  0  0  0  0  0  0  0  0
  2  1  1  0
  2  3  2  0
  4  2  1  0
  5  4  1  0
  6  5  1  0
  7  6  1  0
  8  7  1  0
  8  9  1  6
 10  8  1  0
 10 11  2  0
 13 12  1  1
 14 13  1  0
 16 15  1  1
 15 13  1  0
 17 16  1  0
 17 10  1  0
 18 16  1  0
 19 18  2  0
 21 20  1  0
 21 22  2  0
 23 21  1  0
 24 23  1  0
 25 24  1  0
 25 26  1  0
 27 26  1  6
 27 28  1  0
 28 18  1  0
 29 31  1  0
 29 27  1  0
 30 29  2  0
M  END
$$$$
