RLR.pdb
     RDKit          3D

 31 30  0  0  1  0  0  0  0  0999 V2000
   28.1582  -26.9963  -16.7201 N   0  0  0  0  0  0  0  0  0  0  0  0
   27.0200  -26.7975  -17.5765 C   0  0  0  0  0  0  0  0  0  0  0  0
   26.0939  -27.6780  -17.6125 N   0  0  0  0  0  0  0  0  0  0  0  0
   26.8919  -25.6467  -18.3890 N   0  0  0  0  0  0  0  0  0  0  0  0
   27.7514  -24.4872  -18.2830 C   0  0  0  0  0  0  0  0  0  0  0  0
   27.8779  -23.9950  -16.8791 C   0  0  0  0  0  0  0  0  0  0  0  0
   26.7760  -23.1144  -16.4008 C   0  0  0  0  0  0  0  0  0  0  0  0
   27.1918  -22.0516  -15.4194 C   0  0  2  0  0  0  0  0  0  0  0  0
   28.6051  -22.0452  -15.1301 N   0  0  0  0  0  0  0  0  0  0  0  0
   26.3686  -22.0789  -14.1892 C   0  0  0  0  0  0  0  0  0  0  0  0
   26.3905  -23.0696  -13.4528 O   0  0  0  0  0  0  0  0  0  0  0  0
   25.2559  -27.5555  -18.2203 C   0  0  0  0  0  0  0  0  0  0  0  0
   26.3667  -20.2785   -9.2025 C   0  0  2  0  0  0  0  0  0  0  0  0
   25.3787  -20.9660  -10.1135 C   0  0  0  0  0  0  0  0  0  0  0  0
   24.0853  -20.1368  -10.0149 C   0  0  0  0  0  0  0  0  0  0  0  0
   25.8572  -20.9405  -11.5036 C   0  0  1  0  0  0  0  0  0  0  0  0
   24.8777  -20.7966  -12.6032 N   0  0  0  0  0  0  0  0  0  0  0  0
   25.5665  -20.9954  -13.8515 C   0  0  0  0  0  0  0  0  0  0  0  0
   23.9392  -19.6944  -12.5627 O   0  0  0  0  0  0  0  0  0  0  0  0
   24.2379  -18.4897  -12.8875 N   0  0  0  0  0  0  0  0  0  0  0  0
   21.1585  -25.9988  -16.2860 C   0  0  0  0  0  0  0  0  0  0  0  0
   20.1082  -25.1463  -16.6885 N   0  0  0  0  0  0  0  0  0  0  0  0
   19.2821  -25.5539  -17.5759 N   0  0  0  0  0  0  0  0  0  0  0  0
   19.9982  -23.8715  -16.1014 C   0  0  0  0  0  0  0  0  0  0  0  0
   20.9896  -23.4660  -15.1095 C   0  0  0  0  0  0  0  0  0  0  0  0
   20.7210  -22.0814  -14.6216 C   0  0  0  0  0  0  0  0  0  0  0  0
   21.7212  -21.5733  -13.6666 C   0  0  2  0  0  0  0  0  0  0  0  0
   21.5121  -20.2520  -13.0384 N   0  0  0  0  0  0  0  0  0  0  0  0
   22.5775  -19.8048  -12.1635 C   0  0  0  0  0  0  0  0  0  0  0  0
   20.2079  -20.1038  -12.3734 O   0  0  0  0  0  0  0  0  0  0  0  0
   20.1464  -20.2173  -11.1132 O   0  0  0  0  0  0  0  0  0  0  0  0
  2  1  1  0
  2  3  2  0
  4  2  1  0
  5  4  1  0
  6  5  1  0
  7  6  1  0
  8  7  1  0
  8  9  1  1
 10  8  1  0
 10 11  2  0
 13 12  1  1
 14 13  1  0
 16 15  1  1
 15 13  1  0
 17 16  1  0
 17 10  1  0
 18 16  1  0
 19 18  2  0
 21 20  1  0
 21 22  2  0
 23 21  1  0
 24 23  1  0
 25 24  1  0
 25 26  1  0
 27 26  1  6
 27 28  1  0
 28 18  1  0
 29 31  1  0
 29 27  1  0
 30 29  2  0
M  END
$$$$
