RLR.pdb
     RDKit          3D

 31 30  0  0  1  0  0  0  0  0999 V2000
   29.6256  -19.8266  -19.4074 N   0  0  0  0  0  0  0  0  0  0  0  0
   28.8482  -18.6206  -19.3083 C   0  0  0  0  0  0  0  0  0  0  0  0
   28.4248  -18.0516  -20.3719 N   0  0  0  0  0  0  0  0  0  0  0  0
   28.5343  -18.0381  -18.0580 N   0  0  0  0  0  0  0  0  0  0  0  0
   28.9833  -18.5676  -16.7883 C   0  0  0  0  0  0  0  0  0  0  0  0
   28.3601  -19.8853  -16.4651 C   0  0  0  0  0  0  0  0  0  0  0  0
   27.5657  -19.9335  -15.2062 C   0  0  0  0  0  0  0  0  0  0  0  0
   26.1694  -20.4754  -15.3556 C   0  0  2  0  0  0  0  0  0  0  0  0
   25.2282  -19.5228  -15.8918 N   0  0  0  0  0  0  0  0  0  0  0  0
   25.6807  -21.1033  -14.1071 C   0  0  0  0  0  0  0  0  0  0  0  0
   26.2281  -22.1206  -13.6716 O   0  0  0  0  0  0  0  0  0  0  0  0
   27.8390  -17.1906  -20.3269 C   0  0  0  0  0  0  0  0  0  0  0  0
   26.0238  -19.5168   -9.3119 C   0  0  1  0  0  0  0  0  0  0  0  0
   25.7703  -20.4904  -10.4374 C   0  0  0  0  0  0  0  0  0  0  0  0
   25.7089  -21.8776   -9.7726 C   0  0  0  0  0  0  0  0  0  0  0  0
   24.4767  -20.2103  -11.0779 C   0  0  2  0  0  0  0  0  0  0  0  0
   24.0251  -21.0634  -12.1992 N   0  0  0  0  0  0  0  0  0  0  0  0
   24.6063  -20.5573  -13.4152 C   0  0  0  0  0  0  0  0  0  0  0  0
   22.6291  -21.4419  -12.2706 O   0  0  0  0  0  0  0  0  0  0  0  0
   21.8286  -21.4111  -11.2684 N   0  0  0  0  0  0  0  0  0  0  0  0
   15.7518  -22.4995  -11.3993 C   0  0  0  0  0  0  0  0  0  0  0  0
   15.7725  -23.9030  -11.2525 N   0  0  0  0  0  0  0  0  0  0  0  0
   14.6899  -24.5621  -11.4244 N   0  0  0  0  0  0  0  0  0  0  0  0
   16.9843  -24.5388  -10.9220 C   0  0  0  0  0  0  0  0  0  0  0  0
   18.1956  -23.7311  -10.8133 C   0  0  0  0  0  0  0  0  0  0  0  0
   18.6270  -23.2331  -12.1524 C   0  0  0  0  0  0  0  0  0  0  0  0
   20.0443  -22.8368  -12.2211 C   0  0  1  0  0  0  0  0  0  0  0  0
   20.5854  -22.3127  -13.4926 N   0  0  0  0  0  0  0  0  0  0  0  0
   21.9712  -21.8904  -13.4504 C   0  0  0  0  0  0  0  0  0  0  0  0
   19.7522  -21.2721  -14.1154 O   0  0  0  0  0  0  0  0  0  0  0  0
   18.5521  -21.5458  -14.4146 O   0  0  0  0  0  0  0  0  0  0  0  0
  2  1  1  0
  2  3  2  0
  4  2  1  0
  5  4  1  0
  6  5  1  0
  7  6  1  0
  8  7  1  0
  8  9  1  1
 10  8  1  0
 10 11  2  0
 13 12  1  6
 14 13  1  0
 16 15  1  1
 15 13  1  0
 17 16  1  0
 17 10  1  0
 18 16  1  0
 19 18  2  0
 21 20  1  0
 21 22  2  0
 23 21  1  0
 24 23  1  0
 25 24  1  0
 25 26  1  0
 27 26  1  6
 27 28  1  0
 28 18  1  0
 29 31  1  0
 29 27  1  0
 30 29  2  0
M  END
$$$$
