RLR.pdb
     RDKit          3D

 31 30  0  0  1  0  0  0  0  0999 V2000
   28.2382  -22.8393  -16.4863 N   0  0  0  0  0  0  0  0  0  0  0  0
   28.3467  -21.5615  -15.8352 C   0  0  0  0  0  0  0  0  0  0  0  0
   27.4828  -20.6515  -16.0795 N   0  0  0  0  0  0  0  0  0  0  0  0
   29.3905  -21.2769  -14.9239 N   0  0  0  0  0  0  0  0  0  0  0  0
   30.4418  -22.2125  -14.5868 C   0  0  0  0  0  0  0  0  0  0  0  0
   30.8089  -22.1643  -13.1405 C   0  0  0  0  0  0  0  0  0  0  0  0
   29.6683  -22.0816  -12.1862 C   0  0  0  0  0  0  0  0  0  0  0  0
   30.0549  -21.8322  -10.7530 C   0  0  2  0  0  0  0  0  0  0  0  0
   31.0648  -22.7343  -10.2557 N   0  0  0  0  0  0  0  0  0  0  0  0
   28.8741  -21.7678   -9.8624 C   0  0  0  0  0  0  0  0  0  0  0  0
   27.9322  -22.5487  -10.0274 O   0  0  0  0  0  0  0  0  0  0  0  0
   27.5103  -19.7343  -15.5851 C   0  0  0  0  0  0  0  0  0  0  0  0
   29.0979  -19.5786   -4.7012 C   0  0  2  0  0  0  0  0  0  0  0  0
   28.2198  -20.3751   -5.6359 C   0  0  0  0  0  0  0  0  0  0  0  0
   26.8500  -20.4593   -4.9383 C   0  0  0  0  0  0  0  0  0  0  0  0
   28.0607  -19.6709   -6.9168 C   0  0  2  0  0  0  0  0  0  0  0  0
   27.6353  -20.4316   -8.1124 N   0  0  0  0  0  0  0  0  0  0  0  0
   28.8132  -20.8326   -8.8362 C   0  0  0  0  0  0  0  0  0  0  0  0
   26.5401  -19.9220   -8.9113 O   0  0  0  0  0  0  0  0  0  0  0  0
   26.6639  -18.9827   -9.7764 N   0  0  0  0  0  0  0  0  0  0  0  0
   25.0589  -23.7374  -14.9149 C   0  0  0  0  0  0  0  0  0  0  0  0
   23.6740  -23.4756  -14.8431 N   0  0  0  0  0  0  0  0  0  0  0  0
   22.8567  -24.3000  -15.3802 N   0  0  0  0  0  0  0  0  0  0  0  0
   23.2303  -22.3149  -14.1813 C   0  0  0  0  0  0  0  0  0  0  0  0
   24.2211  -21.4178  -13.5941 C   0  0  0  0  0  0  0  0  0  0  0  0
   23.6998  -20.7922  -12.3434 C   0  0  0  0  0  0  0  0  0  0  0  0
   24.6509  -20.8089  -11.2183 C   0  0  1  0  0  0  0  0  0  0  0  0
   24.2351  -20.2511   -9.9145 N   0  0  0  0  0  0  0  0  0  0  0  0
   25.1993  -20.3943   -8.8420 C   0  0  0  0  0  0  0  0  0  0  0  0
   22.9048  -20.6950   -9.4691 O   0  0  0  0  0  0  0  0  0  0  0  0
   22.8073  -21.3505   -8.3894 O   0  0  0  0  0  0  0  0  0  0  0  0
  2  1  1  0
  2  3  2  0
  4  2  1  0
  5  4  1  0
  6  5  1  0
  7  6  1  0
  8  7  1  0
  8  9  1  1
 10  8  1  0
 10 11  2  0
 13 12  1  1
 14 13  1  0
 16 15  1  1
 15 13  1  0
 17 16  1  0
 17 10  1  0
 18 16  1  0
 19 18  2  0
 21 20  1  0
 21 22  2  0
 23 21  1  0
 24 23  1  0
 25 24  1  0
 25 26  1  0
 27 26  1  6
 27 28  1  0
 28 18  1  0
 29 31  1  0
 29 27  1  0
 30 29  2  0
M  END
$$$$
