RLR.pdb
     RDKit          3D

 31 30  0  0  1  0  0  0  0  0999 V2000
   26.3728  -23.9874  -11.8816 N   0  0  0  0  0  0  0  0  0  0  0  0
   25.0664  -23.4301  -12.1083 C   0  0  0  0  0  0  0  0  0  0  0  0
   24.2243  -24.0651  -12.8306 N   0  0  0  0  0  0  0  0  0  0  0  0
   24.6802  -22.1883  -11.5515 N   0  0  0  0  0  0  0  0  0  0  0  0
   25.5876  -21.3017  -10.8554 C   0  0  0  0  0  0  0  0  0  0  0  0
   26.5323  -20.6079  -11.7803 C   0  0  0  0  0  0  0  0  0  0  0  0
   25.9819  -19.4254  -12.4993 C   0  0  0  0  0  0  0  0  0  0  0  0
   25.6809  -19.6506  -13.9569 C   0  0  2  0  0  0  0  0  0  0  0  0
   26.8214  -20.0806  -14.7284 N   0  0  0  0  0  0  0  0  0  0  0  0
   24.9967  -18.4890  -14.5687 C   0  0  0  0  0  0  0  0  0  0  0  0
   24.0319  -17.9699  -13.9996 O   0  0  0  0  0  0  0  0  0  0  0  0
   23.2700  -23.6849  -13.0077 C   0  0  0  0  0  0  0  0  0  0  0  0
   28.0985  -15.1163  -17.4223 C   0  0  1  0  0  0  0  0  0  0  0  0
   27.0619  -15.6833  -16.4826 C   0  0  0  0  0  0  0  0  0  0  0  0
   26.6330  -14.5061  -15.5879 C   0  0  0  0  0  0  0  0  0  0  0  0
   25.8927  -16.1616  -17.2350 C   0  0  2  0  0  0  0  0  0  0  0  0
   24.8244  -16.8957  -16.5217 N   0  0  0  0  0  0  0  0  0  0  0  0
   25.4307  -17.9728  -15.7838 C   0  0  0  0  0  0  0  0  0  0  0  0
   23.6045  -17.2187  -17.2323 O   0  0  0  0  0  0  0  0  0  0  0  0
   23.5585  -17.9841  -18.2610 N   0  0  0  0  0  0  0  0  0  0  0  0
   19.3916  -21.5165  -12.5464 C   0  0  0  0  0  0  0  0  0  0  0  0
   18.6663  -21.9905  -13.6604 N   0  0  0  0  0  0  0  0  0  0  0  0
   17.5807  -22.6382  -13.4657 N   0  0  0  0  0  0  0  0  0  0  0  0
   19.1572  -21.7362  -14.9551 C   0  0  0  0  0  0  0  0  0  0  0  0
   20.3690  -20.9356  -15.1034 C   0  0  0  0  0  0  0  0  0  0  0  0
   20.1019  -19.7070  -15.9074 C   0  0  0  0  0  0  0  0  0  0  0  0
   21.2768  -18.8365  -16.0877 C   0  0  1  0  0  0  0  0  0  0  0  0
   21.1259  -17.5661  -16.8277 N   0  0  0  0  0  0  0  0  0  0  0  0
   22.3121  -16.7353  -16.8833 C   0  0  0  0  0  0  0  0  0  0  0  0
   19.9606  -16.7672  -16.4165 O   0  0  0  0  0  0  0  0  0  0  0  0
   18.8157  -17.3092  -16.4156 O   0  0  0  0  0  0  0  0  0  0  0  0
  2  1  1  0
  2  3  2  0
  4  2  1  0
  5  4  1  0
  6  5  1  0
  7  6  1  0
  8  7  1  0
  8  9  1  6
 10  8  1  0
 10 11  2  0
 13 12  1  1
 14 13  1  0
 16 15  1  1
 15 13  1  0
 17 16  1  0
 17 10  1  0
 18 16  1  0
 19 18  2  0
 21 20  1  0
 21 22  2  0
 23 21  1  0
 24 23  1  0
 25 24  1  0
 25 26  1  0
 27 26  1  6
 27 28  1  0
 28 18  1  0
 29 31  1  0
 29 27  1  0
 30 29  2  0
M  END
$$$$
