RLR.pdb
     RDKit          3D

 31 30  0  0  1  0  0  0  0  0999 V2000
   28.4159  -20.3889  -16.7012 N   0  0  0  0  0  0  0  0  0  0  0  0
   28.4439  -18.9833  -17.0048 C   0  0  0  0  0  0  0  0  0  0  0  0
   28.3390  -18.5960  -18.2186 N   0  0  0  0  0  0  0  0  0  0  0  0
   28.5856  -18.0058  -15.9922 N   0  0  0  0  0  0  0  0  0  0  0  0
   28.0235  -18.1350  -14.6649 C   0  0  0  0  0  0  0  0  0  0  0  0
   26.8103  -19.0048  -14.6393 C   0  0  0  0  0  0  0  0  0  0  0  0
   26.4229  -19.5352  -13.3025 C   0  0  0  0  0  0  0  0  0  0  0  0
   27.3415  -20.5899  -12.7461 C   0  0  2  0  0  0  0  0  0  0  0  0
   27.6154  -21.6682  -13.6644 N   0  0  0  0  0  0  0  0  0  0  0  0
   26.8877  -21.0809  -11.4253 C   0  0  0  0  0  0  0  0  0  0  0  0
   26.0832  -22.0149  -11.3561 O   0  0  0  0  0  0  0  0  0  0  0  0
   28.3724  -17.5842  -18.4672 C   0  0  0  0  0  0  0  0  0  0  0  0
   27.4720  -21.0018   -5.7892 C   0  0  2  0  0  0  0  0  0  0  0  0
   27.1706  -19.7558   -6.5865 C   0  0  0  0  0  0  0  0  0  0  0  0
   27.9888  -18.6352   -5.9195 C   0  0  0  0  0  0  0  0  0  0  0  0
   27.6220  -19.9135   -7.9770 C   0  0  1  0  0  0  0  0  0  0  0  0
   26.6915  -20.4766   -8.9800 N   0  0  0  0  0  0  0  0  0  0  0  0
   27.3599  -20.4991  -10.2548 C   0  0  0  0  0  0  0  0  0  0  0  0
   25.3166  -20.0218   -8.9903 O   0  0  0  0  0  0  0  0  0  0  0  0
   24.9355  -18.9116   -9.5082 N   0  0  0  0  0  0  0  0  0  0  0  0
   23.2005  -23.1330  -14.7790 C   0  0  0  0  0  0  0  0  0  0  0  0
   22.8102  -21.7991  -14.5337 N   0  0  0  0  0  0  0  0  0  0  0  0
   22.6321  -21.0111  -15.5253 N   0  0  0  0  0  0  0  0  0  0  0  0
   22.6267  -21.3731  -13.2045 C   0  0  0  0  0  0  0  0  0  0  0  0
   21.5355  -21.9503  -12.4251 C   0  0  0  0  0  0  0  0  0  0  0  0
   21.4952  -21.3689  -11.0512 C   0  0  0  0  0  0  0  0  0  0  0  0
   22.8026  -21.3309  -10.3733 C   0  0  2  0  0  0  0  0  0  0  0  0
   22.8923  -20.7636   -9.0115 N   0  0  0  0  0  0  0  0  0  0  0  0
   24.2216  -20.7415   -8.4346 C   0  0  0  0  0  0  0  0  0  0  0  0
   21.9303  -21.3382   -8.0579 O   0  0  0  0  0  0  0  0  0  0  0  0
   20.8047  -20.7762   -7.9095 O   0  0  0  0  0  0  0  0  0  0  0  0
  2  1  1  0
  2  3  2  0
  4  2  1  0
  5  4  1  0
  6  5  1  0
  7  6  1  0
  8  7  1  0
  8  9  1  6
 10  8  1  0
 10 11  2  0
 13 12  1  1
 14 13  1  0
 16 15  1  1
 15 13  1  0
 17 16  1  0
 17 10  1  0
 18 16  1  0
 19 18  2  0
 21 20  1  0
 21 22  2  0
 23 21  1  0
 24 23  1  0
 25 24  1  0
 25 26  1  0
 27 26  1  6
 27 28  1  0
 28 18  1  0
 29 31  1  0
 29 27  1  0
 30 29  2  0
M  END
$$$$
