RLR.pdb
     RDKit          3D

 31 30  0  0  1  0  0  0  0  0999 V2000
   25.3064  -18.7058  -16.9796 N   0  0  0  0  0  0  0  0  0  0  0  0
   24.3379  -19.7204  -17.2975 C   0  0  0  0  0  0  0  0  0  0  0  0
   24.3692  -20.2884  -18.4424 N   0  0  0  0  0  0  0  0  0  0  0  0
   23.3411  -20.1134  -16.3738 N   0  0  0  0  0  0  0  0  0  0  0  0
   23.3358  -19.7216  -14.9808 C   0  0  0  0  0  0  0  0  0  0  0  0
   24.5084  -20.2605  -14.2301 C   0  0  0  0  0  0  0  0  0  0  0  0
   24.5179  -19.9910  -12.7653 C   0  0  0  0  0  0  0  0  0  0  0  0
   25.7074  -20.5413  -12.0250 C   0  0  2  0  0  0  0  0  0  0  0  0
   26.4819  -21.4894  -12.7880 N   0  0  0  0  0  0  0  0  0  0  0  0
   25.3375  -21.0652  -10.6908 C   0  0  0  0  0  0  0  0  0  0  0  0
   25.0320  -22.2539  -10.5565 O   0  0  0  0  0  0  0  0  0  0  0  0
   23.6894  -21.0383  -18.6917 C   0  0  0  0  0  0  0  0  0  0  0  0
   27.7277  -18.5654   -6.7063 C   0  0  1  0  0  0  0  0  0  0  0  0
   27.1565  -19.6797   -7.5494 C   0  0  0  0  0  0  0  0  0  0  0  0
   27.8993  -20.9523   -7.1035 C   0  0  0  0  0  0  0  0  0  0  0  0
   25.7208  -19.8453   -7.2783 C   0  0  2  0  0  0  0  0  0  0  0  0
   24.8789  -20.5689   -8.2564 N   0  0  0  0  0  0  0  0  0  0  0  0
   25.3302  -20.2293   -9.5805 C   0  0  0  0  0  0  0  0  0  0  0  0
   23.4443  -20.5936   -8.0598 O   0  0  0  0  0  0  0  0  0  0  0  0
   22.6147  -19.9182   -8.7682 N   0  0  0  0  0  0  0  0  0  0  0  0
   17.2453  -25.1780   -9.1726 C   0  0  0  0  0  0  0  0  0  0  0  0
   16.9862  -24.0697  -10.0070 N   0  0  0  0  0  0  0  0  0  0  0  0
   15.7802  -23.8195  -10.3519 N   0  0  0  0  0  0  0  0  0  0  0  0
   18.0622  -23.2694  -10.4357 C   0  0  0  0  0  0  0  0  0  0  0  0
   19.4048  -23.5786   -9.9530 C   0  0  0  0  0  0  0  0  0  0  0  0
   19.6541  -22.9439   -8.6255 C   0  0  0  0  0  0  0  0  0  0  0  0
   21.0262  -22.4378   -8.4466 C   0  0  1  0  0  0  0  0  0  0  0  0
   21.3957  -21.7928   -7.1693 N   0  0  0  0  0  0  0  0  0  0  0  0
   22.7764  -21.3641   -7.0669 C   0  0  0  0  0  0  0  0  0  0  0  0
   21.0088  -22.5610   -5.9754 O   0  0  0  0  0  0  0  0  0  0  0  0
   21.8338  -23.3878   -5.4850 O   0  0  0  0  0  0  0  0  0  0  0  0
  2  1  1  0
  2  3  2  0
  4  2  1  0
  5  4  1  0
  6  5  1  0
  7  6  1  0
  8  7  1  0
  8  9  1  6
 10  8  1  0
 10 11  2  0
 13 12  1  6
 14 13  1  0
 16 15  1  1
 15 13  1  0
 17 16  1  0
 17 10  1  0
 18 16  1  0
 19 18  2  0
 21 20  1  0
 21 22  2  0
 23 21  1  0
 24 23  1  0
 25 24  1  0
 25 26  1  0
 27 26  1  6
 27 28  1  0
 28 18  1  0
 29 31  1  0
 29 27  1  0
 30 29  2  0
M  END
$$$$
