RLR.pdb
     RDKit          3D

 31 30  0  0  1  0  0  0  0  0999 V2000
   30.5860  -25.4714  -18.4701 N   0  0  0  0  0  0  0  0  0  0  0  0
   29.5873  -25.7084  -19.4776 C   0  0  0  0  0  0  0  0  0  0  0  0
   29.7977  -26.5861  -20.3828 N   0  0  0  0  0  0  0  0  0  0  0  0
   28.3671  -24.9930  -19.4987 N   0  0  0  0  0  0  0  0  0  0  0  0
   27.8432  -24.2623  -18.3649 C   0  0  0  0  0  0  0  0  0  0  0  0
   27.5153  -25.1526  -17.2120 C   0  0  0  0  0  0  0  0  0  0  0  0
   26.5976  -24.5761  -16.1903 C   0  0  0  0  0  0  0  0  0  0  0  0
   25.5888  -23.5943  -16.7233 C   0  0  2  0  0  0  0  0  0  0  0  0
   25.9031  -23.0906  -18.0380 N   0  0  0  0  0  0  0  0  0  0  0  0
   25.3093  -22.5065  -15.7589 C   0  0  0  0  0  0  0  0  0  0  0  0
   24.8822  -22.7742  -14.6319 O   0  0  0  0  0  0  0  0  0  0  0  0
   29.0996  -26.7620  -21.1368 C   0  0  0  0  0  0  0  0  0  0  0  0
   28.4804  -18.3083  -16.7210 C   0  0  1  0  0  0  0  0  0  0  0  0
   27.6776  -19.4848  -16.2208 C   0  0  0  0  0  0  0  0  0  0  0  0
   28.5295  -20.1167  -15.1049 C   0  0  0  0  0  0  0  0  0  0  0  0
   26.4019  -19.0305  -15.6480 C   0  0  2  0  0  0  0  0  0  0  0  0
   25.3908  -20.0337  -15.2476 N   0  0  0  0  0  0  0  0  0  0  0  0
   25.5236  -21.1789  -16.1096 C   0  0  0  0  0  0  0  0  0  0  0  0
   24.0377  -19.5928  -14.9789 O   0  0  0  0  0  0  0  0  0  0  0  0
   23.7382  -18.6914  -14.1165 N   0  0  0  0  0  0  0  0  0  0  0  0
   16.4503  -23.0893  -15.2377 C   0  0  0  0  0  0  0  0  0  0  0  0
   16.2298  -22.1986  -16.3100 N   0  0  0  0  0  0  0  0  0  0  0  0
   15.2410  -22.4035  -17.0951 N   0  0  0  0  0  0  0  0  0  0  0  0
   17.1035  -21.1087  -16.4851 C   0  0  0  0  0  0  0  0  0  0  0  0
   18.2034  -20.9303  -15.5419 C   0  0  0  0  0  0  0  0  0  0  0  0
   19.0729  -19.7866  -15.9460 C   0  0  0  0  0  0  0  0  0  0  0  0
   20.4736  -20.1578  -16.2121 C   0  0  2  0  0  0  0  0  0  0  0  0
   21.5222  -19.7484  -15.2546 N   0  0  0  0  0  0  0  0  0  0  0  0
   22.8776  -20.0962  -15.6320 C   0  0  0  0  0  0  0  0  0  0  0  0
   21.2577  -20.1551  -13.8654 O   0  0  0  0  0  0  0  0  0  0  0  0
   21.4256  -21.3676  -13.5394 O   0  0  0  0  0  0  0  0  0  0  0  0
  2  1  1  0
  2  3  2  0
  4  2  1  0
  5  4  1  0
  6  5  1  0
  7  6  1  0
  8  7  1  0
  8  9  1  6
 10  8  1  0
 10 11  2  0
 13 12  1  6
 14 13  1  0
 16 15  1  1
 15 13  1  0
 17 16  1  0
 17 10  1  0
 18 16  1  0
 19 18  2  0
 21 20  1  0
 21 22  2  0
 23 21  1  0
 24 23  1  0
 25 24  1  0
 25 26  1  0
 27 26  1  6
 27 28  1  0
 28 18  1  0
 29 31  1  0
 29 27  1  0
 30 29  2  0
M  END
$$$$
