RLR.pdb
     RDKit          3D

 31 30  0  0  1  0  0  0  0  0999 V2000
   32.0252  -23.4696  -10.5854 N   0  0  0  0  0  0  0  0  0  0  0  0
   31.4510  -22.6939   -9.5189 C   0  0  0  0  0  0  0  0  0  0  0  0
   32.0882  -22.5620   -8.4186 N   0  0  0  0  0  0  0  0  0  0  0  0
   30.1902  -22.0662   -9.6506 N   0  0  0  0  0  0  0  0  0  0  0  0
   29.3311  -22.2207  -10.8049 C   0  0  0  0  0  0  0  0  0  0  0  0
   29.4078  -21.0557  -11.7355 C   0  0  0  0  0  0  0  0  0  0  0  0
   28.1681  -20.2386  -11.8523 C   0  0  0  0  0  0  0  0  0  0  0  0
   27.3585  -20.4856  -13.0970 C   0  0  2  0  0  0  0  0  0  0  0  0
   28.1416  -20.9314  -14.2234 N   0  0  0  0  0  0  0  0  0  0  0  0
   26.4957  -19.3315  -13.4365 C   0  0  0  0  0  0  0  0  0  0  0  0
   25.6511  -18.9326  -12.6291 O   0  0  0  0  0  0  0  0  0  0  0  0
   31.6787  -22.0357   -7.6174 C   0  0  0  0  0  0  0  0  0  0  0  0
   25.3189  -14.5059  -15.0774 C   0  0  2  0  0  0  0  0  0  0  0  0
   26.0441  -15.2943  -16.1412 C   0  0  0  0  0  0  0  0  0  0  0  0
   27.1597  -14.3638  -16.6510 C   0  0  0  0  0  0  0  0  0  0  0  0
   26.6554  -16.4992  -15.5611 C   0  0  1  0  0  0  0  0  0  0  0  0
   25.7888  -17.6316  -15.1667 N   0  0  0  0  0  0  0  0  0  0  0  0
   26.6264  -18.6876  -14.6611 C   0  0  0  0  0  0  0  0  0  0  0  0
   24.7211  -18.0372  -16.0571 O   0  0  0  0  0  0  0  0  0  0  0  0
   24.8481  -18.9404  -16.9594 N   0  0  0  0  0  0  0  0  0  0  0  0
   18.8654  -22.5556  -12.3587 C   0  0  0  0  0  0  0  0  0  0  0  0
   19.1895  -22.6748  -13.7271 N   0  0  0  0  0  0  0  0  0  0  0  0
   19.2092  -23.8363  -14.2625 N   0  0  0  0  0  0  0  0  0  0  0  0
   19.4809  -21.5120  -14.4651 C   0  0  0  0  0  0  0  0  0  0  0  0
   20.8746  -21.1030  -14.6122 C   0  0  0  0  0  0  0  0  0  0  0  0
   21.1061  -19.7645  -13.9940 C   0  0  0  0  0  0  0  0  0  0  0  0
   22.3092  -19.0717  -14.4874 C   0  0  1  0  0  0  0  0  0  0  0  0
   22.2183  -18.2563  -15.7166 N   0  0  0  0  0  0  0  0  0  0  0  0
   23.4060  -17.4932  -16.0446 C   0  0  0  0  0  0  0  0  0  0  0  0
   21.0250  -17.3978  -15.7800 O   0  0  0  0  0  0  0  0  0  0  0  0
   20.2083  -17.5535  -16.7358 O   0  0  0  0  0  0  0  0  0  0  0  0
  2  1  1  0
  2  3  2  0
  4  2  1  0
  5  4  1  0
  6  5  1  0
  7  6  1  0
  8  7  1  0
  8  9  1  6
 10  8  1  0
 10 11  2  0
 13 12  1  6
 14 13  1  0
 16 15  1  1
 15 13  1  0
 17 16  1  0
 17 10  1  0
 18 16  1  0
 19 18  2  0
 21 20  1  0
 21 22  2  0
 23 21  1  0
 24 23  1  0
 25 24  1  0
 25 26  1  0
 27 26  1  6
 27 28  1  0
 28 18  1  0
 29 31  1  0
 29 27  1  0
 30 29  2  0
M  END
$$$$
