RLR.pdb
     RDKit          3D

 31 30  0  0  1  0  0  0  0  0999 V2000
   32.5008  -26.2096  -16.1645 N   0  0  0  0  0  0  0  0  0  0  0  0
   32.1617  -26.1385  -17.5604 C   0  0  0  0  0  0  0  0  0  0  0  0
   32.3550  -27.1551  -18.3110 N   0  0  0  0  0  0  0  0  0  0  0  0
   31.6158  -24.9668  -18.1349 N   0  0  0  0  0  0  0  0  0  0  0  0
   30.9580  -23.9279  -17.3719 C   0  0  0  0  0  0  0  0  0  0  0  0
   29.9121  -24.4675  -16.4532 C   0  0  0  0  0  0  0  0  0  0  0  0
   29.0572  -23.4513  -15.7786 C   0  0  0  0  0  0  0  0  0  0  0  0
   27.9267  -22.9148  -16.6152 C   0  0  2  0  0  0  0  0  0  0  0  0
   28.3124  -22.5613  -17.9595 N   0  0  0  0  0  0  0  0  0  0  0  0
   27.2034  -21.8177  -15.9334 C   0  0  0  0  0  0  0  0  0  0  0  0
   26.8195  -21.9605  -14.7687 O   0  0  0  0  0  0  0  0  0  0  0  0
   32.1668  -27.1133  -19.3354 C   0  0  0  0  0  0  0  0  0  0  0  0
   26.4898  -16.6988  -14.6075 C   0  0  2  0  0  0  0  0  0  0  0  0
   26.4039  -16.9487  -16.0938 C   0  0  0  0  0  0  0  0  0  0  0  0
   27.2614  -15.8478  -16.7441 C   0  0  0  0  0  0  0  0  0  0  0  0
   26.9774  -18.2606  -16.4285 C   0  0  1  0  0  0  0  0  0  0  0  0
   26.2348  -19.4881  -16.0669 N   0  0  0  0  0  0  0  0  0  0  0  0
   26.9500  -20.6212  -16.5933 C   0  0  0  0  0  0  0  0  0  0  0  0
   24.7965  -19.5094  -16.2349 O   0  0  0  0  0  0  0  0  0  0  0  0
   24.2112  -19.5423  -17.3762 N   0  0  0  0  0  0  0  0  0  0  0  0
   17.0853  -21.7771  -14.1374 C   0  0  0  0  0  0  0  0  0  0  0  0
   17.9503  -22.8822  -14.2867 N   0  0  0  0  0  0  0  0  0  0  0  0
   17.4974  -23.9609  -14.8036 N   0  0  0  0  0  0  0  0  0  0  0  0
   19.2880  -22.7662  -13.8635 C   0  0  0  0  0  0  0  0  0  0  0  0
   19.7332  -21.5062  -13.2758 C   0  0  0  0  0  0  0  0  0  0  0  0
   20.2859  -20.5956  -14.3211 C   0  0  0  0  0  0  0  0  0  0  0  0
   21.7508  -20.4442  -14.2764 C   0  0  1  0  0  0  0  0  0  0  0  0
   22.4292  -19.6789  -15.3432 N   0  0  0  0  0  0  0  0  0  0  0  0
   23.8564  -19.4988  -15.1664 C   0  0  0  0  0  0  0  0  0  0  0  0
   21.7869  -18.3937  -15.6606 O   0  0  0  0  0  0  0  0  0  0  0  0
   22.0544  -17.3822  -14.9466 O   0  0  0  0  0  0  0  0  0  0  0  0
  2  1  1  0
  2  3  2  0
  4  2  1  0
  5  4  1  0
  6  5  1  0
  7  6  1  0
  8  7  1  0
  8  9  1  6
 10  8  1  0
 10 11  2  0
 13 12  1  6
 14 13  1  0
 16 15  1  1
 15 13  1  0
 17 16  1  0
 17 10  1  0
 18 16  1  0
 19 18  2  0
 21 20  1  0
 21 22  2  0
 23 21  1  0
 24 23  1  0
 25 24  1  0
 25 26  1  0
 27 26  1  6
 27 28  1  0
 28 18  1  0
 29 31  1  0
 29 27  1  0
 30 29  2  0
M  END
$$$$
