RLR.pdb
     RDKit          3D

 31 30  0  0  1  0  0  0  0  0999 V2000
   29.4826  -26.4072  -15.7457 N   0  0  0  0  0  0  0  0  0  0  0  0
   28.2263  -26.3801  -16.4454 C   0  0  0  0  0  0  0  0  0  0  0  0
   27.3146  -27.2232  -16.1418 N   0  0  0  0  0  0  0  0  0  0  0  0
   27.9652  -25.4403  -17.4699 N   0  0  0  0  0  0  0  0  0  0  0  0
   28.8314  -24.3221  -17.7758 C   0  0  0  0  0  0  0  0  0  0  0  0
   28.6704  -23.1930  -16.8123 C   0  0  0  0  0  0  0  0  0  0  0  0
   27.4280  -23.2158  -15.9912 C   0  0  0  0  0  0  0  0  0  0  0  0
   26.6664  -21.9180  -15.9539 C   0  0  2  0  0  0  0  0  0  0  0  0
   27.4654  -20.7839  -15.5584 N   0  0  0  0  0  0  0  0  0  0  0  0
   25.4200  -22.0280  -15.1627 C   0  0  0  0  0  0  0  0  0  0  0  0
   24.5777  -22.8831  -15.4520 O   0  0  0  0  0  0  0  0  0  0  0  0
   26.4248  -27.2742  -16.6823 C   0  0  0  0  0  0  0  0  0  0  0  0
   25.8698  -20.4778   -9.9821 C   0  0  1  0  0  0  0  0  0  0  0  0
   25.5136  -21.2707  -11.2164 C   0  0  0  0  0  0  0  0  0  0  0  0
   25.0656  -22.6506  -10.7013 C   0  0  0  0  0  0  0  0  0  0  0  0
   24.3918  -20.6393  -11.9271 C   0  0  2  0  0  0  0  0  0  0  0  0
   24.0076  -21.1426  -13.2643 N   0  0  0  0  0  0  0  0  0  0  0  0
   25.1855  -21.1746  -14.0912 C   0  0  0  0  0  0  0  0  0  0  0  0
   22.8068  -20.6252  -13.8868 O   0  0  0  0  0  0  0  0  0  0  0  0
   22.7240  -19.4619  -14.4216 N   0  0  0  0  0  0  0  0  0  0  0  0
   14.5897  -21.1115  -13.9432 C   0  0  0  0  0  0  0  0  0  0  0  0
   14.7332  -20.5204  -15.2167 N   0  0  0  0  0  0  0  0  0  0  0  0
   13.7392  -19.9001  -15.7297 N   0  0  0  0  0  0  0  0  0  0  0  0
   15.9667  -20.6287  -15.8864 C   0  0  0  0  0  0  0  0  0  0  0  0
   17.1275  -21.1173  -15.1480 C   0  0  0  0  0  0  0  0  0  0  0  0
   18.3371  -21.1579  -16.0212 C   0  0  0  0  0  0  0  0  0  0  0  0
   19.5449  -21.6764  -15.3556 C   0  0  2  0  0  0  0  0  0  0  0  0
   20.3564  -20.7647  -14.5223 N   0  0  0  0  0  0  0  0  0  0  0  0
   21.5767  -21.3342  -13.9866 C   0  0  0  0  0  0  0  0  0  0  0  0
   19.5970  -20.0892  -13.4582 O   0  0  0  0  0  0  0  0  0  0  0  0
   19.5696  -20.6065  -12.3022 O   0  0  0  0  0  0  0  0  0  0  0  0
  2  1  1  0
  2  3  2  0
  4  2  1  0
  5  4  1  0
  6  5  1  0
  7  6  1  0
  8  7  1  0
  8  9  1  1
 10  8  1  0
 10 11  2  0
 13 12  1  6
 14 13  1  0
 16 15  1  1
 15 13  1  0
 17 16  1  0
 17 10  1  0
 18 16  1  0
 19 18  2  0
 21 20  1  0
 21 22  2  0
 23 21  1  0
 24 23  1  0
 25 24  1  0
 25 26  1  0
 27 26  1  6
 27 28  1  0
 28 18  1  0
 29 31  1  0
 29 27  1  0
 30 29  2  0
M  END
$$$$
