RLR.pdb
     RDKit          3D

 31 30  0  0  1  0  0  0  0  0999 V2000
   19.1757  -24.5114   -5.5860 N   0  0  0  0  0  0  0  0  0  0  0  0
   18.1908  -24.7933   -6.5955 C   0  0  0  0  0  0  0  0  0  0  0  0
   17.1090  -25.3937   -6.2738 N   0  0  0  0  0  0  0  0  0  0  0  0
   18.3837  -24.4237   -7.9472 N   0  0  0  0  0  0  0  0  0  0  0  0
   19.6293  -23.9039   -8.4692 C   0  0  0  0  0  0  0  0  0  0  0  0
   19.5950  -22.4241   -8.6643 C   0  0  0  0  0  0  0  0  0  0  0  0
   20.8201  -21.8217   -9.2598 C   0  0  0  0  0  0  0  0  0  0  0  0
   21.9731  -21.6524   -8.3071 C   0  0  2  0  0  0  0  0  0  0  0  0
   21.5747  -21.3044   -6.9650 N   0  0  0  0  0  0  0  0  0  0  0  0
   23.0044  -20.7341   -8.8409 C   0  0  0  0  0  0  0  0  0  0  0  0
   22.6827  -19.6150   -9.2513 O   0  0  0  0  0  0  0  0  0  0  0  0
   16.3828  -25.6171   -6.9875 C   0  0  0  0  0  0  0  0  0  0  0  0
   27.9235  -20.6199   -6.6126 C   0  0  1  0  0  0  0  0  0  0  0  0
   26.6931  -20.1037   -7.3188 C   0  0  0  0  0  0  0  0  0  0  0  0
   26.8530  -18.5729   -7.3532 C   0  0  0  0  0  0  0  0  0  0  0  0
   26.6421  -20.6095   -8.6985 C   0  0  2  0  0  0  0  0  0  0  0  0
   25.4189  -20.3949   -9.5027 N   0  0  0  0  0  0  0  0  0  0  0  0
   24.3388  -21.1196   -8.8856 C   0  0  0  0  0  0  0  0  0  0  0  0
   25.5059  -20.4889  -10.9452 O   0  0  0  0  0  0  0  0  0  0  0  0
   26.0489  -19.5944  -11.6877 N   0  0  0  0  0  0  0  0  0  0  0  0
   26.3354  -26.0551  -16.0882 C   0  0  0  0  0  0  0  0  0  0  0  0
   26.1577  -25.2472  -17.2316 N   0  0  0  0  0  0  0  0  0  0  0  0
   25.7604  -25.7890  -18.3201 N   0  0  0  0  0  0  0  0  0  0  0  0
   26.4214  -23.8672  -17.1423 C   0  0  0  0  0  0  0  0  0  0  0  0
   26.4914  -23.2485  -15.8218 C   0  0  0  0  0  0  0  0  0  0  0  0
   25.1384  -23.1693  -15.1971 C   0  0  0  0  0  0  0  0  0  0  0  0
   25.1582  -23.0009  -13.7336 C   0  0  1  0  0  0  0  0  0  0  0  0
   25.0782  -21.6398  -13.1634 N   0  0  0  0  0  0  0  0  0  0  0  0
   25.0073  -21.5756  -11.7173 C   0  0  0  0  0  0  0  0  0  0  0  0
   24.0316  -20.7982  -13.7647 O   0  0  0  0  0  0  0  0  0  0  0  0
   22.8808  -20.7802  -13.2357 O   0  0  0  0  0  0  0  0  0  0  0  0
  2  1  1  0
  2  3  2  0
  4  2  1  0
  5  4  1  0
  6  5  1  0
  7  6  1  0
  8  7  1  0
  8  9  1  1
 10  8  1  0
 10 11  2  0
 13 12  1  1
 14 13  1  0
 16 15  1  1
 15 13  1  0
 17 16  1  0
 17 10  1  0
 18 16  1  0
 19 18  2  0
 21 20  1  0
 21 22  2  0
 23 21  1  0
 24 23  1  0
 25 24  1  0
 25 26  1  0
 27 26  1  1
 27 28  1  0
 28 18  1  0
 29 31  1  0
 29 27  1  0
 30 29  2  0
M  END
$$$$
