LFP.pdb
     RDKit          3D

 27 28  0  0  1  0  0  0  0  0999 V2000
   10.0952  -19.9118   22.2879 C   0  0  0  0  0  0  0  0  0  0  0  0
   11.1359  -18.8419   22.5559 C   0  0  1  0  0  0  0  0  0  0  0  0
   12.4111  -19.5576   22.9677 C   0  0  0  0  0  0  0  0  0  0  0  0
   11.4332  -18.1070   21.2775 C   0  0  0  0  0  0  0  0  0  0  0  0
   10.4127  -17.0372   20.9650 C   0  0  2  0  0  0  0  0  0  0  0  0
   10.6645  -16.3568   19.7386 N   0  0  0  0  0  0  0  0  0  0  0  0
   10.2991  -16.1611   22.1340 C   0  0  0  0  0  0  0  0  0  0  0  0
   11.1771  -15.2809   22.3245 O   0  0  0  0  0  0  0  0  0  0  0  0
    9.2469  -16.2415   23.0807 N   0  0  0  0  0  0  0  0  0  0  0  0
    9.1001  -15.2092   24.1614 C   0  0  1  0  0  0  0  0  0  0  0  0
    7.6502  -14.7160   24.0195 C   0  0  0  0  0  0  0  0  0  0  0  0
    7.1916  -13.7027   24.9159 C   0  0  0  0  0  0  0  0  0  0  0  0
    6.3696  -13.9749   25.9836 C   0  0  0  0  0  0  0  0  0  0  0  0
    5.9784  -12.9797   26.8793 C   0  0  0  0  0  0  0  0  0  0  0  0
    6.4102  -11.6913   26.7126 C   0  0  0  0  0  0  0  0  0  0  0  0
    7.2438  -11.3750   25.6420 C   0  0  0  0  0  0  0  0  0  0  0  0
    7.6188  -12.3886   24.7624 C   0  0  0  0  0  0  0  0  0  0  0  0
    9.2870  -15.8621   25.4714 C   0  0  0  0  0  0  0  0  0  0  0  0
    8.7961  -17.0461   25.5332 O   0  0  0  0  0  0  0  0  0  0  0  0
    9.9464  -15.2854   26.5906 N   0  0  0  0  0  0  0  0  0  0  0  0
   10.4894  -13.9526   26.5736 C   0  0  0  0  0  0  0  0  0  0  0  0
   10.1366  -13.3748   27.9080 C   0  0  0  0  0  0  0  0  0  0  0  0
    9.7298  -14.5780   28.7284 C   0  0  0  0  0  0  0  0  0  0  0  0
   10.2613  -15.7492   27.8746 C   0  0  1  0  0  0  0  0  0  0  0  0
    9.9102  -17.0283   28.3747 C   0  0  0  0  0  0  0  0  0  0  0  0
    9.0062  -17.6508   27.6927 O   0  0  0  0  0  0  0  0  0  0  0  0
   10.3282  -17.7650   29.4452 O   0  0  0  0  0  0  0  0  0  0  0  0
  2  1  1  6
  3  2  1  0
  4  2  1  0
  5  4  1  0
  5  6  1  6
  7  8  2  0
  7  5  1  0
  9  7  1  0
 10  9  1  0
 10 11  1  1
 11 12  1  0
 12 17  1  0
 12 13  2  0
 13 14  1  0
 14 15  2  0
 16 15  1  0
 17 16  2  0
 18 10  1  0
 19 18  2  0
 20 21  1  0
 20 18  1  0
 22 21  1  0
 23 24  1  0
 23 22  1  0
 24 20  1  0
 25 27  1  0
 24 25  1  1
 26 25  2  0
M  END
$$$$
