LFP.pdb
     RDKit          3D

 27 28  0  0  1  0  0  0  0  0999 V2000
   13.6098  -18.2255   19.3896 C   0  0  0  0  0  0  0  0  0  0  0  0
   12.1293  -18.2618   19.7157 C   0  0  1  0  0  0  0  0  0  0  0  0
   11.8411  -19.6275   20.3155 C   0  0  0  0  0  0  0  0  0  0  0  0
   11.8294  -17.2393   20.7773 C   0  0  0  0  0  0  0  0  0  0  0  0
   10.3734  -17.2233   21.1817 C   0  0  2  0  0  0  0  0  0  0  0  0
    9.4831  -17.0547   20.0820 N   0  0  0  0  0  0  0  0  0  0  0  0
   10.2093  -16.2376   22.2534 C   0  0  0  0  0  0  0  0  0  0  0  0
   10.9370  -15.2117   22.2554 O   0  0  0  0  0  0  0  0  0  0  0  0
    9.2686  -16.3662   23.3061 N   0  0  0  0  0  0  0  0  0  0  0  0
    9.1306  -15.2984   24.3529 C   0  0  1  0  0  0  0  0  0  0  0  0
    7.6756  -14.8193   24.2156 C   0  0  0  0  0  0  0  0  0  0  0  0
    7.2375  -13.7453   25.0495 C   0  0  0  0  0  0  0  0  0  0  0  0
    7.6013  -12.4385   24.8267 C   0  0  0  0  0  0  0  0  0  0  0  0
    7.1176  -11.3980   25.6198 C   0  0  0  0  0  0  0  0  0  0  0  0
    6.2575  -11.6586   26.6525 C   0  0  0  0  0  0  0  0  0  0  0  0
    5.8655  -12.9704   26.9111 C   0  0  0  0  0  0  0  0  0  0  0  0
    6.3643  -13.9904   26.1034 C   0  0  0  0  0  0  0  0  0  0  0  0
    9.3408  -15.9049   25.6816 C   0  0  0  0  0  0  0  0  0  0  0  0
    8.8440  -17.0825   25.7963 O   0  0  0  0  0  0  0  0  0  0  0  0
   10.0271  -15.2927   26.7653 N   0  0  0  0  0  0  0  0  0  0  0  0
   10.4242  -13.9094   26.7546 C   0  0  0  0  0  0  0  0  0  0  0  0
   10.1251  -13.4111   28.1334 C   0  0  0  0  0  0  0  0  0  0  0  0
    9.9164  -14.6740   28.9384 C   0  0  0  0  0  0  0  0  0  0  0  0
   10.4947  -15.7564   28.0019 C   0  0  1  0  0  0  0  0  0  0  0  0
   10.3225  -17.0796   28.4805 C   0  0  0  0  0  0  0  0  0  0  0  0
   10.9636  -17.9860   27.8193 O   0  0  0  0  0  0  0  0  0  0  0  0
    9.6104  -17.6196   29.5124 O   0  0  0  0  0  0  0  0  0  0  0  0
  2  1  1  1
  3  2  1  0
  4  2  1  0
  5  4  1  0
  5  6  1  6
  7  8  2  0
  7  5  1  0
  9  7  1  0
 10  9  1  0
 10 11  1  1
 11 12  1  0
 12 17  1  0
 12 13  2  0
 13 14  1  0
 14 15  2  0
 16 15  1  0
 17 16  2  0
 18 10  1  0
 19 18  2  0
 20 21  1  0
 20 18  1  0
 22 21  1  0
 23 24  1  0
 23 22  1  0
 24 20  1  0
 25 27  1  0
 24 25  1  1
 26 25  2  0
M  END
$$$$
