LFP.pdb
     RDKit          3D

 27 28  0  0  1  0  0  0  0  0999 V2000
    7.9183  -13.2188   17.8630 C   0  0  0  0  0  0  0  0  0  0  0  0
    8.3484  -14.4779   18.5904 C   0  0  1  0  0  0  0  0  0  0  0  0
    9.3103  -15.2131   17.6726 C   0  0  0  0  0  0  0  0  0  0  0  0
    9.1172  -14.0993   19.8265 C   0  0  0  0  0  0  0  0  0  0  0  0
    9.3840  -15.2771   20.7350 C   0  0  2  0  0  0  0  0  0  0  0  0
    8.4880  -16.3654   20.5275 N   0  0  0  0  0  0  0  0  0  0  0  0
    9.4344  -14.7857   22.1145 C   0  0  0  0  0  0  0  0  0  0  0  0
   10.1779  -13.8086   22.3874 O   0  0  0  0  0  0  0  0  0  0  0  0
    8.6876  -15.3484   23.1801 N   0  0  0  0  0  0  0  0  0  0  0  0
    8.6364  -14.6805   24.5241 C   0  0  1  0  0  0  0  0  0  0  0  0
    7.1376  -14.4375   24.7693 C   0  0  0  0  0  0  0  0  0  0  0  0
    6.7616  -13.3857   25.6599 C   0  0  0  0  0  0  0  0  0  0  0  0
    7.0921  -12.0706   25.4346 C   0  0  0  0  0  0  0  0  0  0  0  0
    6.6675  -11.0520   26.2878 C   0  0  0  0  0  0  0  0  0  0  0  0
    5.9014  -11.3435   27.3842 C   0  0  0  0  0  0  0  0  0  0  0  0
    5.5460  -12.6647   27.6475 C   0  0  0  0  0  0  0  0  0  0  0  0
    5.9841  -13.6623   26.7789 C   0  0  0  0  0  0  0  0  0  0  0  0
    9.1712  -15.6100   25.5378 C   0  0  0  0  0  0  0  0  0  0  0  0
    8.7539  -16.8160   25.4041 O   0  0  0  0  0  0  0  0  0  0  0  0
   10.0713  -15.2597   26.5805 N   0  0  0  0  0  0  0  0  0  0  0  0
   10.8003  -14.0188   26.5968 C   0  0  0  0  0  0  0  0  0  0  0  0
   10.7441  -13.5565   28.0188 C   0  0  0  0  0  0  0  0  0  0  0  0
   10.2889  -14.7807   28.7807 C   0  0  0  0  0  0  0  0  0  0  0  0
   10.5026  -15.9064   27.7461 C   0  0  1  0  0  0  0  0  0  0  0  0
   10.0421  -17.1759   28.1772 C   0  0  0  0  0  0  0  0  0  0  0  0
   10.9548  -17.9498   28.6649 O   0  0  0  0  0  0  0  0  0  0  0  0
    8.8156  -17.7748   28.1906 O   0  0  0  0  0  0  0  0  0  0  0  0
  2  1  1  6
  3  2  1  0
  4  2  1  0
  5  4  1  0
  5  6  1  1
  7  8  2  0
  7  5  1  0
  9  7  1  0
 10  9  1  0
 10 11  1  1
 11 12  1  0
 12 17  1  0
 12 13  2  0
 13 14  1  0
 14 15  2  0
 16 15  1  0
 17 16  2  0
 18 10  1  0
 19 18  2  0
 20 21  1  0
 20 18  1  0
 22 21  1  0
 23 24  1  0
 23 22  1  0
 24 20  1  0
 25 27  1  0
 24 25  1  1
 26 25  2  0
M  END
$$$$
