LFP.pdb
     RDKit          3D

 27 28  0  0  1  0  0  0  0  0999 V2000
    7.6934  -13.3167   18.0477 C   0  0  0  0  0  0  0  0  0  0  0  0
    8.8143  -14.0952   18.7088 C   0  0  1  0  0  0  0  0  0  0  0  0
    9.6929  -13.0843   19.4258 C   0  0  0  0  0  0  0  0  0  0  0  0
    8.2358  -15.0034   19.7591 C   0  0  0  0  0  0  0  0  0  0  0  0
    9.2957  -15.6909   20.5884 C   0  0  2  0  0  0  0  0  0  0  0  0
    9.1257  -17.1037   20.6646 N   0  0  0  0  0  0  0  0  0  0  0  0
    9.3663  -15.0162   21.8871 C   0  0  0  0  0  0  0  0  0  0  0  0
    9.8493  -13.8563   21.9466 O   0  0  0  0  0  0  0  0  0  0  0  0
    8.9186  -15.5942   23.1017 N   0  0  0  0  0  0  0  0  0  0  0  0
    8.8066  -14.7717   24.3530 C   0  0  1  0  0  0  0  0  0  0  0  0
    7.3175  -14.3939   24.4259 C   0  0  0  0  0  0  0  0  0  0  0  0
    6.8948  -13.5151   25.4698 C   0  0  0  0  0  0  0  0  0  0  0  0
    6.1360  -13.9405   26.5342 C   0  0  0  0  0  0  0  0  0  0  0  0
    5.7807  -13.0782   27.5715 C   0  0  0  0  0  0  0  0  0  0  0  0
    6.1854  -11.7705   27.5524 C   0  0  0  0  0  0  0  0  0  0  0  0
    6.9551  -11.3008   26.4903 C   0  0  0  0  0  0  0  0  0  0  0  0
    7.2953  -12.1837   25.4674 C   0  0  0  0  0  0  0  0  0  0  0  0
    9.1730  -15.6122   25.5091 C   0  0  0  0  0  0  0  0  0  0  0  0
    8.6478  -16.7828   25.4838 O   0  0  0  0  0  0  0  0  0  0  0  0
   10.0277  -15.2179   26.5741 N   0  0  0  0  0  0  0  0  0  0  0  0
   10.6960  -13.9436   26.6061 C   0  0  0  0  0  0  0  0  0  0  0  0
   10.5805  -13.4824   28.0249 C   0  0  0  0  0  0  0  0  0  0  0  0
   10.1644  -14.7259   28.7779 C   0  0  0  0  0  0  0  0  0  0  0  0
   10.4587  -15.8415   27.7523 C   0  0  1  0  0  0  0  0  0  0  0  0
   10.0482  -17.1310   28.1747 C   0  0  0  0  0  0  0  0  0  0  0  0
    8.8010  -17.4000   27.9700 O   0  0  0  0  0  0  0  0  0  0  0  0
   10.6976  -18.1767   28.7647 O   0  0  0  0  0  0  0  0  0  0  0  0
  2  1  1  1
  3  2  1  0
  4  2  1  0
  5  4  1  0
  5  6  1  1
  7  8  2  0
  7  5  1  0
  9  7  1  0
 10  9  1  0
 10 11  1  1
 11 12  1  0
 12 17  1  0
 12 13  2  0
 13 14  1  0
 14 15  2  0
 16 15  1  0
 17 16  2  0
 18 10  1  0
 19 18  2  0
 20 21  1  0
 20 18  1  0
 22 21  1  0
 23 24  1  0
 23 22  1  0
 24 20  1  0
 25 27  1  0
 24 25  1  1
 26 25  2  0
M  END
$$$$
