LFP.pdb
     RDKit          3D

 27 28  0  0  1  0  0  0  0  0999 V2000
    7.6779  -13.4138   17.8704 C   0  0  0  0  0  0  0  0  0  0  0  0
    8.1388  -14.6864   18.5543 C   0  0  1  0  0  0  0  0  0  0  0  0
    8.8330  -15.5302   17.4988 C   0  0  0  0  0  0  0  0  0  0  0  0
    9.1683  -14.3452   19.5965 C   0  0  0  0  0  0  0  0  0  0  0  0
    9.3483  -15.4392   20.6234 C   0  0  2  0  0  0  0  0  0  0  0  0
    8.3367  -16.4411   20.5653 N   0  0  0  0  0  0  0  0  0  0  0  0
    9.5052  -14.8092   21.9370 C   0  0  0  0  0  0  0  0  0  0  0  0
    9.8646  -13.6054   21.9974 O   0  0  0  0  0  0  0  0  0  0  0  0
    9.2746  -15.4785   23.1653 N   0  0  0  0  0  0  0  0  0  0  0  0
    9.0893  -14.7085   24.4412 C   0  0  1  0  0  0  0  0  0  0  0  0
    7.6034  -14.3116   24.4315 C   0  0  0  0  0  0  0  0  0  0  0  0
    7.1550  -13.3528   25.3909 C   0  0  0  0  0  0  0  0  0  0  0  0
    7.5764  -12.0443   25.3833 C   0  0  0  0  0  0  0  0  0  0  0  0
    7.0837  -11.1108   26.2950 C   0  0  0  0  0  0  0  0  0  0  0  0
    6.1564  -11.4819   27.2312 C   0  0  0  0  0  0  0  0  0  0  0  0
    5.7046  -12.7993   27.2719 C   0  0  0  0  0  0  0  0  0  0  0  0
    6.2139  -13.7112   26.3495 C   0  0  0  0  0  0  0  0  0  0  0  0
    9.3671  -15.6031   25.5813 C   0  0  0  0  0  0  0  0  0  0  0  0
    8.8355  -16.7654   25.4674 O   0  0  0  0  0  0  0  0  0  0  0  0
   10.1486  -15.2655   26.7195 N   0  0  0  0  0  0  0  0  0  0  0  0
   10.8099  -13.9952   26.8620 C   0  0  0  0  0  0  0  0  0  0  0  0
   10.5997  -13.6086   28.2922 C   0  0  0  0  0  0  0  0  0  0  0  0
   10.1380  -14.8893   28.9502 C   0  0  0  0  0  0  0  0  0  0  0  0
   10.5024  -15.9502   27.8895 C   0  0  1  0  0  0  0  0  0  0  0  0
   10.0682  -17.2595   28.2161 C   0  0  0  0  0  0  0  0  0  0  0  0
   10.9796  -18.0270   28.7162 O   0  0  0  0  0  0  0  0  0  0  0  0
    8.8687  -17.9034   28.1156 O   0  0  0  0  0  0  0  0  0  0  0  0
  2  1  1  6
  3  2  1  0
  4  2  1  0
  5  4  1  0
  5  6  1  1
  7  8  2  0
  7  5  1  0
  9  7  1  0
 10  9  1  0
 10 11  1  1
 11 12  1  0
 12 17  1  0
 12 13  2  0
 13 14  1  0
 14 15  2  0
 16 15  1  0
 17 16  2  0
 18 10  1  0
 19 18  2  0
 20 21  1  0
 20 18  1  0
 22 21  1  0
 23 24  1  0
 23 22  1  0
 24 20  1  0
 25 27  1  0
 24 25  1  1
 26 25  2  0
M  END
$$$$
