LFP.pdb
     RDKit          3D

 27 28  0  0  1  0  0  0  0  0999 V2000
    8.6960  -22.5212   22.9813 C   0  0  0  0  0  0  0  0  0  0  0  0
    7.3418  -22.0762   23.4987 C   0  0  1  0  0  0  0  0  0  0  0  0
    7.3510  -22.2876   25.0032 C   0  0  0  0  0  0  0  0  0  0  0  0
    7.1794  -20.6000   23.2596 C   0  0  0  0  0  0  0  0  0  0  0  0
    5.8933  -20.0511   23.8324 C   0  0  2  0  0  0  0  0  0  0  0  0
    4.7261  -20.5726   23.2029 N   0  0  0  0  0  0  0  0  0  0  0  0
    5.9824  -18.5885   23.8318 C   0  0  0  0  0  0  0  0  0  0  0  0
    5.4886  -17.9476   22.8687 O   0  0  0  0  0  0  0  0  0  0  0  0
    6.5988  -17.8354   24.8625 N   0  0  0  0  0  0  0  0  0  0  0  0
    6.7585  -16.3471   24.7415 C   0  0  1  0  0  0  0  0  0  0  0  0
    6.8475  -15.8562   26.1963 C   0  0  0  0  0  0  0  0  0  0  0  0
    6.9565  -14.4509   26.4286 C   0  0  0  0  0  0  0  0  0  0  0  0
    8.1675  -13.8124   26.5526 C   0  0  0  0  0  0  0  0  0  0  0  0
    8.2529  -12.4306   26.7236 C   0  0  0  0  0  0  0  0  0  0  0  0
    7.1166  -11.6688   26.7727 C   0  0  0  0  0  0  0  0  0  0  0  0
    5.8698  -12.2789   26.6516 C   0  0  0  0  0  0  0  0  0  0  0  0
    5.8137  -13.6608   26.4820 C   0  0  0  0  0  0  0  0  0  0  0  0
    8.0201  -16.0602   24.0320 C   0  0  0  0  0  0  0  0  0  0  0  0
    9.0588  -16.5451   24.6088 O   0  0  0  0  0  0  0  0  0  0  0  0
    8.1328  -15.3285   22.8187 N   0  0  0  0  0  0  0  0  0  0  0  0
    6.9886  -14.8617   22.0810 C   0  0  0  0  0  0  0  0  0  0  0  0
    7.3546  -13.4816   21.6334 C   0  0  0  0  0  0  0  0  0  0  0  0
    8.8497  -13.4146   21.8489 C   0  0  0  0  0  0  0  0  0  0  0  0
    9.2178  -14.9013   22.0421 C   0  0  1  0  0  0  0  0  0  0  0  0
   10.5786  -15.1159   22.3767 C   0  0  0  0  0  0  0  0  0  0  0  0
   11.4045  -15.0206   21.3875 O   0  0  0  0  0  0  0  0  0  0  0  0
   11.2237  -15.4083   23.5436 O   0  0  0  0  0  0  0  0  0  0  0  0
  2  1  1  1
  3  2  1  0
  4  2  1  0
  5  4  1  0
  5  6  1  6
  7  8  2  0
  7  5  1  0
  9  7  1  0
 10  9  1  0
 10 11  1  1
 11 12  1  0
 12 17  1  0
 12 13  2  0
 13 14  1  0
 14 15  2  0
 16 15  1  0
 17 16  2  0
 18 10  1  0
 19 18  2  0
 20 21  1  0
 20 18  1  0
 22 21  1  0
 23 24  1  0
 23 22  1  0
 24 20  1  0
 25 27  1  0
 24 25  1  1
 26 25  2  0
M  END
$$$$
