LFP.pdb
     RDKit          3D

 27 28  0  0  1  0  0  0  0  0999 V2000
    7.9072  -23.0776   23.9240 C   0  0  0  0  0  0  0  0  0  0  0  0
    6.6758  -22.2537   23.6009 C   0  0  1  0  0  0  0  0  0  0  0  0
    5.6134  -22.6260   24.6212 C   0  0  0  0  0  0  0  0  0  0  0  0
    6.9881  -20.7956   23.7983 C   0  0  0  0  0  0  0  0  0  0  0  0
    5.8076  -19.8982   23.5068 C   0  0  2  0  0  0  0  0  0  0  0  0
    5.1114  -20.2495   22.3142 N   0  0  0  0  0  0  0  0  0  0  0  0
    6.2696  -18.5085   23.5541 C   0  0  0  0  0  0  0  0  0  0  0  0
    6.6650  -17.9605   22.4933 O   0  0  0  0  0  0  0  0  0  0  0  0
    6.3009  -17.7275   24.7368 N   0  0  0  0  0  0  0  0  0  0  0  0
    6.9034  -16.3520   24.7380 C   0  0  1  0  0  0  0  0  0  0  0  0
    6.3863  -15.7132   26.0380 C   0  0  0  0  0  0  0  0  0  0  0  0
    6.7595  -14.3637   26.3215 C   0  0  0  0  0  0  0  0  0  0  0  0
    7.9535  -14.0350   26.9181 C   0  0  0  0  0  0  0  0  0  0  0  0
    8.3228  -12.7076   27.1354 C   0  0  0  0  0  0  0  0  0  0  0  0
    7.4926  -11.6880   26.7541 C   0  0  0  0  0  0  0  0  0  0  0  0
    6.2732  -11.9801   26.1468 C   0  0  0  0  0  0  0  0  0  0  0  0
    5.9293  -13.3149   25.9422 C   0  0  0  0  0  0  0  0  0  0  0  0
    8.3730  -16.4764   24.7845 C   0  0  0  0  0  0  0  0  0  0  0  0
    8.8192  -16.9135   25.9054 O   0  0  0  0  0  0  0  0  0  0  0  0
    9.2585  -16.1638   23.7175 N   0  0  0  0  0  0  0  0  0  0  0  0
    8.8054  -15.9315   22.3713 C   0  0  0  0  0  0  0  0  0  0  0  0
    9.6122  -14.7678   21.8877 C   0  0  0  0  0  0  0  0  0  0  0  0
   10.7368  -14.6631   22.8931 C   0  0  0  0  0  0  0  0  0  0  0  0
   10.6489  -16.0206   23.6227 C   0  0  1  0  0  0  0  0  0  0  0  0
   11.5450  -16.1435   24.7143 C   0  0  0  0  0  0  0  0  0  0  0  0
   12.7938  -16.2118   24.3891 O   0  0  0  0  0  0  0  0  0  0  0  0
   11.3737  -16.2070   26.0671 O   0  0  0  0  0  0  0  0  0  0  0  0
  2  1  1  1
  3  2  1  0
  4  2  1  0
  5  4  1  0
  5  6  1  6
  7  8  2  0
  7  5  1  0
  9  7  1  0
 10  9  1  0
 10 11  1  1
 11 12  1  0
 12 17  1  0
 12 13  2  0
 13 14  1  0
 14 15  2  0
 16 15  1  0
 17 16  2  0
 18 10  1  0
 19 18  2  0
 20 21  1  0
 20 18  1  0
 22 21  1  0
 23 24  1  0
 23 22  1  0
 24 20  1  0
 25 27  1  0
 24 25  1  1
 26 25  2  0
M  END
$$$$
