LFP.pdb
     RDKit          3D

 27 28  0  0  1  0  0  0  0  0999 V2000
   13.7881  -19.2326   20.7967 C   0  0  0  0  0  0  0  0  0  0  0  0
   12.4307  -18.6656   20.4285 C   0  0  1  0  0  0  0  0  0  0  0  0
   11.3875  -19.6381   20.9521 C   0  0  0  0  0  0  0  0  0  0  0  0
   12.2242  -17.3626   21.1512 C   0  0  0  0  0  0  0  0  0  0  0  0
   10.8157  -16.8325   21.0138 C   0  0  2  0  0  0  0  0  0  0  0  0
   10.5449  -16.2734   19.7314 N   0  0  0  0  0  0  0  0  0  0  0  0
   10.5578  -15.9286   22.1378 C   0  0  0  0  0  0  0  0  0  0  0  0
   11.0922  -14.7900   22.1402 O   0  0  0  0  0  0  0  0  0  0  0  0
    9.7316  -16.2583   23.2416 N   0  0  0  0  0  0  0  0  0  0  0  0
    9.4179  -15.2423   24.3019 C   0  0  1  0  0  0  0  0  0  0  0  0
    7.9468  -14.8722   24.0484 C   0  0  0  0  0  0  0  0  0  0  0  0
    7.3215  -13.9452   24.9374 C   0  0  0  0  0  0  0  0  0  0  0  0
    7.5367  -12.5894   24.8654 C   0  0  0  0  0  0  0  0  0  0  0  0
    6.8732  -11.6967   25.7072 C   0  0  0  0  0  0  0  0  0  0  0  0
    5.9804  -12.1573   26.6371 C   0  0  0  0  0  0  0  0  0  0  0  0
    5.7354  -13.5248   26.7419 C   0  0  0  0  0  0  0  0  0  0  0  0
    6.4122  -14.3941   25.8887 C   0  0  0  0  0  0  0  0  0  0  0  0
    9.5593  -15.8777   25.6262 C   0  0  0  0  0  0  0  0  0  0  0  0
    9.1398  -17.0898   25.6650 O   0  0  0  0  0  0  0  0  0  0  0  0
   10.1075  -15.2570   26.7814 N   0  0  0  0  0  0  0  0  0  0  0  0
   10.5386  -13.8839   26.7979 C   0  0  0  0  0  0  0  0  0  0  0  0
   10.0677  -13.3472   28.1129 C   0  0  0  0  0  0  0  0  0  0  0  0
    9.7181  -14.5860   28.9064 C   0  0  0  0  0  0  0  0  0  0  0  0
   10.3898  -15.7029   28.0791 C   0  0  1  0  0  0  0  0  0  0  0  0
   10.1192  -17.0104   28.5555 C   0  0  0  0  0  0  0  0  0  0  0  0
    9.1721  -17.6318   27.9337 O   0  0  0  0  0  0  0  0  0  0  0  0
   10.6531  -17.7759   29.5517 O   0  0  0  0  0  0  0  0  0  0  0  0
  2  1  1  1
  3  2  1  0
  4  2  1  0
  5  4  1  0
  5  6  1  6
  7  8  2  0
  7  5  1  0
  9  7  1  0
 10  9  1  0
 10 11  1  6
 11 12  1  0
 12 17  1  0
 12 13  2  0
 13 14  1  0
 14 15  2  0
 16 15  1  0
 17 16  2  0
 18 10  1  0
 19 18  2  0
 20 21  1  0
 20 18  1  0
 22 21  1  0
 23 24  1  0
 23 22  1  0
 24 20  1  0
 25 27  1  0
 24 25  1  1
 26 25  2  0
M  END
$$$$
