LFP.pdb
     RDKit          3D

 27 28  0  0  1  0  0  0  0  0999 V2000
    8.7987  -12.6421   19.1791 C   0  0  0  0  0  0  0  0  0  0  0  0
    8.4611  -13.9148   19.9316 C   0  0  1  0  0  0  0  0  0  0  0  0
    7.4297  -14.6599   19.1015 C   0  0  0  0  0  0  0  0  0  0  0  0
    9.6843  -14.7871   20.0057 C   0  0  0  0  0  0  0  0  0  0  0  0
    9.5476  -15.9045   21.0138 C   0  0  2  0  0  0  0  0  0  0  0  0
    8.4378  -16.7617   20.7605 N   0  0  0  0  0  0  0  0  0  0  0  0
    9.5653  -15.3131   22.3543 C   0  0  0  0  0  0  0  0  0  0  0  0
   10.4792  -14.5014   22.6510 O   0  0  0  0  0  0  0  0  0  0  0  0
    8.6040  -15.6002   23.3559 N   0  0  0  0  0  0  0  0  0  0  0  0
    8.6333  -14.8920   24.6798 C   0  0  1  0  0  0  0  0  0  0  0  0
    7.1504  -14.6994   25.0391 C   0  0  0  0  0  0  0  0  0  0  0  0
    6.7585  -13.4687   25.6497 C   0  0  0  0  0  0  0  0  0  0  0  0
    5.8345  -13.4070   26.6655 C   0  0  0  0  0  0  0  0  0  0  0  0
    5.5072  -12.2013   27.2858 C   0  0  0  0  0  0  0  0  0  0  0  0
    6.1072  -11.0358   26.8910 C   0  0  0  0  0  0  0  0  0  0  0  0
    7.0486  -11.0566   25.8641 C   0  0  0  0  0  0  0  0  0  0  0  0
    7.3564  -12.2749   25.2618 C   0  0  0  0  0  0  0  0  0  0  0  0
    9.2855  -15.7671   25.6730 C   0  0  0  0  0  0  0  0  0  0  0  0
    8.9805  -17.0072   25.5481 O   0  0  0  0  0  0  0  0  0  0  0  0
   10.1807  -15.3336   26.6883 N   0  0  0  0  0  0  0  0  0  0  0  0
   10.7074  -13.9953   26.7436 C   0  0  0  0  0  0  0  0  0  0  0  0
   10.6648  -13.6231   28.1923 C   0  0  0  0  0  0  0  0  0  0  0  0
   10.4519  -14.9423   28.8998 C   0  0  0  0  0  0  0  0  0  0  0  0
   10.7761  -15.9639   27.7888 C   0  0  1  0  0  0  0  0  0  0  0  0
   10.5453  -17.3112   28.1641 C   0  0  0  0  0  0  0  0  0  0  0  0
   11.5312  -18.1159   27.9398 O   0  0  0  0  0  0  0  0  0  0  0  0
    9.4837  -17.9611   28.7246 O   0  0  0  0  0  0  0  0  0  0  0  0
  2  1  1  6
  3  2  1  0
  4  2  1  0
  5  4  1  0
  5  6  1  6
  7  8  2  0
  7  5  1  0
  9  7  1  0
 10  9  1  0
 10 11  1  1
 11 12  1  0
 12 17  1  0
 12 13  2  0
 13 14  1  0
 14 15  2  0
 16 15  1  0
 17 16  2  0
 18 10  1  0
 19 18  2  0
 20 21  1  0
 20 18  1  0
 22 21  1  0
 23 24  1  0
 23 22  1  0
 24 20  1  0
 25 27  1  0
 24 25  1  1
 26 25  2  0
M  END
$$$$
