LFP.pdb
     RDKit          3D

 27 28  0  0  1  0  0  0  0  0999 V2000
   11.3975  -21.0277   21.7535 C   0  0  0  0  0  0  0  0  0  0  0  0
   11.0799  -19.7354   21.0264 C   0  0  1  0  0  0  0  0  0  0  0  0
    9.6611  -19.8614   20.4980 C   0  0  0  0  0  0  0  0  0  0  0  0
   11.0871  -18.5975   22.0101 C   0  0  0  0  0  0  0  0  0  0  0  0
   10.6367  -17.2909   21.3988 C   0  0  2  0  0  0  0  0  0  0  0  0
   11.4692  -16.8505   20.3294 N   0  0  0  0  0  0  0  0  0  0  0  0
   10.4694  -16.3162   22.4800 C   0  0  0  0  0  0  0  0  0  0  0  0
   11.4504  -15.6052   22.8178 O   0  0  0  0  0  0  0  0  0  0  0  0
    9.2540  -16.1183   23.1825 N   0  0  0  0  0  0  0  0  0  0  0  0
    9.1517  -15.0928   24.2747 C   0  0  1  0  0  0  0  0  0  0  0  0
    7.6967  -14.6006   24.1969 C   0  0  0  0  0  0  0  0  0  0  0  0
    7.2670  -13.6144   25.1369 C   0  0  0  0  0  0  0  0  0  0  0  0
    7.6140  -12.2885   25.0303 C   0  0  0  0  0  0  0  0  0  0  0  0
    7.1381  -11.3324   25.9275 C   0  0  0  0  0  0  0  0  0  0  0  0
    6.3031  -11.6982   26.9489 C   0  0  0  0  0  0  0  0  0  0  0  0
    5.9289  -13.0327   27.0912 C   0  0  0  0  0  0  0  0  0  0  0  0
    6.4193  -13.9669   26.1810 C   0  0  0  0  0  0  0  0  0  0  0  0
    9.3942  -15.7535   25.5717 C   0  0  0  0  0  0  0  0  0  0  0  0
    8.8379  -16.9051   25.6767 O   0  0  0  0  0  0  0  0  0  0  0  0
   10.1680  -15.2162   26.6359 N   0  0  0  0  0  0  0  0  0  0  0  0
   10.9422  -14.0099   26.5049 C   0  0  0  0  0  0  0  0  0  0  0  0
   10.7248  -13.2703   27.7873 C   0  0  0  0  0  0  0  0  0  0  0  0
   10.1232  -14.3084   28.7075 C   0  0  0  0  0  0  0  0  0  0  0  0
   10.4183  -15.6225   27.9531 C   0  0  1  0  0  0  0  0  0  0  0  0
    9.8517  -16.7714   28.5603 C   0  0  0  0  0  0  0  0  0  0  0  0
   10.4026  -17.1270   29.6738 O   0  0  0  0  0  0  0  0  0  0  0  0
    8.8262  -17.6050   28.2183 O   0  0  0  0  0  0  0  0  0  0  0  0
  2  1  1  1
  3  2  1  0
  4  2  1  0
  5  4  1  0
  5  6  1  6
  7  8  2  0
  7  5  1  0
  9  7  1  0
 10  9  1  0
 10 11  1  1
 11 12  1  0
 12 17  1  0
 12 13  2  0
 13 14  1  0
 14 15  2  0
 16 15  1  0
 17 16  2  0
 18 10  1  0
 19 18  2  0
 20 21  1  0
 20 18  1  0
 22 21  1  0
 23 24  1  0
 23 22  1  0
 24 20  1  0
 25 27  1  0
 24 25  1  1
 26 25  2  0
M  END
$$$$
