LFP.pdb
     RDKit          3D

 27 28  0  0  1  0  0  0  0  0999 V2000
   11.7334  -20.9365   21.5496 C   0  0  0  0  0  0  0  0  0  0  0  0
   11.3549  -19.6376   20.8648 C   0  0  1  0  0  0  0  0  0  0  0  0
   10.0879  -19.9079   20.0712 C   0  0  0  0  0  0  0  0  0  0  0  0
   11.0138  -18.6079   21.9069 C   0  0  0  0  0  0  0  0  0  0  0  0
   10.5346  -17.3051   21.3095 C   0  0  2  0  0  0  0  0  0  0  0  0
   11.3467  -16.8444   20.2330 N   0  0  0  0  0  0  0  0  0  0  0  0
   10.3646  -16.3400   22.3988 C   0  0  0  0  0  0  0  0  0  0  0  0
   11.3163  -15.5692   22.6853 O   0  0  0  0  0  0  0  0  0  0  0  0
    9.1778  -16.2156   23.1643 N   0  0  0  0  0  0  0  0  0  0  0  0
    9.0556  -15.1696   24.2348 C   0  0  1  0  0  0  0  0  0  0  0  0
    7.6031  -14.6773   24.1192 C   0  0  0  0  0  0  0  0  0  0  0  0
    7.1775  -13.6225   24.9835 C   0  0  0  0  0  0  0  0  0  0  0  0
    7.5151  -12.3074   24.7691 C   0  0  0  0  0  0  0  0  0  0  0  0
    7.0430  -11.2861   25.5937 C   0  0  0  0  0  0  0  0  0  0  0  0
    6.2214  -11.5749   26.6500 C   0  0  0  0  0  0  0  0  0  0  0  0
    5.8570  -12.8960   26.9010 C   0  0  0  0  0  0  0  0  0  0  0  0
    6.3433  -13.8963   26.0616 C   0  0  0  0  0  0  0  0  0  0  0  0
    9.2717  -15.8059   25.5484 C   0  0  0  0  0  0  0  0  0  0  0  0
    8.6177  -16.8985   25.7070 O   0  0  0  0  0  0  0  0  0  0  0  0
   10.1178  -15.3054   26.5750 N   0  0  0  0  0  0  0  0  0  0  0  0
   10.8875  -14.0978   26.4309 C   0  0  0  0  0  0  0  0  0  0  0  0
   10.7603  -13.3994   27.7481 C   0  0  0  0  0  0  0  0  0  0  0  0
   10.2166  -14.4649   28.6729 C   0  0  0  0  0  0  0  0  0  0  0  0
   10.4538  -15.7548   27.8587 C   0  0  1  0  0  0  0  0  0  0  0  0
    9.9235  -16.9211   28.4654 C   0  0  0  0  0  0  0  0  0  0  0  0
   10.7877  -17.6521   29.0889 O   0  0  0  0  0  0  0  0  0  0  0  0
    8.6690  -17.4545   28.5374 O   0  0  0  0  0  0  0  0  0  0  0  0
  2  1  1  1
  3  2  1  0
  4  2  1  0
  5  4  1  0
  5  6  1  6
  7  8  2  0
  7  5  1  0
  9  7  1  0
 10  9  1  0
 10 11  1  1
 11 12  1  0
 12 17  1  0
 12 13  2  0
 13 14  1  0
 14 15  2  0
 16 15  1  0
 17 16  2  0
 18 10  1  0
 19 18  2  0
 20 21  1  0
 20 18  1  0
 22 21  1  0
 23 24  1  0
 23 22  1  0
 24 20  1  0
 25 27  1  0
 24 25  1  1
 26 25  2  0
M  END
$$$$
