LFP.pdb
     RDKit          3D

 27 28  0  0  1  0  0  0  0  0999 V2000
   11.5956  -20.9577   21.7768 C   0  0  0  0  0  0  0  0  0  0  0  0
   11.2217  -19.6804   21.0500 C   0  0  1  0  0  0  0  0  0  0  0  0
    9.8083  -19.8670   20.5249 C   0  0  0  0  0  0  0  0  0  0  0  0
   11.1826  -18.5428   22.0332 C   0  0  0  0  0  0  0  0  0  0  0  0
   10.6571  -17.2619   21.4276 C   0  0  2  0  0  0  0  0  0  0  0  0
   11.4756  -16.7562   20.3765 N   0  0  0  0  0  0  0  0  0  0  0  0
   10.4092  -16.3121   22.5155 C   0  0  0  0  0  0  0  0  0  0  0  0
   11.3114  -15.4933   22.8280 O   0  0  0  0  0  0  0  0  0  0  0  0
    9.1991  -16.2543   23.2517 N   0  0  0  0  0  0  0  0  0  0  0  0
    8.9871  -15.2080   24.3078 C   0  0  1  0  0  0  0  0  0  0  0  0
    7.5125  -14.8015   24.1476 C   0  0  0  0  0  0  0  0  0  0  0  0
    6.9915  -13.7958   25.0182 C   0  0  0  0  0  0  0  0  0  0  0  0
    6.1758  -14.0897   26.0850 C   0  0  0  0  0  0  0  0  0  0  0  0
    5.7231  -13.0984   26.9558 C   0  0  0  0  0  0  0  0  0  0  0  0
    6.0861  -11.7923   26.7647 C   0  0  0  0  0  0  0  0  0  0  0  0
    6.9112  -11.4539   25.6942 C   0  0  0  0  0  0  0  0  0  0  0  0
    7.3485  -12.4640   24.8398 C   0  0  0  0  0  0  0  0  0  0  0  0
    9.2027  -15.8197   25.6333 C   0  0  0  0  0  0  0  0  0  0  0  0
    8.6414  -16.9654   25.7709 O   0  0  0  0  0  0  0  0  0  0  0  0
    9.9572  -15.2440   26.6913 N   0  0  0  0  0  0  0  0  0  0  0  0
   10.5900  -13.9556   26.5859 C   0  0  0  0  0  0  0  0  0  0  0  0
   10.3472  -13.2969   27.9073 C   0  0  0  0  0  0  0  0  0  0  0  0
    9.9003  -14.4313   28.8017 C   0  0  0  0  0  0  0  0  0  0  0  0
   10.3045  -15.6733   27.9789 C   0  0  1  0  0  0  0  0  0  0  0  0
    9.8915  -16.9012   28.5545 C   0  0  0  0  0  0  0  0  0  0  0  0
    8.9824  -17.5357   27.8907 O   0  0  0  0  0  0  0  0  0  0  0  0
   10.2526  -17.5770   29.6842 O   0  0  0  0  0  0  0  0  0  0  0  0
  2  1  1  1
  3  2  1  0
  4  2  1  0
  5  4  1  0
  5  6  1  6
  7  8  2  0
  7  5  1  0
  9  7  1  0
 10  9  1  0
 10 11  1  1
 11 12  1  0
 12 17  1  0
 12 13  2  0
 13 14  1  0
 14 15  2  0
 16 15  1  0
 17 16  2  0
 18 10  1  0
 19 18  2  0
 20 21  1  0
 20 18  1  0
 22 21  1  0
 23 24  1  0
 23 22  1  0
 24 20  1  0
 25 27  1  0
 24 25  1  1
 26 25  2  0
M  END
$$$$
