LFP.pdb
     RDKit          3D

 27 28  0  0  1  0  0  0  0  0999 V2000
   12.0090  -19.6738   19.9507 C   0  0  0  0  0  0  0  0  0  0  0  0
   10.8089  -19.6405   20.8771 C   0  0  1  0  0  0  0  0  0  0  0  0
   10.8471  -20.9184   21.6977 C   0  0  0  0  0  0  0  0  0  0  0  0
   10.9548  -18.4923   21.8378 C   0  0  0  0  0  0  0  0  0  0  0  0
   10.4464  -17.1863   21.2726 C   0  0  2  0  0  0  0  0  0  0  0  0
   11.2301  -16.6965   20.1880 N   0  0  0  0  0  0  0  0  0  0  0  0
   10.2858  -16.2422   22.3816 C   0  0  0  0  0  0  0  0  0  0  0  0
   11.2120  -15.4278   22.6286 O   0  0  0  0  0  0  0  0  0  0  0  0
    9.1358  -16.1850   23.2086 N   0  0  0  0  0  0  0  0  0  0  0  0
    9.0091  -15.1446   24.2840 C   0  0  1  0  0  0  0  0  0  0  0  0
    7.5541  -14.6589   24.1716 C   0  0  0  0  0  0  0  0  0  0  0  0
    7.0956  -13.6800   25.1056 C   0  0  0  0  0  0  0  0  0  0  0  0
    7.4724  -12.3597   25.0397 C   0  0  0  0  0  0  0  0  0  0  0  0
    6.9693  -11.4092   25.9281 C   0  0  0  0  0  0  0  0  0  0  0  0
    6.0766  -11.7752   26.8993 C   0  0  0  0  0  0  0  0  0  0  0  0
    5.6706  -13.1043   26.9993 C   0  0  0  0  0  0  0  0  0  0  0  0
    6.1892  -14.0329   26.0990 C   0  0  0  0  0  0  0  0  0  0  0  0
    9.2290  -15.7861   25.5946 C   0  0  0  0  0  0  0  0  0  0  0  0
    8.5581  -16.8675   25.7594 O   0  0  0  0  0  0  0  0  0  0  0  0
   10.0950  -15.3014   26.6120 N   0  0  0  0  0  0  0  0  0  0  0  0
   10.9033  -14.1215   26.4506 C   0  0  0  0  0  0  0  0  0  0  0  0
   10.8042  -13.4035   27.7597 C   0  0  0  0  0  0  0  0  0  0  0  0
   10.2293  -14.4394   28.6992 C   0  0  0  0  0  0  0  0  0  0  0  0
   10.4210  -15.7461   27.9000 C   0  0  1  0  0  0  0  0  0  0  0  0
    9.8550  -16.8869   28.5227 C   0  0  0  0  0  0  0  0  0  0  0  0
    8.7564  -17.3099   27.9899 O   0  0  0  0  0  0  0  0  0  0  0  0
   10.2254  -17.6557   29.5882 O   0  0  0  0  0  0  0  0  0  0  0  0
  2  1  1  6
  3  2  1  0
  4  2  1  0
  5  4  1  0
  5  6  1  6
  7  8  2  0
  7  5  1  0
  9  7  1  0
 10  9  1  0
 10 11  1  1
 11 12  1  0
 12 17  1  0
 12 13  2  0
 13 14  1  0
 14 15  2  0
 16 15  1  0
 17 16  2  0
 18 10  1  0
 19 18  2  0
 20 21  1  0
 20 18  1  0
 22 21  1  0
 23 24  1  0
 23 22  1  0
 24 20  1  0
 25 27  1  0
 24 25  1  1
 26 25  2  0
M  END
$$$$
