DVF.pdb
     RDKit          3D

 27 27  0  0  1  0  0  0  0  0999 V2000
   10.6626  -18.0459   18.2351 N   0  0  0  0  0  0  0  0  0  0  0  0
    9.6317  -18.0999   19.2457 C   0  0  1  0  0  0  0  0  0  0  0  0
    9.7673  -19.4202   19.9635 C   0  0  0  0  0  0  0  0  0  0  0  0
    8.8882  -20.3976   19.2795 C   0  0  0  0  0  0  0  0  0  0  0  0
    8.7058  -20.3949   18.0368 O   0  0  0  0  0  0  0  0  0  0  0  0
    9.7541  -16.9461   20.1366 C   0  0  0  0  0  0  0  0  0  0  0  0
   10.8769  -16.6814   20.6372 O   0  0  0  0  0  0  0  0  0  0  0  0
    8.2323  -21.3616   20.0285 O   0  0  0  0  0  0  0  0  0  0  0  0
    8.2087  -12.6522   21.9030 C   0  0  0  0  0  0  0  0  0  0  0  0
    7.8373  -13.8795   21.1198 C   0  0  2  0  0  0  0  0  0  0  0  0
    6.4821  -14.4207   21.5088 C   0  0  0  0  0  0  0  0  0  0  0  0
    8.8596  -15.0021   21.3499 C   0  0  2  0  0  0  0  0  0  0  0  0
    8.6438  -16.0967   20.4675 N   0  0  0  0  0  0  0  0  0  0  0  0
    8.7062  -15.3781   22.7861 C   0  0  0  0  0  0  0  0  0  0  0  0
    7.8302  -16.2285   23.0694 O   0  0  0  0  0  0  0  0  0  0  0  0
    9.5128  -14.8039   23.8045 N   0  0  0  0  0  0  0  0  0  0  0  0
    9.3820  -15.1777   25.2054 C   0  0  1  0  0  0  0  0  0  0  0  0
    7.9032  -15.1120   25.5475 C   0  0  0  0  0  0  0  0  0  0  0  0
    7.4955  -13.7627   26.0080 C   0  0  0  0  0  0  0  0  0  0  0  0
    8.4569  -12.7978   26.1824 C   0  0  0  0  0  0  0  0  0  0  0  0
    8.0726  -11.5255   26.6158 C   0  0  0  0  0  0  0  0  0  0  0  0
    6.7408  -11.2420   26.8660 C   0  0  0  0  0  0  0  0  0  0  0  0
    5.7663  -12.2270   26.6874 C   0  0  0  0  0  0  0  0  0  0  0  0
    6.1815  -13.4688   26.2593 C   0  0  0  0  0  0  0  0  0  0  0  0
    9.8077  -16.5846   25.4320 C   0  0  0  0  0  0  0  0  0  0  0  0
   10.2519  -17.3901   24.4243 O   0  0  0  0  0  0  0  0  0  0  0  0
    9.7441  -17.0206   26.6110 O   0  0  0  0  0  0  0  0  0  0  0  0
  2  3  1  0
  2  1  1  6
  4  3  1  0
  4  8  1  0
  5  4  2  0
  6  2  1  0
  7  6  2  0
 10  9  1  1
 10 12  1  0
 11 10  1  0
 12 13  1  6
 13  6  1  0
 14 12  1  0
 14 16  1  0
 15 14  2  0
 17 16  1  0
 17 25  1  0
 17 18  1  6
 19 18  1  0
 19 20  2  0
 21 20  1  0
 22 21  2  0
 23 24  2  0
 23 22  1  0
 24 19  1  0
 25 26  1  0
 27 25  2  0
M  END
$$$$
