DVF.pdb
     RDKit          3D

 27 27  0  0  1  0  0  0  0  0999 V2000
   12.0410  -13.8543   18.5959 N   0  0  0  0  0  0  0  0  0  0  0  0
   12.0699  -14.8708   19.6221 C   0  0  1  0  0  0  0  0  0  0  0  0
   13.4998  -15.0113   20.0829 C   0  0  0  0  0  0  0  0  0  0  0  0
   14.2746  -15.6119   18.9716 C   0  0  0  0  0  0  0  0  0  0  0  0
   13.7368  -16.0346   17.9183 O   0  0  0  0  0  0  0  0  0  0  0  0
   11.1514  -14.5077   20.7011 C   0  0  0  0  0  0  0  0  0  0  0  0
   11.3775  -13.4648   21.3665 O   0  0  0  0  0  0  0  0  0  0  0  0
   15.6517  -15.7191   19.0841 O   0  0  0  0  0  0  0  0  0  0  0  0
    7.3913  -14.0898   20.4784 C   0  0  0  0  0  0  0  0  0  0  0  0
    7.6664  -14.9283   21.6945 C   0  0  2  0  0  0  0  0  0  0  0  0
    6.8590  -14.4861   22.8916 C   0  0  0  0  0  0  0  0  0  0  0  0
    9.1484  -14.8460   22.0886 C   0  0  2  0  0  0  0  0  0  0  0  0
    9.9961  -15.2927   21.0374 N   0  0  0  0  0  0  0  0  0  0  0  0
    9.2686  -15.6783   23.3217 C   0  0  0  0  0  0  0  0  0  0  0  0
    9.5556  -16.8893   23.1745 O   0  0  0  0  0  0  0  0  0  0  0  0
    9.0684  -15.1349   24.6187 N   0  0  0  0  0  0  0  0  0  0  0  0
    9.2685  -15.9168   25.8302 C   0  0  1  0  0  0  0  0  0  0  0  0
    9.0822  -14.9723   27.0056 C   0  0  0  0  0  0  0  0  0  0  0  0
    8.2390  -13.8039   26.6554 C   0  0  0  0  0  0  0  0  0  0  0  0
    8.8400  -12.6667   26.1746 C   0  0  0  0  0  0  0  0  0  0  0  0
    8.0451  -11.5654   25.8437 C   0  0  0  0  0  0  0  0  0  0  0  0
    6.6705  -11.6202   25.9987 C   0  0  0  0  0  0  0  0  0  0  0  0
    6.0635  -12.7794   26.4885 C   0  0  0  0  0  0  0  0  0  0  0  0
    6.8779  -13.8447   26.8040 C   0  0  0  0  0  0  0  0  0  0  0  0
    8.2328  -16.9752   25.9683 C   0  0  0  0  0  0  0  0  0  0  0  0
    7.2080  -17.1221   25.0795 O   0  0  0  0  0  0  0  0  0  0  0  0
    8.3326  -17.7506   26.9547 O   0  0  0  0  0  0  0  0  0  0  0  0
  2  3  1  0
  2  1  1  6
  4  3  1  0
  4  8  1  0
  5  4  2  0
  6  2  1  0
  7  6  2  0
 10  9  1  6
 10 12  1  0
 11 10  1  0
 12 13  1  6
 13  6  1  0
 14 12  1  0
 14 16  1  0
 15 14  2  0
 17 16  1  0
 17 25  1  0
 17 18  1  1
 19 18  1  0
 19 20  2  0
 21 20  1  0
 22 21  2  0
 23 24  2  0
 23 22  1  0
 24 19  1  0
 25 26  1  0
 27 25  2  0
M  END
$$$$
