DVF.pdb
     RDKit          3D

 27 27  0  0  1  0  0  0  0  0999 V2000
    8.4321  -17.6027   17.9259 N   0  0  0  0  0  0  0  0  0  0  0  0
    9.0457  -17.7780   19.2219 C   0  0  1  0  0  0  0  0  0  0  0  0
   10.2539  -18.6629   19.0371 C   0  0  0  0  0  0  0  0  0  0  0  0
    9.7691  -20.0323   18.7442 C   0  0  0  0  0  0  0  0  0  0  0  0
    9.3954  -20.3912   17.6001 O   0  0  0  0  0  0  0  0  0  0  0  0
    9.3722  -16.4716   19.7932 C   0  0  0  0  0  0  0  0  0  0  0  0
    9.6844  -15.5308   19.0193 O   0  0  0  0  0  0  0  0  0  0  0  0
    9.7197  -20.9681   19.7652 O   0  0  0  0  0  0  0  0  0  0  0  0
    7.7222  -14.1969   19.7161 C   0  0  0  0  0  0  0  0  0  0  0  0
    7.7812  -14.3357   21.2110 C   0  0  2  0  0  0  0  0  0  0  0  0
    7.5710  -13.0183   21.9189 C   0  0  0  0  0  0  0  0  0  0  0  0
    9.1480  -14.8782   21.6539 C   0  0  2  0  0  0  0  0  0  0  0  0
    9.3525  -16.2127   21.2061 N   0  0  0  0  0  0  0  0  0  0  0  0
    9.1482  -14.7610   23.1418 C   0  0  0  0  0  0  0  0  0  0  0  0
    9.0393  -13.6118   23.6299 O   0  0  0  0  0  0  0  0  0  0  0  0
    9.2667  -15.8972   23.9860 N   0  0  0  0  0  0  0  0  0  0  0  0
    9.0892  -15.8175   25.4287 C   0  0  1  0  0  0  0  0  0  0  0  0
    7.6277  -15.4875   25.6800 C   0  0  0  0  0  0  0  0  0  0  0  0
    7.4334  -14.0690   26.0659 C   0  0  0  0  0  0  0  0  0  0  0  0
    6.1611  -13.5532   26.0958 C   0  0  0  0  0  0  0  0  0  0  0  0
    5.9778  -12.2162   26.4603 C   0  0  0  0  0  0  0  0  0  0  0  0
    7.0641  -11.4225   26.7868 C   0  0  0  0  0  0  0  0  0  0  0  0
    8.3568  -11.9516   26.7548 C   0  0  0  0  0  0  0  0  0  0  0  0
    8.4995  -13.2727   26.3911 C   0  0  0  0  0  0  0  0  0  0  0  0
    9.3454  -17.1305   26.0787 C   0  0  0  0  0  0  0  0  0  0  0  0
    9.6150  -18.2632   25.3674 O   0  0  0  0  0  0  0  0  0  0  0  0
    9.3049  -17.1660   27.3361 O   0  0  0  0  0  0  0  0  0  0  0  0
  2  3  1  0
  2  1  1  6
  4  3  1  0
  4  8  1  0
  5  4  2  0
  6  2  1  0
  7  6  2  0
 10  9  1  6
 10 12  1  0
 11 10  1  0
 12 13  1  1
 13  6  1  0
 14 12  1  0
 14 16  1  0
 15 14  2  0
 17 16  1  0
 17 25  1  0
 17 18  1  6
 19 18  1  0
 19 20  2  0
 21 20  1  0
 22 21  2  0
 23 24  2  0
 23 22  1  0
 24 19  1  0
 25 26  1  0
 27 25  2  0
M  END
$$$$
