DVF.pdb
     RDKit          3D

 27 27  0  0  1  0  0  0  0  0999 V2000
   12.1365  -16.5458   19.8254 N   0  0  0  0  0  0  0  0  0  0  0  0
   12.2912  -15.3637   20.6412 C   0  0  1  0  0  0  0  0  0  0  0  0
   12.6069  -14.2123   19.7184 C   0  0  0  0  0  0  0  0  0  0  0  0
   13.9564  -14.4454   19.1521 C   0  0  0  0  0  0  0  0  0  0  0  0
   14.2295  -15.4371   18.4315 O   0  0  0  0  0  0  0  0  0  0  0  0
   11.0802  -15.1498   21.4334 C   0  0  0  0  0  0  0  0  0  0  0  0
   11.0532  -14.2006   22.2578 O   0  0  0  0  0  0  0  0  0  0  0  0
   14.9709  -13.5401   19.4200 O   0  0  0  0  0  0  0  0  0  0  0  0
    7.2529  -15.7978   20.1493 C   0  0  0  0  0  0  0  0  0  0  0  0
    7.4982  -16.3014   21.5435 C   0  0  2  0  0  0  0  0  0  0  0  0
    6.3707  -15.9542   22.4863 C   0  0  0  0  0  0  0  0  0  0  0  0
    8.7824  -15.6915   22.1245 C   0  0  2  0  0  0  0  0  0  0  0  0
    9.9138  -15.9795   21.3120 N   0  0  0  0  0  0  0  0  0  0  0  0
    8.8963  -16.2636   23.4983 C   0  0  0  0  0  0  0  0  0  0  0  0
    9.8030  -17.1051   23.6994 O   0  0  0  0  0  0  0  0  0  0  0  0
    8.0194  -15.8804   24.5479 N   0  0  0  0  0  0  0  0  0  0  0  0
    8.2159  -16.3128   25.9241 C   0  0  1  0  0  0  0  0  0  0  0  0
    7.1770  -15.5952   26.7690 C   0  0  0  0  0  0  0  0  0  0  0  0
    7.2990  -14.1205   26.6713 C   0  0  0  0  0  0  0  0  0  0  0  0
    8.4919  -13.5258   27.0012 C   0  0  0  0  0  0  0  0  0  0  0  0
    8.6072  -12.1358   26.9084 C   0  0  0  0  0  0  0  0  0  0  0  0
    7.5333  -11.3689   26.4897 C   0  0  0  0  0  0  0  0  0  0  0  0
    6.3215  -11.9784   26.1553 C   0  0  0  0  0  0  0  0  0  0  0  0
    6.2443  -13.3500   26.2586 C   0  0  0  0  0  0  0  0  0  0  0  0
    7.9541  -17.7689   26.0763 C   0  0  0  0  0  0  0  0  0  0  0  0
    8.4019  -18.4891   27.1452 O   0  0  0  0  0  0  0  0  0  0  0  0
    7.2903  -18.3309   25.1664 O   0  0  0  0  0  0  0  0  0  0  0  0
  2  3  1  0
  2  1  1  6
  4  3  1  0
  4  8  1  0
  5  4  2  0
  6  2  1  0
  7  6  2  0
 10  9  1  6
 10 12  1  0
 11 10  1  0
 12 13  1  6
 13  6  1  0
 14 12  1  0
 14 16  1  0
 15 14  2  0
 17 16  1  0
 17 25  1  0
 17 18  1  1
 19 18  1  0
 19 20  2  0
 21 20  1  0
 22 21  2  0
 23 24  2  0
 23 22  1  0
 24 19  1  0
 25 26  1  0
 27 25  2  0
M  END
$$$$
