DVF.pdb
     RDKit          3D

 27 27  0  0  1  0  0  0  0  0999 V2000
   11.0975  -16.9286   18.1635 N   0  0  0  0  0  0  0  0  0  0  0  0
   10.9703  -17.6020   19.4353 C   0  0  1  0  0  0  0  0  0  0  0  0
   12.3274  -18.1551   19.7947 C   0  0  0  0  0  0  0  0  0  0  0  0
   12.3928  -19.5490   19.2959 C   0  0  0  0  0  0  0  0  0  0  0  0
   11.5753  -20.0120   18.4624 O   0  0  0  0  0  0  0  0  0  0  0  0
   10.4456  -16.6719   20.4349 C   0  0  0  0  0  0  0  0  0  0  0  0
   11.1162  -15.6481   20.7235 O   0  0  0  0  0  0  0  0  0  0  0  0
   13.3922  -20.3898   19.7592 O   0  0  0  0  0  0  0  0  0  0  0  0
    7.1084  -14.9210   20.3326 C   0  0  0  0  0  0  0  0  0  0  0  0
    7.2546  -15.5062   21.7088 C   0  0  2  0  0  0  0  0  0  0  0  0
    6.8122  -14.5490   22.7899 C   0  0  0  0  0  0  0  0  0  0  0  0
    8.7194  -15.8694   21.9930 C   0  0  2  0  0  0  0  0  0  0  0  0
    9.1917  -16.8759   21.1058 N   0  0  0  0  0  0  0  0  0  0  0  0
    8.7418  -16.3011   23.4217 C   0  0  0  0  0  0  0  0  0  0  0  0
    8.4966  -17.5060   23.6641 O   0  0  0  0  0  0  0  0  0  0  0  0
    9.0275  -15.3944   24.4771 N   0  0  0  0  0  0  0  0  0  0  0  0
    9.2253  -15.8352   25.8504 C   0  0  1  0  0  0  0  0  0  0  0  0
    9.4391  -14.5884   26.6918 C   0  0  0  0  0  0  0  0  0  0  0  0
    8.3520  -13.5967   26.5077 C   0  0  0  0  0  0  0  0  0  0  0  0
    8.4764  -12.6438   25.5269 C   0  0  0  0  0  0  0  0  0  0  0  0
    7.4512  -11.7095   25.3529 C   0  0  0  0  0  0  0  0  0  0  0  0
    6.3259  -11.7441   26.1584 C   0  0  0  0  0  0  0  0  0  0  0  0
    6.2039  -12.7155   27.1552 C   0  0  0  0  0  0  0  0  0  0  0  0
    7.2334  -13.6198   27.2979 C   0  0  0  0  0  0  0  0  0  0  0  0
    8.0090  -16.5039   26.3846 C   0  0  0  0  0  0  0  0  0  0  0  0
    8.0111  -17.2124   27.5506 O   0  0  0  0  0  0  0  0  0  0  0  0
    6.9511  -16.3937   25.7116 O   0  0  0  0  0  0  0  0  0  0  0  0
  2  3  1  0
  2  1  1  6
  4  3  1  0
  4  8  1  0
  5  4  2  0
  6  2  1  0
  7  6  2  0
 10  9  1  6
 10 12  1  0
 11 10  1  0
 12 13  1  6
 13  6  1  0
 14 12  1  0
 14 16  1  0
 15 14  2  0
 17 16  1  0
 17 25  1  0
 17 18  1  1
 19 18  1  0
 19 20  2  0
 21 20  1  0
 22 21  2  0
 23 24  2  0
 23 22  1  0
 24 19  1  0
 25 26  1  0
 27 25  2  0
M  END
$$$$
