DVF.pdb
     RDKit          3D

 27 27  0  0  1  0  0  0  0  0999 V2000
    9.8554  -18.2440   18.7194 N   0  0  0  0  0  0  0  0  0  0  0  0
    9.4342  -18.2436   20.1013 C   0  0  1  0  0  0  0  0  0  0  0  0
   10.2392  -19.2967   20.8224 C   0  0  0  0  0  0  0  0  0  0  0  0
    9.7787  -20.6218   20.3447 C   0  0  0  0  0  0  0  0  0  0  0  0
   10.1781  -21.1334   19.2694 O   0  0  0  0  0  0  0  0  0  0  0  0
    9.6014  -16.9050   20.6669 C   0  0  0  0  0  0  0  0  0  0  0  0
   10.7543  -16.4053   20.7150 O   0  0  0  0  0  0  0  0  0  0  0  0
    8.8689  -21.3391   21.1050 O   0  0  0  0  0  0  0  0  0  0  0  0
    7.1023  -13.8606   19.9756 C   0  0  0  0  0  0  0  0  0  0  0  0
    7.5121  -13.9057   21.4205 C   0  0  2  0  0  0  0  0  0  0  0  0
    7.8606  -12.5395   21.9615 C   0  0  0  0  0  0  0  0  0  0  0  0
    8.7472  -14.7990   21.6083 C   0  0  2  0  0  0  0  0  0  0  0  0
    8.5021  -16.1307   21.1729 N   0  0  0  0  0  0  0  0  0  0  0  0
    9.0679  -14.7161   23.0637 C   0  0  0  0  0  0  0  0  0  0  0  0
    9.1789  -13.5732   23.5658 O   0  0  0  0  0  0  0  0  0  0  0  0
    9.2441  -15.8773   23.8625 N   0  0  0  0  0  0  0  0  0  0  0  0
    9.0778  -15.8605   25.3087 C   0  0  1  0  0  0  0  0  0  0  0  0
    7.5847  -15.8077   25.5846 C   0  0  0  0  0  0  0  0  0  0  0  0
    7.1299  -14.4417   25.9397 C   0  0  0  0  0  0  0  0  0  0  0  0
    7.9614  -13.6302   26.6718 C   0  0  0  0  0  0  0  0  0  0  0  0
    7.5330  -12.3422   27.0059 C   0  0  0  0  0  0  0  0  0  0  0  0
    6.2875  -11.8906   26.6044 C   0  0  0  0  0  0  0  0  0  0  0  0
    5.4449  -12.7199   25.8598 C   0  0  0  0  0  0  0  0  0  0  0  0
    5.9001  -13.9824   25.5489 C   0  0  0  0  0  0  0  0  0  0  0  0
    9.5790  -17.1174   25.9257 C   0  0  0  0  0  0  0  0  0  0  0  0
    9.7261  -17.2674   27.2738 O   0  0  0  0  0  0  0  0  0  0  0  0
    9.8708  -18.0623   25.1470 O   0  0  0  0  0  0  0  0  0  0  0  0
  2  3  1  0
  2  1  1  6
  4  3  1  0
  4  8  1  0
  5  4  2  0
  6  2  1  0
  7  6  2  0
 10  9  1  6
 10 12  1  0
 11 10  1  0
 12 13  1  1
 13  6  1  0
 14 12  1  0
 14 16  1  0
 15 14  2  0
 17 16  1  0
 17 25  1  0
 17 18  1  6
 19 18  1  0
 19 20  2  0
 21 20  1  0
 22 21  2  0
 23 24  2  0
 23 22  1  0
 24 19  1  0
 25 26  1  0
 27 25  2  0
M  END
$$$$
