DVF.pdb
     RDKit          3D

 27 27  0  0  1  0  0  0  0  0999 V2000
   10.7592  -18.5557   19.5460 N   0  0  0  0  0  0  0  0  0  0  0  0
   11.6356  -17.6417   20.2414 C   0  0  1  0  0  0  0  0  0  0  0  0
   12.5003  -16.9647   19.2066 C   0  0  0  0  0  0  0  0  0  0  0  0
   13.5757  -17.9116   18.8284 C   0  0  0  0  0  0  0  0  0  0  0  0
   13.3783  -18.9015   18.0809 O   0  0  0  0  0  0  0  0  0  0  0  0
   10.8405  -16.7009   21.0304 C   0  0  0  0  0  0  0  0  0  0  0  0
   11.4287  -15.9322   21.8332 O   0  0  0  0  0  0  0  0  0  0  0  0
   14.8587  -17.7104   19.3119 O   0  0  0  0  0  0  0  0  0  0  0  0
    7.3467  -14.7722   19.9306 C   0  0  0  0  0  0  0  0  0  0  0  0
    7.2989  -15.4268   21.2822 C   0  0  2  0  0  0  0  0  0  0  0  0
    6.6211  -14.5599   22.3165 C   0  0  0  0  0  0  0  0  0  0  0  0
    8.7162  -15.7232   21.7940 C   0  0  2  0  0  0  0  0  0  0  0  0
    9.4100  -16.6146   20.9295 N   0  0  0  0  0  0  0  0  0  0  0  0
    8.5248  -16.2797   23.1657 C   0  0  0  0  0  0  0  0  0  0  0  0
    8.2446  -17.4975   23.2602 O   0  0  0  0  0  0  0  0  0  0  0  0
    8.6514  -15.4742   24.3287 N   0  0  0  0  0  0  0  0  0  0  0  0
    8.6970  -16.0421   25.6684 C   0  0  1  0  0  0  0  0  0  0  0  0
    9.1841  -14.9457   26.6005 C   0  0  0  0  0  0  0  0  0  0  0  0
    8.3686  -13.7124   26.4867 C   0  0  0  0  0  0  0  0  0  0  0  0
    8.2039  -13.1321   25.2531 C   0  0  0  0  0  0  0  0  0  0  0  0
    7.4346  -11.9699   25.1457 C   0  0  0  0  0  0  0  0  0  0  0  0
    6.8467  -11.4112   26.2677 C   0  0  0  0  0  0  0  0  0  0  0  0
    7.0173  -12.0051   27.5207 C   0  0  0  0  0  0  0  0  0  0  0  0
    7.7815  -13.1493   27.5887 C   0  0  0  0  0  0  0  0  0  0  0  0
    7.3399  -16.4273   26.1393 C   0  0  0  0  0  0  0  0  0  0  0  0
    6.2077  -16.1414   25.4335 O   0  0  0  0  0  0  0  0  0  0  0  0
    7.2655  -17.0402   27.2361 O   0  0  0  0  0  0  0  0  0  0  0  0
  2  3  1  0
  2  1  1  6
  4  3  1  0
  4  8  1  0
  5  4  2  0
  6  2  1  0
  7  6  2  0
 10  9  1  6
 10 12  1  0
 11 10  1  0
 12 13  1  6
 13  6  1  0
 14 12  1  0
 14 16  1  0
 15 14  2  0
 17 16  1  0
 17 25  1  0
 17 18  1  1
 19 18  1  0
 19 20  2  0
 21 20  1  0
 22 21  2  0
 23 24  2  0
 23 22  1  0
 24 19  1  0
 25 26  1  0
 27 25  2  0
M  END
$$$$
