DVF.pdb
     RDKit          3D

 27 27  0  0  1  0  0  0  0  0999 V2000
   12.1645  -16.9103   19.1204 N   0  0  0  0  0  0  0  0  0  0  0  0
   11.0392  -17.4899   19.8167 C   0  0  1  0  0  0  0  0  0  0  0  0
   11.5170  -18.7612   20.4742 C   0  0  0  0  0  0  0  0  0  0  0  0
   11.8691  -19.7195   19.4001 C   0  0  0  0  0  0  0  0  0  0  0  0
   11.2592  -19.7656   18.3031 O   0  0  0  0  0  0  0  0  0  0  0  0
   10.4956  -16.5203   20.7675 C   0  0  0  0  0  0  0  0  0  0  0  0
   11.2851  -15.9162   21.5377 O   0  0  0  0  0  0  0  0  0  0  0  0
   12.9128  -20.6092   19.5991 O   0  0  0  0  0  0  0  0  0  0  0  0
    7.5299  -13.8590   20.1915 C   0  0  0  0  0  0  0  0  0  0  0  0
    7.3478  -14.6210   21.4736 C   0  0  2  0  0  0  0  0  0  0  0  0
    6.9527  -13.7248   22.6232 C   0  0  0  0  0  0  0  0  0  0  0  0
    8.6495  -15.3302   21.8750 C   0  0  2  0  0  0  0  0  0  0  0  0
    9.0929  -16.2250   20.8622 N   0  0  0  0  0  0  0  0  0  0  0  0
    8.3343  -16.0214   23.1598 C   0  0  0  0  0  0  0  0  0  0  0  0
    7.7689  -17.1377   23.0907 O   0  0  0  0  0  0  0  0  0  0  0  0
    8.6554  -15.4500   24.4200 N   0  0  0  0  0  0  0  0  0  0  0  0
    8.5045  -16.1830   25.6687 C   0  0  1  0  0  0  0  0  0  0  0  0
    8.7178  -15.1885   26.7973 C   0  0  0  0  0  0  0  0  0  0  0  0
    7.9187  -13.9531   26.6121 C   0  0  0  0  0  0  0  0  0  0  0  0
    6.5825  -13.9684   26.9283 C   0  0  0  0  0  0  0  0  0  0  0  0
    5.8294  -12.8036   26.7545 C   0  0  0  0  0  0  0  0  0  0  0  0
    6.4222  -11.6503   26.2699 C   0  0  0  0  0  0  0  0  0  0  0  0
    7.7821  -11.6396   25.9494 C   0  0  0  0  0  0  0  0  0  0  0  0
    8.4929  -12.8053   26.1335 C   0  0  0  0  0  0  0  0  0  0  0  0
    7.1224  -16.7099   25.8232 C   0  0  0  0  0  0  0  0  0  0  0  0
    6.1020  -16.3541   24.9902 O   0  0  0  0  0  0  0  0  0  0  0  0
    6.9172  -17.5141   26.7695 O   0  0  0  0  0  0  0  0  0  0  0  0
  2  3  1  0
  2  1  1  1
  4  3  1  0
  4  8  1  0
  5  4  2  0
  6  2  1  0
  7  6  2  0
 10  9  1  6
 10 12  1  0
 11 10  1  0
 12 13  1  6
 13  6  1  0
 14 12  1  0
 14 16  1  0
 15 14  2  0
 17 16  1  0
 17 25  1  0
 17 18  1  1
 19 18  1  0
 19 20  2  0
 21 20  1  0
 22 21  2  0
 23 24  2  0
 23 22  1  0
 24 19  1  0
 25 26  1  0
 27 25  2  0
M  END
$$$$
