DVF.pdb
     RDKit          3D

 27 27  0  0  1  0  0  0  0  0999 V2000
    9.2026  -18.4731   18.3619 N   0  0  0  0  0  0  0  0  0  0  0  0
    8.5511  -18.2124   19.6247 C   0  0  1  0  0  0  0  0  0  0  0  0
    8.8947  -19.3481   20.5568 C   0  0  0  0  0  0  0  0  0  0  0  0
    7.6605  -20.1376   20.7795 C   0  0  0  0  0  0  0  0  0  0  0  0
    6.5097  -19.6562   20.6334 O   0  0  0  0  0  0  0  0  0  0  0  0
    8.9674  -16.9055   20.1332 C   0  0  0  0  0  0  0  0  0  0  0  0
   10.1901  -16.6116   20.1248 O   0  0  0  0  0  0  0  0  0  0  0  0
    7.7636  -21.4644   21.1660 O   0  0  0  0  0  0  0  0  0  0  0  0
    7.1809  -13.3071   19.5401 C   0  0  0  0  0  0  0  0  0  0  0  0
    7.4938  -13.5747   20.9851 C   0  0  2  0  0  0  0  0  0  0  0  0
    8.0473  -12.3580   21.6878 C   0  0  0  0  0  0  0  0  0  0  0  0
    8.5385  -14.6925   21.1179 C   0  0  2  0  0  0  0  0  0  0  0  0
    8.0379  -15.9369   20.6447 N   0  0  0  0  0  0  0  0  0  0  0  0
    8.8901  -14.7243   22.5681 C   0  0  0  0  0  0  0  0  0  0  0  0
    9.5960  -13.7884   23.0112 O   0  0  0  0  0  0  0  0  0  0  0  0
    8.4503  -15.7674   23.4261 N   0  0  0  0  0  0  0  0  0  0  0  0
    8.7586  -15.7879   24.8488 C   0  0  1  0  0  0  0  0  0  0  0  0
    7.4698  -15.4707   25.5882 C   0  0  0  0  0  0  0  0  0  0  0  0
    7.3784  -14.0388   25.9628 C   0  0  0  0  0  0  0  0  0  0  0  0
    6.1571  -13.4129   25.9156 C   0  0  0  0  0  0  0  0  0  0  0  0
    6.0706  -12.0633   26.2696 C   0  0  0  0  0  0  0  0  0  0  0  0
    7.2009  -11.3670   26.6623 C   0  0  0  0  0  0  0  0  0  0  0  0
    8.4414  -12.0081   26.7086 C   0  0  0  0  0  0  0  0  0  0  0  0
    8.4888  -13.3382   26.3531 C   0  0  0  0  0  0  0  0  0  0  0  0
    9.1791  -17.1439   25.2919 C   0  0  0  0  0  0  0  0  0  0  0  0
    9.2135  -18.2157   24.4482 O   0  0  0  0  0  0  0  0  0  0  0  0
    9.5104  -17.2761   26.4989 O   0  0  0  0  0  0  0  0  0  0  0  0
  2  3  1  0
  2  1  1  6
  4  3  1  0
  4  8  1  0
  5  4  2  0
  6  2  1  0
  7  6  2  0
 10  9  1  6
 10 12  1  0
 11 10  1  0
 12 13  1  1
 13  6  1  0
 14 12  1  0
 14 16  1  0
 15 14  2  0
 17 16  1  0
 17 25  1  0
 17 18  1  1
 19 18  1  0
 19 20  2  0
 21 20  1  0
 22 21  2  0
 23 24  2  0
 23 22  1  0
 24 19  1  0
 25 26  1  0
 27 25  2  0
M  END
$$$$
