DVF.pdb
     RDKit          3D

 27 27  0  0  1  0  0  0  0  0999 V2000
    8.5836  -18.8328   18.7018 N   0  0  0  0  0  0  0  0  0  0  0  0
    8.3768  -18.5605   20.1054 C   0  0  1  0  0  0  0  0  0  0  0  0
    9.2619  -19.5005   20.8863 C   0  0  0  0  0  0  0  0  0  0  0  0
    8.8401  -20.8852   20.5686 C   0  0  0  0  0  0  0  0  0  0  0  0
    7.6403  -21.2549   20.6008 O   0  0  0  0  0  0  0  0  0  0  0  0
    8.6527  -17.1504   20.3796 C   0  0  0  0  0  0  0  0  0  0  0  0
    9.7337  -16.6526   19.9734 O   0  0  0  0  0  0  0  0  0  0  0  0
    9.7982  -21.8236   20.2196 O   0  0  0  0  0  0  0  0  0  0  0  0
    6.5384  -14.0363   19.6666 C   0  0  0  0  0  0  0  0  0  0  0  0
    6.9697  -13.9798   21.1048 C   0  0  2  0  0  0  0  0  0  0  0  0
    7.4501  -12.6057   21.5069 C   0  0  0  0  0  0  0  0  0  0  0  0
    8.1224  -14.9603   21.3663 C   0  0  2  0  0  0  0  0  0  0  0  0
    7.7399  -16.3033   21.0960 N   0  0  0  0  0  0  0  0  0  0  0  0
    8.5003  -14.7428   22.7938 C   0  0  0  0  0  0  0  0  0  0  0  0
    8.1289  -13.6739   23.3324 O   0  0  0  0  0  0  0  0  0  0  0  0
    9.2513  -15.6995   23.5274 N   0  0  0  0  0  0  0  0  0  0  0  0
    9.5269  -15.5496   24.9490 C   0  0  1  0  0  0  0  0  0  0  0  0
    8.1854  -15.5128   25.6611 C   0  0  0  0  0  0  0  0  0  0  0  0
    7.7163  -14.1262   25.8981 C   0  0  0  0  0  0  0  0  0  0  0  0
    8.5201  -13.2594   26.5967 C   0  0  0  0  0  0  0  0  0  0  0  0
    8.0783  -11.9520   26.8194 C   0  0  0  0  0  0  0  0  0  0  0  0
    6.8469  -11.5365   26.3423 C   0  0  0  0  0  0  0  0  0  0  0  0
    6.0324  -12.4221   25.6322 C   0  0  0  0  0  0  0  0  0  0  0  0
    6.5002  -13.7022   25.4316 C   0  0  0  0  0  0  0  0  0  0  0  0
   10.2597  -16.7274   25.4853 C   0  0  0  0  0  0  0  0  0  0  0  0
   10.8720  -16.7202   26.7046 O   0  0  0  0  0  0  0  0  0  0  0  0
   10.2990  -17.7568   24.7622 O   0  0  0  0  0  0  0  0  0  0  0  0
  2  3  1  0
  2  1  1  6
  4  3  1  0
  4  8  1  0
  5  4  2  0
  6  2  1  0
  7  6  2  0
 10  9  1  6
 10 12  1  0
 11 10  1  0
 12 13  1  1
 13  6  1  0
 14 12  1  0
 14 16  1  0
 15 14  2  0
 17 16  1  0
 17 25  1  0
 17 18  1  1
 19 18  1  0
 19 20  2  0
 21 20  1  0
 22 21  2  0
 23 24  2  0
 23 22  1  0
 24 19  1  0
 25 26  1  0
 27 25  2  0
M  END
$$$$
