DVF.pdb
     RDKit          3D

 27 27  0  0  1  0  0  0  0  0999 V2000
    7.9874  -14.9842   18.5170 N   0  0  0  0  0  0  0  0  0  0  0  0
    8.9520  -14.8082   19.5780 C   0  0  1  0  0  0  0  0  0  0  0  0
    9.0998  -13.3257   19.8169 C   0  0  0  0  0  0  0  0  0  0  0  0
   10.0733  -12.8046   18.8285 C   0  0  0  0  0  0  0  0  0  0  0  0
   11.0405  -13.4838   18.4036 O   0  0  0  0  0  0  0  0  0  0  0  0
    8.5163  -15.5413   20.7665 C   0  0  0  0  0  0  0  0  0  0  0  0
    7.3262  -15.4186   21.1538 O   0  0  0  0  0  0  0  0  0  0  0  0
    9.9239  -11.5153   18.3431 O   0  0  0  0  0  0  0  0  0  0  0  0
    8.7073  -19.2207   21.2850 C   0  0  0  0  0  0  0  0  0  0  0  0
    9.2172  -18.6078   22.5585 C   0  0  2  0  0  0  0  0  0  0  0  0
    8.6313  -19.2636   23.7863 C   0  0  0  0  0  0  0  0  0  0  0  0
    8.8611  -17.1154   22.6251 C   0  0  2  0  0  0  0  0  0  0  0  0
    9.3910  -16.4000   21.5158 N   0  0  0  0  0  0  0  0  0  0  0  0
    9.4078  -16.6442   23.9316 C   0  0  0  0  0  0  0  0  0  0  0  0
   10.6516  -16.5233   24.0266 O   0  0  0  0  0  0  0  0  0  0  0  0
    8.5653  -16.3407   25.0342 N   0  0  0  0  0  0  0  0  0  0  0  0
    9.0885  -15.8634   26.3061 C   0  0  1  0  0  0  0  0  0  0  0  0
    7.9295  -15.2255   27.0531 C   0  0  0  0  0  0  0  0  0  0  0  0
    7.4986  -13.9499   26.4319 C   0  0  0  0  0  0  0  0  0  0  0  0
    6.1603  -13.7309   26.2159 C   0  0  0  0  0  0  0  0  0  0  0  0
    5.7539  -12.5280   25.6311 C   0  0  0  0  0  0  0  0  0  0  0  0
    6.6878  -11.5704   25.2742 C   0  0  0  0  0  0  0  0  0  0  0  0
    8.0484  -11.7978   25.4957 C   0  0  0  0  0  0  0  0  0  0  0  0
    8.4121  -12.9941   26.0740 C   0  0  0  0  0  0  0  0  0  0  0  0
    9.5690  -16.9895   27.1504 C   0  0  0  0  0  0  0  0  0  0  0  0
    9.3309  -18.2963   26.8387 O   0  0  0  0  0  0  0  0  0  0  0  0
   10.2182  -16.6931   28.1872 O   0  0  0  0  0  0  0  0  0  0  0  0
  2  3  1  0
  2  1  1  6
  4  3  1  0
  4  8  1  0
  5  4  2  0
  6  2  1  0
  7  6  2  0
 10  9  1  6
 10 12  1  0
 11 10  1  0
 12 13  1  6
 13  6  1  0
 14 12  1  0
 14 16  1  0
 15 14  2  0
 17 16  1  0
 17 25  1  0
 17 18  1  1
 19 18  1  0
 19 20  2  0
 21 20  1  0
 22 21  2  0
 23 24  2  0
 23 22  1  0
 24 19  1  0
 25 26  1  0
 27 25  2  0
M  END
$$$$
