DVF.pdb
     RDKit          3D

 27 27  0  0  1  0  0  0  0  0999 V2000
    9.1462  -18.5104   18.4472 N   0  0  0  0  0  0  0  0  0  0  0  0
    8.3955  -18.1410   19.6249 C   0  0  1  0  0  0  0  0  0  0  0  0
    8.5989  -19.2265   20.6530 C   0  0  0  0  0  0  0  0  0  0  0  0
    7.3618  -20.0411   20.6994 C   0  0  0  0  0  0  0  0  0  0  0  0
    6.3905  -19.7605   21.4445 O   0  0  0  0  0  0  0  0  0  0  0  0
    8.8248  -16.8219   20.0892 C   0  0  0  0  0  0  0  0  0  0  0  0
   10.0473  -16.5304   20.0450 O   0  0  0  0  0  0  0  0  0  0  0  0
    7.2568  -21.1630   19.8927 O   0  0  0  0  0  0  0  0  0  0  0  0
    7.3327  -13.3759   19.1401 C   0  0  0  0  0  0  0  0  0  0  0  0
    7.5047  -13.4246   20.6320 C   0  0  2  0  0  0  0  0  0  0  0  0
    8.1174  -12.1582   21.1811 C   0  0  0  0  0  0  0  0  0  0  0  0
    8.4226  -14.5876   21.0364 C   0  0  2  0  0  0  0  0  0  0  0  0
    7.9084  -15.8387   20.5964 N   0  0  0  0  0  0  0  0  0  0  0  0
    8.5312  -14.4973   22.5222 C   0  0  0  0  0  0  0  0  0  0  0  0
    8.0406  -13.4857   23.0761 O   0  0  0  0  0  0  0  0  0  0  0  0
    9.1628  -15.5093   23.2933 N   0  0  0  0  0  0  0  0  0  0  0  0
    9.2796  -15.4259   24.7420 C   0  0  1  0  0  0  0  0  0  0  0  0
    7.8716  -15.2839   25.2948 C   0  0  0  0  0  0  0  0  0  0  0  0
    7.6072  -13.9174   25.8063 C   0  0  0  0  0  0  0  0  0  0  0  0
    8.6602  -13.0524   25.9759 C   0  0  0  0  0  0  0  0  0  0  0  0
    8.4108  -11.7639   26.4573 C   0  0  0  0  0  0  0  0  0  0  0  0
    7.1200  -11.3651   26.7592 C   0  0  0  0  0  0  0  0  0  0  0  0
    6.0518  -12.2487   26.5852 C   0  0  0  0  0  0  0  0  0  0  0  0
    6.3349  -13.5100   26.1089 C   0  0  0  0  0  0  0  0  0  0  0  0
    9.8350  -16.6817   25.3132 C   0  0  0  0  0  0  0  0  0  0  0  0
   10.0795  -17.7895   24.5552 O   0  0  0  0  0  0  0  0  0  0  0  0
   10.0785  -16.6920   26.5480 O   0  0  0  0  0  0  0  0  0  0  0  0
  2  3  1  0
  2  1  1  6
  4  3  1  0
  4  8  1  0
  5  4  2  0
  6  2  1  0
  7  6  2  0
 10  9  1  6
 10 12  1  0
 11 10  1  0
 12 13  1  1
 13  6  1  0
 14 12  1  0
 14 16  1  0
 15 14  2  0
 17 16  1  0
 17 25  1  0
 17 18  1  1
 19 18  1  0
 19 20  2  0
 21 20  1  0
 22 21  2  0
 23 24  2  0
 23 22  1  0
 24 19  1  0
 25 26  1  0
 27 25  2  0
M  END
$$$$
