PHI.pdb
     RDKit          3D

 26 27  0  0  1  0  0  0  0  0999 V2000
   21.9598  -12.8043  -16.9015 N   0  0  0  0  0  0  0  0  0  0  0  0
   22.1717  -14.0735  -17.5725 C   0  0  0  0  0  0  0  0  0  0  0  0
   21.4686  -13.9968  -18.8983 C   0  0  0  0  0  0  0  0  0  0  0  0
   20.9273  -12.5643  -18.9389 C   0  0  0  0  0  0  0  0  0  0  0  0
   21.8374  -11.8712  -17.9778 C   0  0  1  0  0  0  0  0  0  0  0  0
   21.3500  -10.5455  -17.5433 C   0  0  0  0  0  0  0  0  0  0  0  0
   21.6250   -9.5393  -18.2381 O   0  0  0  0  0  0  0  0  0  0  0  0
   20.5737  -10.3636  -16.3567 N   0  0  0  0  0  0  0  0  0  0  0  0
   20.0351   -9.0598  -16.0456 C   0  0  1  0  0  0  0  0  0  0  0  0
   18.6798   -9.0715  -15.4454 C   0  0  0  0  0  0  0  0  0  0  0  0
   18.0540   -7.7705  -15.1907 C   0  0  0  0  0  0  0  0  0  0  0  0
   17.7799   -6.7442  -16.0474 C   0  0  0  0  0  0  0  0  0  0  0  0
   17.1567   -5.7327  -15.3790 N   0  0  0  0  0  0  0  0  0  0  0  0
   17.0514   -6.1430  -14.1188 C   0  0  0  0  0  0  0  0  0  0  0  0
   17.5785   -7.3582  -13.9731 N   0  0  0  0  0  0  0  0  0  0  0  0
   21.0070   -8.2473  -15.2603 C   0  0  0  0  0  0  0  0  0  0  0  0
   21.6117   -8.7884  -14.3120 O   0  0  0  0  0  0  0  0  0  0  0  0
   23.4835   -3.9373  -17.7994 C   0  0  0  0  0  0  0  0  0  0  0  0
   22.5566   -4.5764  -16.8182 C   0  0  0  0  0  0  0  0  0  0  0  0
   23.2109   -5.5044  -15.8519 C   0  0  2  0  0  0  0  0  0  0  0  0
   23.9447   -6.5888  -16.6025 C   0  0  0  0  0  0  0  0  0  0  0  0
   22.2664   -6.0952  -14.8356 C   0  0  2  0  0  0  0  0  0  0  0  0
   21.2645   -6.8886  -15.5544 N   0  0  0  0  0  0  0  0  0  0  0  0
   21.5810   -4.9962  -14.1099 C   0  0  0  0  0  0  0  0  0  0  0  0
   22.2279   -4.2834  -13.3052 O   0  0  0  0  0  0  0  0  0  0  0  0
   20.2373   -4.7164  -14.2830 O   0  0  0  0  0  0  0  0  0  0  0  0
  2  1  1  0
  3  2  1  0
  4  3  1  0
  4  5  1  0
  5  1  1  0
  5  6  1  1
  6  8  1  0
  7  6  2  0
  9  8  1  0
 10 11  1  0
  9 10  1  1
 11 12  2  0
 12 13  1  0
 14 13  1  0
 15 11  1  0
 15 14  2  0
 16  9  1  0
 17 16  2  0
 19 18  1  0
 19 20  1  0
 20 22  1  0
 20 21  1  6
 22 23  1  6
 22 24  1  0
 23 16  1  0
 24 25  2  0
 24 26  1  0
M  END
$$$$
