PHI.pdb
     RDKit          3D

 26 27  0  0  1  0  0  0  0  0999 V2000
   28.7399  -23.5381  -17.3728 N   0  0  0  0  0  0  0  0  0  0  0  0
   29.9088  -23.9809  -18.1100 C   0  0  0  0  0  0  0  0  0  0  0  0
   30.5196  -22.7639  -18.7453 C   0  0  0  0  0  0  0  0  0  0  0  0
   29.6482  -21.6124  -18.2340 C   0  0  0  0  0  0  0  0  0  0  0  0
   29.0715  -22.2017  -16.9879 C   0  0  1  0  0  0  0  0  0  0  0  0
   27.9185  -21.4502  -16.4497 C   0  0  0  0  0  0  0  0  0  0  0  0
   28.1054  -20.3016  -15.9844 O   0  0  0  0  0  0  0  0  0  0  0  0
   26.5920  -21.9832  -16.4383 N   0  0  0  0  0  0  0  0  0  0  0  0
   25.4922  -21.1586  -15.9941 C   0  0  1  0  0  0  0  0  0  0  0  0
   24.4095  -20.9732  -16.9895 C   0  0  0  0  0  0  0  0  0  0  0  0
   23.2767  -20.1324  -16.5910 C   0  0  0  0  0  0  0  0  0  0  0  0
   23.0725  -19.4171  -15.4468 C   0  0  0  0  0  0  0  0  0  0  0  0
   21.8860  -18.7500  -15.5195 N   0  0  0  0  0  0  0  0  0  0  0  0
   21.3699  -19.0581  -16.7053 C   0  0  0  0  0  0  0  0  0  0  0  0
   22.1774  -19.8831  -17.3708 N   0  0  0  0  0  0  0  0  0  0  0  0
   24.9846  -21.6050  -14.6658 C   0  0  0  0  0  0  0  0  0  0  0  0
   24.5579  -22.7720  -14.5490 O   0  0  0  0  0  0  0  0  0  0  0  0
   27.8192  -20.8925  -10.3236 C   0  0  0  0  0  0  0  0  0  0  0  0
   26.7861  -21.4044  -11.2728 C   0  0  0  0  0  0  0  0  0  0  0  0
   25.4617  -20.7253  -11.1824 C   0  0  2  0  0  0  0  0  0  0  0  0
   24.8961  -20.8925   -9.7932 C   0  0  0  0  0  0  0  0  0  0  0  0
   24.4711  -21.1748  -12.2267 C   0  0  2  0  0  0  0  0  0  0  0  0
   24.9712  -20.7518  -13.5386 N   0  0  0  0  0  0  0  0  0  0  0  0
   23.1641  -20.5174  -11.9741 C   0  0  0  0  0  0  0  0  0  0  0  0
   22.3142  -21.0821  -11.2440 O   0  0  0  0  0  0  0  0  0  0  0  0
   22.8335  -19.2884  -12.5165 O   0  0  0  0  0  0  0  0  0  0  0  0
  2  1  1  0
  3  2  1  0
  4  3  1  0
  4  5  1  0
  5  1  1  0
  5  6  1  6
  6  8  1  0
  7  6  2  0
  9  8  1  0
 10 11  1  0
  9 10  1  6
 11 12  2  0
 12 13  1  0
 14 13  1  0
 15 11  1  0
 15 14  2  0
 16  9  1  0
 17 16  2  0
 19 18  1  0
 19 20  1  0
 20 22  1  0
 20 21  1  1
 22 23  1  6
 22 24  1  0
 23 16  1  0
 24 25  2  0
 24 26  1  0
M  END
$$$$
