PHI.pdb
     RDKit          3D

 26 27  0  0  1  0  0  0  0  0999 V2000
   27.6413  -22.0542  -15.5810 N   0  0  0  0  0  0  0  0  0  0  0  0
   28.3383  -22.2789  -16.8338 C   0  0  0  0  0  0  0  0  0  0  0  0
   28.4517  -20.9483  -17.5229 C   0  0  0  0  0  0  0  0  0  0  0  0
   27.8401  -19.9669  -16.5183 C   0  0  0  0  0  0  0  0  0  0  0  0
   27.9974  -20.7137  -15.2338 C   0  0  1  0  0  0  0  0  0  0  0  0
   27.1899  -20.1685  -14.1228 C   0  0  0  0  0  0  0  0  0  0  0  0
   27.4445  -19.0187  -13.6937 O   0  0  0  0  0  0  0  0  0  0  0  0
   26.1249  -20.9031  -13.5147 N   0  0  0  0  0  0  0  0  0  0  0  0
   25.3167  -20.2797  -12.4924 C   0  0  1  0  0  0  0  0  0  0  0  0
   23.8950  -20.0756  -12.8592 C   0  0  0  0  0  0  0  0  0  0  0  0
   23.5984  -19.8629  -14.2790 C   0  0  0  0  0  0  0  0  0  0  0  0
   23.6970  -20.7210  -15.3357 C   0  0  0  0  0  0  0  0  0  0  0  0
   23.2811  -20.1038  -16.4778 N   0  0  0  0  0  0  0  0  0  0  0  0
   22.9298  -18.8735  -16.1166 C   0  0  0  0  0  0  0  0  0  0  0  0
   23.1075  -18.6976  -14.8077 N   0  0  0  0  0  0  0  0  0  0  0  0
   25.4811  -20.9668  -11.1802 C   0  0  0  0  0  0  0  0  0  0  0  0
   25.5354  -22.2136  -11.1594 O   0  0  0  0  0  0  0  0  0  0  0  0
   28.1941  -18.4187   -7.1734 C   0  0  0  0  0  0  0  0  0  0  0  0
   27.6280  -19.4844   -8.0533 C   0  0  0  0  0  0  0  0  0  0  0  0
   26.2618  -19.9472   -7.6760 C   0  0  2  0  0  0  0  0  0  0  0  0
   26.2864  -20.5303   -6.2842 C   0  0  0  0  0  0  0  0  0  0  0  0
   25.6514  -20.9163   -8.6569 C   0  0  2  0  0  0  0  0  0  0  0  0
   25.5773  -20.2540   -9.9630 N   0  0  0  0  0  0  0  0  0  0  0  0
   24.2773  -21.2602   -8.2122 C   0  0  0  0  0  0  0  0  0  0  0  0
   23.2966  -20.6321   -8.6788 O   0  0  0  0  0  0  0  0  0  0  0  0
   24.0233  -22.2596   -7.2899 O   0  0  0  0  0  0  0  0  0  0  0  0
  2  1  1  0
  3  2  1  0
  4  3  1  0
  4  5  1  0
  5  1  1  0
  5  6  1  1
  6  8  1  0
  7  6  2  0
  9  8  1  0
 10 11  1  0
  9 10  1  6
 11 12  2  0
 12 13  1  0
 14 13  1  0
 15 11  1  0
 15 14  2  0
 16  9  1  0
 17 16  2  0
 19 18  1  0
 19 20  1  0
 20 22  1  0
 20 21  1  1
 22 23  1  6
 22 24  1  0
 23 16  1  0
 24 25  2  0
 24 26  1  0
M  END
$$$$
