PHI.pdb
     RDKit          3D

 26 27  0  0  1  0  0  0  0  0999 V2000
   24.5006  -12.0362  -15.6986 N   0  0  0  0  0  0  0  0  0  0  0  0
   25.2533  -13.1853  -16.1665 C   0  0  0  0  0  0  0  0  0  0  0  0
   24.5975  -13.6593  -17.4327 C   0  0  0  0  0  0  0  0  0  0  0  0
   23.4822  -12.6358  -17.6680 C   0  0  0  0  0  0  0  0  0  0  0  0
   23.9884  -11.4573  -16.9014 C   0  0  1  0  0  0  0  0  0  0  0  0
   22.9651  -10.4199  -16.6557 C   0  0  0  0  0  0  0  0  0  0  0  0
   22.5396   -9.7451  -17.6223 O   0  0  0  0  0  0  0  0  0  0  0  0
   22.4384  -10.1538  -15.3536 N   0  0  0  0  0  0  0  0  0  0  0  0
   21.3859   -9.1776  -15.1921 C   0  0  1  0  0  0  0  0  0  0  0  0
   20.2342   -9.6308  -14.3763 C   0  0  0  0  0  0  0  0  0  0  0  0
   19.3425  -10.6259  -14.9796 C   0  0  0  0  0  0  0  0  0  0  0  0
   19.3997  -11.2313  -16.2014 C   0  0  0  0  0  0  0  0  0  0  0  0
   18.3754  -12.1218  -16.3288 N   0  0  0  0  0  0  0  0  0  0  0  0
   17.6972  -12.0586  -15.1870 C   0  0  0  0  0  0  0  0  0  0  0  0
   18.2501  -11.1733  -14.3587 N   0  0  0  0  0  0  0  0  0  0  0  0
   21.9308   -7.8654  -14.7423 C   0  0  0  0  0  0  0  0  0  0  0  0
   22.8342   -7.8553  -13.8811 O   0  0  0  0  0  0  0  0  0  0  0  0
   23.4245   -4.5103  -18.3656 C   0  0  0  0  0  0  0  0  0  0  0  0
   23.2613   -5.1968  -17.0494 C   0  0  0  0  0  0  0  0  0  0  0  0
   22.2897   -4.5495  -16.1221 C   0  0  2  0  0  0  0  0  0  0  0  0
   22.7528   -3.1515  -15.7918 C   0  0  0  0  0  0  0  0  0  0  0  0
   22.0219   -5.3406  -14.8665 C   0  0  2  0  0  0  0  0  0  0  0  0
   21.4587   -6.6365  -15.2580 N   0  0  0  0  0  0  0  0  0  0  0  0
   21.0289   -4.6148  -14.0351 C   0  0  0  0  0  0  0  0  0  0  0  0
   21.4144   -3.7200  -13.2445 O   0  0  0  0  0  0  0  0  0  0  0  0
   19.6732   -4.8841  -14.0925 O   0  0  0  0  0  0  0  0  0  0  0  0
  2  1  1  0
  3  2  1  0
  4  3  1  0
  4  5  1  0
  5  1  1  0
  5  6  1  1
  6  8  1  0
  7  6  2  0
  9  8  1  0
 10 11  1  0
  9 10  1  1
 11 12  2  0
 12 13  1  0
 14 13  1  0
 15 11  1  0
 15 14  2  0
 16  9  1  0
 17 16  2  0
 19 18  1  0
 19 20  1  0
 20 22  1  0
 20 21  1  1
 22 23  1  6
 22 24  1  0
 23 16  1  0
 24 25  2  0
 24 26  1  0
M  END
$$$$
