PHI.pdb
     RDKit          3D

 26 27  0  0  1  0  0  0  0  0999 V2000
   27.5793  -22.1277  -15.7175 N   0  0  0  0  0  0  0  0  0  0  0  0
   28.3494  -22.2746  -16.9386 C   0  0  0  0  0  0  0  0  0  0  0  0
   28.7383  -20.8939  -17.3863 C   0  0  0  0  0  0  0  0  0  0  0  0
   28.1960  -19.9873  -16.2771 C   0  0  0  0  0  0  0  0  0  0  0  0
   28.1082  -20.9377  -15.1274 C   0  0  1  0  0  0  0  0  0  0  0  0
   27.2940  -20.4381  -13.9999 C   0  0  0  0  0  0  0  0  0  0  0  0
   27.6418  -19.3831  -13.4197 O   0  0  0  0  0  0  0  0  0  0  0  0
   26.1197  -21.1130  -13.5422 N   0  0  0  0  0  0  0  0  0  0  0  0
   25.2807  -20.4932  -12.5428 C   0  0  1  0  0  0  0  0  0  0  0  0
   23.8490  -20.3833  -12.9110 C   0  0  0  0  0  0  0  0  0  0  0  0
   23.5246  -19.5623  -14.0814 C   0  0  0  0  0  0  0  0  0  0  0  0
   24.3307  -18.7822  -14.8586 C   0  0  0  0  0  0  0  0  0  0  0  0
   23.6050  -18.2220  -15.8676 N   0  0  0  0  0  0  0  0  0  0  0  0
   22.3607  -18.6609  -15.7049 C   0  0  0  0  0  0  0  0  0  0  0  0
   22.2792  -19.4648  -14.6453 N   0  0  0  0  0  0  0  0  0  0  0  0
   25.4861  -21.1152  -11.2041 C   0  0  0  0  0  0  0  0  0  0  0  0
   25.6695  -22.3479  -11.1380 O   0  0  0  0  0  0  0  0  0  0  0  0
   28.2242  -18.6194   -7.2120 C   0  0  0  0  0  0  0  0  0  0  0  0
   27.5873  -19.6466   -8.0891 C   0  0  0  0  0  0  0  0  0  0  0  0
   26.1774  -19.9819   -7.7384 C   0  0  2  0  0  0  0  0  0  0  0  0
   26.1086  -20.4712   -6.3124 C   0  0  0  0  0  0  0  0  0  0  0  0
   25.5305  -20.9668   -8.6793 C   0  0  2  0  0  0  0  0  0  0  0  0
   25.4799  -20.3560  -10.0114 N   0  0  0  0  0  0  0  0  0  0  0  0
   24.1450  -21.2408   -8.2217 C   0  0  0  0  0  0  0  0  0  0  0  0
   23.1859  -20.6107   -8.7289 O   0  0  0  0  0  0  0  0  0  0  0  0
   23.8569  -22.1759   -7.2437 O   0  0  0  0  0  0  0  0  0  0  0  0
  2  1  1  0
  3  2  1  0
  4  3  1  0
  4  5  1  0
  5  1  1  0
  5  6  1  1
  6  8  1  0
  7  6  2  0
  9  8  1  0
 10 11  1  0
  9 10  1  6
 11 12  2  0
 12 13  1  0
 14 13  1  0
 15 11  1  0
 15 14  2  0
 16  9  1  0
 17 16  2  0
 19 18  1  0
 19 20  1  0
 20 22  1  0
 20 21  1  1
 22 23  1  6
 22 24  1  0
 23 16  1  0
 24 25  2  0
 24 26  1  0
M  END
$$$$
