PHI.pdb
     RDKit          3D

 26 27  0  0  1  0  0  0  0  0999 V2000
   27.8069  -21.4843  -14.5514 N   0  0  0  0  0  0  0  0  0  0  0  0
   28.4143  -21.4028  -15.8668 C   0  0  0  0  0  0  0  0  0  0  0  0
   28.3140  -19.9715  -16.3135 C   0  0  0  0  0  0  0  0  0  0  0  0
   27.6827  -19.2606  -15.1124 C   0  0  0  0  0  0  0  0  0  0  0  0
   28.0351  -20.1874  -13.9946 C   0  0  1  0  0  0  0  0  0  0  0  0
   27.2693  -19.9458  -12.7541 C   0  0  0  0  0  0  0  0  0  0  0  0
   27.3697  -18.8339  -12.1847 O   0  0  0  0  0  0  0  0  0  0  0  0
   26.4142  -20.9341  -12.1746 N   0  0  0  0  0  0  0  0  0  0  0  0
   25.5274  -20.5698  -11.0940 C   0  0  1  0  0  0  0  0  0  0  0  0
   24.0928  -20.8477  -11.3435 C   0  0  0  0  0  0  0  0  0  0  0  0
   23.4967  -20.2443  -12.5392 C   0  0  0  0  0  0  0  0  0  0  0  0
   23.0006  -18.9882  -12.7356 C   0  0  0  0  0  0  0  0  0  0  0  0
   22.5741  -18.8515  -14.0231 N   0  0  0  0  0  0  0  0  0  0  0  0
   22.8109  -20.0214  -14.6087 C   0  0  0  0  0  0  0  0  0  0  0  0
   23.3626  -20.8761  -13.7480 N   0  0  0  0  0  0  0  0  0  0  0  0
   26.0045  -21.1215   -9.7943 C   0  0  0  0  0  0  0  0  0  0  0  0
   26.4274  -22.2953   -9.7609 O   0  0  0  0  0  0  0  0  0  0  0  0
   28.7037  -18.1435   -6.1589 C   0  0  0  0  0  0  0  0  0  0  0  0
   28.1415  -19.2711   -6.9607 C   0  0  0  0  0  0  0  0  0  0  0  0
   26.8782  -19.8524   -6.4230 C   0  0  2  0  0  0  0  0  0  0  0  0
   27.1020  -20.3452   -5.0141 C   0  0  0  0  0  0  0  0  0  0  0  0
   26.2875  -20.9377   -7.2875 C   0  0  2  0  0  0  0  0  0  0  0  0
   25.9934  -20.3605   -8.6029 N   0  0  0  0  0  0  0  0  0  0  0  0
   25.0212  -21.4136   -6.6757 C   0  0  0  0  0  0  0  0  0  0  0  0
   23.9275  -20.9258   -7.0498 O   0  0  0  0  0  0  0  0  0  0  0  0
   24.9906  -22.3879   -5.6941 O   0  0  0  0  0  0  0  0  0  0  0  0
  2  1  1  0
  3  2  1  0
  4  3  1  0
  4  5  1  0
  5  1  1  0
  5  6  1  1
  6  8  1  0
  7  6  2  0
  9  8  1  0
 10 11  1  0
  9 10  1  6
 11 12  2  0
 12 13  1  0
 14 13  1  0
 15 11  1  0
 15 14  2  0
 16  9  1  0
 17 16  2  0
 19 18  1  0
 19 20  1  0
 20 22  1  0
 20 21  1  1
 22 23  1  6
 22 24  1  0
 23 16  1  0
 24 25  2  0
 24 26  1  0
M  END
$$$$
