PHI.pdb
     RDKit          3D

 26 27  0  0  1  0  0  0  0  0999 V2000
   22.7037  -18.1551  -17.2363 N   0  0  0  0  0  0  0  0  0  0  0  0
   22.0613  -17.8405  -18.4989 C   0  0  0  0  0  0  0  0  0  0  0  0
   22.9095  -18.4342  -19.5880 C   0  0  0  0  0  0  0  0  0  0  0  0
   24.0174  -19.1672  -18.8252 C   0  0  0  0  0  0  0  0  0  0  0  0
   23.3705  -19.3926  -17.4974 C   0  0  1  0  0  0  0  0  0  0  0  0
   24.3164  -19.7782  -16.4295 C   0  0  0  0  0  0  0  0  0  0  0  0
   24.9796  -20.8339  -16.5573 O   0  0  0  0  0  0  0  0  0  0  0  0
   24.5064  -18.9917  -15.2509 N   0  0  0  0  0  0  0  0  0  0  0  0
   25.4837  -19.3984  -14.2679 C   0  0  1  0  0  0  0  0  0  0  0  0
   26.5967  -18.4413  -14.0615 C   0  0  0  0  0  0  0  0  0  0  0  0
   27.3907  -18.0806  -15.2399 C   0  0  0  0  0  0  0  0  0  0  0  0
   27.4403  -16.9116  -15.9422 C   0  0  0  0  0  0  0  0  0  0  0  0
   28.3505  -17.0126  -16.9520 N   0  0  0  0  0  0  0  0  0  0  0  0
   28.8539  -18.2399  -16.8636 C   0  0  0  0  0  0  0  0  0  0  0  0
   28.3008  -18.9044  -15.8497 N   0  0  0  0  0  0  0  0  0  0  0  0
   24.8294  -19.8063  -12.9925 C   0  0  0  0  0  0  0  0  0  0  0  0
   23.6253  -19.5262  -12.8207 O   0  0  0  0  0  0  0  0  0  0  0  0
   26.5528  -21.6986   -7.3636 C   0  0  0  0  0  0  0  0  0  0  0  0
   25.5244  -21.8025   -8.4415 C   0  0  0  0  0  0  0  0  0  0  0  0
   25.9997  -21.4121   -9.7997 C   0  0  2  0  0  0  0  0  0  0  0  0
   27.1756  -20.4737   -9.6790 C   0  0  0  0  0  0  0  0  0  0  0  0
   24.9253  -20.8217  -10.6778 C   0  0  2  0  0  0  0  0  0  0  0  0
   25.5266  -20.4976  -11.9752 N   0  0  0  0  0  0  0  0  0  0  0  0
   24.4188  -19.5725  -10.0556 C   0  0  0  0  0  0  0  0  0  0  0  0
   25.0427  -18.4968  -10.2223 O   0  0  0  0  0  0  0  0  0  0  0  0
   23.2694  -19.5387   -9.2863 O   0  0  0  0  0  0  0  0  0  0  0  0
  2  1  1  0
  3  2  1  0
  4  3  1  0
  4  5  1  0
  5  1  1  0
  5  6  1  1
  6  8  1  0
  7  6  2  0
  9  8  1  0
 10 11  1  0
  9 10  1  1
 11 12  2  0
 12 13  1  0
 14 13  1  0
 15 11  1  0
 15 14  2  0
 16  9  1  0
 17 16  2  0
 19 18  1  0
 19 20  1  0
 20 22  1  0
 20 21  1  1
 22 23  1  6
 22 24  1  0
 23 16  1  0
 24 25  2  0
 24 26  1  0
M  END
$$$$
