PHI.pdb
     RDKit          3D

 26 27  0  0  1  0  0  0  0  0999 V2000
   28.3567  -19.8292  -17.5104 N   0  0  0  0  0  0  0  0  0  0  0  0
   29.2950  -19.3831  -18.5235 C   0  0  0  0  0  0  0  0  0  0  0  0
   29.2907  -17.8807  -18.5011 C   0  0  0  0  0  0  0  0  0  0  0  0
   28.3445  -17.5384  -17.3460 C   0  0  0  0  0  0  0  0  0  0  0  0
   28.4003  -18.7891  -16.5304 C   0  0  1  0  0  0  0  0  0  0  0  0
   27.3232  -18.8948  -15.5242 C   0  0  0  0  0  0  0  0  0  0  0  0
   27.2225  -18.0062  -14.6462 O   0  0  0  0  0  0  0  0  0  0  0  0
   26.3870  -19.9752  -15.5118 N   0  0  0  0  0  0  0  0  0  0  0  0
   25.1859  -19.8734  -14.7157 C   0  0  1  0  0  0  0  0  0  0  0  0
   23.9206  -19.9182  -15.4867 C   0  0  0  0  0  0  0  0  0  0  0  0
   22.6725  -19.8437  -14.7214 C   0  0  0  0  0  0  0  0  0  0  0  0
   21.9056  -20.8403  -14.1913 C   0  0  0  0  0  0  0  0  0  0  0  0
   20.8427  -20.3066  -13.5252 N   0  0  0  0  0  0  0  0  0  0  0  0
   20.9632  -18.9884  -13.6492 C   0  0  0  0  0  0  0  0  0  0  0  0
   22.0475  -18.6788  -14.3591 N   0  0  0  0  0  0  0  0  0  0  0  0
   25.2056  -20.8411  -13.5824 C   0  0  0  0  0  0  0  0  0  0  0  0
   25.4290  -22.0446  -13.8261 O   0  0  0  0  0  0  0  0  0  0  0  0
   26.7378  -19.5115   -8.3127 C   0  0  0  0  0  0  0  0  0  0  0  0
   25.8592  -19.7282   -9.5008 C   0  0  0  0  0  0  0  0  0  0  0  0
   26.0168  -21.0552  -10.1621 C   0  0  2  0  0  0  0  0  0  0  0  0
   27.3664  -21.1340  -10.8331 C   0  0  0  0  0  0  0  0  0  0  0  0
   24.9113  -21.3911  -11.1311 C   0  0  2  0  0  0  0  0  0  0  0  0
   24.9799  -20.4406  -12.2454 N   0  0  0  0  0  0  0  0  0  0  0  0
   23.6016  -21.2399  -10.4484 C   0  0  0  0  0  0  0  0  0  0  0  0
   23.2857  -22.0295   -9.5259 O   0  0  0  0  0  0  0  0  0  0  0  0
   22.6965  -20.2504  -10.7884 O   0  0  0  0  0  0  0  0  0  0  0  0
  2  1  1  0
  3  2  1  0
  4  3  1  0
  4  5  1  0
  5  1  1  0
  5  6  1  1
  6  8  1  0
  7  6  2  0
  9  8  1  0
 10 11  1  0
  9 10  1  6
 11 12  2  0
 12 13  1  0
 14 13  1  0
 15 11  1  0
 15 14  2  0
 16  9  1  0
 17 16  2  0
 19 18  1  0
 19 20  1  0
 20 22  1  0
 20 21  1  6
 22 23  1  6
 22 24  1  0
 23 16  1  0
 24 25  2  0
 24 26  1  0
M  END
$$$$
