PHI.pdb
     RDKit          3D

 26 27  0  0  1  0  0  0  0  0999 V2000
   27.4594  -20.5782  -15.4000 N   0  0  0  0  0  0  0  0  0  0  0  0
   28.0677  -20.1721  -16.6533 C   0  0  0  0  0  0  0  0  0  0  0  0
   28.1954  -18.6753  -16.6197 C   0  0  0  0  0  0  0  0  0  0  0  0
   27.6893  -18.2998  -15.2235 C   0  0  0  0  0  0  0  0  0  0  0  0
   27.8932  -19.5773  -14.4757 C   0  0  1  0  0  0  0  0  0  0  0  0
   27.1797  -19.6334  -13.1829 C   0  0  0  0  0  0  0  0  0  0  0  0
   27.4169  -18.7566  -12.3193 O   0  0  0  0  0  0  0  0  0  0  0  0
   26.2250  -20.6524  -12.8761 N   0  0  0  0  0  0  0  0  0  0  0  0
   25.3331  -20.4837  -11.7523 C   0  0  1  0  0  0  0  0  0  0  0  0
   23.9430  -20.9432  -11.9845 C   0  0  0  0  0  0  0  0  0  0  0  0
   23.1889  -20.2702  -13.0463 C   0  0  0  0  0  0  0  0  0  0  0  0
   23.1751  -20.4947  -14.3924 C   0  0  0  0  0  0  0  0  0  0  0  0
   22.2939  -19.6485  -14.9972 N   0  0  0  0  0  0  0  0  0  0  0  0
   21.7724  -18.9116  -14.0212 C   0  0  0  0  0  0  0  0  0  0  0  0
   22.2867  -19.2588  -12.8420 N   0  0  0  0  0  0  0  0  0  0  0  0
   25.9250  -21.0435  -10.5043 C   0  0  0  0  0  0  0  0  0  0  0  0
   26.4771  -22.1618  -10.5524 O   0  0  0  0  0  0  0  0  0  0  0  0
   29.0708  -19.3267   -5.6803 C   0  0  0  0  0  0  0  0  0  0  0  0
   28.0978  -20.3164   -6.2320 C   0  0  0  0  0  0  0  0  0  0  0  0
   27.3263  -19.8421   -7.4164 C   0  0  2  0  0  0  0  0  0  0  0  0
   26.5289  -18.6148   -7.0482 C   0  0  0  0  0  0  0  0  0  0  0  0
   26.4415  -20.8965   -8.0325 C   0  0  2  0  0  0  0  0  0  0  0  0
   25.8810  -20.3507   -9.2726 N   0  0  0  0  0  0  0  0  0  0  0  0
   25.3310  -21.2083   -7.0978 C   0  0  0  0  0  0  0  0  0  0  0  0
   24.1784  -20.7721   -7.3330 O   0  0  0  0  0  0  0  0  0  0  0  0
   25.5113  -21.9718   -5.9583 O   0  0  0  0  0  0  0  0  0  0  0  0
  2  1  1  0
  3  2  1  0
  4  3  1  0
  4  5  1  0
  5  1  1  0
  5  6  1  1
  6  8  1  0
  7  6  2  0
  9  8  1  0
 10 11  1  0
  9 10  1  6
 11 12  2  0
 12 13  1  0
 14 13  1  0
 15 11  1  0
 15 14  2  0
 16  9  1  0
 17 16  2  0
 19 18  1  0
 19 20  1  0
 20 22  1  0
 20 21  1  1
 22 23  1  6
 22 24  1  0
 23 16  1  0
 24 25  2  0
 24 26  1  0
M  END
$$$$
