PHI.pdb
     RDKit          3D

 26 27  0  0  1  0  0  0  0  0999 V2000
   18.3622  -13.7073  -18.1261 N   0  0  0  0  0  0  0  0  0  0  0  0
   17.3908  -14.7639  -18.3402 C   0  0  0  0  0  0  0  0  0  0  0  0
   17.4618  -15.6791  -17.1505 C   0  0  0  0  0  0  0  0  0  0  0  0
   18.4830  -15.0008  -16.2321 C   0  0  0  0  0  0  0  0  0  0  0  0
   18.4170  -13.5841  -16.7027 C   0  0  1  0  0  0  0  0  0  0  0  0
   19.5412  -12.7463  -16.2359 C   0  0  0  0  0  0  0  0  0  0  0  0
   19.4659  -12.2007  -15.1102 O   0  0  0  0  0  0  0  0  0  0  0  0
   20.7170  -12.5322  -17.0205 N   0  0  0  0  0  0  0  0  0  0  0  0
   21.8270  -11.7958  -16.4616 C   0  0  1  0  0  0  0  0  0  0  0  0
   23.1632  -12.3733  -16.7419 C   0  0  0  0  0  0  0  0  0  0  0  0
   24.3225  -11.6658  -16.1899 C   0  0  0  0  0  0  0  0  0  0  0  0
   24.3808  -10.5391  -15.4221 C   0  0  0  0  0  0  0  0  0  0  0  0
   25.6766  -10.2561  -15.1071 N   0  0  0  0  0  0  0  0  0  0  0  0
   26.4047  -11.2088  -15.6814 C   0  0  0  0  0  0  0  0  0  0  0  0
   25.6246  -12.0677  -16.3367 N   0  0  0  0  0  0  0  0  0  0  0  0
   21.7411  -10.3476  -16.8031 C   0  0  0  0  0  0  0  0  0  0  0  0
   21.8779  -10.0041  -17.9952 O   0  0  0  0  0  0  0  0  0  0  0  0
   17.5706   -7.5396  -15.3644 C   0  0  0  0  0  0  0  0  0  0  0  0
   19.0100   -7.8942  -15.1836 C   0  0  0  0  0  0  0  0  0  0  0  0
   19.8594   -7.6988  -16.3934 C   0  0  2  0  0  0  0  0  0  0  0  0
   19.3478   -8.5614  -17.5212 C   0  0  0  0  0  0  0  0  0  0  0  0
   21.3290   -7.9378  -16.1543 C   0  0  2  0  0  0  0  0  0  0  0  0
   21.5105   -9.3547  -15.8235 N   0  0  0  0  0  0  0  0  0  0  0  0
   21.7765   -7.1129  -15.0038 C   0  0  0  0  0  0  0  0  0  0  0  0
   22.0625   -7.6666  -13.9149 O   0  0  0  0  0  0  0  0  0  0  0  0
   21.8951   -5.7366  -15.0781 O   0  0  0  0  0  0  0  0  0  0  0  0
  2  1  1  0
  3  2  1  0
  4  3  1  0
  4  5  1  0
  5  1  1  0
  5  6  1  6
  6  8  1  0
  7  6  2  0
  9  8  1  0
 10 11  1  0
  9 10  1  6
 11 12  2  0
 12 13  1  0
 14 13  1  0
 15 11  1  0
 15 14  2  0
 16  9  1  0
 17 16  2  0
 19 18  1  0
 19 20  1  0
 20 22  1  0
 20 21  1  6
 22 23  1  1
 22 24  1  0
 23 16  1  0
 24 25  2  0
 24 26  1  0
M  END
$$$$
