PHI.pdb
     RDKit          3D

 26 27  0  0  1  0  0  0  0  0999 V2000
   27.3101  -21.1594  -14.8472 N   0  0  0  0  0  0  0  0  0  0  0  0
   27.9525  -20.9665  -16.1341 C   0  0  0  0  0  0  0  0  0  0  0  0
   28.2862  -19.5059  -16.2485 C   0  0  0  0  0  0  0  0  0  0  0  0
   27.8550  -18.9288  -14.8966 C   0  0  0  0  0  0  0  0  0  0  0  0
   27.8900  -20.1428  -14.0261 C   0  0  1  0  0  0  0  0  0  0  0  0
   27.1924  -19.9724  -12.7346 C   0  0  0  0  0  0  0  0  0  0  0  0
   27.5653  -19.0622  -11.9579 O   0  0  0  0  0  0  0  0  0  0  0  0
   26.1038  -20.8079  -12.3336 N   0  0  0  0  0  0  0  0  0  0  0  0
   25.3421  -20.4745  -11.1522 C   0  0  1  0  0  0  0  0  0  0  0  0
   23.8967  -20.7937  -11.2312 C   0  0  0  0  0  0  0  0  0  0  0  0
   23.1235  -20.1212  -12.2795 C   0  0  0  0  0  0  0  0  0  0  0  0
   23.5147  -19.1972  -13.2046 C   0  0  0  0  0  0  0  0  0  0  0  0
   22.4643  -18.8694  -14.0092 N   0  0  0  0  0  0  0  0  0  0  0  0
   21.4368  -19.5927  -13.5751 C   0  0  0  0  0  0  0  0  0  0  0  0
   21.7981  -20.3521  -12.5415 N   0  0  0  0  0  0  0  0  0  0  0  0
   25.9866  -21.0174   -9.9230 C   0  0  0  0  0  0  0  0  0  0  0  0
   26.3469  -22.2124   -9.9134 O   0  0  0  0  0  0  0  0  0  0  0  0
   29.3639  -19.1433   -5.1664 C   0  0  0  0  0  0  0  0  0  0  0  0
   28.4706  -20.1755   -5.7722 C   0  0  0  0  0  0  0  0  0  0  0  0
   27.6640  -19.7016   -6.9332 C   0  0  2  0  0  0  0  0  0  0  0  0
   26.8644  -18.4846   -6.5366 C   0  0  0  0  0  0  0  0  0  0  0  0
   26.7738  -20.7609   -7.5329 C   0  0  2  0  0  0  0  0  0  0  0  0
   26.2020  -20.2249   -8.7722 N   0  0  0  0  0  0  0  0  0  0  0  0
   25.6718  -21.0655   -6.5857 C   0  0  0  0  0  0  0  0  0  0  0  0
   24.5252  -20.6011   -6.7948 O   0  0  0  0  0  0  0  0  0  0  0  0
   25.8539  -21.8522   -5.4624 O   0  0  0  0  0  0  0  0  0  0  0  0
  2  1  1  0
  3  2  1  0
  4  3  1  0
  4  5  1  0
  5  1  1  0
  5  6  1  1
  6  8  1  0
  7  6  2  0
  9  8  1  0
 10 11  1  0
  9 10  1  6
 11 12  2  0
 12 13  1  0
 14 13  1  0
 15 11  1  0
 15 14  2  0
 16  9  1  0
 17 16  2  0
 19 18  1  0
 19 20  1  0
 20 22  1  0
 20 21  1  1
 22 23  1  6
 22 24  1  0
 23 16  1  0
 24 25  2  0
 24 26  1  0
M  END
$$$$
