PHI.pdb
     RDKit          3D

 26 27  0  0  1  0  0  0  0  0999 V2000
   27.0080  -20.6084  -15.5250 N   0  0  0  0  0  0  0  0  0  0  0  0
   28.4097  -20.9734  -15.6134 C   0  0  0  0  0  0  0  0  0  0  0  0
   29.0278  -20.1055  -16.6730 C   0  0  0  0  0  0  0  0  0  0  0  0
   27.8820  -19.1823  -17.0989 C   0  0  0  0  0  0  0  0  0  0  0  0
   26.9959  -19.2279  -15.8967 C   0  0  1  0  0  0  0  0  0  0  0  0
   25.6352  -18.7040  -16.1372 C   0  0  0  0  0  0  0  0  0  0  0  0
   25.4945  -17.4981  -16.4483 O   0  0  0  0  0  0  0  0  0  0  0  0
   24.4672  -19.5212  -16.0287 N   0  0  0  0  0  0  0  0  0  0  0  0
   23.1855  -18.9976  -16.4410 C   0  0  1  0  0  0  0  0  0  0  0  0
   22.2612  -19.9986  -17.0250 C   0  0  0  0  0  0  0  0  0  0  0  0
   22.6765  -20.6354  -18.2785 C   0  0  0  0  0  0  0  0  0  0  0  0
   22.6674  -20.1525  -19.5549 C   0  0  0  0  0  0  0  0  0  0  0  0
   23.1782  -21.0838  -20.4094 N   0  0  0  0  0  0  0  0  0  0  0  0
   23.4979  -22.1304  -19.6545 C   0  0  0  0  0  0  0  0  0  0  0  0
   23.2104  -21.8941  -18.3749 N   0  0  0  0  0  0  0  0  0  0  0  0
   22.5553  -18.1950  -15.3548 C   0  0  0  0  0  0  0  0  0  0  0  0
   22.6125  -18.6226  -14.1837 O   0  0  0  0  0  0  0  0  0  0  0  0
   23.6266  -13.1318  -14.7503 C   0  0  0  0  0  0  0  0  0  0  0  0
   23.1403  -14.5091  -14.4392 C   0  0  0  0  0  0  0  0  0  0  0  0
   21.6947  -14.7411  -14.7214 C   0  0  2  0  0  0  0  0  0  0  0  0
   20.8544  -13.8185  -13.8727 C   0  0  0  0  0  0  0  0  0  0  0  0
   21.2608  -16.1754  -14.5526 C   0  0  2  0  0  0  0  0  0  0  0  0
   21.8974  -16.9695  -15.6081 N   0  0  0  0  0  0  0  0  0  0  0  0
   19.7867  -16.2605  -14.7078 C   0  0  0  0  0  0  0  0  0  0  0  0
   19.0486  -16.1770  -13.6967 O   0  0  0  0  0  0  0  0  0  0  0  0
   19.1779  -16.4308  -15.9383 O   0  0  0  0  0  0  0  0  0  0  0  0
  2  1  1  0
  3  2  1  0
  4  3  1  0
  4  5  1  0
  5  1  1  0
  5  6  1  6
  6  8  1  0
  7  6  2  0
  9  8  1  0
 10 11  1  0
  9 10  1  1
 11 12  2  0
 12 13  1  0
 14 13  1  0
 15 11  1  0
 15 14  2  0
 16  9  1  0
 17 16  2  0
 19 18  1  0
 19 20  1  0
 20 22  1  0
 20 21  1  1
 22 23  1  6
 22 24  1  0
 23 16  1  0
 24 25  2  0
 24 26  1  0
M  END
$$$$
