PHI.pdb
     RDKit          3D

 26 27  0  0  1  0  0  0  0  0999 V2000
   27.9205  -20.7063  -16.0849 N   0  0  0  0  0  0  0  0  0  0  0  0
   28.6066  -20.5380  -17.3525 C   0  0  0  0  0  0  0  0  0  0  0  0
   28.5859  -19.0708  -17.6763 C   0  0  0  0  0  0  0  0  0  0  0  0
   27.9122  -18.4395  -16.4540 C   0  0  0  0  0  0  0  0  0  0  0  0
   28.1638  -19.4727  -15.4043 C   0  0  1  0  0  0  0  0  0  0  0  0
   27.3361  -19.3064  -14.1915 C   0  0  0  0  0  0  0  0  0  0  0  0
   27.3821  -18.2198  -13.5687 O   0  0  0  0  0  0  0  0  0  0  0  0
   26.4807  -20.3400  -13.6977 N   0  0  0  0  0  0  0  0  0  0  0  0
   25.4921  -20.0317  -12.6905 C   0  0  1  0  0  0  0  0  0  0  0  0
   24.0850  -20.2020  -13.1246 C   0  0  0  0  0  0  0  0  0  0  0  0
   23.6646  -19.4668  -14.3211 C   0  0  0  0  0  0  0  0  0  0  0  0
   23.5159  -19.8944  -15.6086 C   0  0  0  0  0  0  0  0  0  0  0  0
   23.0691  -18.8714  -16.3910 N   0  0  0  0  0  0  0  0  0  0  0  0
   22.9457  -17.8242  -15.5813 C   0  0  0  0  0  0  0  0  0  0  0  0
   23.2939  -18.1473  -14.3363 N   0  0  0  0  0  0  0  0  0  0  0  0
   25.7896  -20.7327  -11.4094 C   0  0  0  0  0  0  0  0  0  0  0  0
   26.3040  -21.8690  -11.4537 O   0  0  0  0  0  0  0  0  0  0  0  0
   28.5537  -18.6901   -7.4975 C   0  0  0  0  0  0  0  0  0  0  0  0
   27.8294  -19.6639   -8.3678 C   0  0  0  0  0  0  0  0  0  0  0  0
   26.4358  -19.9725   -7.9368 C   0  0  2  0  0  0  0  0  0  0  0  0
   26.4485  -20.5478   -6.5415 C   0  0  0  0  0  0  0  0  0  0  0  0
   25.6871  -20.8739   -8.8859 C   0  0  2  0  0  0  0  0  0  0  0  0
   25.5088  -20.1536  -10.1505 N   0  0  0  0  0  0  0  0  0  0  0  0
   24.3521  -21.1828   -8.3146 C   0  0  0  0  0  0  0  0  0  0  0  0
   23.3530  -20.5118   -8.6690 O   0  0  0  0  0  0  0  0  0  0  0  0
   24.1548  -22.1950   -7.3924 O   0  0  0  0  0  0  0  0  0  0  0  0
  2  1  1  0
  3  2  1  0
  4  3  1  0
  4  5  1  0
  5  1  1  0
  5  6  1  1
  6  8  1  0
  7  6  2  0
  9  8  1  0
 10 11  1  0
  9 10  1  6
 11 12  2  0
 12 13  1  0
 14 13  1  0
 15 11  1  0
 15 14  2  0
 16  9  1  0
 17 16  2  0
 19 18  1  0
 19 20  1  0
 20 22  1  0
 20 21  1  1
 22 23  1  6
 22 24  1  0
 23 16  1  0
 24 25  2  0
 24 26  1  0
M  END
$$$$
