PHI.pdb
     RDKit          3D

 26 27  0  0  1  0  0  0  0  0999 V2000
   27.2805  -20.1273  -15.9823 N   0  0  0  0  0  0  0  0  0  0  0  0
   28.0948  -19.7846  -17.1335 C   0  0  0  0  0  0  0  0  0  0  0  0
   28.2523  -18.2902  -17.1362 C   0  0  0  0  0  0  0  0  0  0  0  0
   27.5350  -17.8481  -15.8568 C   0  0  0  0  0  0  0  0  0  0  0  0
   27.5826  -19.0971  -15.0380 C   0  0  1  0  0  0  0  0  0  0  0  0
   26.6668  -19.0866  -13.8783 C   0  0  0  0  0  0  0  0  0  0  0  0
   26.7534  -18.1554  -13.0440 O   0  0  0  0  0  0  0  0  0  0  0  0
   25.6813  -20.1008  -13.6687 N   0  0  0  0  0  0  0  0  0  0  0  0
   24.6739  -19.9212  -12.6491 C   0  0  1  0  0  0  0  0  0  0  0  0
   23.2789  -20.1246  -13.1075 C   0  0  0  0  0  0  0  0  0  0  0  0
   22.7716  -19.1988  -14.1247 C   0  0  0  0  0  0  0  0  0  0  0  0
   23.3367  -18.0722  -14.6480 C   0  0  0  0  0  0  0  0  0  0  0  0
   22.5192  -17.5395  -15.6000 N   0  0  0  0  0  0  0  0  0  0  0  0
   21.4597  -18.3407  -15.6562 C   0  0  0  0  0  0  0  0  0  0  0  0
   21.5799  -19.3429  -14.7863 N   0  0  0  0  0  0  0  0  0  0  0  0
   24.9990  -20.7058  -11.4244 C   0  0  0  0  0  0  0  0  0  0  0  0
   25.4842  -21.8482  -11.5561 O   0  0  0  0  0  0  0  0  0  0  0  0
   27.8259  -18.7018   -7.4842 C   0  0  0  0  0  0  0  0  0  0  0  0
   27.1222  -19.6494   -8.3993 C   0  0  0  0  0  0  0  0  0  0  0  0
   25.7725  -20.0812   -7.9357 C   0  0  2  0  0  0  0  0  0  0  0  0
   25.8834  -20.7355   -6.5802 C   0  0  0  0  0  0  0  0  0  0  0  0
   25.0482  -20.9758   -8.9099 C   0  0  2  0  0  0  0  0  0  0  0  0
   24.7761  -20.1992  -10.1234 N   0  0  0  0  0  0  0  0  0  0  0  0
   23.7585  -21.4045   -8.3124 C   0  0  0  0  0  0  0  0  0  0  0  0
   22.7133  -20.7545   -8.5557 O   0  0  0  0  0  0  0  0  0  0  0  0
   23.6535  -22.5078   -7.4844 O   0  0  0  0  0  0  0  0  0  0  0  0
  2  1  1  0
  3  2  1  0
  4  3  1  0
  4  5  1  0
  5  1  1  0
  5  6  1  1
  6  8  1  0
  7  6  2  0
  9  8  1  0
 10 11  1  0
  9 10  1  6
 11 12  2  0
 12 13  1  0
 14 13  1  0
 15 11  1  0
 15 14  2  0
 16  9  1  0
 17 16  2  0
 19 18  1  0
 19 20  1  0
 20 22  1  0
 20 21  1  1
 22 23  1  6
 22 24  1  0
 23 16  1  0
 24 25  2  0
 24 26  1  0
M  END
$$$$
