PHI.pdb
     RDKit          3D

 26 27  0  0  1  0  0  0  0  0999 V2000
   27.2062  -20.9233  -15.4055 N   0  0  0  0  0  0  0  0  0  0  0  0
   28.5835  -20.5156  -15.6120 C   0  0  0  0  0  0  0  0  0  0  0  0
   28.6221  -19.0168  -15.5114 C   0  0  0  0  0  0  0  0  0  0  0  0
   27.1812  -18.6406  -15.1525 C   0  0  0  0  0  0  0  0  0  0  0  0
   26.6813  -19.9104  -14.5438 C   0  0  1  0  0  0  0  0  0  0  0  0
   25.2110  -19.9695  -14.4078 C   0  0  0  0  0  0  0  0  0  0  0  0
   24.5433  -20.5686  -15.2830 O   0  0  0  0  0  0  0  0  0  0  0  0
   24.5161  -19.3679  -13.3127 N   0  0  0  0  0  0  0  0  0  0  0  0
   23.0719  -19.3833  -13.2853 C   0  0  1  0  0  0  0  0  0  0  0  0
   22.4702  -19.1164  -11.9570 C   0  0  0  0  0  0  0  0  0  0  0  0
   22.0012  -20.2771  -11.1941 C   0  0  0  0  0  0  0  0  0  0  0  0
   22.0237  -21.6044  -11.5106 C   0  0  0  0  0  0  0  0  0  0  0  0
   21.5098  -22.3376  -10.4826 N   0  0  0  0  0  0  0  0  0  0  0  0
   21.1761  -21.4584   -9.5428 C   0  0  0  0  0  0  0  0  0  0  0  0
   21.4575  -20.2170   -9.9374 N   0  0  0  0  0  0  0  0  0  0  0  0
   22.5020  -18.5226  -14.3603 C   0  0  0  0  0  0  0  0  0  0  0  0
   22.9255  -17.3548  -14.4803 O   0  0  0  0  0  0  0  0  0  0  0  0
   21.6478  -18.1163  -20.0846 C   0  0  0  0  0  0  0  0  0  0  0  0
   20.9578  -17.8352  -18.7903 C   0  0  0  0  0  0  0  0  0  0  0  0
   21.5030  -18.5759  -17.6167 C   0  0  2  0  0  0  0  0  0  0  0  0
   21.3317  -20.0607  -17.8257 C   0  0  0  0  0  0  0  0  0  0  0  0
   20.9174  -18.1452  -16.2955 C   0  0  2  0  0  0  0  0  0  0  0  0
   21.5009  -18.9854  -15.2449 N   0  0  0  0  0  0  0  0  0  0  0  0
   19.4481  -18.3563  -16.3211 C   0  0  0  0  0  0  0  0  0  0  0  0
   18.7221  -17.5965  -17.0065 O   0  0  0  0  0  0  0  0  0  0  0  0
   18.8308  -19.3706  -15.6112 O   0  0  0  0  0  0  0  0  0  0  0  0
  2  1  1  0
  3  2  1  0
  4  3  1  0
  4  5  1  0
  5  1  1  0
  5  6  1  6
  6  8  1  0
  7  6  2  0
  9  8  1  0
 10 11  1  0
  9 10  1  1
 11 12  2  0
 12 13  1  0
 14 13  1  0
 15 11  1  0
 15 14  2  0
 16  9  1  0
 17 16  2  0
 19 18  1  0
 19 20  1  0
 20 22  1  0
 20 21  1  6
 22 23  1  1
 22 24  1  0
 23 16  1  0
 24 25  2  0
 24 26  1  0
M  END
$$$$
