PHI.pdb
     RDKit          3D

 26 27  0  0  1  0  0  0  0  0999 V2000
   27.5204  -20.4592  -15.9164 N   0  0  0  0  0  0  0  0  0  0  0  0
   28.1782  -20.0552  -17.1451 C   0  0  0  0  0  0  0  0  0  0  0  0
   28.1802  -18.5528  -17.1737 C   0  0  0  0  0  0  0  0  0  0  0  0
   27.5503  -18.1642  -15.8325 C   0  0  0  0  0  0  0  0  0  0  0  0
   27.8062  -19.3878  -15.0139 C   0  0  1  0  0  0  0  0  0  0  0  0
   27.0124  -19.4507  -13.7690 C   0  0  0  0  0  0  0  0  0  0  0  0
   27.1386  -18.5367  -12.9209 O   0  0  0  0  0  0  0  0  0  0  0  0
   26.1018  -20.5174  -13.4919 N   0  0  0  0  0  0  0  0  0  0  0  0
   25.1659  -20.3947  -12.3983 C   0  0  1  0  0  0  0  0  0  0  0  0
   23.7962  -20.8797  -12.6919 C   0  0  0  0  0  0  0  0  0  0  0  0
   23.0591  -20.1880  -13.7537 C   0  0  0  0  0  0  0  0  0  0  0  0
   22.7482  -18.8662  -13.8904 C   0  0  0  0  0  0  0  0  0  0  0  0
   22.0760  -18.6638  -15.0589 N   0  0  0  0  0  0  0  0  0  0  0  0
   21.9788  -19.8595  -15.6320 C   0  0  0  0  0  0  0  0  0  0  0  0
   22.5571  -20.7926  -14.8767 N   0  0  0  0  0  0  0  0  0  0  0  0
   25.7247  -20.9696  -11.1420 C   0  0  0  0  0  0  0  0  0  0  0  0
   26.2067  -22.1204  -11.1724 O   0  0  0  0  0  0  0  0  0  0  0  0
   28.5745  -19.2729   -6.0323 C   0  0  0  0  0  0  0  0  0  0  0  0
   27.6826  -20.2653   -6.7031 C   0  0  0  0  0  0  0  0  0  0  0  0
   27.0825  -19.8004   -7.9863 C   0  0  2  0  0  0  0  0  0  0  0  0
   26.3216  -18.5170   -7.7587 C   0  0  0  0  0  0  0  0  0  0  0  0
   26.2142  -20.8302   -8.6643 C   0  0  2  0  0  0  0  0  0  0  0  0
   25.7260  -20.2554   -9.9218 N   0  0  0  0  0  0  0  0  0  0  0  0
   25.0528  -21.1391   -7.7925 C   0  0  0  0  0  0  0  0  0  0  0  0
   23.9475  -20.5865   -8.0093 O   0  0  0  0  0  0  0  0  0  0  0  0
   25.1342  -22.0245   -6.7326 O   0  0  0  0  0  0  0  0  0  0  0  0
  2  1  1  0
  3  2  1  0
  4  3  1  0
  4  5  1  0
  5  1  1  0
  5  6  1  1
  6  8  1  0
  7  6  2  0
  9  8  1  0
 10 11  1  0
  9 10  1  6
 11 12  2  0
 12 13  1  0
 14 13  1  0
 15 11  1  0
 15 14  2  0
 16  9  1  0
 17 16  2  0
 19 18  1  0
 19 20  1  0
 20 22  1  0
 20 21  1  1
 22 23  1  6
 22 24  1  0
 23 16  1  0
 24 25  2  0
 24 26  1  0
M  END
$$$$
