PHI.pdb
     RDKit          3D

 26 27  0  0  1  0  0  0  0  0999 V2000
   27.7941  -21.5353  -14.9661 N   0  0  0  0  0  0  0  0  0  0  0  0
   28.4076  -21.4378  -16.2776 C   0  0  0  0  0  0  0  0  0  0  0  0
   28.4307  -19.9820  -16.6492 C   0  0  0  0  0  0  0  0  0  0  0  0
   27.8613  -19.2830  -15.4107 C   0  0  0  0  0  0  0  0  0  0  0  0
   28.1319  -20.2933  -14.3436 C   0  0  1  0  0  0  0  0  0  0  0  0
   27.3882  -20.0519  -13.0897 C   0  0  0  0  0  0  0  0  0  0  0  0
   27.5879  -18.9868  -12.4601 O   0  0  0  0  0  0  0  0  0  0  0  0
   26.4455  -20.9889  -12.5632 N   0  0  0  0  0  0  0  0  0  0  0  0
   25.5826  -20.6008  -11.4716 C   0  0  1  0  0  0  0  0  0  0  0  0
   24.1391  -20.8500  -11.6984 C   0  0  0  0  0  0  0  0  0  0  0  0
   23.5276  -20.2033  -12.8633 C   0  0  0  0  0  0  0  0  0  0  0  0
   23.1089  -18.9158  -13.0350 C   0  0  0  0  0  0  0  0  0  0  0  0
   22.6302  -18.7460  -14.3001 N   0  0  0  0  0  0  0  0  0  0  0  0
   22.7580  -19.9272  -14.8967 C   0  0  0  0  0  0  0  0  0  0  0  0
   23.2918  -20.8204  -14.0643 N   0  0  0  0  0  0  0  0  0  0  0  0
   26.0675  -21.1558  -10.1763 C   0  0  0  0  0  0  0  0  0  0  0  0
   26.4813  -22.3329  -10.1463 O   0  0  0  0  0  0  0  0  0  0  0  0
   28.8803  -19.2785   -5.1054 C   0  0  0  0  0  0  0  0  0  0  0  0
   28.0142  -20.3038   -5.7605 C   0  0  0  0  0  0  0  0  0  0  0  0
   27.3612  -19.8565   -7.0241 C   0  0  2  0  0  0  0  0  0  0  0  0
   26.5280  -18.6261   -6.7604 C   0  0  0  0  0  0  0  0  0  0  0  0
   26.5441  -20.9270   -7.7027 C   0  0  2  0  0  0  0  0  0  0  0  0
   26.0735  -20.3942   -8.9851 N   0  0  0  0  0  0  0  0  0  0  0  0
   25.3691  -21.2540   -6.8561 C   0  0  0  0  0  0  0  0  0  0  0  0
   24.2385  -20.8025   -7.1594 O   0  0  0  0  0  0  0  0  0  0  0  0
   25.4647  -22.0481   -5.7273 O   0  0  0  0  0  0  0  0  0  0  0  0
  2  1  1  0
  3  2  1  0
  4  3  1  0
  4  5  1  0
  5  1  1  0
  5  6  1  1
  6  8  1  0
  7  6  2  0
  9  8  1  0
 10 11  1  0
  9 10  1  6
 11 12  2  0
 12 13  1  0
 14 13  1  0
 15 11  1  0
 15 14  2  0
 16  9  1  0
 17 16  2  0
 19 18  1  0
 19 20  1  0
 20 22  1  0
 20 21  1  1
 22 23  1  6
 22 24  1  0
 23 16  1  0
 24 25  2  0
 24 26  1  0
M  END
$$$$
