PHI.pdb
     RDKit          3D

 26 27  0  0  1  0  0  0  0  0999 V2000
   20.6816  -10.8035  -19.4671 N   0  0  0  0  0  0  0  0  0  0  0  0
   19.9968  -11.8043  -20.2641 C   0  0  0  0  0  0  0  0  0  0  0  0
   19.6191  -12.9260  -19.3382 C   0  0  0  0  0  0  0  0  0  0  0  0
   20.0732  -12.4284  -17.9624 C   0  0  0  0  0  0  0  0  0  0  0  0
   20.0976  -10.9489  -18.1702 C   0  0  1  0  0  0  0  0  0  0  0  0
   20.8276  -10.2099  -17.1192 C   0  0  0  0  0  0  0  0  0  0  0  0
   20.4025  -10.2505  -15.9410 O   0  0  0  0  0  0  0  0  0  0  0  0
   22.0049   -9.4467  -17.3937 N   0  0  0  0  0  0  0  0  0  0  0  0
   22.6891   -8.7720  -16.3151 C   0  0  1  0  0  0  0  0  0  0  0  0
   24.1520   -9.0057  -16.2613 C   0  0  0  0  0  0  0  0  0  0  0  0
   24.5970  -10.3750  -15.9853 C   0  0  0  0  0  0  0  0  0  0  0  0
   23.8691  -11.5060  -15.7542 C   0  0  0  0  0  0  0  0  0  0  0  0
   24.7035  -12.5694  -15.5771 N   0  0  0  0  0  0  0  0  0  0  0  0
   25.9360  -12.0864  -15.7007 C   0  0  0  0  0  0  0  0  0  0  0  0
   25.9068  -10.7769  -15.9454 N   0  0  0  0  0  0  0  0  0  0  0  0
   22.3339   -7.3253  -16.2713 C   0  0  0  0  0  0  0  0  0  0  0  0
   22.3019   -6.6837  -17.3413 O   0  0  0  0  0  0  0  0  0  0  0  0
   17.8733   -5.6479  -15.6705 C   0  0  0  0  0  0  0  0  0  0  0  0
   19.3451   -5.6186  -15.9221 C   0  0  0  0  0  0  0  0  0  0  0  0
   20.1689   -5.1662  -14.7646 C   0  0  2  0  0  0  0  0  0  0  0  0
   19.7585   -3.7713  -14.3601 C   0  0  0  0  0  0  0  0  0  0  0  0
   21.6557   -5.2437  -15.0044 C   0  0  2  0  0  0  0  0  0  0  0  0
   22.0332   -6.6594  -15.0609 N   0  0  0  0  0  0  0  0  0  0  0  0
   22.3668   -4.6000  -13.8712 C   0  0  0  0  0  0  0  0  0  0  0  0
   22.6198   -5.2642  -12.8373 O   0  0  0  0  0  0  0  0  0  0  0  0
   22.7708   -3.2772  -13.9028 O   0  0  0  0  0  0  0  0  0  0  0  0
  2  1  1  0
  3  2  1  0
  4  3  1  0
  4  5  1  0
  5  1  1  0
  5  6  1  1
  6  8  1  0
  7  6  2  0
  9  8  1  0
 10 11  1  0
  9 10  1  6
 11 12  2  0
 12 13  1  0
 14 13  1  0
 15 11  1  0
 15 14  2  0
 16  9  1  0
 17 16  2  0
 19 18  1  0
 19 20  1  0
 20 22  1  0
 20 21  1  6
 22 23  1  1
 22 24  1  0
 23 16  1  0
 24 25  2  0
 24 26  1  0
M  END
$$$$
