TST.pdb
     RDKit          3D

 21 20  0  0  1  0  0  0  0  0999 V2000
    8.0517  -12.2094   19.2850 C   0  0  0  0  0  0  0  0  0  0  0  0
    7.6606  -13.4768   18.5671 C   0  0  1  0  0  0  0  0  0  0  0  0
    7.7468  -13.3404   17.1916 O   0  0  0  0  0  0  0  0  0  0  0  0
    8.5903  -14.5997   19.0372 C   0  0  2  0  0  0  0  0  0  0  0  0
    8.2478  -15.7673   18.2827 N   0  0  0  0  0  0  0  0  0  0  0  0
    8.3620  -14.8268   20.4985 C   0  0  0  0  0  0  0  0  0  0  0  0
    8.7131  -13.9845   21.3570 O   0  0  0  0  0  0  0  0  0  0  0  0
    5.9271  -17.7078   23.5660 O   0  0  0  0  0  0  0  0  0  0  0  0
    6.2019  -17.2068   22.2775 C   0  0  0  0  0  0  0  0  0  0  0  0
    7.4706  -16.3462   22.3112 C   0  0  2  0  0  0  0  0  0  0  0  0
    7.7397  -16.0136   20.9071 N   0  0  0  0  0  0  0  0  0  0  0  0
    8.6302  -17.1258   22.7842 C   0  0  0  0  0  0  0  0  0  0  0  0
    9.2146  -18.0082   22.0797 O   0  0  0  0  0  0  0  0  0  0  0  0
   11.9822  -16.0910   23.6556 C   0  0  0  0  0  0  0  0  0  0  0  0
   11.5183  -16.8681   24.8679 C   0  0  1  0  0  0  0  0  0  0  0  0
   11.1226  -15.9259   25.8209 O   0  0  0  0  0  0  0  0  0  0  0  0
   10.3053  -17.7186   24.5559 C   0  0  2  0  0  0  0  0  0  0  0  0
    9.1928  -16.9416   24.0967 N   0  0  0  0  0  0  0  0  0  0  0  0
    9.8834  -18.5183   25.7166 C   0  0  0  0  0  0  0  0  0  0  0  0
    8.7652  -18.3362   26.2297 O   0  0  0  0  0  0  0  0  0  0  0  0
   10.7271  -19.4728   26.2395 O   0  0  0  0  0  0  0  0  0  0  0  0
  2  1  1  1
  2  3  1  0
  2  4  1  0
  4  5  1  6
  6  4  1  0
  6 11  1  0
  7  6  2  0
  8  9  1  0
 10 11  1  0
 10  9  1  6
 10 12  1  0
 12 18  1  0
 13 12  2  0
 15 14  1  6
 15 17  1  0
 16 15  1  0
 17 19  1  0
 17 18  1  1
 19 20  2  0
 19 21  1  0
M  END
$$$$
