TST.pdb
     RDKit          3D

 21 20  0  0  1  0  0  0  0  0999 V2000
   10.5614  -13.8066   20.8924 C   0  0  0  0  0  0  0  0  0  0  0  0
    9.6697  -13.1468   19.8705 C   0  0  1  0  0  0  0  0  0  0  0  0
   10.3452  -12.8745   18.6926 O   0  0  0  0  0  0  0  0  0  0  0  0
    8.4904  -14.0828   19.5887 C   0  0  2  0  0  0  0  0  0  0  0  0
    7.6894  -13.4526   18.5832 N   0  0  0  0  0  0  0  0  0  0  0  0
    7.7106  -14.2608   20.8534 C   0  0  0  0  0  0  0  0  0  0  0  0
    6.9856  -13.3478   21.3122 O   0  0  0  0  0  0  0  0  0  0  0  0
    8.3834  -17.7742   23.0595 O   0  0  0  0  0  0  0  0  0  0  0  0
    7.0664  -17.3069   22.8751 C   0  0  0  0  0  0  0  0  0  0  0  0
    7.0648  -15.7771   22.7698 C   0  0  2  0  0  0  0  0  0  0  0  0
    7.8000  -15.4821   21.5341 N   0  0  0  0  0  0  0  0  0  0  0  0
    7.8362  -15.1670   23.8693 C   0  0  0  0  0  0  0  0  0  0  0  0
    9.0805  -14.9166   23.7962 O   0  0  0  0  0  0  0  0  0  0  0  0
    6.9010  -11.9169   26.0257 C   0  0  0  0  0  0  0  0  0  0  0  0
    7.1726  -13.1201   26.9018 C   0  0  1  0  0  0  0  0  0  0  0  0
    5.9309  -13.6863   27.2017 O   0  0  0  0  0  0  0  0  0  0  0  0
    7.9751  -14.1748   26.1698 C   0  0  2  0  0  0  0  0  0  0  0  0
    7.2277  -14.8057   25.1231 N   0  0  0  0  0  0  0  0  0  0  0  0
    8.4840  -15.2089   27.0842 C   0  0  0  0  0  0  0  0  0  0  0  0
    8.1670  -16.4004   26.9212 O   0  0  0  0  0  0  0  0  0  0  0  0
    9.3148  -14.8601   28.1255 O   0  0  0  0  0  0  0  0  0  0  0  0
  2  1  1  1
  2  3  1  0
  2  4  1  0
  4  5  1  6
  6  4  1  0
  6 11  1  0
  7  6  2  0
  8  9  1  0
 10 11  1  0
 10  9  1  1
 10 12  1  0
 12 18  1  0
 13 12  2  0
 15 14  1  6
 15 17  1  0
 16 15  1  0
 17 19  1  0
 17 18  1  6
 19 20  2  0
 19 21  1  0
M  END
$$$$
