TST.pdb
     RDKit          3D

 21 20  0  0  1  0  0  0  0  0999 V2000
    9.3293  -12.3500   20.1448 C   0  0  0  0  0  0  0  0  0  0  0  0
    8.6807  -12.9972   18.9469 C   0  0  1  0  0  0  0  0  0  0  0  0
    9.3196  -12.6583   17.7658 O   0  0  0  0  0  0  0  0  0  0  0  0
    8.7217  -14.5159   19.1424 C   0  0  2  0  0  0  0  0  0  0  0  0
    8.1738  -15.1035   17.9574 N   0  0  0  0  0  0  0  0  0  0  0  0
    7.8936  -14.8647   20.3389 C   0  0  0  0  0  0  0  0  0  0  0  0
    6.6458  -14.7520   20.3298 O   0  0  0  0  0  0  0  0  0  0  0  0
    9.6547  -17.3216   23.0034 O   0  0  0  0  0  0  0  0  0  0  0  0
    8.2530  -17.2435   22.8773 C   0  0  0  0  0  0  0  0  0  0  0  0
    7.8256  -15.7824   22.6931 C   0  0  2  0  0  0  0  0  0  0  0  0
    8.5385  -15.3280   21.4932 N   0  0  0  0  0  0  0  0  0  0  0  0
    8.3067  -14.9427   23.8064 C   0  0  0  0  0  0  0  0  0  0  0  0
    9.4656  -14.4209   23.8394 O   0  0  0  0  0  0  0  0  0  0  0  0
    6.4656  -11.8948   25.8143 C   0  0  0  0  0  0  0  0  0  0  0  0
    6.8998  -13.0379   26.7051 C   0  0  1  0  0  0  0  0  0  0  0  0
    5.7853  -13.8647   26.8686 O   0  0  0  0  0  0  0  0  0  0  0  0
    7.9802  -13.8749   26.0536 C   0  0  2  0  0  0  0  0  0  0  0  0
    7.4873  -14.6486   24.9533 N   0  0  0  0  0  0  0  0  0  0  0  0
    8.6318  -14.7755   27.0174 C   0  0  0  0  0  0  0  0  0  0  0  0
    8.6333  -16.0042   26.8247 O   0  0  0  0  0  0  0  0  0  0  0  0
    9.2434  -14.2597   28.1383 O   0  0  0  0  0  0  0  0  0  0  0  0
  2  1  1  1
  2  3  1  0
  2  4  1  0
  4  5  1  6
  6  4  1  0
  6 11  1  0
  7  6  2  0
  8  9  1  0
 10 11  1  0
 10  9  1  1
 10 12  1  0
 12 18  1  0
 13 12  2  0
 15 14  1  6
 15 17  1  0
 16 15  1  0
 17 19  1  0
 17 18  1  6
 19 20  2  0
 19 21  1  0
M  END
$$$$
