TST.pdb
     RDKit          3D

 21 20  0  0  1  0  0  0  0  0999 V2000
   11.8305  -16.9835   22.2114 C   0  0  0  0  0  0  0  0  0  0  0  0
   11.0199  -16.9503   20.9400 C   0  0  1  0  0  0  0  0  0  0  0  0
   11.7385  -17.4243   19.8552 O   0  0  0  0  0  0  0  0  0  0  0  0
    9.7675  -17.8074   21.1482 C   0  0  2  0  0  0  0  0  0  0  0  0
    9.1100  -17.8993   19.8797 N   0  0  0  0  0  0  0  0  0  0  0  0
    8.8890  -17.1310   22.1530 C   0  0  0  0  0  0  0  0  0  0  0  0
    8.1040  -16.2109   21.8259 O   0  0  0  0  0  0  0  0  0  0  0  0
    8.5361  -18.9648   25.8683 O   0  0  0  0  0  0  0  0  0  0  0  0
    7.5071  -18.2211   25.2560 C   0  0  0  0  0  0  0  0  0  0  0  0
    8.0980  -16.9948   24.5499 C   0  0  2  0  0  0  0  0  0  0  0  0
    8.9529  -17.5436   23.4904 N   0  0  0  0  0  0  0  0  0  0  0  0
    8.9866  -16.2379   25.4519 C   0  0  0  0  0  0  0  0  0  0  0  0
   10.2449  -16.4127   25.5034 O   0  0  0  0  0  0  0  0  0  0  0  0
    8.5142  -12.2168   26.5171 C   0  0  0  0  0  0  0  0  0  0  0  0
    8.7362  -13.1769   27.6651 C   0  0  1  0  0  0  0  0  0  0  0  0
    7.4736  -13.4925   28.1737 O   0  0  0  0  0  0  0  0  0  0  0  0
    9.3615  -14.4736   27.1963 C   0  0  2  0  0  0  0  0  0  0  0  0
    8.4868  -15.2319   26.3525 N   0  0  0  0  0  0  0  0  0  0  0  0
    9.7867  -15.3164   28.3247 C   0  0  0  0  0  0  0  0  0  0  0  0
    9.3812  -16.4883   28.4191 O   0  0  0  0  0  0  0  0  0  0  0  0
   10.6368  -14.8092   29.2820 O   0  0  0  0  0  0  0  0  0  0  0  0
  2  1  1  1
  2  3  1  0
  2  4  1  0
  4  5  1  6
  6  4  1  0
  6 11  1  0
  7  6  2  0
  8  9  1  0
 10 11  1  0
 10  9  1  1
 10 12  1  0
 12 18  1  0
 13 12  2  0
 15 14  1  6
 15 17  1  0
 16 15  1  0
 17 19  1  0
 17 18  1  1
 19 20  2  0
 19 21  1  0
M  END
$$$$
