TST.pdb
     RDKit          3D

 21 20  0  0  1  0  0  0  0  0999 V2000
    8.5105  -16.6392   17.1324 C   0  0  0  0  0  0  0  0  0  0  0  0
    8.7870  -15.1750   16.8994 C   0  0  1  0  0  0  0  0  0  0  0  0
    8.7826  -14.8551   15.5519 O   0  0  0  0  0  0  0  0  0  0  0  0
    7.7130  -14.3628   17.6297 C   0  0  2  0  0  0  0  0  0  0  0  0
    7.8386  -13.0087   17.1823 N   0  0  0  0  0  0  0  0  0  0  0  0
    7.9612  -14.4601   19.1021 C   0  0  0  0  0  0  0  0  0  0  0  0
    8.8794  -13.8137   19.6577 O   0  0  0  0  0  0  0  0  0  0  0  0
    5.7226  -17.3101   21.1263 O   0  0  0  0  0  0  0  0  0  0  0  0
    6.0054  -16.1047   21.7999 C   0  0  0  0  0  0  0  0  0  0  0  0
    7.3387  -15.5305   21.3057 C   0  0  2  0  0  0  0  0  0  0  0  0
    7.1413  -15.2973   19.8700 N   0  0  0  0  0  0  0  0  0  0  0  0
    8.4220  -16.5250   21.4211 C   0  0  0  0  0  0  0  0  0  0  0  0
    8.6373  -17.4292   20.5536 O   0  0  0  0  0  0  0  0  0  0  0  0
   12.0360  -15.9709   21.5225 C   0  0  0  0  0  0  0  0  0  0  0  0
   11.7532  -16.8438   22.7254 C   0  0  1  0  0  0  0  0  0  0  0  0
   11.7246  -15.9977   23.8371 O   0  0  0  0  0  0  0  0  0  0  0  0
   10.3916  -17.4993   22.6327 C   0  0  2  0  0  0  0  0  0  0  0  0
    9.3274  -16.5447   22.5404 N   0  0  0  0  0  0  0  0  0  0  0  0
   10.1348  -18.3930   23.7727 C   0  0  0  0  0  0  0  0  0  0  0  0
   10.8741  -19.3713   23.9808 O   0  0  0  0  0  0  0  0  0  0  0  0
    9.0729  -18.1488   24.6147 O   0  0  0  0  0  0  0  0  0  0  0  0
  2  1  1  6
  2  3  1  0
  2  4  1  0
  4  5  1  6
  6  4  1  0
  6 11  1  0
  7  6  2  0
  8  9  1  0
 10 11  1  0
 10  9  1  6
 10 12  1  0
 12 18  1  0
 13 12  2  0
 15 14  1  6
 15 17  1  0
 16 15  1  0
 17 19  1  0
 17 18  1  1
 19 20  2  0
 19 21  1  0
M  END
$$$$
