TST.pdb
     RDKit          3D

 21 20  0  0  1  0  0  0  0  0999 V2000
   -0.9129  -20.0633   24.4961 C   0  0  0  0  0  0  0  0  0  0  0  0
   -1.4112  -21.3895   25.0133 C   0  0  1  0  0  0  0  0  0  0  0  0
   -1.7690  -21.3230   26.3495 O   0  0  0  0  0  0  0  0  0  0  0  0
   -2.6209  -21.8076   24.1718 C   0  0  2  0  0  0  0  0  0  0  0  0
   -3.1467  -23.0011   24.7622 N   0  0  0  0  0  0  0  0  0  0  0  0
   -2.1607  -22.0669   22.7718 C   0  0  0  0  0  0  0  0  0  0  0  0
   -1.3624  -22.9946   22.5038 O   0  0  0  0  0  0  0  0  0  0  0  0
   -4.0172  -19.7759   20.2015 O   0  0  0  0  0  0  0  0  0  0  0  0
   -3.4004  -20.8459   19.5222 C   0  0  0  0  0  0  0  0  0  0  0  0
   -2.2162  -21.3721   20.3421 C   0  0  2  0  0  0  0  0  0  0  0  0
   -2.6397  -21.2466   21.7419 N   0  0  0  0  0  0  0  0  0  0  0  0
   -1.0332  -20.5048   20.1855 C   0  0  0  0  0  0  0  0  0  0  0  0
   -1.1028  -19.2408   20.0681 O   0  0  0  0  0  0  0  0  0  0  0  0
    1.8332  -19.7331   22.3448 C   0  0  0  0  0  0  0  0  0  0  0  0
    2.4406  -20.2326   21.0523 C   0  0  1  0  0  0  0  0  0  0  0  0
    2.7757  -21.5734   21.2585 O   0  0  0  0  0  0  0  0  0  0  0  0
    1.4422  -20.1956   19.9147 C   0  0  2  0  0  0  0  0  0  0  0  0
    0.3054  -21.0340   20.1539 N   0  0  0  0  0  0  0  0  0  0  0  0
    2.0567  -20.5771   18.6336 C   0  0  0  0  0  0  0  0  0  0  0  0
    1.7312  -21.6392   18.0742 O   0  0  0  0  0  0  0  0  0  0  0  0
    2.9961  -19.7577   18.0484 O   0  0  0  0  0  0  0  0  0  0  0  0
  2  1  1  6
  2  3  1  0
  2  4  1  0
  4  5  1  1
  6  4  1  0
  6 11  1  0
  7  6  2  0
  8  9  1  0
 10 11  1  0
 10  9  1  6
 10 12  1  0
 12 18  1  0
 13 12  2  0
 15 14  1  1
 15 17  1  0
 16 15  1  0
 17 19  1  0
 17 18  1  1
 19 20  2  0
 19 21  1  0
M  END
$$$$
