TST.pdb
     RDKit          3D

 21 20  0  0  1  0  0  0  0  0999 V2000
   14.0179  -17.1472   18.3035 C   0  0  0  0  0  0  0  0  0  0  0  0
   13.1203  -16.5392   19.3520 C   0  0  1  0  0  0  0  0  0  0  0  0
   13.8310  -16.1301   20.4681 O   0  0  0  0  0  0  0  0  0  0  0  0
   12.3983  -15.3411   18.7279 C   0  0  2  0  0  0  0  0  0  0  0  0
   13.3942  -14.3486   18.4584 N   0  0  0  0  0  0  0  0  0  0  0  0
   11.3906  -14.8286   19.7083 C   0  0  0  0  0  0  0  0  0  0  0  0
   11.6750  -13.9300   20.5337 O   0  0  0  0  0  0  0  0  0  0  0  0
    7.5757  -16.7847   20.0734 O   0  0  0  0  0  0  0  0  0  0  0  0
    7.7288  -15.3936   19.9056 C   0  0  0  0  0  0  0  0  0  0  0  0
    9.0215  -14.9247   20.5842 C   0  0  2  0  0  0  0  0  0  0  0  0
   10.0999  -15.3733   19.6951 N   0  0  0  0  0  0  0  0  0  0  0  0
    9.2280  -15.6157   21.8711 C   0  0  0  0  0  0  0  0  0  0  0  0
   10.0184  -16.6007   22.0175 O   0  0  0  0  0  0  0  0  0  0  0  0
    8.9624  -13.8152   25.6396 C   0  0  0  0  0  0  0  0  0  0  0  0
    8.2251  -15.1291   25.5013 C   0  0  1  0  0  0  0  0  0  0  0  0
    6.8854  -14.8137   25.2600 O   0  0  0  0  0  0  0  0  0  0  0  0
    8.7151  -15.9219   24.3082 C   0  0  2  0  0  0  0  0  0  0  0  0
    8.5399  -15.2194   23.0721 N   0  0  0  0  0  0  0  0  0  0  0  0
    8.0531  -17.2322   24.2115 C   0  0  0  0  0  0  0  0  0  0  0  0
    7.3634  -17.5138   23.2155 O   0  0  0  0  0  0  0  0  0  0  0  0
    8.1952  -18.1530   25.2256 O   0  0  0  0  0  0  0  0  0  0  0  0
  2  1  1  6
  2  3  1  0
  2  4  1  0
  4  5  1  1
  6  4  1  0
  6 11  1  0
  7  6  2  0
  8  9  1  0
 10 11  1  0
 10  9  1  6
 10 12  1  0
 12 18  1  0
 13 12  2  0
 15 14  1  6
 15 17  1  0
 16 15  1  0
 17 19  1  0
 17 18  1  6
 19 20  2  0
 19 21  1  0
M  END
$$$$
