TST.pdb
     RDKit          3D

 21 20  0  0  1  0  0  0  0  0999 V2000
   10.1366  -20.0661   19.9067 C   0  0  0  0  0  0  0  0  0  0  0  0
   10.3407  -19.3885   18.5747 C   0  0  1  0  0  0  0  0  0  0  0  0
    9.8878  -20.1672   17.5228 O   0  0  0  0  0  0  0  0  0  0  0  0
    9.5876  -18.0548   18.5957 C   0  0  2  0  0  0  0  0  0  0  0  0
    9.6623  -17.5134   17.2725 N   0  0  0  0  0  0  0  0  0  0  0  0
   10.2556  -17.1460   19.5790 C   0  0  0  0  0  0  0  0  0  0  0  0
   11.3547  -16.5998   19.3274 O   0  0  0  0  0  0  0  0  0  0  0  0
    9.3914  -14.8204   23.7791 O   0  0  0  0  0  0  0  0  0  0  0  0
    8.9649  -15.5792   22.6704 C   0  0  0  0  0  0  0  0  0  0  0  0
   10.1769  -16.0145   21.8379 C   0  0  2  0  0  0  0  0  0  0  0  0
    9.6286  -16.9059   20.8087 N   0  0  0  0  0  0  0  0  0  0  0  0
   11.1093  -16.8286   22.6404 C   0  0  0  0  0  0  0  0  0  0  0  0
   10.8011  -17.9557   23.1414 O   0  0  0  0  0  0  0  0  0  0  0  0
   14.8575  -17.4929   21.6922 C   0  0  0  0  0  0  0  0  0  0  0  0
   14.7814  -17.1348   23.1601 C   0  0  1  0  0  0  0  0  0  0  0  0
   15.1890  -15.8027   23.2696 O   0  0  0  0  0  0  0  0  0  0  0  0
   13.3613  -17.2074   23.6802 C   0  0  2  0  0  0  0  0  0  0  0  0
   12.4554  -16.4001   22.9188 N   0  0  0  0  0  0  0  0  0  0  0  0
   13.2755  -16.8169   25.0961 C   0  0  0  0  0  0  0  0  0  0  0  0
   12.6603  -15.7875   25.4259 O   0  0  0  0  0  0  0  0  0  0  0  0
   13.8775  -17.5914   26.0626 O   0  0  0  0  0  0  0  0  0  0  0  0
  2  1  1  1
  2  3  1  0
  2  4  1  0
  4  5  1  6
  6  4  1  0
  6 11  1  0
  7  6  2  0
  8  9  1  0
 10 11  1  0
 10  9  1  1
 10 12  1  0
 12 18  1  0
 13 12  2  0
 15 14  1  6
 15 17  1  0
 16 15  1  0
 17 19  1  0
 17 18  1  6
 19 20  2  0
 19 21  1  0
M  END
$$$$
