TST.pdb
     RDKit          3D

 21 20  0  0  1  0  0  0  0  0999 V2000
   12.8957  -17.2361   14.5450 C   0  0  0  0  0  0  0  0  0  0  0  0
   13.0694  -16.7449   15.9604 C   0  0  1  0  0  0  0  0  0  0  0  0
   14.2418  -17.2123   16.5305 O   0  0  0  0  0  0  0  0  0  0  0  0
   13.0771  -15.2134   15.9381 C   0  0  2  0  0  0  0  0  0  0  0  0
   14.2028  -14.8138   15.1489 N   0  0  0  0  0  0  0  0  0  0  0  0
   13.2117  -14.7171   17.3433 C   0  0  0  0  0  0  0  0  0  0  0  0
   14.3042  -14.2965   17.7898 O   0  0  0  0  0  0  0  0  0  0  0  0
    9.9641  -15.3190   19.9948 O   0  0  0  0  0  0  0  0  0  0  0  0
   10.6277  -14.0766   19.9410 C   0  0  0  0  0  0  0  0  0  0  0  0
   12.1014  -14.2870   19.5730 C   0  0  2  0  0  0  0  0  0  0  0  0
   12.0826  -14.7269   18.1728 N   0  0  0  0  0  0  0  0  0  0  0  0
   12.6913  -15.3939   20.3495 C   0  0  0  0  0  0  0  0  0  0  0  0
   12.4426  -16.6195   20.1208 O   0  0  0  0  0  0  0  0  0  0  0  0
   16.1817  -16.2626   20.5507 C   0  0  0  0  0  0  0  0  0  0  0  0
   15.7472  -16.2138   21.9991 C   0  0  1  0  0  0  0  0  0  0  0  0
   16.1767  -14.9844   22.5054 O   0  0  0  0  0  0  0  0  0  0  0  0
   14.2393  -16.2449   22.1316 C   0  0  2  0  0  0  0  0  0  0  0  0
   13.6045  -15.1637   21.4386 N   0  0  0  0  0  0  0  0  0  0  0  0
   13.8124  -16.2269   23.5394 C   0  0  0  0  0  0  0  0  0  0  0  0
   13.1416  -15.2760   23.9786 O   0  0  0  0  0  0  0  0  0  0  0  0
   14.1548  -17.2649   24.3770 O   0  0  0  0  0  0  0  0  0  0  0  0
  2  1  1  6
  2  3  1  0
  2  4  1  0
  4  5  1  6
  6  4  1  0
  6 11  1  0
  7  6  2  0
  8  9  1  0
 10 11  1  0
 10  9  1  1
 10 12  1  0
 12 18  1  0
 13 12  2  0
 15 14  1  6
 15 17  1  0
 16 15  1  0
 17 19  1  0
 17 18  1  6
 19 20  2  0
 19 21  1  0
M  END
$$$$
