TST.pdb
     RDKit          3D

 21 20  0  0  1  0  0  0  0  0999 V2000
   -2.2735  -25.5088   32.7697 C   0  0  0  0  0  0  0  0  0  0  0  0
   -1.4118  -26.2333   31.7661 C   0  0  1  0  0  0  0  0  0  0  0  0
   -0.2367  -26.6983   32.3325 O   0  0  0  0  0  0  0  0  0  0  0  0
   -2.2175  -27.4080   31.2029 C   0  0  2  0  0  0  0  0  0  0  0  0
   -1.3128  -28.1985   30.4243 N   0  0  0  0  0  0  0  0  0  0  0  0
   -3.3179  -26.8641   30.3470 C   0  0  0  0  0  0  0  0  0  0  0  0
   -3.1070  -26.4731   29.1755 O   0  0  0  0  0  0  0  0  0  0  0  0
   -7.0287  -27.4009   31.8472 O   0  0  0  0  0  0  0  0  0  0  0  0
   -6.9142  -27.2295   30.4528 C   0  0  0  0  0  0  0  0  0  0  0  0
   -5.7645  -26.2648   30.1377 C   0  0  2  0  0  0  0  0  0  0  0  0
   -4.6127  -26.7943   30.8776 N   0  0  0  0  0  0  0  0  0  0  0  0
   -6.0308  -24.9219   30.6871 C   0  0  0  0  0  0  0  0  0  0  0  0
   -5.8650  -24.6210   31.9112 O   0  0  0  0  0  0  0  0  0  0  0  0
   -4.7168  -21.4674   29.4594 C   0  0  0  0  0  0  0  0  0  0  0  0
   -6.2268  -21.4248   29.5423 C   0  0  1  0  0  0  0  0  0  0  0  0
   -6.7058  -21.6430   28.2479 O   0  0  0  0  0  0  0  0  0  0  0  0
   -6.7707  -22.5403   30.4095 C   0  0  2  0  0  0  0  0  0  0  0  0
   -6.5047  -23.8386   29.8656 N   0  0  0  0  0  0  0  0  0  0  0  0
   -8.2181  -22.4034   30.6346 C   0  0  0  0  0  0  0  0  0  0  0  0
   -9.0073  -23.2422   30.1651 O   0  0  0  0  0  0  0  0  0  0  0  0
   -8.7047  -21.3440   31.3675 O   0  0  0  0  0  0  0  0  0  0  0  0
  2  1  1  1
  2  3  1  0
  2  4  1  0
  4  5  1  6
  6  4  1  0
  6 11  1  0
  7  6  2  0
  8  9  1  0
 10 11  1  0
 10  9  1  1
 10 12  1  0
 12 18  1  0
 13 12  2  0
 15 14  1  6
 15 17  1  0
 16 15  1  0
 17 19  1  0
 17 18  1  6
 19 20  2  0
 19 21  1  0
M  END
$$$$
