MKW.pdb
     RDKit          3D

 32 33  0  0  1  0  0  0  0  0999 V2000
   15.6121  -20.6956  -14.0011 C   0  0  0  0  0  0  0  0  0  0  0  0
   16.9925  -21.7226  -13.4363 S   0  0  0  0  0  0  0  0  0  0  0  0
   18.3343  -20.6284  -12.8700 C   0  0  0  0  0  0  0  0  0  0  0  0
   19.5165  -21.4699  -12.5262 C   0  0  0  0  0  0  0  0  0  0  0  0
   20.4667  -21.5695  -13.6882 C   0  0  2  0  0  0  0  0  0  0  0  0
   19.9098  -22.4478  -14.7192 N   0  0  0  0  0  0  0  0  0  0  0  0
   21.7426  -22.1459  -13.2445 C   0  0  0  0  0  0  0  0  0  0  0  0
   21.8184  -23.1730  -12.4805 O   0  0  0  0  0  0  0  0  0  0  0  0
   22.9571  -21.5778  -13.6512 N   0  0  0  0  0  0  0  0  0  0  0  0
   24.2832  -22.1009  -13.1840 C   0  0  1  0  0  0  0  0  0  0  0  0
   25.1052  -22.1027  -14.4231 C   0  0  0  0  0  0  0  0  0  0  0  0
   26.5279  -22.4183  -14.3912 C   0  0  0  0  0  0  0  0  0  0  0  0
   27.3905  -22.3298  -15.5615 C   0  0  0  0  0  0  0  0  0  0  0  0
   28.8124  -22.6770  -15.5489 C   0  0  0  0  0  0  0  0  0  0  0  0
   29.2456  -22.6055  -16.9839 N   0  0  0  0  0  0  0  0  0  0  0  0
   24.7185  -21.0444  -12.1971 C   0  0  0  0  0  0  0  0  0  0  0  0
   24.3784  -19.8144  -12.3554 O   0  0  0  0  0  0  0  0  0  0  0  0
   25.5032  -21.4418  -11.1016 N   0  0  0  0  0  0  0  0  0  0  0  0
   26.1244  -20.3752  -10.2857 C   0  0  1  0  0  0  0  0  0  0  0  0
   26.4448  -21.0286   -8.9760 C   0  0  0  0  0  0  0  0  0  0  0  0
   26.9769  -20.0821   -7.9991 C   0  0  0  0  0  0  0  0  0  0  0  0
   26.9287  -18.7064   -8.0804 C   0  0  0  0  0  0  0  0  0  0  0  0
   27.5472  -18.1594   -7.0209 N   0  0  0  0  0  0  0  0  0  0  0  0
   28.0023  -19.1556   -6.2407 C   0  0  0  0  0  0  0  0  0  0  0  0
   28.6833  -19.1414   -5.0438 C   0  0  0  0  0  0  0  0  0  0  0  0
   29.0364  -20.3264   -4.4054 C   0  0  0  0  0  0  0  0  0  0  0  0
   28.7064  -21.5417   -4.9672 C   0  0  0  0  0  0  0  0  0  0  0  0
   28.0272  -21.5380   -6.1626 C   0  0  0  0  0  0  0  0  0  0  0  0
   27.6548  -20.3736   -6.8363 C   0  0  0  0  0  0  0  0  0  0  0  0
   27.2122  -19.7282  -11.0026 C   0  0  0  0  0  0  0  0  0  0  0  0
   27.4511  -18.5018  -10.9932 O   0  0  0  0  0  0  0  0  0  0  0  0
   28.0841  -20.5140  -11.7782 O   0  0  0  0  0  0  0  0  0  0  0  0
  2  1  1  0
  3  2  1  0
  4  3  1  0
  5  4  1  0
  5  6  1  6
  7  5  1  0
  7  8  2  0
  9  7  1  0
 10  9  1  0
 10 11  1  6
 11 12  1  0
 12 13  1  0
 13 14  1  0
 14 15  1  0
 16 10  1  0
 17 16  2  0
 18 16  1  0
 19 18  1  0
 19 20  1  1
 20 21  1  0
 21 22  2  0
 22 23  1  0
 24 23  1  0
 25 24  2  0
 26 25  1  0
 27 28  1  0
 27 26  2  0
 28 29  2  0
 29 21  1  0
 29 24  1  0
 30 19  1  0
 30 32  1  0
 31 30  2  0
M  END
$$$$
