MKW.pdb
     RDKit          3D

 32 33  0  0  1  0  0  0  0  0999 V2000
   28.2362  -14.9449  -15.3049 C   0  0  0  0  0  0  0  0  0  0  0  0
   27.1202  -16.3177  -15.6911 S   0  0  0  0  0  0  0  0  0  0  0  0
   25.9423  -15.7652  -16.9661 C   0  0  0  0  0  0  0  0  0  0  0  0
   24.9335  -16.8432  -17.1759 C   0  0  0  0  0  0  0  0  0  0  0  0
   25.6002  -18.1750  -17.3874 C   0  0  2  0  0  0  0  0  0  0  0  0
   26.4092  -18.1442  -18.6075 N   0  0  0  0  0  0  0  0  0  0  0  0
   24.5848  -19.2245  -17.5448 C   0  0  0  0  0  0  0  0  0  0  0  0
   23.9259  -19.4035  -18.6303 O   0  0  0  0  0  0  0  0  0  0  0  0
   24.2911  -20.0921  -16.4844 N   0  0  0  0  0  0  0  0  0  0  0  0
   23.2522  -21.1687  -16.5936 C   0  0  1  0  0  0  0  0  0  0  0  0
   23.6921  -22.1709  -15.5870 C   0  0  0  0  0  0  0  0  0  0  0  0
   22.9430  -23.4007  -15.3610 C   0  0  0  0  0  0  0  0  0  0  0  0
   23.3363  -24.4052  -14.3822 C   0  0  0  0  0  0  0  0  0  0  0  0
   22.6786  -25.7057  -14.2459 C   0  0  0  0  0  0  0  0  0  0  0  0
   23.3208  -26.3457  -13.0500 N   0  0  0  0  0  0  0  0  0  0  0  0
   21.9919  -20.4452  -16.1839 C   0  0  0  0  0  0  0  0  0  0  0  0
   21.9856  -19.6556  -15.1689 O   0  0  0  0  0  0  0  0  0  0  0  0
   20.8281  -20.6570  -16.9418 N   0  0  0  0  0  0  0  0  0  0  0  0
   19.5901  -19.9827  -16.4925 C   0  0  1  0  0  0  0  0  0  0  0  0
   19.4058  -18.8404  -17.4444 C   0  0  0  0  0  0  0  0  0  0  0  0
   18.1715  -18.1013  -17.1919 C   0  0  0  0  0  0  0  0  0  0  0  0
   17.9594  -17.1783  -16.1897 C   0  0  0  0  0  0  0  0  0  0  0  0
   16.6958  -16.7254  -16.2391 N   0  0  0  0  0  0  0  0  0  0  0  0
   16.0711  -17.3365  -17.2612 C   0  0  0  0  0  0  0  0  0  0  0  0
   14.7882  -17.2220  -17.7485 C   0  0  0  0  0  0  0  0  0  0  0  0
   14.3716  -17.9601  -18.8522 C   0  0  0  0  0  0  0  0  0  0  0  0
   15.2451  -18.8239  -19.4785 C   0  0  0  0  0  0  0  0  0  0  0  0
   16.5219  -18.9268  -18.9788 C   0  0  0  0  0  0  0  0  0  0  0  0
   16.9801  -18.2060  -17.8748 C   0  0  0  0  0  0  0  0  0  0  0  0
   18.4946  -20.9295  -16.3520 C   0  0  0  0  0  0  0  0  0  0  0  0
   18.3409  -21.9594  -17.0425 O   0  0  0  0  0  0  0  0  0  0  0  0
   17.5122  -20.6993  -15.3717 O   0  0  0  0  0  0  0  0  0  0  0  0
  2  1  1  0
  3  2  1  0
  4  3  1  0
  5  4  1  0
  5  6  1  6
  7  5  1  0
  7  8  2  0
  9  7  1  0
 10  9  1  0
 10 11  1  1
 11 12  1  0
 12 13  1  0
 13 14  1  0
 14 15  1  0
 16 10  1  0
 17 16  2  0
 18 16  1  0
 19 18  1  0
 19 20  1  6
 20 21  1  0
 21 22  2  0
 22 23  1  0
 24 23  1  0
 25 24  2  0
 26 25  1  0
 27 28  1  0
 27 26  2  0
 28 29  2  0
 29 21  1  0
 29 24  1  0
 30 19  1  0
 30 32  1  0
 31 30  2  0
M  END
$$$$
