MKW.pdb
     RDKit          3D

 32 33  0  0  1  0  0  0  0  0999 V2000
   21.4688  -15.1561  -15.0123 C   0  0  0  0  0  0  0  0  0  0  0  0
   20.8276  -14.8794  -16.6831 S   0  0  0  0  0  0  0  0  0  0  0  0
   21.9767  -15.6361  -17.8769 C   0  0  0  0  0  0  0  0  0  0  0  0
   23.2470  -15.9630  -17.1675 C   0  0  0  0  0  0  0  0  0  0  0  0
   24.2313  -16.6218  -18.0950 C   0  0  2  0  0  0  0  0  0  0  0  0
   23.8669  -16.3536  -19.4876 N   0  0  0  0  0  0  0  0  0  0  0  0
   24.2121  -18.0767  -17.8950 C   0  0  0  0  0  0  0  0  0  0  0  0
   23.2682  -18.8300  -18.3263 O   0  0  0  0  0  0  0  0  0  0  0  0
   25.2539  -18.7117  -17.2059 N   0  0  0  0  0  0  0  0  0  0  0  0
   25.3161  -20.2016  -17.0428 C   0  0  1  0  0  0  0  0  0  0  0  0
   26.7396  -20.5178  -17.3339 C   0  0  0  0  0  0  0  0  0  0  0  0
   27.2574  -21.8748  -17.2115 C   0  0  0  0  0  0  0  0  0  0  0  0
   28.6130  -22.2481  -17.5917 C   0  0  0  0  0  0  0  0  0  0  0  0
   29.1271  -23.6168  -17.5218 C   0  0  0  0  0  0  0  0  0  0  0  0
   30.5518  -23.5240  -17.9840 N   0  0  0  0  0  0  0  0  0  0  0  0
   24.9648  -20.3827  -15.5855 C   0  0  0  0  0  0  0  0  0  0  0  0
   25.4954  -19.6371  -14.6821 O   0  0  0  0  0  0  0  0  0  0  0  0
   24.0425  -21.3860  -15.2442 N   0  0  0  0  0  0  0  0  0  0  0  0
   23.7895  -21.6181  -13.8050 C   0  0  1  0  0  0  0  0  0  0  0  0
   24.2071  -20.3474  -13.1301 C   0  0  0  0  0  0  0  0  0  0  0  0
   23.9908  -20.3889  -11.6862 C   0  0  0  0  0  0  0  0  0  0  0  0
   24.9137  -20.7556  -10.7296 C   0  0  0  0  0  0  0  0  0  0  0  0
   24.3562  -20.7086   -9.5084 N   0  0  0  0  0  0  0  0  0  0  0  0
   23.0778  -20.3148   -9.6460 C   0  0  0  0  0  0  0  0  0  0  0  0
   22.0842  -20.0937   -8.7184 C   0  0  0  0  0  0  0  0  0  0  0  0
   20.8206  -19.6623   -9.1099 C   0  0  0  0  0  0  0  0  0  0  0  0
   20.5432  -19.4484  -10.4437 C   0  0  0  0  0  0  0  0  0  0  0  0
   21.5461  -19.6746  -11.3566 C   0  0  0  0  0  0  0  0  0  0  0  0
   22.8261  -20.1079  -11.0071 C   0  0  0  0  0  0  0  0  0  0  0  0
   22.4326  -22.0906  -13.5772 C   0  0  0  0  0  0  0  0  0  0  0  0
   21.4243  -21.7167  -14.2133 O   0  0  0  0  0  0  0  0  0  0  0  0
   22.1998  -23.0438  -12.5691 O   0  0  0  0  0  0  0  0  0  0  0  0
  2  1  1  0
  3  2  1  0
  4  3  1  0
  5  4  1  0
  5  6  1  6
  7  5  1  0
  7  8  2  0
  9  7  1  0
 10  9  1  0
 10 11  1  1
 11 12  1  0
 12 13  1  0
 13 14  1  0
 14 15  1  0
 16 10  1  0
 17 16  2  0
 18 16  1  0
 19 18  1  0
 19 20  1  1
 20 21  1  0
 21 22  2  0
 22 23  1  0
 24 23  1  0
 25 24  2  0
 26 25  1  0
 27 28  1  0
 27 26  2  0
 28 29  2  0
 29 21  1  0
 29 24  1  0
 30 19  1  0
 30 32  1  0
 31 30  2  0
M  END
$$$$
