MKW.pdb
     RDKit          3D

 32 33  0  0  1  0  0  0  0  0999 V2000
   22.2815  -17.5643  -18.8740 C   0  0  0  0  0  0  0  0  0  0  0  0
   23.5616  -18.5828  -19.6507 S   0  0  0  0  0  0  0  0  0  0  0  0
   24.1197  -19.8298  -18.4457 C   0  0  0  0  0  0  0  0  0  0  0  0
   24.0043  -19.2487  -17.0772 C   0  0  0  0  0  0  0  0  0  0  0  0
   24.5799  -20.1783  -16.0439 C   0  0  2  0  0  0  0  0  0  0  0  0
   23.9229  -21.4846  -16.1210 N   0  0  0  0  0  0  0  0  0  0  0  0
   24.3507  -19.6358  -14.6984 C   0  0  0  0  0  0  0  0  0  0  0  0
   24.6754  -18.4422  -14.3604 O   0  0  0  0  0  0  0  0  0  0  0  0
   23.7522  -20.4256  -13.7077 N   0  0  0  0  0  0  0  0  0  0  0  0
   23.4221  -19.8898  -12.3460 C   0  0  1  0  0  0  0  0  0  0  0  0
   22.0564  -20.4204  -12.0922 C   0  0  0  0  0  0  0  0  0  0  0  0
   20.8867  -19.8576  -12.7551 C   0  0  0  0  0  0  0  0  0  0  0  0
   20.3978  -20.3275  -14.0442 C   0  0  0  0  0  0  0  0  0  0  0  0
   19.2393  -19.7535  -14.7304 C   0  0  0  0  0  0  0  0  0  0  0  0
   19.1127  -20.5348  -16.0054 N   0  0  0  0  0  0  0  0  0  0  0  0
   24.4716  -20.5419  -11.4783 C   0  0  0  0  0  0  0  0  0  0  0  0
   24.8308  -21.7599  -11.6813 O   0  0  0  0  0  0  0  0  0  0  0  0
   25.0452  -19.7821  -10.4451 N   0  0  0  0  0  0  0  0  0  0  0  0
   26.0494  -20.4479   -9.5863 C   0  0  1  0  0  0  0  0  0  0  0  0
   27.0192  -19.3669   -9.2178 C   0  0  0  0  0  0  0  0  0  0  0  0
   28.0661  -19.8438   -8.3178 C   0  0  0  0  0  0  0  0  0  0  0  0
   28.9348  -20.8887   -8.5520 C   0  0  0  0  0  0  0  0  0  0  0  0
   29.7395  -21.0666   -7.4912 N   0  0  0  0  0  0  0  0  0  0  0  0
   29.4141  -20.1525   -6.5602 C   0  0  0  0  0  0  0  0  0  0  0  0
   29.9338  -19.8946   -5.3112 C   0  0  0  0  0  0  0  0  0  0  0  0
   29.4324  -18.8616   -4.5252 C   0  0  0  0  0  0  0  0  0  0  0  0
   28.3993  -18.0752   -4.9898 C   0  0  0  0  0  0  0  0  0  0  0  0
   27.8917  -18.3467   -6.2384 C   0  0  0  0  0  0  0  0  0  0  0  0
   28.3643  -19.3725   -7.0586 C   0  0  0  0  0  0  0  0  0  0  0  0
   25.4138  -21.1839   -8.5044 C   0  0  0  0  0  0  0  0  0  0  0  0
   24.3083  -20.9023   -7.9950 O   0  0  0  0  0  0  0  0  0  0  0  0
   26.0667  -22.3069   -7.9643 O   0  0  0  0  0  0  0  0  0  0  0  0
  2  1  1  0
  3  2  1  0
  4  3  1  0
  5  4  1  0
  5  6  1  1
  7  5  1  0
  7  8  2  0
  9  7  1  0
 10  9  1  0
 10 11  1  1
 11 12  1  0
 12 13  1  0
 13 14  1  0
 14 15  1  0
 16 10  1  0
 17 16  2  0
 18 16  1  0
 19 18  1  0
 19 20  1  1
 20 21  1  0
 21 22  2  0
 22 23  1  0
 24 23  1  0
 25 24  2  0
 26 25  1  0
 27 28  1  0
 27 26  2  0
 28 29  2  0
 29 21  1  0
 29 24  1  0
 30 19  1  0
 30 32  1  0
 31 30  2  0
M  END
$$$$
