MKW.pdb
     RDKit          3D

 32 33  0  0  1  0  0  0  0  0999 V2000
   17.7923  -20.7017  -16.7693 C   0  0  0  0  0  0  0  0  0  0  0  0
   19.1205  -21.4824  -15.8176 S   0  0  0  0  0  0  0  0  0  0  0  0
   20.2354  -20.1795  -15.2030 C   0  0  0  0  0  0  0  0  0  0  0  0
   21.4187  -20.8302  -14.5704 C   0  0  0  0  0  0  0  0  0  0  0  0
   22.6349  -20.7130  -15.4480 C   0  0  2  0  0  0  0  0  0  0  0  0
   22.4932  -21.5772  -16.6216 N   0  0  0  0  0  0  0  0  0  0  0  0
   23.8290  -21.1450  -14.7101 C   0  0  0  0  0  0  0  0  0  0  0  0
   24.0798  -22.3737  -14.4425 O   0  0  0  0  0  0  0  0  0  0  0  0
   24.7634  -20.2032  -14.2592 N   0  0  0  0  0  0  0  0  0  0  0  0
   25.9607  -20.5896  -13.4422 C   0  0  1  0  0  0  0  0  0  0  0  0
   26.9910  -19.6012  -13.8579 C   0  0  0  0  0  0  0  0  0  0  0  0
   27.9726  -19.9142  -14.8889 C   0  0  0  0  0  0  0  0  0  0  0  0
   28.4664  -21.2620  -15.1366 C   0  0  0  0  0  0  0  0  0  0  0  0
   29.4909  -21.5800  -16.1324 C   0  0  0  0  0  0  0  0  0  0  0  0
   29.6869  -23.0644  -16.0321 N   0  0  0  0  0  0  0  0  0  0  0  0
   25.4749  -20.3664  -12.0302 C   0  0  0  0  0  0  0  0  0  0  0  0
   24.6540  -19.4146  -11.7583 O   0  0  0  0  0  0  0  0  0  0  0  0
   25.9426  -21.2268  -11.0229 N   0  0  0  0  0  0  0  0  0  0  0  0
   25.8728  -20.7428   -9.6264 C   0  0  1  0  0  0  0  0  0  0  0  0
   26.8211  -21.6192   -8.8666 C   0  0  0  0  0  0  0  0  0  0  0  0
   27.1056  -21.1019   -7.5306 C   0  0  0  0  0  0  0  0  0  0  0  0
   26.1778  -20.7093   -6.5891 C   0  0  0  0  0  0  0  0  0  0  0  0
   26.8004  -20.2550   -5.4890 N   0  0  0  0  0  0  0  0  0  0  0  0
   28.1269  -20.3432   -5.6914 C   0  0  0  0  0  0  0  0  0  0  0  0
   29.1978  -20.0284   -4.8848 C   0  0  0  0  0  0  0  0  0  0  0  0
   30.5050  -20.2299   -5.3172 C   0  0  0  0  0  0  0  0  0  0  0  0
   30.7483  -20.7520   -6.5701 C   0  0  0  0  0  0  0  0  0  0  0  0
   29.6680  -21.0600   -7.3628 C   0  0  0  0  0  0  0  0  0  0  0  0
   28.3420  -20.8733   -6.9687 C   0  0  0  0  0  0  0  0  0  0  0  0
   26.0772  -19.3043   -9.5557 C   0  0  0  0  0  0  0  0  0  0  0  0
   26.9314  -18.6660  -10.2068 O   0  0  0  0  0  0  0  0  0  0  0  0
   25.2672  -18.5391   -8.6967 O   0  0  0  0  0  0  0  0  0  0  0  0
  2  1  1  0
  3  2  1  0
  4  3  1  0
  5  4  1  0
  5  6  1  6
  7  5  1  0
  7  8  2  0
  9  7  1  0
 10  9  1  0
 10 11  1  6
 11 12  1  0
 12 13  1  0
 13 14  1  0
 14 15  1  0
 16 10  1  0
 17 16  2  0
 18 16  1  0
 19 18  1  0
 19 20  1  1
 20 21  1  0
 21 22  2  0
 22 23  1  0
 24 23  1  0
 25 24  2  0
 26 25  1  0
 27 28  1  0
 27 26  2  0
 28 29  2  0
 29 21  1  0
 29 24  1  0
 30 19  1  0
 30 32  1  0
 31 30  2  0
M  END
$$$$
