MKW.pdb
     RDKit          3D

 32 33  0  0  1  0  0  0  0  0999 V2000
   19.6262  -16.6971  -12.9132 C   0  0  0  0  0  0  0  0  0  0  0  0
   20.4536  -16.2617  -14.4640 S   0  0  0  0  0  0  0  0  0  0  0  0
   20.6067  -17.7656  -15.4806 C   0  0  0  0  0  0  0  0  0  0  0  0
   21.1273  -18.8664  -14.6198 C   0  0  0  0  0  0  0  0  0  0  0  0
   22.6082  -18.7248  -14.3961 C   0  0  2  0  0  0  0  0  0  0  0  0
   23.3233  -18.8539  -15.6674 N   0  0  0  0  0  0  0  0  0  0  0  0
   23.0837  -19.7871  -13.5002 C   0  0  0  0  0  0  0  0  0  0  0  0
   22.3798  -20.2573  -12.5369 O   0  0  0  0  0  0  0  0  0  0  0  0
   24.3598  -20.3402  -13.6705 N   0  0  0  0  0  0  0  0  0  0  0  0
   24.8781  -21.4443  -12.7972 C   0  0  1  0  0  0  0  0  0  0  0  0
   25.5847  -22.3347  -13.7558 C   0  0  0  0  0  0  0  0  0  0  0  0
   24.8619  -23.3124  -14.5597 C   0  0  0  0  0  0  0  0  0  0  0  0
   24.0366  -24.3649  -13.9829 C   0  0  0  0  0  0  0  0  0  0  0  0
   23.3448  -25.3805  -14.7782 C   0  0  0  0  0  0  0  0  0  0  0  0
   22.6941  -26.2872  -13.7749 N   0  0  0  0  0  0  0  0  0  0  0  0
   25.8239  -20.7116  -11.8762 C   0  0  0  0  0  0  0  0  0  0  0  0
   26.6290  -19.8188  -12.3328 O   0  0  0  0  0  0  0  0  0  0  0  0
   25.7994  -21.0306  -10.5082 N   0  0  0  0  0  0  0  0  0  0  0  0
   26.7632  -20.3333   -9.6284 C   0  0  1  0  0  0  0  0  0  0  0  0
   26.1015  -20.2958   -8.2846 C   0  0  0  0  0  0  0  0  0  0  0  0
   26.9013  -19.5829   -7.2919 C   0  0  0  0  0  0  0  0  0  0  0  0
   27.0431  -18.2157   -7.1823 C   0  0  0  0  0  0  0  0  0  0  0  0
   27.8811  -17.9177   -6.1756 N   0  0  0  0  0  0  0  0  0  0  0  0
   28.2938  -19.0701   -5.6187 C   0  0  0  0  0  0  0  0  0  0  0  0
   29.1352  -19.3232   -4.5583 C   0  0  0  0  0  0  0  0  0  0  0  0
   29.4001  -20.6263   -4.1482 C   0  0  0  0  0  0  0  0  0  0  0  0
   28.8188  -21.6913   -4.8036 C   0  0  0  0  0  0  0  0  0  0  0  0
   27.9821  -21.4210   -5.8605 C   0  0  0  0  0  0  0  0  0  0  0  0
   27.6901  -20.1303   -6.3046 C   0  0  0  0  0  0  0  0  0  0  0  0
   28.0857  -20.9328   -9.7145 C   0  0  0  0  0  0  0  0  0  0  0  0
   28.3209  -22.1101  -10.0605 O   0  0  0  0  0  0  0  0  0  0  0  0
   29.2124  -20.1553   -9.3898 O   0  0  0  0  0  0  0  0  0  0  0  0
  2  1  1  0
  3  2  1  0
  4  3  1  0
  5  4  1  0
  5  6  1  6
  7  5  1  0
  7  8  2  0
  9  7  1  0
 10  9  1  0
 10 11  1  6
 11 12  1  0
 12 13  1  0
 13 14  1  0
 14 15  1  0
 16 10  1  0
 17 16  2  0
 18 16  1  0
 19 18  1  0
 19 20  1  1
 20 21  1  0
 21 22  2  0
 22 23  1  0
 24 23  1  0
 25 24  2  0
 26 25  1  0
 27 28  1  0
 27 26  2  0
 28 29  2  0
 29 21  1  0
 29 24  1  0
 30 19  1  0
 30 32  1  0
 31 30  2  0
M  END
$$$$
