MKW.pdb
     RDKit          3D

 32 33  0  0  1  0  0  0  0  0999 V2000
   28.9404  -18.4999   -6.2251 C   0  0  0  0  0  0  0  0  0  0  0  0
   27.8367  -19.9261   -6.0609 S   0  0  0  0  0  0  0  0  0  0  0  0
   28.1086  -21.0350   -7.4804 C   0  0  0  0  0  0  0  0  0  0  0  0
   27.3366  -20.5109   -8.6437 C   0  0  0  0  0  0  0  0  0  0  0  0
   27.4796  -21.4129   -9.8391 C   0  0  2  0  0  0  0  0  0  0  0  0
   28.8786  -21.4598  -10.2691 N   0  0  0  0  0  0  0  0  0  0  0  0
   26.6804  -20.8942  -10.9569 C   0  0  0  0  0  0  0  0  0  0  0  0
   27.0655  -19.9238  -11.7015 O   0  0  0  0  0  0  0  0  0  0  0  0
   25.4329  -21.4568  -11.2580 N   0  0  0  0  0  0  0  0  0  0  0  0
   24.8292  -21.3809  -12.6292 C   0  0  1  0  0  0  0  0  0  0  0  0
   24.7755  -22.8038  -13.0578 C   0  0  0  0  0  0  0  0  0  0  0  0
   24.2309  -23.1872  -14.3543 C   0  0  0  0  0  0  0  0  0  0  0  0
   24.2271  -24.5592  -14.8431 C   0  0  0  0  0  0  0  0  0  0  0  0
   23.8048  -24.9382  -16.1924 C   0  0  0  0  0  0  0  0  0  0  0  0
   23.9998  -26.4246  -16.2607 N   0  0  0  0  0  0  0  0  0  0  0  0
   23.4621  -20.8043  -12.3495 C   0  0  0  0  0  0  0  0  0  0  0  0
   22.8370  -21.0880  -11.2621 O   0  0  0  0  0  0  0  0  0  0  0  0
   22.8930  -19.9492  -13.3080 N   0  0  0  0  0  0  0  0  0  0  0  0
   21.5192  -19.4611  -13.0559 C   0  0  1  0  0  0  0  0  0  0  0  0
   21.6274  -17.9673  -13.0944 C   0  0  0  0  0  0  0  0  0  0  0  0
   20.3250  -17.3137  -12.9945 C   0  0  0  0  0  0  0  0  0  0  0  0
   19.5979  -17.1075  -11.8412 C   0  0  0  0  0  0  0  0  0  0  0  0
   18.4318  -16.5073  -12.1318 N   0  0  0  0  0  0  0  0  0  0  0  0
   18.3798  -16.3139  -13.4615 C   0  0  0  0  0  0  0  0  0  0  0  0
   17.4232  -15.7334  -14.2643 C   0  0  0  0  0  0  0  0  0  0  0  0
   17.6077  -15.6299  -15.6396 C   0  0  0  0  0  0  0  0  0  0  0  0
   18.7608  -16.1114  -16.2228 C   0  0  0  0  0  0  0  0  0  0  0  0
   19.7051  -16.6887  -15.4071 C   0  0  0  0  0  0  0  0  0  0  0  0
   19.5599  -16.8132  -14.0244 C   0  0  0  0  0  0  0  0  0  0  0  0
   20.5620  -20.0931  -13.9506 C   0  0  0  0  0  0  0  0  0  0  0  0
   20.7993  -20.4445  -15.1259 O   0  0  0  0  0  0  0  0  0  0  0  0
   19.2565  -20.3438  -13.4902 O   0  0  0  0  0  0  0  0  0  0  0  0
  2  1  1  0
  3  2  1  0
  4  3  1  0
  5  4  1  0
  5  6  1  6
  7  5  1  0
  7  8  2  0
  9  7  1  0
 10  9  1  0
 10 11  1  1
 11 12  1  0
 12 13  1  0
 13 14  1  0
 14 15  1  0
 16 10  1  0
 17 16  2  0
 18 16  1  0
 19 18  1  0
 19 20  1  6
 20 21  1  0
 21 22  2  0
 22 23  1  0
 24 23  1  0
 25 24  2  0
 26 25  1  0
 27 28  1  0
 27 26  2  0
 28 29  2  0
 29 21  1  0
 29 24  1  0
 30 19  1  0
 30 32  1  0
 31 30  2  0
M  END
$$$$
