MKW.pdb
     RDKit          3D

 32 33  0  0  1  0  0  0  0  0999 V2000
   30.7134  -21.2703  -10.9433 C   0  0  0  0  0  0  0  0  0  0  0  0
   29.1337  -21.2048  -11.8263 S   0  0  0  0  0  0  0  0  0  0  0  0
   29.0628  -19.6490  -12.7712 C   0  0  0  0  0  0  0  0  0  0  0  0
   27.7896  -19.6255  -13.5471 C   0  0  0  0  0  0  0  0  0  0  0  0
   28.0490  -19.7975  -15.0190 C   0  0  2  0  0  0  0  0  0  0  0  0
   29.0890  -18.8650  -15.4585 N   0  0  0  0  0  0  0  0  0  0  0  0
   26.8280  -19.5045  -15.7808 C   0  0  0  0  0  0  0  0  0  0  0  0
   26.4192  -18.3121  -16.0161 O   0  0  0  0  0  0  0  0  0  0  0  0
   26.0437  -20.5470  -16.2920 N   0  0  0  0  0  0  0  0  0  0  0  0
   24.7044  -20.3071  -16.9238 C   0  0  1  0  0  0  0  0  0  0  0  0
   24.8281  -20.9711  -18.2486 C   0  0  0  0  0  0  0  0  0  0  0  0
   25.9052  -20.6335  -19.1706 C   0  0  0  0  0  0  0  0  0  0  0  0
   26.0877  -21.2899  -20.4580 C   0  0  0  0  0  0  0  0  0  0  0  0
   27.1779  -20.9738  -21.3822 C   0  0  0  0  0  0  0  0  0  0  0  0
   27.0093  -21.9286  -22.5276 N   0  0  0  0  0  0  0  0  0  0  0  0
   23.7703  -21.0386  -15.9899 C   0  0  0  0  0  0  0  0  0  0  0  0
   23.8944  -22.3029  -15.7905 O   0  0  0  0  0  0  0  0  0  0  0  0
   22.7638  -20.3007  -15.3447 N   0  0  0  0  0  0  0  0  0  0  0  0
   22.0805  -20.9381  -14.1976 C   0  0  1  0  0  0  0  0  0  0  0  0
   23.1640  -21.6592  -13.4553 C   0  0  0  0  0  0  0  0  0  0  0  0
   23.2247  -21.2727  -12.0481 C   0  0  0  0  0  0  0  0  0  0  0  0
   22.1531  -21.1141  -11.1949 C   0  0  0  0  0  0  0  0  0  0  0  0
   22.5813  -20.7194   -9.9845 N   0  0  0  0  0  0  0  0  0  0  0  0
   23.9214  -20.6160  -10.0270 C   0  0  0  0  0  0  0  0  0  0  0  0
   24.8426  -20.2676   -9.0645 C   0  0  0  0  0  0  0  0  0  0  0  0
   26.2048  -20.2510   -9.3480 C   0  0  0  0  0  0  0  0  0  0  0  0
   26.6550  -20.5859  -10.6076 C   0  0  0  0  0  0  0  0  0  0  0  0
   25.7221  -20.9305  -11.5570 C   0  0  0  0  0  0  0  0  0  0  0  0
   24.3477  -20.9595  -11.3151 C   0  0  0  0  0  0  0  0  0  0  0  0
   21.2801  -19.9745  -13.4581 C   0  0  0  0  0  0  0  0  0  0  0  0
   21.5388  -18.7569  -13.3496 O   0  0  0  0  0  0  0  0  0  0  0  0
   20.1161  -20.4124  -12.8005 O   0  0  0  0  0  0  0  0  0  0  0  0
  2  1  1  0
  3  2  1  0
  4  3  1  0
  5  4  1  0
  5  6  1  6
  7  5  1  0
  7  8  2  0
  9  7  1  0
 10  9  1  0
 10 11  1  6
 11 12  1  0
 12 13  1  0
 13 14  1  0
 14 15  1  0
 16 10  1  0
 17 16  2  0
 18 16  1  0
 19 18  1  0
 19 20  1  1
 20 21  1  0
 21 22  2  0
 22 23  1  0
 24 23  1  0
 25 24  2  0
 26 25  1  0
 27 28  1  0
 27 26  2  0
 28 29  2  0
 29 21  1  0
 29 24  1  0
 30 19  1  0
 30 32  1  0
 31 30  2  0
M  END
$$$$
