MKW.pdb
     RDKit          3D

 32 33  0  0  1  0  0  0  0  0999 V2000
   28.9396  -15.8927  -16.8678 C   0  0  0  0  0  0  0  0  0  0  0  0
   28.0930  -14.3022  -17.0494 S   0  0  0  0  0  0  0  0  0  0  0  0
   26.3226  -14.6186  -17.3391 C   0  0  0  0  0  0  0  0  0  0  0  0
   25.8613  -15.6484  -16.3642 C   0  0  0  0  0  0  0  0  0  0  0  0
   24.3984  -15.9490  -16.5455 C   0  0  2  0  0  0  0  0  0  0  0  0
   23.6113  -14.7230  -16.3989 N   0  0  0  0  0  0  0  0  0  0  0  0
   23.9508  -16.8990  -15.5187 C   0  0  0  0  0  0  0  0  0  0  0  0
   23.6660  -16.5492  -14.3184 O   0  0  0  0  0  0  0  0  0  0  0  0
   23.8156  -18.2602  -15.8226 N   0  0  0  0  0  0  0  0  0  0  0  0
   23.2076  -19.2393  -14.8623 C   0  0  1  0  0  0  0  0  0  0  0  0
   22.4470  -20.1595  -15.7489 C   0  0  0  0  0  0  0  0  0  0  0  0
   21.1451  -19.7902  -16.2903 C   0  0  0  0  0  0  0  0  0  0  0  0
   20.3536  -20.6737  -17.1356 C   0  0  0  0  0  0  0  0  0  0  0  0
   19.1133  -20.2662  -17.7976 C   0  0  0  0  0  0  0  0  0  0  0  0
   18.2201  -19.7835  -16.6925 N   0  0  0  0  0  0  0  0  0  0  0  0
   24.4245  -19.8917  -14.2513 C   0  0  0  0  0  0  0  0  0  0  0  0
   25.5384  -19.9395  -14.8921 O   0  0  0  0  0  0  0  0  0  0  0  0
   24.3070  -20.4432  -12.9645 N   0  0  0  0  0  0  0  0  0  0  0  0
   25.5111  -21.0749  -12.3812 C   0  0  1  0  0  0  0  0  0  0  0  0
   26.4086  -19.9317  -12.0174 C   0  0  0  0  0  0  0  0  0  0  0  0
   27.5605  -20.3599  -11.2281 C   0  0  0  0  0  0  0  0  0  0  0  0
   28.6995  -20.9725  -11.7064 C   0  0  0  0  0  0  0  0  0  0  0  0
   29.5328  -21.2548  -10.6913 N   0  0  0  0  0  0  0  0  0  0  0  0
   28.9593  -20.8360   -9.5493 C   0  0  0  0  0  0  0  0  0  0  0  0
   29.3923  -20.8708   -8.2425 C   0  0  0  0  0  0  0  0  0  0  0  0
   28.6136  -20.3473   -7.2149 C   0  0  0  0  0  0  0  0  0  0  0  0
   27.3872  -19.7817   -7.4932 C   0  0  0  0  0  0  0  0  0  0  0  0
   26.9698  -19.7558   -8.8029 C   0  0  0  0  0  0  0  0  0  0  0  0
   27.7184  -20.2698   -9.8630 C   0  0  0  0  0  0  0  0  0  0  0  0
   25.1565  -22.0171  -11.3311 C   0  0  0  0  0  0  0  0  0  0  0  0
   24.1367  -21.9438  -10.6131 O   0  0  0  0  0  0  0  0  0  0  0  0
   26.0058  -23.1092  -11.0759 O   0  0  0  0  0  0  0  0  0  0  0  0
  2  1  1  0
  3  2  1  0
  4  3  1  0
  5  4  1  0
  5  6  1  1
  7  5  1  0
  7  8  2  0
  9  7  1  0
 10  9  1  0
 10 11  1  6
 11 12  1  0
 12 13  1  0
 13 14  1  0
 14 15  1  0
 16 10  1  0
 17 16  2  0
 18 16  1  0
 19 18  1  0
 19 20  1  1
 20 21  1  0
 21 22  2  0
 22 23  1  0
 24 23  1  0
 25 24  2  0
 26 25  1  0
 27 28  1  0
 27 26  2  0
 28 29  2  0
 29 21  1  0
 29 24  1  0
 30 19  1  0
 30 32  1  0
 31 30  2  0
M  END
$$$$
