MKW.pdb
     RDKit          3D

 32 33  0  0  1  0  0  0  0  0999 V2000
   27.8834  -12.7911  -15.5229 C   0  0  0  0  0  0  0  0  0  0  0  0
   27.4253  -14.5017  -15.9014 S   0  0  0  0  0  0  0  0  0  0  0  0
   25.6408  -14.7042  -15.5962 C   0  0  0  0  0  0  0  0  0  0  0  0
   25.2742  -16.1247  -15.8639 C   0  0  0  0  0  0  0  0  0  0  0  0
   25.8866  -16.6089  -17.1498 C   0  0  2  0  0  0  0  0  0  0  0  0
   25.0999  -16.1359  -18.2907 N   0  0  0  0  0  0  0  0  0  0  0  0
   25.8907  -18.0773  -17.1814 C   0  0  0  0  0  0  0  0  0  0  0  0
   24.8576  -18.7736  -17.4854 O   0  0  0  0  0  0  0  0  0  0  0  0
   27.0565  -18.7901  -16.8714 N   0  0  0  0  0  0  0  0  0  0  0  0
   27.0523  -20.2723  -16.6401 C   0  0  1  0  0  0  0  0  0  0  0  0
   28.4871  -20.6416  -16.7667 C   0  0  0  0  0  0  0  0  0  0  0  0
   28.9422  -22.0091  -16.5490 C   0  0  0  0  0  0  0  0  0  0  0  0
   28.8660  -23.0465  -17.5686 C   0  0  0  0  0  0  0  0  0  0  0  0
   29.3959  -24.3992  -17.3904 C   0  0  0  0  0  0  0  0  0  0  0  0
   29.1166  -25.1029  -18.6861 N   0  0  0  0  0  0  0  0  0  0  0  0
   26.5462  -20.3772  -15.2215 C   0  0  0  0  0  0  0  0  0  0  0  0
   27.1971  -19.8449  -14.2485 O   0  0  0  0  0  0  0  0  0  0  0  0
   25.3454  -21.0701  -14.9941 N   0  0  0  0  0  0  0  0  0  0  0  0
   25.0199  -21.4289  -13.5960 C   0  0  1  0  0  0  0  0  0  0  0  0
   25.1197  -20.1425  -12.8344 C   0  0  0  0  0  0  0  0  0  0  0  0
   24.7502  -20.2990  -11.4300 C   0  0  0  0  0  0  0  0  0  0  0  0
   25.5877  -20.6676  -10.3985 C   0  0  0  0  0  0  0  0  0  0  0  0
   24.8978  -20.7437   -9.2485 N   0  0  0  0  0  0  0  0  0  0  0  0
   23.6161  -20.4294   -9.5069 C   0  0  0  0  0  0  0  0  0  0  0  0
   22.5131  -20.3415   -8.6871 C   0  0  0  0  0  0  0  0  0  0  0  0
   21.2710  -19.9710   -9.1933 C   0  0  0  0  0  0  0  0  0  0  0  0
   21.1261  -19.6842  -10.5344 C   0  0  0  0  0  0  0  0  0  0  0  0
   22.2372  -19.7776  -11.3388 C   0  0  0  0  0  0  0  0  0  0  0  0
   23.5003  -20.1459  -10.8726 C   0  0  0  0  0  0  0  0  0  0  0  0
   23.7679  -22.1656  -13.5181 C   0  0  0  0  0  0  0  0  0  0  0  0
   23.4337  -22.9189  -12.5789 O   0  0  0  0  0  0  0  0  0  0  0  0
   22.8359  -22.0445  -14.5649 O   0  0  0  0  0  0  0  0  0  0  0  0
  2  1  1  0
  3  2  1  0
  4  3  1  0
  5  4  1  0
  5  6  1  6
  7  5  1  0
  7  8  2  0
  9  7  1  0
 10  9  1  0
 10 11  1  1
 11 12  1  0
 12 13  1  0
 13 14  1  0
 14 15  1  0
 16 10  1  0
 17 16  2  0
 18 16  1  0
 19 18  1  0
 19 20  1  1
 20 21  1  0
 21 22  2  0
 22 23  1  0
 24 23  1  0
 25 24  2  0
 26 25  1  0
 27 28  1  0
 27 26  2  0
 28 29  2  0
 29 21  1  0
 29 24  1  0
 30 19  1  0
 30 32  1  0
 31 30  2  0
M  END
$$$$
