MKW.pdb
     RDKit          3D

 32 33  0  0  1  0  0  0  0  0999 V2000
   30.1641  -17.0053  -17.0866 C   0  0  0  0  0  0  0  0  0  0  0  0
   28.9220  -17.6471  -15.9356 S   0  0  0  0  0  0  0  0  0  0  0  0
   27.7089  -16.3303  -15.5995 C   0  0  0  0  0  0  0  0  0  0  0  0
   26.7239  -16.8391  -14.6022 C   0  0  0  0  0  0  0  0  0  0  0  0
   25.8831  -17.9419  -15.1854 C   0  0  2  0  0  0  0  0  0  0  0  0
   25.0171  -17.4100  -16.2396 N   0  0  0  0  0  0  0  0  0  0  0  0
   25.0242  -18.5214  -14.1445 C   0  0  0  0  0  0  0  0  0  0  0  0
   24.0576  -17.8801  -13.5977 O   0  0  0  0  0  0  0  0  0  0  0  0
   25.2364  -19.8327  -13.6988 N   0  0  0  0  0  0  0  0  0  0  0  0
   24.4172  -20.4497  -12.6039 C   0  0  1  0  0  0  0  0  0  0  0  0
   23.8221  -21.6464  -13.2557 C   0  0  0  0  0  0  0  0  0  0  0  0
   22.4484  -21.6427  -13.7428 C   0  0  0  0  0  0  0  0  0  0  0  0
   21.3007  -21.3667  -12.8893 C   0  0  0  0  0  0  0  0  0  0  0  0
   19.9239  -21.2929  -13.3806 C   0  0  0  0  0  0  0  0  0  0  0  0
   19.0934  -20.9755  -12.1717 N   0  0  0  0  0  0  0  0  0  0  0  0
   25.4651  -20.8057  -11.5769 C   0  0  0  0  0  0  0  0  0  0  0  0
   26.4531  -21.5707  -11.8812 O   0  0  0  0  0  0  0  0  0  0  0  0
   25.3322  -20.2781  -10.2816 N   0  0  0  0  0  0  0  0  0  0  0  0
   26.2092  -20.8321   -9.2266 C   0  0  1  0  0  0  0  0  0  0  0  0
   27.2548  -19.7824   -9.0036 C   0  0  0  0  0  0  0  0  0  0  0  0
   28.2866  -20.2173   -8.0657 C   0  0  0  0  0  0  0  0  0  0  0  0
   29.2418  -21.1862   -8.2896 C   0  0  0  0  0  0  0  0  0  0  0  0
   30.0018  -21.3471   -7.1937 N   0  0  0  0  0  0  0  0  0  0  0  0
   29.5614  -20.4968   -6.2496 C   0  0  0  0  0  0  0  0  0  0  0  0
   29.9952  -20.2516   -4.9658 C   0  0  0  0  0  0  0  0  0  0  0  0
   29.3782  -19.2898   -4.1717 C   0  0  0  0  0  0  0  0  0  0  0  0
   28.3146  -18.5627   -4.6634 C   0  0  0  0  0  0  0  0  0  0  0  0
   27.8938  -18.8206   -5.9466 C   0  0  0  0  0  0  0  0  0  0  0  0
   28.4834  -19.7760   -6.7761 C   0  0  0  0  0  0  0  0  0  0  0  0
   25.4366  -21.2724   -8.0754 C   0  0  0  0  0  0  0  0  0  0  0  0
   24.3107  -20.8357   -7.7549 O   0  0  0  0  0  0  0  0  0  0  0  0
   25.9678  -22.2669   -7.2341 O   0  0  0  0  0  0  0  0  0  0  0  0
  2  1  1  0
  3  2  1  0
  4  3  1  0
  5  4  1  0
  5  6  1  6
  7  5  1  0
  7  8  2  0
  9  7  1  0
 10  9  1  0
 10 11  1  6
 11 12  1  0
 12 13  1  0
 13 14  1  0
 14 15  1  0
 16 10  1  0
 17 16  2  0
 18 16  1  0
 19 18  1  0
 19 20  1  1
 20 21  1  0
 21 22  2  0
 22 23  1  0
 24 23  1  0
 25 24  2  0
 26 25  1  0
 27 28  1  0
 27 26  2  0
 28 29  2  0
 29 21  1  0
 29 24  1  0
 30 19  1  0
 30 32  1  0
 31 30  2  0
M  END
$$$$
