MKW.pdb
     RDKit          3D

 32 33  0  0  1  0  0  0  0  0999 V2000
   29.3747  -23.3863  -16.5095 C   0  0  0  0  0  0  0  0  0  0  0  0
   30.3973  -21.9068  -16.7210 S   0  0  0  0  0  0  0  0  0  0  0  0
   29.3516  -20.5700  -17.3827 C   0  0  0  0  0  0  0  0  0  0  0  0
   28.5475  -20.0014  -16.2630 C   0  0  0  0  0  0  0  0  0  0  0  0
   27.8799  -21.0903  -15.4682 C   0  0  2  0  0  0  0  0  0  0  0  0
   27.0502  -21.9174  -16.3467 N   0  0  0  0  0  0  0  0  0  0  0  0
   27.0064  -20.5007  -14.4452 C   0  0  0  0  0  0  0  0  0  0  0  0
   27.4135  -19.6336  -13.5927 O   0  0  0  0  0  0  0  0  0  0  0  0
   25.6588  -20.8754  -14.3616 N   0  0  0  0  0  0  0  0  0  0  0  0
   24.7313  -20.3071  -13.3285 C   0  0  1  0  0  0  0  0  0  0  0  0
   23.4012  -20.8298  -13.7394 C   0  0  0  0  0  0  0  0  0  0  0  0
   22.2192  -20.6381  -12.9084 C   0  0  0  0  0  0  0  0  0  0  0  0
   21.3080  -19.5127  -13.0659 C   0  0  0  0  0  0  0  0  0  0  0  0
   20.2315  -19.2029  -12.1237 C   0  0  0  0  0  0  0  0  0  0  0  0
   19.5086  -18.0339  -12.7260 N   0  0  0  0  0  0  0  0  0  0  0  0
   25.2384  -20.9402  -12.0550 C   0  0  0  0  0  0  0  0  0  0  0  0
   25.5735  -22.1813  -12.0240 O   0  0  0  0  0  0  0  0  0  0  0  0
   25.3352  -20.1367  -10.9066 N   0  0  0  0  0  0  0  0  0  0  0  0
   25.5865  -20.8180   -9.6174 C   0  0  1  0  0  0  0  0  0  0  0  0
   26.9363  -20.3345   -9.1823 C   0  0  0  0  0  0  0  0  0  0  0  0
   27.1191  -20.4264   -7.7362 C   0  0  0  0  0  0  0  0  0  0  0  0
   26.3863  -21.2048   -6.8653 C   0  0  0  0  0  0  0  0  0  0  0  0
   26.8096  -21.0115   -5.6053 N   0  0  0  0  0  0  0  0  0  0  0  0
   27.8128  -20.1164   -5.6328 C   0  0  0  0  0  0  0  0  0  0  0  0
   28.5943  -19.5879   -4.6296 C   0  0  0  0  0  0  0  0  0  0  0  0
   29.6034  -18.6727   -4.9134 C   0  0  0  0  0  0  0  0  0  0  0  0
   29.8368  -18.2789   -6.2141 C   0  0  0  0  0  0  0  0  0  0  0  0
   29.0470  -18.8155   -7.2034 C   0  0  0  0  0  0  0  0  0  0  0  0
   28.0247  -19.7349   -6.9626 C   0  0  0  0  0  0  0  0  0  0  0  0
   24.4741  -20.6350   -8.6982 C   0  0  0  0  0  0  0  0  0  0  0  0
   23.7355  -19.6283   -8.6539 O   0  0  0  0  0  0  0  0  0  0  0  0
   24.1772  -21.6513   -7.7717 O   0  0  0  0  0  0  0  0  0  0  0  0
  2  1  1  0
  3  2  1  0
  4  3  1  0
  5  4  1  0
  5  6  1  6
  7  5  1  0
  7  8  2  0
  9  7  1  0
 10  9  1  0
 10 11  1  6
 11 12  1  0
 12 13  1  0
 13 14  1  0
 14 15  1  0
 16 10  1  0
 17 16  2  0
 18 16  1  0
 19 18  1  0
 19 20  1  1
 20 21  1  0
 21 22  2  0
 22 23  1  0
 24 23  1  0
 25 24  2  0
 26 25  1  0
 27 28  1  0
 27 26  2  0
 28 29  2  0
 29 21  1  0
 29 24  1  0
 30 19  1  0
 30 32  1  0
 31 30  2  0
M  END
$$$$
