MKW.pdb
     RDKit          3D

 32 33  0  0  1  0  0  0  0  0999 V2000
   20.7828  -16.5036  -15.3514 C   0  0  0  0  0  0  0  0  0  0  0  0
   21.9243  -15.6551  -16.4723 S   0  0  0  0  0  0  0  0  0  0  0  0
   23.6299  -16.0169  -15.9445 C   0  0  0  0  0  0  0  0  0  0  0  0
   23.6778  -17.4150  -15.4281 C   0  0  0  0  0  0  0  0  0  0  0  0
   24.6953  -17.5516  -14.3284 C   0  0  2  0  0  0  0  0  0  0  0  0
   25.7535  -16.5534  -14.4958 N   0  0  0  0  0  0  0  0  0  0  0  0
   25.3161  -18.8816  -14.3822 C   0  0  0  0  0  0  0  0  0  0  0  0
   24.7245  -19.9108  -14.8672 O   0  0  0  0  0  0  0  0  0  0  0  0
   26.6135  -19.0791  -13.8914 N   0  0  0  0  0  0  0  0  0  0  0  0
   27.2964  -20.4138  -13.9449 C   0  0  1  0  0  0  0  0  0  0  0  0
   28.7005  -20.0652  -14.2887 C   0  0  0  0  0  0  0  0  0  0  0  0
   29.6891  -21.0950  -14.5830 C   0  0  0  0  0  0  0  0  0  0  0  0
   29.5498  -22.0439  -15.6793 C   0  0  0  0  0  0  0  0  0  0  0  0
   30.5798  -23.0174  -16.0450 C   0  0  0  0  0  0  0  0  0  0  0  0
   29.9971  -23.7921  -17.1907 N   0  0  0  0  0  0  0  0  0  0  0  0
   27.1494  -20.9098  -12.5264 C   0  0  0  0  0  0  0  0  0  0  0  0
   27.9903  -21.7468  -12.0304 O   0  0  0  0  0  0  0  0  0  0  0  0
   26.0708  -20.4314  -11.7638 N   0  0  0  0  0  0  0  0  0  0  0  0
   25.9265  -20.9515  -10.3862 C   0  0  1  0  0  0  0  0  0  0  0  0
   27.1528  -20.4806   -9.6656 C   0  0  0  0  0  0  0  0  0  0  0  0
   26.9323  -20.3397   -8.2286 C   0  0  0  0  0  0  0  0  0  0  0  0
   25.7127  -20.2498   -7.5916 C   0  0  0  0  0  0  0  0  0  0  0  0
   25.8928  -20.0940   -6.2696 N   0  0  0  0  0  0  0  0  0  0  0  0
   27.2151  -20.0807   -6.0253 C   0  0  0  0  0  0  0  0  0  0  0  0
   27.9270  -19.9643   -4.8523 C   0  0  0  0  0  0  0  0  0  0  0  0
   29.3182  -19.9976   -4.8513 C   0  0  0  0  0  0  0  0  0  0  0  0
   30.0090  -20.1489   -6.0351 C   0  0  0  0  0  0  0  0  0  0  0  0
   29.2830  -20.2629   -7.1970 C   0  0  0  0  0  0  0  0  0  0  0  0
   27.8882  -20.2339   -7.2428 C   0  0  0  0  0  0  0  0  0  0  0  0
   24.6330  -20.5986   -9.8217 C   0  0  0  0  0  0  0  0  0  0  0  0
   24.2415  -20.9028   -8.6748 O   0  0  0  0  0  0  0  0  0  0  0  0
   23.7257  -19.8568  -10.5999 O   0  0  0  0  0  0  0  0  0  0  0  0
  2  1  1  0
  3  2  1  0
  4  3  1  0
  5  4  1  0
  5  6  1  6
  7  5  1  0
  7  8  2  0
  9  7  1  0
 10  9  1  0
 10 11  1  1
 11 12  1  0
 12 13  1  0
 13 14  1  0
 14 15  1  0
 16 10  1  0
 17 16  2  0
 18 16  1  0
 19 18  1  0
 19 20  1  1
 20 21  1  0
 21 22  2  0
 22 23  1  0
 24 23  1  0
 25 24  2  0
 26 25  1  0
 27 28  1  0
 27 26  2  0
 28 29  2  0
 29 21  1  0
 29 24  1  0
 30 19  1  0
 30 32  1  0
 31 30  2  0
M  END
$$$$
