MKW.pdb
     RDKit          3D

 32 33  0  0  1  0  0  0  0  0999 V2000
   26.2060  -20.2975  -24.1617 C   0  0  0  0  0  0  0  0  0  0  0  0
   26.5394  -20.4611  -22.3893 S   0  0  0  0  0  0  0  0  0  0  0  0
   25.3061  -19.4803  -21.4753 C   0  0  0  0  0  0  0  0  0  0  0  0
   25.4609  -19.7653  -20.0197 C   0  0  0  0  0  0  0  0  0  0  0  0
   24.4206  -19.0382  -19.2120 C   0  0  2  0  0  0  0  0  0  0  0  0
   24.4690  -17.6042  -19.5041 N   0  0  0  0  0  0  0  0  0  0  0  0
   24.6844  -19.2165  -17.7782 C   0  0  0  0  0  0  0  0  0  0  0  0
   24.8556  -20.3658  -17.2357 O   0  0  0  0  0  0  0  0  0  0  0  0
   24.7603  -18.1057  -16.9275 N   0  0  0  0  0  0  0  0  0  0  0  0
   24.9514  -18.2422  -15.4458 C   0  0  1  0  0  0  0  0  0  0  0  0
   26.0131  -17.2454  -15.1453 C   0  0  0  0  0  0  0  0  0  0  0  0
   27.4256  -17.5678  -15.3043 C   0  0  0  0  0  0  0  0  0  0  0  0
   28.0145  -17.9644  -16.5762 C   0  0  0  0  0  0  0  0  0  0  0  0
   29.4512  -18.1559  -16.7800 C   0  0  0  0  0  0  0  0  0  0  0  0
   29.6098  -18.3905  -18.2537 N   0  0  0  0  0  0  0  0  0  0  0  0
   23.6009  -17.8361  -14.9065 C   0  0  0  0  0  0  0  0  0  0  0  0
   23.3175  -16.5984  -14.7028 O   0  0  0  0  0  0  0  0  0  0  0  0
   22.6630  -18.8462  -14.6348 N   0  0  0  0  0  0  0  0  0  0  0  0
   21.2813  -18.6426  -15.1232 C   0  0  1  0  0  0  0  0  0  0  0  0
   21.4299  -17.8307  -16.3737 C   0  0  0  0  0  0  0  0  0  0  0  0
   20.1572  -17.6359  -17.0634 C   0  0  0  0  0  0  0  0  0  0  0  0
   19.0144  -17.0764  -16.5320 C   0  0  0  0  0  0  0  0  0  0  0  0
   18.0273  -17.0898  -17.4430 N   0  0  0  0  0  0  0  0  0  0  0  0
   18.5035  -17.6500  -18.5689 C   0  0  0  0  0  0  0  0  0  0  0  0
   17.9157  -17.8874  -19.7914 C   0  0  0  0  0  0  0  0  0  0  0  0
   18.6321  -18.4745  -20.8299 C   0  0  0  0  0  0  0  0  0  0  0  0
   19.9520  -18.8298  -20.6476 C   0  0  0  0  0  0  0  0  0  0  0  0
   20.5233  -18.5864  -19.4209 C   0  0  0  0  0  0  0  0  0  0  0  0
   19.8412  -18.0009  -18.3531 C   0  0  0  0  0  0  0  0  0  0  0  0
   20.5634  -19.9043  -15.2174 C   0  0  0  0  0  0  0  0  0  0  0  0
   21.0744  -21.0012  -15.5285 O   0  0  0  0  0  0  0  0  0  0  0  0
   19.1837  -19.9292  -14.9437 O   0  0  0  0  0  0  0  0  0  0  0  0
  2  1  1  0
  3  2  1  0
  4  3  1  0
  5  4  1  0
  5  6  1  6
  7  5  1  0
  7  8  2  0
  9  7  1  0
 10  9  1  0
 10 11  1  1
 11 12  1  0
 12 13  1  0
 13 14  1  0
 14 15  1  0
 16 10  1  0
 17 16  2  0
 18 16  1  0
 19 18  1  0
 19 20  1  6
 20 21  1  0
 21 22  2  0
 22 23  1  0
 24 23  1  0
 25 24  2  0
 26 25  1  0
 27 28  1  0
 27 26  2  0
 28 29  2  0
 29 21  1  0
 29 24  1  0
 30 19  1  0
 30 32  1  0
 31 30  2  0
M  END
$$$$
