THY.pdb
     RDKit          3D

 30 31  0  0  1  0  0  0  0  0999 V2000
    7.2248  -21.3173   19.9242 C   0  0  0  0  0  0  0  0  0  0  0  0
    8.3377  -20.2990   19.8032 C   0  0  1  0  0  0  0  0  0  0  0  0
    9.4700  -20.8575   20.3354 O   0  0  0  0  0  0  0  0  0  0  0  0
    8.5213  -19.8483   18.3671 C   0  0  2  0  0  0  0  0  0  0  0  0
    8.8935  -21.0357   17.5934 N   0  0  0  0  0  0  0  0  0  0  0  0
    9.5620  -18.8209   18.2260 C   0  0  0  0  0  0  0  0  0  0  0  0
   10.7487  -19.1724   17.9543 O   0  0  0  0  0  0  0  0  0  0  0  0
    9.3587  -17.4195   18.3710 N   0  0  0  0  0  0  0  0  0  0  0  0
   10.4092  -16.4239   18.2407 C   0  0  1  0  0  0  0  0  0  0  0  0
    9.9721  -15.3295   17.3532 C   0  0  0  0  0  0  0  0  0  0  0  0
    9.5409  -15.6755   16.0036 C   0  0  0  0  0  0  0  0  0  0  0  0
    9.4592  -16.8379   15.2898 C   0  0  0  0  0  0  0  0  0  0  0  0
    8.9945  -16.6303   14.0334 N   0  0  0  0  0  0  0  0  0  0  0  0
    8.7851  -15.2918   13.9739 C   0  0  0  0  0  0  0  0  0  0  0  0
    9.1064  -14.7160   15.1386 N   0  0  0  0  0  0  0  0  0  0  0  0
   10.7987  -15.9071   19.6041 C   0  0  0  0  0  0  0  0  0  0  0  0
   11.7644  -15.1017   19.7592 O   0  0  0  0  0  0  0  0  0  0  0  0
    6.3356  -11.7270   19.3694 O   0  0  0  0  0  0  0  0  0  0  0  0
    7.0145  -12.6183   20.2115 C   0  0  0  0  0  0  0  0  0  0  0  0
    8.2613  -12.2558   20.6815 C   0  0  0  0  0  0  0  0  0  0  0  0
    8.9539  -13.1012   21.5067 C   0  0  0  0  0  0  0  0  0  0  0  0
    8.4434  -14.3299   21.8961 C   0  0  0  0  0  0  0  0  0  0  0  0
    9.1896  -15.2225   22.7688 C   0  0  0  0  0  0  0  0  0  0  0  0
   10.4398  -15.8021   22.1013 C   0  0  2  0  0  0  0  0  0  0  0  0
   10.1061  -16.2974   20.7709 N   0  0  0  0  0  0  0  0  0  0  0  0
   11.0965  -16.8088   22.9264 C   0  0  0  0  0  0  0  0  0  0  0  0
   11.2975  -18.1208   22.4287 O   0  0  0  0  0  0  0  0  0  0  0  0
    7.2053  -14.6864   21.4277 C   0  0  0  0  0  0  0  0  0  0  0  0
    6.4899  -13.8284   20.5840 C   0  0  0  0  0  0  0  0  0  0  0  0
   11.5254  -16.6283   24.0901 O   0  0  0  0  0  0  0  0  0  0  0  0
  2  1  1  6
  2  3  1  0
  4  2  1  0
  4  5  1  6
  6  4  1  0
  6  7  2  0
  8  6  1  0
  9  8  1  0
  9 10  1  6
 10 11  1  0
 11 15  1  0
 11 12  2  0
 12 13  1  0
 14 13  1  0
 15 14  2  0
 16  9  1  0
 17 16  2  0
 18 19  1  0
 19 29  2  0
 20 19  1  0
 20 21  2  0
 21 22  1  0
 22 28  2  0
 22 23  1  0
 24 23  1  1
 24 25  1  0
 25 16  1  0
 26 24  1  0
 27 26  1  0
 29 28  1  0
 30 26  2  0
M  END
$$$$
