THY.pdb
     RDKit          3D

 30 31  0  0  1  0  0  0  0  0999 V2000
   11.1452  -13.5944   19.2703 C   0  0  0  0  0  0  0  0  0  0  0  0
    9.9179  -12.7619   18.9690 C   0  0  1  0  0  0  0  0  0  0  0  0
   10.2676  -11.8362   18.0213 O   0  0  0  0  0  0  0  0  0  0  0  0
    8.7510  -13.6311   18.5423 C   0  0  2  0  0  0  0  0  0  0  0  0
    7.6306  -12.7299   18.2604 N   0  0  0  0  0  0  0  0  0  0  0  0
    8.3588  -14.5980   19.5767 C   0  0  0  0  0  0  0  0  0  0  0  0
    7.5331  -14.2485   20.4721 O   0  0  0  0  0  0  0  0  0  0  0  0
    8.8343  -15.9362   19.6737 N   0  0  0  0  0  0  0  0  0  0  0  0
    8.5111  -16.8408   20.7641 C   0  0  1  0  0  0  0  0  0  0  0  0
    8.7967  -18.2352   20.3761 C   0  0  0  0  0  0  0  0  0  0  0  0
    8.5805  -19.2791   21.3714 C   0  0  0  0  0  0  0  0  0  0  0  0
    8.2071  -19.2903   22.6859 C   0  0  0  0  0  0  0  0  0  0  0  0
    8.1600  -20.5480   23.1893 N   0  0  0  0  0  0  0  0  0  0  0  0
    8.5190  -21.3367   22.1462 C   0  0  0  0  0  0  0  0  0  0  0  0
    8.7706  -20.5929   21.0623 N   0  0  0  0  0  0  0  0  0  0  0  0
    9.2758  -16.4449   22.0035 C   0  0  0  0  0  0  0  0  0  0  0  0
   10.4858  -16.0730   21.9482 O   0  0  0  0  0  0  0  0  0  0  0  0
   10.7779  -14.5197   30.5543 O   0  0  0  0  0  0  0  0  0  0  0  0
   10.1897  -14.7995   29.3133 C   0  0  0  0  0  0  0  0  0  0  0  0
   10.0500  -13.7677   28.4062 C   0  0  0  0  0  0  0  0  0  0  0  0
    9.4802  -14.0039   27.1836 C   0  0  0  0  0  0  0  0  0  0  0  0
    9.0295  -15.2615   26.8133 C   0  0  0  0  0  0  0  0  0  0  0  0
    8.4211  -15.5004   25.5141 C   0  0  0  0  0  0  0  0  0  0  0  0
    9.3930  -16.1171   24.5044 C   0  0  2  0  0  0  0  0  0  0  0  0
    8.6793  -16.4710   23.2829 N   0  0  0  0  0  0  0  0  0  0  0  0
   10.1399  -17.2379   25.0626 C   0  0  0  0  0  0  0  0  0  0  0  0
   11.4683  -17.0538   25.5220 O   0  0  0  0  0  0  0  0  0  0  0  0
    9.1700  -16.2835   27.7162 C   0  0  0  0  0  0  0  0  0  0  0  0
    9.7515  -16.0514   28.9683 C   0  0  0  0  0  0  0  0  0  0  0  0
    9.7099  -18.4085   25.1866 O   0  0  0  0  0  0  0  0  0  0  0  0
  2  1  1  6
  2  3  1  0
  4  2  1  0
  4  5  1  1
  6  4  1  0
  6  7  2  0
  8  6  1  0
  9  8  1  0
  9 10  1  6
 10 11  1  0
 11 15  1  0
 11 12  2  0
 12 13  1  0
 14 13  1  0
 15 14  2  0
 16  9  1  0
 17 16  2  0
 18 19  1  0
 19 29  2  0
 20 19  1  0
 20 21  2  0
 21 22  1  0
 22 28  2  0
 22 23  1  0
 24 23  1  1
 24 25  1  0
 25 16  1  0
 26 24  1  0
 27 26  1  0
 29 28  1  0
 30 26  2  0
M  END
$$$$
