THY.pdb
     RDKit          3D

 30 31  0  0  1  0  0  0  0  0999 V2000
    7.8279  -12.2926   19.3342 C   0  0  0  0  0  0  0  0  0  0  0  0
    7.8272  -13.4425   18.3504 C   0  0  1  0  0  0  0  0  0  0  0  0
    7.6983  -12.9124   17.0935 O   0  0  0  0  0  0  0  0  0  0  0  0
    9.0669  -14.3022   18.5036 C   0  0  2  0  0  0  0  0  0  0  0  0
    9.1605  -15.1313   17.2992 N   0  0  0  0  0  0  0  0  0  0  0  0
    9.0137  -15.1632   19.6929 C   0  0  0  0  0  0  0  0  0  0  0  0
    8.0205  -15.0806   20.4755 O   0  0  0  0  0  0  0  0  0  0  0  0
   10.0057  -16.1144   20.0641 N   0  0  0  0  0  0  0  0  0  0  0  0
    9.8555  -17.0704   21.1481 C   0  0  1  0  0  0  0  0  0  0  0  0
   10.4651  -18.3627   20.7809 C   0  0  0  0  0  0  0  0  0  0  0  0
    9.7650  -19.1972   19.8112 C   0  0  0  0  0  0  0  0  0  0  0  0
    8.8717  -20.2277   19.8984 C   0  0  0  0  0  0  0  0  0  0  0  0
    8.5146  -20.6946   18.6768 N   0  0  0  0  0  0  0  0  0  0  0  0
    9.2154  -19.9235   17.8090 C   0  0  0  0  0  0  0  0  0  0  0  0
    9.9606  -19.0314   18.4725 N   0  0  0  0  0  0  0  0  0  0  0  0
   10.4625  -16.5129   22.4123 C   0  0  0  0  0  0  0  0  0  0  0  0
   11.7129  -16.3482   22.5334 O   0  0  0  0  0  0  0  0  0  0  0  0
   10.9280  -14.6855   31.0942 O   0  0  0  0  0  0  0  0  0  0  0  0
   10.4734  -14.9493   29.7949 C   0  0  0  0  0  0  0  0  0  0  0  0
   10.2046  -13.8793   28.9643 C   0  0  0  0  0  0  0  0  0  0  0  0
    9.7592  -14.0989   27.6881 C   0  0  0  0  0  0  0  0  0  0  0  0
    9.5635  -15.3768   27.1874 C   0  0  0  0  0  0  0  0  0  0  0  0
    9.0851  -15.5986   25.8320 C   0  0  0  0  0  0  0  0  0  0  0  0
   10.2196  -15.8150   24.8268 C   0  0  2  0  0  0  0  0  0  0  0  0
    9.6658  -16.1494   23.5198 N   0  0  0  0  0  0  0  0  0  0  0  0
   11.1955  -16.7943   25.2898 C   0  0  0  0  0  0  0  0  0  0  0  0
   10.8935  -18.1787   25.2492 O   0  0  0  0  0  0  0  0  0  0  0  0
    9.8316  -16.4365   28.0147 C   0  0  0  0  0  0  0  0  0  0  0  0
   10.2875  -16.2217   29.3208 C   0  0  0  0  0  0  0  0  0  0  0  0
   12.3332  -16.5286   25.7433 O   0  0  0  0  0  0  0  0  0  0  0  0
  2  1  1  1
  2  3  1  0
  4  2  1  0
  4  5  1  6
  6  4  1  0
  6  7  2  0
  8  6  1  0
  9  8  1  0
  9 10  1  6
 10 11  1  0
 11 15  1  0
 11 12  2  0
 12 13  1  0
 14 13  1  0
 15 14  2  0
 16  9  1  0
 17 16  2  0
 18 19  1  0
 19 29  2  0
 20 19  1  0
 20 21  2  0
 21 22  1  0
 22 28  2  0
 22 23  1  0
 24 23  1  1
 24 25  1  0
 25 16  1  0
 26 24  1  0
 27 26  1  0
 29 28  1  0
 30 26  2  0
M  END
$$$$
