THY.pdb
     RDKit          3D

 30 31  0  0  1  0  0  0  0  0999 V2000
   16.2232  -18.1699   22.4054 C   0  0  0  0  0  0  0  0  0  0  0  0
   15.7946  -17.4801   21.1284 C   0  0  1  0  0  0  0  0  0  0  0  0
   16.8406  -17.5538   20.2465 O   0  0  0  0  0  0  0  0  0  0  0  0
   14.5156  -18.0805   20.5780 C   0  0  2  0  0  0  0  0  0  0  0  0
   14.2602  -17.4292   19.2905 N   0  0  0  0  0  0  0  0  0  0  0  0
   13.3664  -17.8775   21.4705 C   0  0  0  0  0  0  0  0  0  0  0  0
   12.8829  -16.7140   21.6055 O   0  0  0  0  0  0  0  0  0  0  0  0
   12.7215  -18.8976   22.2254 N   0  0  0  0  0  0  0  0  0  0  0  0
   11.6836  -18.6512   23.2120 C   0  0  1  0  0  0  0  0  0  0  0  0
   10.6492  -19.7008   23.1422 C   0  0  0  0  0  0  0  0  0  0  0  0
    9.7284  -19.6781   22.0115 C   0  0  0  0  0  0  0  0  0  0  0  0
    9.5355  -18.8438   20.9465 C   0  0  0  0  0  0  0  0  0  0  0  0
    8.5140  -19.2568   20.1568 N   0  0  0  0  0  0  0  0  0  0  0  0
    8.0629  -20.3843   20.7602 C   0  0  0  0  0  0  0  0  0  0  0  0
    8.7775  -20.6430   21.8620 N   0  0  0  0  0  0  0  0  0  0  0  0
   12.2939  -18.5682   24.5898 C   0  0  0  0  0  0  0  0  0  0  0  0
   13.3330  -19.2247   24.8976 O   0  0  0  0  0  0  0  0  0  0  0  0
   17.6244  -15.5677   24.2443 O   0  0  0  0  0  0  0  0  0  0  0  0
   16.4741  -15.7842   25.0152 C   0  0  0  0  0  0  0  0  0  0  0  0
   15.2589  -15.3629   24.5125 C   0  0  0  0  0  0  0  0  0  0  0  0
   14.1137  -15.5581   25.2376 C   0  0  0  0  0  0  0  0  0  0  0  0
   14.1262  -16.1732   26.4799 C   0  0  0  0  0  0  0  0  0  0  0  0
   12.9047  -16.3708   27.2441 C   0  0  0  0  0  0  0  0  0  0  0  0
   12.2405  -17.7226   26.9684 C   0  0  2  0  0  0  0  0  0  0  0  0
   11.7355  -17.7561   25.6007 N   0  0  0  0  0  0  0  0  0  0  0  0
   11.2167  -18.0518   27.9527 C   0  0  0  0  0  0  0  0  0  0  0  0
    9.8717  -18.2444   27.5482 O   0  0  0  0  0  0  0  0  0  0  0  0
   15.3344  -16.5902   26.9758 C   0  0  0  0  0  0  0  0  0  0  0  0
   16.5101  -16.3952   26.2414 C   0  0  0  0  0  0  0  0  0  0  0  0
   11.4091  -18.1906   29.1833 O   0  0  0  0  0  0  0  0  0  0  0  0
  2  1  1  1
  2  3  1  0
  4  2  1  0
  4  5  1  6
  6  4  1  0
  6  7  2  0
  8  6  1  0
  9  8  1  0
  9 10  1  1
 10 11  1  0
 11 15  1  0
 11 12  2  0
 12 13  1  0
 14 13  1  0
 15 14  2  0
 16  9  1  0
 17 16  2  0
 18 19  1  0
 19 29  2  0
 20 19  1  0
 20 21  2  0
 21 22  1  0
 22 28  2  0
 22 23  1  0
 24 23  1  1
 24 25  1  0
 25 16  1  0
 26 24  1  0
 27 26  1  0
 29 28  1  0
 30 26  2  0
M  END
$$$$
