THY.pdb
     RDKit          3D

 30 31  0  0  1  0  0  0  0  0999 V2000
   14.6545  -16.9053   20.0182 C   0  0  0  0  0  0  0  0  0  0  0  0
   13.5219  -16.3874   20.8779 C   0  0  1  0  0  0  0  0  0  0  0  0
   14.0721  -15.8744   22.0230 O   0  0  0  0  0  0  0  0  0  0  0  0
   12.6745  -15.3786   20.1273 C   0  0  2  0  0  0  0  0  0  0  0  0
   13.5321  -14.2222   19.8549 N   0  0  0  0  0  0  0  0  0  0  0  0
   11.4960  -14.9498   20.8928 C   0  0  0  0  0  0  0  0  0  0  0  0
   11.5633  -13.9009   21.6007 O   0  0  0  0  0  0  0  0  0  0  0  0
   10.2421  -15.6232   20.9174 N   0  0  0  0  0  0  0  0  0  0  0  0
    9.0865  -15.1704   21.6731 C   0  0  1  0  0  0  0  0  0  0  0  0
    7.8663  -15.2614   20.8489 C   0  0  0  0  0  0  0  0  0  0  0  0
    7.8548  -14.5666   19.5666 C   0  0  0  0  0  0  0  0  0  0  0  0
    7.9312  -13.2572   19.1830 C   0  0  0  0  0  0  0  0  0  0  0  0
    7.8616  -13.1181   17.8364 N   0  0  0  0  0  0  0  0  0  0  0  0
    7.7363  -14.3880   17.3775 C   0  0  0  0  0  0  0  0  0  0  0  0
    7.7314  -15.2553   18.3969 N   0  0  0  0  0  0  0  0  0  0  0  0
    8.9561  -15.9749   22.9432 C   0  0  0  0  0  0  0  0  0  0  0  0
    9.7502  -16.9246   23.2136 O   0  0  0  0  0  0  0  0  0  0  0  0
    7.9775  -10.3392   26.8308 O   0  0  0  0  0  0  0  0  0  0  0  0
    7.6399  -11.6827   26.6175 C   0  0  0  0  0  0  0  0  0  0  0  0
    8.5523  -12.6537   26.9801 C   0  0  0  0  0  0  0  0  0  0  0  0
    8.2565  -13.9768   26.7870 C   0  0  0  0  0  0  0  0  0  0  0  0
    7.0549  -14.3878   26.2313 C   0  0  0  0  0  0  0  0  0  0  0  0
    6.7530  -15.7956   26.0258 C   0  0  0  0  0  0  0  0  0  0  0  0
    7.7578  -16.4930   25.1046 C   0  0  2  0  0  0  0  0  0  0  0  0
    7.9429  -15.7080   23.8896 N   0  0  0  0  0  0  0  0  0  0  0  0
    7.3931  -17.8772   24.8281 C   0  0  0  0  0  0  0  0  0  0  0  0
    7.3627  -18.8315   25.8759 O   0  0  0  0  0  0  0  0  0  0  0  0
    6.1514  -13.4211   25.8727 C   0  0  0  0  0  0  0  0  0  0  0  0
    6.4450  -12.0662   26.0666 C   0  0  0  0  0  0  0  0  0  0  0  0
    7.0867  -18.3377   23.7034 O   0  0  0  0  0  0  0  0  0  0  0  0
  2  1  1  6
  2  3  1  0
  4  2  1  0
  4  5  1  1
  6  4  1  0
  6  7  2  0
  8  6  1  0
  9  8  1  0
  9 10  1  6
 10 11  1  0
 11 15  1  0
 11 12  2  0
 12 13  1  0
 14 13  1  0
 15 14  2  0
 16  9  1  0
 17 16  2  0
 18 19  1  0
 19 29  2  0
 20 19  1  0
 20 21  2  0
 21 22  1  0
 22 28  2  0
 22 23  1  0
 24 23  1  1
 24 25  1  0
 25 16  1  0
 26 24  1  0
 27 26  1  0
 29 28  1  0
 30 26  2  0
M  END
$$$$
