THY.pdb
     RDKit          3D

 30 31  0  0  1  0  0  0  0  0999 V2000
    8.2314  -12.0454   18.7124 C   0  0  0  0  0  0  0  0  0  0  0  0
    8.6390  -13.1547   19.6577 C   0  0  1  0  0  0  0  0  0  0  0  0
    7.6722  -13.2519   20.6237 O   0  0  0  0  0  0  0  0  0  0  0  0
    8.8652  -14.4579   18.9163 C   0  0  2  0  0  0  0  0  0  0  0  0
    7.6052  -14.7894   18.2457 N   0  0  0  0  0  0  0  0  0  0  0  0
    9.2523  -15.5570   19.8110 C   0  0  0  0  0  0  0  0  0  0  0  0
    8.3574  -16.3255   20.2738 O   0  0  0  0  0  0  0  0  0  0  0  0
   10.5827  -15.8518   20.2232 N   0  0  0  0  0  0  0  0  0  0  0  0
   10.9284  -16.8710   21.1994 C   0  0  1  0  0  0  0  0  0  0  0  0
   12.1734  -17.5577   20.8056 C   0  0  0  0  0  0  0  0  0  0  0  0
   12.0933  -18.5700   19.7588 C   0  0  0  0  0  0  0  0  0  0  0  0
   11.6967  -18.5699   18.4510 C   0  0  0  0  0  0  0  0  0  0  0  0
   11.7991  -19.7995   17.8896 N   0  0  0  0  0  0  0  0  0  0  0  0
   12.2741  -20.5825   18.8897 C   0  0  0  0  0  0  0  0  0  0  0  0
   12.4523  -19.8619   20.0035 N   0  0  0  0  0  0  0  0  0  0  0  0
   11.0501  -16.2497   22.5693 C   0  0  0  0  0  0  0  0  0  0  0  0
   11.8224  -15.2695   22.7891 O   0  0  0  0  0  0  0  0  0  0  0  0
    6.2506  -11.3350   27.6032 O   0  0  0  0  0  0  0  0  0  0  0  0
    6.8601  -12.2258   26.7092 C   0  0  0  0  0  0  0  0  0  0  0  0
    6.2238  -13.4212   26.4384 C   0  0  0  0  0  0  0  0  0  0  0  0
    6.7895  -14.3159   25.5696 C   0  0  0  0  0  0  0  0  0  0  0  0
    7.9985  -14.0647   24.9394 C   0  0  0  0  0  0  0  0  0  0  0  0
    8.5930  -15.0242   24.0223 C   0  0  0  0  0  0  0  0  0  0  0  0
    9.7022  -15.8588   24.6685 C   0  0  2  0  0  0  0  0  0  0  0  0
   10.3099  -16.7318   23.6707 N   0  0  0  0  0  0  0  0  0  0  0  0
    9.2394  -16.5870   25.8437 C   0  0  0  0  0  0  0  0  0  0  0  0
    8.8119  -17.9336   25.7278 O   0  0  0  0  0  0  0  0  0  0  0  0
    8.6271  -12.8769   25.2104 C   0  0  0  0  0  0  0  0  0  0  0  0
    8.0562  -11.9561   26.0970 C   0  0  0  0  0  0  0  0  0  0  0  0
    9.1764  -16.1251   27.0070 O   0  0  0  0  0  0  0  0  0  0  0  0
  2  1  1  6
  2  3  1  0
  4  2  1  0
  4  5  1  1
  6  4  1  0
  6  7  2  0
  8  6  1  0
  9  8  1  0
  9 10  1  6
 10 11  1  0
 11 15  1  0
 11 12  2  0
 12 13  1  0
 14 13  1  0
 15 14  2  0
 16  9  1  0
 17 16  2  0
 18 19  1  0
 19 29  2  0
 20 19  1  0
 20 21  2  0
 21 22  1  0
 22 28  2  0
 22 23  1  0
 24 23  1  6
 24 25  1  0
 25 16  1  0
 26 24  1  0
 27 26  1  0
 29 28  1  0
 30 26  2  0
M  END
$$$$
