THY.pdb
     RDKit          3D

 30 31  0  0  1  0  0  0  0  0999 V2000
    6.1984  -15.9264   22.0516 C   0  0  0  0  0  0  0  0  0  0  0  0
    6.3548  -17.1525   21.1784 C   0  0  1  0  0  0  0  0  0  0  0  0
    5.2110  -17.2803   20.4349 O   0  0  0  0  0  0  0  0  0  0  0  0
    7.6060  -17.0684   20.3260 C   0  0  2  0  0  0  0  0  0  0  0  0
    7.6018  -18.2417   19.4483 N   0  0  0  0  0  0  0  0  0  0  0  0
    8.8366  -17.0567   21.1286 C   0  0  0  0  0  0  0  0  0  0  0  0
    9.3506  -18.1561   21.4932 O   0  0  0  0  0  0  0  0  0  0  0  0
    9.5311  -15.8883   21.5516 N   0  0  0  0  0  0  0  0  0  0  0  0
   10.7372  -15.9034   22.3619 C   0  0  1  0  0  0  0  0  0  0  0  0
   11.7468  -14.9881   21.7968 C   0  0  0  0  0  0  0  0  0  0  0  0
   12.3928  -15.3716   20.5468 C   0  0  0  0  0  0  0  0  0  0  0  0
   12.3779  -16.4900   19.7616 C   0  0  0  0  0  0  0  0  0  0  0  0
   13.1799  -16.3590   18.6766 N   0  0  0  0  0  0  0  0  0  0  0  0
   13.7070  -15.1159   18.8016 C   0  0  0  0  0  0  0  0  0  0  0  0
   13.2458  -14.5214   19.9086 N   0  0  0  0  0  0  0  0  0  0  0  0
   10.4019  -15.5428   23.7885 C   0  0  0  0  0  0  0  0  0  0  0  0
    9.8713  -14.4315   24.0867 O   0  0  0  0  0  0  0  0  0  0  0  0
    6.6103  -10.9365   26.7211 O   0  0  0  0  0  0  0  0  0  0  0  0
    7.0601  -12.2464   26.5058 C   0  0  0  0  0  0  0  0  0  0  0  0
    7.8814  -12.8220   27.4550 C   0  0  0  0  0  0  0  0  0  0  0  0
    8.3399  -14.1003   27.2784 C   0  0  0  0  0  0  0  0  0  0  0  0
    8.0060  -14.8535   26.1636 C   0  0  0  0  0  0  0  0  0  0  0  0
    8.5027  -16.2085   25.9834 C   0  0  0  0  0  0  0  0  0  0  0  0
   10.0196  -16.3166   26.1615 C   0  0  2  0  0  0  0  0  0  0  0  0
   10.6644  -16.4263   24.8581 N   0  0  0  0  0  0  0  0  0  0  0  0
   10.3993  -17.3937   27.0677 C   0  0  0  0  0  0  0  0  0  0  0  0
   10.9480  -18.5971   26.5575 O   0  0  0  0  0  0  0  0  0  0  0  0
    7.1902  -14.2789   25.2235 C   0  0  0  0  0  0  0  0  0  0  0  0
    6.7166  -12.9728   25.3957 C   0  0  0  0  0  0  0  0  0  0  0  0
   10.2868  -17.3675   28.3156 O   0  0  0  0  0  0  0  0  0  0  0  0
  2  1  1  6
  2  3  1  0
  4  2  1  0
  4  5  1  6
  6  4  1  0
  6  7  2  0
  8  6  1  0
  9  8  1  0
  9 10  1  6
 10 11  1  0
 11 15  1  0
 11 12  2  0
 12 13  1  0
 14 13  1  0
 15 14  2  0
 16  9  1  0
 17 16  2  0
 18 19  1  0
 19 29  2  0
 20 19  1  0
 20 21  2  0
 21 22  1  0
 22 28  2  0
 22 23  1  0
 24 23  1  6
 24 25  1  0
 25 16  1  0
 26 24  1  0
 27 26  1  0
 29 28  1  0
 30 26  2  0
M  END
$$$$
