THY.pdb
     RDKit          3D

 30 31  0  0  1  0  0  0  0  0999 V2000
    9.6659  -12.6724   19.5385 C   0  0  0  0  0  0  0  0  0  0  0  0
    8.3720  -13.1856   18.9448 C   0  0  1  0  0  0  0  0  0  0  0  0
    8.0674  -12.3944   17.8685 O   0  0  0  0  0  0  0  0  0  0  0  0
    8.4725  -14.6556   18.5866 C   0  0  2  0  0  0  0  0  0  0  0  0
    7.1842  -15.0401   18.0040 N   0  0  0  0  0  0  0  0  0  0  0  0
    8.7597  -15.5027   19.7522 C   0  0  0  0  0  0  0  0  0  0  0  0
    7.8591  -15.6841   20.6249 O   0  0  0  0  0  0  0  0  0  0  0  0
    9.9958  -16.1620   20.0048 N   0  0  0  0  0  0  0  0  0  0  0  0
   10.2717  -16.9537   21.1916 C   0  0  1  0  0  0  0  0  0  0  0  0
   11.4912  -17.7611   20.9980 C   0  0  0  0  0  0  0  0  0  0  0  0
   11.9101  -18.6373   22.0861 C   0  0  0  0  0  0  0  0  0  0  0  0
   11.2554  -19.4155   22.9989 C   0  0  0  0  0  0  0  0  0  0  0  0
   12.1143  -20.0474   23.8359 N   0  0  0  0  0  0  0  0  0  0  0  0
   13.3401  -19.6408   23.4226 C   0  0  0  0  0  0  0  0  0  0  0  0
   13.2296  -18.8035   22.3842 N   0  0  0  0  0  0  0  0  0  0  0  0
   10.3927  -16.0505   22.3946 C   0  0  0  0  0  0  0  0  0  0  0  0
   10.7869  -14.8510   22.2891 O   0  0  0  0  0  0  0  0  0  0  0  0
    6.0929  -11.1976   27.8246 O   0  0  0  0  0  0  0  0  0  0  0  0
    6.6102  -12.1177   26.9025 C   0  0  0  0  0  0  0  0  0  0  0  0
    7.9773  -12.1566   26.7115 C   0  0  0  0  0  0  0  0  0  0  0  0
    8.5184  -13.0430   25.8189 C   0  0  0  0  0  0  0  0  0  0  0  0
    7.7335  -13.9193   25.0855 C   0  0  0  0  0  0  0  0  0  0  0  0
    8.3182  -14.8532   24.1362 C   0  0  0  0  0  0  0  0  0  0  0  0
    9.4975  -15.6366   24.7191 C   0  0  2  0  0  0  0  0  0  0  0  0
   10.0732  -16.4999   23.6944 N   0  0  0  0  0  0  0  0  0  0  0  0
    9.1389  -16.3652   25.9299 C   0  0  0  0  0  0  0  0  0  0  0  0
    9.0822  -17.7816   25.9216 O   0  0  0  0  0  0  0  0  0  0  0  0
    6.3768  -13.8780   25.2778 C   0  0  0  0  0  0  0  0  0  0  0  0
    5.8147  -12.9753   26.1884 C   0  0  0  0  0  0  0  0  0  0  0  0
    8.8613  -15.8453   27.0360 O   0  0  0  0  0  0  0  0  0  0  0  0
  2  1  1  6
  2  3  1  0
  4  2  1  0
  4  5  1  1
  6  4  1  0
  6  7  2  0
  8  6  1  0
  9  8  1  0
  9 10  1  6
 10 11  1  0
 11 15  1  0
 11 12  2  0
 12 13  1  0
 14 13  1  0
 15 14  2  0
 16  9  1  0
 17 16  2  0
 18 19  1  0
 19 29  2  0
 20 19  1  0
 20 21  2  0
 21 22  1  0
 22 28  2  0
 22 23  1  0
 24 23  1  6
 24 25  1  0
 25 16  1  0
 26 24  1  0
 27 26  1  0
 29 28  1  0
 30 26  2  0
M  END
$$$$
