THY.pdb
     RDKit          3D

 30 31  0  0  1  0  0  0  0  0999 V2000
    8.9831  -20.8089   21.5105 C   0  0  0  0  0  0  0  0  0  0  0  0
    9.9784  -20.7623   20.3714 C   0  0  1  0  0  0  0  0  0  0  0  0
   10.0289  -22.0129   19.8140 O   0  0  0  0  0  0  0  0  0  0  0  0
    9.6203  -19.6834   19.3680 C   0  0  2  0  0  0  0  0  0  0  0  0
   10.5719  -19.8009   18.2600 N   0  0  0  0  0  0  0  0  0  0  0  0
    9.6939  -18.3324   19.9408 C   0  0  0  0  0  0  0  0  0  0  0  0
   10.8265  -17.7881   20.1042 O   0  0  0  0  0  0  0  0  0  0  0  0
    8.5762  -17.5487   20.3446 N   0  0  0  0  0  0  0  0  0  0  0  0
    8.6790  -16.2751   21.0366 C   0  0  1  0  0  0  0  0  0  0  0  0
    7.4698  -15.4635   20.8004 C   0  0  0  0  0  0  0  0  0  0  0  0
    7.4423  -14.1072   21.3357 C   0  0  0  0  0  0  0  0  0  0  0  0
    7.9357  -12.9015   20.9229 C   0  0  0  0  0  0  0  0  0  0  0  0
    7.6497  -11.9088   21.8006 N   0  0  0  0  0  0  0  0  0  0  0  0
    6.9571  -12.5283   22.7883 C   0  0  0  0  0  0  0  0  0  0  0  0
    6.8285  -13.8336   22.5215 N   0  0  0  0  0  0  0  0  0  0  0  0
    8.9084  -16.5083   22.5099 C   0  0  0  0  0  0  0  0  0  0  0  0
    8.3715  -17.4797   23.1212 O   0  0  0  0  0  0  0  0  0  0  0  0
    6.2180  -10.8304   26.5126 O   0  0  0  0  0  0  0  0  0  0  0  0
    6.8206  -12.0656   26.2377 C   0  0  0  0  0  0  0  0  0  0  0  0
    6.0076  -13.1353   25.9189 C   0  0  0  0  0  0  0  0  0  0  0  0
    6.5611  -14.3573   25.6439 C   0  0  0  0  0  0  0  0  0  0  0  0
    7.9311  -14.5672   25.6736 C   0  0  0  0  0  0  0  0  0  0  0  0
    8.5083  -15.8705   25.3849 C   0  0  0  0  0  0  0  0  0  0  0  0
    9.8852  -15.7796   24.7214 C   0  0  2  0  0  0  0  0  0  0  0  0
    9.7311  -15.6547   23.2766 N   0  0  0  0  0  0  0  0  0  0  0  0
   10.7600  -16.8831   25.0990 C   0  0  0  0  0  0  0  0  0  0  0  0
   11.4732  -17.6017   24.1068 O   0  0  0  0  0  0  0  0  0  0  0  0
    8.7351  -13.5029   25.9903 C   0  0  0  0  0  0  0  0  0  0  0  0
    8.1781  -12.2500   26.2726 C   0  0  0  0  0  0  0  0  0  0  0  0
   10.9597  -17.2850   26.2691 O   0  0  0  0  0  0  0  0  0  0  0  0
  2  1  1  1
  2  3  1  0
  4  2  1  0
  4  5  1  6
  6  4  1  0
  6  7  2  0
  8  6  1  0
  9  8  1  0
  9 10  1  1
 10 11  1  0
 11 15  1  0
 11 12  2  0
 12 13  1  0
 14 13  1  0
 15 14  2  0
 16  9  1  0
 17 16  2  0
 18 19  1  0
 19 29  2  0
 20 19  1  0
 20 21  2  0
 21 22  1  0
 22 28  2  0
 22 23  1  0
 24 23  1  1
 24 25  1  0
 25 16  1  0
 26 24  1  0
 27 26  1  0
 29 28  1  0
 30 26  2  0
M  END
$$$$
