THY.pdb
     RDKit          3D

 30 31  0  0  1  0  0  0  0  0999 V2000
   10.7826  -14.1962   18.7843 C   0  0  0  0  0  0  0  0  0  0  0  0
    9.5817  -13.3716   18.3742 C   0  0  1  0  0  0  0  0  0  0  0  0
    9.7748  -12.9751   17.0770 O   0  0  0  0  0  0  0  0  0  0  0  0
    8.2898  -14.1410   18.5697 C   0  0  2  0  0  0  0  0  0  0  0  0
    7.2011  -13.2594   18.1401 N   0  0  0  0  0  0  0  0  0  0  0  0
    8.0774  -14.5428   19.9669 C   0  0  0  0  0  0  0  0  0  0  0  0
    7.5547  -13.7205   20.7769 O   0  0  0  0  0  0  0  0  0  0  0  0
    8.4148  -15.8113   20.5178 N   0  0  0  0  0  0  0  0  0  0  0  0
    8.2083  -16.1790   21.9083 C   0  0  1  0  0  0  0  0  0  0  0  0
    7.5892  -17.5151   21.9996 C   0  0  0  0  0  0  0  0  0  0  0  0
    6.2382  -17.6791   21.4753 C   0  0  0  0  0  0  0  0  0  0  0  0
    5.1094  -16.9089   21.4714 C   0  0  0  0  0  0  0  0  0  0  0  0
    4.0750  -17.5277   20.8510 N   0  0  0  0  0  0  0  0  0  0  0  0
    4.5876  -18.7212   20.4617 C   0  0  0  0  0  0  0  0  0  0  0  0
    5.8712  -18.8207   20.8275 N   0  0  0  0  0  0  0  0  0  0  0  0
    9.5194  -16.1259   22.6537 C   0  0  0  0  0  0  0  0  0  0  0  0
   10.3640  -17.0676   22.5822 O   0  0  0  0  0  0  0  0  0  0  0  0
   10.5691  -15.5351   31.2365 O   0  0  0  0  0  0  0  0  0  0  0  0
   10.2061  -15.4184   29.8878 C   0  0  0  0  0  0  0  0  0  0  0  0
   10.3984  -14.2037   29.2597 C   0  0  0  0  0  0  0  0  0  0  0  0
   10.0559  -14.0528   27.9425 C   0  0  0  0  0  0  0  0  0  0  0  0
    9.5134  -15.0905   27.2005 C   0  0  0  0  0  0  0  0  0  0  0  0
    9.1483  -14.9179   25.8033 C   0  0  0  0  0  0  0  0  0  0  0  0
   10.3184  -15.1615   24.8463 C   0  0  2  0  0  0  0  0  0  0  0  0
    9.8662  -15.0248   23.4666 N   0  0  0  0  0  0  0  0  0  0  0  0
   10.9860  -16.4336   25.0945 C   0  0  0  0  0  0  0  0  0  0  0  0
   10.3125  -17.6554   24.8433 O   0  0  0  0  0  0  0  0  0  0  0  0
    9.3241  -16.2950   27.8272 C   0  0  0  0  0  0  0  0  0  0  0  0
    9.6715  -16.4586   29.1734 C   0  0  0  0  0  0  0  0  0  0  0  0
   12.1539  -16.5693   25.5285 O   0  0  0  0  0  0  0  0  0  0  0  0
  2  1  1  6
  2  3  1  0
  4  2  1  0
  4  5  1  1
  6  4  1  0
  6  7  2  0
  8  6  1  0
  9  8  1  0
  9 10  1  6
 10 11  1  0
 11 15  1  0
 11 12  2  0
 12 13  1  0
 14 13  1  0
 15 14  2  0
 16  9  1  0
 17 16  2  0
 18 19  1  0
 19 29  2  0
 20 19  1  0
 20 21  2  0
 21 22  1  0
 22 28  2  0
 22 23  1  0
 24 23  1  1
 24 25  1  0
 25 16  1  0
 26 24  1  0
 27 26  1  0
 29 28  1  0
 30 26  2  0
M  END
$$$$
