THY.pdb
     RDKit          3D

 30 31  0  0  1  0  0  0  0  0999 V2000
    8.8360  -12.5908   17.3489 C   0  0  0  0  0  0  0  0  0  0  0  0
    8.8644  -13.5760   18.4972 C   0  0  1  0  0  0  0  0  0  0  0  0
    7.6576  -13.4966   19.1412 O   0  0  0  0  0  0  0  0  0  0  0  0
    9.1849  -14.9776   18.0156 C   0  0  2  0  0  0  0  0  0  0  0  0
    8.0899  -15.3835   17.1305 N   0  0  0  0  0  0  0  0  0  0  0  0
    9.3100  -15.9394   19.1192 C   0  0  0  0  0  0  0  0  0  0  0  0
    8.3345  -16.7003   19.3933 O   0  0  0  0  0  0  0  0  0  0  0  0
   10.4617  -16.1042   19.9395 N   0  0  0  0  0  0  0  0  0  0  0  0
   10.5243  -16.9873   21.0917 C   0  0  1  0  0  0  0  0  0  0  0  0
   11.7937  -17.7390   21.0940 C   0  0  0  0  0  0  0  0  0  0  0  0
   11.8718  -18.9500   20.2850 C   0  0  0  0  0  0  0  0  0  0  0  0
   10.9727  -19.6805   19.5602 C   0  0  0  0  0  0  0  0  0  0  0  0
   11.5476  -20.7632   18.9814 N   0  0  0  0  0  0  0  0  0  0  0  0
   12.8461  -20.6951   19.3665 C   0  0  0  0  0  0  0  0  0  0  0  0
   13.0487  -19.6221   20.1405 N   0  0  0  0  0  0  0  0  0  0  0  0
   10.3532  -16.1886   22.3607 C   0  0  0  0  0  0  0  0  0  0  0  0
   11.2825  -15.4585   22.8177 O   0  0  0  0  0  0  0  0  0  0  0  0
    6.2744  -11.4788   28.6083 O   0  0  0  0  0  0  0  0  0  0  0  0
    6.6200  -12.2373   27.4816 C   0  0  0  0  0  0  0  0  0  0  0  0
    6.0085  -13.4625   27.3030 C   0  0  0  0  0  0  0  0  0  0  0  0
    6.3211  -14.2309   26.2134 C   0  0  0  0  0  0  0  0  0  0  0  0
    7.2446  -13.8200   25.2647 C   0  0  0  0  0  0  0  0  0  0  0  0
    7.5731  -14.6463   24.1138 C   0  0  0  0  0  0  0  0  0  0  0  0
    8.9089  -15.3788   24.2670 C   0  0  2  0  0  0  0  0  0  0  0  0
    9.1501  -16.2180   23.0990 N   0  0  0  0  0  0  0  0  0  0  0  0
    8.9974  -16.1209   25.5189 C   0  0  0  0  0  0  0  0  0  0  0  0
    8.2797  -17.3321   25.6842 O   0  0  0  0  0  0  0  0  0  0  0  0
    7.8495  -12.6030   25.4451 C   0  0  0  0  0  0  0  0  0  0  0  0
    7.5360  -11.8106   26.5558 C   0  0  0  0  0  0  0  0  0  0  0  0
    9.6768  -15.7846   26.5169 O   0  0  0  0  0  0  0  0  0  0  0  0
  2  1  1  6
  2  3  1  0
  4  2  1  0
  4  5  1  6
  6  4  1  0
  6  7  2  0
  8  6  1  0
  9  8  1  0
  9 10  1  1
 10 11  1  0
 11 15  1  0
 11 12  2  0
 12 13  1  0
 14 13  1  0
 15 14  2  0
 16  9  1  0
 17 16  2  0
 18 19  1  0
 19 29  2  0
 20 19  1  0
 20 21  2  0
 21 22  1  0
 22 28  2  0
 22 23  1  0
 24 23  1  6
 24 25  1  0
 25 16  1  0
 26 24  1  0
 27 26  1  0
 29 28  1  0
 30 26  2  0
M  END
$$$$
