THY.pdb
     RDKit          3D

 30 31  0  0  1  0  0  0  0  0999 V2000
   14.3944  -17.9428   19.9120 C   0  0  0  0  0  0  0  0  0  0  0  0
   15.1230  -16.9891   18.9901 C   0  0  1  0  0  0  0  0  0  0  0  0
   16.1669  -17.6743   18.4262 O   0  0  0  0  0  0  0  0  0  0  0  0
   14.1850  -16.3907   17.9599 C   0  0  2  0  0  0  0  0  0  0  0  0
   15.0053  -15.5724   17.0630 N   0  0  0  0  0  0  0  0  0  0  0  0
   13.1364  -15.5592   18.5661 C   0  0  0  0  0  0  0  0  0  0  0  0
   13.4101  -14.3728   18.9171 O   0  0  0  0  0  0  0  0  0  0  0  0
   11.7956  -15.9726   18.8062 N   0  0  0  0  0  0  0  0  0  0  0  0
   10.8037  -15.1667   19.4977 C   0  0  1  0  0  0  0  0  0  0  0  0
    9.4991  -15.2611   18.8153 C   0  0  0  0  0  0  0  0  0  0  0  0
    8.3574  -14.5927   19.4289 C   0  0  0  0  0  0  0  0  0  0  0  0
    8.0071  -13.2886   19.6393 C   0  0  0  0  0  0  0  0  0  0  0  0
    6.8188  -13.1799   20.2827 N   0  0  0  0  0  0  0  0  0  0  0  0
    6.4269  -14.4637   20.4753 C   0  0  0  0  0  0  0  0  0  0  0  0
    7.3335  -15.3100   19.9719 N   0  0  0  0  0  0  0  0  0  0  0  0
   10.7050  -15.5997   20.9400 C   0  0  0  0  0  0  0  0  0  0  0  0
   10.4509  -16.7995   21.2585 O   0  0  0  0  0  0  0  0  0  0  0  0
    5.3231  -13.1559   27.2622 O   0  0  0  0  0  0  0  0  0  0  0  0
    6.1932  -13.2679   26.1691 C   0  0  0  0  0  0  0  0  0  0  0  0
    6.2690  -14.4805   25.5128 C   0  0  0  0  0  0  0  0  0  0  0  0
    7.1079  -14.6268   24.4404 C   0  0  0  0  0  0  0  0  0  0  0  0
    7.8992  -13.5863   23.9788 C   0  0  0  0  0  0  0  0  0  0  0  0
    8.7906  -13.7540   22.8420 C   0  0  0  0  0  0  0  0  0  0  0  0
   10.0091  -14.6240   23.1625 C   0  0  2  0  0  0  0  0  0  0  0  0
   10.8903  -14.6884   22.0023 N   0  0  0  0  0  0  0  0  0  0  0  0
    9.6370  -15.9436   23.6583 C   0  0  0  0  0  0  0  0  0  0  0  0
    9.8829  -16.2951   25.0094 O   0  0  0  0  0  0  0  0  0  0  0  0
    7.8211  -12.3838   24.6326 C   0  0  0  0  0  0  0  0  0  0  0  0
    6.9661  -12.2250   25.7297 C   0  0  0  0  0  0  0  0  0  0  0  0
    9.0937  -16.8479   22.9818 O   0  0  0  0  0  0  0  0  0  0  0  0
  2  1  1  1
  2  3  1  0
  4  2  1  0
  4  5  1  6
  6  4  1  0
  6  7  2  0
  8  6  1  0
  9  8  1  0
  9 10  1  6
 10 11  1  0
 11 15  1  0
 11 12  2  0
 12 13  1  0
 14 13  1  0
 15 14  2  0
 16  9  1  0
 17 16  2  0
 18 19  1  0
 19 29  2  0
 20 19  1  0
 20 21  2  0
 21 22  1  0
 22 28  2  0
 22 23  1  0
 24 23  1  6
 24 25  1  0
 25 16  1  0
 26 24  1  0
 27 26  1  0
 29 28  1  0
 30 26  2  0
M  END
$$$$
