THY.pdb
     RDKit          3D

 30 31  0  0  1  0  0  0  0  0999 V2000
   10.2988  -13.5471   17.0738 C   0  0  0  0  0  0  0  0  0  0  0  0
    9.7916  -14.1788   18.3521 C   0  0  1  0  0  0  0  0  0  0  0  0
   10.3085  -13.4644   19.4008 O   0  0  0  0  0  0  0  0  0  0  0  0
    8.2769  -14.2450   18.3731 C   0  0  2  0  0  0  0  0  0  0  0  0
    7.7902  -12.8650   18.2962 N   0  0  0  0  0  0  0  0  0  0  0  0
    7.7562  -14.8850   19.5888 C   0  0  0  0  0  0  0  0  0  0  0  0
    7.2384  -14.1671   20.4955 O   0  0  0  0  0  0  0  0  0  0  0  0
    7.7789  -16.2831   19.8560 N   0  0  0  0  0  0  0  0  0  0  0  0
    7.3027  -16.8869   21.0889 C   0  0  1  0  0  0  0  0  0  0  0  0
    7.1990  -18.3507   20.9370 C   0  0  0  0  0  0  0  0  0  0  0  0
    6.8917  -19.1404   22.1240 C   0  0  0  0  0  0  0  0  0  0  0  0
    7.6391  -19.7492   23.0926 C   0  0  0  0  0  0  0  0  0  0  0  0
    6.8655  -20.3911   24.0020 N   0  0  0  0  0  0  0  0  0  0  0  0
    5.5978  -20.1695   23.5748 C   0  0  0  0  0  0  0  0  0  0  0  0
    5.6026  -19.4279   22.4606 N   0  0  0  0  0  0  0  0  0  0  0  0
    8.2170  -16.5135   22.2300 C   0  0  0  0  0  0  0  0  0  0  0  0
    9.4653  -16.3732   22.0638 O   0  0  0  0  0  0  0  0  0  0  0  0
   10.7008  -14.3452   30.4943 O   0  0  0  0  0  0  0  0  0  0  0  0
    9.9601  -14.6447   29.3428 C   0  0  0  0  0  0  0  0  0  0  0  0
    9.6852  -13.6228   28.4556 C   0  0  0  0  0  0  0  0  0  0  0  0
    8.9644  -13.8784   27.3197 C   0  0  0  0  0  0  0  0  0  0  0  0
    8.4905  -15.1461   27.0194 C   0  0  0  0  0  0  0  0  0  0  0  0
    7.7214  -15.4055   25.8126 C   0  0  0  0  0  0  0  0  0  0  0  0
    8.5779  -15.9447   24.6636 C   0  0  2  0  0  0  0  0  0  0  0  0
    7.7248  -16.3039   23.5367 N   0  0  0  0  0  0  0  0  0  0  0  0
    9.4459  -17.0391   25.0813 C   0  0  0  0  0  0  0  0  0  0  0  0
    8.9087  -18.3313   25.3074 O   0  0  0  0  0  0  0  0  0  0  0  0
    8.7655  -16.1582   27.9023 C   0  0  0  0  0  0  0  0  0  0  0  0
    9.5019  -15.9063   29.0660 C   0  0  0  0  0  0  0  0  0  0  0  0
   10.6819  -16.9549   25.2711 O   0  0  0  0  0  0  0  0  0  0  0  0
  2  1  1  6
  2  3  1  0
  4  2  1  0
  4  5  1  1
  6  4  1  0
  6  7  2  0
  8  6  1  0
  9  8  1  0
  9 10  1  6
 10 11  1  0
 11 15  1  0
 11 12  2  0
 12 13  1  0
 14 13  1  0
 15 14  2  0
 16  9  1  0
 17 16  2  0
 18 19  1  0
 19 29  2  0
 20 19  1  0
 20 21  2  0
 21 22  1  0
 22 28  2  0
 22 23  1  0
 24 23  1  1
 24 25  1  0
 25 16  1  0
 26 24  1  0
 27 26  1  0
 29 28  1  0
 30 26  2  0
M  END
$$$$
