THY.pdb
     RDKit          3D

 30 31  0  0  1  0  0  0  0  0999 V2000
   11.7854  -21.6125   19.0112 C   0  0  0  0  0  0  0  0  0  0  0  0
   11.3845  -20.3174   19.6836 C   0  0  1  0  0  0  0  0  0  0  0  0
   12.5153  -19.5569   19.8254 O   0  0  0  0  0  0  0  0  0  0  0  0
   10.2900  -19.6083   18.9099 C   0  0  2  0  0  0  0  0  0  0  0  0
   10.8359  -19.3030   17.5848 N   0  0  0  0  0  0  0  0  0  0  0  0
    9.8514  -18.3666   19.5613 C   0  0  0  0  0  0  0  0  0  0  0  0
   10.1887  -17.2514   19.0631 O   0  0  0  0  0  0  0  0  0  0  0  0
    9.0566  -18.2930   20.7400 N   0  0  0  0  0  0  0  0  0  0  0  0
    8.7221  -17.0552   21.4236 C   0  0  1  0  0  0  0  0  0  0  0  0
    7.2600  -16.8600   21.4461 C   0  0  0  0  0  0  0  0  0  0  0  0
    6.4270  -17.9846   21.8568 C   0  0  0  0  0  0  0  0  0  0  0  0
    6.6692  -19.2867   22.1933 C   0  0  0  0  0  0  0  0  0  0  0  0
    5.5283  -19.9533   22.4959 N   0  0  0  0  0  0  0  0  0  0  0  0
    4.5507  -19.0269   22.3377 C   0  0  0  0  0  0  0  0  0  0  0  0
    5.0741  -17.8548   21.9585 N   0  0  0  0  0  0  0  0  0  0  0  0
    9.2992  -17.0667   22.8181 C   0  0  0  0  0  0  0  0  0  0  0  0
    9.1911  -18.0774   23.5745 O   0  0  0  0  0  0  0  0  0  0  0  0
    5.7335  -11.6196   28.2719 O   0  0  0  0  0  0  0  0  0  0  0  0
    6.3927  -12.2946   27.2353 C   0  0  0  0  0  0  0  0  0  0  0  0
    5.6457  -12.7361   26.1611 C   0  0  0  0  0  0  0  0  0  0  0  0
    6.2558  -13.3990   25.1298 C   0  0  0  0  0  0  0  0  0  0  0  0
    7.6193  -13.6493   25.1213 C   0  0  0  0  0  0  0  0  0  0  0  0
    8.2565  -14.3588   24.0232 C   0  0  0  0  0  0  0  0  0  0  0  0
    9.4846  -15.1603   24.4634 C   0  0  2  0  0  0  0  0  0  0  0  0
    9.9859  -15.9516   23.3457 N   0  0  0  0  0  0  0  0  0  0  0  0
    9.2280  -15.9663   25.6509 C   0  0  0  0  0  0  0  0  0  0  0  0
    8.2030  -16.9454   25.6426 O   0  0  0  0  0  0  0  0  0  0  0  0
    8.3578  -13.2093   26.1893 C   0  0  0  0  0  0  0  0  0  0  0  0
    7.7426  -12.5306   27.2479 C   0  0  0  0  0  0  0  0  0  0  0  0
    9.8504  -15.8817   26.7354 O   0  0  0  0  0  0  0  0  0  0  0  0
  2  1  1  6
  2  3  1  0
  4  2  1  0
  4  5  1  6
  6  4  1  0
  6  7  2  0
  8  6  1  0
  9  8  1  0
  9 10  1  1
 10 11  1  0
 11 15  1  0
 11 12  2  0
 12 13  1  0
 14 13  1  0
 15 14  2  0
 16  9  1  0
 17 16  2  0
 18 19  1  0
 19 29  2  0
 20 19  1  0
 20 21  2  0
 21 22  1  0
 22 28  2  0
 22 23  1  0
 24 23  1  6
 24 25  1  0
 25 16  1  0
 26 24  1  0
 27 26  1  0
 29 28  1  0
 30 26  2  0
M  END
$$$$
