THY.pdb
     RDKit          3D

 30 31  0  0  1  0  0  0  0  0999 V2000
    5.8287  -20.6296   22.1219 C   0  0  0  0  0  0  0  0  0  0  0  0
    6.8106  -19.5198   22.4291 C   0  0  1  0  0  0  0  0  0  0  0  0
    7.8977  -20.0860   23.0413 O   0  0  0  0  0  0  0  0  0  0  0  0
    7.1758  -18.7428   21.1793 C   0  0  2  0  0  0  0  0  0  0  0  0
    7.7964  -19.6941   20.2537 N   0  0  0  0  0  0  0  0  0  0  0  0
    8.1073  -17.6398   21.4518 C   0  0  0  0  0  0  0  0  0  0  0  0
    9.3513  -17.8252   21.2977 O   0  0  0  0  0  0  0  0  0  0  0  0
    7.7339  -16.3372   21.8882 N   0  0  0  0  0  0  0  0  0  0  0  0
    8.6728  -15.2521   22.1171 C   0  0  1  0  0  0  0  0  0  0  0  0
    8.1758  -14.0054   21.5045 C   0  0  0  0  0  0  0  0  0  0  0  0
    8.1833  -13.9093   20.0492 C   0  0  0  0  0  0  0  0  0  0  0  0
    8.6154  -14.7174   19.0355 C   0  0  0  0  0  0  0  0  0  0  0  0
    8.4056  -14.1602   17.8177 N   0  0  0  0  0  0  0  0  0  0  0  0
    7.8252  -12.9663   18.0946 C   0  0  0  0  0  0  0  0  0  0  0  0
    7.6888  -12.8079   19.4166 N   0  0  0  0  0  0  0  0  0  0  0  0
    8.9111  -15.0830   23.5977 C   0  0  0  0  0  0  0  0  0  0  0  0
    8.5561  -14.0338   24.2131 O   0  0  0  0  0  0  0  0  0  0  0  0
    6.1621  -10.7680   26.8780 O   0  0  0  0  0  0  0  0  0  0  0  0
    6.6118  -12.0876   26.7332 C   0  0  0  0  0  0  0  0  0  0  0  0
    7.8945  -12.3921   27.1440 C   0  0  0  0  0  0  0  0  0  0  0  0
    8.3677  -13.6710   27.0182 C   0  0  0  0  0  0  0  0  0  0  0  0
    7.5957  -14.6913   26.4846 C   0  0  0  0  0  0  0  0  0  0  0  0
    8.1100  -16.0451   26.3507 C   0  0  0  0  0  0  0  0  0  0  0  0
    9.5474  -16.0880   25.8250 C   0  0  2  0  0  0  0  0  0  0  0  0
    9.5414  -16.0853   24.3667 N   0  0  0  0  0  0  0  0  0  0  0  0
   10.3114  -17.1983   26.3808 C   0  0  0  0  0  0  0  0  0  0  0  0
   10.6156  -17.2348   27.7649 O   0  0  0  0  0  0  0  0  0  0  0  0
    6.3227  -14.3853   26.0779 C   0  0  0  0  0  0  0  0  0  0  0  0
    5.8304  -13.0808   26.2029 C   0  0  0  0  0  0  0  0  0  0  0  0
   10.7506  -18.1760   25.7313 O   0  0  0  0  0  0  0  0  0  0  0  0
  2  1  1  6
  2  3  1  0
  4  2  1  0
  4  5  1  6
  6  4  1  0
  6  7  2  0
  8  6  1  0
  9  8  1  0
  9 10  1  1
 10 11  1  0
 11 15  1  0
 11 12  2  0
 12 13  1  0
 14 13  1  0
 15 14  2  0
 16  9  1  0
 17 16  2  0
 18 19  1  0
 19 29  2  0
 20 19  1  0
 20 21  2  0
 21 22  1  0
 22 28  2  0
 22 23  1  0
 24 23  1  1
 24 25  1  0
 25 16  1  0
 26 24  1  0
 27 26  1  0
 29 28  1  0
 30 26  2  0
M  END
$$$$
