THY.pdb
     RDKit          3D

 30 31  0  0  1  0  0  0  0  0999 V2000
    9.9529  -19.4216   14.3830 C   0  0  0  0  0  0  0  0  0  0  0  0
   11.0840  -19.5081   15.3847 C   0  0  1  0  0  0  0  0  0  0  0  0
   10.6574  -20.2915   16.4247 O   0  0  0  0  0  0  0  0  0  0  0  0
   12.3554  -20.0250   14.7399 C   0  0  2  0  0  0  0  0  0  0  0  0
   12.0542  -21.3604   14.2173 N   0  0  0  0  0  0  0  0  0  0  0  0
   13.4761  -20.1064   15.6864 C   0  0  0  0  0  0  0  0  0  0  0  0
   13.6324  -21.1588   16.3747 O   0  0  0  0  0  0  0  0  0  0  0  0
   14.4367  -19.0806   15.9133 N   0  0  0  0  0  0  0  0  0  0  0  0
   15.4977  -19.1595   16.9030 C   0  0  1  0  0  0  0  0  0  0  0  0
   16.5638  -18.1886   16.5913 C   0  0  0  0  0  0  0  0  0  0  0  0
   17.4171  -18.4575   15.4396 C   0  0  0  0  0  0  0  0  0  0  0  0
   17.6608  -19.5529   14.6597 C   0  0  0  0  0  0  0  0  0  0  0  0
   18.5746  -19.2940   13.6924 N   0  0  0  0  0  0  0  0  0  0  0  0
   18.9046  -17.9932   13.8871 C   0  0  0  0  0  0  0  0  0  0  0  0
   18.2227  -17.4875   14.9219 N   0  0  0  0  0  0  0  0  0  0  0  0
   14.9305  -18.9328   18.2830 C   0  0  0  0  0  0  0  0  0  0  0  0
   13.8080  -18.3715   18.4569 O   0  0  0  0  0  0  0  0  0  0  0  0
   11.5838  -20.5504   26.0187 O   0  0  0  0  0  0  0  0  0  0  0  0
   12.1110  -20.4290   24.7258 C   0  0  0  0  0  0  0  0  0  0  0  0
   13.0398  -21.3608   24.3062 C   0  0  0  0  0  0  0  0  0  0  0  0
   13.5762  -21.2740   23.0492 C   0  0  0  0  0  0  0  0  0  0  0  0
   13.2171  -20.2689   22.1645 C   0  0  0  0  0  0  0  0  0  0  0  0
   13.7968  -20.1830   20.8334 C   0  0  0  0  0  0  0  0  0  0  0  0
   15.0393  -19.2899   20.7803 C   0  0  2  0  0  0  0  0  0  0  0  0
   15.6243  -19.3345   19.4452 N   0  0  0  0  0  0  0  0  0  0  0  0
   16.0027  -19.6122   21.8260 C   0  0  0  0  0  0  0  0  0  0  0  0
   16.9315  -20.6672   21.6419 O   0  0  0  0  0  0  0  0  0  0  0  0
   12.2945  -19.3458   22.5844 C   0  0  0  0  0  0  0  0  0  0  0  0
   11.7407  -19.4268   23.8676 C   0  0  0  0  0  0  0  0  0  0  0  0
   16.1030  -19.0245   22.9284 O   0  0  0  0  0  0  0  0  0  0  0  0
  2  1  1  6
  2  3  1  0
  4  2  1  0
  4  5  1  1
  6  4  1  0
  6  7  2  0
  8  6  1  0
  9  8  1  0
  9 10  1  6
 10 11  1  0
 11 15  1  0
 11 12  2  0
 12 13  1  0
 14 13  1  0
 15 14  2  0
 16  9  1  0
 17 16  2  0
 18 19  1  0
 19 29  2  0
 20 19  1  0
 20 21  2  0
 21 22  1  0
 22 28  2  0
 22 23  1  0
 24 23  1  6
 24 25  1  0
 25 16  1  0
 26 24  1  0
 27 26  1  0
 29 28  1  0
 30 26  2  0
M  END
$$$$
