FRD.pdb
     RDKit          3D

 31 31  0  0  1  0  0  0  0  0999 V2000
    6.2183  -16.2447   25.8082 N   0  0  0  0  0  0  0  0  0  0  0  0
    6.7311  -15.5530   24.6494 C   0  0  1  0  0  0  0  0  0  0  0  0
    7.9585  -14.7874   25.0745 C   0  0  0  0  0  0  0  0  0  0  0  0
    7.5282  -13.7233   26.0280 C   0  0  0  0  0  0  0  0  0  0  0  0
    6.3391  -13.0206   25.8245 C   0  0  0  0  0  0  0  0  0  0  0  0
    5.9010  -12.0311   26.6760 C   0  0  0  0  0  0  0  0  0  0  0  0
    6.6399  -11.7025   27.7732 C   0  0  0  0  0  0  0  0  0  0  0  0
    7.8219  -12.3751   28.0085 C   0  0  0  0  0  0  0  0  0  0  0  0
    8.2495  -13.3649   27.1466 C   0  0  0  0  0  0  0  0  0  0  0  0
    7.0065  -16.4770   23.5201 C   0  0  0  0  0  0  0  0  0  0  0  0
    6.0857  -17.1090   22.9498 O   0  0  0  0  0  0  0  0  0  0  0  0
    8.9633  -14.9321   16.1532 N   0  0  0  0  0  0  0  0  0  0  0  0
    8.1718  -14.3126   17.1552 C   0  0  0  0  0  0  0  0  0  0  0  0
    7.9328  -13.0610   17.0932 N   0  0  0  0  0  0  0  0  0  0  0  0
    7.6351  -15.0813   18.2397 N   0  0  0  0  0  0  0  0  0  0  0  0
    8.3710  -15.2539   19.4812 C   0  0  0  0  0  0  0  0  0  0  0  0
    7.7116  -14.4053   20.5824 C   0  0  0  0  0  0  0  0  0  0  0  0
    8.4690  -14.5112   21.8646 C   0  0  0  0  0  0  0  0  0  0  0  0
    9.0678  -15.8327   22.1802 C   0  0  2  0  0  0  0  0  0  0  0  0
    8.3166  -16.7080   23.0111 N   0  0  0  0  0  0  0  0  0  0  0  0
   10.5285  -15.7927   22.4154 C   0  0  0  0  0  0  0  0  0  0  0  0
   11.2335  -15.5157   21.3862 O   0  0  0  0  0  0  0  0  0  0  0  0
    7.3424  -12.5571   17.7933 N   0  0  0  0  0  0  0  0  0  0  0  0
   11.2191  -16.0216   23.6094 C   0  0  2  0  0  0  0  0  0  0  0  0
   12.6752  -16.0021   23.6346 C   0  0  0  0  0  0  0  0  0  0  0  0
   13.2924  -17.1163   24.4149 C   0  0  0  0  0  0  0  0  0  0  0  0
   12.7683  -18.4625   24.0866 O   0  0  0  0  0  0  0  0  0  0  0  0
   11.8970  -18.7272   23.2440 C   0  0  0  0  0  0  0  0  0  0  0  0
   13.2215  -16.0160   22.2726 O   0  0  0  0  0  0  0  0  0  0  0  0
   12.4839  -16.2237   21.2540 O   0  0  0  0  0  0  0  0  0  0  0  0
   13.2924  -19.5657   24.7829 O   0  0  0  0  0  0  0  0  0  0  0  0
  2  1  1  1
  2  3  1  0
  2 10  1  0
  3  4  1  0
  4  9  2  0
  4  5  1  0
  5  6  2  0
  6  7  1  0
  8  7  2  0
  9  8  1  0
 10 11  2  0
 10 20  1  0
 13 15  1  0
 13 12  1  0
 14 13  2  0
 16 15  1  0
 17 16  1  0
 18 17  1  0
 19 18  1  1
 20 19  1  0
 21 19  1  0
 21 23  1  0
 22 21  2  0
 24 23  1  0
 24 28  1  0
 24 25  1  1
 25 26  1  0
 26 30  1  0
 26 27  2  0
 28 31  1  0
 29 28  2  0
M  END
$$$$
