FRD.pdb
     RDKit          3D

 31 31  0  0  1  0  0  0  0  0999 V2000
    7.8705  -17.2993   27.2666 N   0  0  0  0  0  0  0  0  0  0  0  0
    7.7016  -16.4021   26.1483 C   0  0  1  0  0  0  0  0  0  0  0  0
    8.5809  -15.2002   26.3840 C   0  0  0  0  0  0  0  0  0  0  0  0
    7.7076  -13.9905   26.4097 C   0  0  0  0  0  0  0  0  0  0  0  0
    7.3949  -13.3106   25.2311 C   0  0  0  0  0  0  0  0  0  0  0  0
    6.5941  -12.1908   25.2047 C   0  0  0  0  0  0  0  0  0  0  0  0
    6.0700  -11.7027   26.3645 C   0  0  0  0  0  0  0  0  0  0  0  0
    6.3563  -12.3477   27.5505 C   0  0  0  0  0  0  0  0  0  0  0  0
    7.1608  -13.4694   27.5627 C   0  0  0  0  0  0  0  0  0  0  0  0
    7.9871  -17.0631   24.8497 C   0  0  0  0  0  0  0  0  0  0  0  0
    8.6676  -18.1144   24.7841 O   0  0  0  0  0  0  0  0  0  0  0  0
    9.6896  -12.4751   19.1208 N   0  0  0  0  0  0  0  0  0  0  0  0
    8.3197  -12.7641   18.8892 C   0  0  0  0  0  0  0  0  0  0  0  0
    7.4272  -11.9090   19.2052 N   0  0  0  0  0  0  0  0  0  0  0  0
    7.9265  -14.0108   18.3007 N   0  0  0  0  0  0  0  0  0  0  0  0
    7.1833  -15.0037   19.0586 C   0  0  0  0  0  0  0  0  0  0  0  0
    7.9411  -15.3182   20.3603 C   0  0  0  0  0  0  0  0  0  0  0  0
    7.2418  -16.3798   21.1431 C   0  0  0  0  0  0  0  0  0  0  0  0
    7.9689  -16.9375   22.3114 C   0  0  2  0  0  0  0  0  0  0  0  0
    7.5154  -16.5582   23.6041 N   0  0  0  0  0  0  0  0  0  0  0  0
    9.4349  -17.0218   22.1258 C   0  0  0  0  0  0  0  0  0  0  0  0
    9.8157  -17.2258   20.9231 O   0  0  0  0  0  0  0  0  0  0  0  0
    6.4031  -12.1169   19.1800 N   0  0  0  0  0  0  0  0  0  0  0  0
   10.4373  -16.9103   23.0940 C   0  0  1  0  0  0  0  0  0  0  0  0
   11.8408  -16.9004   22.7049 C   0  0  0  0  0  0  0  0  0  0  0  0
   12.1872  -15.8744   21.6761 C   0  0  0  0  0  0  0  0  0  0  0  0
   13.6263  -15.8104   21.3300 O   0  0  0  0  0  0  0  0  0  0  0  0
   14.5400  -16.4608   21.8604 C   0  0  0  0  0  0  0  0  0  0  0  0
   12.7060  -16.7113   23.8750 O   0  0  0  0  0  0  0  0  0  0  0  0
   12.2300  -16.4544   25.0292 O   0  0  0  0  0  0  0  0  0  0  0  0
   14.0229  -14.9355   20.3034 O   0  0  0  0  0  0  0  0  0  0  0  0
  2  1  1  1
  2  3  1  0
  2 10  1  0
  3  4  1  0
  4  9  2  0
  4  5  1  0
  5  6  2  0
  6  7  1  0
  8  7  2  0
  9  8  1  0
 10 11  2  0
 10 20  1  0
 13 15  1  0
 13 12  1  0
 14 13  2  0
 16 15  1  0
 17 16  1  0
 18 17  1  0
 19 18  1  6
 20 19  1  0
 21 19  1  0
 21 23  1  0
 22 21  2  0
 24 23  1  0
 24 28  1  0
 24 25  1  6
 25 26  1  0
 26 30  1  0
 26 27  2  0
 28 31  1  0
 29 28  2  0
M  END
$$$$
