FRD.pdb
     RDKit          3D

 31 31  0  0  1  0  0  0  0  0999 V2000
    6.4663  -16.0737   25.7059 N   0  0  0  0  0  0  0  0  0  0  0  0
    7.0192  -15.2504   24.6568 C   0  0  1  0  0  0  0  0  0  0  0  0
    8.0030  -14.2978   25.2878 C   0  0  0  0  0  0  0  0  0  0  0  0
    7.2346  -13.3378   26.1331 C   0  0  0  0  0  0  0  0  0  0  0  0
    7.4957  -13.2224   27.4997 C   0  0  0  0  0  0  0  0  0  0  0  0
    6.8135  -12.3516   28.3196 C   0  0  0  0  0  0  0  0  0  0  0  0
    5.8358  -11.5554   27.8019 C   0  0  0  0  0  0  0  0  0  0  0  0
    5.5487  -11.6405   26.4546 C   0  0  0  0  0  0  0  0  0  0  0  0
    6.2403  -12.5180   25.6439 C   0  0  0  0  0  0  0  0  0  0  0  0
    7.6335  -16.0588   23.5733 C   0  0  0  0  0  0  0  0  0  0  0  0
    7.9212  -17.2681   23.7393 O   0  0  0  0  0  0  0  0  0  0  0  0
    7.5184  -12.5956   16.1465 N   0  0  0  0  0  0  0  0  0  0  0  0
    8.3351  -13.7558   16.1778 C   0  0  0  0  0  0  0  0  0  0  0  0
    9.1306  -13.9997   15.2108 N   0  0  0  0  0  0  0  0  0  0  0  0
    8.2762  -14.6595   17.2891 N   0  0  0  0  0  0  0  0  0  0  0  0
    9.3191  -15.6458   17.5179 C   0  0  0  0  0  0  0  0  0  0  0  0
    8.9449  -16.5038   18.7392 C   0  0  0  0  0  0  0  0  0  0  0  0
    8.4568  -15.6504   19.8628 C   0  0  0  0  0  0  0  0  0  0  0  0
    8.6195  -16.1942   21.2348 C   0  0  2  0  0  0  0  0  0  0  0  0
    7.9351  -15.5268   22.2869 N   0  0  0  0  0  0  0  0  0  0  0  0
    9.9880  -16.6706   21.5368 C   0  0  0  0  0  0  0  0  0  0  0  0
   10.2817  -17.8139   21.0473 O   0  0  0  0  0  0  0  0  0  0  0  0
    9.7253  -14.8580   15.1633 N   0  0  0  0  0  0  0  0  0  0  0  0
   10.9812  -16.0312   22.2848 C   0  0  1  0  0  0  0  0  0  0  0  0
   12.2831  -16.6572   22.4698 C   0  0  0  0  0  0  0  0  0  0  0  0
   13.4429  -15.7394   22.2606 C   0  0  0  0  0  0  0  0  0  0  0  0
   13.5428  -15.1743   20.8947 O   0  0  0  0  0  0  0  0  0  0  0  0
   13.5890  -15.8168   19.8345 C   0  0  0  0  0  0  0  0  0  0  0  0
   12.3883  -17.2597   23.8038 O   0  0  0  0  0  0  0  0  0  0  0  0
   11.5377  -17.0157   24.7211 O   0  0  0  0  0  0  0  0  0  0  0  0
   13.5915  -13.7759   20.7580 O   0  0  0  0  0  0  0  0  0  0  0  0
  2  1  1  1
  2  3  1  0
  2 10  1  0
  3  4  1  0
  4  9  2  0
  4  5  1  0
  5  6  2  0
  6  7  1  0
  8  7  2  0
  9  8  1  0
 10 11  2  0
 10 20  1  0
 13 15  1  0
 13 12  1  0
 14 13  2  0
 16 15  1  0
 17 16  1  0
 18 17  1  0
 19 18  1  6
 20 19  1  0
 21 19  1  0
 21 23  1  0
 22 21  2  0
 24 23  1  0
 24 28  1  0
 24 25  1  6
 25 26  1  0
 26 30  1  0
 26 27  2  0
 28 31  1  0
 29 28  2  0
M  END
$$$$
