FRD.pdb
     RDKit          3D

 31 31  0  0  1  0  0  0  0  0999 V2000
    6.1167  -17.3758   25.5889 N   0  0  0  0  0  0  0  0  0  0  0  0
    6.6923  -16.1012   25.2312 C   0  0  1  0  0  0  0  0  0  0  0  0
    7.2668  -15.4868   26.4826 C   0  0  0  0  0  0  0  0  0  0  0  0
    6.8376  -14.0584   26.5313 C   0  0  0  0  0  0  0  0  0  0  0  0
    5.5288  -13.7176   26.8776 C   0  0  0  0  0  0  0  0  0  0  0  0
    5.0866  -12.4149   26.9360 C   0  0  0  0  0  0  0  0  0  0  0  0
    5.9421  -11.3934   26.6484 C   0  0  0  0  0  0  0  0  0  0  0  0
    7.2446  -11.6903   26.3019 C   0  0  0  0  0  0  0  0  0  0  0  0
    7.6747  -13.0008   26.2471 C   0  0  0  0  0  0  0  0  0  0  0  0
    7.7020  -16.2245   24.1495 C   0  0  0  0  0  0  0  0  0  0  0  0
    8.4536  -17.2248   24.0643 O   0  0  0  0  0  0  0  0  0  0  0  0
    6.9279  -14.5921   17.0985 N   0  0  0  0  0  0  0  0  0  0  0  0
    8.1872  -13.9672   17.2928 C   0  0  0  0  0  0  0  0  0  0  0  0
    9.1335  -14.1717   16.4621 N   0  0  0  0  0  0  0  0  0  0  0  0
    8.4077  -13.1045   18.4163 N   0  0  0  0  0  0  0  0  0  0  0  0
    7.3671  -12.8664   19.4028 C   0  0  0  0  0  0  0  0  0  0  0  0
    7.3478  -14.0304   20.4089 C   0  0  0  0  0  0  0  0  0  0  0  0
    8.6941  -14.2287   21.0229 C   0  0  0  0  0  0  0  0  0  0  0  0
    8.8059  -15.2824   22.0631 C   0  0  2  0  0  0  0  0  0  0  0  0
    7.8863  -15.2307   23.1459 N   0  0  0  0  0  0  0  0  0  0  0  0
   10.1987  -15.6540   22.3986 C   0  0  0  0  0  0  0  0  0  0  0  0
   10.7192  -14.9875   23.3566 O   0  0  0  0  0  0  0  0  0  0  0  0
   10.0431  -13.6578   16.4950 N   0  0  0  0  0  0  0  0  0  0  0  0
   11.0020  -16.6294   21.8000 C   0  0  2  0  0  0  0  0  0  0  0  0
   12.3399  -16.8973   22.3093 C   0  0  0  0  0  0  0  0  0  0  0  0
   12.5462  -18.2956   22.7924 C   0  0  0  0  0  0  0  0  0  0  0  0
   13.9219  -18.5902   23.2569 O   0  0  0  0  0  0  0  0  0  0  0  0
   14.5332  -18.0047   24.1639 C   0  0  0  0  0  0  0  0  0  0  0  0
   13.3559  -16.5897   21.2959 O   0  0  0  0  0  0  0  0  0  0  0  0
   13.0404  -16.2406   20.1113 O   0  0  0  0  0  0  0  0  0  0  0  0
   14.6260  -19.6305   22.6255 O   0  0  0  0  0  0  0  0  0  0  0  0
  2  1  1  1
  2  3  1  0
  2 10  1  0
  3  4  1  0
  4  9  2  0
  4  5  1  0
  5  6  2  0
  6  7  1  0
  8  7  2  0
  9  8  1  0
 10 11  2  0
 10 20  1  0
 13 15  1  0
 13 12  1  0
 14 13  2  0
 16 15  1  0
 17 16  1  0
 18 17  1  0
 19 18  1  1
 20 19  1  0
 21 19  1  0
 21 23  1  0
 22 21  2  0
 24 23  1  0
 24 28  1  0
 24 25  1  6
 25 26  1  0
 26 30  1  0
 26 27  2  0
 28 31  1  0
 29 28  2  0
M  END
$$$$
