FRD.pdb
     RDKit          3D

 31 31  0  0  1  0  0  0  0  0999 V2000
    8.8146  -14.6166   25.0979 N   0  0  0  0  0  0  0  0  0  0  0  0
    8.1150  -15.8595   25.3211 C   0  0  1  0  0  0  0  0  0  0  0  0
    6.8647  -15.5509   26.1053 C   0  0  0  0  0  0  0  0  0  0  0  0
    6.9658  -14.1452   26.5958 C   0  0  0  0  0  0  0  0  0  0  0  0
    6.0087  -13.1937   26.2384 C   0  0  0  0  0  0  0  0  0  0  0  0
    6.0597  -11.8858   26.6658 C   0  0  0  0  0  0  0  0  0  0  0  0
    7.0774  -11.4741   27.4737 C   0  0  0  0  0  0  0  0  0  0  0  0
    8.0431  -12.3859   27.8490 C   0  0  0  0  0  0  0  0  0  0  0  0
    7.9799  -13.6941   27.4132 C   0  0  0  0  0  0  0  0  0  0  0  0
    7.8226  -16.5750   24.0533 C   0  0  0  0  0  0  0  0  0  0  0  0
    7.3858  -17.7505   24.0489 O   0  0  0  0  0  0  0  0  0  0  0  0
    6.9595  -13.8042   18.0609 N   0  0  0  0  0  0  0  0  0  0  0  0
    8.3527  -13.5352   18.0388 C   0  0  0  0  0  0  0  0  0  0  0  0
    8.7690  -12.3312   18.1064 N   0  0  0  0  0  0  0  0  0  0  0  0
    9.3009  -14.6060   17.9418 N   0  0  0  0  0  0  0  0  0  0  0  0
    8.8717  -15.9936   17.8871 C   0  0  0  0  0  0  0  0  0  0  0  0
    9.2027  -16.6787   19.2245 C   0  0  0  0  0  0  0  0  0  0  0  0
    8.6583  -15.8977   20.3745 C   0  0  0  0  0  0  0  0  0  0  0  0
    8.8412  -16.4833   21.7266 C   0  0  2  0  0  0  0  0  0  0  0  0
    8.0141  -15.9863   22.7705 N   0  0  0  0  0  0  0  0  0  0  0  0
   10.2519  -16.7599   22.0788 C   0  0  0  0  0  0  0  0  0  0  0  0
   10.7172  -17.8582   21.6203 O   0  0  0  0  0  0  0  0  0  0  0  0
    9.7798  -12.0722   18.0434 N   0  0  0  0  0  0  0  0  0  0  0  0
   11.1220  -15.9774   22.8440 C   0  0  2  0  0  0  0  0  0  0  0  0
   12.5590  -16.2094   22.7948 C   0  0  0  0  0  0  0  0  0  0  0  0
   13.3628  -15.0130   22.4026 C   0  0  0  0  0  0  0  0  0  0  0  0
   13.8656  -15.0383   21.0093 O   0  0  0  0  0  0  0  0  0  0  0  0
   13.6931  -15.9462   20.1815 C   0  0  0  0  0  0  0  0  0  0  0  0
   13.0515  -16.7115   24.0828 O   0  0  0  0  0  0  0  0  0  0  0  0
   14.2665  -17.0591   24.2492 O   0  0  0  0  0  0  0  0  0  0  0  0
   14.6140  -13.9384   20.5547 O   0  0  0  0  0  0  0  0  0  0  0  0
  2  1  1  6
  2  3  1  0
  2 10  1  0
  3  4  1  0
  4  9  2  0
  4  5  1  0
  5  6  2  0
  6  7  1  0
  8  7  2  0
  9  8  1  0
 10 11  2  0
 10 20  1  0
 13 15  1  0
 13 12  1  0
 14 13  2  0
 16 15  1  0
 17 16  1  0
 18 17  1  0
 19 18  1  6
 20 19  1  0
 21 19  1  0
 21 23  1  0
 22 21  2  0
 24 23  1  0
 24 28  1  0
 24 25  1  6
 25 26  1  0
 26 30  1  0
 26 27  2  0
 28 31  1  0
 29 28  2  0
M  END
$$$$
