FRD.pdb
     RDKit          3D

 31 31  0  0  1  0  0  0  0  0999 V2000
    7.6543  -17.3318   26.4250 N   0  0  0  0  0  0  0  0  0  0  0  0
    6.6212  -16.7574   25.5963 C   0  0  1  0  0  0  0  0  0  0  0  0
    5.8687  -15.7502   26.4286 C   0  0  0  0  0  0  0  0  0  0  0  0
    6.7638  -14.5769   26.6492 C   0  0  0  0  0  0  0  0  0  0  0  0
    6.4009  -13.3069   26.1969 C   0  0  0  0  0  0  0  0  0  0  0  0
    7.1931  -12.1952   26.3768 C   0  0  0  0  0  0  0  0  0  0  0  0
    8.3887  -12.3098   27.0213 C   0  0  0  0  0  0  0  0  0  0  0  0
    8.7824  -13.5492   27.4834 C   0  0  0  0  0  0  0  0  0  0  0  0
    7.9785  -14.6556   27.2961 C   0  0  0  0  0  0  0  0  0  0  0  0
    7.1667  -16.1632   24.3496 C   0  0  0  0  0  0  0  0  0  0  0  0
    6.4232  -15.6004   23.5110 O   0  0  0  0  0  0  0  0  0  0  0  0
    8.5145  -14.4876   16.6830 N   0  0  0  0  0  0  0  0  0  0  0  0
    8.2252  -13.4603   17.6183 C   0  0  0  0  0  0  0  0  0  0  0  0
    8.7873  -12.3207   17.5052 N   0  0  0  0  0  0  0  0  0  0  0  0
    7.3036  -13.6899   18.6921 N   0  0  0  0  0  0  0  0  0  0  0  0
    7.6781  -13.4458   20.0752 C   0  0  0  0  0  0  0  0  0  0  0  0
    8.0008  -14.7873   20.7563 C   0  0  0  0  0  0  0  0  0  0  0  0
    8.5256  -14.5731   22.1374 C   0  0  0  0  0  0  0  0  0  0  0  0
    9.1430  -15.7456   22.8073 C   0  0  2  0  0  0  0  0  0  0  0  0
    8.5526  -16.1892   24.0219 N   0  0  0  0  0  0  0  0  0  0  0  0
   10.6218  -15.7652   22.7477 C   0  0  0  0  0  0  0  0  0  0  0  0
   11.1956  -14.7385   23.2473 O   0  0  0  0  0  0  0  0  0  0  0  0
    8.6653  -11.5522   18.2032 N   0  0  0  0  0  0  0  0  0  0  0  0
   11.4532  -16.7554   22.2156 C   0  0  2  0  0  0  0  0  0  0  0  0
   12.8785  -16.7609   22.5148 C   0  0  0  0  0  0  0  0  0  0  0  0
   13.6213  -15.5735   21.9956 C   0  0  0  0  0  0  0  0  0  0  0  0
   13.7773  -15.5403   20.5226 O   0  0  0  0  0  0  0  0  0  0  0  0
   14.0774  -16.4977   19.7930 C   0  0  0  0  0  0  0  0  0  0  0  0
   13.1084  -16.8707   23.9601 O   0  0  0  0  0  0  0  0  0  0  0  0
   12.1546  -16.7864   24.8014 O   0  0  0  0  0  0  0  0  0  0  0  0
   13.5703  -14.3168   19.8617 O   0  0  0  0  0  0  0  0  0  0  0  0
  2  1  1  1
  2  3  1  0
  2 10  1  0
  3  4  1  0
  4  9  2  0
  4  5  1  0
  5  6  2  0
  6  7  1  0
  8  7  2  0
  9  8  1  0
 10 11  2  0
 10 20  1  0
 13 15  1  0
 13 12  1  0
 14 13  2  0
 16 15  1  0
 17 16  1  0
 18 17  1  0
 19 18  1  1
 20 19  1  0
 21 19  1  0
 21 23  1  0
 22 21  2  0
 24 23  1  0
 24 28  1  0
 24 25  1  6
 25 26  1  0
 26 30  1  0
 26 27  2  0
 28 31  1  0
 29 28  2  0
M  END
$$$$
