FRD.pdb
     RDKit          3D

 31 31  0  0  1  0  0  0  0  0999 V2000
    6.5430  -16.9791   26.1708 N   0  0  0  0  0  0  0  0  0  0  0  0
    6.9599  -15.8548   25.3668 C   0  0  1  0  0  0  0  0  0  0  0  0
    7.9453  -15.0494   26.1754 C   0  0  0  0  0  0  0  0  0  0  0  0
    7.3069  -13.7421   26.5069 C   0  0  0  0  0  0  0  0  0  0  0  0
    7.8614  -12.9017   27.4741 C   0  0  0  0  0  0  0  0  0  0  0  0
    7.3089  -11.6871   27.8138 C   0  0  0  0  0  0  0  0  0  0  0  0
    6.1714  -11.2611   27.1953 C   0  0  0  0  0  0  0  0  0  0  0  0
    5.5934  -12.0643   26.2331 C   0  0  0  0  0  0  0  0  0  0  0  0
    6.1577  -13.2798   25.9022 C   0  0  0  0  0  0  0  0  0  0  0  0
    7.5177  -16.2770   24.0570 C   0  0  0  0  0  0  0  0  0  0  0  0
    8.0257  -17.4120   23.8953 O   0  0  0  0  0  0  0  0  0  0  0  0
    7.8010  -12.5397   15.7179 N   0  0  0  0  0  0  0  0  0  0  0  0
    8.4748  -13.7881   15.6785 C   0  0  0  0  0  0  0  0  0  0  0  0
    8.8874  -14.2531   14.5645 N   0  0  0  0  0  0  0  0  0  0  0  0
    8.6985  -14.5346   16.8817 N   0  0  0  0  0  0  0  0  0  0  0  0
    8.1386  -14.1059   18.1528 C   0  0  0  0  0  0  0  0  0  0  0  0
    8.6004  -15.0697   19.2598 C   0  0  0  0  0  0  0  0  0  0  0  0
    7.9298  -14.7557   20.5562 C   0  0  0  0  0  0  0  0  0  0  0  0
    8.2358  -15.6501   21.7011 C   0  0  2  0  0  0  0  0  0  0  0  0
    7.5154  -15.4357   22.9076 N   0  0  0  0  0  0  0  0  0  0  0  0
    9.6716  -15.9817   21.8409 C   0  0  0  0  0  0  0  0  0  0  0  0
   10.4036  -15.0334   22.2854 O   0  0  0  0  0  0  0  0  0  0  0  0
    9.3988  -15.1607   14.4789 N   0  0  0  0  0  0  0  0  0  0  0  0
   10.3134  -17.1884   21.5464 C   0  0  1  0  0  0  0  0  0  0  0  0
   11.7532  -17.3201   21.7222 C   0  0  0  0  0  0  0  0  0  0  0  0
   12.1794  -18.5919   22.3795 C   0  0  0  0  0  0  0  0  0  0  0  0
   12.0871  -18.5821   23.8581 O   0  0  0  0  0  0  0  0  0  0  0  0
   12.4325  -17.6581   24.6106 C   0  0  0  0  0  0  0  0  0  0  0  0
   12.4502  -17.1924   20.4371 O   0  0  0  0  0  0  0  0  0  0  0  0
   13.7221  -17.2155   20.3564 O   0  0  0  0  0  0  0  0  0  0  0  0
   11.5600  -19.7183   24.4968 O   0  0  0  0  0  0  0  0  0  0  0  0
  2  1  1  1
  2  3  1  0
  2 10  1  0
  3  4  1  0
  4  9  2  0
  4  5  1  0
  5  6  2  0
  6  7  1  0
  8  7  2  0
  9  8  1  0
 10 11  2  0
 10 20  1  0
 13 15  1  0
 13 12  1  0
 14 13  2  0
 16 15  1  0
 17 16  1  0
 18 17  1  0
 19 18  1  6
 20 19  1  0
 21 19  1  0
 21 23  1  0
 22 21  2  0
 24 23  1  0
 24 28  1  0
 24 25  1  6
 25 26  1  0
 26 30  1  0
 26 27  2  0
 28 31  1  0
 29 28  2  0
M  END
$$$$
