FRD.pdb
     RDKit          3D

 31 31  0  0  1  0  0  0  0  0999 V2000
    7.1974  -16.5769   26.8854 N   0  0  0  0  0  0  0  0  0  0  0  0
    7.3978  -15.8575   25.6500 C   0  0  1  0  0  0  0  0  0  0  0  0
    8.3829  -14.7476   25.9168 C   0  0  0  0  0  0  0  0  0  0  0  0
    7.6269  -13.5860   26.4697 C   0  0  0  0  0  0  0  0  0  0  0  0
    6.4810  -13.1100   25.8297 C   0  0  0  0  0  0  0  0  0  0  0  0
    5.7510  -12.0421   26.3014 C   0  0  0  0  0  0  0  0  0  0  0  0
    6.1405  -11.4029   27.4405 C   0  0  0  0  0  0  0  0  0  0  0  0
    7.2685  -11.8443   28.1020 C   0  0  0  0  0  0  0  0  0  0  0  0
    7.9912  -12.9161   27.6179 C   0  0  0  0  0  0  0  0  0  0  0  0
    7.8377  -16.7481   24.5463 C   0  0  0  0  0  0  0  0  0  0  0  0
    8.1459  -17.9460   24.7529 O   0  0  0  0  0  0  0  0  0  0  0  0
   10.2243  -13.6912   18.7461 N   0  0  0  0  0  0  0  0  0  0  0  0
    8.9650  -13.0655   18.5542 C   0  0  0  0  0  0  0  0  0  0  0  0
    8.8821  -11.7924   18.5466 N   0  0  0  0  0  0  0  0  0  0  0  0
    7.7809  -13.8515   18.3671 N   0  0  0  0  0  0  0  0  0  0  0  0
    7.7054  -15.2272   18.8301 C   0  0  0  0  0  0  0  0  0  0  0  0
    8.1730  -15.2946   20.2945 C   0  0  0  0  0  0  0  0  0  0  0  0
    8.2578  -16.7092   20.7641 C   0  0  0  0  0  0  0  0  0  0  0  0
    8.7049  -16.9233   22.1637 C   0  0  2  0  0  0  0  0  0  0  0  0
    7.9395  -16.3122   23.1941 N   0  0  0  0  0  0  0  0  0  0  0  0
   10.1747  -16.9074   22.3370 C   0  0  0  0  0  0  0  0  0  0  0  0
   10.6683  -15.7725   22.6553 O   0  0  0  0  0  0  0  0  0  0  0  0
    7.9776  -11.2799   18.4382 N   0  0  0  0  0  0  0  0  0  0  0  0
   11.0744  -17.9679   22.1930 C   0  0  2  0  0  0  0  0  0  0  0  0
   12.5080  -17.7402   22.3113 C   0  0  0  0  0  0  0  0  0  0  0  0
   12.9867  -16.4810   21.6658 C   0  0  0  0  0  0  0  0  0  0  0  0
   14.4356  -16.2179   21.8280 O   0  0  0  0  0  0  0  0  0  0  0  0
   15.3589  -17.0091   21.5816 C   0  0  0  0  0  0  0  0  0  0  0  0
   12.9226  -17.7402   23.7190 O   0  0  0  0  0  0  0  0  0  0  0  0
   12.0741  -17.7292   24.6702 O   0  0  0  0  0  0  0  0  0  0  0  0
   14.8307  -14.9561   22.3058 O   0  0  0  0  0  0  0  0  0  0  0  0
  2  1  1  1
  2  3  1  0
  2 10  1  0
  3  4  1  0
  4  9  2  0
  4  5  1  0
  5  6  2  0
  6  7  1  0
  8  7  2  0
  9  8  1  0
 10 11  2  0
 10 20  1  0
 13 15  1  0
 13 12  1  0
 14 13  2  0
 16 15  1  0
 17 16  1  0
 18 17  1  0
 19 18  1  6
 20 19  1  0
 21 19  1  0
 21 23  1  0
 22 21  2  0
 24 23  1  0
 24 28  1  0
 24 25  1  6
 25 26  1  0
 26 30  1  0
 26 27  2  0
 28 31  1  0
 29 28  2  0
M  END
$$$$
