FRD.pdb
     RDKit          3D

 31 31  0  0  1  0  0  0  0  0999 V2000
    5.8482  -17.4336   25.9868 N   0  0  0  0  0  0  0  0  0  0  0  0
    6.5418  -16.2458   25.5484 C   0  0  1  0  0  0  0  0  0  0  0  0
    7.4604  -15.8103   26.6619 C   0  0  0  0  0  0  0  0  0  0  0  0
    7.4123  -14.3210   26.7406 C   0  0  0  0  0  0  0  0  0  0  0  0
    6.2106  -13.6347   26.5561 C   0  0  0  0  0  0  0  0  0  0  0  0
    6.1167  -12.2625   26.6192 C   0  0  0  0  0  0  0  0  0  0  0  0
    7.2290  -11.5161   26.8713 C   0  0  0  0  0  0  0  0  0  0  0  0
    8.4360  -12.1585   27.0596 C   0  0  0  0  0  0  0  0  0  0  0  0
    8.5160  -13.5350   26.9935 C   0  0  0  0  0  0  0  0  0  0  0  0
    7.2672  -16.4584   24.2703 C   0  0  0  0  0  0  0  0  0  0  0  0
    7.8704  -17.5310   24.0288 O   0  0  0  0  0  0  0  0  0  0  0  0
    7.7341  -13.4176   15.7161 N   0  0  0  0  0  0  0  0  0  0  0  0
    8.7619  -14.0264   16.4823 C   0  0  0  0  0  0  0  0  0  0  0  0
    9.3032  -15.1074   16.0751 N   0  0  0  0  0  0  0  0  0  0  0  0
    9.2007  -13.4368   17.7132 N   0  0  0  0  0  0  0  0  0  0  0  0
    8.3216  -13.3536   18.8676 C   0  0  0  0  0  0  0  0  0  0  0  0
    8.8367  -14.3009   19.9653 C   0  0  0  0  0  0  0  0  0  0  0  0
    7.7644  -14.5999   20.9601 C   0  0  0  0  0  0  0  0  0  0  0  0
    8.1140  -15.5351   22.0591 C   0  0  2  0  0  0  0  0  0  0  0  0
    7.3286  -15.4743   23.2424 N   0  0  0  0  0  0  0  0  0  0  0  0
    9.5692  -15.7327   22.2434 C   0  0  0  0  0  0  0  0  0  0  0  0
   10.1222  -14.9308   23.0705 O   0  0  0  0  0  0  0  0  0  0  0  0
   10.1154  -15.5559   16.5566 N   0  0  0  0  0  0  0  0  0  0  0  0
   10.3991  -16.6748   21.6282 C   0  0  2  0  0  0  0  0  0  0  0  0
   11.8367  -16.6550   21.8609 C   0  0  0  0  0  0  0  0  0  0  0  0
   12.4153  -17.9752   22.2526 C   0  0  0  0  0  0  0  0  0  0  0  0
   12.0518  -18.4270   23.6160 O   0  0  0  0  0  0  0  0  0  0  0  0
   12.1775  -17.7760   24.6645 C   0  0  0  0  0  0  0  0  0  0  0  0
   12.5502  -16.1549   20.6801 O   0  0  0  0  0  0  0  0  0  0  0  0
   11.9437  -15.8841   19.5921 O   0  0  0  0  0  0  0  0  0  0  0  0
   11.5088  -19.7153   23.7645 O   0  0  0  0  0  0  0  0  0  0  0  0
  2  1  1  1
  2  3  1  0
  2 10  1  0
  3  4  1  0
  4  9  2  0
  4  5  1  0
  5  6  2  0
  6  7  1  0
  8  7  2  0
  9  8  1  0
 10 11  2  0
 10 20  1  0
 13 15  1  0
 13 12  1  0
 14 13  2  0
 16 15  1  0
 17 16  1  0
 18 17  1  0
 19 18  1  1
 20 19  1  0
 21 19  1  0
 21 23  1  0
 22 21  2  0
 24 23  1  0
 24 28  1  0
 24 25  1  6
 25 26  1  0
 26 30  1  0
 26 27  2  0
 28 31  1  0
 29 28  2  0
M  END
$$$$
