FRD.pdb
     RDKit          3D

 31 31  0  0  1  0  0  0  0  0999 V2000
    6.0233  -18.0157   25.7811 N   0  0  0  0  0  0  0  0  0  0  0  0
    6.4367  -16.6497   25.5637 C   0  0  1  0  0  0  0  0  0  0  0  0
    7.0626  -16.1482   26.8405 C   0  0  0  0  0  0  0  0  0  0  0  0
    7.0715  -14.6569   26.7923 C   0  0  0  0  0  0  0  0  0  0  0  0
    5.8822  -13.9322   26.8898 C   0  0  0  0  0  0  0  0  0  0  0  0
    5.8402  -12.5565   26.8503 C   0  0  0  0  0  0  0  0  0  0  0  0
    6.9945  -11.8452   26.7109 C   0  0  0  0  0  0  0  0  0  0  0  0
    8.1909  -12.5260   26.6114 C   0  0  0  0  0  0  0  0  0  0  0  0
    8.2186  -13.9055   26.6523 C   0  0  0  0  0  0  0  0  0  0  0  0
    7.3488  -16.5175   24.3994 C   0  0  0  0  0  0  0  0  0  0  0  0
    8.2908  -17.3230   24.2089 O   0  0  0  0  0  0  0  0  0  0  0  0
    9.6979  -14.4146   17.5890 N   0  0  0  0  0  0  0  0  0  0  0  0
    8.3888  -13.9876   17.2456 C   0  0  0  0  0  0  0  0  0  0  0  0
    7.9186  -14.2465   16.0883 N   0  0  0  0  0  0  0  0  0  0  0  0
    7.5857  -13.2666   18.1892 N   0  0  0  0  0  0  0  0  0  0  0  0
    8.1611  -12.7089   19.4018 C   0  0  0  0  0  0  0  0  0  0  0  0
    8.6767  -13.8543   20.2905 C   0  0  0  0  0  0  0  0  0  0  0  0
    7.7230  -14.1384   21.4034 C   0  0  0  0  0  0  0  0  0  0  0  0
    8.0735  -15.2569   22.3149 C   0  0  2  0  0  0  0  0  0  0  0  0
    7.2207  -15.4819   23.4298 N   0  0  0  0  0  0  0  0  0  0  0  0
    9.5262  -15.4069   22.5555 C   0  0  0  0  0  0  0  0  0  0  0  0
   10.0273  -14.5641   23.3749 O   0  0  0  0  0  0  0  0  0  0  0  0
    6.9592  -13.9630   15.7853 N   0  0  0  0  0  0  0  0  0  0  0  0
   10.4030  -16.3435   21.9997 C   0  0  2  0  0  0  0  0  0  0  0  0
   11.8090  -16.3534   22.3791 C   0  0  0  0  0  0  0  0  0  0  0  0
   12.2555  -17.6083   23.0552 C   0  0  0  0  0  0  0  0  0  0  0  0
   11.9414  -18.8524   22.3145 O   0  0  0  0  0  0  0  0  0  0  0  0
   11.3278  -18.9332   21.2393 C   0  0  0  0  0  0  0  0  0  0  0  0
   12.6665  -16.1107   21.2132 O   0  0  0  0  0  0  0  0  0  0  0  0
   12.1945  -16.0578   20.0303 O   0  0  0  0  0  0  0  0  0  0  0  0
   12.3691  -20.0750   22.8611 O   0  0  0  0  0  0  0  0  0  0  0  0
  2  1  1  1
  2  3  1  0
  2 10  1  0
  3  4  1  0
  4  9  2  0
  4  5  1  0
  5  6  2  0
  6  7  1  0
  8  7  2  0
  9  8  1  0
 10 11  2  0
 10 20  1  0
 13 15  1  0
 13 12  1  0
 14 13  2  0
 16 15  1  0
 17 16  1  0
 18 17  1  0
 19 18  1  1
 20 19  1  0
 21 19  1  0
 21 23  1  0
 22 21  2  0
 24 23  1  0
 24 28  1  0
 24 25  1  1
 25 26  1  0
 26 30  1  0
 26 27  2  0
 28 31  1  0
 29 28  2  0
M  END
$$$$
