FRD.pdb
     RDKit          3D

 31 31  0  0  1  0  0  0  0  0999 V2000
    6.1355  -18.0502   25.9484 N   0  0  0  0  0  0  0  0  0  0  0  0
    6.3770  -16.6491   25.6981 C   0  0  1  0  0  0  0  0  0  0  0  0
    6.8253  -16.0195   26.9927 C   0  0  0  0  0  0  0  0  0  0  0  0
    6.7778  -14.5378   26.8232 C   0  0  0  0  0  0  0  0  0  0  0  0
    7.9500  -13.7796   26.8374 C   0  0  0  0  0  0  0  0  0  0  0  0
    7.9564  -12.4111   26.6852 C   0  0  0  0  0  0  0  0  0  0  0  0
    6.7822  -11.7412   26.5111 C   0  0  0  0  0  0  0  0  0  0  0  0
    5.6018  -12.4562   26.4912 C   0  0  0  0  0  0  0  0  0  0  0  0
    5.6097  -13.8279   26.6451 C   0  0  0  0  0  0  0  0  0  0  0  0
    7.3530  -16.4347   24.5998 C   0  0  0  0  0  0  0  0  0  0  0  0
    8.4157  -17.0966   24.5279 O   0  0  0  0  0  0  0  0  0  0  0  0
    9.7539  -14.2554   17.5224 N   0  0  0  0  0  0  0  0  0  0  0  0
    8.3608  -14.2315   17.2529 C   0  0  0  0  0  0  0  0  0  0  0  0
    7.9119  -14.7534   16.1789 N   0  0  0  0  0  0  0  0  0  0  0  0
    7.4491  -13.6259   18.1787 N   0  0  0  0  0  0  0  0  0  0  0  0
    7.9249  -12.9235   19.3589 C   0  0  0  0  0  0  0  0  0  0  0  0
    8.5302  -13.9399   20.3428 C   0  0  0  0  0  0  0  0  0  0  0  0
    7.5940  -14.2127   21.4733 C   0  0  0  0  0  0  0  0  0  0  0  0
    8.0464  -15.1907   22.4948 C   0  0  2  0  0  0  0  0  0  0  0  0
    7.1549  -15.4767   23.5645 N   0  0  0  0  0  0  0  0  0  0  0  0
    9.4804  -15.0792   22.8439 C   0  0  0  0  0  0  0  0  0  0  0  0
    9.7210  -14.5047   23.9597 O   0  0  0  0  0  0  0  0  0  0  0  0
    6.9121  -14.6798   15.8828 N   0  0  0  0  0  0  0  0  0  0  0  0
   10.5863  -15.5172   22.1091 C   0  0  2  0  0  0  0  0  0  0  0  0
   11.7768  -16.0077   22.7897 C   0  0  0  0  0  0  0  0  0  0  0  0
   11.5430  -17.2029   23.6547 C   0  0  0  0  0  0  0  0  0  0  0  0
   12.7656  -17.7608   24.2781 O   0  0  0  0  0  0  0  0  0  0  0  0
   13.6245  -18.4586   23.7172 C   0  0  0  0  0  0  0  0  0  0  0  0
   12.8388  -16.3189   21.8259 O   0  0  0  0  0  0  0  0  0  0  0  0
   12.6302  -16.3088   20.5685 O   0  0  0  0  0  0  0  0  0  0  0  0
   13.0002  -17.4880   25.6372 O   0  0  0  0  0  0  0  0  0  0  0  0
  2  1  1  1
  2  3  1  0
  2 10  1  0
  3  4  1  0
  4  9  2  0
  4  5  1  0
  5  6  2  0
  6  7  1  0
  8  7  2  0
  9  8  1  0
 10 11  2  0
 10 20  1  0
 13 15  1  0
 13 12  1  0
 14 13  2  0
 16 15  1  0
 17 16  1  0
 18 17  1  0
 19 18  1  1
 20 19  1  0
 21 19  1  0
 21 23  1  0
 22 21  2  0
 24 23  1  0
 24 28  1  0
 24 25  1  1
 25 26  1  0
 26 30  1  0
 26 27  2  0
 28 31  1  0
 29 28  2  0
M  END
$$$$
