CQW.pdb
     RDKit          3D

 30 31  0  0  1  0  0  0  0  0999 V2000
    5.9440  -19.1625   20.4365 N   0  0  0  0  0  0  0  0  0  0  0  0
    6.1849  -18.3500   21.6015 C   0  0  1  0  0  0  0  0  0  0  0  0
    6.0115  -19.1694   22.8623 C   0  0  0  0  0  0  0  0  0  0  0  0
    6.0570  -18.1153   24.3454 S   0  0  0  0  0  0  0  0  0  0  0  0
    7.5165  -17.7092   21.6144 C   0  0  0  0  0  0  0  0  0  0  0  0
    8.5686  -18.3272   21.3316 O   0  0  0  0  0  0  0  0  0  0  0  0
    6.7534  -12.7608   19.0734 N   0  0  0  0  0  0  0  0  0  0  0  0
    7.9770  -13.4410   19.0613 C   0  0  0  0  0  0  0  0  0  0  0  0
    8.9715  -13.0262   18.4243 O   0  0  0  0  0  0  0  0  0  0  0  0
    8.1382  -14.7182   19.8271 C   0  0  0  0  0  0  0  0  0  0  0  0
    8.9290  -14.5110   21.0809 C   0  0  0  0  0  0  0  0  0  0  0  0
    8.9641  -15.6663   22.0069 C   0  0  2  0  0  0  0  0  0  0  0  0
    7.6389  -16.3389   21.9580 N   0  0  0  0  0  0  0  0  0  0  0  0
    9.2297  -15.3830   23.4375 C   0  0  0  0  0  0  0  0  0  0  0  0
    9.3599  -14.1675   23.7249 O   0  0  0  0  0  0  0  0  0  0  0  0
    9.3431  -16.3233   24.4396 N   0  0  0  0  0  0  0  0  0  0  0  0
   10.1887  -16.4652   25.5750 C   0  0  1  0  0  0  0  0  0  0  0  0
    9.5717  -15.6509   26.6898 C   0  0  0  0  0  0  0  0  0  0  0  0
    8.1928  -15.1940   26.4352 C   0  0  0  0  0  0  0  0  0  0  0  0
    7.1131  -15.9652   26.0737 C   0  0  0  0  0  0  0  0  0  0  0  0
    6.0346  -15.1771   25.9416 N   0  0  0  0  0  0  0  0  0  0  0  0
    6.3884  -13.9148   26.2076 C   0  0  0  0  0  0  0  0  0  0  0  0
    5.6214  -12.7482   26.1978 C   0  0  0  0  0  0  0  0  0  0  0  0
    6.2122  -11.5454   26.5070 C   0  0  0  0  0  0  0  0  0  0  0  0
    7.5806  -11.5059   26.8284 C   0  0  0  0  0  0  0  0  0  0  0  0
    8.2851  -12.6841   26.8207 C   0  0  0  0  0  0  0  0  0  0  0  0
    7.7210  -13.9031   26.5153 C   0  0  0  0  0  0  0  0  0  0  0  0
   10.6433  -17.7735   26.0012 C   0  0  0  0  0  0  0  0  0  0  0  0
   10.3242  -18.8996   25.5838 O   0  0  0  0  0  0  0  0  0  0  0  0
   11.6059  -17.8371   27.0544 O   0  0  0  0  0  0  0  0  0  0  0  0
  2  1  1  6
  2  5  1  0
  3  2  1  0
  4  3  1  0
  5  6  2  0
  8  7  1  0
  8  9  2  0
 10 11  1  0
 10  8  1  0
 12 11  1  6
 12 14  1  0
 13  5  1  0
 13 12  1  0
 14 15  2  0
 16 17  1  0
 16 14  1  0
 17 28  1  0
 17 18  1  1
 19 18  1  0
 20 19  2  0
 21 22  1  0
 21 20  1  0
 22 27  2  0
 23 24  2  0
 23 22  1  0
 24 25  1  0
 25 26  2  0
 27 19  1  0
 27 26  1  0
 28 29  2  0
 28 30  1  0
M  END
$$$$
