CQW.pdb
     RDKit          3D

 30 31  0  0  1  0  0  0  0  0999 V2000
   10.1179  -16.3804   16.6452 N   0  0  0  0  0  0  0  0  0  0  0  0
   10.7384  -16.7931   17.8781 C   0  0  1  0  0  0  0  0  0  0  0  0
   12.0360  -16.0440   18.0932 C   0  0  0  0  0  0  0  0  0  0  0  0
   13.3694  -16.7236   17.0572 S   0  0  0  0  0  0  0  0  0  0  0  0
    9.8739  -16.6237   19.0646 C   0  0  0  0  0  0  0  0  0  0  0  0
    8.8665  -15.8794   19.0683 O   0  0  0  0  0  0  0  0  0  0  0  0
    8.7228  -21.0964   23.5649 N   0  0  0  0  0  0  0  0  0  0  0  0
    8.2121  -20.7198   22.3169 C   0  0  0  0  0  0  0  0  0  0  0  0
    7.1061  -21.1241   21.8922 O   0  0  0  0  0  0  0  0  0  0  0  0
    8.9924  -19.8006   21.4282 C   0  0  0  0  0  0  0  0  0  0  0  0
    8.3368  -18.4600   21.3131 C   0  0  0  0  0  0  0  0  0  0  0  0
    9.2469  -17.2971   21.4261 C   0  0  2  0  0  0  0  0  0  0  0  0
   10.1733  -17.3197   20.2632 N   0  0  0  0  0  0  0  0  0  0  0  0
   10.1032  -17.2188   22.6335 C   0  0  0  0  0  0  0  0  0  0  0  0
   11.0376  -18.0565   22.6794 O   0  0  0  0  0  0  0  0  0  0  0  0
    9.9526  -16.3270   23.6743 N   0  0  0  0  0  0  0  0  0  0  0  0
   10.4823  -16.2425   24.9921 C   0  0  1  0  0  0  0  0  0  0  0  0
   10.0307  -14.9183   25.5655 C   0  0  0  0  0  0  0  0  0  0  0  0
    8.5695  -14.7608   25.6889 C   0  0  0  0  0  0  0  0  0  0  0  0
    7.6237  -15.7586   25.7172 C   0  0  0  0  0  0  0  0  0  0  0  0
    6.4066  -15.2071   25.8447 N   0  0  0  0  0  0  0  0  0  0  0  0
    6.5399  -13.8772   25.8989 C   0  0  0  0  0  0  0  0  0  0  0  0
    5.5671  -12.8834   26.0234 C   0  0  0  0  0  0  0  0  0  0  0  0
    5.9474  -11.5622   26.0543 C   0  0  0  0  0  0  0  0  0  0  0  0
    7.3104  -11.2291   25.9597 C   0  0  0  0  0  0  0  0  0  0  0  0
    8.2222  -12.2480   25.8377 C   0  0  0  0  0  0  0  0  0  0  0  0
    7.8715  -13.5797   25.8038 C   0  0  0  0  0  0  0  0  0  0  0  0
   10.3439  -17.3483   25.9183 C   0  0  0  0  0  0  0  0  0  0  0  0
   10.8952  -17.5384   27.0157 O   0  0  0  0  0  0  0  0  0  0  0  0
    9.4494  -18.4056   25.5693 O   0  0  0  0  0  0  0  0  0  0  0  0
  2  1  1  6
  2  5  1  0
  3  2  1  0
  4  3  1  0
  5  6  2  0
  8  7  1  0
  8  9  2  0
 10 11  1  0
 10  8  1  0
 12 11  1  1
 12 14  1  0
 13  5  1  0
 13 12  1  0
 14 15  2  0
 16 17  1  0
 16 14  1  0
 17 28  1  0
 17 18  1  1
 19 18  1  0
 20 19  2  0
 21 22  1  0
 21 20  1  0
 22 27  2  0
 23 24  2  0
 23 22  1  0
 24 25  1  0
 25 26  2  0
 27 19  1  0
 27 26  1  0
 28 29  2  0
 28 30  1  0
M  END
$$$$
