CQW.pdb
     RDKit          3D

 30 31  0  0  1  0  0  0  0  0999 V2000
    7.2085  -16.6356   19.9169 N   0  0  0  0  0  0  0  0  0  0  0  0
    8.0124  -15.9619   20.9043 C   0  0  1  0  0  0  0  0  0  0  0  0
    7.1448  -15.0907   21.7872 C   0  0  0  0  0  0  0  0  0  0  0  0
    5.7270  -14.4205   20.8634 S   0  0  0  0  0  0  0  0  0  0  0  0
    8.8063  -16.8775   21.7501 C   0  0  0  0  0  0  0  0  0  0  0  0
    8.8207  -18.1181   21.5775 O   0  0  0  0  0  0  0  0  0  0  0  0
   15.4423  -17.5628   22.2186 N   0  0  0  0  0  0  0  0  0  0  0  0
   14.1236  -17.9035   21.8947 C   0  0  0  0  0  0  0  0  0  0  0  0
   13.7791  -18.2374   20.7385 O   0  0  0  0  0  0  0  0  0  0  0  0
   13.0571  -17.8769   22.9461 C   0  0  0  0  0  0  0  0  0  0  0  0
   11.8193  -17.1929   22.4560 C   0  0  0  0  0  0  0  0  0  0  0  0
   10.6944  -17.1509   23.4184 C   0  0  2  0  0  0  0  0  0  0  0  0
    9.5936  -16.3585   22.8092 N   0  0  0  0  0  0  0  0  0  0  0  0
   10.9562  -16.5410   24.7439 C   0  0  0  0  0  0  0  0  0  0  0  0
   11.9900  -15.8311   24.8091 O   0  0  0  0  0  0  0  0  0  0  0  0
   10.1769  -16.6931   25.8712 N   0  0  0  0  0  0  0  0  0  0  0  0
   10.4490  -16.7287   27.2672 C   0  0  1  0  0  0  0  0  0  0  0  0
    9.3453  -15.9549   27.9523 C   0  0  0  0  0  0  0  0  0  0  0  0
    8.2907  -15.4497   27.0535 C   0  0  0  0  0  0  0  0  0  0  0  0
    7.3546  -16.1892   26.3694 C   0  0  0  0  0  0  0  0  0  0  0  0
    6.5698  -15.3601   25.6635 N   0  0  0  0  0  0  0  0  0  0  0  0
    6.9743  -14.1022   25.8722 C   0  0  0  0  0  0  0  0  0  0  0  0
    6.4767  -12.9037   25.3571 C   0  0  0  0  0  0  0  0  0  0  0  0
    7.0657  -11.7143   25.7170 C   0  0  0  0  0  0  0  0  0  0  0  0
    8.1613  -11.7204   26.5986 C   0  0  0  0  0  0  0  0  0  0  0  0
    8.6084  -12.9287   27.0725 C   0  0  0  0  0  0  0  0  0  0  0  0
    8.0392  -14.1354   26.7299 C   0  0  0  0  0  0  0  0  0  0  0  0
   10.7718  -17.9777   27.9273 C   0  0  0  0  0  0  0  0  0  0  0  0
   10.6425  -19.1457   27.5232 O   0  0  0  0  0  0  0  0  0  0  0  0
   11.3284  -17.9158   29.2411 O   0  0  0  0  0  0  0  0  0  0  0  0
  2  1  1  6
  2  5  1  0
  3  2  1  0
  4  3  1  0
  5  6  2  0
  8  7  1  0
  8  9  2  0
 10 11  1  0
 10  8  1  0
 12 11  1  6
 12 14  1  0
 13  5  1  0
 13 12  1  0
 14 15  2  0
 16 17  1  0
 16 14  1  0
 17 28  1  0
 17 18  1  1
 19 18  1  0
 20 19  2  0
 21 22  1  0
 21 20  1  0
 22 27  2  0
 23 24  2  0
 23 22  1  0
 24 25  1  0
 25 26  2  0
 27 19  1  0
 27 26  1  0
 28 29  2  0
 28 30  1  0
M  END
$$$$
