CQW.pdb
     RDKit          3D

 30 31  0  0  1  0  0  0  0  0999 V2000
    7.8837  -15.8340   17.1746 N   0  0  0  0  0  0  0  0  0  0  0  0
    8.9309  -15.2598   17.9802 C   0  0  1  0  0  0  0  0  0  0  0  0
    8.4920  -13.9257   18.5448 C   0  0  0  0  0  0  0  0  0  0  0  0
    8.0578  -12.7586   17.2173 S   0  0  0  0  0  0  0  0  0  0  0  0
    9.3788  -16.1341   19.0844 C   0  0  0  0  0  0  0  0  0  0  0  0
    8.6166  -16.9463   19.6574 O   0  0  0  0  0  0  0  0  0  0  0  0
   14.2493  -19.2269   19.4672 N   0  0  0  0  0  0  0  0  0  0  0  0
   14.1574  -19.1160   20.8599 C   0  0  0  0  0  0  0  0  0  0  0  0
   14.7792  -19.8742   21.6380 O   0  0  0  0  0  0  0  0  0  0  0  0
   13.2900  -18.0627   21.4776 C   0  0  0  0  0  0  0  0  0  0  0  0
   12.6389  -17.2069   20.4364 C   0  0  0  0  0  0  0  0  0  0  0  0
   11.2031  -16.9198   20.6584 C   0  0  2  0  0  0  0  0  0  0  0  0
   10.7217  -16.0723   19.5355 N   0  0  0  0  0  0  0  0  0  0  0  0
   10.8379  -16.2014   21.9025 C   0  0  0  0  0  0  0  0  0  0  0  0
   11.6094  -15.2637   22.2226 O   0  0  0  0  0  0  0  0  0  0  0  0
    9.7531  -16.4794   22.7071 N   0  0  0  0  0  0  0  0  0  0  0  0
    9.2795  -15.9641   23.9458 C   0  0  1  0  0  0  0  0  0  0  0  0
    7.8092  -15.6611   23.7650 C   0  0  0  0  0  0  0  0  0  0  0  0
    7.1593  -15.0231   24.9250 C   0  0  0  0  0  0  0  0  0  0  0  0
    6.2655  -15.5967   25.7987 C   0  0  0  0  0  0  0  0  0  0  0  0
    5.9087  -14.6893   26.7212 N   0  0  0  0  0  0  0  0  0  0  0  0
    6.5480  -13.5422   26.4669 C   0  0  0  0  0  0  0  0  0  0  0  0
    6.4983  -12.3202   27.1404 C   0  0  0  0  0  0  0  0  0  0  0  0
    7.2528  -11.2641   26.6859 C   0  0  0  0  0  0  0  0  0  0  0  0
    8.0640  -11.4282   25.5490 C   0  0  0  0  0  0  0  0  0  0  0  0
    8.0721  -12.6518   24.9267 C   0  0  0  0  0  0  0  0  0  0  0  0
    7.3275  -13.7273   25.3584 C   0  0  0  0  0  0  0  0  0  0  0  0
    9.5790  -16.6398   25.1923 C   0  0  0  0  0  0  0  0  0  0  0  0
    9.5172  -17.8484   25.4749 O   0  0  0  0  0  0  0  0  0  0  0  0
   10.0193  -15.8459   26.2948 O   0  0  0  0  0  0  0  0  0  0  0  0
  2  1  1  1
  2  5  1  0
  3  2  1  0
  4  3  1  0
  5  6  2  0
  8  7  1  0
  8  9  2  0
 10 11  1  0
 10  8  1  0
 12 11  1  6
 12 14  1  0
 13  5  1  0
 13 12  1  0
 14 15  2  0
 16 17  1  0
 16 14  1  0
 17 28  1  0
 17 18  1  6
 19 18  1  0
 20 19  2  0
 21 22  1  0
 21 20  1  0
 22 27  2  0
 23 24  2  0
 23 22  1  0
 24 25  1  0
 25 26  2  0
 27 19  1  0
 27 26  1  0
 28 29  2  0
 28 30  1  0
M  END
$$$$
