CQW.pdb
     RDKit          3D

 30 31  0  0  1  0  0  0  0  0999 V2000
    6.0470  -19.7937   21.1330 N   0  0  0  0  0  0  0  0  0  0  0  0
    6.2742  -18.5590   21.8395 C   0  0  1  0  0  0  0  0  0  0  0  0
    6.1740  -18.7790   23.3337 C   0  0  0  0  0  0  0  0  0  0  0  0
    4.6872  -19.7382   23.7608 S   0  0  0  0  0  0  0  0  0  0  0  0
    7.5711  -17.9240   21.5250 C   0  0  0  0  0  0  0  0  0  0  0  0
    8.5298  -18.5541   21.0220 O   0  0  0  0  0  0  0  0  0  0  0  0
    8.1754  -12.2402   19.4300 N   0  0  0  0  0  0  0  0  0  0  0  0
    7.9333  -13.4245   18.7235 C   0  0  0  0  0  0  0  0  0  0  0  0
    7.4538  -13.4326   17.5672 O   0  0  0  0  0  0  0  0  0  0  0  0
    8.2461  -14.7512   19.3444 C   0  0  0  0  0  0  0  0  0  0  0  0
    8.7208  -14.5991   20.7558 C   0  0  0  0  0  0  0  0  0  0  0  0
    9.0447  -15.8633   21.4558 C   0  0  2  0  0  0  0  0  0  0  0  0
    7.7675  -16.5456   21.7935 N   0  0  0  0  0  0  0  0  0  0  0  0
    9.8057  -15.7624   22.7239 C   0  0  0  0  0  0  0  0  0  0  0  0
   10.9378  -15.2282   22.6252 O   0  0  0  0  0  0  0  0  0  0  0  0
    9.3777  -16.1995   23.9597 N   0  0  0  0  0  0  0  0  0  0  0  0
    9.9628  -16.2350   25.2561 C   0  0  1  0  0  0  0  0  0  0  0  0
    8.8271  -16.3108   26.2514 C   0  0  0  0  0  0  0  0  0  0  0  0
    7.6896  -15.4167   25.9652 C   0  0  0  0  0  0  0  0  0  0  0  0
    6.4162  -15.7812   25.5958 C   0  0  0  0  0  0  0  0  0  0  0  0
    5.6726  -14.6757   25.4324 N   0  0  0  0  0  0  0  0  0  0  0  0
    6.4323  -13.6043   25.6859 C   0  0  0  0  0  0  0  0  0  0  0  0
    6.1091  -12.2466   25.6448 C   0  0  0  0  0  0  0  0  0  0  0  0
    7.0708  -11.3110   25.9465 C   0  0  0  0  0  0  0  0  0  0  0  0
    8.3669  -11.7335   26.2920 C   0  0  0  0  0  0  0  0  0  0  0  0
    8.6275  -13.0811   26.3147 C   0  0  0  0  0  0  0  0  0  0  0  0
    7.6853  -14.0410   26.0174 C   0  0  0  0  0  0  0  0  0  0  0  0
   11.0505  -17.1452   25.5532 C   0  0  0  0  0  0  0  0  0  0  0  0
   11.5633  -18.0277   24.8442 O   0  0  0  0  0  0  0  0  0  0  0  0
   11.6651  -17.0563   26.8394 O   0  0  0  0  0  0  0  0  0  0  0  0
  2  1  1  6
  2  5  1  0
  3  2  1  0
  4  3  1  0
  5  6  2  0
  8  7  1  0
  8  9  2  0
 10 11  1  0
 10  8  1  0
 12 11  1  1
 12 14  1  0
 13  5  1  0
 13 12  1  0
 14 15  2  0
 16 17  1  0
 16 14  1  0
 17 28  1  0
 17 18  1  1
 19 18  1  0
 20 19  2  0
 21 22  1  0
 21 20  1  0
 22 27  2  0
 23 24  2  0
 23 22  1  0
 24 25  1  0
 25 26  2  0
 27 19  1  0
 27 26  1  0
 28 29  2  0
 28 30  1  0
M  END
$$$$
