CQW.pdb
     RDKit          3D

 30 31  0  0  1  0  0  0  0  0999 V2000
   12.0748  -13.4150   18.9300 N   0  0  0  0  0  0  0  0  0  0  0  0
   11.8877  -14.8267   19.1475 C   0  0  1  0  0  0  0  0  0  0  0  0
   13.1420  -15.4425   19.7296 C   0  0  0  0  0  0  0  0  0  0  0  0
   13.5657  -14.6870   21.3305 S   0  0  0  0  0  0  0  0  0  0  0  0
   10.7370  -15.1469   20.0177 C   0  0  0  0  0  0  0  0  0  0  0  0
   10.2527  -14.3258   20.8302 O   0  0  0  0  0  0  0  0  0  0  0  0
    6.6079  -20.0572   18.9959 N   0  0  0  0  0  0  0  0  0  0  0  0
    6.0323  -19.0527   19.7832 C   0  0  0  0  0  0  0  0  0  0  0  0
    4.8058  -18.8034   19.7656 O   0  0  0  0  0  0  0  0  0  0  0  0
    6.8867  -18.2233   20.6919 C   0  0  0  0  0  0  0  0  0  0  0  0
    8.1000  -17.7058   19.9844 C   0  0  0  0  0  0  0  0  0  0  0  0
    8.9383  -16.7679   20.7661 C   0  0  2  0  0  0  0  0  0  0  0  0
   10.1359  -16.4296   19.9524 N   0  0  0  0  0  0  0  0  0  0  0  0
    9.4495  -17.2417   22.0743 C   0  0  0  0  0  0  0  0  0  0  0  0
   10.6954  -17.3846   22.1396 O   0  0  0  0  0  0  0  0  0  0  0  0
    8.6840  -17.5296   23.1845 N   0  0  0  0  0  0  0  0  0  0  0  0
    8.6007  -16.9900   24.4983 C   0  0  1  0  0  0  0  0  0  0  0  0
    8.6471  -15.4849   24.3615 C   0  0  0  0  0  0  0  0  0  0  0  0
    8.5402  -14.7423   25.6313 C   0  0  0  0  0  0  0  0  0  0  0  0
    9.3033  -14.9125   26.7625 C   0  0  0  0  0  0  0  0  0  0  0  0
    8.8991  -14.0415   27.7005 N   0  0  0  0  0  0  0  0  0  0  0  0
    7.8931  -13.3117   27.2057 C   0  0  0  0  0  0  0  0  0  0  0  0
    7.1497  -12.2906   27.8007 C   0  0  0  0  0  0  0  0  0  0  0  0
    6.1462  -11.6781   27.0872 C   0  0  0  0  0  0  0  0  0  0  0  0
    5.8815  -12.0882   25.7684 C   0  0  0  0  0  0  0  0  0  0  0  0
    6.6437  -13.0980   25.2356 C   0  0  0  0  0  0  0  0  0  0  0  0
    7.6548  -13.7299   25.9255 C   0  0  0  0  0  0  0  0  0  0  0  0
    7.5885  -17.4529   25.4263 C   0  0  0  0  0  0  0  0  0  0  0  0
    7.6042  -17.4821   26.6686 O   0  0  0  0  0  0  0  0  0  0  0  0
    6.3671  -17.9593   24.8864 O   0  0  0  0  0  0  0  0  0  0  0  0
  2  1  1  1
  2  5  1  0
  3  2  1  0
  4  3  1  0
  5  6  2  0
  8  7  1  0
  8  9  2  0
 10 11  1  0
 10  8  1  0
 12 11  1  6
 12 14  1  0
 13  5  1  0
 13 12  1  0
 14 15  2  0
 16 17  1  0
 16 14  1  0
 17 28  1  0
 17 18  1  6
 19 18  1  0
 20 19  2  0
 21 22  1  0
 21 20  1  0
 22 27  2  0
 23 24  2  0
 23 22  1  0
 24 25  1  0
 25 26  2  0
 27 19  1  0
 27 26  1  0
 28 29  2  0
 28 30  1  0
M  END
$$$$
