CQW.pdb
     RDKit          3D

 30 31  0  0  1  0  0  0  0  0999 V2000
    6.7036  -15.1358   19.5819 N   0  0  0  0  0  0  0  0  0  0  0  0
    7.9530  -14.8407   20.2356 C   0  0  1  0  0  0  0  0  0  0  0  0
    7.9005  -13.4737   20.8834 C   0  0  0  0  0  0  0  0  0  0  0  0
    7.7203  -12.1597   19.6370 S   0  0  0  0  0  0  0  0  0  0  0  0
    8.3474  -15.8452   21.2453 C   0  0  0  0  0  0  0  0  0  0  0  0
    7.5202  -16.5915   21.8177 O   0  0  0  0  0  0  0  0  0  0  0  0
   14.3850  -18.9043   23.7343 N   0  0  0  0  0  0  0  0  0  0  0  0
   13.5133  -18.7801   22.6457 C   0  0  0  0  0  0  0  0  0  0  0  0
   13.9175  -18.7302   21.4620 O   0  0  0  0  0  0  0  0  0  0  0  0
   12.0344  -18.6991   22.8684 C   0  0  0  0  0  0  0  0  0  0  0  0
   11.4060  -17.6473   22.0086 C   0  0  0  0  0  0  0  0  0  0  0  0
   10.1588  -17.0534   22.5423 C   0  0  2  0  0  0  0  0  0  0  0  0
    9.7121  -15.9922   21.6014 N   0  0  0  0  0  0  0  0  0  0  0  0
   10.2269  -16.4165   23.8791 C   0  0  0  0  0  0  0  0  0  0  0  0
   10.8061  -15.3027   23.9100 O   0  0  0  0  0  0  0  0  0  0  0  0
    9.7214  -16.9404   25.0502 N   0  0  0  0  0  0  0  0  0  0  0  0
    9.9778  -16.7112   26.4308 C   0  0  1  0  0  0  0  0  0  0  0  0
    8.6390  -16.4893   27.0977 C   0  0  0  0  0  0  0  0  0  0  0  0
    7.7269  -15.5842   26.3738 C   0  0  0  0  0  0  0  0  0  0  0  0
    6.6850  -15.9369   25.5486 C   0  0  0  0  0  0  0  0  0  0  0  0
    6.0947  -14.8238   25.0857 N   0  0  0  0  0  0  0  0  0  0  0  0
    6.7283  -13.7589   25.5896 C   0  0  0  0  0  0  0  0  0  0  0  0
    6.4856  -12.3975   25.3966 C   0  0  0  0  0  0  0  0  0  0  0  0
    7.2828  -11.4705   26.0262 C   0  0  0  0  0  0  0  0  0  0  0  0
    8.3319  -11.9054   26.8556 C   0  0  0  0  0  0  0  0  0  0  0  0
    8.5243  -13.2561   27.0072 C   0  0  0  0  0  0  0  0  0  0  0  0
    7.7426  -14.2076   26.3898 C   0  0  0  0  0  0  0  0  0  0  0  0
   10.8542  -17.5911   27.1774 C   0  0  0  0  0  0  0  0  0  0  0  0
   11.4297  -18.6316   26.8164 O   0  0  0  0  0  0  0  0  0  0  0  0
   11.1362  -17.2581   28.5374 O   0  0  0  0  0  0  0  0  0  0  0  0
  2  1  1  1
  2  5  1  0
  3  2  1  0
  4  3  1  0
  5  6  2  0
  8  7  1  0
  8  9  2  0
 10 11  1  0
 10  8  1  0
 12 11  1  6
 12 14  1  0
 13  5  1  0
 13 12  1  0
 14 15  2  0
 16 17  1  0
 16 14  1  0
 17 28  1  0
 17 18  1  1
 19 18  1  0
 20 19  2  0
 21 22  1  0
 21 20  1  0
 22 27  2  0
 23 24  2  0
 23 22  1  0
 24 25  1  0
 25 26  2  0
 27 19  1  0
 27 26  1  0
 28 29  2  0
 28 30  1  0
M  END
$$$$
