CQW.pdb
     RDKit          3D

 30 31  0  0  1  0  0  0  0  0999 V2000
    9.4964  -13.4832   19.0751 N   0  0  0  0  0  0  0  0  0  0  0  0
    8.3719  -13.7114   19.9461 C   0  0  1  0  0  0  0  0  0  0  0  0
    7.0903  -13.7911   19.1447 C   0  0  0  0  0  0  0  0  0  0  0  0
    7.4166  -13.6308   17.3612 S   0  0  0  0  0  0  0  0  0  0  0  0
    8.5027  -14.9241   20.7805 C   0  0  0  0  0  0  0  0  0  0  0  0
    7.5711  -15.3572   21.4971 O   0  0  0  0  0  0  0  0  0  0  0  0
   12.5105  -19.5381   19.6877 N   0  0  0  0  0  0  0  0  0  0  0  0
   12.1327  -19.8782   20.9922 C   0  0  0  0  0  0  0  0  0  0  0  0
   12.5109  -20.9335   21.5491 O   0  0  0  0  0  0  0  0  0  0  0  0
   11.2412  -18.9691   21.7811 C   0  0  0  0  0  0  0  0  0  0  0  0
   10.8577  -17.7559   20.9928 C   0  0  0  0  0  0  0  0  0  0  0  0
    9.9128  -16.8350   21.6654 C   0  0  2  0  0  0  0  0  0  0  0  0
    9.7221  -15.6477   20.7908 N   0  0  0  0  0  0  0  0  0  0  0  0
   10.3061  -16.3087   22.9943 C   0  0  0  0  0  0  0  0  0  0  0  0
   11.0663  -15.3095   22.9682 O   0  0  0  0  0  0  0  0  0  0  0  0
    9.9145  -16.8197   24.2136 N   0  0  0  0  0  0  0  0  0  0  0  0
   10.1842  -16.4727   25.5668 C   0  0  1  0  0  0  0  0  0  0  0  0
    9.8726  -15.0006   25.7159 C   0  0  0  0  0  0  0  0  0  0  0  0
    8.4356  -14.6704   25.7503 C   0  0  0  0  0  0  0  0  0  0  0  0
    7.3809  -15.5124   25.4865 C   0  0  0  0  0  0  0  0  0  0  0  0
    6.2311  -14.8348   25.6295 N   0  0  0  0  0  0  0  0  0  0  0  0
    6.5142  -13.5749   25.9785 C   0  0  0  0  0  0  0  0  0  0  0  0
    5.6582  -12.5017   26.2335 C   0  0  0  0  0  0  0  0  0  0  0  0
    6.1866  -11.2797   26.5781 C   0  0  0  0  0  0  0  0  0  0  0  0
    7.5815  -11.1266   26.6689 C   0  0  0  0  0  0  0  0  0  0  0  0
    8.3741  -12.2162   26.4060 C   0  0  0  0  0  0  0  0  0  0  0  0
    7.8740  -13.4518   26.0586 C   0  0  0  0  0  0  0  0  0  0  0  0
    9.6739  -17.2823   26.6549 C   0  0  0  0  0  0  0  0  0  0  0  0
    8.8578  -18.2192   26.6324 O   0  0  0  0  0  0  0  0  0  0  0  0
   10.1493  -17.0075   27.9734 O   0  0  0  0  0  0  0  0  0  0  0  0
  2  1  1  6
  2  5  1  0
  3  2  1  0
  4  3  1  0
  5  6  2  0
  8  7  1  0
  8  9  2  0
 10 11  1  0
 10  8  1  0
 12 11  1  6
 12 14  1  0
 13  5  1  0
 13 12  1  0
 14 15  2  0
 16 17  1  0
 16 14  1  0
 17 28  1  0
 17 18  1  1
 19 18  1  0
 20 19  2  0
 21 22  1  0
 21 20  1  0
 22 27  2  0
 23 24  2  0
 23 22  1  0
 24 25  1  0
 25 26  2  0
 27 19  1  0
 27 26  1  0
 28 29  2  0
 28 30  1  0
M  END
$$$$
