CQW.pdb
     RDKit          3D

 30 31  0  0  1  0  0  0  0  0999 V2000
    6.3025  -20.0841   21.7391 N   0  0  0  0  0  0  0  0  0  0  0  0
    6.4012  -18.8795   22.5231 C   0  0  1  0  0  0  0  0  0  0  0  0
    6.8785  -19.1982   23.9237 C   0  0  0  0  0  0  0  0  0  0  0  0
    5.4768  -19.4838   25.0491 S   0  0  0  0  0  0  0  0  0  0  0  0
    7.2828  -17.8535   21.9281 C   0  0  0  0  0  0  0  0  0  0  0  0
    8.2635  -18.1403   21.2035 O   0  0  0  0  0  0  0  0  0  0  0  0
    7.0853  -12.9653   18.2720 N   0  0  0  0  0  0  0  0  0  0  0  0
    8.0403  -13.3080   19.2368 C   0  0  0  0  0  0  0  0  0  0  0  0
    9.1448  -13.8167   18.9397 O   0  0  0  0  0  0  0  0  0  0  0  0
    7.7633  -13.0728   20.6899 C   0  0  0  0  0  0  0  0  0  0  0  0
    7.0532  -14.2358   21.3091 C   0  0  0  0  0  0  0  0  0  0  0  0
    7.8990  -15.4184   21.5912 C   0  0  2  0  0  0  0  0  0  0  0  0
    7.0329  -16.4790   22.1709 N   0  0  0  0  0  0  0  0  0  0  0  0
    9.0227  -15.2394   22.5412 C   0  0  0  0  0  0  0  0  0  0  0  0
    9.9284  -14.4600   22.1548 O   0  0  0  0  0  0  0  0  0  0  0  0
    9.1435  -15.8467   23.7733 N   0  0  0  0  0  0  0  0  0  0  0  0
   10.1680  -15.8935   24.7594 C   0  0  1  0  0  0  0  0  0  0  0  0
    9.5083  -15.6312   26.0945 C   0  0  0  0  0  0  0  0  0  0  0  0
    8.1060  -15.1812   26.0165 C   0  0  0  0  0  0  0  0  0  0  0  0
    7.0020  -15.9438   25.7155 C   0  0  0  0  0  0  0  0  0  0  0  0
    5.9080  -15.1667   25.7512 N   0  0  0  0  0  0  0  0  0  0  0  0
    6.2755  -13.9199   26.0670 C   0  0  0  0  0  0  0  0  0  0  0  0
    5.5005  -12.7685   26.2183 C   0  0  0  0  0  0  0  0  0  0  0  0
    6.1087  -11.5800   26.5482 C   0  0  0  0  0  0  0  0  0  0  0  0
    7.5028  -11.5396   26.7283 C   0  0  0  0  0  0  0  0  0  0  0  0
    8.2139  -12.7024   26.5654 C   0  0  0  0  0  0  0  0  0  0  0  0
    7.6327  -13.9070   26.2353 C   0  0  0  0  0  0  0  0  0  0  0  0
   11.1162  -16.9888   24.7910 C   0  0  0  0  0  0  0  0  0  0  0  0
   11.1651  -18.0169   24.0946 O   0  0  0  0  0  0  0  0  0  0  0  0
   12.1774  -16.9278   25.7450 O   0  0  0  0  0  0  0  0  0  0  0  0
  2  1  1  6
  2  5  1  0
  3  2  1  0
  4  3  1  0
  5  6  2  0
  8  7  1  0
  8  9  2  0
 10 11  1  0
 10  8  1  0
 12 11  1  1
 12 14  1  0
 13  5  1  0
 13 12  1  0
 14 15  2  0
 16 17  1  0
 16 14  1  0
 17 28  1  0
 17 18  1  1
 19 18  1  0
 20 19  2  0
 21 22  1  0
 21 20  1  0
 22 27  2  0
 23 24  2  0
 23 22  1  0
 24 25  1  0
 25 26  2  0
 27 19  1  0
 27 26  1  0
 28 29  2  0
 28 30  1  0
M  END
$$$$
