CQW.pdb
     RDKit          3D

 30 31  0  0  1  0  0  0  0  0999 V2000
    7.2369  -20.7124   21.6320 N   0  0  0  0  0  0  0  0  0  0  0  0
    6.6571  -19.4194   21.8913 C   0  0  1  0  0  0  0  0  0  0  0  0
    6.2498  -19.3048   23.3447 C   0  0  0  0  0  0  0  0  0  0  0  0
    7.5494  -19.9455   24.4463 S   0  0  0  0  0  0  0  0  0  0  0  0
    7.5431  -18.2896   21.5416 C   0  0  0  0  0  0  0  0  0  0  0  0
    8.7470  -18.4432   21.2319 O   0  0  0  0  0  0  0  0  0  0  0  0
    7.3580  -14.5754   18.0931 N   0  0  0  0  0  0  0  0  0  0  0  0
    8.0197  -13.6311   18.8871 C   0  0  0  0  0  0  0  0  0  0  0  0
    8.9555  -12.9227   18.4518 O   0  0  0  0  0  0  0  0  0  0  0  0
    7.6206  -13.4350   20.3174 C   0  0  0  0  0  0  0  0  0  0  0  0
    6.9657  -14.6587   20.8778 C   0  0  0  0  0  0  0  0  0  0  0  0
    7.8643  -15.8153   21.0966 C   0  0  2  0  0  0  0  0  0  0  0  0
    7.0370  -16.9650   21.5490 N   0  0  0  0  0  0  0  0  0  0  0  0
    8.9396  -15.6596   22.1051 C   0  0  0  0  0  0  0  0  0  0  0  0
    9.9700  -15.0681   21.6985 O   0  0  0  0  0  0  0  0  0  0  0  0
    8.8938  -16.1035   23.4097 N   0  0  0  0  0  0  0  0  0  0  0  0
    9.7472  -15.9540   24.5383 C   0  0  1  0  0  0  0  0  0  0  0  0
    9.5664  -14.5408   25.0448 C   0  0  0  0  0  0  0  0  0  0  0  0
    8.2065  -14.2194   25.5165 C   0  0  0  0  0  0  0  0  0  0  0  0
    7.1247  -15.0660   25.5790 C   0  0  0  0  0  0  0  0  0  0  0  0
    6.0700  -14.3961   26.0695 N   0  0  0  0  0  0  0  0  0  0  0  0
    6.4409  -13.1367   26.3257 C   0  0  0  0  0  0  0  0  0  0  0  0
    5.6987  -12.0703   26.8368 C   0  0  0  0  0  0  0  0  0  0  0  0
    6.3021  -10.8473   27.0140 C   0  0  0  0  0  0  0  0  0  0  0  0
    7.6581  -10.6864   26.6781 C   0  0  0  0  0  0  0  0  0  0  0  0
    8.3376  -11.7696   26.1786 C   0  0  0  0  0  0  0  0  0  0  0  0
    7.7604  -13.0060   25.9900 C   0  0  0  0  0  0  0  0  0  0  0  0
    9.7599  -16.9467   25.5939 C   0  0  0  0  0  0  0  0  0  0  0  0
   10.4507  -16.9996   26.6256 O   0  0  0  0  0  0  0  0  0  0  0  0
    8.8607  -18.0510   25.4849 O   0  0  0  0  0  0  0  0  0  0  0  0
  2  1  1  1
  2  5  1  0
  3  2  1  0
  4  3  1  0
  5  6  2  0
  8  7  1  0
  8  9  2  0
 10 11  1  0
 10  8  1  0
 12 11  1  1
 12 14  1  0
 13  5  1  0
 13 12  1  0
 14 15  2  0
 16 17  1  0
 16 14  1  0
 17 28  1  0
 17 18  1  1
 19 18  1  0
 20 19  2  0
 21 22  1  0
 21 20  1  0
 22 27  2  0
 23 24  2  0
 23 22  1  0
 24 25  1  0
 25 26  2  0
 27 19  1  0
 27 26  1  0
 28 29  2  0
 28 30  1  0
M  END
$$$$
