CQW.pdb
     RDKit          3D

 30 31  0  0  1  0  0  0  0  0999 V2000
    7.3760  -15.6693   19.2252 N   0  0  0  0  0  0  0  0  0  0  0  0
    8.3190  -15.0936   20.1496 C   0  0  1  0  0  0  0  0  0  0  0  0
    7.7170  -13.8856   20.8349 C   0  0  0  0  0  0  0  0  0  0  0  0
    7.6989  -12.4405   19.7283 S   0  0  0  0  0  0  0  0  0  0  0  0
    8.8051  -16.0436   21.1720 C   0  0  0  0  0  0  0  0  0  0  0  0
    8.0724  -16.9206   21.6848 O   0  0  0  0  0  0  0  0  0  0  0  0
   15.0946  -18.5427   22.2336 N   0  0  0  0  0  0  0  0  0  0  0  0
   13.7931  -19.0506   22.3241 C   0  0  0  0  0  0  0  0  0  0  0  0
   13.4500  -20.1241   21.7793 O   0  0  0  0  0  0  0  0  0  0  0  0
   12.7443  -18.3068   23.0924 C   0  0  0  0  0  0  0  0  0  0  0  0
   12.0848  -17.2601   22.2500 C   0  0  0  0  0  0  0  0  0  0  0  0
   10.6853  -16.9411   22.6148 C   0  0  2  0  0  0  0  0  0  0  0  0
   10.1522  -15.9830   21.6105 N   0  0  0  0  0  0  0  0  0  0  0  0
   10.4532  -16.3198   23.9405 C   0  0  0  0  0  0  0  0  0  0  0  0
   10.8691  -15.1406   24.0567 O   0  0  0  0  0  0  0  0  0  0  0  0
    9.8384  -16.9215   25.0181 N   0  0  0  0  0  0  0  0  0  0  0  0
    9.8815  -16.7172   26.4255 C   0  0  1  0  0  0  0  0  0  0  0  0
    8.4495  -16.6345   26.9039 C   0  0  0  0  0  0  0  0  0  0  0  0
    7.5990  -15.6888   26.1574 C   0  0  0  0  0  0  0  0  0  0  0  0
    6.6483  -15.9917   25.2111 C   0  0  0  0  0  0  0  0  0  0  0  0
    6.0892  -14.8540   24.7698 N   0  0  0  0  0  0  0  0  0  0  0  0
    6.6542  -13.8216   25.4057 C   0  0  0  0  0  0  0  0  0  0  0  0
    6.4108  -12.4522   25.2836 C   0  0  0  0  0  0  0  0  0  0  0  0
    7.1284  -11.5648   26.0510 C   0  0  0  0  0  0  0  0  0  0  0  0
    8.0978  -12.0476   26.9480 C   0  0  0  0  0  0  0  0  0  0  0  0
    8.2949  -13.4040   27.0248 C   0  0  0  0  0  0  0  0  0  0  0  0
    7.5921  -14.3166   26.2694 C   0  0  0  0  0  0  0  0  0  0  0  0
   10.7234  -17.5423   27.2683 C   0  0  0  0  0  0  0  0  0  0  0  0
   11.4462  -18.5071   26.9667 O   0  0  0  0  0  0  0  0  0  0  0  0
   10.7701  -17.2440   28.6643 O   0  0  0  0  0  0  0  0  0  0  0  0
  2  1  1  1
  2  5  1  0
  3  2  1  0
  4  3  1  0
  5  6  2  0
  8  7  1  0
  8  9  2  0
 10 11  1  0
 10  8  1  0
 12 11  1  6
 12 14  1  0
 13  5  1  0
 13 12  1  0
 14 15  2  0
 16 17  1  0
 16 14  1  0
 17 28  1  0
 17 18  1  1
 19 18  1  0
 20 19  2  0
 21 22  1  0
 21 20  1  0
 22 27  2  0
 23 24  2  0
 23 22  1  0
 24 25  1  0
 25 26  2  0
 27 19  1  0
 27 26  1  0
 28 29  2  0
 28 30  1  0
M  END
$$$$
