CQW.pdb
     RDKit          3D

 30 31  0  0  1  0  0  0  0  0999 V2000
    7.0070  -20.7937   20.9102 N   0  0  0  0  0  0  0  0  0  0  0  0
    7.1488  -19.7465   21.8892 C   0  0  1  0  0  0  0  0  0  0  0  0
    7.5304  -20.3280   23.2336 C   0  0  0  0  0  0  0  0  0  0  0  0
    7.0829  -19.2006   24.5907 S   0  0  0  0  0  0  0  0  0  0  0  0
    8.1290  -18.7073   21.5104 C   0  0  0  0  0  0  0  0  0  0  0  0
    9.2355  -18.9773   20.9892 O   0  0  0  0  0  0  0  0  0  0  0  0
    7.6983  -11.8445   19.5490 N   0  0  0  0  0  0  0  0  0  0  0  0
    7.9171  -13.1817   19.1968 C   0  0  0  0  0  0  0  0  0  0  0  0
    7.4362  -13.6921   18.1599 O   0  0  0  0  0  0  0  0  0  0  0  0
    8.7520  -14.0658   20.0714 C   0  0  0  0  0  0  0  0  0  0  0  0
    7.9744  -15.2476   20.5602 C   0  0  0  0  0  0  0  0  0  0  0  0
    8.7600  -16.2618   21.3002 C   0  0  2  0  0  0  0  0  0  0  0  0
    7.8319  -17.3391   21.7350 N   0  0  0  0  0  0  0  0  0  0  0  0
    9.4708  -15.8130   22.5212 C   0  0  0  0  0  0  0  0  0  0  0  0
   10.2783  -14.8666   22.3503 O   0  0  0  0  0  0  0  0  0  0  0  0
    9.3177  -16.3418   23.7854 N   0  0  0  0  0  0  0  0  0  0  0  0
    9.9817  -16.1472   25.0286 C   0  0  1  0  0  0  0  0  0  0  0  0
    8.9381  -16.2886   26.1136 C   0  0  0  0  0  0  0  0  0  0  0  0
    7.7408  -15.4458   25.9373 C   0  0  0  0  0  0  0  0  0  0  0  0
    6.4618  -15.8645   25.6543 C   0  0  0  0  0  0  0  0  0  0  0  0
    5.6559  -14.7938   25.5768 N   0  0  0  0  0  0  0  0  0  0  0  0
    6.3805  -13.6921   25.8016 C   0  0  0  0  0  0  0  0  0  0  0  0
    5.9905  -12.3517   25.8215 C   0  0  0  0  0  0  0  0  0  0  0  0
    6.9265  -11.3767   26.0757 C   0  0  0  0  0  0  0  0  0  0  0  0
    8.2637  -11.7421   26.3119 C   0  0  0  0  0  0  0  0  0  0  0  0
    8.5895  -13.0752   26.2788 C   0  0  0  0  0  0  0  0  0  0  0  0
    7.6745  -14.0736   26.0268 C   0  0  0  0  0  0  0  0  0  0  0  0
   11.2181  -16.8425   25.3248 C   0  0  0  0  0  0  0  0  0  0  0  0
   11.9562  -16.7600   26.3211 O   0  0  0  0  0  0  0  0  0  0  0  0
   11.7069  -17.7779   24.3625 O   0  0  0  0  0  0  0  0  0  0  0  0
  2  1  1  6
  2  5  1  0
  3  2  1  0
  4  3  1  0
  5  6  2  0
  8  7  1  0
  8  9  2  0
 10 11  1  0
 10  8  1  0
 12 11  1  1
 12 14  1  0
 13  5  1  0
 13 12  1  0
 14 15  2  0
 16 17  1  0
 16 14  1  0
 17 28  1  0
 17 18  1  1
 19 18  1  0
 20 19  2  0
 21 22  1  0
 21 20  1  0
 22 27  2  0
 23 24  2  0
 23 22  1  0
 24 25  1  0
 25 26  2  0
 27 19  1  0
 27 26  1  0
 28 29  2  0
 28 30  1  0
M  END
$$$$
