CQW.pdb
     RDKit          3D

 30 31  0  0  1  0  0  0  0  0999 V2000
    7.2140  -15.9274   19.2730 N   0  0  0  0  0  0  0  0  0  0  0  0
    7.8729  -15.2655   20.3698 C   0  0  1  0  0  0  0  0  0  0  0  0
    6.9733  -14.2022   20.9626 C   0  0  0  0  0  0  0  0  0  0  0  0
    7.8256  -13.2750   22.2766 S   0  0  0  0  0  0  0  0  0  0  0  0
    8.3143  -16.1842   21.4399 C   0  0  0  0  0  0  0  0  0  0  0  0
    7.5651  -17.0573   21.9352 O   0  0  0  0  0  0  0  0  0  0  0  0
   14.3470  -19.7102   23.4301 N   0  0  0  0  0  0  0  0  0  0  0  0
   13.3367  -19.1966   22.6081 C   0  0  0  0  0  0  0  0  0  0  0  0
   13.4630  -19.1005   21.3664 O   0  0  0  0  0  0  0  0  0  0  0  0
   12.0425  -18.7331   23.2028 C   0  0  0  0  0  0  0  0  0  0  0  0
   11.4177  -17.6488   22.3817 C   0  0  0  0  0  0  0  0  0  0  0  0
   10.1592  -17.0875   22.9243 C   0  0  2  0  0  0  0  0  0  0  0  0
    9.6355  -16.0964   21.9474 N   0  0  0  0  0  0  0  0  0  0  0  0
   10.2351  -16.3822   24.2260 C   0  0  0  0  0  0  0  0  0  0  0  0
   10.8555  -15.2906   24.2054 O   0  0  0  0  0  0  0  0  0  0  0  0
    9.6958  -16.8228   25.4161 N   0  0  0  0  0  0  0  0  0  0  0  0
   10.0462  -16.6568   26.7850 C   0  0  1  0  0  0  0  0  0  0  0  0
    8.7753  -16.3105   27.5274 C   0  0  0  0  0  0  0  0  0  0  0  0
    7.7655  -15.5915   26.7282 C   0  0  0  0  0  0  0  0  0  0  0  0
    6.7621  -16.1407   25.9649 C   0  0  0  0  0  0  0  0  0  0  0  0
    6.0515  -15.1536   25.3971 N   0  0  0  0  0  0  0  0  0  0  0  0
    6.5696  -13.9789   25.7726 C   0  0  0  0  0  0  0  0  0  0  0  0
    6.1797  -12.6802   25.4400 C   0  0  0  0  0  0  0  0  0  0  0  0
    6.8763  -11.6107   25.9522 C   0  0  0  0  0  0  0  0  0  0  0  0
    7.9721  -11.8388   26.8034 C   0  0  0  0  0  0  0  0  0  0  0  0
    8.3106  -13.1369   27.0947 C   0  0  0  0  0  0  0  0  0  0  0  0
    7.6322  -14.2276   26.5970 C   0  0  0  0  0  0  0  0  0  0  0  0
   10.8602  -17.6434   27.4661 C   0  0  0  0  0  0  0  0  0  0  0  0
   11.2602  -18.7519   27.0715 O   0  0  0  0  0  0  0  0  0  0  0  0
   11.3000  -17.3478   28.7924 O   0  0  0  0  0  0  0  0  0  0  0  0
  2  1  1  6
  2  5  1  0
  3  2  1  0
  4  3  1  0
  5  6  2  0
  8  7  1  0
  8  9  2  0
 10 11  1  0
 10  8  1  0
 12 11  1  6
 12 14  1  0
 13  5  1  0
 13 12  1  0
 14 15  2  0
 16 17  1  0
 16 14  1  0
 17 28  1  0
 17 18  1  1
 19 18  1  0
 20 19  2  0
 21 22  1  0
 21 20  1  0
 22 27  2  0
 23 24  2  0
 23 22  1  0
 24 25  1  0
 25 26  2  0
 27 19  1  0
 27 26  1  0
 28 29  2  0
 28 30  1  0
M  END
$$$$
