CQW.pdb
     RDKit          3D

 30 31  0  0  1  0  0  0  0  0999 V2000
    7.3955  -14.7240   18.4854 N   0  0  0  0  0  0  0  0  0  0  0  0
    8.5046  -14.5121   19.3800 C   0  0  1  0  0  0  0  0  0  0  0  0
    8.4089  -13.1465   20.0260 C   0  0  0  0  0  0  0  0  0  0  0  0
    8.6184  -11.8198   18.7977 S   0  0  0  0  0  0  0  0  0  0  0  0
    8.6253  -15.5429   20.4320 C   0  0  0  0  0  0  0  0  0  0  0  0
    7.6326  -16.1215   20.9308 O   0  0  0  0  0  0  0  0  0  0  0  0
   10.2301  -20.5475   21.4687 N   0  0  0  0  0  0  0  0  0  0  0  0
   10.2910  -19.9022   20.2278 C   0  0  0  0  0  0  0  0  0  0  0  0
    9.8934  -20.4395   19.1694 O   0  0  0  0  0  0  0  0  0  0  0  0
   10.8487  -18.5159   20.1245 C   0  0  0  0  0  0  0  0  0  0  0  0
   11.0986  -17.9221   21.4755 C   0  0  0  0  0  0  0  0  0  0  0  0
   10.0690  -16.9692   21.9500 C   0  0  2  0  0  0  0  0  0  0  0  0
    9.9055  -15.9123   20.9170 N   0  0  0  0  0  0  0  0  0  0  0  0
   10.3339  -16.2614   23.2252 C   0  0  0  0  0  0  0  0  0  0  0  0
   11.1280  -15.2921   23.1418 O   0  0  0  0  0  0  0  0  0  0  0  0
    9.7937  -16.5798   24.4532 N   0  0  0  0  0  0  0  0  0  0  0  0
   10.2221  -16.4090   25.7992 C   0  0  1  0  0  0  0  0  0  0  0  0
    9.6594  -15.0896   26.2777 C   0  0  0  0  0  0  0  0  0  0  0  0
    8.1945  -14.9616   26.1647 C   0  0  0  0  0  0  0  0  0  0  0  0
    7.2840  -15.9705   25.9546 C   0  0  0  0  0  0  0  0  0  0  0  0
    6.0486  -15.4469   25.9178 N   0  0  0  0  0  0  0  0  0  0  0  0
    6.1357  -14.1243   26.0980 C   0  0  0  0  0  0  0  0  0  0  0  0
    5.1299  -13.1567   26.1343 C   0  0  0  0  0  0  0  0  0  0  0  0
    5.4646  -11.8376   26.3326 C   0  0  0  0  0  0  0  0  0  0  0  0
    6.8149  -11.4804   26.4958 C   0  0  0  0  0  0  0  0  0  0  0  0
    7.7608  -12.4741   26.4497 C   0  0  0  0  0  0  0  0  0  0  0  0
    7.4561  -13.8030   26.2526 C   0  0  0  0  0  0  0  0  0  0  0  0
   10.0776  -17.4804   26.7641 C   0  0  0  0  0  0  0  0  0  0  0  0
    9.4975  -18.5740   26.6552 O   0  0  0  0  0  0  0  0  0  0  0  0
   10.6753  -17.3081   28.0498 O   0  0  0  0  0  0  0  0  0  0  0  0
  2  1  1  1
  2  5  1  0
  3  2  1  0
  4  3  1  0
  5  6  2  0
  8  7  1  0
  8  9  2  0
 10 11  1  0
 10  8  1  0
 12 11  1  6
 12 14  1  0
 13  5  1  0
 13 12  1  0
 14 15  2  0
 16 17  1  0
 16 14  1  0
 17 28  1  0
 17 18  1  1
 19 18  1  0
 20 19  2  0
 21 22  1  0
 21 20  1  0
 22 27  2  0
 23 24  2  0
 23 22  1  0
 24 25  1  0
 25 26  2  0
 27 19  1  0
 27 26  1  0
 28 29  2  0
 28 30  1  0
M  END
$$$$
