CQW.pdb
     RDKit          3D

 30 31  0  0  1  0  0  0  0  0999 V2000
    7.6221  -15.6609   17.6836 N   0  0  0  0  0  0  0  0  0  0  0  0
    8.7874  -15.4494   18.5037 C   0  0  1  0  0  0  0  0  0  0  0  0
    8.9572  -13.9771   18.8111 C   0  0  0  0  0  0  0  0  0  0  0  0
    7.5467  -13.3358   19.7663 S   0  0  0  0  0  0  0  0  0  0  0  0
    8.7710  -16.2139   19.7684 C   0  0  0  0  0  0  0  0  0  0  0  0
    7.7134  -16.4877   20.3810 O   0  0  0  0  0  0  0  0  0  0  0  0
   12.2593  -21.0164   20.5753 N   0  0  0  0  0  0  0  0  0  0  0  0
   11.8876  -20.8645   21.9166 C   0  0  0  0  0  0  0  0  0  0  0  0
   12.1997  -21.6948   22.7998 O   0  0  0  0  0  0  0  0  0  0  0  0
   11.0839  -19.6761   22.3471 C   0  0  0  0  0  0  0  0  0  0  0  0
   10.7982  -18.7605   21.1981 C   0  0  0  0  0  0  0  0  0  0  0  0
   10.0048  -17.5548   21.5299 C   0  0  2  0  0  0  0  0  0  0  0  0
    9.9883  -16.6687   20.3359 N   0  0  0  0  0  0  0  0  0  0  0  0
   10.4794  -16.7177   22.6575 C   0  0  0  0  0  0  0  0  0  0  0  0
   11.5567  -16.1065   22.4510 O   0  0  0  0  0  0  0  0  0  0  0  0
    9.8483  -16.5687   23.8744 N   0  0  0  0  0  0  0  0  0  0  0  0
   10.2777  -16.1743   25.1722 C   0  0  1  0  0  0  0  0  0  0  0  0
    9.9053  -14.7182   25.3372 C   0  0  0  0  0  0  0  0  0  0  0  0
    8.4573  -14.4543   25.4315 C   0  0  0  0  0  0  0  0  0  0  0  0
    7.4329  -15.3506   25.2361 C   0  0  0  0  0  0  0  0  0  0  0  0
    6.2599  -14.7238   25.4176 N   0  0  0  0  0  0  0  0  0  0  0  0
    6.4985  -13.4440   25.7249 C   0  0  0  0  0  0  0  0  0  0  0  0
    5.6050  -12.4058   25.9958 C   0  0  0  0  0  0  0  0  0  0  0  0
    6.0899  -11.1526   26.2882 C   0  0  0  0  0  0  0  0  0  0  0  0
    7.4787  -10.9327   26.3102 C   0  0  0  0  0  0  0  0  0  0  0  0
    8.3093  -11.9903   26.0347 C   0  0  0  0  0  0  0  0  0  0  0  0
    7.8532  -13.2560   25.7386 C   0  0  0  0  0  0  0  0  0  0  0  0
    9.9660  -16.9835   26.3332 C   0  0  0  0  0  0  0  0  0  0  0  0
   10.3057  -16.8343   27.5193 O   0  0  0  0  0  0  0  0  0  0  0  0
    9.1452  -18.1369   26.1442 O   0  0  0  0  0  0  0  0  0  0  0  0
  2  1  1  1
  2  5  1  0
  3  2  1  0
  4  3  1  0
  5  6  2  0
  8  7  1  0
  8  9  2  0
 10 11  1  0
 10  8  1  0
 12 11  1  6
 12 14  1  0
 13  5  1  0
 13 12  1  0
 14 15  2  0
 16 17  1  0
 16 14  1  0
 17 28  1  0
 17 18  1  1
 19 18  1  0
 20 19  2  0
 21 22  1  0
 21 20  1  0
 22 27  2  0
 23 24  2  0
 23 22  1  0
 24 25  1  0
 25 26  2  0
 27 19  1  0
 27 26  1  0
 28 29  2  0
 28 30  1  0
M  END
$$$$
