YLQ.pdb
     RDKit          3D

 30 30  0  0  1  0  0  0  0  0999 V2000
    6.6194  -18.4658   16.4205 O   0  0  0  0  0  0  0  0  0  0  0  0
    7.1225  -18.1582   17.6910 C   0  0  0  0  0  0  0  0  0  0  0  0
    6.2872  -18.0702   18.7883 C   0  0  0  0  0  0  0  0  0  0  0  0
    6.8328  -17.7639   20.0194 C   0  0  0  0  0  0  0  0  0  0  0  0
    8.1734  -17.5415   20.2056 C   0  0  0  0  0  0  0  0  0  0  0  0
    8.7344  -17.2142   21.5383 C   0  0  0  0  0  0  0  0  0  0  0  0
    8.6085  -15.6933   21.6929 C   0  0  2  0  0  0  0  0  0  0  0  0
    9.4414  -15.1045   20.6865 N   0  0  0  0  0  0  0  0  0  0  0  0
    8.9851  -15.2747   23.0654 C   0  0  0  0  0  0  0  0  0  0  0  0
   10.1754  -15.2654   23.4387 O   0  0  0  0  0  0  0  0  0  0  0  0
    8.9966  -17.6326   19.1003 C   0  0  0  0  0  0  0  0  0  0  0  0
    8.4720  -17.9394   17.8510 C   0  0  0  0  0  0  0  0  0  0  0  0
    7.8191  -11.4387   25.8736 C   0  0  0  0  0  0  0  0  0  0  0  0
    6.8267  -12.4804   25.5380 C   0  0  2  0  0  0  0  0  0  0  0  0
    5.5026  -12.0908   26.2422 C   0  0  0  0  0  0  0  0  0  0  0  0
    7.0873  -13.8753   25.8903 C   0  0  0  0  0  0  0  0  0  0  0  0
    8.2838  -14.6012   25.4169 C   0  0  2  0  0  0  0  0  0  0  0  0
    7.9744  -14.8784   23.9680 N   0  0  0  0  0  0  0  0  0  0  0  0
    8.5660  -15.9194   25.9597 C   0  0  0  0  0  0  0  0  0  0  0  0
    7.7935  -16.8815   25.7219 O   0  0  0  0  0  0  0  0  0  0  0  0
   12.2392  -19.5530   24.1697 N   0  0  0  0  0  0  0  0  0  0  0  0
   12.9573  -18.7989   25.1359 C   0  0  0  0  0  0  0  0  0  0  0  0
   14.1996  -18.7383   25.0237 O   0  0  0  0  0  0  0  0  0  0  0  0
   12.1840  -18.1376   26.2106 C   0  0  0  0  0  0  0  0  0  0  0  0
   10.7003  -18.3015   26.1045 C   0  0  0  0  0  0  0  0  0  0  0  0
    9.9439  -17.5722   27.2064 C   0  0  2  0  0  0  0  0  0  0  0  0
    9.6981  -16.1901   26.7529 N   0  0  0  0  0  0  0  0  0  0  0  0
   10.7296  -17.5973   28.4357 C   0  0  0  0  0  0  0  0  0  0  0  0
   11.0631  -18.7784   29.1022 O   0  0  0  0  0  0  0  0  0  0  0  0
   11.1587  -16.5500   28.9804 O   0  0  0  0  0  0  0  0  0  0  0  0
  2  1  1  0
  3  2  2  0
  4  3  1  0
  5  4  2  0
  5 11  1  0
  6  7  1  0
  6  5  1  0
  7  9  1  0
  7  8  1  6
  9 10  2  0
 11 12  2  0
 12  2  1  0
 14 13  1  1
 15 14  1  0
 16 14  1  0
 17 16  1  1
 18 17  1  0
 18  9  1  0
 19 17  1  0
 19 20  2  0
 21 22  1  0
 22 24  1  0
 23 22  2  0
 24 25  1  0
 26 25  1  6
 26 28  1  0
 26 27  1  0
 27 19  1  0
 28 29  1  0
 30 28  2  0
M  END
$$$$
