YLQ.pdb
     RDKit          3D

 30 30  0  0  1  0  0  0  0  0999 V2000
    7.9679  -14.2522   15.1986 O   0  0  0  0  0  0  0  0  0  0  0  0
    8.1400  -14.0328   16.5713 C   0  0  0  0  0  0  0  0  0  0  0  0
    7.3366  -13.1434   17.2590 C   0  0  0  0  0  0  0  0  0  0  0  0
    7.5469  -12.9628   18.6119 C   0  0  0  0  0  0  0  0  0  0  0  0
    8.5219  -13.6290   19.3097 C   0  0  0  0  0  0  0  0  0  0  0  0
    8.7274  -13.4173   20.7626 C   0  0  0  0  0  0  0  0  0  0  0  0
    8.5597  -14.7918   21.4224 C   0  0  2  0  0  0  0  0  0  0  0  0
    7.1971  -15.1854   21.2187 N   0  0  0  0  0  0  0  0  0  0  0  0
    8.9304  -14.7312   22.8576 C   0  0  0  0  0  0  0  0  0  0  0  0
   10.1118  -14.5542   23.2170 O   0  0  0  0  0  0  0  0  0  0  0  0
    9.3176  -14.5150   18.6098 C   0  0  0  0  0  0  0  0  0  0  0  0
    9.1259  -14.7142   17.2483 C   0  0  0  0  0  0  0  0  0  0  0  0
    7.7354  -11.8336   26.6281 C   0  0  0  0  0  0  0  0  0  0  0  0
    6.7997  -12.7099   25.8936 C   0  0  2  0  0  0  0  0  0  0  0  0
    5.3937  -12.4883   26.5060 C   0  0  0  0  0  0  0  0  0  0  0  0
    7.0189  -14.1553   25.8738 C   0  0  0  0  0  0  0  0  0  0  0  0
    8.2401  -14.7632   25.3065 C   0  0  2  0  0  0  0  0  0  0  0  0
    7.9241  -14.8770   23.8372 N   0  0  0  0  0  0  0  0  0  0  0  0
    8.5877  -16.1231   25.6831 C   0  0  0  0  0  0  0  0  0  0  0  0
    7.6967  -17.0052   25.7663 O   0  0  0  0  0  0  0  0  0  0  0  0
   13.4998  -21.5677   25.5997 N   0  0  0  0  0  0  0  0  0  0  0  0
   13.0762  -20.2364   25.3422 C   0  0  0  0  0  0  0  0  0  0  0  0
   13.6895  -19.5871   24.4694 O   0  0  0  0  0  0  0  0  0  0  0  0
   11.9377  -19.7094   26.1271 C   0  0  0  0  0  0  0  0  0  0  0  0
   11.5532  -18.3002   25.8017 C   0  0  0  0  0  0  0  0  0  0  0  0
   10.1743  -17.9263   26.3279 C   0  0  2  0  0  0  0  0  0  0  0  0
    9.9101  -16.5229   25.9578 N   0  0  0  0  0  0  0  0  0  0  0  0
   10.1382  -18.1111   27.7748 C   0  0  0  0  0  0  0  0  0  0  0  0
   10.0884  -19.3684   28.3808 O   0  0  0  0  0  0  0  0  0  0  0  0
   10.1472  -17.1439   28.5761 O   0  0  0  0  0  0  0  0  0  0  0  0
  2  1  1  0
  3  2  2  0
  4  3  1  0
  5  4  2  0
  5 11  1  0
  6  7  1  0
  6  5  1  0
  7  9  1  0
  7  8  1  1
  9 10  2  0
 11 12  2  0
 12  2  1  0
 14 13  1  1
 15 14  1  0
 16 14  1  0
 17 16  1  1
 18 17  1  0
 18  9  1  0
 19 17  1  0
 19 20  2  0
 21 22  1  0
 22 24  1  0
 23 22  2  0
 24 25  1  0
 26 25  1  1
 26 28  1  0
 26 27  1  0
 27 19  1  0
 28 29  1  0
 30 28  2  0
M  END
$$$$
