YLQ.pdb
     RDKit          3D

 30 30  0  0  1  0  0  0  0  0999 V2000
    7.6728  -14.2025   15.0374 O   0  0  0  0  0  0  0  0  0  0  0  0
    8.0098  -14.0322   16.3862 C   0  0  0  0  0  0  0  0  0  0  0  0
    7.3244  -13.1384   17.1866 C   0  0  0  0  0  0  0  0  0  0  0  0
    7.6956  -13.0075   18.5104 C   0  0  0  0  0  0  0  0  0  0  0  0
    8.7193  -13.7275   19.0716 C   0  0  0  0  0  0  0  0  0  0  0  0
    9.0984  -13.5685   20.4960 C   0  0  0  0  0  0  0  0  0  0  0  0
    8.9164  -14.9474   21.1429 C   0  0  2  0  0  0  0  0  0  0  0  0
    7.5490  -15.3236   20.9380 N   0  0  0  0  0  0  0  0  0  0  0  0
    9.2902  -14.9047   22.5780 C   0  0  0  0  0  0  0  0  0  0  0  0
   10.4823  -14.8268   22.9373 O   0  0  0  0  0  0  0  0  0  0  0  0
    9.3958  -14.6173   18.2601 C   0  0  0  0  0  0  0  0  0  0  0  0
    9.0414  -14.7671   16.9252 C   0  0  0  0  0  0  0  0  0  0  0  0
    6.2035  -12.2275   27.0092 C   0  0  0  0  0  0  0  0  0  0  0  0
    7.3526  -13.1002   26.6918 C   0  0  2  0  0  0  0  0  0  0  0  0
    8.6368  -12.2705   26.9436 C   0  0  0  0  0  0  0  0  0  0  0  0
    7.4854  -13.6712   25.3524 C   0  0  0  0  0  0  0  0  0  0  0  0
    8.5613  -14.6200   24.9993 C   0  0  2  0  0  0  0  0  0  0  0  0
    8.2746  -14.9534   23.5576 N   0  0  0  0  0  0  0  0  0  0  0  0
    8.5911  -15.9207   25.6467 C   0  0  0  0  0  0  0  0  0  0  0  0
    7.5593  -16.6372   25.6775 O   0  0  0  0  0  0  0  0  0  0  0  0
   13.0726  -19.5084   24.9492 N   0  0  0  0  0  0  0  0  0  0  0  0
   12.0560  -18.9839   24.1070 C   0  0  0  0  0  0  0  0  0  0  0  0
   12.2845  -18.9294   22.8805 O   0  0  0  0  0  0  0  0  0  0  0  0
   10.7959  -18.5365   24.7410 C   0  0  0  0  0  0  0  0  0  0  0  0
   10.7751  -18.6430   26.2336 C   0  0  0  0  0  0  0  0  0  0  0  0
    9.6958  -17.7806   26.8736 C   0  0  2  0  0  0  0  0  0  0  0  0
    9.7508  -16.4444   26.2508 N   0  0  0  0  0  0  0  0  0  0  0  0
    9.9212  -17.7065   28.3133 C   0  0  0  0  0  0  0  0  0  0  0  0
    9.8447  -18.8190   29.1542 O   0  0  0  0  0  0  0  0  0  0  0  0
   10.1984  -16.6287   28.8954 O   0  0  0  0  0  0  0  0  0  0  0  0
  2  1  1  0
  3  2  2  0
  4  3  1  0
  5  4  2  0
  5 11  1  0
  6  7  1  0
  6  5  1  0
  7  9  1  0
  7  8  1  1
  9 10  2  0
 11 12  2  0
 12  2  1  0
 14 13  1  6
 15 14  1  0
 16 14  1  0
 17 16  1  1
 18 17  1  0
 18  9  1  0
 19 17  1  0
 19 20  2  0
 21 22  1  0
 22 24  1  0
 23 22  2  0
 24 25  1  0
 26 25  1  6
 26 28  1  0
 26 27  1  0
 27 19  1  0
 28 29  1  0
 30 28  2  0
M  END
$$$$
