YLQ.pdb
     RDKit          3D

 30 30  0  0  1  0  0  0  0  0999 V2000
    7.1650  -21.8264   29.5747 O   0  0  0  0  0  0  0  0  0  0  0  0
    7.4029  -21.2201   28.3346 C   0  0  0  0  0  0  0  0  0  0  0  0
    7.9710  -21.9260   27.2914 C   0  0  0  0  0  0  0  0  0  0  0  0
    8.1851  -21.2823   26.0884 C   0  0  0  0  0  0  0  0  0  0  0  0
    7.8582  -19.9667   25.8791 C   0  0  0  0  0  0  0  0  0  0  0  0
    8.0982  -19.2985   24.5776 C   0  0  0  0  0  0  0  0  0  0  0  0
    6.7423  -18.7398   24.1279 C   0  0  2  0  0  0  0  0  0  0  0  0
    6.3053  -19.5483   23.0286 N   0  0  0  0  0  0  0  0  0  0  0  0
    6.8607  -17.3044   23.7721 C   0  0  0  0  0  0  0  0  0  0  0  0
    7.1204  -16.9428   22.6067 O   0  0  0  0  0  0  0  0  0  0  0  0
    7.2910  -19.2732   26.9304 C   0  0  0  0  0  0  0  0  0  0  0  0
    7.0656  -19.8984   28.1504 C   0  0  0  0  0  0  0  0  0  0  0  0
    6.1644  -12.1697   27.2075 C   0  0  0  0  0  0  0  0  0  0  0  0
    6.8167  -12.8144   26.0493 C   0  0  2  0  0  0  0  0  0  0  0  0
    6.5446  -11.9165   24.8162 C   0  0  0  0  0  0  0  0  0  0  0  0
    6.4382  -14.1728   25.6632 C   0  0  0  0  0  0  0  0  0  0  0  0
    7.1054  -14.8981   24.5626 C   0  0  2  0  0  0  0  0  0  0  0  0
    6.6755  -16.3272   24.7741 N   0  0  0  0  0  0  0  0  0  0  0  0
    8.5563  -14.9802   24.5536 C   0  0  0  0  0  0  0  0  0  0  0  0
    9.2177  -14.4117   23.6490 O   0  0  0  0  0  0  0  0  0  0  0  0
   11.1220  -14.0388   29.6692 N   0  0  0  0  0  0  0  0  0  0  0  0
   11.0031  -15.4421   29.4831 C   0  0  0  0  0  0  0  0  0  0  0  0
   11.0799  -16.1734   30.4925 O   0  0  0  0  0  0  0  0  0  0  0  0
   10.7977  -15.9416   28.1053 C   0  0  0  0  0  0  0  0  0  0  0  0
   11.0491  -14.9314   27.0302 C   0  0  0  0  0  0  0  0  0  0  0  0
   10.7428  -15.4616   25.6363 C   0  0  2  0  0  0  0  0  0  0  0  0
    9.2860  -15.6735   25.5390 N   0  0  0  0  0  0  0  0  0  0  0  0
   11.4771  -16.7029   25.4148 C   0  0  0  0  0  0  0  0  0  0  0  0
   12.8643  -16.7495   25.2593 O   0  0  0  0  0  0  0  0  0  0  0  0
   10.9051  -17.8190   25.3466 O   0  0  0  0  0  0  0  0  0  0  0  0
  2  1  1  0
  3  2  2  0
  4  3  1  0
  5  4  2  0
  5 11  1  0
  6  7  1  0
  6  5  1  0
  7  9  1  0
  7  8  1  6
  9 10  2  0
 11 12  2  0
 12  2  1  0
 14 13  1  1
 15 14  1  0
 16 14  1  0
 17 16  1  1
 18 17  1  0
 18  9  1  0
 19 17  1  0
 19 20  2  0
 21 22  1  0
 22 24  1  0
 23 22  2  0
 24 25  1  0
 26 25  1  1
 26 28  1  0
 26 27  1  0
 27 19  1  0
 28 29  1  0
 30 28  2  0
M  END
$$$$
