YLQ.pdb
     RDKit          3D

 30 30  0  0  1  0  0  0  0  0999 V2000
    5.1398  -19.0378   16.9237 O   0  0  0  0  0  0  0  0  0  0  0  0
    5.9006  -18.6631   18.0385 C   0  0  0  0  0  0  0  0  0  0  0  0
    5.3490  -18.6411   19.3053 C   0  0  0  0  0  0  0  0  0  0  0  0
    6.1414  -18.2642   20.3717 C   0  0  0  0  0  0  0  0  0  0  0  0
    7.4587  -17.9084   20.2319 C   0  0  0  0  0  0  0  0  0  0  0  0
    8.2883  -17.5075   21.3932 C   0  0  0  0  0  0  0  0  0  0  0  0
    8.1462  -15.9851   21.5145 C   0  0  2  0  0  0  0  0  0  0  0  0
    8.7984  -15.4161   20.3724 N   0  0  0  0  0  0  0  0  0  0  0  0
    8.7174  -15.5075   22.7976 C   0  0  0  0  0  0  0  0  0  0  0  0
    9.9445  -15.3312   22.9374 O   0  0  0  0  0  0  0  0  0  0  0  0
    7.9970  -17.9348   18.9600 C   0  0  0  0  0  0  0  0  0  0  0  0
    7.2205  -18.3104   17.8710 C   0  0  0  0  0  0  0  0  0  0  0  0
    7.6876  -11.7034   25.8181 C   0  0  0  0  0  0  0  0  0  0  0  0
    6.7806  -12.8441   25.5756 C   0  0  2  0  0  0  0  0  0  0  0  0
    5.5037  -12.5966   26.4177 C   0  0  0  0  0  0  0  0  0  0  0  0
    7.2217  -14.2037   25.8836 C   0  0  0  0  0  0  0  0  0  0  0  0
    8.3904  -14.8247   25.2270 C   0  0  2  0  0  0  0  0  0  0  0  0
    7.8534  -15.2471   23.8835 N   0  0  0  0  0  0  0  0  0  0  0  0
    8.9322  -16.0563   25.7760 C   0  0  0  0  0  0  0  0  0  0  0  0
    8.3894  -17.1592   25.5154 O   0  0  0  0  0  0  0  0  0  0  0  0
   13.8050  -20.4791   24.7748 N   0  0  0  0  0  0  0  0  0  0  0  0
   13.6969  -19.1826   25.3454 C   0  0  0  0  0  0  0  0  0  0  0  0
   14.5742  -18.3424   25.0560 O   0  0  0  0  0  0  0  0  0  0  0  0
   12.5523  -18.9169   26.2452 C   0  0  0  0  0  0  0  0  0  0  0  0
   11.8046  -17.6548   25.9492 C   0  0  0  0  0  0  0  0  0  0  0  0
   10.6814  -17.3857   26.9412 C   0  0  2  0  0  0  0  0  0  0  0  0
   10.0739  -16.0853   26.6005 N   0  0  0  0  0  0  0  0  0  0  0  0
   11.2194  -17.3829   28.2976 C   0  0  0  0  0  0  0  0  0  0  0  0
   11.7114  -18.5301   28.9239 O   0  0  0  0  0  0  0  0  0  0  0  0
   11.2734  -16.3409   28.9968 O   0  0  0  0  0  0  0  0  0  0  0  0
  2  1  1  0
  3  2  2  0
  4  3  1  0
  5  4  2  0
  5 11  1  0
  6  7  1  0
  6  5  1  0
  7  9  1  0
  7  8  1  6
  9 10  2  0
 11 12  2  0
 12  2  1  0
 14 13  1  1
 15 14  1  0
 16 14  1  0
 17 16  1  1
 18 17  1  0
 18  9  1  0
 19 17  1  0
 19 20  2  0
 21 22  1  0
 22 24  1  0
 23 22  2  0
 24 25  1  0
 26 25  1  6
 26 28  1  0
 26 27  1  0
 27 19  1  0
 28 29  1  0
 30 28  2  0
M  END
$$$$
