YLQ.pdb
     RDKit          3D

 30 30  0  0  1  0  0  0  0  0999 V2000
   11.9520  -16.0330   31.7374 O   0  0  0  0  0  0  0  0  0  0  0  0
   11.4077  -16.2876   30.4721 C   0  0  0  0  0  0  0  0  0  0  0  0
   11.4823  -17.5440   29.9018 C   0  0  0  0  0  0  0  0  0  0  0  0
   10.9300  -17.7435   28.6519 C   0  0  0  0  0  0  0  0  0  0  0  0
   10.3068  -16.7466   27.9452 C   0  0  0  0  0  0  0  0  0  0  0  0
    9.7215  -16.9865   26.6045 C   0  0  0  0  0  0  0  0  0  0  0  0
    8.2024  -17.0520   26.8070 C   0  0  2  0  0  0  0  0  0  0  0  0
    7.8640  -18.4364   26.9563 N   0  0  0  0  0  0  0  0  0  0  0  0
    7.4958  -16.4084   25.6724 C   0  0  0  0  0  0  0  0  0  0  0  0
    6.7654  -17.0661   24.9042 O   0  0  0  0  0  0  0  0  0  0  0  0
   10.2394  -15.4957   28.5272 C   0  0  0  0  0  0  0  0  0  0  0  0
   10.7875  -15.2698   29.7836 C   0  0  0  0  0  0  0  0  0  0  0  0
    7.1079  -10.8605   26.1007 C   0  0  0  0  0  0  0  0  0  0  0  0
    6.4574  -11.9859   25.3986 C   0  0  2  0  0  0  0  0  0  0  0  0
    5.7793  -12.8651   26.4794 C   0  0  0  0  0  0  0  0  0  0  0  0
    7.2573  -12.8893   24.5730 C   0  0  0  0  0  0  0  0  0  0  0  0
    6.8941  -14.3069   24.3700 C   0  0  2  0  0  0  0  0  0  0  0  0
    7.6536  -15.0219   25.4580 N   0  0  0  0  0  0  0  0  0  0  0  0
    7.3313  -14.9771   23.1570 C   0  0  0  0  0  0  0  0  0  0  0  0
    6.4912  -15.5086   22.3885 O   0  0  0  0  0  0  0  0  0  0  0  0
    7.1904  -12.7697   18.6936 N   0  0  0  0  0  0  0  0  0  0  0  0
    8.3052  -13.4873   18.1836 C   0  0  0  0  0  0  0  0  0  0  0  0
    8.4458  -13.5436   16.9441 O   0  0  0  0  0  0  0  0  0  0  0  0
    9.2233  -14.1204   19.1565 C   0  0  0  0  0  0  0  0  0  0  0  0
    8.7838  -14.0256   20.5839 C   0  0  0  0  0  0  0  0  0  0  0  0
    9.0207  -15.3120   21.3629 C   0  0  2  0  0  0  0  0  0  0  0  0
    8.6852  -15.0572   22.7768 N   0  0  0  0  0  0  0  0  0  0  0  0
   10.4123  -15.7239   21.2119 C   0  0  0  0  0  0  0  0  0  0  0  0
   10.9192  -16.2768   20.0338 O   0  0  0  0  0  0  0  0  0  0  0  0
   11.2513  -15.6096   22.1396 O   0  0  0  0  0  0  0  0  0  0  0  0
  2  1  1  0
  3  2  2  0
  4  3  1  0
  5  4  2  0
  5 11  1  0
  6  7  1  0
  6  5  1  0
  7  9  1  0
  7  8  1  6
  9 10  2  0
 11 12  2  0
 12  2  1  0
 14 13  1  1
 15 14  1  0
 16 14  1  0
 17 16  1  6
 18 17  1  0
 18  9  1  0
 19 17  1  0
 19 20  2  0
 21 22  1  0
 22 24  1  0
 23 22  2  0
 24 25  1  0
 26 25  1  6
 26 28  1  0
 26 27  1  0
 27 19  1  0
 28 29  1  0
 30 28  2  0
M  END
$$$$
