YLQ.pdb
     RDKit          3D

 30 30  0  0  1  0  0  0  0  0999 V2000
    4.8852  -19.6870   17.6644 O   0  0  0  0  0  0  0  0  0  0  0  0
    5.6924  -19.1802   18.6908 C   0  0  0  0  0  0  0  0  0  0  0  0
    5.2600  -19.1744   20.0031 C   0  0  0  0  0  0  0  0  0  0  0  0
    6.0938  -18.6635   20.9783 C   0  0  0  0  0  0  0  0  0  0  0  0
    7.3391  -18.1583   20.7037 C   0  0  0  0  0  0  0  0  0  0  0  0
    8.2155  -17.6154   21.7691 C   0  0  0  0  0  0  0  0  0  0  0  0
    7.9552  -16.1042   21.8075 C   0  0  2  0  0  0  0  0  0  0  0  0
    8.4897  -15.5611   20.5940 N   0  0  0  0  0  0  0  0  0  0  0  0
    8.5594  -15.5006   23.0205 C   0  0  0  0  0  0  0  0  0  0  0  0
    9.7888  -15.3072   23.1070 O   0  0  0  0  0  0  0  0  0  0  0  0
    7.7586  -18.1704   19.3877 C   0  0  0  0  0  0  0  0  0  0  0  0
    6.9383  -18.6789   18.3885 C   0  0  0  0  0  0  0  0  0  0  0  0
    7.9213  -11.4632   25.8145 C   0  0  0  0  0  0  0  0  0  0  0  0
    6.8709  -12.4926   25.6742 C   0  0  2  0  0  0  0  0  0  0  0  0
    5.6947  -12.0698   26.5900 C   0  0  0  0  0  0  0  0  0  0  0  0
    7.1688  -13.8863   26.0008 C   0  0  0  0  0  0  0  0  0  0  0  0
    8.2992  -14.6178   25.3929 C   0  0  2  0  0  0  0  0  0  0  0  0
    7.7248  -15.1374   24.0998 N   0  0  0  0  0  0  0  0  0  0  0  0
    8.7936  -15.8169   26.0483 C   0  0  0  0  0  0  0  0  0  0  0  0
    8.0552  -16.8272   26.1624 O   0  0  0  0  0  0  0  0  0  0  0  0
   13.7094  -18.8898   24.7914 N   0  0  0  0  0  0  0  0  0  0  0  0
   13.3590  -19.5709   25.9879 C   0  0  0  0  0  0  0  0  0  0  0  0
   13.9805  -20.6174   26.2673 O   0  0  0  0  0  0  0  0  0  0  0  0
   12.2802  -18.9942   26.8208 C   0  0  0  0  0  0  0  0  0  0  0  0
   11.7036  -17.7155   26.2992 C   0  0  0  0  0  0  0  0  0  0  0  0
   10.5462  -17.2002   27.1435 C   0  0  2  0  0  0  0  0  0  0  0  0
   10.0985  -15.9173   26.5691 N   0  0  0  0  0  0  0  0  0  0  0  0
   10.9849  -17.0402   28.5259 C   0  0  0  0  0  0  0  0  0  0  0  0
   11.2406  -18.1204   29.3735 O   0  0  0  0  0  0  0  0  0  0  0  0
   11.1604  -15.9118   29.0489 O   0  0  0  0  0  0  0  0  0  0  0  0
  2  1  1  0
  3  2  2  0
  4  3  1  0
  5  4  2  0
  5 11  1  0
  6  7  1  0
  6  5  1  0
  7  9  1  0
  7  8  1  6
  9 10  2  0
 11 12  2  0
 12  2  1  0
 14 13  1  1
 15 14  1  0
 16 14  1  0
 17 16  1  1
 18 17  1  0
 18  9  1  0
 19 17  1  0
 19 20  2  0
 21 22  1  0
 22 24  1  0
 23 22  2  0
 24 25  1  0
 26 25  1  6
 26 28  1  0
 26 27  1  0
 27 19  1  0
 28 29  1  0
 30 28  2  0
M  END
$$$$
