YLQ.pdb
     RDKit          3D

 30 30  0  0  1  0  0  0  0  0999 V2000
    8.2413  -12.9752   16.2650 O   0  0  0  0  0  0  0  0  0  0  0  0
    8.0797  -13.4704   17.5652 C   0  0  0  0  0  0  0  0  0  0  0  0
    8.2913  -12.6651   18.6680 C   0  0  0  0  0  0  0  0  0  0  0  0
    8.1186  -13.2013   19.9289 C   0  0  0  0  0  0  0  0  0  0  0  0
    7.7445  -14.5040   20.1395 C   0  0  0  0  0  0  0  0  0  0  0  0
    7.5657  -15.0557   21.5039 C   0  0  0  0  0  0  0  0  0  0  0  0
    8.9196  -14.9010   22.2080 C   0  0  2  0  0  0  0  0  0  0  0  0
    9.8436  -15.7537   21.5208 N   0  0  0  0  0  0  0  0  0  0  0  0
    8.7994  -15.2301   23.6496 C   0  0  0  0  0  0  0  0  0  0  0  0
    9.6625  -15.9154   24.2342 O   0  0  0  0  0  0  0  0  0  0  0  0
    7.5364  -15.2976   19.0283 C   0  0  0  0  0  0  0  0  0  0  0  0
    7.7036  -14.7817   17.7493 C   0  0  0  0  0  0  0  0  0  0  0  0
    7.9649  -11.7942   26.6141 C   0  0  0  0  0  0  0  0  0  0  0  0
    6.8034  -12.4897   26.0227 C   0  0  2  0  0  0  0  0  0  0  0  0
    5.5317  -11.7701   26.5384 C   0  0  0  0  0  0  0  0  0  0  0  0
    6.6024  -13.9157   26.2749 C   0  0  0  0  0  0  0  0  0  0  0  0
    7.5880  -14.9383   25.8683 C   0  0  2  0  0  0  0  0  0  0  0  0
    7.6842  -14.7573   24.3750 N   0  0  0  0  0  0  0  0  0  0  0  0
    7.2448  -16.3427   26.0164 C   0  0  0  0  0  0  0  0  0  0  0  0
    6.2237  -16.6805   26.6661 O   0  0  0  0  0  0  0  0  0  0  0  0
   10.8793  -20.1583   22.4170 N   0  0  0  0  0  0  0  0  0  0  0  0
    9.9157  -20.7117   23.3020 C   0  0  0  0  0  0  0  0  0  0  0  0
    9.4541  -21.8400   23.0310 O   0  0  0  0  0  0  0  0  0  0  0  0
    9.5237  -19.9124   24.4842 C   0  0  0  0  0  0  0  0  0  0  0  0
    8.0548  -19.6525   24.6037 C   0  0  0  0  0  0  0  0  0  0  0  0
    7.7039  -18.7771   25.7990 C   0  0  2  0  0  0  0  0  0  0  0  0
    8.0101  -17.3781   25.4452 N   0  0  0  0  0  0  0  0  0  0  0  0
    8.4694  -19.2117   26.9627 C   0  0  0  0  0  0  0  0  0  0  0  0
    8.1623  -20.3645   27.6889 O   0  0  0  0  0  0  0  0  0  0  0  0
    9.4608  -18.5712   27.3922 O   0  0  0  0  0  0  0  0  0  0  0  0
  2  1  1  0
  3  2  2  0
  4  3  1  0
  5  4  2  0
  5 11  1  0
  6  7  1  0
  6  5  1  0
  7  9  1  0
  7  8  1  6
  9 10  2  0
 11 12  2  0
 12  2  1  0
 14 13  1  1
 15 14  1  0
 16 14  1  0
 17 16  1  6
 18 17  1  0
 18  9  1  0
 19 17  1  0
 19 20  2  0
 21 22  1  0
 22 24  1  0
 23 22  2  0
 24 25  1  0
 26 25  1  6
 26 28  1  0
 26 27  1  0
 27 19  1  0
 28 29  1  0
 30 28  2  0
M  END
$$$$
