YLQ.pdb
     RDKit          3D

 30 30  0  0  1  0  0  0  0  0999 V2000
    7.9864  -20.1196   16.6413 O   0  0  0  0  0  0  0  0  0  0  0  0
    8.3636  -19.5416   17.8602 C   0  0  0  0  0  0  0  0  0  0  0  0
    9.6863  -19.2500   18.1337 C   0  0  0  0  0  0  0  0  0  0  0  0
   10.0063  -18.6805   19.3504 C   0  0  0  0  0  0  0  0  0  0  0  0
    9.0669  -18.3888   20.3064 C   0  0  0  0  0  0  0  0  0  0  0  0
    9.4364  -17.7771   21.6053 C   0  0  0  0  0  0  0  0  0  0  0  0
    9.2077  -16.2686   21.4475 C   0  0  2  0  0  0  0  0  0  0  0  0
   10.0566  -15.8307   20.3793 N   0  0  0  0  0  0  0  0  0  0  0  0
    9.4811  -15.5623   22.7231 C   0  0  0  0  0  0  0  0  0  0  0  0
   10.6463  -15.3054   23.0872 O   0  0  0  0  0  0  0  0  0  0  0  0
    7.7487  -18.6856   20.0197 C   0  0  0  0  0  0  0  0  0  0  0  0
    7.4013  -19.2587   18.8029 C   0  0  0  0  0  0  0  0  0  0  0  0
    5.6523  -12.7033   26.6846 C   0  0  0  0  0  0  0  0  0  0  0  0
    7.0109  -13.2236   26.4273 C   0  0  2  0  0  0  0  0  0  0  0  0
    7.9925  -12.0374   26.6013 C   0  0  0  0  0  0  0  0  0  0  0  0
    7.3247  -13.8339   25.1363 C   0  0  0  0  0  0  0  0  0  0  0  0
    8.6260  -14.4763   24.8595 C   0  0  2  0  0  0  0  0  0  0  0  0
    8.3991  -15.1728   23.5423 N   0  0  0  0  0  0  0  0  0  0  0  0
    9.0812  -15.5452   25.7323 C   0  0  0  0  0  0  0  0  0  0  0  0
    8.3927  -16.5873   25.8706 O   0  0  0  0  0  0  0  0  0  0  0  0
   14.2352  -16.1368   25.1450 N   0  0  0  0  0  0  0  0  0  0  0  0
   13.3569  -17.1001   24.5804 C   0  0  0  0  0  0  0  0  0  0  0  0
   13.5731  -17.4708   23.4076 O   0  0  0  0  0  0  0  0  0  0  0  0
   12.2446  -17.5975   25.4205 C   0  0  0  0  0  0  0  0  0  0  0  0
   12.1681  -16.9842   26.7834 C   0  0  0  0  0  0  0  0  0  0  0  0
   10.7420  -16.6623   27.2084 C   0  0  2  0  0  0  0  0  0  0  0  0
   10.2942  -15.4817   26.4456 N   0  0  0  0  0  0  0  0  0  0  0  0
   10.7064  -16.4123   28.6456 C   0  0  0  0  0  0  0  0  0  0  0  0
   10.8875  -17.4177   29.5979 O   0  0  0  0  0  0  0  0  0  0  0  0
   10.5067  -15.2682   29.1238 O   0  0  0  0  0  0  0  0  0  0  0  0
  2  1  1  0
  3  2  2  0
  4  3  1  0
  5  4  2  0
  5 11  1  0
  6  7  1  0
  6  5  1  0
  7  9  1  0
  7  8  1  6
  9 10  2  0
 11 12  2  0
 12  2  1  0
 14 13  1  6
 15 14  1  0
 16 14  1  0
 17 16  1  1
 18 17  1  0
 18  9  1  0
 19 17  1  0
 19 20  2  0
 21 22  1  0
 22 24  1  0
 23 22  2  0
 24 25  1  0
 26 25  1  6
 26 28  1  0
 26 27  1  0
 27 19  1  0
 28 29  1  0
 30 28  2  0
M  END
$$$$
