YLQ.pdb
     RDKit          3D

 30 30  0  0  1  0  0  0  0  0999 V2000
    5.7376  -10.6780   27.4024 O   0  0  0  0  0  0  0  0  0  0  0  0
    6.2325  -11.9602   27.1324 C   0  0  0  0  0  0  0  0  0  0  0  0
    7.5064  -12.3306   27.5192 C   0  0  0  0  0  0  0  0  0  0  0  0
    7.9473  -13.6068   27.2291 C   0  0  0  0  0  0  0  0  0  0  0  0
    7.1753  -14.5300   26.5709 C   0  0  0  0  0  0  0  0  0  0  0  0
    7.6721  -15.8943   26.2714 C   0  0  0  0  0  0  0  0  0  0  0  0
    6.7448  -16.4582   25.1876 C   0  0  2  0  0  0  0  0  0  0  0  0
    6.2712  -17.7235   25.6652 N   0  0  0  0  0  0  0  0  0  0  0  0
    7.4599  -16.5658   23.8922 C   0  0  0  0  0  0  0  0  0  0  0  0
    7.7176  -17.6746   23.3820 O   0  0  0  0  0  0  0  0  0  0  0  0
    5.9042  -14.1463   26.1902 C   0  0  0  0  0  0  0  0  0  0  0  0
    5.4375  -12.8682   26.4704 C   0  0  0  0  0  0  0  0  0  0  0  0
    8.9508  -14.1447   18.8932 C   0  0  0  0  0  0  0  0  0  0  0  0
    7.8428  -13.8857   19.8356 C   0  0  2  0  0  0  0  0  0  0  0  0
    7.4488  -12.3958   19.6757 C   0  0  0  0  0  0  0  0  0  0  0  0
    8.0367  -14.1108   21.2672 C   0  0  0  0  0  0  0  0  0  0  0  0
    8.4027  -15.4315   21.8187 C   0  0  2  0  0  0  0  0  0  0  0  0
    7.8569  -15.3877   23.2230 N   0  0  0  0  0  0  0  0  0  0  0  0
    9.8080  -15.7467   22.0126 C   0  0  0  0  0  0  0  0  0  0  0  0
   10.4590  -15.1980   22.9367 O   0  0  0  0  0  0  0  0  0  0  0  0
   13.7302  -20.8469   19.8080 N   0  0  0  0  0  0  0  0  0  0  0  0
   13.5984  -20.5034   21.1801 C   0  0  0  0  0  0  0  0  0  0  0  0
   13.6594  -21.4246   22.0210 O   0  0  0  0  0  0  0  0  0  0  0  0
   13.3964  -19.0771   21.5191 C   0  0  0  0  0  0  0  0  0  0  0  0
   12.0128  -18.5649   21.2682 C   0  0  0  0  0  0  0  0  0  0  0  0
   11.8615  -17.0850   21.5925 C   0  0  2  0  0  0  0  0  0  0  0  0
   10.5000  -16.6701   21.2048 N   0  0  0  0  0  0  0  0  0  0  0  0
   12.8758  -16.3222   20.8724 C   0  0  0  0  0  0  0  0  0  0  0  0
   14.1817  -16.1604   21.3404 O   0  0  0  0  0  0  0  0  0  0  0  0
   12.6382  -15.7547   19.7774 O   0  0  0  0  0  0  0  0  0  0  0  0
  2  1  1  0
  3  2  2  0
  4  3  1  0
  5  4  2  0
  5 11  1  0
  6  7  1  0
  6  5  1  0
  7  9  1  0
  7  8  1  1
  9 10  2  0
 11 12  2  0
 12  2  1  0
 14 13  1  6
 15 14  1  0
 16 14  1  0
 17 16  1  1
 18 17  1  0
 18  9  1  0
 19 17  1  0
 19 20  2  0
 21 22  1  0
 22 24  1  0
 23 22  2  0
 24 25  1  0
 26 25  1  6
 26 28  1  0
 26 27  1  0
 27 19  1  0
 28 29  1  0
 30 28  2  0
M  END
$$$$
