YLQ.pdb
     RDKit          3D

 30 30  0  0  1  0  0  0  0  0999 V2000
   11.9030  -20.4218   31.0537 O   0  0  0  0  0  0  0  0  0  0  0  0
   10.8991  -19.7726   30.3239 C   0  0  0  0  0  0  0  0  0  0  0  0
    9.9198  -20.4888   29.6625 C   0  0  0  0  0  0  0  0  0  0  0  0
    8.9521  -19.8014   28.9567 C   0  0  0  0  0  0  0  0  0  0  0  0
    8.9170  -18.4323   28.8807 C   0  0  0  0  0  0  0  0  0  0  0  0
    7.8669  -17.7178   28.1160 C   0  0  0  0  0  0  0  0  0  0  0  0
    8.2763  -17.8089   26.6406 C   0  0  2  0  0  0  0  0  0  0  0  0
    9.6096  -17.2922   26.5483 N   0  0  0  0  0  0  0  0  0  0  0  0
    7.3150  -17.0707   25.7851 C   0  0  0  0  0  0  0  0  0  0  0  0
    6.1290  -17.4405   25.6712 O   0  0  0  0  0  0  0  0  0  0  0  0
    9.9019  -17.7291   29.5465 C   0  0  0  0  0  0  0  0  0  0  0  0
   10.8864  -18.3975   30.2634 C   0  0  0  0  0  0  0  0  0  0  0  0
    6.6728  -12.8835   27.1279 C   0  0  0  0  0  0  0  0  0  0  0  0
    7.2216  -13.3251   25.8293 C   0  0  2  0  0  0  0  0  0  0  0  0
    7.7189  -12.0568   25.0909 C   0  0  0  0  0  0  0  0  0  0  0  0
    6.3687  -14.0454   24.8851 C   0  0  0  0  0  0  0  0  0  0  0  0
    6.8493  -15.2098   24.1132 C   0  0  2  0  0  0  0  0  0  0  0  0
    7.7523  -15.9252   25.0851 N   0  0  0  0  0  0  0  0  0  0  0  0
    7.7054  -14.9838   22.9609 C   0  0  0  0  0  0  0  0  0  0  0  0
    7.2544  -14.4073   21.9396 O   0  0  0  0  0  0  0  0  0  0  0  0
   13.8773  -14.2264   22.0171 N   0  0  0  0  0  0  0  0  0  0  0  0
   13.3157  -14.2517   20.7125 C   0  0  0  0  0  0  0  0  0  0  0  0
   14.0113  -13.8210   19.7691 O   0  0  0  0  0  0  0  0  0  0  0  0
   11.9438  -14.7858   20.5609 C   0  0  0  0  0  0  0  0  0  0  0  0
   11.1655  -14.8804   21.8356 C   0  0  0  0  0  0  0  0  0  0  0  0
    9.7596  -15.4280   21.6315 C   0  0  2  0  0  0  0  0  0  0  0  0
    9.0576  -15.3768   22.9280 N   0  0  0  0  0  0  0  0  0  0  0  0
    9.8376  -16.7931   21.1219 C   0  0  0  0  0  0  0  0  0  0  0  0
   10.0869  -17.0920   19.7807 O   0  0  0  0  0  0  0  0  0  0  0  0
    9.6820  -17.7962   21.8615 O   0  0  0  0  0  0  0  0  0  0  0  0
  2  1  1  0
  3  2  2  0
  4  3  1  0
  5  4  2  0
  5 11  1  0
  6  7  1  0
  6  5  1  0
  7  9  1  0
  7  8  1  1
  9 10  2  0
 11 12  2  0
 12  2  1  0
 14 13  1  1
 15 14  1  0
 16 14  1  0
 17 16  1  1
 18 17  1  0
 18  9  1  0
 19 17  1  0
 19 20  2  0
 21 22  1  0
 22 24  1  0
 23 22  2  0
 24 25  1  0
 26 25  1  1
 26 28  1  0
 26 27  1  0
 27 19  1  0
 28 29  1  0
 30 28  2  0
M  END
$$$$
