FGG.pdb
     RDKit          3D

 20 20  0  0  1  0  0  0  0  0999 V2000
   15.2763  -13.1252  -12.5790 N   0  0  0  0  0  0  0  0  0  0  0  0
   15.4100  -11.7492  -12.1606 C   0  0  1  0  0  0  0  0  0  0  0  0
   15.0360  -11.5914  -10.6909 C   0  0  0  0  0  0  0  0  0  0  0  0
   13.6192  -12.0104  -10.5523 C   0  0  0  0  0  0  0  0  0  0  0  0
   12.6003  -11.0957  -10.6505 C   0  0  0  0  0  0  0  0  0  0  0  0
   11.2811  -11.4771  -10.5229 C   0  0  0  0  0  0  0  0  0  0  0  0
   10.9709  -12.8061  -10.2913 C   0  0  0  0  0  0  0  0  0  0  0  0
   11.9747  -13.7348  -10.1901 C   0  0  0  0  0  0  0  0  0  0  0  0
   13.3009  -13.3308  -10.3217 C   0  0  0  0  0  0  0  0  0  0  0  0
   16.8122  -11.2584  -12.3737 C   0  0  0  0  0  0  0  0  0  0  0  0
   17.7853  -12.0531  -12.2866 O   0  0  0  0  0  0  0  0  0  0  0  0
   17.0847   -9.9034  -12.6758 N   0  0  0  0  0  0  0  0  0  0  0  0
   18.4242   -9.3906  -12.8725 C   0  0  0  0  0  0  0  0  0  0  0  0
   18.3425   -7.9603  -13.2158 C   0  0  0  0  0  0  0  0  0  0  0  0
   19.3850   -7.2652  -13.2479 O   0  0  0  0  0  0  0  0  0  0  0  0
   17.0999   -7.3124  -13.5214 N   0  0  0  0  0  0  0  0  0  0  0  0
   17.1050   -5.8857  -13.7831 C   0  0  0  0  0  0  0  0  0  0  0  0
   17.4227   -5.5820  -15.1804 C   0  0  0  0  0  0  0  0  0  0  0  0
   17.2728   -4.3143  -15.7504 O   0  0  0  0  0  0  0  0  0  0  0  0
   17.8536   -6.5075  -15.9097 O   0  0  0  0  0  0  0  0  0  0  0  0
  2  1  1  1
  2 10  1  0
  3  2  1  0
  4  3  1  0
  4  5  2  0
  6  5  1  0
  7  6  2  0
  8  9  2  0
  8  7  1  0
  9  4  1  0
 10 11  2  0
 12 10  1  0
 12 13  1  0
 13 14  1  0
 14 15  2  0
 16 17  1  0
 16 14  1  0
 18 19  1  0
 18 17  1  0
 20 18  2  0
M  END
$$$$
