FGG.pdb
     RDKit          3D

 20 20  0  0  1  0  0  0  0  0999 V2000
   23.4750   -9.3143  -16.7124 N   0  0  0  0  0  0  0  0  0  0  0  0
   22.1852   -9.9480  -16.5669 C   0  0  1  0  0  0  0  0  0  0  0  0
   21.0841   -8.9049  -16.4106 C   0  0  0  0  0  0  0  0  0  0  0  0
   21.4061   -8.1063  -15.2020 C   0  0  0  0  0  0  0  0  0  0  0  0
   21.9758   -6.8619  -15.3099 C   0  0  0  0  0  0  0  0  0  0  0  0
   22.2780   -6.1135  -14.1917 C   0  0  0  0  0  0  0  0  0  0  0  0
   22.0044   -6.6203  -12.9329 C   0  0  0  0  0  0  0  0  0  0  0  0
   21.4355   -7.8614  -12.8044 C   0  0  0  0  0  0  0  0  0  0  0  0
   21.1374   -8.6024  -13.9452 C   0  0  0  0  0  0  0  0  0  0  0  0
   21.8808  -10.8209  -17.7491 C   0  0  0  0  0  0  0  0  0  0  0  0
   22.4974  -10.6596  -18.8354 O   0  0  0  0  0  0  0  0  0  0  0  0
   20.9034  -11.8416  -17.6840 N   0  0  0  0  0  0  0  0  0  0  0  0
   20.6355  -12.7515  -18.7778 C   0  0  0  0  0  0  0  0  0  0  0  0
   21.0320  -14.1121  -18.3753 C   0  0  0  0  0  0  0  0  0  0  0  0
   22.2404  -14.4437  -18.4014 O   0  0  0  0  0  0  0  0  0  0  0  0
   20.0802  -15.0954  -17.9461 N   0  0  0  0  0  0  0  0  0  0  0  0
   20.5693  -16.3716  -17.4601 C   0  0  0  0  0  0  0  0  0  0  0  0
   19.5008  -17.1860  -16.8764 C   0  0  0  0  0  0  0  0  0  0  0  0
   19.7112  -18.4442  -16.3043 O   0  0  0  0  0  0  0  0  0  0  0  0
   18.3306  -16.7335  -16.8882 O   0  0  0  0  0  0  0  0  0  0  0  0
  2  1  1  6
  2 10  1  0
  3  2  1  0
  4  3  1  0
  4  5  2  0
  6  5  1  0
  7  6  2  0
  8  9  2  0
  8  7  1  0
  9  4  1  0
 10 11  2  0
 12 10  1  0
 12 13  1  0
 13 14  1  0
 14 15  2  0
 16 17  1  0
 16 14  1  0
 18 19  1  0
 18 17  1  0
 20 18  2  0
M  END
$$$$
