FGG.pdb
     RDKit          3D

 20 20  0  0  1  0  0  0  0  0999 V2000
   25.9567  -20.8526   -7.5272 N   0  0  0  0  0  0  0  0  0  0  0  0
   27.0095  -20.2285   -8.2943 C   0  0  1  0  0  0  0  0  0  0  0  0
   28.3711  -20.4951   -7.6620 C   0  0  0  0  0  0  0  0  0  0  0  0
   28.3545  -19.8803   -6.3115 C   0  0  0  0  0  0  0  0  0  0  0  0
   28.6614  -20.6196   -5.1962 C   0  0  0  0  0  0  0  0  0  0  0  0
   28.6483  -20.0557   -3.9377 C   0  0  0  0  0  0  0  0  0  0  0  0
   28.3204  -18.7191   -3.7886 C   0  0  0  0  0  0  0  0  0  0  0  0
   28.0110  -17.9641   -4.8906 C   0  0  0  0  0  0  0  0  0  0  0  0
   28.0295  -18.5510   -6.1534 C   0  0  0  0  0  0  0  0  0  0  0  0
   27.0101  -20.7290   -9.7092 C   0  0  0  0  0  0  0  0  0  0  0  0
   27.9195  -21.5022  -10.1108 O   0  0  0  0  0  0  0  0  0  0  0  0
   26.0019  -20.3538  -10.6279 N   0  0  0  0  0  0  0  0  0  0  0  0
   24.9597  -21.2559  -11.0708 C   0  0  0  0  0  0  0  0  0  0  0  0
   24.0059  -20.5090  -11.9092 C   0  0  0  0  0  0  0  0  0  0  0  0
   24.4194  -19.8599  -12.8985 O   0  0  0  0  0  0  0  0  0  0  0  0
   22.5972  -20.4893  -11.6408 N   0  0  0  0  0  0  0  0  0  0  0  0
   21.7428  -21.4321  -12.3373 C   0  0  0  0  0  0  0  0  0  0  0  0
   21.8596  -21.3119  -13.7924 C   0  0  0  0  0  0  0  0  0  0  0  0
   22.9870  -21.7146  -14.5144 O   0  0  0  0  0  0  0  0  0  0  0  0
   20.8971  -20.8211  -14.4304 O   0  0  0  0  0  0  0  0  0  0  0  0
  2  1  1  1
  2 10  1  0
  3  2  1  0
  4  3  1  0
  4  5  2  0
  6  5  1  0
  7  6  2  0
  8  9  2  0
  8  7  1  0
  9  4  1  0
 10 11  2  0
 12 10  1  0
 12 13  1  0
 13 14  1  0
 14 15  2  0
 16 17  1  0
 16 14  1  0
 18 19  1  0
 18 17  1  0
 20 18  2  0
M  END
$$$$
