FGG.pdb
     RDKit          3D

 20 20  0  0  1  0  0  0  0  0999 V2000
   24.1389  -23.3845  -15.3383 N   0  0  0  0  0  0  0  0  0  0  0  0
   25.5120  -23.2293  -15.7589 C   0  0  1  0  0  0  0  0  0  0  0  0
   25.6231  -23.2911  -17.2783 C   0  0  0  0  0  0  0  0  0  0  0  0
   25.1330  -24.6271  -17.6991 C   0  0  0  0  0  0  0  0  0  0  0  0
   23.9916  -24.7550  -18.4510 C   0  0  0  0  0  0  0  0  0  0  0  0
   23.5296  -25.9930  -18.8461 C   0  0  0  0  0  0  0  0  0  0  0  0
   24.2250  -27.1329  -18.4811 C   0  0  0  0  0  0  0  0  0  0  0  0
   25.3674  -27.0257  -17.7302 C   0  0  0  0  0  0  0  0  0  0  0  0
   25.8184  -25.7671  -17.3406 C   0  0  0  0  0  0  0  0  0  0  0  0
   26.0782  -21.9282  -15.2701 C   0  0  0  0  0  0  0  0  0  0  0  0
   27.2671  -21.6104  -15.5376 O   0  0  0  0  0  0  0  0  0  0  0  0
   25.3051  -21.0262  -14.5019 N   0  0  0  0  0  0  0  0  0  0  0  0
   25.8323  -19.7878  -13.9684 C   0  0  0  0  0  0  0  0  0  0  0  0
   25.3740  -19.6339  -12.5768 C   0  0  0  0  0  0  0  0  0  0  0  0
   24.2859  -19.0598  -12.3375 O   0  0  0  0  0  0  0  0  0  0  0  0
   26.1306  -20.1203  -11.4596 N   0  0  0  0  0  0  0  0  0  0  0  0
   25.6034  -19.9219  -10.1229 C   0  0  0  0  0  0  0  0  0  0  0  0
   24.7991  -21.0601   -9.6723 C   0  0  0  0  0  0  0  0  0  0  0  0
   24.1236  -21.0945   -8.4487 O   0  0  0  0  0  0  0  0  0  0  0  0
   24.7083  -22.0617  -10.4224 O   0  0  0  0  0  0  0  0  0  0  0  0
  2  1  1  6
  2 10  1  0
  3  2  1  0
  4  3  1  0
  4  5  2  0
  6  5  1  0
  7  6  2  0
  8  9  2  0
  8  7  1  0
  9  4  1  0
 10 11  2  0
 12 10  1  0
 12 13  1  0
 13 14  1  0
 14 15  2  0
 16 17  1  0
 16 14  1  0
 18 19  1  0
 18 17  1  0
 20 18  2  0
M  END
$$$$
