FGG.pdb
     RDKit          3D

 20 20  0  0  1  0  0  0  0  0999 V2000
   24.9577   -7.4083  -15.4919 N   0  0  0  0  0  0  0  0  0  0  0  0
   23.7101   -8.1283  -15.3841 C   0  0  1  0  0  0  0  0  0  0  0  0
   23.9110   -9.4536  -14.6575 C   0  0  0  0  0  0  0  0  0  0  0  0
   24.9315  -10.2185  -15.4161 C   0  0  0  0  0  0  0  0  0  0  0  0
   26.1851  -10.4286  -14.8976 C   0  0  0  0  0  0  0  0  0  0  0  0
   27.1391  -11.1384  -15.5962 C   0  0  0  0  0  0  0  0  0  0  0  0
   26.8338  -11.6518  -16.8450 C   0  0  0  0  0  0  0  0  0  0  0  0
   25.5870  -11.4526  -17.3799 C   0  0  0  0  0  0  0  0  0  0  0  0
   24.6368  -10.7333  -16.6595 C   0  0  0  0  0  0  0  0  0  0  0  0
   22.6817   -7.3120  -14.6573 C   0  0  0  0  0  0  0  0  0  0  0  0
   21.5028   -7.7373  -14.5328 O   0  0  0  0  0  0  0  0  0  0  0  0
   22.9978   -6.0531  -14.0947 N   0  0  0  0  0  0  0  0  0  0  0  0
   22.0296   -5.2320  -13.3985 C   0  0  0  0  0  0  0  0  0  0  0  0
   21.2431   -4.4771  -14.3894 C   0  0  0  0  0  0  0  0  0  0  0  0
   21.7933   -4.0564  -15.4340 O   0  0  0  0  0  0  0  0  0  0  0  0
   19.8482   -4.1952  -14.2110 N   0  0  0  0  0  0  0  0  0  0  0  0
   19.1110   -3.6055  -15.3124 C   0  0  0  0  0  0  0  0  0  0  0  0
   19.4000   -2.1781  -15.4684 C   0  0  0  0  0  0  0  0  0  0  0  0
   20.4287   -1.5178  -14.7898 O   0  0  0  0  0  0  0  0  0  0  0  0
   18.6877   -1.5068  -16.2534 O   0  0  0  0  0  0  0  0  0  0  0  0
  2  1  1  1
  2 10  1  0
  3  2  1  0
  4  3  1  0
  4  5  2  0
  6  5  1  0
  7  6  2  0
  8  9  2  0
  8  7  1  0
  9  4  1  0
 10 11  2  0
 12 10  1  0
 12 13  1  0
 13 14  1  0
 14 15  2  0
 16 17  1  0
 16 14  1  0
 18 19  1  0
 18 17  1  0
 20 18  2  0
M  END
$$$$
