FGG.pdb
     RDKit          3D

 20 20  0  0  1  0  0  0  0  0999 V2000
   28.1915  -23.1403  -16.5140 N   0  0  0  0  0  0  0  0  0  0  0  0
   26.8499  -22.9197  -17.0016 C   0  0  1  0  0  0  0  0  0  0  0  0
   25.9896  -24.1624  -16.8005 C   0  0  0  0  0  0  0  0  0  0  0  0
   26.8544  -25.3402  -17.0592 C   0  0  0  0  0  0  0  0  0  0  0  0
   27.0832  -26.2758  -16.0810 C   0  0  0  0  0  0  0  0  0  0  0  0
   27.8857  -27.3731  -16.3135 C   0  0  0  0  0  0  0  0  0  0  0  0
   28.4751  -27.5408  -17.5548 C   0  0  0  0  0  0  0  0  0  0  0  0
   28.2586  -26.6171  -18.5448 C   0  0  0  0  0  0  0  0  0  0  0  0
   27.4453  -25.5155  -18.2913 C   0  0  0  0  0  0  0  0  0  0  0  0
   26.2118  -21.7535  -16.3053 C   0  0  0  0  0  0  0  0  0  0  0  0
   26.8121  -21.1657  -15.3670 O   0  0  0  0  0  0  0  0  0  0  0  0
   24.9305  -21.2809  -16.6747 N   0  0  0  0  0  0  0  0  0  0  0  0
   24.4854  -21.1943  -18.0496 C   0  0  0  0  0  0  0  0  0  0  0  0
   23.0754  -21.6152  -18.1226 C   0  0  0  0  0  0  0  0  0  0  0  0
   22.6694  -22.2690  -19.1118 O   0  0  0  0  0  0  0  0  0  0  0  0
   22.1259  -21.3054  -17.0933 N   0  0  0  0  0  0  0  0  0  0  0  0
   22.1123  -22.1178  -15.8917 C   0  0  0  0  0  0  0  0  0  0  0  0
   21.5361  -23.4435  -16.1284 C   0  0  0  0  0  0  0  0  0  0  0  0
   21.2671  -24.3635  -15.1106 O   0  0  0  0  0  0  0  0  0  0  0  0
   21.2676  -23.7762  -17.3079 O   0  0  0  0  0  0  0  0  0  0  0  0
  2  1  1  1
  2 10  1  0
  3  2  1  0
  4  3  1  0
  4  5  2  0
  6  5  1  0
  7  6  2  0
  8  9  2  0
  8  7  1  0
  9  4  1  0
 10 11  2  0
 12 10  1  0
 12 13  1  0
 13 14  1  0
 14 15  2  0
 16 17  1  0
 16 14  1  0
 18 19  1  0
 18 17  1  0
 20 18  2  0
M  END
$$$$
