FGG.pdb
     RDKit          3D

 20 20  0  0  1  0  0  0  0  0999 V2000
   27.8660  -21.2972   -8.9810 N   0  0  0  0  0  0  0  0  0  0  0  0
   26.4678  -20.9560   -9.1033 C   0  0  1  0  0  0  0  0  0  0  0  0
   25.9305  -20.3958   -7.7909 C   0  0  0  0  0  0  0  0  0  0  0  0
   27.1027  -20.0050   -6.9691 C   0  0  0  0  0  0  0  0  0  0  0  0
   27.0123  -18.9902   -6.0490 C   0  0  0  0  0  0  0  0  0  0  0  0
   28.0970  -18.6210   -5.2815 C   0  0  0  0  0  0  0  0  0  0  0  0
   29.3034  -19.2821   -5.4364 C   0  0  0  0  0  0  0  0  0  0  0  0
   29.4136  -20.2984   -6.3503 C   0  0  0  0  0  0  0  0  0  0  0  0
   28.3073  -20.6571   -7.1163 C   0  0  0  0  0  0  0  0  0  0  0  0
   26.2552  -19.9519  -10.1982 C   0  0  0  0  0  0  0  0  0  0  0  0
   25.6802  -18.8579   -9.9563 O   0  0  0  0  0  0  0  0  0  0  0  0
   26.6882  -20.1974  -11.5224 N   0  0  0  0  0  0  0  0  0  0  0  0
   26.3717  -21.4108  -12.2462 C   0  0  0  0  0  0  0  0  0  0  0  0
   25.0542  -21.2550  -12.8866 C   0  0  0  0  0  0  0  0  0  0  0  0
   24.6622  -22.1025  -13.7228 O   0  0  0  0  0  0  0  0  0  0  0  0
   24.1807  -20.1562  -12.5919 N   0  0  0  0  0  0  0  0  0  0  0  0
   22.9109  -20.0706  -13.2878 C   0  0  0  0  0  0  0  0  0  0  0  0
   21.8427  -20.7757  -12.5757 C   0  0  0  0  0  0  0  0  0  0  0  0
   21.1539  -21.8723  -13.1025 O   0  0  0  0  0  0  0  0  0  0  0  0
   21.5247  -20.3769  -11.4293 O   0  0  0  0  0  0  0  0  0  0  0  0
  2  1  1  1
  2 10  1  0
  3  2  1  0
  4  3  1  0
  4  5  2  0
  6  5  1  0
  7  6  2  0
  8  9  2  0
  8  7  1  0
  9  4  1  0
 10 11  2  0
 12 10  1  0
 12 13  1  0
 13 14  1  0
 14 15  2  0
 16 17  1  0
 16 14  1  0
 18 19  1  0
 18 17  1  0
 20 18  2  0
M  END
$$$$
