FGG.pdb
     RDKit          3D

 20 20  0  0  1  0  0  0  0  0999 V2000
   27.6306  -20.9912   -9.0433 N   0  0  0  0  0  0  0  0  0  0  0  0
   26.3918  -20.4868   -8.4980 C   0  0  1  0  0  0  0  0  0  0  0  0
   26.6275  -19.1945   -7.7239 C   0  0  0  0  0  0  0  0  0  0  0  0
   27.4253  -19.5432   -6.5222 C   0  0  0  0  0  0  0  0  0  0  0  0
   26.8354  -20.1283   -5.4294 C   0  0  0  0  0  0  0  0  0  0  0  0
   27.5698  -20.4554   -4.3088 C   0  0  0  0  0  0  0  0  0  0  0  0
   28.9284  -20.1917   -4.2784 C   0  0  0  0  0  0  0  0  0  0  0  0
   29.5359  -19.6078   -5.3602 C   0  0  0  0  0  0  0  0  0  0  0  0
   28.7778  -19.2846   -6.4828 C   0  0  0  0  0  0  0  0  0  0  0  0
   25.3885  -20.2402   -9.5865 C   0  0  0  0  0  0  0  0  0  0  0  0
   25.7708  -19.9813  -10.7582 O   0  0  0  0  0  0  0  0  0  0  0  0
   23.9970  -20.2895   -9.3361 N   0  0  0  0  0  0  0  0  0  0  0  0
   23.0310  -19.5095  -10.0807 C   0  0  0  0  0  0  0  0  0  0  0  0
   22.2303  -20.4166  -10.9211 C   0  0  0  0  0  0  0  0  0  0  0  0
   21.6771  -21.4175  -10.4082 O   0  0  0  0  0  0  0  0  0  0  0  0
   22.0504  -20.2037  -12.3280 N   0  0  0  0  0  0  0  0  0  0  0  0
   22.3935  -21.2753  -13.2434 C   0  0  0  0  0  0  0  0  0  0  0  0
   21.6245  -21.2052  -14.4881 C   0  0  0  0  0  0  0  0  0  0  0  0
   22.0384  -20.4877  -15.6144 O   0  0  0  0  0  0  0  0  0  0  0  0
   20.5335  -21.8215  -14.5517 O   0  0  0  0  0  0  0  0  0  0  0  0
  2  1  1  6
  2 10  1  0
  3  2  1  0
  4  3  1  0
  4  5  2  0
  6  5  1  0
  7  6  2  0
  8  9  2  0
  8  7  1  0
  9  4  1  0
 10 11  2  0
 12 10  1  0
 12 13  1  0
 13 14  1  0
 14 15  2  0
 16 17  1  0
 16 14  1  0
 18 19  1  0
 18 17  1  0
 20 18  2  0
M  END
$$$$
