FGG.pdb
     RDKit          3D

 20 20  0  0  1  0  0  0  0  0999 V2000
   26.3856  -24.2100  -17.7894 N   0  0  0  0  0  0  0  0  0  0  0  0
   27.7462  -23.7507  -17.9452 C   0  0  1  0  0  0  0  0  0  0  0  0
   27.8328  -22.2404  -17.7553 C   0  0  0  0  0  0  0  0  0  0  0  0
   27.0120  -21.6171  -18.8229 C   0  0  0  0  0  0  0  0  0  0  0  0
   25.7239  -21.2113  -18.5760 C   0  0  0  0  0  0  0  0  0  0  0  0
   24.9545  -20.6313  -19.5627 C   0  0  0  0  0  0  0  0  0  0  0  0
   25.4846  -20.4517  -20.8288 C   0  0  0  0  0  0  0  0  0  0  0  0
   26.7692  -20.8505  -21.0950 C   0  0  0  0  0  0  0  0  0  0  0  0
   27.5309  -21.4343  -20.0858 C   0  0  0  0  0  0  0  0  0  0  0  0
   28.6564  -24.4297  -16.9639 C   0  0  0  0  0  0  0  0  0  0  0  0
   28.2025  -24.8748  -15.8767 O   0  0  0  0  0  0  0  0  0  0  0  0
   30.0377  -24.5906  -17.2239 N   0  0  0  0  0  0  0  0  0  0  0  0
   30.9574  -25.1833  -16.2758 C   0  0  0  0  0  0  0  0  0  0  0  0
   32.2841  -25.2989  -16.9057 C   0  0  0  0  0  0  0  0  0  0  0  0
   32.9829  -24.2735  -17.0825 O   0  0  0  0  0  0  0  0  0  0  0  0
   32.8249  -26.5560  -17.3350 N   0  0  0  0  0  0  0  0  0  0  0  0
   34.1365  -26.5743  -17.9543 C   0  0  0  0  0  0  0  0  0  0  0  0
   34.4945  -27.9055  -18.4494 C   0  0  0  0  0  0  0  0  0  0  0  0
   33.6470  -29.0146  -18.3703 O   0  0  0  0  0  0  0  0  0  0  0  0
   35.6230  -28.0640  -18.9743 O   0  0  0  0  0  0  0  0  0  0  0  0
  2  1  1  1
  2 10  1  0
  3  2  1  0
  4  3  1  0
  4  5  2  0
  6  5  1  0
  7  6  2  0
  8  9  2  0
  8  7  1  0
  9  4  1  0
 10 11  2  0
 12 10  1  0
 12 13  1  0
 13 14  1  0
 14 15  2  0
 16 17  1  0
 16 14  1  0
 18 19  1  0
 18 17  1  0
 20 18  2  0
M  END
$$$$
