FGG.pdb
     RDKit          3D

 20 20  0  0  1  0  0  0  0  0999 V2000
   34.8804  -26.6024  -17.9963 N   0  0  0  0  0  0  0  0  0  0  0  0
   34.6992  -27.9099  -18.5829 C   0  0  1  0  0  0  0  0  0  0  0  0
   33.7101  -28.7363  -17.7685 C   0  0  0  0  0  0  0  0  0  0  0  0
   33.7703  -30.1259  -18.2858 C   0  0  0  0  0  0  0  0  0  0  0  0
   32.7131  -30.6692  -18.9726 C   0  0  0  0  0  0  0  0  0  0  0  0
   32.7612  -31.9598  -19.4566 C   0  0  0  0  0  0  0  0  0  0  0  0
   33.8940  -32.7279  -19.2495 C   0  0  0  0  0  0  0  0  0  0  0  0
   34.9604  -32.2030  -18.5658 C   0  0  0  0  0  0  0  0  0  0  0  0
   34.8933  -30.8979  -18.0846 C   0  0  0  0  0  0  0  0  0  0  0  0
   34.2105  -27.7992  -19.9976 C   0  0  0  0  0  0  0  0  0  0  0  0
   33.4140  -26.8807  -20.3262 O   0  0  0  0  0  0  0  0  0  0  0  0
   34.6230  -28.7115  -20.9971 N   0  0  0  0  0  0  0  0  0  0  0  0
   34.2503  -28.5808  -22.3900 C   0  0  0  0  0  0  0  0  0  0  0  0
   33.0828  -29.4395  -22.6546 C   0  0  0  0  0  0  0  0  0  0  0  0
   32.6527  -29.5652  -23.8251 O   0  0  0  0  0  0  0  0  0  0  0  0
   32.4012  -30.1533  -21.6139 N   0  0  0  0  0  0  0  0  0  0  0  0
   31.2527  -30.9667  -21.9650 C   0  0  0  0  0  0  0  0  0  0  0  0
   30.0031  -30.2037  -21.9248 C   0  0  0  0  0  0  0  0  0  0  0  0
   28.7695  -30.7163  -22.3374 O   0  0  0  0  0  0  0  0  0  0  0  0
   30.0366  -29.0246  -21.4973 O   0  0  0  0  0  0  0  0  0  0  0  0
  2  1  1  1
  2 10  1  0
  3  2  1  0
  4  3  1  0
  4  5  2  0
  6  5  1  0
  7  6  2  0
  8  9  2  0
  8  7  1  0
  9  4  1  0
 10 11  2  0
 12 10  1  0
 12 13  1  0
 13 14  1  0
 14 15  2  0
 16 17  1  0
 16 14  1  0
 18 19  1  0
 18 17  1  0
 20 18  2  0
M  END
$$$$
