FGG.pdb
     RDKit          3D

 20 20  0  0  1  0  0  0  0  0999 V2000
   24.9782  -20.6024   -7.7476 N   0  0  0  0  0  0  0  0  0  0  0  0
   26.3136  -20.4598   -8.2793 C   0  0  1  0  0  0  0  0  0  0  0  0
   27.3149  -21.2545   -7.4483 C   0  0  0  0  0  0  0  0  0  0  0  0
   27.7833  -20.3639   -6.3577 C   0  0  0  0  0  0  0  0  0  0  0  0
   27.3727  -20.5590   -5.0623 C   0  0  0  0  0  0  0  0  0  0  0  0
   27.8034  -19.7357   -4.0431 C   0  0  0  0  0  0  0  0  0  0  0  0
   28.6664  -18.6905   -4.3243 C   0  0  0  0  0  0  0  0  0  0  0  0
   29.0878  -18.4794   -5.6120 C   0  0  0  0  0  0  0  0  0  0  0  0
   28.6421  -19.3212   -6.6279 C   0  0  0  0  0  0  0  0  0  0  0  0
   26.3738  -20.9197   -9.7066 C   0  0  0  0  0  0  0  0  0  0  0  0
   26.7060  -22.1031   -9.9809 O   0  0  0  0  0  0  0  0  0  0  0  0
   26.0633  -20.0503  -10.7785 N   0  0  0  0  0  0  0  0  0  0  0  0
   24.7389  -19.5087  -10.9998 C   0  0  0  0  0  0  0  0  0  0  0  0
   23.9450  -20.4859  -11.7647 C   0  0  0  0  0  0  0  0  0  0  0  0
   23.5442  -21.5359  -11.2099 O   0  0  0  0  0  0  0  0  0  0  0  0
   23.6019  -20.2879  -13.1432 N   0  0  0  0  0  0  0  0  0  0  0  0
   22.2651  -20.6371  -13.5847 C   0  0  0  0  0  0  0  0  0  0  0  0
   21.2860  -19.5990  -13.2544 C   0  0  0  0  0  0  0  0  0  0  0  0
   21.2320  -18.3553  -13.8907 O   0  0  0  0  0  0  0  0  0  0  0  0
   20.4476  -19.8344  -12.3512 O   0  0  0  0  0  0  0  0  0  0  0  0
  2  1  1  1
  2 10  1  0
  3  2  1  0
  4  3  1  0
  4  5  2  0
  6  5  1  0
  7  6  2  0
  8  9  2  0
  8  7  1  0
  9  4  1  0
 10 11  2  0
 12 10  1  0
 12 13  1  0
 13 14  1  0
 14 15  2  0
 16 17  1  0
 16 14  1  0
 18 19  1  0
 18 17  1  0
 20 18  2  0
M  END
$$$$
