FGG.pdb
     RDKit          3D

 20 20  0  0  1  0  0  0  0  0999 V2000
   22.0707   -7.9443  -16.3412 N   0  0  0  0  0  0  0  0  0  0  0  0
   22.1557   -8.5896  -15.0518 C   0  0  1  0  0  0  0  0  0  0  0  0
   23.5573   -9.1407  -14.8136 C   0  0  0  0  0  0  0  0  0  0  0  0
   23.7188  -10.3227  -15.6962 C   0  0  0  0  0  0  0  0  0  0  0  0
   24.1215  -10.1791  -17.0007 C   0  0  0  0  0  0  0  0  0  0  0  0
   24.2740  -11.2724  -17.8274 C   0  0  0  0  0  0  0  0  0  0  0  0
   24.0178  -12.5421  -17.3392 C   0  0  0  0  0  0  0  0  0  0  0  0
   23.6146  -12.7061  -16.0389 C   0  0  0  0  0  0  0  0  0  0  0  0
   23.4662  -11.5901  -15.2192 C   0  0  0  0  0  0  0  0  0  0  0  0
   21.8019   -7.6339  -13.9501 C   0  0  0  0  0  0  0  0  0  0  0  0
   21.8325   -8.0081  -12.7480 O   0  0  0  0  0  0  0  0  0  0  0  0
   21.4266   -6.2972  -14.2215 N   0  0  0  0  0  0  0  0  0  0  0  0
   22.1419   -5.1527  -13.6974 C   0  0  0  0  0  0  0  0  0  0  0  0
   21.5463   -3.9234  -14.2494 C   0  0  0  0  0  0  0  0  0  0  0  0
   21.9987   -2.8043  -13.9119 O   0  0  0  0  0  0  0  0  0  0  0  0
   20.4503   -3.9479  -15.1742 N   0  0  0  0  0  0  0  0  0  0  0  0
   19.9937   -2.6952  -15.7454 C   0  0  0  0  0  0  0  0  0  0  0  0
   19.1297   -1.9517  -14.8255 C   0  0  0  0  0  0  0  0  0  0  0  0
   18.4821   -2.5330  -13.7313 O   0  0  0  0  0  0  0  0  0  0  0  0
   18.9583   -0.7252  -15.0267 O   0  0  0  0  0  0  0  0  0  0  0  0
  2  1  1  6
  2 10  1  0
  3  2  1  0
  4  3  1  0
  4  5  2  0
  6  5  1  0
  7  6  2  0
  8  9  2  0
  8  7  1  0
  9  4  1  0
 10 11  2  0
 12 10  1  0
 12 13  1  0
 13 14  1  0
 14 15  2  0
 16 17  1  0
 16 14  1  0
 18 19  1  0
 18 17  1  0
 20 18  2  0
M  END
$$$$
