FGG.pdb
     RDKit          3D

 20 20  0  0  1  0  0  0  0  0999 V2000
   23.2878    2.1875   -2.0763 N   0  0  0  0  0  0  0  0  0  0  0  0
   24.5917    2.2115   -2.6972 C   0  0  1  0  0  0  0  0  0  0  0  0
   24.9737    0.8266   -3.2081 C   0  0  0  0  0  0  0  0  0  0  0  0
   25.0589   -0.0676   -2.0269 C   0  0  0  0  0  0  0  0  0  0  0  0
   23.9890   -0.8400   -1.6484 C   0  0  0  0  0  0  0  0  0  0  0  0
   24.0602   -1.6736   -0.5520 C   0  0  0  0  0  0  0  0  0  0  0  0
   25.2297   -1.7378    0.1858 C   0  0  0  0  0  0  0  0  0  0  0  0
   26.3093   -0.9739   -0.1765 C   0  0  0  0  0  0  0  0  0  0  0  0
   26.2186   -0.1381   -1.2867 C   0  0  0  0  0  0  0  0  0  0  0  0
   24.6253    3.1895   -3.8350 C   0  0  0  0  0  0  0  0  0  0  0  0
   23.5734    3.4620   -4.4718 O   0  0  0  0  0  0  0  0  0  0  0  0
   25.8245    3.8302   -4.2258 N   0  0  0  0  0  0  0  0  0  0  0  0
   25.9023    4.7529   -5.3388 C   0  0  0  0  0  0  0  0  0  0  0  0
   27.2037    4.5849   -6.0085 C   0  0  0  0  0  0  0  0  0  0  0  0
   28.1740    4.1056   -5.3762 O   0  0  0  0  0  0  0  0  0  0  0  0
   27.4168    4.9517   -7.3785 N   0  0  0  0  0  0  0  0  0  0  0  0
   28.7211    4.7152   -7.9675 C   0  0  0  0  0  0  0  0  0  0  0  0
   29.6707    5.7853   -7.6535 C   0  0  0  0  0  0  0  0  0  0  0  0
   29.3559    6.8907   -6.8575 O   0  0  0  0  0  0  0  0  0  0  0  0
   30.8319    5.7101   -8.1227 O   0  0  0  0  0  0  0  0  0  0  0  0
  2  1  1  6
  2 10  1  0
  3  2  1  0
  4  3  1  0
  4  5  2  0
  6  5  1  0
  7  6  2  0
  8  9  2  0
  8  7  1  0
  9  4  1  0
 10 11  2  0
 12 10  1  0
 12 13  1  0
 13 14  1  0
 14 15  2  0
 16 17  1  0
 16 14  1  0
 18 19  1  0
 18 17  1  0
 20 18  2  0
M  END
$$$$
