FHT.pdb
     RDKit          3D

 29 30  0  0  1  0  0  0  0  0999 V2000
   20.5143   -8.0825  -20.2921 N   0  0  0  0  0  0  0  0  0  0  0  0
   21.1623   -7.0910  -19.4576 C   0  0  1  0  0  0  0  0  0  0  0  0
   21.2822   -5.8282  -20.2715 C   0  0  0  0  0  0  0  0  0  0  0  0
   20.0963   -5.7637  -21.1582 C   0  0  0  0  0  0  0  0  0  0  0  0
   20.0975   -6.2499  -22.4339 C   0  0  0  0  0  0  0  0  0  0  0  0
   18.9566   -6.1628  -23.2229 C   0  0  0  0  0  0  0  0  0  0  0  0
   17.8204   -5.5771  -22.6986 C   0  0  0  0  0  0  0  0  0  0  0  0
   17.7945   -5.0808  -21.4183 C   0  0  0  0  0  0  0  0  0  0  0  0
   18.9525   -5.1824  -20.6522 C   0  0  0  0  0  0  0  0  0  0  0  0
   20.4077   -6.9388  -18.2224 C   0  0  0  0  0  0  0  0  0  0  0  0
   19.2474   -7.4225  -18.1347 O   0  0  0  0  0  0  0  0  0  0  0  0
   20.8860   -6.2661  -17.0638 N   0  0  0  0  0  0  0  0  0  0  0  0
   20.1320   -6.2320  -15.8214 C   0  0  1  0  0  0  0  0  0  0  0  0
   21.0421   -6.4284  -14.6285 C   0  0  0  0  0  0  0  0  0  0  0  0
   21.4398   -7.8474  -14.5202 C   0  0  0  0  0  0  0  0  0  0  0  0
   21.0502   -8.8918  -15.3406 C   0  0  0  0  0  0  0  0  0  0  0  0
   21.6351  -10.0481  -14.9083 N   0  0  0  0  0  0  0  0  0  0  0  0
   22.3713   -9.7256  -13.8425 C   0  0  0  0  0  0  0  0  0  0  0  0
   22.2516   -8.4138  -13.6154 N   0  0  0  0  0  0  0  0  0  0  0  0
   19.3223   -4.9895  -15.7441 C   0  0  0  0  0  0  0  0  0  0  0  0
   19.8062   -3.8461  -15.9363 O   0  0  0  0  0  0  0  0  0  0  0  0
   15.8653   -4.4175  -17.4835 C   0  0  0  0  0  0  0  0  0  0  0  0
   15.6973   -4.2262  -15.9965 C   0  0  1  0  0  0  0  0  0  0  0  0
   15.1474   -5.3939  -15.4873 O   0  0  0  0  0  0  0  0  0  0  0  0
   17.0504   -3.9361  -15.3858 C   0  0  2  0  0  0  0  0  0  0  0  0
   17.9189   -5.0935  -15.4353 N   0  0  0  0  0  0  0  0  0  0  0  0
   16.8983   -3.4931  -13.9976 C   0  0  0  0  0  0  0  0  0  0  0  0
   17.3945   -4.2116  -13.0750 O   0  0  0  0  0  0  0  0  0  0  0  0
   16.2261   -2.3159  -13.7180 O   0  0  0  0  0  0  0  0  0  0  0  0
  2  3  1  0
  2  1  1  6
  4  3  1  0
  4  9  1  0
  5  4  2  0
  6  5  1  0
  6  7  2  0
  7  8  1  0
  8  9  2  0
 10  2  1  0
 11 10  2  0
 12 10  1  0
 13 12  1  0
 14 15  1  0
 13 14  1  1
 15 19  1  0
 16 15  2  0
 16 17  1  0
 17 18  1  0
 19 18  2  0
 20 13  1  0
 20 21  2  0
 23 22  1  6
 23 25  1  0
 24 23  1  0
 25 26  1  1
 26 20  1  0
 27 25  1  0
 28 27  2  0
 29 27  1  0
M  END
$$$$
