FHT.pdb
     RDKit          3D

 29 30  0  0  1  0  0  0  0  0999 V2000
   28.4083  -20.6924   -9.3501 N   0  0  0  0  0  0  0  0  0  0  0  0
   27.0158  -20.5168   -8.9901 C   0  0  1  0  0  0  0  0  0  0  0  0
   26.9409  -19.3461   -8.0440 C   0  0  0  0  0  0  0  0  0  0  0  0
   27.7611  -19.6877   -6.8577 C   0  0  0  0  0  0  0  0  0  0  0  0
   28.9680  -19.1046   -6.5984 C   0  0  0  0  0  0  0  0  0  0  0  0
   29.6966  -19.4631   -5.4704 C   0  0  0  0  0  0  0  0  0  0  0  0
   29.1828  -20.4181   -4.6143 C   0  0  0  0  0  0  0  0  0  0  0  0
   27.9712  -21.0187   -4.8535 C   0  0  0  0  0  0  0  0  0  0  0  0
   27.2645  -20.6391   -5.9914 C   0  0  0  0  0  0  0  0  0  0  0  0
   26.2248  -20.3602  -10.2017 C   0  0  0  0  0  0  0  0  0  0  0  0
   26.4510  -19.3915  -10.9754 O   0  0  0  0  0  0  0  0  0  0  0  0
   25.1804  -21.2394  -10.6013 N   0  0  0  0  0  0  0  0  0  0  0  0
   24.4752  -21.0816  -11.8627 C   0  0  1  0  0  0  0  0  0  0  0  0
   24.7041  -22.2742  -12.7654 C   0  0  0  0  0  0  0  0  0  0  0  0
   25.9708  -22.1137  -13.5092 C   0  0  0  0  0  0  0  0  0  0  0  0
   26.8695  -21.0652  -13.4172 C   0  0  0  0  0  0  0  0  0  0  0  0
   27.9146  -21.2901  -14.2676 N   0  0  0  0  0  0  0  0  0  0  0  0
   27.6673  -22.4537  -14.8732 C   0  0  0  0  0  0  0  0  0  0  0  0
   26.5086  -22.9403  -14.4181 N   0  0  0  0  0  0  0  0  0  0  0  0
   23.0383  -20.7975  -11.6177 C   0  0  0  0  0  0  0  0  0  0  0  0
   22.4532  -21.1083  -10.5502 O   0  0  0  0  0  0  0  0  0  0  0  0
   21.0513  -17.4318  -12.8524 C   0  0  0  0  0  0  0  0  0  0  0  0
   20.4297  -18.7019  -13.3779 C   0  0  1  0  0  0  0  0  0  0  0  0
   20.8611  -18.8645  -14.6866 O   0  0  0  0  0  0  0  0  0  0  0  0
   20.8630  -19.8563  -12.5017 C   0  0  2  0  0  0  0  0  0  0  0  0
   22.2762  -20.1364  -12.6462 N   0  0  0  0  0  0  0  0  0  0  0  0
   20.0874  -21.0575  -12.8213 C   0  0  0  0  0  0  0  0  0  0  0  0
   20.6897  -22.0452  -13.3458 O   0  0  0  0  0  0  0  0  0  0  0  0
   18.7306  -21.0958  -12.5504 O   0  0  0  0  0  0  0  0  0  0  0  0
  2  3  1  0
  2  1  1  6
  4  3  1  0
  4  9  1  0
  5  4  2  0
  6  5  1  0
  6  7  2  0
  7  8  1  0
  8  9  2  0
 10  2  1  0
 11 10  2  0
 12 10  1  0
 13 12  1  0
 14 15  1  0
 13 14  1  6
 15 19  1  0
 16 15  2  0
 16 17  1  0
 17 18  1  0
 19 18  2  0
 20 13  1  0
 20 21  2  0
 23 22  1  1
 23 25  1  0
 24 23  1  0
 25 26  1  6
 26 20  1  0
 27 25  1  0
 28 27  2  0
 29 27  1  0
M  END
$$$$
