FHT.pdb
     RDKit          3D

 29 30  0  0  1  0  0  0  0  0999 V2000
   28.1391  -20.3997   -9.6574 N   0  0  0  0  0  0  0  0  0  0  0  0
   26.7649  -20.8485   -9.5600 C   0  0  1  0  0  0  0  0  0  0  0  0
   26.1646  -20.1955   -8.3416 C   0  0  0  0  0  0  0  0  0  0  0  0
   27.2081  -20.1876   -7.2891 C   0  0  0  0  0  0  0  0  0  0  0  0
   27.4283  -19.1163   -6.4720 C   0  0  0  0  0  0  0  0  0  0  0  0
   28.4216  -19.1625   -5.5009 C   0  0  0  0  0  0  0  0  0  0  0  0
   29.1838  -20.3078   -5.3735 C   0  0  0  0  0  0  0  0  0  0  0  0
   28.9814  -21.3982   -6.1835 C   0  0  0  0  0  0  0  0  0  0  0  0
   27.9792  -21.3222   -7.1469 C   0  0  0  0  0  0  0  0  0  0  0  0
   26.0738  -20.5458  -10.8045 C   0  0  0  0  0  0  0  0  0  0  0  0
   25.9415  -19.3473  -11.1710 O   0  0  0  0  0  0  0  0  0  0  0  0
   25.5146  -21.5231  -11.6739 N   0  0  0  0  0  0  0  0  0  0  0  0
   24.8111  -21.1626  -12.8939 C   0  0  1  0  0  0  0  0  0  0  0  0
   25.6242  -21.5265  -14.1171 C   0  0  0  0  0  0  0  0  0  0  0  0
   26.6981  -20.5336  -14.3280 C   0  0  0  0  0  0  0  0  0  0  0  0
   28.0627  -20.7406  -14.2253 C   0  0  0  0  0  0  0  0  0  0  0  0
   28.7183  -19.5731  -14.4958 N   0  0  0  0  0  0  0  0  0  0  0  0
   27.7785  -18.6627  -14.7603 C   0  0  0  0  0  0  0  0  0  0  0  0
   26.5771  -19.2396  -14.6590 N   0  0  0  0  0  0  0  0  0  0  0  0
   23.4488  -21.7539  -12.8970 C   0  0  0  0  0  0  0  0  0  0  0  0
   23.2409  -22.9903  -12.8151 O   0  0  0  0  0  0  0  0  0  0  0  0
   20.2855  -19.3709  -11.6104 C   0  0  0  0  0  0  0  0  0  0  0  0
   20.2842  -20.8795  -11.6217 C   0  0  1  0  0  0  0  0  0  0  0  0
   18.9620  -21.2939  -11.5508 O   0  0  0  0  0  0  0  0  0  0  0  0
   20.9502  -21.3586  -12.8925 C   0  0  2  0  0  0  0  0  0  0  0  0
   22.3111  -20.8758  -12.9981 N   0  0  0  0  0  0  0  0  0  0  0  0
   20.1823  -20.9279  -14.0636 C   0  0  0  0  0  0  0  0  0  0  0  0
   20.7221  -20.1138  -14.8755 O   0  0  0  0  0  0  0  0  0  0  0  0
   18.8996  -21.4082  -14.2632 O   0  0  0  0  0  0  0  0  0  0  0  0
  2  3  1  0
  2  1  1  6
  4  3  1  0
  4  9  1  0
  5  4  2  0
  6  5  1  0
  6  7  2  0
  7  8  1  0
  8  9  2  0
 10  2  1  0
 11 10  2  0
 12 10  1  0
 13 12  1  0
 14 15  1  0
 13 14  1  6
 15 19  1  0
 16 15  2  0
 16 17  1  0
 17 18  1  0
 19 18  2  0
 20 13  1  0
 20 21  2  0
 23 22  1  6
 23 25  1  0
 24 23  1  0
 25 26  1  6
 26 20  1  0
 27 25  1  0
 28 27  2  0
 29 27  1  0
M  END
$$$$
