FHT.pdb
     RDKit          3D

 29 30  0  0  1  0  0  0  0  0999 V2000
   24.6061  -21.1592  -17.9962 N   0  0  0  0  0  0  0  0  0  0  0  0
   23.7223  -20.1740  -17.4066 C   0  0  1  0  0  0  0  0  0  0  0  0
   23.0077  -19.4785  -18.5367 C   0  0  0  0  0  0  0  0  0  0  0  0
   24.0207  -18.6886  -19.2759 C   0  0  0  0  0  0  0  0  0  0  0  0
   24.3918  -18.9743  -20.5584 C   0  0  0  0  0  0  0  0  0  0  0  0
   25.3482  -18.2001  -21.2048 C   0  0  0  0  0  0  0  0  0  0  0  0
   25.9186  -17.1368  -20.5319 C   0  0  0  0  0  0  0  0  0  0  0  0
   25.5619  -16.8295  -19.2418 C   0  0  0  0  0  0  0  0  0  0  0  0
   24.6013  -17.6230  -18.6205 C   0  0  0  0  0  0  0  0  0  0  0  0
   22.8402  -20.8322  -16.4542 C   0  0  0  0  0  0  0  0  0  0  0  0
   22.4557  -22.0126  -16.6703 O   0  0  0  0  0  0  0  0  0  0  0  0
   22.3579  -20.2345  -15.2568 N   0  0  0  0  0  0  0  0  0  0  0  0
   21.4589  -20.9310  -14.3512 C   0  0  1  0  0  0  0  0  0  0  0  0
   21.8820  -20.7380  -12.9113 C   0  0  0  0  0  0  0  0  0  0  0  0
   23.1344  -21.4758  -12.6458 C   0  0  0  0  0  0  0  0  0  0  0  0
   23.8903  -22.1975  -13.5531 C   0  0  0  0  0  0  0  0  0  0  0  0
   24.9744  -22.7304  -12.9152 N   0  0  0  0  0  0  0  0  0  0  0  0
   24.8907  -22.3461  -11.6395 C   0  0  0  0  0  0  0  0  0  0  0  0
   23.7932  -21.5992  -11.4842 N   0  0  0  0  0  0  0  0  0  0  0  0
   20.0531  -20.5278  -14.6095 C   0  0  0  0  0  0  0  0  0  0  0  0
   19.7033  -19.3308  -14.7624 O   0  0  0  0  0  0  0  0  0  0  0  0
   17.8806  -22.0109  -17.3799 C   0  0  0  0  0  0  0  0  0  0  0  0
   17.1429  -22.2282  -16.0819 C   0  0  1  0  0  0  0  0  0  0  0  0
   17.3576  -23.5440  -15.6978 O   0  0  0  0  0  0  0  0  0  0  0  0
   17.6708  -21.2546  -15.0516 C   0  0  2  0  0  0  0  0  0  0  0  0
   19.0411  -21.5500  -14.6892 N   0  0  0  0  0  0  0  0  0  0  0  0
   16.8287  -21.2752  -13.8529 C   0  0  0  0  0  0  0  0  0  0  0  0
   17.3360  -21.6869  -12.7636 O   0  0  0  0  0  0  0  0  0  0  0  0
   15.5129  -20.8518  -13.9259 O   0  0  0  0  0  0  0  0  0  0  0  0
  2  3  1  0
  2  1  1  6
  4  3  1  0
  4  9  1  0
  5  4  2  0
  6  5  1  0
  6  7  2  0
  7  8  1  0
  8  9  2  0
 10  2  1  0
 11 10  2  0
 12 10  1  0
 13 12  1  0
 14 15  1  0
 13 14  1  1
 15 19  1  0
 16 15  2  0
 16 17  1  0
 17 18  1  0
 19 18  2  0
 20 13  1  0
 20 21  2  0
 23 22  1  6
 23 25  1  0
 24 23  1  0
 25 26  1  1
 26 20  1  0
 27 25  1  0
 28 27  2  0
 29 27  1  0
M  END
$$$$
