FHT.pdb
     RDKit          3D

 29 30  0  0  1  0  0  0  0  0999 V2000
   24.4992  -20.1304   -8.7021 N   0  0  0  0  0  0  0  0  0  0  0  0
   25.8426  -19.9790   -9.2232 C   0  0  1  0  0  0  0  0  0  0  0  0
   26.6717  -21.1054   -8.6617 C   0  0  0  0  0  0  0  0  0  0  0  0
   27.4619  -20.5501   -7.5375 C   0  0  0  0  0  0  0  0  0  0  0  0
   26.8908  -20.0936   -6.3846 C   0  0  0  0  0  0  0  0  0  0  0  0
   27.6800  -19.5818   -5.3613 C   0  0  0  0  0  0  0  0  0  0  0  0
   29.0511  -19.5412   -5.5265 C   0  0  0  0  0  0  0  0  0  0  0  0
   29.6489  -19.9944   -6.6768 C   0  0  0  0  0  0  0  0  0  0  0  0
   28.8325  -20.5014   -7.6841 C   0  0  0  0  0  0  0  0  0  0  0  0
   25.7898  -19.9403  -10.6772 C   0  0  0  0  0  0  0  0  0  0  0  0
   24.7127  -20.2139  -11.2715 O   0  0  0  0  0  0  0  0  0  0  0  0
   26.8906  -19.6080  -11.5148 N   0  0  0  0  0  0  0  0  0  0  0  0
   26.7198  -19.2560  -12.9149 C   0  0  1  0  0  0  0  0  0  0  0  0
   27.9677  -18.6012  -13.4661 C   0  0  0  0  0  0  0  0  0  0  0  0
   27.7545  -18.2038  -14.8732 C   0  0  0  0  0  0  0  0  0  0  0  0
   26.9324  -17.1948  -15.3437 C   0  0  0  0  0  0  0  0  0  0  0  0
   27.0131  -17.1448  -16.7064 N   0  0  0  0  0  0  0  0  0  0  0  0
   27.8675  -18.1033  -17.0713 C   0  0  0  0  0  0  0  0  0  0  0  0
   28.3063  -18.7311  -15.9760 N   0  0  0  0  0  0  0  0  0  0  0  0
   26.2855  -20.4426  -13.6952 C   0  0  0  0  0  0  0  0  0  0  0  0
   26.8235  -21.5718  -13.5769 O   0  0  0  0  0  0  0  0  0  0  0  0
   23.8098  -22.8518  -13.7868 C   0  0  0  0  0  0  0  0  0  0  0  0
   23.5000  -22.0224  -15.0083 C   0  0  1  0  0  0  0  0  0  0  0  0
   22.5597  -21.0721  -14.6371 O   0  0  0  0  0  0  0  0  0  0  0  0
   24.7781  -21.3788  -15.4982 C   0  0  2  0  0  0  0  0  0  0  0  0
   25.1996  -20.2986  -14.6310 N   0  0  0  0  0  0  0  0  0  0  0  0
   24.6044  -20.8756  -16.8632 C   0  0  0  0  0  0  0  0  0  0  0  0
   24.4849  -21.7165  -17.8078 O   0  0  0  0  0  0  0  0  0  0  0  0
   24.5737  -19.5119  -17.0978 O   0  0  0  0  0  0  0  0  0  0  0  0
  2  3  1  0
  2  1  1  1
  4  3  1  0
  4  9  1  0
  5  4  2  0
  6  5  1  0
  6  7  2  0
  7  8  1  0
  8  9  2  0
 10  2  1  0
 11 10  2  0
 12 10  1  0
 13 12  1  0
 14 15  1  0
 13 14  1  6
 15 19  1  0
 16 15  2  0
 16 17  1  0
 17 18  1  0
 19 18  2  0
 20 13  1  0
 20 21  2  0
 23 22  1  1
 23 25  1  0
 24 23  1  0
 25 26  1  1
 26 20  1  0
 27 25  1  0
 28 27  2  0
 29 27  1  0
M  END
$$$$
