FHT.pdb
     RDKit          3D

 29 30  0  0  1  0  0  0  0  0999 V2000
   27.7743  -20.3124  -16.0635 N   0  0  0  0  0  0  0  0  0  0  0  0
   27.0120  -19.4469  -15.1864 C   0  0  1  0  0  0  0  0  0  0  0  0
   26.1120  -18.6069  -16.0557 C   0  0  0  0  0  0  0  0  0  0  0  0
   26.8679  -17.3842  -16.4170 C   0  0  0  0  0  0  0  0  0  0  0  0
   26.9764  -16.3071  -15.5852 C   0  0  0  0  0  0  0  0  0  0  0  0
   27.6977  -15.1848  -15.9750 C   0  0  0  0  0  0  0  0  0  0  0  0
   28.3038  -15.1736  -17.2165 C   0  0  0  0  0  0  0  0  0  0  0  0
   28.2091  -16.2446  -18.0709 C   0  0  0  0  0  0  0  0  0  0  0  0
   27.4799  -17.3545  -17.6526 C   0  0  0  0  0  0  0  0  0  0  0  0
   26.3092  -20.2600  -14.2050 C   0  0  0  0  0  0  0  0  0  0  0  0
   25.8452  -21.3828  -14.5400 O   0  0  0  0  0  0  0  0  0  0  0  0
   26.0937  -19.8814  -12.8508 N   0  0  0  0  0  0  0  0  0  0  0  0
   25.2658  -20.6660  -11.9496 C   0  0  1  0  0  0  0  0  0  0  0  0
   25.7383  -20.5271  -10.5188 C   0  0  0  0  0  0  0  0  0  0  0  0
   27.1963  -20.7544  -10.4402 C   0  0  0  0  0  0  0  0  0  0  0  0
   28.0529  -21.0674  -11.4813 C   0  0  0  0  0  0  0  0  0  0  0  0
   29.3237  -21.1970  -10.9972 N   0  0  0  0  0  0  0  0  0  0  0  0
   29.2545  -20.9689   -9.6838 C   0  0  0  0  0  0  0  0  0  0  0  0
   27.9854  -20.7058   -9.3570 N   0  0  0  0  0  0  0  0  0  0  0  0
   23.8335  -20.3183  -12.1315 C   0  0  0  0  0  0  0  0  0  0  0  0
   23.3791  -19.1654  -11.9241 O   0  0  0  0  0  0  0  0  0  0  0  0
   21.8879  -21.0411  -15.2970 C   0  0  0  0  0  0  0  0  0  0  0  0
   21.1084  -21.6875  -14.1787 C   0  0  1  0  0  0  0  0  0  0  0  0
   21.3849  -23.0468  -14.2118 O   0  0  0  0  0  0  0  0  0  0  0  0
   21.5311  -21.0656  -12.8662 C   0  0  2  0  0  0  0  0  0  0  0  0
   22.9196  -21.3442  -12.5648 N   0  0  0  0  0  0  0  0  0  0  0  0
   20.6828  -21.5523  -11.7754 C   0  0  0  0  0  0  0  0  0  0  0  0
   21.2141  -22.2621  -10.8658 O   0  0  0  0  0  0  0  0  0  0  0  0
   19.3356  -21.2354  -11.7540 O   0  0  0  0  0  0  0  0  0  0  0  0
  2  3  1  0
  2  1  1  6
  4  3  1  0
  4  9  1  0
  5  4  2  0
  6  5  1  0
  6  7  2  0
  7  8  1  0
  8  9  2  0
 10  2  1  0
 11 10  2  0
 12 10  1  0
 13 12  1  0
 14 15  1  0
 13 14  1  1
 15 19  1  0
 16 15  2  0
 16 17  1  0
 17 18  1  0
 19 18  2  0
 20 13  1  0
 20 21  2  0
 23 22  1  6
 23 25  1  0
 24 23  1  0
 25 26  1  1
 26 20  1  0
 27 25  1  0
 28 27  2  0
 29 27  1  0
M  END
$$$$
