FHT.pdb
     RDKit          3D

 29 30  0  0  1  0  0  0  0  0999 V2000
   23.8222  -13.2010  -17.6310 N   0  0  0  0  0  0  0  0  0  0  0  0
   23.8076  -12.7182  -16.2650 C   0  0  1  0  0  0  0  0  0  0  0  0
   25.2363  -12.4469  -15.8694 C   0  0  0  0  0  0  0  0  0  0  0  0
   25.9051  -13.7603  -15.7129 C   0  0  0  0  0  0  0  0  0  0  0  0
   25.6168  -14.6219  -14.6938 C   0  0  0  0  0  0  0  0  0  0  0  0
   26.2752  -15.8419  -14.5943 C   0  0  0  0  0  0  0  0  0  0  0  0
   27.2259  -16.1714  -15.5410 C   0  0  0  0  0  0  0  0  0  0  0  0
   27.5334  -15.3216  -16.5751 C   0  0  0  0  0  0  0  0  0  0  0  0
   26.8573  -14.1067  -16.6485 C   0  0  0  0  0  0  0  0  0  0  0  0
   22.9306  -11.5601  -16.1765 C   0  0  0  0  0  0  0  0  0  0  0  0
   22.8415  -10.7670  -17.1518 O   0  0  0  0  0  0  0  0  0  0  0  0
   22.1368  -11.2354  -15.0415 N   0  0  0  0  0  0  0  0  0  0  0  0
   21.2254  -10.1029  -15.0322 C   0  0  1  0  0  0  0  0  0  0  0  0
   19.9904  -10.4068  -14.2124 C   0  0  0  0  0  0  0  0  0  0  0  0
   19.0958   -9.2311  -14.1852 C   0  0  0  0  0  0  0  0  0  0  0  0
   18.9322   -8.3264  -13.1507 C   0  0  0  0  0  0  0  0  0  0  0  0
   18.0141   -7.3833  -13.5163 N   0  0  0  0  0  0  0  0  0  0  0  0
   17.6179   -7.6983  -14.7515 C   0  0  0  0  0  0  0  0  0  0  0  0
   18.2650   -8.7995  -15.1454 N   0  0  0  0  0  0  0  0  0  0  0  0
   21.9345   -8.8744  -14.5927 C   0  0  0  0  0  0  0  0  0  0  0  0
   22.7902   -8.8721  -13.6727 O   0  0  0  0  0  0  0  0  0  0  0  0
   24.2700   -6.7358  -16.3166 C   0  0  0  0  0  0  0  0  0  0  0  0
   23.0905   -5.8321  -16.0557 C   0  0  1  0  0  0  0  0  0  0  0  0
   22.3344   -5.7904  -17.2183 O   0  0  0  0  0  0  0  0  0  0  0  0
   22.2963   -6.3890  -14.8951 C   0  0  2  0  0  0  0  0  0  0  0  0
   21.6321   -7.6267  -15.2464 N   0  0  0  0  0  0  0  0  0  0  0  0
   21.3057   -5.4103  -14.4394 C   0  0  0  0  0  0  0  0  0  0  0  0
   20.0742   -5.6723  -14.6074 O   0  0  0  0  0  0  0  0  0  0  0  0
   21.7220   -4.2332  -13.8421 O   0  0  0  0  0  0  0  0  0  0  0  0
  2  3  1  0
  2  1  1  6
  4  3  1  0
  4  9  1  0
  5  4  2  0
  6  5  1  0
  6  7  2  0
  7  8  1  0
  8  9  2  0
 10  2  1  0
 11 10  2  0
 12 10  1  0
 13 12  1  0
 14 15  1  0
 13 14  1  1
 15 19  1  0
 16 15  2  0
 16 17  1  0
 17 18  1  0
 19 18  2  0
 20 13  1  0
 20 21  2  0
 23 22  1  6
 23 25  1  0
 24 23  1  0
 25 26  1  6
 26 20  1  0
 27 25  1  0
 28 27  2  0
 29 27  1  0
M  END
$$$$
