FHT.pdb
     RDKit          3D

 29 30  0  0  1  0  0  0  0  0999 V2000
   23.1176   -9.8369  -16.8976 N   0  0  0  0  0  0  0  0  0  0  0  0
   22.6420   -9.2923  -15.6419 C   0  0  1  0  0  0  0  0  0  0  0  0
   23.7048   -8.3556  -15.1276 C   0  0  0  0  0  0  0  0  0  0  0  0
   25.0135   -9.0179  -15.3405 C   0  0  0  0  0  0  0  0  0  0  0  0
   25.8903   -8.6311  -16.3128 C   0  0  0  0  0  0  0  0  0  0  0  0
   27.1051   -9.2882  -16.4691 C   0  0  0  0  0  0  0  0  0  0  0  0
   27.4136  -10.3389  -15.6267 C   0  0  0  0  0  0  0  0  0  0  0  0
   26.5482  -10.7466  -14.6413 C   0  0  0  0  0  0  0  0  0  0  0  0
   25.3391  -10.0691  -14.5091 C   0  0  0  0  0  0  0  0  0  0  0  0
   21.3439   -8.6686  -15.8524 C   0  0  0  0  0  0  0  0  0  0  0  0
   21.0716   -8.1527  -16.9695 O   0  0  0  0  0  0  0  0  0  0  0  0
   20.3193   -8.5890  -14.8688 N   0  0  0  0  0  0  0  0  0  0  0  0
   19.0066   -8.0370  -15.1608 C   0  0  1  0  0  0  0  0  0  0  0  0
   17.9126   -8.8874  -14.5527 C   0  0  0  0  0  0  0  0  0  0  0  0
   17.7972  -10.1666  -15.2832 C   0  0  0  0  0  0  0  0  0  0  0  0
   18.4700  -10.5379  -16.4343 C   0  0  0  0  0  0  0  0  0  0  0  0
   18.0863  -11.7983  -16.7952 N   0  0  0  0  0  0  0  0  0  0  0  0
   17.1945  -12.1984  -15.8859 C   0  0  0  0  0  0  0  0  0  0  0  0
   17.0258  -11.2231  -14.9876 N   0  0  0  0  0  0  0  0  0  0  0  0
   18.9426   -6.6126  -14.7455 C   0  0  0  0  0  0  0  0  0  0  0  0
   19.3845   -6.2022  -13.6433 O   0  0  0  0  0  0  0  0  0  0  0  0
   17.1580   -3.7162  -17.4506 C   0  0  0  0  0  0  0  0  0  0  0  0
   18.3105   -3.3744  -16.5391 C   0  0  1  0  0  0  0  0  0  0  0  0
   18.1999   -2.0295  -16.2166 O   0  0  0  0  0  0  0  0  0  0  0  0
   18.2351   -4.2498  -15.3078 C   0  0  2  0  0  0  0  0  0  0  0  0
   18.3486   -5.6541  -15.6421 N   0  0  0  0  0  0  0  0  0  0  0  0
   16.9792   -4.0139  -14.5912 C   0  0  0  0  0  0  0  0  0  0  0  0
   16.1068   -4.9370  -14.5783 O   0  0  0  0  0  0  0  0  0  0  0  0
   16.7670   -2.8062  -13.9490 O   0  0  0  0  0  0  0  0  0  0  0  0
  2  3  1  0
  2  1  1  6
  4  3  1  0
  4  9  1  0
  5  4  2  0
  6  5  1  0
  6  7  2  0
  7  8  1  0
  8  9  2  0
 10  2  1  0
 11 10  2  0
 12 10  1  0
 13 12  1  0
 14 15  1  0
 13 14  1  1
 15 19  1  0
 16 15  2  0
 16 17  1  0
 17 18  1  0
 19 18  2  0
 20 13  1  0
 20 21  2  0
 23 22  1  6
 23 25  1  0
 24 23  1  0
 25 26  1  6
 26 20  1  0
 27 25  1  0
 28 27  2  0
 29 27  1  0
M  END
$$$$
