FHT.pdb
     RDKit          3D

 29 30  0  0  1  0  0  0  0  0999 V2000
   20.6919  -15.1858  -17.8158 N   0  0  0  0  0  0  0  0  0  0  0  0
   20.3977  -14.5650  -16.5401 C   0  0  1  0  0  0  0  0  0  0  0  0
   21.5896  -14.7902  -15.6457 C   0  0  0  0  0  0  0  0  0  0  0  0
   21.6008  -16.2274  -15.2836 C   0  0  0  0  0  0  0  0  0  0  0  0
   20.6924  -16.7835  -14.4295 C   0  0  0  0  0  0  0  0  0  0  0  0
   20.7493  -18.1381  -14.1236 C   0  0  0  0  0  0  0  0  0  0  0  0
   21.7381  -18.9150  -14.6959 C   0  0  0  0  0  0  0  0  0  0  0  0
   22.6631  -18.3789  -15.5578 C   0  0  0  0  0  0  0  0  0  0  0  0
   22.5807  -17.0191  -15.8451 C   0  0  0  0  0  0  0  0  0  0  0  0
   20.0656  -13.1644  -16.7553 C   0  0  0  0  0  0  0  0  0  0  0  0
   20.6382  -12.5199  -17.6745 O   0  0  0  0  0  0  0  0  0  0  0  0
   19.1154  -12.4347  -15.9884 N   0  0  0  0  0  0  0  0  0  0  0  0
   18.7724  -11.0545  -16.2899 C   0  0  1  0  0  0  0  0  0  0  0  0
   17.2757  -10.8864  -16.4351 C   0  0  0  0  0  0  0  0  0  0  0  0
   16.7899  -11.6438  -17.6072 C   0  0  0  0  0  0  0  0  0  0  0  0
   16.7080  -11.2008  -18.9159 C   0  0  0  0  0  0  0  0  0  0  0  0
   16.2069  -12.2004  -19.7006 N   0  0  0  0  0  0  0  0  0  0  0  0
   15.9835  -13.2403  -18.8939 C   0  0  0  0  0  0  0  0  0  0  0  0
   16.3323  -12.9037  -17.6482 N   0  0  0  0  0  0  0  0  0  0  0  0
   19.3709  -10.1429  -15.2818 C   0  0  0  0  0  0  0  0  0  0  0  0
   19.1800  -10.2711  -14.0467 O   0  0  0  0  0  0  0  0  0  0  0  0
   22.9627   -9.4789  -14.6501 C   0  0  0  0  0  0  0  0  0  0  0  0
   22.3802   -8.1492  -15.0606 C   0  0  1  0  0  0  0  0  0  0  0  0
   22.6731   -7.9648  -16.4043 O   0  0  0  0  0  0  0  0  0  0  0  0
   20.8879   -8.1732  -14.8146 C   0  0  2  0  0  0  0  0  0  0  0  0
   20.2084   -9.0615  -15.7342 N   0  0  0  0  0  0  0  0  0  0  0  0
   20.3307   -6.8232  -14.9311 C   0  0  0  0  0  0  0  0  0  0  0  0
   19.5490   -6.5724  -15.9005 O   0  0  0  0  0  0  0  0  0  0  0  0
   20.6603   -5.8570  -13.9965 O   0  0  0  0  0  0  0  0  0  0  0  0
  2  3  1  0
  2  1  1  6
  4  3  1  0
  4  9  1  0
  5  4  2  0
  6  5  1  0
  6  7  2  0
  7  8  1  0
  8  9  2  0
 10  2  1  0
 11 10  2  0
 12 10  1  0
 13 12  1  0
 14 15  1  0
 13 14  1  1
 15 19  1  0
 16 15  2  0
 16 17  1  0
 17 18  1  0
 19 18  2  0
 20 13  1  0
 20 21  2  0
 23 22  1  6
 23 25  1  0
 24 23  1  0
 25 26  1  6
 26 20  1  0
 27 25  1  0
 28 27  2  0
 29 27  1  0
M  END
$$$$
