FHT.pdb
     RDKit          3D

 29 30  0  0  1  0  0  0  0  0999 V2000
   25.5020  -18.3507  -17.4352 N   0  0  0  0  0  0  0  0  0  0  0  0
   24.7930  -17.8961  -16.2562 C   0  0  1  0  0  0  0  0  0  0  0  0
   24.2740  -16.5121  -16.5502 C   0  0  0  0  0  0  0  0  0  0  0  0
   25.4446  -15.6039  -16.5900 C   0  0  0  0  0  0  0  0  0  0  0  0
   25.8837  -15.0108  -17.7386 C   0  0  0  0  0  0  0  0  0  0  0  0
   26.9882  -14.1674  -17.7191 C   0  0  0  0  0  0  0  0  0  0  0  0
   27.6365  -13.9370  -16.5210 C   0  0  0  0  0  0  0  0  0  0  0  0
   27.2139  -14.5219  -15.3525 C   0  0  0  0  0  0  0  0  0  0  0  0
   26.1048  -15.3619  -15.4035 C   0  0  0  0  0  0  0  0  0  0  0  0
   23.7607  -18.8640  -15.9162 C   0  0  0  0  0  0  0  0  0  0  0  0
   23.2103  -19.5377  -16.8281 O   0  0  0  0  0  0  0  0  0  0  0  0
   23.3035  -19.1236  -14.5944 N   0  0  0  0  0  0  0  0  0  0  0  0
   22.2907  -20.1264  -14.3081 C   0  0  1  0  0  0  0  0  0  0  0  0
   22.7405  -21.0506  -13.1976 C   0  0  0  0  0  0  0  0  0  0  0  0
   23.6960  -22.0484  -13.7217 C   0  0  0  0  0  0  0  0  0  0  0  0
   24.0479  -22.2579  -15.0437 C   0  0  0  0  0  0  0  0  0  0  0  0
   24.9610  -23.2716  -15.1130 N   0  0  0  0  0  0  0  0  0  0  0  0
   25.1695  -23.6806  -13.8595 C   0  0  0  0  0  0  0  0  0  0  0  0
   24.4139  -22.9491  -13.0347 N   0  0  0  0  0  0  0  0  0  0  0  0
   20.9834  -19.4758  -14.0376 C   0  0  0  0  0  0  0  0  0  0  0  0
   20.8443  -18.5412  -13.2095 O   0  0  0  0  0  0  0  0  0  0  0  0
   18.5437  -17.6559  -16.2100 C   0  0  0  0  0  0  0  0  0  0  0  0
   17.8320  -18.9047  -15.7518 C   0  0  1  0  0  0  0  0  0  0  0  0
   17.9185  -19.8326  -16.7798 O   0  0  0  0  0  0  0  0  0  0  0  0
   18.4953  -19.4092  -14.4895 C   0  0  2  0  0  0  0  0  0  0  0  0
   19.8194  -19.9322  -14.7534 N   0  0  0  0  0  0  0  0  0  0  0  0
   17.6724  -20.4457  -13.8610 C   0  0  0  0  0  0  0  0  0  0  0  0
   18.1412  -21.6234  -13.7780 O   0  0  0  0  0  0  0  0  0  0  0  0
   16.4156  -20.1294  -13.3749 O   0  0  0  0  0  0  0  0  0  0  0  0
  2  3  1  0
  2  1  1  6
  4  3  1  0
  4  9  1  0
  5  4  2  0
  6  5  1  0
  6  7  2  0
  7  8  1  0
  8  9  2  0
 10  2  1  0
 11 10  2  0
 12 10  1  0
 13 12  1  0
 14 15  1  0
 13 14  1  1
 15 19  1  0
 16 15  2  0
 16 17  1  0
 17 18  1  0
 19 18  2  0
 20 13  1  0
 20 21  2  0
 23 22  1  6
 23 25  1  0
 24 23  1  0
 25 26  1  6
 26 20  1  0
 27 25  1  0
 28 27  2  0
 29 27  1  0
M  END
$$$$
