FHT.pdb
     RDKit          3D

 29 30  0  0  1  0  0  0  0  0999 V2000
   27.9051  -20.5263   -9.6563 N   0  0  0  0  0  0  0  0  0  0  0  0
   26.5034  -20.8698   -9.5275 C   0  0  1  0  0  0  0  0  0  0  0  0
   25.9729  -20.1450   -8.3174 C   0  0  0  0  0  0  0  0  0  0  0  0
   27.0466  -20.1529   -7.2958 C   0  0  0  0  0  0  0  0  0  0  0  0
   27.5675  -21.3033   -6.7769 C   0  0  0  0  0  0  0  0  0  0  0  0
   28.5739  -21.2528   -5.8197 C   0  0  0  0  0  0  0  0  0  0  0  0
   29.0407  -20.0221   -5.3999 C   0  0  0  0  0  0  0  0  0  0  0  0
   28.5328  -18.8511   -5.9068 C   0  0  0  0  0  0  0  0  0  0  0  0
   27.5254  -18.9335   -6.8643 C   0  0  0  0  0  0  0  0  0  0  0  0
   25.8160  -20.5468  -10.7691 C   0  0  0  0  0  0  0  0  0  0  0  0
   25.6468  -19.3413  -11.0950 O   0  0  0  0  0  0  0  0  0  0  0  0
   25.3002  -21.5111  -11.6789 N   0  0  0  0  0  0  0  0  0  0  0  0
   24.6221  -21.1318  -12.9075 C   0  0  1  0  0  0  0  0  0  0  0  0
   25.3129  -21.7275  -14.1149 C   0  0  0  0  0  0  0  0  0  0  0  0
   26.4712  -20.8950  -14.5006 C   0  0  0  0  0  0  0  0  0  0  0  0
   26.8763  -19.7040  -13.9237 C   0  0  0  0  0  0  0  0  0  0  0  0
   27.9912  -19.2467  -14.5670 N   0  0  0  0  0  0  0  0  0  0  0  0
   28.2699  -20.1365  -15.5222 C   0  0  0  0  0  0  0  0  0  0  0  0
   27.3618  -21.1163  -15.4786 N   0  0  0  0  0  0  0  0  0  0  0  0
   23.1796  -21.4754  -12.8271 C   0  0  0  0  0  0  0  0  0  0  0  0
   22.7663  -22.6101  -12.4804 O   0  0  0  0  0  0  0  0  0  0  0  0
   20.3796  -18.2703  -12.9937 C   0  0  0  0  0  0  0  0  0  0  0  0
   20.1042  -19.5693  -12.2777 C   0  0  1  0  0  0  0  0  0  0  0  0
   18.7276  -19.7383  -12.2394 O   0  0  0  0  0  0  0  0  0  0  0  0
   20.7822  -20.6938  -13.0287 C   0  0  2  0  0  0  0  0  0  0  0  0
   22.2061  -20.4670  -13.1602 N   0  0  0  0  0  0  0  0  0  0  0  0
   20.1838  -20.8529  -14.3565 C   0  0  0  0  0  0  0  0  0  0  0  0
   20.8711  -20.5258  -15.3734 O   0  0  0  0  0  0  0  0  0  0  0  0
   18.8979  -21.3500  -14.4795 O   0  0  0  0  0  0  0  0  0  0  0  0
  2  3  1  0
  2  1  1  6
  4  3  1  0
  4  9  1  0
  5  4  2  0
  6  5  1  0
  6  7  2  0
  7  8  1  0
  8  9  2  0
 10  2  1  0
 11 10  2  0
 12 10  1  0
 13 12  1  0
 14 15  1  0
 13 14  1  6
 15 19  1  0
 16 15  2  0
 16 17  1  0
 17 18  1  0
 19 18  2  0
 20 13  1  0
 20 21  2  0
 23 22  1  6
 23 25  1  0
 24 23  1  0
 25 26  1  6
 26 20  1  0
 27 25  1  0
 28 27  2  0
 29 27  1  0
M  END
$$$$
