FHT.pdb
     RDKit          3D

 29 30  0  0  1  0  0  0  0  0999 V2000
   25.5913  -11.0495  -18.0840 N   0  0  0  0  0  0  0  0  0  0  0  0
   25.1687  -10.9670  -16.7005 C   0  0  1  0  0  0  0  0  0  0  0  0
   26.3055  -10.3599  -15.9192 C   0  0  0  0  0  0  0  0  0  0  0  0
   27.4291  -11.3257  -15.9576 C   0  0  0  0  0  0  0  0  0  0  0  0
   28.5693  -11.1079  -16.6762 C   0  0  0  0  0  0  0  0  0  0  0  0
   29.5927  -12.0485  -16.6773 C   0  0  0  0  0  0  0  0  0  0  0  0
   29.4406  -13.2076  -15.9410 C   0  0  0  0  0  0  0  0  0  0  0  0
   28.3032  -13.4494  -15.2103 C   0  0  0  0  0  0  0  0  0  0  0  0
   27.2955  -12.4889  -15.2286 C   0  0  0  0  0  0  0  0  0  0  0  0
   23.9225  -10.2191  -16.6251 C   0  0  0  0  0  0  0  0  0  0  0  0
   23.5885   -9.4624  -17.5759 O   0  0  0  0  0  0  0  0  0  0  0  0
   23.0165  -10.2714  -15.5296 N   0  0  0  0  0  0  0  0  0  0  0  0
   21.7539   -9.5509  -15.5336 C   0  0  1  0  0  0  0  0  0  0  0  0
   20.6183  -10.4432  -15.0821 C   0  0  0  0  0  0  0  0  0  0  0  0
   19.3311   -9.7268  -15.1987 C   0  0  0  0  0  0  0  0  0  0  0  0
   19.1385   -8.4009  -15.5457 C   0  0  0  0  0  0  0  0  0  0  0  0
   17.8012   -8.1224  -15.5409 N   0  0  0  0  0  0  0  0  0  0  0  0
   17.1794   -9.2528  -15.1978 C   0  0  0  0  0  0  0  0  0  0  0  0
   18.0950  -10.2053  -14.9951 N   0  0  0  0  0  0  0  0  0  0  0  0
   21.8710   -8.3018  -14.7390 C   0  0  0  0  0  0  0  0  0  0  0  0
   22.3284   -8.2771  -13.5690 O   0  0  0  0  0  0  0  0  0  0  0  0
   23.8013   -5.3743  -15.8763 C   0  0  0  0  0  0  0  0  0  0  0  0
   22.4174   -4.8309  -15.6206 C   0  0  1  0  0  0  0  0  0  0  0  0
   21.7821   -4.7188  -16.8491 O   0  0  0  0  0  0  0  0  0  0  0  0
   21.6832   -5.7794  -14.6990 C   0  0  2  0  0  0  0  0  0  0  0  0
   21.4427   -7.0599  -15.3305 N   0  0  0  0  0  0  0  0  0  0  0  0
   20.4097   -5.1928  -14.2738 C   0  0  0  0  0  0  0  0  0  0  0  0
   19.3313   -5.7328  -14.6725 O   0  0  0  0  0  0  0  0  0  0  0  0
   20.4026   -4.0758  -13.4563 O   0  0  0  0  0  0  0  0  0  0  0  0
  2  3  1  0
  2  1  1  6
  4  3  1  0
  4  9  1  0
  5  4  2  0
  6  5  1  0
  6  7  2  0
  7  8  1  0
  8  9  2  0
 10  2  1  0
 11 10  2  0
 12 10  1  0
 13 12  1  0
 14 15  1  0
 13 14  1  1
 15 19  1  0
 16 15  2  0
 16 17  1  0
 17 18  1  0
 19 18  2  0
 20 13  1  0
 20 21  2  0
 23 22  1  6
 23 25  1  0
 24 23  1  0
 25 26  1  6
 26 20  1  0
 27 25  1  0
 28 27  2  0
 29 27  1  0
M  END
$$$$
