FHT.pdb
     RDKit          3D

 29 30  0  0  1  0  0  0  0  0999 V2000
   21.5920  -16.9120  -17.8592 N   0  0  0  0  0  0  0  0  0  0  0  0
   21.2712  -16.0853  -16.7132 C   0  0  1  0  0  0  0  0  0  0  0  0
   22.1722  -16.5143  -15.5839 C   0  0  0  0  0  0  0  0  0  0  0  0
   21.7761  -17.8915  -15.2057 C   0  0  0  0  0  0  0  0  0  0  0  0
   20.6785  -18.1633  -14.4407 C   0  0  0  0  0  0  0  0  0  0  0  0
   20.3531  -19.4748  -14.1150 C   0  0  0  0  0  0  0  0  0  0  0  0
   21.1558  -20.5004  -14.5760 C   0  0  0  0  0  0  0  0  0  0  0  0
   22.2650  -20.2524  -15.3469 C   0  0  0  0  0  0  0  0  0  0  0  0
   22.5655  -18.9288  -15.6567 C   0  0  0  0  0  0  0  0  0  0  0  0
   21.3999  -14.6838  -17.0837 C   0  0  0  0  0  0  0  0  0  0  0  0
   22.3213  -14.3255  -17.8653 O   0  0  0  0  0  0  0  0  0  0  0  0
   20.5430  -13.6464  -16.6219 N   0  0  0  0  0  0  0  0  0  0  0  0
   20.6921  -12.2674  -17.0572 C   0  0  1  0  0  0  0  0  0  0  0  0
   19.7481  -11.9529  -18.1972 C   0  0  0  0  0  0  0  0  0  0  0  0
   18.3590  -12.2774  -17.8117 C   0  0  0  0  0  0  0  0  0  0  0  0
   17.9257  -12.8124  -16.6111 C   0  0  0  0  0  0  0  0  0  0  0  0
   16.5686  -12.9635  -16.6474 N   0  0  0  0  0  0  0  0  0  0  0  0
   16.1706  -12.5308  -17.8459 C   0  0  0  0  0  0  0  0  0  0  0  0
   17.2406  -12.1233  -18.5356 N   0  0  0  0  0  0  0  0  0  0  0  0
   20.5472  -11.3442  -15.9030 C   0  0  0  0  0  0  0  0  0  0  0  0
   19.8197  -11.6001  -14.9111 O   0  0  0  0  0  0  0  0  0  0  0  0
   22.9754  -10.4562  -13.5914 C   0  0  0  0  0  0  0  0  0  0  0  0
   22.6053   -9.0938  -14.1232 C   0  0  1  0  0  0  0  0  0  0  0  0
   23.5950   -8.7148  -15.0187 O   0  0  0  0  0  0  0  0  0  0  0  0
   21.2524   -9.1827  -14.7940 C   0  0  2  0  0  0  0  0  0  0  0  0
   21.2706  -10.0983  -15.9155 N   0  0  0  0  0  0  0  0  0  0  0  0
   20.8202   -7.8579  -15.2465 C   0  0  0  0  0  0  0  0  0  0  0  0
   20.7164   -7.6487  -16.4950 O   0  0  0  0  0  0  0  0  0  0  0  0
   20.5359   -6.8703  -14.3193 O   0  0  0  0  0  0  0  0  0  0  0  0
  2  3  1  0
  2  1  1  6
  4  3  1  0
  4  9  1  0
  5  4  2  0
  6  5  1  0
  6  7  2  0
  7  8  1  0
  8  9  2  0
 10  2  1  0
 11 10  2  0
 12 10  1  0
 13 12  1  0
 14 15  1  0
 13 14  1  6
 15 19  1  0
 16 15  2  0
 16 17  1  0
 17 18  1  0
 19 18  2  0
 20 13  1  0
 20 21  2  0
 23 22  1  6
 23 25  1  0
 24 23  1  0
 25 26  1  6
 26 20  1  0
 27 25  1  0
 28 27  2  0
 29 27  1  0
M  END
$$$$
