FGK.pdb
     RDKit          3D

 25 25  0  0  1  0  0  0  0  0999 V2000
    7.8705  -15.0367   24.5911 N   0  0  0  0  0  0  0  0  0  0  0  0
    7.5876  -16.0857   25.5541 C   0  0  1  0  0  0  0  0  0  0  0  0
    6.5955  -15.5534   26.5517 C   0  0  0  0  0  0  0  0  0  0  0  0
    6.7292  -14.1166   26.8362 C   0  0  0  0  0  0  0  0  0  0  0  0
    7.8372  -13.5822   27.4856 C   0  0  0  0  0  0  0  0  0  0  0  0
    7.9431  -12.2323   27.7335 C   0  0  0  0  0  0  0  0  0  0  0  0
    6.9719  -11.3561   27.3567 C   0  0  0  0  0  0  0  0  0  0  0  0
    5.8658  -11.8608   26.7124 C   0  0  0  0  0  0  0  0  0  0  0  0
    5.7458  -13.2182   26.4560 C   0  0  0  0  0  0  0  0  0  0  0  0
    7.0395  -17.2669   24.8737 C   0  0  0  0  0  0  0  0  0  0  0  0
    6.9659  -18.4013   25.4058 O   0  0  0  0  0  0  0  0  0  0  0  0
    6.5379  -17.1890   23.5107 N   0  0  0  0  0  0  0  0  0  0  0  0
    6.8862  -18.1811   22.5647 C   0  0  0  0  0  0  0  0  0  0  0  0
    8.1493  -17.8803   21.8803 C   0  0  0  0  0  0  0  0  0  0  0  0
    8.5379  -18.6285   20.9033 O   0  0  0  0  0  0  0  0  0  0  0  0
    8.9992  -16.8236   22.1987 N   0  0  0  0  0  0  0  0  0  0  0  0
   10.1682  -16.5402   21.3486 C   0  0  1  0  0  0  0  0  0  0  0  0
    9.9622  -15.2291   20.6828 C   0  0  0  0  0  0  0  0  0  0  0  0
    8.8633  -15.1215   19.7037 C   0  0  0  0  0  0  0  0  0  0  0  0
    8.6923  -13.7674   19.0876 C   0  0  0  0  0  0  0  0  0  0  0  0
    7.5457  -13.7712   18.0988 C   0  0  0  0  0  0  0  0  0  0  0  0
    7.4305  -12.4160   17.5724 N   0  0  0  0  0  0  0  0  0  0  0  0
   11.3253  -16.4515   22.2693 C   0  0  0  0  0  0  0  0  0  0  0  0
   12.6043  -16.3033   21.8120 O   0  0  0  0  0  0  0  0  0  0  0  0
   11.1240  -16.5141   23.4958 O   0  0  0  0  0  0  0  0  0  0  0  0
  2 10  1  0
  2  1  1  6
  3  2  1  0
  4  3  1  0
  5  4  2  0
  6  5  1  0
  7  8  1  0
  7  6  2  0
  8  9  2  0
  9  4  1  0
 10 12  1  0
 11 10  2  0
 12 13  1  0
 14 13  1  0
 14 15  2  0
 16 14  1  0
 17 16  1  0
 17 23  1  0
 17 18  1  1
 19 20  1  0
 19 18  1  0
 21 20  1  0
 22 21  1  0
 23 25  2  0
 23 24  1  0
M  END
$$$$
