FGK.pdb
     RDKit          3D

 25 25  0  0  1  0  0  0  0  0999 V2000
    7.5493  -17.1100   20.3365 N   0  0  0  0  0  0  0  0  0  0  0  0
    7.4892  -16.7820   21.7495 C   0  0  1  0  0  0  0  0  0  0  0  0
    6.5408  -15.6276   21.9246 C   0  0  0  0  0  0  0  0  0  0  0  0
    7.0132  -14.3589   21.3499 C   0  0  0  0  0  0  0  0  0  0  0  0
    6.7565  -13.9921   20.0329 C   0  0  0  0  0  0  0  0  0  0  0  0
    7.2026  -12.7951   19.5202 C   0  0  0  0  0  0  0  0  0  0  0  0
    7.9150  -11.9136   20.2740 C   0  0  0  0  0  0  0  0  0  0  0  0
    8.1817  -12.2538   21.5803 C   0  0  0  0  0  0  0  0  0  0  0  0
    7.7385  -13.4561   22.1101 C   0  0  0  0  0  0  0  0  0  0  0  0
    7.0248  -17.9423   22.5219 C   0  0  0  0  0  0  0  0  0  0  0  0
    6.1347  -18.7309   22.1203 O   0  0  0  0  0  0  0  0  0  0  0  0
    7.5826  -18.2525   23.8288 N   0  0  0  0  0  0  0  0  0  0  0  0
    6.7709  -18.8324   24.8315 C   0  0  0  0  0  0  0  0  0  0  0  0
    7.4646  -18.9341   26.1209 C   0  0  0  0  0  0  0  0  0  0  0  0
    6.8100  -19.3082   27.1683 O   0  0  0  0  0  0  0  0  0  0  0  0
    8.8135  -18.6544   26.3273 N   0  0  0  0  0  0  0  0  0  0  0  0
    9.5619  -19.3775   27.3698 C   0  0  1  0  0  0  0  0  0  0  0  0
   10.5474  -20.2713   26.7106 C   0  0  0  0  0  0  0  0  0  0  0  0
   10.4717  -21.7148   27.0083 C   0  0  0  0  0  0  0  0  0  0  0  0
   11.4457  -22.5696   26.2580 C   0  0  0  0  0  0  0  0  0  0  0  0
   11.2746  -24.0272   26.6302 C   0  0  0  0  0  0  0  0  0  0  0  0
   12.2429  -24.7853   25.8463 N   0  0  0  0  0  0  0  0  0  0  0  0
   10.2776  -18.3392   28.1471 C   0  0  0  0  0  0  0  0  0  0  0  0
   10.7365  -18.5709   29.4130 O   0  0  0  0  0  0  0  0  0  0  0  0
   10.4655  -17.2232   27.6295 O   0  0  0  0  0  0  0  0  0  0  0  0
  2 10  1  0
  2  1  1  6
  3  2  1  0
  4  3  1  0
  5  4  2  0
  6  5  1  0
  7  8  1  0
  7  6  2  0
  8  9  2  0
  9  4  1  0
 10 12  1  0
 11 10  2  0
 12 13  1  0
 14 13  1  0
 14 15  2  0
 16 14  1  0
 17 16  1  0
 17 23  1  0
 17 18  1  6
 19 20  1  0
 19 18  1  0
 21 20  1  0
 22 21  1  0
 23 25  2  0
 23 24  1  0
M  END
$$$$
