FGK.pdb
     RDKit          3D

 25 25  0  0  1  0  0  0  0  0999 V2000
    7.6604  -15.7454   24.5728 N   0  0  0  0  0  0  0  0  0  0  0  0
    7.7712  -15.0023   23.3305 C   0  0  1  0  0  0  0  0  0  0  0  0
    7.9579  -13.5482   23.6672 C   0  0  0  0  0  0  0  0  0  0  0  0
    7.5179  -13.1750   25.0200 C   0  0  0  0  0  0  0  0  0  0  0  0
    8.4105  -12.8195   26.0260 C   0  0  0  0  0  0  0  0  0  0  0  0
    7.9736  -12.4661   27.2825 C   0  0  0  0  0  0  0  0  0  0  0  0
    6.6506  -12.4470   27.6022 C   0  0  0  0  0  0  0  0  0  0  0  0
    5.7478  -12.7946   26.6238 C   0  0  0  0  0  0  0  0  0  0  0  0
    6.1736  -13.1527   25.3536 C   0  0  0  0  0  0  0  0  0  0  0  0
    8.9118  -15.4921   22.5446 C   0  0  0  0  0  0  0  0  0  0  0  0
    9.6274  -14.7520   21.8265 O   0  0  0  0  0  0  0  0  0  0  0  0
    9.2875  -16.8971   22.5528 N   0  0  0  0  0  0  0  0  0  0  0  0
   10.5768  -17.2932   22.1268 C   0  0  0  0  0  0  0  0  0  0  0  0
   11.4866  -17.5346   23.2529 C   0  0  0  0  0  0  0  0  0  0  0  0
   12.7593  -17.5811   23.0446 O   0  0  0  0  0  0  0  0  0  0  0  0
   11.0899  -17.7254   24.5745 N   0  0  0  0  0  0  0  0  0  0  0  0
   12.0945  -18.0434   25.6038 C   0  0  1  0  0  0  0  0  0  0  0  0
   11.6258  -17.5035   26.9050 C   0  0  0  0  0  0  0  0  0  0  0  0
   11.6060  -16.0374   27.0729 C   0  0  0  0  0  0  0  0  0  0  0  0
   11.0767  -15.5562   28.3884 C   0  0  0  0  0  0  0  0  0  0  0  0
   11.0495  -14.0430   28.4321 C   0  0  0  0  0  0  0  0  0  0  0  0
   10.4629  -13.6626   29.7120 N   0  0  0  0  0  0  0  0  0  0  0  0
   12.1488  -19.5223   25.6720 C   0  0  0  0  0  0  0  0  0  0  0  0
   11.1150  -20.3050   25.2412 O   0  0  0  0  0  0  0  0  0  0  0  0
   13.1675  -20.0659   26.1361 O   0  0  0  0  0  0  0  0  0  0  0  0
  2 10  1  0
  2  1  1  1
  3  2  1  0
  4  3  1  0
  5  4  2  0
  6  5  1  0
  7  8  1  0
  7  6  2  0
  8  9  2  0
  9  4  1  0
 10 12  1  0
 11 10  2  0
 12 13  1  0
 14 13  1  0
 14 15  2  0
 16 14  1  0
 17 16  1  0
 17 23  1  0
 17 18  1  1
 19 20  1  0
 19 18  1  0
 21 20  1  0
 22 21  1  0
 23 25  2  0
 23 24  1  0
M  END
$$$$
