FGK.pdb
     RDKit          3D

 25 25  0  0  1  0  0  0  0  0999 V2000
    7.5790  -16.5965   26.1341 N   0  0  0  0  0  0  0  0  0  0  0  0
    6.6678  -16.4156   25.0185 C   0  0  1  0  0  0  0  0  0  0  0  0
    7.0455  -15.1473   24.3033 C   0  0  0  0  0  0  0  0  0  0  0  0
    6.9427  -13.9315   25.1245 C   0  0  0  0  0  0  0  0  0  0  0  0
    5.7327  -13.4735   25.6355 C   0  0  0  0  0  0  0  0  0  0  0  0
    5.6633  -12.3368   26.4086 C   0  0  0  0  0  0  0  0  0  0  0  0
    6.7717  -11.6065   26.7104 C   0  0  0  0  0  0  0  0  0  0  0  0
    7.9807  -12.0394   26.2164 C   0  0  0  0  0  0  0  0  0  0  0  0
    8.0656  -13.1828   25.4365 C   0  0  0  0  0  0  0  0  0  0  0  0
    6.7526  -17.5602   24.1014 C   0  0  0  0  0  0  0  0  0  0  0  0
    7.2416  -17.4890   22.9475 O   0  0  0  0  0  0  0  0  0  0  0  0
    6.2632  -18.8747   24.4860 N   0  0  0  0  0  0  0  0  0  0  0  0
    7.0806  -19.7471   25.2420 C   0  0  0  0  0  0  0  0  0  0  0  0
    8.3891  -19.9686   24.6151 C   0  0  0  0  0  0  0  0  0  0  0  0
    8.7196  -21.1565   24.2343 O   0  0  0  0  0  0  0  0  0  0  0  0
    9.3427  -18.9799   24.3843 N   0  0  0  0  0  0  0  0  0  0  0  0
   10.6766  -19.3499   23.8808 C   0  0  1  0  0  0  0  0  0  0  0  0
   10.8638  -18.7363   22.5418 C   0  0  0  0  0  0  0  0  0  0  0  0
   12.1976  -18.8412   21.9189 C   0  0  0  0  0  0  0  0  0  0  0  0
   12.3122  -18.2288   20.5572 C   0  0  0  0  0  0  0  0  0  0  0  0
   13.7225  -18.3702   20.0248 C   0  0  0  0  0  0  0  0  0  0  0  0
   13.7960  -17.5884   18.7958 N   0  0  0  0  0  0  0  0  0  0  0  0
   11.6458  -18.7622   24.8346 C   0  0  0  0  0  0  0  0  0  0  0  0
   11.2618  -17.8810   25.8056 O   0  0  0  0  0  0  0  0  0  0  0  0
   12.8453  -19.0821   24.7470 O   0  0  0  0  0  0  0  0  0  0  0  0
  2 10  1  0
  2  1  1  1
  3  2  1  0
  4  3  1  0
  5  4  2  0
  6  5  1  0
  7  8  1  0
  7  6  2  0
  8  9  2  0
  9  4  1  0
 10 12  1  0
 11 10  2  0
 12 13  1  0
 14 13  1  0
 14 15  2  0
 16 14  1  0
 17 16  1  0
 17 23  1  0
 17 18  1  6
 19 20  1  0
 19 18  1  0
 21 20  1  0
 22 21  1  0
 23 25  2  0
 23 24  1  0
M  END
$$$$
