FGK.pdb
     RDKit          3D

 25 25  0  0  1  0  0  0  0  0999 V2000
    6.6250  -16.4352   25.2600 N   0  0  0  0  0  0  0  0  0  0  0  0
    7.5325  -15.6827   24.4127 C   0  0  1  0  0  0  0  0  0  0  0  0
    8.2634  -14.6883   25.2727 C   0  0  0  0  0  0  0  0  0  0  0  0
    7.4521  -13.5368   25.6957 C   0  0  0  0  0  0  0  0  0  0  0  0
    7.2957  -12.4014   24.9074 C   0  0  0  0  0  0  0  0  0  0  0  0
    6.5243  -11.3394   25.3220 C   0  0  0  0  0  0  0  0  0  0  0  0
    5.8782  -11.3474   26.5201 C   0  0  0  0  0  0  0  0  0  0  0  0
    6.0174  -12.4597   27.3179 C   0  0  0  0  0  0  0  0  0  0  0  0
    6.7912  -13.5368   26.9131 C   0  0  0  0  0  0  0  0  0  0  0  0
    8.4877  -16.5881   23.7597 C   0  0  0  0  0  0  0  0  0  0  0  0
    8.8999  -17.6533   24.2803 O   0  0  0  0  0  0  0  0  0  0  0  0
    9.0246  -16.2961   22.4400 N   0  0  0  0  0  0  0  0  0  0  0  0
    9.9852  -17.1538   21.8549 C   0  0  0  0  0  0  0  0  0  0  0  0
   11.2331  -17.2019   22.6260 C   0  0  0  0  0  0  0  0  0  0  0  0
   11.8108  -16.1010   22.9716 O   0  0  0  0  0  0  0  0  0  0  0  0
   11.8760  -18.3682   23.0346 N   0  0  0  0  0  0  0  0  0  0  0  0
   13.1406  -18.2848   23.7852 C   0  0  1  0  0  0  0  0  0  0  0  0
   13.1824  -19.3978   24.7669 C   0  0  0  0  0  0  0  0  0  0  0  0
   12.3733  -19.2620   25.9937 C   0  0  0  0  0  0  0  0  0  0  0  0
   12.2791  -20.4990   26.8322 C   0  0  0  0  0  0  0  0  0  0  0  0
   11.4126  -20.2547   28.0495 C   0  0  0  0  0  0  0  0  0  0  0  0
   11.2667  -21.5340   28.7344 N   0  0  0  0  0  0  0  0  0  0  0  0
   14.2173  -18.4669   22.7841 C   0  0  0  0  0  0  0  0  0  0  0  0
   15.5227  -18.1766   23.0644 O   0  0  0  0  0  0  0  0  0  0  0  0
   13.9216  -18.8974   21.6545 O   0  0  0  0  0  0  0  0  0  0  0  0
  2 10  1  0
  2  1  1  1
  3  2  1  0
  4  3  1  0
  5  4  2  0
  6  5  1  0
  7  8  1  0
  7  6  2  0
  8  9  2  0
  9  4  1  0
 10 12  1  0
 11 10  2  0
 12 13  1  0
 14 13  1  0
 14 15  2  0
 16 14  1  0
 17 16  1  0
 17 23  1  0
 17 18  1  1
 19 20  1  0
 19 18  1  0
 21 20  1  0
 22 21  1  0
 23 25  2  0
 23 24  1  0
M  END
$$$$
