FGK.pdb
     RDKit          3D

 25 25  0  0  1  0  0  0  0  0999 V2000
    6.0907  -17.8500   24.3155 N   0  0  0  0  0  0  0  0  0  0  0  0
    6.6397  -16.5145   24.4664 C   0  0  1  0  0  0  0  0  0  0  0  0
    6.5383  -16.1251   25.9158 C   0  0  0  0  0  0  0  0  0  0  0  0
    6.8645  -14.7179   26.1925 C   0  0  0  0  0  0  0  0  0  0  0  0
    5.9743  -13.6795   25.9391 C   0  0  0  0  0  0  0  0  0  0  0  0
    6.2998  -12.3707   26.2143 C   0  0  0  0  0  0  0  0  0  0  0  0
    7.5051  -12.0285   26.7465 C   0  0  0  0  0  0  0  0  0  0  0  0
    8.4029  -13.0384   27.0063 C   0  0  0  0  0  0  0  0  0  0  0  0
    8.0885  -14.3612   26.7342 C   0  0  0  0  0  0  0  0  0  0  0  0
    8.0426  -16.4889   24.0307 C   0  0  0  0  0  0  0  0  0  0  0  0
    8.8662  -17.3993   24.2920 O   0  0  0  0  0  0  0  0  0  0  0  0
    8.5720  -15.3803   23.2522 N   0  0  0  0  0  0  0  0  0  0  0  0
    9.8213  -15.4992   22.5996 C   0  0  0  0  0  0  0  0  0  0  0  0
   10.9491  -15.4186   23.5354 C   0  0  0  0  0  0  0  0  0  0  0  0
   10.7207  -15.2640   24.7960 O   0  0  0  0  0  0  0  0  0  0  0  0
   12.2929  -15.4961   23.1765 N   0  0  0  0  0  0  0  0  0  0  0  0
   13.2002  -16.3887   23.9179 C   0  0  1  0  0  0  0  0  0  0  0  0
   12.8747  -17.7936   23.5648 C   0  0  0  0  0  0  0  0  0  0  0  0
   12.2898  -18.6480   24.6164 C   0  0  0  0  0  0  0  0  0  0  0  0
   11.9764  -20.0500   24.1939 C   0  0  0  0  0  0  0  0  0  0  0  0
   11.4440  -20.8535   25.3615 C   0  0  0  0  0  0  0  0  0  0  0  0
   11.1503  -22.1916   24.8613 N   0  0  0  0  0  0  0  0  0  0  0  0
   14.5650  -16.0623   23.4431 C   0  0  0  0  0  0  0  0  0  0  0  0
   14.8314  -15.8052   22.1279 O   0  0  0  0  0  0  0  0  0  0  0  0
   15.4953  -16.0217   24.2688 O   0  0  0  0  0  0  0  0  0  0  0  0
  2 10  1  0
  2  1  1  1
  3  2  1  0
  4  3  1  0
  5  4  2  0
  6  5  1  0
  7  8  1  0
  7  6  2  0
  8  9  2  0
  9  4  1  0
 10 12  1  0
 11 10  2  0
 12 13  1  0
 14 13  1  0
 14 15  2  0
 16 14  1  0
 17 16  1  0
 17 23  1  0
 17 18  1  6
 19 20  1  0
 19 18  1  0
 21 20  1  0
 22 21  1  0
 23 25  2  0
 23 24  1  0
M  END
$$$$
