FGK.pdb
     RDKit          3D

 25 25  0  0  1  0  0  0  0  0999 V2000
    6.4079  -16.8778   23.0887 N   0  0  0  0  0  0  0  0  0  0  0  0
    6.8320  -15.5854   23.5964 C   0  0  1  0  0  0  0  0  0  0  0  0
    6.3643  -15.4630   25.0209 C   0  0  0  0  0  0  0  0  0  0  0  0
    6.5700  -14.1345   25.6173 C   0  0  0  0  0  0  0  0  0  0  0  0
    6.5694  -13.9229   26.9921 C   0  0  0  0  0  0  0  0  0  0  0  0
    6.7723  -12.6709   27.5267 C   0  0  0  0  0  0  0  0  0  0  0  0
    6.9829  -11.5808   26.7391 C   0  0  0  0  0  0  0  0  0  0  0  0
    6.9881  -11.7646   25.3755 C   0  0  0  0  0  0  0  0  0  0  0  0
    6.7852  -13.0201   24.8230 C   0  0  0  0  0  0  0  0  0  0  0  0
    8.2950  -15.4679   23.5305 C   0  0  0  0  0  0  0  0  0  0  0  0
    8.9165  -14.4047   23.7728 O   0  0  0  0  0  0  0  0  0  0  0  0
    9.1289  -16.6042   23.1718 N   0  0  0  0  0  0  0  0  0  0  0  0
   10.5381  -16.4819   23.1683 C   0  0  0  0  0  0  0  0  0  0  0  0
   11.1999  -17.6391   23.7823 C   0  0  0  0  0  0  0  0  0  0  0  0
   10.5183  -18.4390   24.5313 O   0  0  0  0  0  0  0  0  0  0  0  0
   12.5448  -17.9668   23.6263 N   0  0  0  0  0  0  0  0  0  0  0  0
   13.0469  -19.2607   24.1196 C   0  0  1  0  0  0  0  0  0  0  0  0
   14.2795  -19.6075   23.3679 C   0  0  0  0  0  0  0  0  0  0  0  0
   14.2323  -19.5227   21.8953 C   0  0  0  0  0  0  0  0  0  0  0  0
   15.4861  -19.9458   21.1945 C   0  0  0  0  0  0  0  0  0  0  0  0
   15.3097  -19.8720   19.6925 C   0  0  0  0  0  0  0  0  0  0  0  0
   16.5793  -20.2664   19.0929 N   0  0  0  0  0  0  0  0  0  0  0  0
   13.3812  -19.0469   25.5468 C   0  0  0  0  0  0  0  0  0  0  0  0
   13.4204  -17.7989   26.1017 O   0  0  0  0  0  0  0  0  0  0  0  0
   13.6335  -20.0350   26.2600 O   0  0  0  0  0  0  0  0  0  0  0  0
  2 10  1  0
  2  1  1  1
  3  2  1  0
  4  3  1  0
  5  4  2  0
  6  5  1  0
  7  8  1  0
  7  6  2  0
  8  9  2  0
  9  4  1  0
 10 12  1  0
 11 10  2  0
 12 13  1  0
 14 13  1  0
 14 15  2  0
 16 14  1  0
 17 16  1  0
 17 23  1  0
 17 18  1  6
 19 20  1  0
 19 18  1  0
 21 20  1  0
 22 21  1  0
 23 25  2  0
 23 24  1  0
M  END
$$$$
