FGK.pdb
     RDKit          3D

 25 25  0  0  1  0  0  0  0  0999 V2000
    8.9432  -13.8475   22.3872 N   0  0  0  0  0  0  0  0  0  0  0  0
    8.5165  -15.0317   23.1106 C   0  0  1  0  0  0  0  0  0  0  0  0
    7.0935  -14.8258   23.5525 C   0  0  0  0  0  0  0  0  0  0  0  0
    6.9174  -13.7792   24.5706 C   0  0  0  0  0  0  0  0  0  0  0  0
    6.8305  -14.0638   25.9295 C   0  0  0  0  0  0  0  0  0  0  0  0
    6.6738  -13.0657   26.8642 C   0  0  0  0  0  0  0  0  0  0  0  0
    6.5963  -11.7545   26.5066 C   0  0  0  0  0  0  0  0  0  0  0  0
    6.6800  -11.4475   25.1680 C   0  0  0  0  0  0  0  0  0  0  0  0
    6.8380  -12.4426   24.2153 C   0  0  0  0  0  0  0  0  0  0  0  0
    8.6140  -16.2174   22.2486 C   0  0  0  0  0  0  0  0  0  0  0  0
    8.5848  -16.1669   20.9947 O   0  0  0  0  0  0  0  0  0  0  0  0
    8.7535  -17.5513   22.8111 N   0  0  0  0  0  0  0  0  0  0  0  0
    9.8953  -18.3331   22.5184 C   0  0  0  0  0  0  0  0  0  0  0  0
   11.0857  -17.8757   23.2450 C   0  0  0  0  0  0  0  0  0  0  0  0
   11.9721  -17.1660   22.6320 O   0  0  0  0  0  0  0  0  0  0  0  0
   11.3580  -18.1462   24.5841 N   0  0  0  0  0  0  0  0  0  0  0  0
   12.5340  -17.5393   25.2310 C   0  0  1  0  0  0  0  0  0  0  0  0
   12.2431  -17.3689   26.6770 C   0  0  0  0  0  0  0  0  0  0  0  0
   11.3759  -16.2430   27.0749 C   0  0  0  0  0  0  0  0  0  0  0  0
   11.1413  -16.1123   28.5480 C   0  0  0  0  0  0  0  0  0  0  0  0
   10.2184  -14.9481   28.8408 C   0  0  0  0  0  0  0  0  0  0  0  0
    9.9026  -15.0002   30.2636 N   0  0  0  0  0  0  0  0  0  0  0  0
   13.6370  -18.5131   25.0593 C   0  0  0  0  0  0  0  0  0  0  0  0
   13.4109  -19.7992   24.6575 O   0  0  0  0  0  0  0  0  0  0  0  0
   14.8040  -18.1465   25.2885 O   0  0  0  0  0  0  0  0  0  0  0  0
  2 10  1  0
  2  1  1  6
  3  2  1  0
  4  3  1  0
  5  4  2  0
  6  5  1  0
  7  8  1  0
  7  6  2  0
  8  9  2  0
  9  4  1  0
 10 12  1  0
 11 10  2  0
 12 13  1  0
 14 13  1  0
 14 15  2  0
 16 14  1  0
 17 16  1  0
 17 23  1  0
 17 18  1  1
 19 20  1  0
 19 18  1  0
 21 20  1  0
 22 21  1  0
 23 25  2  0
 23 24  1  0
M  END
$$$$
