FGK.pdb
     RDKit          3D

 25 25  0  0  1  0  0  0  0  0999 V2000
    7.3530  -17.7982   20.0574 N   0  0  0  0  0  0  0  0  0  0  0  0
    7.8815  -16.6426   20.7594 C   0  0  1  0  0  0  0  0  0  0  0  0
    6.8489  -15.5497   20.7106 C   0  0  0  0  0  0  0  0  0  0  0  0
    7.2658  -14.2894   21.3437 C   0  0  0  0  0  0  0  0  0  0  0  0
    7.9835  -13.3114   20.6630 C   0  0  0  0  0  0  0  0  0  0  0  0
    8.3553  -12.1360   21.2752 C   0  0  0  0  0  0  0  0  0  0  0  0
    8.0403  -11.8730   22.5731 C   0  0  0  0  0  0  0  0  0  0  0  0
    7.3305  -12.8253   23.2678 C   0  0  0  0  0  0  0  0  0  0  0  0
    6.9492  -14.0138   22.6638 C   0  0  0  0  0  0  0  0  0  0  0  0
    8.1873  -16.9902   22.1538 C   0  0  0  0  0  0  0  0  0  0  0  0
    7.3326  -17.4268   22.9626 O   0  0  0  0  0  0  0  0  0  0  0  0
    9.5308  -16.8452   22.6915 N   0  0  0  0  0  0  0  0  0  0  0  0
    9.8188  -17.2590   24.0130 C   0  0  0  0  0  0  0  0  0  0  0  0
   10.2301  -16.1410   24.8704 C   0  0  0  0  0  0  0  0  0  0  0  0
   11.1033  -15.2948   24.4380 O   0  0  0  0  0  0  0  0  0  0  0  0
    9.7482  -15.8989   26.1547 N   0  0  0  0  0  0  0  0  0  0  0  0
   10.3872  -14.8736   26.9973 C   0  0  1  0  0  0  0  0  0  0  0  0
    9.3446  -13.9212   27.4561 C   0  0  0  0  0  0  0  0  0  0  0  0
    8.2091  -13.6580   26.5509 C   0  0  0  0  0  0  0  0  0  0  0  0
    7.1981  -12.6820   27.0681 C   0  0  0  0  0  0  0  0  0  0  0  0
    6.0907  -12.4734   26.0568 C   0  0  0  0  0  0  0  0  0  0  0  0
    5.1546  -11.5182   26.6385 N   0  0  0  0  0  0  0  0  0  0  0  0
   10.9435  -15.5982   28.1635 C   0  0  0  0  0  0  0  0  0  0  0  0
   10.7637  -16.9419   28.3335 O   0  0  0  0  0  0  0  0  0  0  0  0
   11.5938  -14.9619   29.0126 O   0  0  0  0  0  0  0  0  0  0  0  0
  2 10  1  0
  2  1  1  6
  3  2  1  0
  4  3  1  0
  5  4  2  0
  6  5  1  0
  7  8  1  0
  7  6  2  0
  8  9  2  0
  9  4  1  0
 10 12  1  0
 11 10  2  0
 12 13  1  0
 14 13  1  0
 14 15  2  0
 16 14  1  0
 17 16  1  0
 17 23  1  0
 17 18  1  1
 19 20  1  0
 19 18  1  0
 21 20  1  0
 22 21  1  0
 23 25  2  0
 23 24  1  0
M  END
$$$$
