FGK.pdb
     RDKit          3D

 25 25  0  0  1  0  0  0  0  0999 V2000
    7.8150  -15.9053   24.6705 N   0  0  0  0  0  0  0  0  0  0  0  0
    7.5150  -14.9586   23.6116 C   0  0  1  0  0  0  0  0  0  0  0  0
    8.1697  -13.6480   23.9529 C   0  0  0  0  0  0  0  0  0  0  0  0
    7.7646  -13.0844   25.2495 C   0  0  0  0  0  0  0  0  0  0  0  0
    8.6202  -13.0370   26.3453 C   0  0  0  0  0  0  0  0  0  0  0  0
    8.2202  -12.4970   27.5465 C   0  0  0  0  0  0  0  0  0  0  0  0
    6.9715  -11.9840   27.7214 C   0  0  0  0  0  0  0  0  0  0  0  0
    6.1066  -12.0193   26.6518 C   0  0  0  0  0  0  0  0  0  0  0  0
    6.4960  -12.5601   25.4359 C   0  0  0  0  0  0  0  0  0  0  0  0
    8.0187  -15.4578   22.3249 C   0  0  0  0  0  0  0  0  0  0  0  0
    7.9440  -14.8094   21.2527 O   0  0  0  0  0  0  0  0  0  0  0  0
    8.6485  -16.7642   22.2154 N   0  0  0  0  0  0  0  0  0  0  0  0
    9.7759  -16.9449   21.3806 C   0  0  0  0  0  0  0  0  0  0  0  0
   11.0383  -16.8808   22.1266 C   0  0  0  0  0  0  0  0  0  0  0  0
   12.0526  -16.2723   21.6106 O   0  0  0  0  0  0  0  0  0  0  0  0
   11.2517  -17.4359   23.3863 N   0  0  0  0  0  0  0  0  0  0  0  0
   12.5729  -17.3172   24.0265 C   0  0  1  0  0  0  0  0  0  0  0  0
   12.4246  -17.6078   25.4749 C   0  0  0  0  0  0  0  0  0  0  0  0
   11.6250  -16.6686   26.2852 C   0  0  0  0  0  0  0  0  0  0  0  0
   11.4126  -17.0804   27.7091 C   0  0  0  0  0  0  0  0  0  0  0  0
   10.5288  -16.0828   28.4277 C   0  0  0  0  0  0  0  0  0  0  0  0
   10.3599  -16.5669   29.7930 N   0  0  0  0  0  0  0  0  0  0  0  0
   13.4214  -18.3560   23.3975 C   0  0  0  0  0  0  0  0  0  0  0  0
   14.7837  -18.3375   23.5003 O   0  0  0  0  0  0  0  0  0  0  0  0
   12.8748  -19.2720   22.7566 O   0  0  0  0  0  0  0  0  0  0  0  0
  2 10  1  0
  2  1  1  1
  3  2  1  0
  4  3  1  0
  5  4  2  0
  6  5  1  0
  7  8  1  0
  7  6  2  0
  8  9  2  0
  9  4  1  0
 10 12  1  0
 11 10  2  0
 12 13  1  0
 14 13  1  0
 14 15  2  0
 16 14  1  0
 17 16  1  0
 17 23  1  0
 17 18  1  1
 19 20  1  0
 19 18  1  0
 21 20  1  0
 22 21  1  0
 23 25  2  0
 23 24  1  0
M  END
$$$$
