FGK.pdb
     RDKit          3D

 25 25  0  0  1  0  0  0  0  0999 V2000
    9.2059  -14.9064   24.6639 N   0  0  0  0  0  0  0  0  0  0  0  0
    7.9984  -15.1726   23.9031 C   0  0  1  0  0  0  0  0  0  0  0  0
    7.2897  -13.8658   23.6730 C   0  0  0  0  0  0  0  0  0  0  0  0
    6.9162  -13.1508   24.9027 C   0  0  0  0  0  0  0  0  0  0  0  0
    5.8729  -13.5673   25.7232 C   0  0  0  0  0  0  0  0  0  0  0  0
    5.5475  -12.8857   26.8738 C   0  0  0  0  0  0  0  0  0  0  0  0
    6.2282  -11.7737   27.2650 C   0  0  0  0  0  0  0  0  0  0  0  0
    7.2649  -11.3419   26.4699 C   0  0  0  0  0  0  0  0  0  0  0  0
    7.6039  -12.0187   25.3081 C   0  0  0  0  0  0  0  0  0  0  0  0
    8.3345  -15.8010   22.6184 C   0  0  0  0  0  0  0  0  0  0  0  0
    7.6530  -16.7160   22.0950 O   0  0  0  0  0  0  0  0  0  0  0  0
    9.5050  -15.3899   21.8593 N   0  0  0  0  0  0  0  0  0  0  0  0
   10.3856  -16.3594   21.3253 C   0  0  0  0  0  0  0  0  0  0  0  0
   11.5377  -16.6084   22.1997 C   0  0  0  0  0  0  0  0  0  0  0  0
   12.7320  -16.4191   21.7488 O   0  0  0  0  0  0  0  0  0  0  0  0
   11.4597  -17.0462   23.5198 N   0  0  0  0  0  0  0  0  0  0  0  0
   12.6677  -17.0557   24.3626 C   0  0  1  0  0  0  0  0  0  0  0  0
   12.2504  -17.0651   25.7875 C   0  0  0  0  0  0  0  0  0  0  0  0
   11.6000  -15.8523   26.3204 C   0  0  0  0  0  0  0  0  0  0  0  0
   11.1237  -15.9573   27.7362 C   0  0  0  0  0  0  0  0  0  0  0  0
   10.4430  -14.6755   28.1674 C   0  0  0  0  0  0  0  0  0  0  0  0
    9.9781  -14.8773   29.5349 N   0  0  0  0  0  0  0  0  0  0  0  0
   13.3721  -18.3196   24.0447 C   0  0  0  0  0  0  0  0  0  0  0  0
   12.7001  -19.4463   23.6630 O   0  0  0  0  0  0  0  0  0  0  0  0
   14.6133  -18.3538   24.1286 O   0  0  0  0  0  0  0  0  0  0  0  0
  2 10  1  0
  2  1  1  6
  3  2  1  0
  4  3  1  0
  5  4  2  0
  6  5  1  0
  7  8  1  0
  7  6  2  0
  8  9  2  0
  9  4  1  0
 10 12  1  0
 11 10  2  0
 12 13  1  0
 14 13  1  0
 14 15  2  0
 16 14  1  0
 17 16  1  0
 17 23  1  0
 17 18  1  1
 19 20  1  0
 19 18  1  0
 21 20  1  0
 22 21  1  0
 23 25  2  0
 23 24  1  0
M  END
$$$$
