FGK.pdb
     RDKit          3D

 25 25  0  0  1  0  0  0  0  0999 V2000
    7.8247  -15.8063   23.7219 N   0  0  0  0  0  0  0  0  0  0  0  0
    7.3145  -15.9341   25.0751 C   0  0  1  0  0  0  0  0  0  0  0  0
    6.0849  -15.0763   25.1972 C   0  0  0  0  0  0  0  0  0  0  0  0
    6.3357  -13.7227   25.7148 C   0  0  0  0  0  0  0  0  0  0  0  0
    7.0200  -12.7568   24.9842 C   0  0  0  0  0  0  0  0  0  0  0  0
    7.2353  -11.4938   25.4872 C   0  0  0  0  0  0  0  0  0  0  0  0
    6.7908  -11.1283   26.7208 C   0  0  0  0  0  0  0  0  0  0  0  0
    6.1109  -12.0664   27.4630 C   0  0  0  0  0  0  0  0  0  0  0  0
    5.8866  -13.3425   26.9689 C   0  0  0  0  0  0  0  0  0  0  0  0
    6.9861  -17.3366   25.3647 C   0  0  0  0  0  0  0  0  0  0  0  0
    6.7425  -17.7673   26.5182 O   0  0  0  0  0  0  0  0  0  0  0  0
    6.9224  -18.3319   24.3061 N   0  0  0  0  0  0  0  0  0  0  0  0
    7.0206  -19.7088   24.6148 C   0  0  0  0  0  0  0  0  0  0  0  0
    8.3299  -20.2682   24.2584 C   0  0  0  0  0  0  0  0  0  0  0  0
    8.3919  -21.3967   23.6355 O   0  0  0  0  0  0  0  0  0  0  0  0
    9.5573  -19.6727   24.5400 N   0  0  0  0  0  0  0  0  0  0  0  0
   10.8021  -20.2908   24.0520 C   0  0  1  0  0  0  0  0  0  0  0  0
   11.2860  -19.5182   22.8801 C   0  0  0  0  0  0  0  0  0  0  0  0
   10.4183  -19.4639   21.6876 C   0  0  0  0  0  0  0  0  0  0  0  0
   10.9467  -18.6393   20.5549 C   0  0  0  0  0  0  0  0  0  0  0  0
   10.0070  -18.6959   19.3690 C   0  0  0  0  0  0  0  0  0  0  0  0
   10.5673  -17.8301   18.3378 N   0  0  0  0  0  0  0  0  0  0  0  0
   11.7758  -20.1688   25.1618 C   0  0  0  0  0  0  0  0  0  0  0  0
   13.0085  -20.7558   25.1107 O   0  0  0  0  0  0  0  0  0  0  0  0
   11.4593  -19.5114   26.1699 O   0  0  0  0  0  0  0  0  0  0  0  0
  2 10  1  0
  2  1  1  6
  3  2  1  0
  4  3  1  0
  5  4  2  0
  6  5  1  0
  7  8  1  0
  7  6  2  0
  8  9  2  0
  9  4  1  0
 10 12  1  0
 11 10  2  0
 12 13  1  0
 14 13  1  0
 14 15  2  0
 16 14  1  0
 17 16  1  0
 17 23  1  0
 17 18  1  6
 19 20  1  0
 19 18  1  0
 21 20  1  0
 22 21  1  0
 23 25  2  0
 23 24  1  0
M  END
$$$$
