FGK.pdb
     RDKit          3D

 25 25  0  0  1  0  0  0  0  0999 V2000
    6.7903  -15.1083   23.4632 N   0  0  0  0  0  0  0  0  0  0  0  0
    7.9446  -14.2409   23.3113 C   0  0  1  0  0  0  0  0  0  0  0  0
    8.4956  -13.9471   24.6799 C   0  0  0  0  0  0  0  0  0  0  0  0
    7.6593  -13.0519   25.4937 C   0  0  0  0  0  0  0  0  0  0  0  0
    8.0041  -11.7277   25.7441 C   0  0  0  0  0  0  0  0  0  0  0  0
    7.2005  -10.9069   26.5025 C   0  0  0  0  0  0  0  0  0  0  0  0
    6.0321  -11.3488   27.0434 C   0  0  0  0  0  0  0  0  0  0  0  0
    5.6692  -12.6552   26.8097 C   0  0  0  0  0  0  0  0  0  0  0  0
    6.4688  -13.4934   26.0475 C   0  0  0  0  0  0  0  0  0  0  0  0
    8.9664  -14.8942   22.4821 C   0  0  0  0  0  0  0  0  0  0  0  0
   10.0488  -14.3478   22.1576 O   0  0  0  0  0  0  0  0  0  0  0  0
    8.7789  -16.2449   21.9763 N   0  0  0  0  0  0  0  0  0  0  0  0
    9.8079  -16.8814   21.2436 C   0  0  0  0  0  0  0  0  0  0  0  0
   11.0184  -17.0889   22.0472 C   0  0  0  0  0  0  0  0  0  0  0  0
   11.9705  -16.2189   22.0004 O   0  0  0  0  0  0  0  0  0  0  0  0
   11.2440  -18.1773   22.8867 N   0  0  0  0  0  0  0  0  0  0  0  0
   12.1782  -18.0501   24.0185 C   0  0  1  0  0  0  0  0  0  0  0  0
   11.6179  -18.7869   25.1794 C   0  0  0  0  0  0  0  0  0  0  0  0
   12.5128  -19.0485   26.3234 C   0  0  0  0  0  0  0  0  0  0  0  0
   11.9130  -19.8674   27.4242 C   0  0  0  0  0  0  0  0  0  0  0  0
   12.8439  -19.9227   28.6170 C   0  0  0  0  0  0  0  0  0  0  0  0
   12.1736  -20.7087   29.6465 N   0  0  0  0  0  0  0  0  0  0  0  0
   13.4352  -18.6997   23.5798 C   0  0  0  0  0  0  0  0  0  0  0  0
   13.4787  -19.5371   22.5011 O   0  0  0  0  0  0  0  0  0  0  0  0
   14.4818  -18.4743   24.2143 O   0  0  0  0  0  0  0  0  0  0  0  0
  2 10  1  0
  2  1  1  1
  3  2  1  0
  4  3  1  0
  5  4  2  0
  6  5  1  0
  7  8  1  0
  7  6  2  0
  8  9  2  0
  9  4  1  0
 10 12  1  0
 11 10  2  0
 12 13  1  0
 14 13  1  0
 14 15  2  0
 16 14  1  0
 17 16  1  0
 17 23  1  0
 17 18  1  1
 19 20  1  0
 19 18  1  0
 21 20  1  0
 22 21  1  0
 23 25  2  0
 23 24  1  0
M  END
$$$$
