FGK.pdb
     RDKit          3D

 25 25  0  0  1  0  0  0  0  0999 V2000
    7.8466  -15.7743   24.1083 N   0  0  0  0  0  0  0  0  0  0  0  0
    7.5638  -16.2251   25.4591 C   0  0  1  0  0  0  0  0  0  0  0  0
    6.4096  -15.4207   25.9915 C   0  0  0  0  0  0  0  0  0  0  0  0
    6.6827  -13.9823   26.1308 C   0  0  0  0  0  0  0  0  0  0  0  0
    5.8296  -13.0061   25.6266 C   0  0  0  0  0  0  0  0  0  0  0  0
    6.1031  -11.6654   25.7768 C   0  0  0  0  0  0  0  0  0  0  0  0
    7.2184  -11.2296   26.4242 C   0  0  0  0  0  0  0  0  0  0  0  0
    8.0779  -12.1764   26.9321 C   0  0  0  0  0  0  0  0  0  0  0  0
    7.8151  -13.5303   26.7884 C   0  0  0  0  0  0  0  0  0  0  0  0
    7.2284  -17.6555   25.4584 C   0  0  0  0  0  0  0  0  0  0  0  0
    6.7649  -18.2591   26.4566 O   0  0  0  0  0  0  0  0  0  0  0  0
    7.4182  -18.4756   24.2725 N   0  0  0  0  0  0  0  0  0  0  0  0
    7.7467  -19.8457   24.3978 C   0  0  0  0  0  0  0  0  0  0  0  0
    9.1960  -20.0680   24.4635 C   0  0  0  0  0  0  0  0  0  0  0  0
    9.6553  -21.2739   24.4748 O   0  0  0  0  0  0  0  0  0  0  0  0
   10.1577  -19.0616   24.5167 N   0  0  0  0  0  0  0  0  0  0  0  0
   11.5856  -19.4040   24.4012 C   0  0  1  0  0  0  0  0  0  0  0  0
   12.1669  -18.6341   23.2726 C   0  0  0  0  0  0  0  0  0  0  0  0
   11.8012  -19.0426   21.9024 C   0  0  0  0  0  0  0  0  0  0  0  0
   11.3455  -17.9308   21.0088 C   0  0  0  0  0  0  0  0  0  0  0  0
   10.8893  -18.4734   19.6709 C   0  0  0  0  0  0  0  0  0  0  0  0
   10.3974  -17.3405   18.8953 N   0  0  0  0  0  0  0  0  0  0  0  0
   12.2098  -18.9675   25.6718 C   0  0  0  0  0  0  0  0  0  0  0  0
   11.4808  -18.4008   26.6788 O   0  0  0  0  0  0  0  0  0  0  0  0
   13.4351  -19.1226   25.8242 O   0  0  0  0  0  0  0  0  0  0  0  0
  2 10  1  0
  2  1  1  6
  3  2  1  0
  4  3  1  0
  5  4  2  0
  6  5  1  0
  7  8  1  0
  7  6  2  0
  8  9  2  0
  9  4  1  0
 10 12  1  0
 11 10  2  0
 12 13  1  0
 14 13  1  0
 14 15  2  0
 16 14  1  0
 17 16  1  0
 17 23  1  0
 17 18  1  6
 19 20  1  0
 19 18  1  0
 21 20  1  0
 22 21  1  0
 23 25  2  0
 23 24  1  0
M  END
$$$$
