FGK.pdb
     RDKit          3D

 25 25  0  0  1  0  0  0  0  0999 V2000
    7.3673  -16.3108   25.7943 N   0  0  0  0  0  0  0  0  0  0  0  0
    6.7734  -16.2400   24.4715 C   0  0  1  0  0  0  0  0  0  0  0  0
    5.9552  -14.9803   24.3899 C   0  0  0  0  0  0  0  0  0  0  0  0
    6.4046  -13.9034   25.2850 C   0  0  0  0  0  0  0  0  0  0  0  0
    5.7335  -13.5767   26.4589 C   0  0  0  0  0  0  0  0  0  0  0  0
    6.1785  -12.5695   27.2847 C   0  0  0  0  0  0  0  0  0  0  0  0
    7.2940  -11.8452   26.9947 C   0  0  0  0  0  0  0  0  0  0  0  0
    7.9754  -12.1496   25.8388 C   0  0  0  0  0  0  0  0  0  0  0  0
    7.5387  -13.1617   24.9976 C   0  0  0  0  0  0  0  0  0  0  0  0
    7.8221  -16.2318   23.4426 C   0  0  0  0  0  0  0  0  0  0  0  0
    7.5934  -16.0539   22.2213 O   0  0  0  0  0  0  0  0  0  0  0  0
    9.2205  -16.4343   23.7872 N   0  0  0  0  0  0  0  0  0  0  0  0
   10.2215  -16.3373   22.7927 C   0  0  0  0  0  0  0  0  0  0  0  0
   11.5681  -16.5577   23.3333 C   0  0  0  0  0  0  0  0  0  0  0  0
   11.8382  -16.1881   24.5399 O   0  0  0  0  0  0  0  0  0  0  0  0
   12.6208  -17.1507   22.6400 N   0  0  0  0  0  0  0  0  0  0  0  0
   13.9432  -17.2722   23.2773 C   0  0  1  0  0  0  0  0  0  0  0  0
   14.8370  -18.0358   22.3703 C   0  0  0  0  0  0  0  0  0  0  0  0
   16.1714  -18.4108   22.8771 C   0  0  0  0  0  0  0  0  0  0  0  0
   16.1662  -19.2761   24.0992 C   0  0  0  0  0  0  0  0  0  0  0  0
   17.5795  -19.6415   24.5012 C   0  0  0  0  0  0  0  0  0  0  0  0
   17.4898  -20.3815   25.7546 N   0  0  0  0  0  0  0  0  0  0  0  0
   14.4505  -15.8879   23.4223 C   0  0  0  0  0  0  0  0  0  0  0  0
   14.0842  -14.8894   22.5646 O   0  0  0  0  0  0  0  0  0  0  0  0
   15.2338  -15.6290   24.3540 O   0  0  0  0  0  0  0  0  0  0  0  0
  2 10  1  0
  2  1  1  1
  3  2  1  0
  4  3  1  0
  5  4  2  0
  6  5  1  0
  7  8  1  0
  7  6  2  0
  8  9  2  0
  9  4  1  0
 10 12  1  0
 11 10  2  0
 12 13  1  0
 14 13  1  0
 14 15  2  0
 16 14  1  0
 17 16  1  0
 17 23  1  0
 17 18  1  6
 19 20  1  0
 19 18  1  0
 21 20  1  0
 22 21  1  0
 23 25  2  0
 23 24  1  0
M  END
$$$$
