EAR.pdb
     RDKit          3D

 26 25  0  0  1  0  0  0  0  0999 V2000
   20.0576  -10.4946  -15.0081 N   0  0  0  0  0  0  0  0  0  0  0  0
   19.6375   -9.1086  -15.0832 C   0  0  1  0  0  0  0  0  0  0  0  0
   18.2191   -8.9306  -15.5196 C   0  0  0  0  0  0  0  0  0  0  0  0
   17.9047   -9.3732  -16.9049 C   0  0  0  0  0  0  0  0  0  0  0  0
   16.5024   -9.2170  -17.3136 C   0  0  0  0  0  0  0  0  0  0  0  0
   16.0283   -8.0722  -17.5103 O   0  0  0  0  0  0  0  0  0  0  0  0
   19.8103   -8.4192  -13.7766 C   0  0  0  0  0  0  0  0  0  0  0  0
   19.2869   -8.9437  -12.7652 O   0  0  0  0  0  0  0  0  0  0  0  0
   15.6340  -10.3090  -17.5029 O   0  0  0  0  0  0  0  0  0  0  0  0
   21.4847   -5.2460  -12.5020 C   0  0  0  0  0  0  0  0  0  0  0  0
   20.6295   -6.4630  -12.3959 C   0  0  2  0  0  0  0  0  0  0  0  0
   20.5208   -7.2236  -13.6109 N   0  0  0  0  0  0  0  0  0  0  0  0
   19.2428   -6.0533  -11.9849 C   0  0  0  0  0  0  0  0  0  0  0  0
   18.4044   -5.6590  -12.8512 O   0  0  0  0  0  0  0  0  0  0  0  0
   12.8510  -10.0368   -7.9824 N   0  0  0  0  0  0  0  0  0  0  0  0
   12.4448   -8.6554   -8.0306 C   0  0  0  0  0  0  0  0  0  0  0  0
   11.2474   -8.3282   -7.7032 N   0  0  0  0  0  0  0  0  0  0  0  0
   13.3324   -7.6334   -8.4311 N   0  0  0  0  0  0  0  0  0  0  0  0
   14.7122   -7.9389   -8.8105 C   0  0  0  0  0  0  0  0  0  0  0  0
   15.3402   -6.6361   -9.2232 C   0  0  0  0  0  0  0  0  0  0  0  0
   16.7246   -6.8284   -9.6730 C   0  0  0  0  0  0  0  0  0  0  0  0
   17.4827   -5.6901  -10.2212 C   0  0  2  0  0  0  0  0  0  0  0  0
   18.8053   -6.0835  -10.6418 N   0  0  0  0  0  0  0  0  0  0  0  0
   17.4740   -4.4360   -9.4525 C   0  0  0  0  0  0  0  0  0  0  0  0
   16.3988   -3.5630   -9.5303 O   0  0  0  0  0  0  0  0  0  0  0  0
   18.4170   -4.0752   -8.6895 O   0  0  0  0  0  0  0  0  0  0  0  0
  2  1  1  1
  3  2  1  0
  4  3  1  0
  5  4  1  0
  5  6  2  0
  7  8  2  0
  7  2  1  0
  9  5  1  0
 11 10  1  6
 11 12  1  0
 12  7  1  0
 13 11  1  0
 14 13  2  0
 16 15  1  0
 16 18  1  0
 17 16  2  0
 19 18  1  0
 19 20  1  0
 20 21  1  0
 22 21  1  1
 22 23  1  0
 23 13  1  0
 24 22  1  0
 24 25  1  0
 26 24  2  0
M  END
$$$$
