EAR.pdb
     RDKit          3D

 26 25  0  0  1  0  0  0  0  0999 V2000
   29.6703  -24.1744  -17.2175 N   0  0  0  0  0  0  0  0  0  0  0  0
   28.9763  -22.9671  -17.6223 C   0  0  1  0  0  0  0  0  0  0  0  0
   27.8152  -23.2139  -18.5305 C   0  0  0  0  0  0  0  0  0  0  0  0
   28.1452  -23.7651  -19.8725 C   0  0  0  0  0  0  0  0  0  0  0  0
   28.5679  -22.7764  -20.8734 C   0  0  0  0  0  0  0  0  0  0  0  0
   28.8148  -23.1377  -22.0493 O   0  0  0  0  0  0  0  0  0  0  0  0
   28.4882  -22.2023  -16.4436 C   0  0  0  0  0  0  0  0  0  0  0  0
   28.3724  -22.8155  -15.3561 O   0  0  0  0  0  0  0  0  0  0  0  0
   28.7164  -21.4070  -20.5817 O   0  0  0  0  0  0  0  0  0  0  0  0
   27.7618  -18.5659  -15.6221 C   0  0  0  0  0  0  0  0  0  0  0  0
   27.7858  -20.0316  -15.3488 C   0  0  2  0  0  0  0  0  0  0  0  0
   28.1523  -20.8430  -16.4774 N   0  0  0  0  0  0  0  0  0  0  0  0
   26.4210  -20.4676  -14.8936 C   0  0  0  0  0  0  0  0  0  0  0  0
   25.5346  -20.7964  -15.7392 O   0  0  0  0  0  0  0  0  0  0  0  0
   22.4204  -21.3953   -7.1397 N   0  0  0  0  0  0  0  0  0  0  0  0
   21.9492  -21.2123   -8.4888 C   0  0  0  0  0  0  0  0  0  0  0  0
   20.6995  -21.3394   -8.7535 N   0  0  0  0  0  0  0  0  0  0  0  0
   22.8282  -20.8925   -9.5460 N   0  0  0  0  0  0  0  0  0  0  0  0
   24.2586  -20.6996   -9.3053 C   0  0  0  0  0  0  0  0  0  0  0  0
   24.8512  -20.2300  -10.6054 C   0  0  0  0  0  0  0  0  0  0  0  0
   24.7227  -21.2517  -11.6519 C   0  0  0  0  0  0  0  0  0  0  0  0
   24.7277  -20.8536  -13.0705 C   0  0  2  0  0  0  0  0  0  0  0  0
   26.0572  -20.5343  -13.5300 N   0  0  0  0  0  0  0  0  0  0  0  0
   23.7197  -19.8736  -13.5036 C   0  0  0  0  0  0  0  0  0  0  0  0
   22.3869  -20.2356  -13.6323 O   0  0  0  0  0  0  0  0  0  0  0  0
   23.9881  -18.6684  -13.7809 O   0  0  0  0  0  0  0  0  0  0  0  0
  2  1  1  1
  3  2  1  0
  4  3  1  0
  5  4  1  0
  5  6  2  0
  7  8  2  0
  7  2  1  0
  9  5  1  0
 11 10  1  6
 11 12  1  0
 12  7  1  0
 13 11  1  0
 14 13  2  0
 16 15  1  0
 16 18  1  0
 17 16  2  0
 19 18  1  0
 19 20  1  0
 20 21  1  0
 22 21  1  1
 22 23  1  0
 23 13  1  0
 24 22  1  0
 24 25  1  0
 26 24  2  0
M  END
$$$$
