EAR.pdb
     RDKit          3D

 26 25  0  0  1  0  0  0  0  0999 V2000
   19.6892  -19.2695  -16.1170 N   0  0  0  0  0  0  0  0  0  0  0  0
   19.6864  -20.1308  -14.9503 C   0  0  1  0  0  0  0  0  0  0  0  0
   19.6840  -21.5894  -15.2767 C   0  0  0  0  0  0  0  0  0  0  0  0
   18.3454  -22.2113  -15.4641 C   0  0  0  0  0  0  0  0  0  0  0  0
   17.4548  -22.1538  -14.2973 C   0  0  0  0  0  0  0  0  0  0  0  0
   17.9291  -22.2393  -13.1389 O   0  0  0  0  0  0  0  0  0  0  0  0
   20.8538  -19.8547  -14.0710 C   0  0  0  0  0  0  0  0  0  0  0  0
   21.9387  -19.5471  -14.6191 O   0  0  0  0  0  0  0  0  0  0  0  0
   16.0590  -22.0039  -14.4063 O   0  0  0  0  0  0  0  0  0  0  0  0
   21.4830  -19.4637  -10.3458 C   0  0  0  0  0  0  0  0  0  0  0  0
   21.8864  -19.5876  -11.7760 C   0  0  2  0  0  0  0  0  0  0  0  0
   20.8120  -19.9177  -12.6724 N   0  0  0  0  0  0  0  0  0  0  0  0
   22.9329  -20.6598  -11.8990 C   0  0  0  0  0  0  0  0  0  0  0  0
   22.6035  -21.8846  -11.8963 O   0  0  0  0  0  0  0  0  0  0  0  0
   28.2902  -18.1569  -15.8010 N   0  0  0  0  0  0  0  0  0  0  0  0
   27.2414  -18.6861  -16.6351 C   0  0  0  0  0  0  0  0  0  0  0  0
   26.7384  -17.9620  -17.5682 N   0  0  0  0  0  0  0  0  0  0  0  0
   26.7406  -19.9941  -16.4591 N   0  0  0  0  0  0  0  0  0  0  0  0
   27.0814  -20.7786  -15.2719 C   0  0  0  0  0  0  0  0  0  0  0  0
   26.2184  -20.2599  -14.1546 C   0  0  0  0  0  0  0  0  0  0  0  0
   26.4711  -20.9845  -12.9029 C   0  0  0  0  0  0  0  0  0  0  0  0
   25.3419  -21.3785  -12.0424 C   0  0  2  0  0  0  0  0  0  0  0  0
   24.3103  -20.3703  -12.0216 N   0  0  0  0  0  0  0  0  0  0  0  0
   25.6588  -21.9033  -10.7053 C   0  0  0  0  0  0  0  0  0  0  0  0
   25.3753  -21.1635   -9.5666 O   0  0  0  0  0  0  0  0  0  0  0  0
   26.1958  -23.0315  -10.5045 O   0  0  0  0  0  0  0  0  0  0  0  0
  2  1  1  6
  3  2  1  0
  4  3  1  0
  5  4  1  0
  5  6  2  0
  7  8  2  0
  7  2  1  0
  9  5  1  0
 11 10  1  1
 11 12  1  0
 12  7  1  0
 13 11  1  0
 14 13  2  0
 16 15  1  0
 16 18  1  0
 17 16  2  0
 19 18  1  0
 19 20  1  0
 20 21  1  0
 22 21  1  1
 22 23  1  0
 23 13  1  0
 24 22  1  0
 24 25  1  0
 26 24  2  0
M  END
$$$$
