EAR.pdb
     RDKit          3D

 26 25  0  0  1  0  0  0  0  0999 V2000
   19.6651  -10.6902  -15.3639 N   0  0  0  0  0  0  0  0  0  0  0  0
   19.8292   -9.2539  -15.2488 C   0  0  1  0  0  0  0  0  0  0  0  0
   18.8097   -8.4671  -16.0075 C   0  0  0  0  0  0  0  0  0  0  0  0
   17.4872   -9.1234  -16.1917 C   0  0  0  0  0  0  0  0  0  0  0  0
   16.5294   -8.3876  -17.0278 C   0  0  0  0  0  0  0  0  0  0  0  0
   15.4734   -7.9342  -16.5244 O   0  0  0  0  0  0  0  0  0  0  0  0
   19.7883   -8.8167  -13.8277 C   0  0  0  0  0  0  0  0  0  0  0  0
   19.0330   -9.4411  -13.0455 O   0  0  0  0  0  0  0  0  0  0  0  0
   16.7332   -8.1548  -18.4014 O   0  0  0  0  0  0  0  0  0  0  0  0
   21.5434   -6.2330  -11.6547 C   0  0  0  0  0  0  0  0  0  0  0  0
   20.5259   -7.2804  -11.9569 C   0  0  2  0  0  0  0  0  0  0  0  0
   20.5414   -7.7532  -13.3144 N   0  0  0  0  0  0  0  0  0  0  0  0
   19.1559   -6.7275  -11.6788 C   0  0  0  0  0  0  0  0  0  0  0  0
   18.5177   -6.1042  -12.5803 O   0  0  0  0  0  0  0  0  0  0  0  0
   12.2159   -9.8415   -7.3157 N   0  0  0  0  0  0  0  0  0  0  0  0
   11.9635   -8.4356   -7.5035 C   0  0  0  0  0  0  0  0  0  0  0  0
   10.8312   -7.9369   -7.1613 N   0  0  0  0  0  0  0  0  0  0  0  0
   12.9340   -7.5741   -8.0590 N   0  0  0  0  0  0  0  0  0  0  0  0
   14.2567   -8.0725   -8.4373 C   0  0  0  0  0  0  0  0  0  0  0  0
   14.9912   -6.9123   -9.0509 C   0  0  0  0  0  0  0  0  0  0  0  0
   16.3618   -7.2836   -9.4236 C   0  0  0  0  0  0  0  0  0  0  0  0
   17.2213   -6.3115  -10.1217 C   0  0  2  0  0  0  0  0  0  0  0  0
   18.5169   -6.8677  -10.4265 N   0  0  0  0  0  0  0  0  0  0  0  0
   17.2966   -4.9514   -9.5666 C   0  0  0  0  0  0  0  0  0  0  0  0
   16.3663   -3.9863   -9.9235 O   0  0  0  0  0  0  0  0  0  0  0  0
   18.1874   -4.5763   -8.7496 O   0  0  0  0  0  0  0  0  0  0  0  0
  2  1  1  1
  3  2  1  0
  4  3  1  0
  5  4  1  0
  5  6  2  0
  7  8  2  0
  7  2  1  0
  9  5  1  0
 11 10  1  6
 11 12  1  0
 12  7  1  0
 13 11  1  0
 14 13  2  0
 16 15  1  0
 16 18  1  0
 17 16  2  0
 19 18  1  0
 19 20  1  0
 20 21  1  0
 22 21  1  1
 22 23  1  0
 23 13  1  0
 24 22  1  0
 24 25  1  0
 26 24  2  0
M  END
$$$$
