EAR.pdb
     RDKit          3D

 26 25  0  0  1  0  0  0  0  0999 V2000
   26.7768  -14.9503  -15.9659 N   0  0  0  0  0  0  0  0  0  0  0  0
   26.1818  -14.0455  -16.9305 C   0  0  1  0  0  0  0  0  0  0  0  0
   24.8572  -14.5029  -17.4501 C   0  0  0  0  0  0  0  0  0  0  0  0
   23.9080  -15.0325  -16.4341 C   0  0  0  0  0  0  0  0  0  0  0  0
   22.6533  -15.5790  -16.9680 C   0  0  0  0  0  0  0  0  0  0  0  0
   21.7727  -14.8075  -17.4191 O   0  0  0  0  0  0  0  0  0  0  0  0
   26.0102  -12.6827  -16.3598 C   0  0  0  0  0  0  0  0  0  0  0  0
   25.4391  -12.5821  -15.2482 O   0  0  0  0  0  0  0  0  0  0  0  0
   22.3731  -16.9584  -17.0040 O   0  0  0  0  0  0  0  0  0  0  0  0
   26.9492   -9.1206  -17.3163 C   0  0  0  0  0  0  0  0  0  0  0  0
   26.2723  -10.1696  -16.5009 C   0  0  2  0  0  0  0  0  0  0  0  0
   26.4477  -11.5103  -16.9890 N   0  0  0  0  0  0  0  0  0  0  0  0
   24.7968   -9.8842  -16.4624 C   0  0  0  0  0  0  0  0  0  0  0  0
   24.0008  -10.5035  -17.2315 O   0  0  0  0  0  0  0  0  0  0  0  0
   17.9201  -13.1895  -16.0849 N   0  0  0  0  0  0  0  0  0  0  0  0
   17.4897  -11.8211  -15.9514 C   0  0  0  0  0  0  0  0  0  0  0  0
   16.2403  -11.5334  -16.0177 N   0  0  0  0  0  0  0  0  0  0  0  0
   18.4088  -10.7695  -15.7465 N   0  0  0  0  0  0  0  0  0  0  0  0
   19.8481  -11.0266  -15.6888 C   0  0  0  0  0  0  0  0  0  0  0  0
   20.5178   -9.6845  -15.5776 C   0  0  0  0  0  0  0  0  0  0  0  0
   21.9797   -9.8101  -15.6309 C   0  0  0  0  0  0  0  0  0  0  0  0
   22.8226   -8.6033  -15.5669 C   0  0  2  0  0  0  0  0  0  0  0  0
   24.2270   -8.9321  -15.5877 N   0  0  0  0  0  0  0  0  0  0  0  0
   22.4845   -7.5927  -14.5528 C   0  0  0  0  0  0  0  0  0  0  0  0
   21.2877   -6.8944  -14.6177 O   0  0  0  0  0  0  0  0  0  0  0  0
   23.2376   -7.2975  -13.5796 O   0  0  0  0  0  0  0  0  0  0  0  0
  2  1  1  1
  3  2  1  0
  4  3  1  0
  5  4  1  0
  5  6  2  0
  7  8  2  0
  7  2  1  0
  9  5  1  0
 11 10  1  6
 11 12  1  0
 12  7  1  0
 13 11  1  0
 14 13  2  0
 16 15  1  0
 16 18  1  0
 17 16  2  0
 19 18  1  0
 19 20  1  0
 20 21  1  0
 22 21  1  1
 22 23  1  0
 23 13  1  0
 24 22  1  0
 24 25  1  0
 26 24  2  0
M  END
$$$$
