EAR.pdb
     RDKit          3D

 26 25  0  0  1  0  0  0  0  0999 V2000
   13.4315   -9.2934  -11.1146 N   0  0  0  0  0  0  0  0  0  0  0  0
   14.7850   -9.1968  -10.6032 C   0  0  1  0  0  0  0  0  0  0  0  0
   15.7575  -10.0964  -11.2952 C   0  0  0  0  0  0  0  0  0  0  0  0
   15.5134  -11.5563  -11.1445 C   0  0  0  0  0  0  0  0  0  0  0  0
   16.4689  -12.4301  -11.8382 C   0  0  0  0  0  0  0  0  0  0  0  0
   16.3831  -13.6762  -11.7191 O   0  0  0  0  0  0  0  0  0  0  0  0
   15.2987   -7.8037  -10.6915 C   0  0  0  0  0  0  0  0  0  0  0  0
   15.1628   -7.1985  -11.7812 O   0  0  0  0  0  0  0  0  0  0  0  0
   17.5059  -11.9365  -12.6528 O   0  0  0  0  0  0  0  0  0  0  0  0
   16.6096   -5.1406   -8.3545 C   0  0  0  0  0  0  0  0  0  0  0  0
   16.4841   -5.8089   -9.6816 C   0  0  2  0  0  0  0  0  0  0  0  0
   15.9224   -7.1313   -9.6329 N   0  0  0  0  0  0  0  0  0  0  0  0
   17.8461   -5.9112  -10.3095 C   0  0  0  0  0  0  0  0  0  0  0  0
   18.5827   -6.9200  -10.0892 O   0  0  0  0  0  0  0  0  0  0  0  0
   20.7673  -10.6768  -15.1810 N   0  0  0  0  0  0  0  0  0  0  0  0
   21.7201  -10.0827  -14.2782 C   0  0  0  0  0  0  0  0  0  0  0  0
   22.6899  -10.7861  -13.8169 N   0  0  0  0  0  0  0  0  0  0  0  0
   21.6226   -8.7327  -13.8777 N   0  0  0  0  0  0  0  0  0  0  0  0
   20.5190   -7.8881  -14.3357 C   0  0  0  0  0  0  0  0  0  0  0  0
   20.6875   -6.5579  -13.6543 C   0  0  0  0  0  0  0  0  0  0  0  0
   19.6053   -6.3077  -12.6943 C   0  0  0  0  0  0  0  0  0  0  0  0
   19.5941   -5.0605  -11.9099 C   0  0  2  0  0  0  0  0  0  0  0  0
   18.3702   -4.9128  -11.1608 N   0  0  0  0  0  0  0  0  0  0  0  0
   20.0002   -3.8242  -12.5958 C   0  0  0  0  0  0  0  0  0  0  0  0
   21.3407   -3.5370  -12.8072 O   0  0  0  0  0  0  0  0  0  0  0  0
   19.1815   -2.9614  -13.0281 O   0  0  0  0  0  0  0  0  0  0  0  0
  2  1  1  6
  3  2  1  0
  4  3  1  0
  5  4  1  0
  5  6  2  0
  7  8  2  0
  7  2  1  0
  9  5  1  0
 11 10  1  1
 11 12  1  0
 12  7  1  0
 13 11  1  0
 14 13  2  0
 16 15  1  0
 16 18  1  0
 17 16  2  0
 19 18  1  0
 19 20  1  0
 20 21  1  0
 22 21  1  6
 22 23  1  0
 23 13  1  0
 24 22  1  0
 24 25  1  0
 26 24  2  0
M  END
$$$$
