EAR.pdb
     RDKit          3D

 26 25  0  0  1  0  0  0  0  0999 V2000
   14.8763  -26.3364   -6.0564 N   0  0  0  0  0  0  0  0  0  0  0  0
   15.2224  -24.9333   -6.1779 C   0  0  1  0  0  0  0  0  0  0  0  0
   16.6097  -24.6123   -5.7237 C   0  0  0  0  0  0  0  0  0  0  0  0
   16.8637  -24.7484   -4.2640 C   0  0  0  0  0  0  0  0  0  0  0  0
   17.5037  -26.0042   -3.8500 C   0  0  0  0  0  0  0  0  0  0  0  0
   17.9002  -26.8229   -4.7141 O   0  0  0  0  0  0  0  0  0  0  0  0
   15.0721  -24.4583   -7.5793 C   0  0  0  0  0  0  0  0  0  0  0  0
   15.4196  -25.2349   -8.5003 O   0  0  0  0  0  0  0  0  0  0  0  0
   17.7039  -26.3529   -2.5006 O   0  0  0  0  0  0  0  0  0  0  0  0
   13.4987  -21.4902   -9.3453 C   0  0  0  0  0  0  0  0  0  0  0  0
   14.3443  -22.7158   -9.2640 C   0  0  2  0  0  0  0  0  0  0  0  0
   14.5669  -23.1995   -7.9287 N   0  0  0  0  0  0  0  0  0  0  0  0
   15.6859  -22.4270   -9.8776 C   0  0  0  0  0  0  0  0  0  0  0  0
   16.5842  -21.8299   -9.2103 O   0  0  0  0  0  0  0  0  0  0  0  0
   20.4265  -26.9612  -15.8303 N   0  0  0  0  0  0  0  0  0  0  0  0
   21.1203  -25.7200  -15.5985 C   0  0  0  0  0  0  0  0  0  0  0  0
   22.2579  -25.5087  -16.1546 N   0  0  0  0  0  0  0  0  0  0  0  0
   20.5835  -24.7124  -14.7684 N   0  0  0  0  0  0  0  0  0  0  0  0
   19.3058  -24.9030  -14.0810 C   0  0  0  0  0  0  0  0  0  0  0  0
   19.0330  -23.6313  -13.3258 C   0  0  0  0  0  0  0  0  0  0  0  0
   17.7621  -23.7056  -12.5943 C   0  0  0  0  0  0  0  0  0  0  0  0
   17.3008  -22.5498  -11.8056 C   0  0  2  0  0  0  0  0  0  0  0  0
   16.0143  -22.7960  -11.2013 N   0  0  0  0  0  0  0  0  0  0  0  0
   17.3974  -21.2210  -12.4292 C   0  0  0  0  0  0  0  0  0  0  0  0
   18.5627  -20.4747  -12.3335 O   0  0  0  0  0  0  0  0  0  0  0  0
   16.4539  -20.6808  -13.0771 O   0  0  0  0  0  0  0  0  0  0  0  0
  2  1  1  6
  3  2  1  0
  4  3  1  0
  5  4  1  0
  5  6  2  0
  7  8  2  0
  7  2  1  0
  9  5  1  0
 11 10  1  1
 11 12  1  0
 12  7  1  0
 13 11  1  0
 14 13  2  0
 16 15  1  0
 16 18  1  0
 17 16  2  0
 19 18  1  0
 19 20  1  0
 20 21  1  0
 22 21  1  6
 22 23  1  0
 23 13  1  0
 24 22  1  0
 24 25  1  0
 26 24  2  0
M  END
$$$$
