EAR.pdb
     RDKit          3D

 26 25  0  0  1  0  0  0  0  0999 V2000
   22.7329  -19.1545  -18.8379 N   0  0  0  0  0  0  0  0  0  0  0  0
   23.2018  -17.9941  -18.1053 C   0  0  1  0  0  0  0  0  0  0  0  0
   22.2088  -17.4566  -17.1261 C   0  0  0  0  0  0  0  0  0  0  0  0
   21.1762  -18.4177  -16.6534 C   0  0  0  0  0  0  0  0  0  0  0  0
   20.9809  -18.4681  -15.1983 C   0  0  0  0  0  0  0  0  0  0  0  0
   21.2051  -19.5306  -14.5699 O   0  0  0  0  0  0  0  0  0  0  0  0
   24.4619  -18.2898  -17.3724 C   0  0  0  0  0  0  0  0  0  0  0  0
   24.5759  -19.4179  -16.8372 O   0  0  0  0  0  0  0  0  0  0  0  0
   20.5440  -17.3612  -14.4458 O   0  0  0  0  0  0  0  0  0  0  0  0
   27.6531  -16.4356  -16.4498 C   0  0  0  0  0  0  0  0  0  0  0  0
   26.7738  -17.6329  -16.5801 C   0  0  2  0  0  0  0  0  0  0  0  0
   25.5240  -17.3856  -17.2461 N   0  0  0  0  0  0  0  0  0  0  0  0
   26.4658  -18.1662  -15.2088 C   0  0  0  0  0  0  0  0  0  0  0  0
   25.5444  -17.6479  -14.5081 O   0  0  0  0  0  0  0  0  0  0  0  0
   21.2210  -19.8850  -10.0297 N   0  0  0  0  0  0  0  0  0  0  0  0
   22.2907  -20.6932   -9.5024 C   0  0  0  0  0  0  0  0  0  0  0  0
   22.2229  -21.1406   -8.3010 N   0  0  0  0  0  0  0  0  0  0  0  0
   23.4282  -21.0155  -10.2736 N   0  0  0  0  0  0  0  0  0  0  0  0
   23.6460  -20.4074  -11.5866 C   0  0  0  0  0  0  0  0  0  0  0  0
   24.9447  -20.9620  -12.1042 C   0  0  0  0  0  0  0  0  0  0  0  0
   25.4277  -20.2004  -13.2628 C   0  0  0  0  0  0  0  0  0  0  0  0
   26.8492  -19.8234  -13.3521 C   0  0  2  0  0  0  0  0  0  0  0  0
   27.1691  -19.2499  -14.6365 N   0  0  0  0  0  0  0  0  0  0  0  0
   27.8424  -20.8101  -12.9006 C   0  0  0  0  0  0  0  0  0  0  0  0
   28.0076  -21.0848  -11.5510 O   0  0  0  0  0  0  0  0  0  0  0  0
   28.5935  -21.4582  -13.6863 O   0  0  0  0  0  0  0  0  0  0  0  0
  2  1  1  1
  3  2  1  0
  4  3  1  0
  5  4  1  0
  5  6  2  0
  7  8  2  0
  7  2  1  0
  9  5  1  0
 11 10  1  1
 11 12  1  0
 12  7  1  0
 13 11  1  0
 14 13  2  0
 16 15  1  0
 16 18  1  0
 17 16  2  0
 19 18  1  0
 19 20  1  0
 20 21  1  0
 22 21  1  6
 22 23  1  0
 23 13  1  0
 24 22  1  0
 24 25  1  0
 26 24  2  0
M  END
$$$$
