EAR.pdb
     RDKit          3D

 26 25  0  0  1  0  0  0  0  0999 V2000
   13.5795   -9.4572  -10.4793 N   0  0  0  0  0  0  0  0  0  0  0  0
   15.0276   -9.3975  -10.4301 C   0  0  1  0  0  0  0  0  0  0  0  0
   15.7018  -10.2217  -11.4790 C   0  0  0  0  0  0  0  0  0  0  0  0
   15.5347  -11.6949  -11.3552 C   0  0  0  0  0  0  0  0  0  0  0  0
   16.3481  -12.5011  -12.2752 C   0  0  0  0  0  0  0  0  0  0  0  0
   16.3077  -13.7538  -12.2176 O   0  0  0  0  0  0  0  0  0  0  0  0
   15.5162   -7.9982  -10.5553 C   0  0  0  0  0  0  0  0  0  0  0  0
   15.1429   -7.3358  -11.5522 O   0  0  0  0  0  0  0  0  0  0  0  0
   17.1952  -11.9334  -13.2461 O   0  0  0  0  0  0  0  0  0  0  0  0
   17.0953   -5.3245   -8.4835 C   0  0  0  0  0  0  0  0  0  0  0  0
   16.9641   -6.0802   -9.7623 C   0  0  2  0  0  0  0  0  0  0  0  0
   16.3649   -7.3801   -9.6283 N   0  0  0  0  0  0  0  0  0  0  0  0
   18.3288   -6.2636  -10.3654 C   0  0  0  0  0  0  0  0  0  0  0  0
   19.0589   -7.2420  -10.0213 O   0  0  0  0  0  0  0  0  0  0  0  0
   22.4270  -11.3136  -14.2170 N   0  0  0  0  0  0  0  0  0  0  0  0
   22.8304  -10.1977  -15.0340 C   0  0  0  0  0  0  0  0  0  0  0  0
   23.8370  -10.3122  -15.8225 N   0  0  0  0  0  0  0  0  0  0  0  0
   22.1459   -8.9637  -14.9971 N   0  0  0  0  0  0  0  0  0  0  0  0
   21.0529   -8.7357  -14.0513 C   0  0  0  0  0  0  0  0  0  0  0  0
   21.2457   -7.3491  -13.5017 C   0  0  0  0  0  0  0  0  0  0  0  0
   20.1467   -6.9718  -12.6042 C   0  0  0  0  0  0  0  0  0  0  0  0
   20.0964   -5.6131  -12.0367 C   0  0  2  0  0  0  0  0  0  0  0  0
   18.8627   -5.3769  -11.3272 N   0  0  0  0  0  0  0  0  0  0  0  0
   20.4760   -4.4963  -12.9156 C   0  0  0  0  0  0  0  0  0  0  0  0
   21.8102   -4.2165  -13.1721 O   0  0  0  0  0  0  0  0  0  0  0  0
   19.6390   -3.7350  -13.4826 O   0  0  0  0  0  0  0  0  0  0  0  0
  2  1  1  6
  3  2  1  0
  4  3  1  0
  5  4  1  0
  5  6  2  0
  7  8  2  0
  7  2  1  0
  9  5  1  0
 11 10  1  1
 11 12  1  0
 12  7  1  0
 13 11  1  0
 14 13  2  0
 16 15  1  0
 16 18  1  0
 17 16  2  0
 19 18  1  0
 19 20  1  0
 20 21  1  0
 22 21  1  6
 22 23  1  0
 23 13  1  0
 24 22  1  0
 24 25  1  0
 26 24  2  0
M  END
$$$$
