EAR.pdb
     RDKit          3D

 26 25  0  0  1  0  0  0  0  0999 V2000
   24.0930  -19.5312  -18.4165 N   0  0  0  0  0  0  0  0  0  0  0  0
   24.8239  -18.5842  -17.5968 C   0  0  1  0  0  0  0  0  0  0  0  0
   23.9839  -17.4641  -17.0737 C   0  0  0  0  0  0  0  0  0  0  0  0
   22.8463  -17.8580  -16.1994 C   0  0  0  0  0  0  0  0  0  0  0  0
   21.5377  -17.3123  -16.5836 C   0  0  0  0  0  0  0  0  0  0  0  0
   20.5272  -17.5446  -15.8771 O   0  0  0  0  0  0  0  0  0  0  0  0
   25.4715  -19.2573  -16.4393 C   0  0  0  0  0  0  0  0  0  0  0  0
   24.8742  -20.2293  -15.9192 O   0  0  0  0  0  0  0  0  0  0  0  0
   21.3455  -16.5206  -17.7320 O   0  0  0  0  0  0  0  0  0  0  0  0
   28.7917  -19.0247  -14.5992 C   0  0  0  0  0  0  0  0  0  0  0  0
   27.4103  -19.5336  -14.8364 C   0  0  2  0  0  0  0  0  0  0  0  0
   26.7045  -18.8706  -15.8989 N   0  0  0  0  0  0  0  0  0  0  0  0
   26.6049  -19.3699  -13.5777 C   0  0  0  0  0  0  0  0  0  0  0  0
   25.8597  -18.3562  -13.4172 O   0  0  0  0  0  0  0  0  0  0  0  0
   19.0080  -20.3199  -12.1224 N   0  0  0  0  0  0  0  0  0  0  0  0
   19.4986  -20.1238  -10.7821 C   0  0  0  0  0  0  0  0  0  0  0  0
   18.6708  -19.9585   -9.8149 N   0  0  0  0  0  0  0  0  0  0  0  0
   20.8798  -20.1074  -10.4912 N   0  0  0  0  0  0  0  0  0  0  0  0
   21.8764  -20.1599  -11.5614 C   0  0  0  0  0  0  0  0  0  0  0  0
   23.2199  -20.2437  -10.8904 C   0  0  0  0  0  0  0  0  0  0  0  0
   24.3104  -20.2332  -11.8735 C   0  0  0  0  0  0  0  0  0  0  0  0
   25.7097  -20.3046  -11.4178 C   0  0  2  0  0  0  0  0  0  0  0  0
   26.6318  -20.3141  -12.5270 N   0  0  0  0  0  0  0  0  0  0  0  0
   26.0381  -21.3040  -10.3896 C   0  0  0  0  0  0  0  0  0  0  0  0
   25.8617  -21.0216   -9.0430 O   0  0  0  0  0  0  0  0  0  0  0  0
   26.4908  -22.4563  -10.6518 O   0  0  0  0  0  0  0  0  0  0  0  0
  2  1  1  1
  3  2  1  0
  4  3  1  0
  5  4  1  0
  5  6  2  0
  7  8  2  0
  7  2  1  0
  9  5  1  0
 11 10  1  1
 11 12  1  0
 12  7  1  0
 13 11  1  0
 14 13  2  0
 16 15  1  0
 16 18  1  0
 17 16  2  0
 19 18  1  0
 19 20  1  0
 20 21  1  0
 22 21  1  6
 22 23  1  0
 23 13  1  0
 24 22  1  0
 24 25  1  0
 26 24  2  0
M  END
$$$$
