EAR.pdb
     RDKit          3D

 26 25  0  0  1  0  0  0  0  0999 V2000
   27.9658  -19.2272  -17.0171 N   0  0  0  0  0  0  0  0  0  0  0  0
   28.0256  -17.8147  -17.3401 C   0  0  1  0  0  0  0  0  0  0  0  0
   27.9287  -17.5255  -18.8033 C   0  0  0  0  0  0  0  0  0  0  0  0
   27.0908  -18.4641  -19.5974 C   0  0  0  0  0  0  0  0  0  0  0  0
   27.0665  -18.2167  -21.0452 C   0  0  0  0  0  0  0  0  0  0  0  0
   27.6670  -17.2246  -21.5240 O   0  0  0  0  0  0  0  0  0  0  0  0
   26.9522  -17.0547  -16.6455 C   0  0  0  0  0  0  0  0  0  0  0  0
   25.8668  -17.6433  -16.4271 O   0  0  0  0  0  0  0  0  0  0  0  0
   26.3888  -19.0524  -21.9534 O   0  0  0  0  0  0  0  0  0  0  0  0
   26.4321  -13.4942  -15.4066 C   0  0  0  0  0  0  0  0  0  0  0  0
   26.0485  -14.9165  -15.6377 C   0  0  2  0  0  0  0  0  0  0  0  0
   27.0826  -15.7259  -16.2226 N   0  0  0  0  0  0  0  0  0  0  0  0
   24.8575  -14.9603  -16.5540 C   0  0  0  0  0  0  0  0  0  0  0  0
   24.8899  -15.6469  -17.6199 O   0  0  0  0  0  0  0  0  0  0  0  0
   20.2232  -20.8313  -14.4742 N   0  0  0  0  0  0  0  0  0  0  0  0
   19.2936  -20.0737  -15.2725 C   0  0  0  0  0  0  0  0  0  0  0  0
   18.1584  -20.5827  -15.5894 N   0  0  0  0  0  0  0  0  0  0  0  0
   19.5925  -18.7704  -15.7249 N   0  0  0  0  0  0  0  0  0  0  0  0
   20.9180  -18.1860  -15.5183 C   0  0  0  0  0  0  0  0  0  0  0  0
   20.8575  -16.7857  -16.0638 C   0  0  0  0  0  0  0  0  0  0  0  0
   22.1583  -16.1133  -15.9571 C   0  0  0  0  0  0  0  0  0  0  0  0
   22.3460  -14.7797  -16.5545 C   0  0  2  0  0  0  0  0  0  0  0  0
   23.6628  -14.2555  -16.2856 N   0  0  0  0  0  0  0  0  0  0  0  0
   21.2799  -13.7875  -16.3477 C   0  0  0  0  0  0  0  0  0  0  0  0
   21.4238  -12.7757  -15.4097 O   0  0  0  0  0  0  0  0  0  0  0  0
   20.1896  -13.7861  -16.9903 O   0  0  0  0  0  0  0  0  0  0  0  0
  2  1  1  6
  3  2  1  0
  4  3  1  0
  5  4  1  0
  5  6  2  0
  7  8  2  0
  7  2  1  0
  9  5  1  0
 11 10  1  6
 11 12  1  0
 12  7  1  0
 13 11  1  0
 14 13  2  0
 16 15  1  0
 16 18  1  0
 17 16  2  0
 19 18  1  0
 19 20  1  0
 20 21  1  0
 22 21  1  1
 22 23  1  0
 23 13  1  0
 24 22  1  0
 24 25  1  0
 26 24  2  0
M  END
$$$$
