MYV.pdb
     RDKit          3D

 28 28  0  0  1  0  0  0  0  0999 V2000
    4.7035  -18.2028   21.9600 C   0  0  0  0  0  0  0  0  0  0  0  0
    5.4466  -17.9219   20.3540 S   0  0  0  0  0  0  0  0  0  0  0  0
    6.5067  -16.4665   20.3034 C   0  0  0  0  0  0  0  0  0  0  0  0
    5.7768  -15.2048   20.7175 C   0  0  0  0  0  0  0  0  0  0  0  0
    6.8063  -14.1002   20.8003 C   0  0  2  0  0  0  0  0  0  0  0  0
    7.5330  -14.1117   19.5457 N   0  0  0  0  0  0  0  0  0  0  0  0
    7.7860  -14.3260   21.8901 C   0  0  0  0  0  0  0  0  0  0  0  0
    8.9320  -14.7511   21.6453 O   0  0  0  0  0  0  0  0  0  0  0  0
   10.8685  -15.0367   30.2134 O   0  0  0  0  0  0  0  0  0  0  0  0
   10.0725  -14.7781   29.0869 C   0  0  0  0  0  0  0  0  0  0  0  0
    9.2106  -15.7202   28.5728 C   0  0  0  0  0  0  0  0  0  0  0  0
    8.4430  -15.4297   27.4627 C   0  0  0  0  0  0  0  0  0  0  0  0
    8.5012  -14.2021   26.8252 C   0  0  0  0  0  0  0  0  0  0  0  0
    7.6755  -13.8992   25.6368 C   0  0  0  0  0  0  0  0  0  0  0  0
    8.3732  -14.3445   24.3470 C   0  0  2  0  0  0  0  0  0  0  0  0
    7.4709  -14.0709   23.2609 N   0  0  0  0  0  0  0  0  0  0  0  0
    8.6715  -15.7958   24.4806 C   0  0  0  0  0  0  0  0  0  0  0  0
    7.7202  -16.6081   24.6117 O   0  0  0  0  0  0  0  0  0  0  0  0
    9.3760  -13.2585   27.3544 C   0  0  0  0  0  0  0  0  0  0  0  0
   10.1383  -13.5543   28.4611 C   0  0  0  0  0  0  0  0  0  0  0  0
   12.2847  -17.4643   23.2420 C   0  0  0  0  0  0  0  0  0  0  0  0
   10.9862  -18.2269   23.3912 C   0  0  2  0  0  0  0  0  0  0  0  0
   10.1937  -18.0805   22.1323 C   0  0  0  0  0  0  0  0  0  0  0  0
   10.2754  -17.6857   24.6132 C   0  0  2  0  0  0  0  0  0  0  0  0
   10.0025  -16.2724   24.4623 N   0  0  0  0  0  0  0  0  0  0  0  0
   11.0162  -17.9723   25.8640 C   0  0  0  0  0  0  0  0  0  0  0  0
   11.4951  -17.0727   26.5947 O   0  0  0  0  0  0  0  0  0  0  0  0
   11.1871  -19.2939   26.2423 O   0  0  0  0  0  0  0  0  0  0  0  0
  1  2  1  0
  2  3  1  0
  4  3  1  0
  4  5  1  0
  5  6  1  6
  7  8  2  0
  7  5  1  0
  9 10  1  0
 10 11  2  0
 11 12  1  0
 13 14  1  0
 13 12  2  0
 15 14  1  1
 15 16  1  0
 16  7  1  0
 17 15  1  0
 18 17  2  0
 19 13  1  0
 20 19  2  0
 20 10  1  0
 22 24  1  0
 22 21  1  6
 23 22  1  0
 24 25  1  6
 25 17  1  0
 26 28  1  0
 26 24  1  0
 27 26  2  0
M  END
$$$$
