MYV.pdb
     RDKit          3D

 28 28  0  0  1  0  0  0  0  0999 V2000
    7.7360  -11.2000   19.5119 C   0  0  0  0  0  0  0  0  0  0  0  0
    7.1515  -12.5550   18.4958 S   0  0  0  0  0  0  0  0  0  0  0  0
    7.4515  -14.1744   19.2253 C   0  0  0  0  0  0  0  0  0  0  0  0
    8.6190  -14.1662   20.1913 C   0  0  0  0  0  0  0  0  0  0  0  0
    8.7128  -15.5516   20.7901 C   0  0  2  0  0  0  0  0  0  0  0  0
    7.3567  -15.9730   21.0827 N   0  0  0  0  0  0  0  0  0  0  0  0
    9.4723  -15.5628   22.0635 C   0  0  0  0  0  0  0  0  0  0  0  0
   10.7140  -15.4531   22.0715 O   0  0  0  0  0  0  0  0  0  0  0  0
   11.0470  -14.9302   30.7680 O   0  0  0  0  0  0  0  0  0  0  0  0
   10.4228  -15.0328   29.5152 C   0  0  0  0  0  0  0  0  0  0  0  0
    9.7740  -16.1795   29.1169 C   0  0  0  0  0  0  0  0  0  0  0  0
    9.1711  -16.2436   27.8766 C   0  0  0  0  0  0  0  0  0  0  0  0
    9.1891  -15.1796   26.9909 C   0  0  0  0  0  0  0  0  0  0  0  0
    8.5408  -15.2566   25.6644 C   0  0  0  0  0  0  0  0  0  0  0  0
    9.5341  -15.7010   24.5852 C   0  0  2  0  0  0  0  0  0  0  0  0
    8.8277  -15.6983   23.3322 N   0  0  0  0  0  0  0  0  0  0  0  0
   10.0178  -17.0577   24.9571 C   0  0  0  0  0  0  0  0  0  0  0  0
    9.1928  -18.0041   25.0318 O   0  0  0  0  0  0  0  0  0  0  0  0
    9.8480  -14.0264   27.4052 C   0  0  0  0  0  0  0  0  0  0  0  0
   10.4468  -13.9690   28.6427 C   0  0  0  0  0  0  0  0  0  0  0  0
   12.5226  -18.9385   23.1368 C   0  0  0  0  0  0  0  0  0  0  0  0
   13.0262  -18.9709   24.5634 C   0  0  2  0  0  0  0  0  0  0  0  0
   13.6250  -20.3137   24.8329 C   0  0  0  0  0  0  0  0  0  0  0  0
   11.8581  -18.6432   25.4687 C   0  0  2  0  0  0  0  0  0  0  0  0
   11.3850  -17.2970   25.2265 N   0  0  0  0  0  0  0  0  0  0  0  0
   12.1790  -18.8644   26.8982 C   0  0  0  0  0  0  0  0  0  0  0  0
   12.8866  -18.0755   27.5686 O   0  0  0  0  0  0  0  0  0  0  0  0
   11.6742  -19.9941   27.5212 O   0  0  0  0  0  0  0  0  0  0  0  0
  1  2  1  0
  2  3  1  0
  4  3  1  0
  4  5  1  0
  5  6  1  1
  7  8  2  0
  7  5  1  0
  9 10  1  0
 10 11  2  0
 11 12  1  0
 13 14  1  0
 13 12  2  0
 15 14  1  1
 15 16  1  0
 16  7  1  0
 17 15  1  0
 18 17  2  0
 19 13  1  0
 20 19  2  0
 20 10  1  0
 22 24  1  0
 22 21  1  6
 23 22  1  0
 24 25  1  1
 25 17  1  0
 26 28  1  0
 26 24  1  0
 27 26  2  0
M  END
$$$$
