MYV.pdb
     RDKit          3D

 28 28  0  0  1  0  0  0  0  0999 V2000
   13.3564  -23.7967   22.2658 C   0  0  0  0  0  0  0  0  0  0  0  0
   12.1653  -24.8994   21.5071 S   0  0  0  0  0  0  0  0  0  0  0  0
   10.6821  -25.1397   22.5006 C   0  0  0  0  0  0  0  0  0  0  0  0
   10.5978  -24.1659   23.6586 C   0  0  0  0  0  0  0  0  0  0  0  0
    9.3211  -24.4733   24.4084 C   0  0  2  0  0  0  0  0  0  0  0  0
    8.2292  -24.2630   23.4781 N   0  0  0  0  0  0  0  0  0  0  0  0
    9.1130  -23.5628   25.5600 C   0  0  0  0  0  0  0  0  0  0  0  0
    8.4621  -22.5071   25.4344 O   0  0  0  0  0  0  0  0  0  0  0  0
   12.3823  -26.8170   32.2064 O   0  0  0  0  0  0  0  0  0  0  0  0
   11.5061  -26.0406   31.4324 C   0  0  0  0  0  0  0  0  0  0  0  0
   10.5988  -26.6102   30.5681 C   0  0  0  0  0  0  0  0  0  0  0  0
    9.7525  -25.8140   29.8226 C   0  0  0  0  0  0  0  0  0  0  0  0
    9.7743  -24.4323   29.9061 C   0  0  0  0  0  0  0  0  0  0  0  0
    8.8642  -23.5869   29.1041 C   0  0  0  0  0  0  0  0  0  0  0  0
    9.6090  -22.9086   27.9491 C   0  0  2  0  0  0  0  0  0  0  0  0
    9.6415  -23.8451   26.8579 N   0  0  0  0  0  0  0  0  0  0  0  0
   10.9711  -22.5653   28.4387 C   0  0  0  0  0  0  0  0  0  0  0  0
   11.8675  -23.4475   28.4275 O   0  0  0  0  0  0  0  0  0  0  0  0
   10.6956  -23.8687   30.7832 C   0  0  0  0  0  0  0  0  0  0  0  0
   11.5363  -24.6679   31.5233 C   0  0  0  0  0  0  0  0  0  0  0  0
   12.0948  -18.5302   28.8974 C   0  0  0  0  0  0  0  0  0  0  0  0
   13.0199  -19.6385   28.4436 C   0  0  2  0  0  0  0  0  0  0  0  0
   12.9048  -19.7857   26.9606 C   0  0  0  0  0  0  0  0  0  0  0  0
   12.6385  -20.8921   29.2016 C   0  0  2  0  0  0  0  0  0  0  0  0
   11.2708  -21.2678   28.9138 N   0  0  0  0  0  0  0  0  0  0  0  0
   12.8776  -20.7597   30.6579 C   0  0  0  0  0  0  0  0  0  0  0  0
   14.0256  -20.6810   31.1564 O   0  0  0  0  0  0  0  0  0  0  0  0
   11.7831  -20.7212   31.5060 O   0  0  0  0  0  0  0  0  0  0  0  0
  1  2  1  0
  2  3  1  0
  4  3  1  0
  4  5  1  0
  5  6  1  6
  7  8  2  0
  7  5  1  0
  9 10  1  0
 10 11  2  0
 11 12  1  0
 13 14  1  0
 13 12  2  0
 15 14  1  1
 15 16  1  0
 16  7  1  0
 17 15  1  0
 18 17  2  0
 19 13  1  0
 20 19  2  0
 20 10  1  0
 22 24  1  0
 22 21  1  1
 23 22  1  0
 24 25  1  1
 25 17  1  0
 26 28  1  0
 26 24  1  0
 27 26  2  0
M  END
$$$$
