MYV.pdb
     RDKit          3D

 28 28  0  0  1  0  0  0  0  0999 V2000
    8.7343  -12.0067   18.7593 C   0  0  0  0  0  0  0  0  0  0  0  0
    7.9076  -13.5071   18.2343 S   0  0  0  0  0  0  0  0  0  0  0  0
    8.2958  -14.9330   19.2642 C   0  0  0  0  0  0  0  0  0  0  0  0
    9.7651  -15.3001   19.2135 C   0  0  0  0  0  0  0  0  0  0  0  0
   10.0099  -16.3145   20.3079 C   0  0  2  0  0  0  0  0  0  0  0  0
    8.9546  -17.3032   20.2048 N   0  0  0  0  0  0  0  0  0  0  0  0
    9.9314  -15.7116   21.6603 C   0  0  0  0  0  0  0  0  0  0  0  0
   10.8511  -14.9922   22.0969 O   0  0  0  0  0  0  0  0  0  0  0  0
    6.4020  -11.3607   28.3411 O   0  0  0  0  0  0  0  0  0  0  0  0
    6.6114  -12.2266   27.2567 C   0  0  0  0  0  0  0  0  0  0  0  0
    7.4607  -11.9055   26.2221 C   0  0  0  0  0  0  0  0  0  0  0  0
    7.6417  -12.7829   25.1717 C   0  0  0  0  0  0  0  0  0  0  0  0
    6.9914  -14.0035   25.1087 C   0  0  0  0  0  0  0  0  0  0  0  0
    7.1911  -14.9373   23.9800 C   0  0  0  0  0  0  0  0  0  0  0  0
    8.6715  -15.2953   23.8100 C   0  0  2  0  0  0  0  0  0  0  0  0
    8.8108  -15.9217   22.5227 N   0  0  0  0  0  0  0  0  0  0  0  0
    9.0391  -16.2092   24.9247 C   0  0  0  0  0  0  0  0  0  0  0  0
    8.7310  -15.8948   26.1029 O   0  0  0  0  0  0  0  0  0  0  0  0
    6.1359  -14.3164   26.1603 C   0  0  0  0  0  0  0  0  0  0  0  0
    5.9599  -13.4375   27.2042 C   0  0  0  0  0  0  0  0  0  0  0  0
   11.5825  -19.6506   24.3931 C   0  0  0  0  0  0  0  0  0  0  0  0
   10.3680  -19.6885   25.2950 C   0  0  2  0  0  0  0  0  0  0  0  0
    9.2198  -20.2685   24.5336 C   0  0  0  0  0  0  0  0  0  0  0  0
   10.1136  -18.2771   25.7798 C   0  0  2  0  0  0  0  0  0  0  0  0
    9.7265  -17.4202   24.6796 N   0  0  0  0  0  0  0  0  0  0  0  0
   11.2685  -17.7256   26.5265 C   0  0  0  0  0  0  0  0  0  0  0  0
   11.9734  -16.7831   26.0938 O   0  0  0  0  0  0  0  0  0  0  0  0
   11.5828  -18.2767   27.7579 O   0  0  0  0  0  0  0  0  0  0  0  0
  1  2  1  0
  2  3  1  0
  4  3  1  0
  4  5  1  0
  5  6  1  1
  7  8  2  0
  7  5  1  0
  9 10  1  0
 10 11  2  0
 11 12  1  0
 13 14  1  0
 13 12  2  0
 15 14  1  1
 15 16  1  0
 16  7  1  0
 17 15  1  0
 18 17  2  0
 19 13  1  0
 20 19  2  0
 20 10  1  0
 22 24  1  0
 22 21  1  6
 23 22  1  0
 24 25  1  6
 25 17  1  0
 26 28  1  0
 26 24  1  0
 27 26  2  0
M  END
$$$$
