MYV.pdb
     RDKit          3D

 28 28  0  0  1  0  0  0  0  0999 V2000
    7.9739  -18.4322   18.6226 C   0  0  0  0  0  0  0  0  0  0  0  0
    6.4451  -17.5596   18.2884 S   0  0  0  0  0  0  0  0  0  0  0  0
    6.3692  -15.9332   19.0589 C   0  0  0  0  0  0  0  0  0  0  0  0
    7.7243  -15.4595   19.5443 C   0  0  0  0  0  0  0  0  0  0  0  0
    7.4927  -14.2119   20.3669 C   0  0  2  0  0  0  0  0  0  0  0  0
    7.8797  -13.0872   19.5379 N   0  0  0  0  0  0  0  0  0  0  0  0
    8.3326  -14.1807   21.5884 C   0  0  0  0  0  0  0  0  0  0  0  0
    9.5626  -13.9910   21.5172 O   0  0  0  0  0  0  0  0  0  0  0  0
   10.4453  -14.9418   30.2007 O   0  0  0  0  0  0  0  0  0  0  0  0
    9.7613  -14.7692   28.9874 C   0  0  0  0  0  0  0  0  0  0  0  0
    9.0544  -15.7928   28.3982 C   0  0  0  0  0  0  0  0  0  0  0  0
    8.3937  -15.5856   27.2038 C   0  0  0  0  0  0  0  0  0  0  0  0
    8.4095  -14.3635   26.5535 C   0  0  0  0  0  0  0  0  0  0  0  0
    7.6991  -14.1501   25.2746 C   0  0  0  0  0  0  0  0  0  0  0  0
    8.5831  -14.5213   24.0790 C   0  0  2  0  0  0  0  0  0  0  0  0
    7.7820  -14.3644   22.8948 N   0  0  0  0  0  0  0  0  0  0  0  0
    9.0303  -15.9264   24.2755 C   0  0  0  0  0  0  0  0  0  0  0  0
    8.1676  -16.8324   24.4054 O   0  0  0  0  0  0  0  0  0  0  0  0
    9.1274  -13.3370   27.1591 C   0  0  0  0  0  0  0  0  0  0  0  0
    9.7837  -13.5501   28.3496 C   0  0  0  0  0  0  0  0  0  0  0  0
   12.8260  -17.2331   23.1633 C   0  0  0  0  0  0  0  0  0  0  0  0
   11.6052  -18.1164   23.3017 C   0  0  2  0  0  0  0  0  0  0  0  0
   10.8265  -18.0658   22.0267 C   0  0  0  0  0  0  0  0  0  0  0  0
   10.8218  -17.6297   24.5020 C   0  0  2  0  0  0  0  0  0  0  0  0
   10.4045  -16.2562   24.3180 N   0  0  0  0  0  0  0  0  0  0  0  0
   11.5683  -17.8127   25.7687 C   0  0  0  0  0  0  0  0  0  0  0  0
   11.9178  -16.8551   26.4991 O   0  0  0  0  0  0  0  0  0  0  0  0
   11.8944  -19.1000   26.1631 O   0  0  0  0  0  0  0  0  0  0  0  0
  1  2  1  0
  2  3  1  0
  4  3  1  0
  4  5  1  0
  5  6  1  6
  7  8  2  0
  7  5  1  0
  9 10  1  0
 10 11  2  0
 11 12  1  0
 13 14  1  0
 13 12  2  0
 15 14  1  1
 15 16  1  0
 16  7  1  0
 17 15  1  0
 18 17  2  0
 19 13  1  0
 20 19  2  0
 20 10  1  0
 22 24  1  0
 22 21  1  6
 23 22  1  0
 24 25  1  6
 25 17  1  0
 26 28  1  0
 26 24  1  0
 27 26  2  0
M  END
$$$$
