MYV.pdb
     RDKit          3D

 28 28  0  0  1  0  0  0  0  0999 V2000
    8.5188  -16.8475   27.6110 C   0  0  0  0  0  0  0  0  0  0  0  0
    8.1917  -18.4681   28.3015 S   0  0  0  0  0  0  0  0  0  0  0  0
    7.0427  -19.4446   27.3161 C   0  0  0  0  0  0  0  0  0  0  0  0
    7.6479  -19.8980   26.0029 C   0  0  0  0  0  0  0  0  0  0  0  0
    6.5820  -19.7398   24.9419 C   0  0  2  0  0  0  0  0  0  0  0  0
    6.2445  -21.0743   24.4867 N   0  0  0  0  0  0  0  0  0  0  0  0
    7.0666  -18.9732   23.7689 C   0  0  0  0  0  0  0  0  0  0  0  0
    7.7722  -19.5143   22.8952 O   0  0  0  0  0  0  0  0  0  0  0  0
    8.6411  -12.1743   18.3143 O   0  0  0  0  0  0  0  0  0  0  0  0
    8.1104  -12.9781   19.3350 C   0  0  0  0  0  0  0  0  0  0  0  0
    6.9066  -12.6898   19.9370 C   0  0  0  0  0  0  0  0  0  0  0  0
    6.4160  -13.5040   20.9383 C   0  0  0  0  0  0  0  0  0  0  0  0
    7.0966  -14.6270   21.3769 C   0  0  0  0  0  0  0  0  0  0  0  0
    6.5639  -15.4936   22.4498 C   0  0  0  0  0  0  0  0  0  0  0  0
    7.4282  -16.7458   22.6334 C   0  0  2  0  0  0  0  0  0  0  0  0
    6.7535  -17.5911   23.5816 N   0  0  0  0  0  0  0  0  0  0  0  0
    8.7599  -16.2993   23.1235 C   0  0  0  0  0  0  0  0  0  0  0  0
    8.8304  -15.6346   24.1890 O   0  0  0  0  0  0  0  0  0  0  0  0
    8.3120  -14.9075   20.7605 C   0  0  0  0  0  0  0  0  0  0  0  0
    8.7954  -14.0921   19.7633 C   0  0  0  0  0  0  0  0  0  0  0  0
   12.7454  -17.0161   24.8531 C   0  0  0  0  0  0  0  0  0  0  0  0
   11.3731  -17.2721   24.2690 C   0  0  2  0  0  0  0  0  0  0  0  0
   11.2294  -18.7352   23.9989 C   0  0  0  0  0  0  0  0  0  0  0  0
   11.2376  -16.4173   23.0270 C   0  0  2  0  0  0  0  0  0  0  0  0
    9.9417  -16.6101   22.4122 N   0  0  0  0  0  0  0  0  0  0  0  0
   12.3418  -16.6476   22.0663 C   0  0  0  0  0  0  0  0  0  0  0  0
   12.1787  -17.2247   20.9650 O   0  0  0  0  0  0  0  0  0  0  0  0
   13.6112  -16.2051   22.4007 O   0  0  0  0  0  0  0  0  0  0  0  0
  1  2  1  0
  2  3  1  0
  4  3  1  0
  4  5  1  0
  5  6  1  6
  7  8  2  0
  7  5  1  0
  9 10  1  0
 10 11  2  0
 11 12  1  0
 13 14  1  0
 13 12  2  0
 15 14  1  1
 15 16  1  0
 16  7  1  0
 17 15  1  0
 18 17  2  0
 19 13  1  0
 20 19  2  0
 20 10  1  0
 22 24  1  0
 22 21  1  6
 23 22  1  0
 24 25  1  6
 25 17  1  0
 26 28  1  0
 26 24  1  0
 27 26  2  0
M  END
$$$$
