MYV.pdb
     RDKit          3D

 28 28  0  0  1  0  0  0  0  0999 V2000
    7.5982  -21.3804   20.2635 C   0  0  0  0  0  0  0  0  0  0  0  0
    8.5078  -20.9532   18.7801 S   0  0  0  0  0  0  0  0  0  0  0  0
    8.7566  -19.1802   18.5818 C   0  0  0  0  0  0  0  0  0  0  0  0
    8.9785  -18.4759   19.9050 C   0  0  0  0  0  0  0  0  0  0  0  0
    9.0003  -16.9906   19.6221 C   0  0  2  0  0  0  0  0  0  0  0  0
   10.1190  -16.7514   18.7314 N   0  0  0  0  0  0  0  0  0  0  0  0
    9.2222  -16.1883   20.8491 C   0  0  0  0  0  0  0  0  0  0  0  0
   10.3694  -16.0190   21.3067 O   0  0  0  0  0  0  0  0  0  0  0  0
    7.1809  -11.6127   28.2108 O   0  0  0  0  0  0  0  0  0  0  0  0
    7.1479  -12.2331   26.9524 C   0  0  0  0  0  0  0  0  0  0  0  0
    7.8105  -11.7100   25.8652 C   0  0  0  0  0  0  0  0  0  0  0  0
    7.7552  -12.3485   24.6425 C   0  0  0  0  0  0  0  0  0  0  0  0
    7.0453  -13.5220   24.4536 C   0  0  0  0  0  0  0  0  0  0  0  0
    6.9914  -14.1995   23.1406 C   0  0  0  0  0  0  0  0  0  0  0  0
    8.3031  -14.9324   22.8390 C   0  0  2  0  0  0  0  0  0  0  0  0
    8.1455  -15.5750   21.5619 N   0  0  0  0  0  0  0  0  0  0  0  0
    8.5298  -15.9093   23.9378 C   0  0  0  0  0  0  0  0  0  0  0  0
    7.6291  -16.7430   24.2132 O   0  0  0  0  0  0  0  0  0  0  0  0
    6.3800  -14.0406   25.5600 C   0  0  0  0  0  0  0  0  0  0  0  0
    6.4391  -13.3993   26.7759 C   0  0  0  0  0  0  0  0  0  0  0  0
   12.3997  -16.8044   25.3442 C   0  0  0  0  0  0  0  0  0  0  0  0
   11.2124  -17.7423   25.3182 C   0  0  2  0  0  0  0  0  0  0  0  0
   11.1331  -18.3824   23.9698 C   0  0  0  0  0  0  0  0  0  0  0  0
    9.9824  -16.9334   25.6708 C   0  0  2  0  0  0  0  0  0  0  0  0
    9.7373  -15.9138   24.6733 N   0  0  0  0  0  0  0  0  0  0  0  0
   10.0619  -16.3604   27.0349 C   0  0  0  0  0  0  0  0  0  0  0  0
   10.0842  -15.1263   27.2563 O   0  0  0  0  0  0  0  0  0  0  0  0
   10.1138  -17.2280   28.1136 O   0  0  0  0  0  0  0  0  0  0  0  0
  1  2  1  0
  2  3  1  0
  4  3  1  0
  4  5  1  0
  5  6  1  6
  7  8  2  0
  7  5  1  0
  9 10  1  0
 10 11  2  0
 11 12  1  0
 13 14  1  0
 13 12  2  0
 15 14  1  1
 15 16  1  0
 16  7  1  0
 17 15  1  0
 18 17  2  0
 19 13  1  0
 20 19  2  0
 20 10  1  0
 22 24  1  0
 22 21  1  6
 23 22  1  0
 24 25  1  6
 25 17  1  0
 26 28  1  0
 26 24  1  0
 27 26  2  0
M  END
$$$$
