MYV.pdb
     RDKit          3D

 28 28  0  0  1  0  0  0  0  0999 V2000
    8.2212  -21.1653   20.1435 C   0  0  0  0  0  0  0  0  0  0  0  0
    7.9791  -20.4900   18.5017 S   0  0  0  0  0  0  0  0  0  0  0  0
    8.3270  -18.7256   18.3978 C   0  0  0  0  0  0  0  0  0  0  0  0
    8.9654  -18.1868   19.6621 C   0  0  0  0  0  0  0  0  0  0  0  0
    9.0841  -16.6882   19.4985 C   0  0  2  0  0  0  0  0  0  0  0  0
   10.2663  -16.4480   18.6943 N   0  0  0  0  0  0  0  0  0  0  0  0
    9.2735  -15.9949   20.7954 C   0  0  0  0  0  0  0  0  0  0  0  0
   10.4099  -15.8544   21.2884 O   0  0  0  0  0  0  0  0  0  0  0  0
    7.1997  -11.6449   28.2702 O   0  0  0  0  0  0  0  0  0  0  0  0
    7.1428  -12.2731   27.0164 C   0  0  0  0  0  0  0  0  0  0  0  0
    6.5378  -13.4971   26.8423 C   0  0  0  0  0  0  0  0  0  0  0  0
    6.5012  -14.0845   25.5934 C   0  0  0  0  0  0  0  0  0  0  0  0
    7.0598  -13.4838   24.4782 C   0  0  0  0  0  0  0  0  0  0  0  0
    7.0162  -14.1199   23.1442 C   0  0  0  0  0  0  0  0  0  0  0  0
    8.3110  -14.8854   22.8508 C   0  0  2  0  0  0  0  0  0  0  0  0
    8.1764  -15.4584   21.5384 N   0  0  0  0  0  0  0  0  0  0  0  0
    8.4637  -15.9226   23.9062 C   0  0  0  0  0  0  0  0  0  0  0  0
    7.5267  -16.7376   24.1057 O   0  0  0  0  0  0  0  0  0  0  0  0
    7.6683  -12.2470   24.6672 C   0  0  0  0  0  0  0  0  0  0  0  0
    7.7013  -11.6670   25.9145 C   0  0  0  0  0  0  0  0  0  0  0  0
   12.2501  -16.9221   25.4251 C   0  0  0  0  0  0  0  0  0  0  0  0
   11.0774  -17.8713   25.3081 C   0  0  2  0  0  0  0  0  0  0  0  0
   11.0727  -18.4651   23.9363 C   0  0  0  0  0  0  0  0  0  0  0  0
    9.8214  -17.0886   25.6264 C   0  0  2  0  0  0  0  0  0  0  0  0
    9.6414  -16.0048   24.6843 N   0  0  0  0  0  0  0  0  0  0  0  0
    9.8021  -16.6079   27.0278 C   0  0  0  0  0  0  0  0  0  0  0  0
    9.8437  -15.3923   27.3328 O   0  0  0  0  0  0  0  0  0  0  0  0
    9.7349  -17.5445   28.0463 O   0  0  0  0  0  0  0  0  0  0  0  0
  1  2  1  0
  2  3  1  0
  4  3  1  0
  4  5  1  0
  5  6  1  6
  7  8  2  0
  7  5  1  0
  9 10  1  0
 10 11  2  0
 11 12  1  0
 13 14  1  0
 13 12  2  0
 15 14  1  1
 15 16  1  0
 16  7  1  0
 17 15  1  0
 18 17  2  0
 19 13  1  0
 20 19  2  0
 20 10  1  0
 22 24  1  0
 22 21  1  6
 23 22  1  0
 24 25  1  6
 25 17  1  0
 26 28  1  0
 26 24  1  0
 27 26  2  0
M  END
$$$$
