MYV.pdb
     RDKit          3D

 28 28  0  0  1  0  0  0  0  0999 V2000
    6.3205   -9.7808   27.3133 C   0  0  0  0  0  0  0  0  0  0  0  0
    5.3826  -11.0739   28.1247 S   0  0  0  0  0  0  0  0  0  0  0  0
    5.3348  -12.6135   27.1908 C   0  0  0  0  0  0  0  0  0  0  0  0
    6.6311  -12.8832   26.4540 C   0  0  0  0  0  0  0  0  0  0  0  0
    6.3568  -13.9870   25.4574 C   0  0  2  0  0  0  0  0  0  0  0  0
    6.1514  -15.2004   26.2240 N   0  0  0  0  0  0  0  0  0  0  0  0
    7.5035  -14.2189   24.5464 C   0  0  0  0  0  0  0  0  0  0  0  0
    7.7715  -13.4132   23.6337 O   0  0  0  0  0  0  0  0  0  0  0  0
   11.5890  -15.3686   29.9401 O   0  0  0  0  0  0  0  0  0  0  0  0
   11.2696  -15.7108   28.6170 C   0  0  0  0  0  0  0  0  0  0  0  0
   10.5075  -16.8165   28.3148 C   0  0  0  0  0  0  0  0  0  0  0  0
   10.2136  -17.1217   27.0009 C   0  0  0  0  0  0  0  0  0  0  0  0
   10.6616  -16.3469   25.9447 C   0  0  0  0  0  0  0  0  0  0  0  0
   10.3421  -16.6809   24.5403 C   0  0  0  0  0  0  0  0  0  0  0  0
    9.5338  -15.5628   23.8731 C   0  0  2  0  0  0  0  0  0  0  0  0
    8.3504  -15.3643   24.6661 N   0  0  0  0  0  0  0  0  0  0  0  0
    9.2175  -16.0074   22.4892 C   0  0  0  0  0  0  0  0  0  0  0  0
    8.8223  -17.1862   22.2987 O   0  0  0  0  0  0  0  0  0  0  0  0
   11.4308  -15.2321   26.2632 C   0  0  0  0  0  0  0  0  0  0  0  0
   11.7202  -14.9334   27.5748 C   0  0  0  0  0  0  0  0  0  0  0  0
    8.8585  -13.1792   19.3660 C   0  0  0  0  0  0  0  0  0  0  0  0
    8.0103  -14.4269   19.4832 C   0  0  2  0  0  0  0  0  0  0  0  0
    6.8029  -14.1136   20.3068 C   0  0  0  0  0  0  0  0  0  0  0  0
    8.8769  -15.5151   20.0801 C   0  0  2  0  0  0  0  0  0  0  0  0
    9.3540  -15.1280   21.3905 N   0  0  0  0  0  0  0  0  0  0  0  0
    9.9900  -15.8998   19.1811 C   0  0  0  0  0  0  0  0  0  0  0  0
    9.8092  -16.3358   18.0193 O   0  0  0  0  0  0  0  0  0  0  0  0
   11.2887  -15.7718   19.6458 O   0  0  0  0  0  0  0  0  0  0  0  0
  1  2  1  0
  2  3  1  0
  4  3  1  0
  4  5  1  0
  5  6  1  1
  7  8  2  0
  7  5  1  0
  9 10  1  0
 10 11  2  0
 11 12  1  0
 13 14  1  0
 13 12  2  0
 15 14  1  1
 15 16  1  0
 16  7  1  0
 17 15  1  0
 18 17  2  0
 19 13  1  0
 20 19  2  0
 20 10  1  0
 22 24  1  0
 22 21  1  1
 23 22  1  0
 24 25  1  1
 25 17  1  0
 26 28  1  0
 26 24  1  0
 27 26  2  0
M  END
$$$$
