MYV.pdb
     RDKit          3D

 28 28  0  0  1  0  0  0  0  0999 V2000
    8.2945  -10.7966   18.9814 C   0  0  0  0  0  0  0  0  0  0  0  0
    7.4699  -12.2104   19.7105 S   0  0  0  0  0  0  0  0  0  0  0  0
    8.5070  -13.6814   19.7836 C   0  0  0  0  0  0  0  0  0  0  0  0
    7.8182  -14.8407   20.4748 C   0  0  0  0  0  0  0  0  0  0  0  0
    8.7826  -16.0053   20.4614 C   0  0  2  0  0  0  0  0  0  0  0  0
    8.1900  -17.0289   19.6228 N   0  0  0  0  0  0  0  0  0  0  0  0
    8.9794  -16.5873   21.8108 C   0  0  0  0  0  0  0  0  0  0  0  0
    8.1731  -17.4164   22.2763 O   0  0  0  0  0  0  0  0  0  0  0  0
   11.8653  -22.2520   21.3166 O   0  0  0  0  0  0  0  0  0  0  0  0
   11.7949  -21.0446   22.0285 C   0  0  0  0  0  0  0  0  0  0  0  0
   11.2947  -20.9828   23.3094 C   0  0  0  0  0  0  0  0  0  0  0  0
   11.2411  -19.7766   23.9787 C   0  0  0  0  0  0  0  0  0  0  0  0
   11.6786  -18.5944   23.4063 C   0  0  0  0  0  0  0  0  0  0  0  0
   11.6177  -17.3067   24.1303 C   0  0  0  0  0  0  0  0  0  0  0  0
   10.2331  -16.6623   24.0027 C   0  0  2  0  0  0  0  0  0  0  0  0
   10.0900  -16.2320   22.6377 N   0  0  0  0  0  0  0  0  0  0  0  0
   10.1813  -15.5255   24.9609 C   0  0  0  0  0  0  0  0  0  0  0  0
   11.0822  -14.6486   24.9217 O   0  0  0  0  0  0  0  0  0  0  0  0
   12.1819  -18.6700   22.1114 C   0  0  0  0  0  0  0  0  0  0  0  0
   12.2326  -19.8754   21.4498 C   0  0  0  0  0  0  0  0  0  0  0  0
    6.7265  -14.4293   27.0013 C   0  0  0  0  0  0  0  0  0  0  0  0
    7.9211  -13.5169   26.8264 C   0  0  2  0  0  0  0  0  0  0  0  0
    7.7881  -12.7925   25.5257 C   0  0  0  0  0  0  0  0  0  0  0  0
    9.1669  -14.3726   26.9112 C   0  0  2  0  0  0  0  0  0  0  0  0
    9.1390  -15.4174   25.9100 N   0  0  0  0  0  0  0  0  0  0  0  0
    9.3779  -14.9201   28.2717 C   0  0  0  0  0  0  0  0  0  0  0  0
    9.5580  -14.1947   29.2786 O   0  0  0  0  0  0  0  0  0  0  0  0
    9.3760  -16.2954   28.4378 O   0  0  0  0  0  0  0  0  0  0  0  0
  1  2  1  0
  2  3  1  0
  4  3  1  0
  4  5  1  0
  5  6  1  6
  7  8  2  0
  7  5  1  0
  9 10  1  0
 10 11  2  0
 11 12  1  0
 13 14  1  0
 13 12  2  0
 15 14  1  6
 15 16  1  0
 16  7  1  0
 17 15  1  0
 18 17  2  0
 19 13  1  0
 20 19  2  0
 20 10  1  0
 22 24  1  0
 22 21  1  6
 23 22  1  0
 24 25  1  6
 25 17  1  0
 26 28  1  0
 26 24  1  0
 27 26  2  0
M  END
$$$$
