MYV.pdb
     RDKit          3D

 28 28  0  0  1  0  0  0  0  0999 V2000
    5.4704  -12.4396   25.9223 C   0  0  0  0  0  0  0  0  0  0  0  0
    6.1062  -13.7175   27.0054 S   0  0  0  0  0  0  0  0  0  0  0  0
    6.0846  -15.3582   26.2621 C   0  0  0  0  0  0  0  0  0  0  0  0
    5.5531  -15.3432   24.8432 C   0  0  0  0  0  0  0  0  0  0  0  0
    5.9983  -16.6303   24.1860 C   0  0  2  0  0  0  0  0  0  0  0  0
    5.6737  -17.7030   25.1058 N   0  0  0  0  0  0  0  0  0  0  0  0
    7.4622  -16.6648   23.9529 C   0  0  0  0  0  0  0  0  0  0  0  0
    8.1023  -17.7305   24.0467 O   0  0  0  0  0  0  0  0  0  0  0  0
    7.6943  -14.0138   17.4215 O   0  0  0  0  0  0  0  0  0  0  0  0
    8.2637  -14.0745   18.7028 C   0  0  0  0  0  0  0  0  0  0  0  0
    9.1536  -15.0629   19.0578 C   0  0  0  0  0  0  0  0  0  0  0  0
    9.6935  -15.0904   20.3281 C   0  0  0  0  0  0  0  0  0  0  0  0
    9.3731  -14.1449   21.2873 C   0  0  0  0  0  0  0  0  0  0  0  0
    9.9560  -14.1817   22.6456 C   0  0  0  0  0  0  0  0  0  0  0  0
    9.6217  -15.4965   23.3585 C   0  0  2  0  0  0  0  0  0  0  0  0
    8.2060  -15.4924   23.6129 N   0  0  0  0  0  0  0  0  0  0  0  0
   10.4202  -15.5379   24.6130 C   0  0  0  0  0  0  0  0  0  0  0  0
   11.6751  -15.5797   24.5404 O   0  0  0  0  0  0  0  0  0  0  0  0
    8.4727  -13.1513   20.9162 C   0  0  0  0  0  0  0  0  0  0  0  0
    7.9381  -13.1295   19.6486 C   0  0  0  0  0  0  0  0  0  0  0  0
   10.0413  -13.2005   27.5116 C   0  0  0  0  0  0  0  0  0  0  0  0
   10.0129  -14.5881   28.1147 C   0  0  2  0  0  0  0  0  0  0  0  0
   10.7772  -14.5712   29.3993 C   0  0  0  0  0  0  0  0  0  0  0  0
   10.5844  -15.5444   27.0899 C   0  0  2  0  0  0  0  0  0  0  0  0
    9.7913  -15.5310   25.8794 N   0  0  0  0  0  0  0  0  0  0  0  0
   10.7405  -16.9153   27.6300 C   0  0  0  0  0  0  0  0  0  0  0  0
   10.1564  -17.9116   27.1415 O   0  0  0  0  0  0  0  0  0  0  0  0
   11.5693  -17.1037   28.7239 O   0  0  0  0  0  0  0  0  0  0  0  0
  1  2  1  0
  2  3  1  0
  4  3  1  0
  4  5  1  0
  5  6  1  1
  7  8  2  0
  7  5  1  0
  9 10  1  0
 10 11  2  0
 11 12  1  0
 13 14  1  0
 13 12  2  0
 15 14  1  1
 15 16  1  0
 16  7  1  0
 17 15  1  0
 18 17  2  0
 19 13  1  0
 20 19  2  0
 20 10  1  0
 22 24  1  0
 22 21  1  6
 23 22  1  0
 24 25  1  6
 25 17  1  0
 26 28  1  0
 26 24  1  0
 27 26  2  0
M  END
$$$$
