NCD.pdb
     RDKit          3D

 23 22  0  0  1  0  0  0  0  0999 V2000
   12.2755   -5.8777   -8.3548 N   0  0  0  0  0  0  0  0  0  0  0  0
   13.4294   -5.7155   -7.5409 C   0  0  0  0  0  0  0  0  0  0  0  0
   13.3848   -4.9138   -6.6009 O   0  0  0  0  0  0  0  0  0  0  0  0
   14.6225   -6.5051   -7.8505 C   0  0  0  0  0  0  0  0  0  0  0  0
   14.4762   -7.5204   -8.9405 C   0  0  2  0  0  0  0  0  0  0  0  0
   13.7713   -8.6676   -8.3728 N   0  0  0  0  0  0  0  0  0  0  0  0
   15.7483   -8.0184   -9.4980 C   0  0  0  0  0  0  0  0  0  0  0  0
   16.6306   -8.6215   -8.7871 O   0  0  0  0  0  0  0  0  0  0  0  0
   16.0186   -7.8273  -10.8815 N   0  0  0  0  0  0  0  0  0  0  0  0
   17.2120   -8.3449  -11.5056 C   0  0  1  0  0  0  0  0  0  0  0  0
   16.8722   -9.5011  -12.4538 C   0  0  0  0  0  0  0  0  0  0  0  0
   16.4705  -10.9812  -11.4608 S   0  0  0  0  0  0  0  0  0  0  0  0
   17.9981   -7.3104  -12.1904 C   0  0  0  0  0  0  0  0  0  0  0  0
   17.4638   -6.3019  -12.7218 O   0  0  0  0  0  0  0  0  0  0  0  0
   19.4107   -7.4185  -12.2751 N   0  0  0  0  0  0  0  0  0  0  0  0
   20.1927   -6.3617  -12.8968 C   0  0  1  0  0  0  0  0  0  0  0  0
   21.6604   -6.5979  -12.6346 C   0  0  0  0  0  0  0  0  0  0  0  0
   22.4888   -5.5827  -13.3158 C   0  0  0  0  0  0  0  0  0  0  0  0
   22.6115   -4.4322  -12.8800 O   0  0  0  0  0  0  0  0  0  0  0  0
   19.8668   -6.4094  -14.3410 C   0  0  0  0  0  0  0  0  0  0  0  0
   19.6880   -5.2082  -15.0206 O   0  0  0  0  0  0  0  0  0  0  0  0
   23.1472   -5.9394  -14.4816 O   0  0  0  0  0  0  0  0  0  0  0  0
   19.7425   -7.5069  -14.9869 O   0  0  0  0  0  0  0  0  0  0  0  0
  1  2  1  0
  2  4  1  0
  3  2  2  0
  4  5  1  0
  5  6  1  1
  5  7  1  0
  7  9  1  0
  7  8  2  0
  9 10  1  0
 10 13  1  0
 10 11  1  6
 11 12  1  0
 13 14  2  0
 15 13  1  0
 15 16  1  0
 16 20  1  0
 17 18  1  0
 16 17  1  6
 18 19  2  0
 20 21  1  0
 22 18  1  0
 23 20  2  0
M  END
$$$$
