NCD.pdb
     RDKit          3D

 23 22  0  0  1  0  0  0  0  0999 V2000
   13.4269  -12.4150   -9.4321 N   0  0  0  0  0  0  0  0  0  0  0  0
   13.9424  -12.0673  -10.7101 C   0  0  0  0  0  0  0  0  0  0  0  0
   14.0815  -12.9576  -11.5564 O   0  0  0  0  0  0  0  0  0  0  0  0
   14.2871  -10.6685  -10.9703 C   0  0  0  0  0  0  0  0  0  0  0  0
   14.0789   -9.7162   -9.8345 C   0  0  2  0  0  0  0  0  0  0  0  0
   12.6456   -9.6852   -9.5517 N   0  0  0  0  0  0  0  0  0  0  0  0
   14.5038   -8.3291  -10.1033 C   0  0  0  0  0  0  0  0  0  0  0  0
   13.6711   -7.3705  -10.2907 O   0  0  0  0  0  0  0  0  0  0  0  0
   15.8935   -8.0303  -10.1592 N   0  0  0  0  0  0  0  0  0  0  0  0
   16.3794   -6.7174  -10.5080 C   0  0  1  0  0  0  0  0  0  0  0  0
   15.8814   -5.6691   -9.5058 C   0  0  0  0  0  0  0  0  0  0  0  0
   16.0442   -6.3433   -7.8155 S   0  0  0  0  0  0  0  0  0  0  0  0
   17.8402   -6.6636  -10.6503 C   0  0  0  0  0  0  0  0  0  0  0  0
   18.6101   -7.3754   -9.9536 O   0  0  0  0  0  0  0  0  0  0  0  0
   18.4393   -5.7909  -11.5957 N   0  0  0  0  0  0  0  0  0  0  0  0
   19.8204   -5.9884  -12.0061 C   0  0  1  0  0  0  0  0  0  0  0  0
   19.9989   -7.3968  -12.5193 C   0  0  0  0  0  0  0  0  0  0  0  0
   21.3470   -7.5833  -13.0924 C   0  0  0  0  0  0  0  0  0  0  0  0
   22.2164   -6.7064  -13.0302 O   0  0  0  0  0  0  0  0  0  0  0  0
   20.0837   -4.9734  -13.0523 C   0  0  0  0  0  0  0  0  0  0  0  0
   21.4050   -4.6936  -13.3874 O   0  0  0  0  0  0  0  0  0  0  0  0
   21.6397   -8.7841  -13.7188 O   0  0  0  0  0  0  0  0  0  0  0  0
   19.1483   -4.3446  -13.6580 O   0  0  0  0  0  0  0  0  0  0  0  0
  1  2  1  0
  2  4  1  0
  3  2  2  0
  4  5  1  0
  5  6  1  6
  5  7  1  0
  7  9  1  0
  7  8  2  0
  9 10  1  0
 10 13  1  0
 10 11  1  1
 11 12  1  0
 13 14  2  0
 15 13  1  0
 15 16  1  0
 16 20  1  0
 17 18  1  0
 16 17  1  6
 18 19  2  0
 20 21  1  0
 22 18  1  0
 23 20  2  0
M  END
$$$$
