NCD.pdb
     RDKit          3D

 23 22  0  0  1  0  0  0  0  0999 V2000
   31.6674  -13.5134  -17.7636 N   0  0  0  0  0  0  0  0  0  0  0  0
   31.1666  -12.1949  -17.9386 C   0  0  0  0  0  0  0  0  0  0  0  0
   29.9537  -12.0398  -18.1202 O   0  0  0  0  0  0  0  0  0  0  0  0
   32.1090  -11.0755  -17.8964 C   0  0  0  0  0  0  0  0  0  0  0  0
   31.5687   -9.7430  -18.3120 C   0  0  2  0  0  0  0  0  0  0  0  0
   31.4285   -9.7663  -19.7663 N   0  0  0  0  0  0  0  0  0  0  0  0
   32.4277   -8.5927  -17.9718 C   0  0  0  0  0  0  0  0  0  0  0  0
   33.5795   -8.4028  -18.5054 O   0  0  0  0  0  0  0  0  0  0  0  0
   31.9693   -7.6474  -17.0126 N   0  0  0  0  0  0  0  0  0  0  0  0
   32.7845   -6.5367  -16.5842 C   0  0  1  0  0  0  0  0  0  0  0  0
   31.9105   -5.3365  -16.2011 C   0  0  0  0  0  0  0  0  0  0  0  0
   31.0265   -4.7503  -17.6888 S   0  0  0  0  0  0  0  0  0  0  0  0
   33.7101   -6.8871  -15.4991 C   0  0  0  0  0  0  0  0  0  0  0  0
   33.5715   -7.9303  -14.8080 O   0  0  0  0  0  0  0  0  0  0  0  0
   34.8097   -6.0443  -15.1910 N   0  0  0  0  0  0  0  0  0  0  0  0
   35.8487   -6.4956  -14.2791 C   0  0  1  0  0  0  0  0  0  0  0  0
   36.5267   -7.7175  -14.8499 C   0  0  0  0  0  0  0  0  0  0  0  0
   37.6985   -8.0998  -14.0366 C   0  0  0  0  0  0  0  0  0  0  0  0
   37.7154   -7.9758  -12.8066 O   0  0  0  0  0  0  0  0  0  0  0  0
   36.7824   -5.3555  -14.1291 C   0  0  0  0  0  0  0  0  0  0  0  0
   37.0653   -4.5782  -15.2482 O   0  0  0  0  0  0  0  0  0  0  0  0
   38.8122   -8.6140  -14.6811 O   0  0  0  0  0  0  0  0  0  0  0  0
   37.3386   -5.0578  -13.0159 O   0  0  0  0  0  0  0  0  0  0  0  0
  1  2  1  0
  2  4  1  0
  3  2  2  0
  4  5  1  0
  5  6  1  6
  5  7  1  0
  7  9  1  0
  7  8  2  0
  9 10  1  0
 10 13  1  0
 10 11  1  1
 11 12  1  0
 13 14  2  0
 15 13  1  0
 15 16  1  0
 16 20  1  0
 17 18  1  0
 16 17  1  6
 18 19  2  0
 20 21  1  0
 22 18  1  0
 23 20  2  0
M  END
$$$$
