NCD.pdb
     RDKit          3D

 23 22  0  0  1  0  0  0  0  0999 V2000
   21.2972  -21.7338  -12.3677 N   0  0  0  0  0  0  0  0  0  0  0  0
   20.7590  -21.2811  -13.6028 C   0  0  0  0  0  0  0  0  0  0  0  0
   19.5867  -21.5611  -13.8777 O   0  0  0  0  0  0  0  0  0  0  0  0
   21.6163  -20.5018  -14.4976 C   0  0  0  0  0  0  0  0  0  0  0  0
   23.0551  -20.3905  -14.1004 C   0  0  2  0  0  0  0  0  0  0  0  0
   23.0926  -19.7815  -12.7727 N   0  0  0  0  0  0  0  0  0  0  0  0
   23.8807  -19.5531  -14.9914 C   0  0  0  0  0  0  0  0  0  0  0  0
   23.4027  -18.5665  -15.6589 O   0  0  0  0  0  0  0  0  0  0  0  0
   25.2672  -19.8427  -15.1236 N   0  0  0  0  0  0  0  0  0  0  0  0
   26.1592  -18.9865  -15.8672 C   0  0  1  0  0  0  0  0  0  0  0  0
   26.2551  -17.6026  -15.2140 C   0  0  0  0  0  0  0  0  0  0  0  0
   27.0046  -17.7816  -13.5574 S   0  0  0  0  0  0  0  0  0  0  0  0
   27.4908  -19.5744  -16.0631 C   0  0  0  0  0  0  0  0  0  0  0  0
   28.1468  -20.0828  -15.1165 O   0  0  0  0  0  0  0  0  0  0  0  0
   28.0893  -19.5875  -17.3499 N   0  0  0  0  0  0  0  0  0  0  0  0
   28.8081  -20.7632  -17.8142 C   0  0  1  0  0  0  0  0  0  0  0  0
   27.9148  -21.9756  -17.7106 C   0  0  0  0  0  0  0  0  0  0  0  0
   28.4011  -22.9026  -16.6690 C   0  0  0  0  0  0  0  0  0  0  0  0
   29.3986  -22.6561  -15.9814 O   0  0  0  0  0  0  0  0  0  0  0  0
   29.2009  -20.4746  -19.2130 C   0  0  0  0  0  0  0  0  0  0  0  0
   30.3027  -21.1392  -19.7431 O   0  0  0  0  0  0  0  0  0  0  0  0
   27.7106  -24.0859  -16.4613 O   0  0  0  0  0  0  0  0  0  0  0  0
   28.5707  -19.6409  -19.9512 O   0  0  0  0  0  0  0  0  0  0  0  0
  1  2  1  0
  2  4  1  0
  3  2  2  0
  4  5  1  0
  5  6  1  1
  5  7  1  0
  7  9  1  0
  7  8  2  0
  9 10  1  0
 10 13  1  0
 10 11  1  1
 11 12  1  0
 13 14  2  0
 15 13  1  0
 15 16  1  0
 16 20  1  0
 17 18  1  0
 16 17  1  6
 18 19  2  0
 20 21  1  0
 22 18  1  0
 23 20  2  0
M  END
$$$$
