NCD.pdb
     RDKit          3D

 23 22  0  0  1  0  0  0  0  0999 V2000
   12.0875   -8.7932   -9.9585 N   0  0  0  0  0  0  0  0  0  0  0  0
   12.6756   -9.0173  -11.2329 C   0  0  0  0  0  0  0  0  0  0  0  0
   11.9366   -9.1100  -12.2196 O   0  0  0  0  0  0  0  0  0  0  0  0
   14.1324   -9.1289  -11.3230 C   0  0  0  0  0  0  0  0  0  0  0  0
   14.6576  -10.1038  -12.3299 C   0  0  2  0  0  0  0  0  0  0  0  0
   14.3293  -11.4438  -11.8485 N   0  0  0  0  0  0  0  0  0  0  0  0
   16.1180  -10.0563  -12.5350 C   0  0  0  0  0  0  0  0  0  0  0  0
   16.9525  -10.5956  -11.7225 O   0  0  0  0  0  0  0  0  0  0  0  0
   16.6339   -9.3867  -13.6792 N   0  0  0  0  0  0  0  0  0  0  0  0
   18.0446   -9.3666  -13.9814 C   0  0  1  0  0  0  0  0  0  0  0  0
   18.4024  -10.4728  -14.9812 C   0  0  0  0  0  0  0  0  0  0  0  0
   20.1802  -10.3519  -15.3851 S   0  0  0  0  0  0  0  0  0  0  0  0
   18.5141   -8.0560  -14.4495 C   0  0  0  0  0  0  0  0  0  0  0  0
   18.0298   -7.4923  -15.4657 O   0  0  0  0  0  0  0  0  0  0  0  0
   19.5473   -7.3726  -13.7571 N   0  0  0  0  0  0  0  0  0  0  0  0
   20.0765   -6.1212  -14.2755 C   0  0  1  0  0  0  0  0  0  0  0  0
   19.3632   -4.9617  -13.6232 C   0  0  0  0  0  0  0  0  0  0  0  0
   19.8885   -3.6729  -14.1169 C   0  0  0  0  0  0  0  0  0  0  0  0
   20.7848   -3.6088  -14.9661 O   0  0  0  0  0  0  0  0  0  0  0  0
   21.5253   -6.1326  -13.9671 C   0  0  0  0  0  0  0  0  0  0  0  0
   22.2822   -5.0121  -14.2959 O   0  0  0  0  0  0  0  0  0  0  0  0
   19.3536   -2.5010  -13.6066 O   0  0  0  0  0  0  0  0  0  0  0  0
   22.1075   -7.1283  -13.4133 O   0  0  0  0  0  0  0  0  0  0  0  0
  1  2  1  0
  2  4  1  0
  3  2  2  0
  4  5  1  0
  5  6  1  1
  5  7  1  0
  7  9  1  0
  7  8  2  0
  9 10  1  0
 10 13  1  0
 10 11  1  6
 11 12  1  0
 13 14  2  0
 15 13  1  0
 15 16  1  0
 16 20  1  0
 17 18  1  0
 16 17  1  1
 18 19  2  0
 20 21  1  0
 22 18  1  0
 23 20  2  0
M  END
$$$$
