NCD.pdb
     RDKit          3D

 23 22  0  0  1  0  0  0  0  0999 V2000
   17.2265  -14.3541  -16.2849 N   0  0  0  0  0  0  0  0  0  0  0  0
   16.2684  -13.4770  -16.8616 C   0  0  0  0  0  0  0  0  0  0  0  0
   15.3499  -13.9601  -17.5333 O   0  0  0  0  0  0  0  0  0  0  0  0
   16.4100  -12.0376  -16.6356 C   0  0  0  0  0  0  0  0  0  0  0  0
   17.5702  -11.6142  -15.7900 C   0  0  2  0  0  0  0  0  0  0  0  0
   17.3733  -12.1926  -14.4627 N   0  0  0  0  0  0  0  0  0  0  0  0
   17.7113  -10.1557  -15.6172 C   0  0  0  0  0  0  0  0  0  0  0  0
   17.6214   -9.3277  -16.5938 O   0  0  0  0  0  0  0  0  0  0  0  0
   17.9574   -9.6343  -14.3168 N   0  0  0  0  0  0  0  0  0  0  0  0
   18.1257   -8.2211  -14.0794 C   0  0  1  0  0  0  0  0  0  0  0  0
   17.4107   -7.7972  -12.7909 C   0  0  0  0  0  0  0  0  0  0  0  0
   18.0880   -8.7613  -11.3945 S   0  0  0  0  0  0  0  0  0  0  0  0
   19.5337   -7.8034  -14.0671 C   0  0  0  0  0  0  0  0  0  0  0  0
   20.4493   -8.5400  -13.6154 O   0  0  0  0  0  0  0  0  0  0  0  0
   19.9117   -6.5328  -14.5739 N   0  0  0  0  0  0  0  0  0  0  0  0
   21.3119   -6.1413  -14.6064 C   0  0  1  0  0  0  0  0  0  0  0  0
   21.7029   -5.7790  -16.0186 C   0  0  0  0  0  0  0  0  0  0  0  0
   23.1124   -5.3429  -16.0812 C   0  0  0  0  0  0  0  0  0  0  0  0
   23.8789   -5.4516  -15.1172 O   0  0  0  0  0  0  0  0  0  0  0  0
   21.4356   -4.9931  -13.6788 C   0  0  0  0  0  0  0  0  0  0  0  0
   20.3846   -4.0839  -13.6049 O   0  0  0  0  0  0  0  0  0  0  0  0
   23.5839   -4.7949  -17.2632 O   0  0  0  0  0  0  0  0  0  0  0  0
   22.4668   -4.8034  -12.9455 O   0  0  0  0  0  0  0  0  0  0  0  0
  1  2  1  0
  2  4  1  0
  3  2  2  0
  4  5  1  0
  5  6  1  1
  5  7  1  0
  7  9  1  0
  7  8  2  0
  9 10  1  0
 10 13  1  0
 10 11  1  1
 11 12  1  0
 13 14  2  0
 15 13  1  0
 15 16  1  0
 16 20  1  0
 17 18  1  0
 16 17  1  6
 18 19  2  0
 20 21  1  0
 22 18  1  0
 23 20  2  0
M  END
$$$$
