NCD.pdb
     RDKit          3D

 23 22  0  0  1  0  0  0  0  0999 V2000
   20.1057  -15.3138  -15.8408 N   0  0  0  0  0  0  0  0  0  0  0  0
   20.1357  -14.8517  -17.1845 C   0  0  0  0  0  0  0  0  0  0  0  0
   20.4134  -15.6548  -18.0824 O   0  0  0  0  0  0  0  0  0  0  0  0
   19.8362  -13.4433  -17.4485 C   0  0  0  0  0  0  0  0  0  0  0  0
   19.4781  -12.6112  -16.2571 C   0  0  2  0  0  0  0  0  0  0  0  0
   18.1927  -13.0964  -15.7596 N   0  0  0  0  0  0  0  0  0  0  0  0
   19.3271  -11.1693  -16.5313 C   0  0  0  0  0  0  0  0  0  0  0  0
   20.2077  -10.4864  -17.1682 O   0  0  0  0  0  0  0  0  0  0  0  0
   18.1593  -10.4974  -16.0749 N   0  0  0  0  0  0  0  0  0  0  0  0
   17.9590   -9.0843  -16.2860 C   0  0  1  0  0  0  0  0  0  0  0  0
   16.4691   -8.7661  -16.4598 C   0  0  0  0  0  0  0  0  0  0  0  0
   15.8845   -9.5094  -18.0232 S   0  0  0  0  0  0  0  0  0  0  0  0
   18.5596   -8.2545  -15.2334 C   0  0  0  0  0  0  0  0  0  0  0  0
   18.4445   -8.5322  -14.0110 O   0  0  0  0  0  0  0  0  0  0  0  0
   19.3020   -7.0925  -15.5693 N   0  0  0  0  0  0  0  0  0  0  0  0
   19.9185   -6.2874  -14.5269 C   0  0  1  0  0  0  0  0  0  0  0  0
   21.3437   -5.9699  -14.9096 C   0  0  0  0  0  0  0  0  0  0  0  0
   21.9956   -5.1396  -13.8769 C   0  0  0  0  0  0  0  0  0  0  0  0
   21.4427   -4.8668  -12.8053 O   0  0  0  0  0  0  0  0  0  0  0  0
   19.0856   -5.0682  -14.4075 C   0  0  0  0  0  0  0  0  0  0  0  0
   18.7321   -4.6285  -13.1354 O   0  0  0  0  0  0  0  0  0  0  0  0
   23.2695   -4.6541  -14.1248 O   0  0  0  0  0  0  0  0  0  0  0  0
   18.6785   -4.4055  -15.4235 O   0  0  0  0  0  0  0  0  0  0  0  0
  1  2  1  0
  2  4  1  0
  3  2  2  0
  4  5  1  0
  5  6  1  6
  5  7  1  0
  7  9  1  0
  7  8  2  0
  9 10  1  0
 10 13  1  0
 10 11  1  1
 11 12  1  0
 13 14  2  0
 15 13  1  0
 15 16  1  0
 16 20  1  0
 17 18  1  0
 16 17  1  6
 18 19  2  0
 20 21  1  0
 22 18  1  0
 23 20  2  0
M  END
$$$$
