NCD.pdb
     RDKit          3D

 23 22  0  0  1  0  0  0  0  0999 V2000
   16.4249  -13.6444  -18.3308 N   0  0  0  0  0  0  0  0  0  0  0  0
   17.1634  -12.4721  -18.6477 C   0  0  0  0  0  0  0  0  0  0  0  0
   16.9757  -11.9302  -19.7429 O   0  0  0  0  0  0  0  0  0  0  0  0
   18.1156  -11.9556  -17.6631 C   0  0  0  0  0  0  0  0  0  0  0  0
   19.4680  -11.5842  -18.1860 C   0  0  2  0  0  0  0  0  0  0  0  0
   20.1955  -12.8279  -18.4292 N   0  0  0  0  0  0  0  0  0  0  0  0
   20.2854  -10.7697  -17.2666 C   0  0  0  0  0  0  0  0  0  0  0  0
   20.8217  -11.2481  -16.2032 O   0  0  0  0  0  0  0  0  0  0  0  0
   20.4945   -9.3939  -17.5620 N   0  0  0  0  0  0  0  0  0  0  0  0
   21.4124   -8.5802  -16.8025 C   0  0  1  0  0  0  0  0  0  0  0  0
   22.4662   -7.9483  -17.7199 C   0  0  0  0  0  0  0  0  0  0  0  0
   23.9614   -8.9982  -17.7133 S   0  0  0  0  0  0  0  0  0  0  0  0
   20.7387   -7.5610  -15.9873 C   0  0  0  0  0  0  0  0  0  0  0  0
   19.8993   -6.7585  -16.4733 O   0  0  0  0  0  0  0  0  0  0  0  0
   21.0190   -7.4482  -14.6006 N   0  0  0  0  0  0  0  0  0  0  0  0
   20.3413   -6.4466  -13.7929 C   0  0  1  0  0  0  0  0  0  0  0  0
   19.7521   -7.1003  -12.5664 C   0  0  0  0  0  0  0  0  0  0  0  0
   19.1672   -6.0919  -11.6598 C   0  0  0  0  0  0  0  0  0  0  0  0
   18.9492   -4.9295  -12.0203 O   0  0  0  0  0  0  0  0  0  0  0  0
   21.3687   -5.4361  -13.4503 C   0  0  0  0  0  0  0  0  0  0  0  0
   20.9585   -4.2521  -12.8448 O   0  0  0  0  0  0  0  0  0  0  0  0
   18.8549   -6.4691  -10.3636 O   0  0  0  0  0  0  0  0  0  0  0  0
   22.6142   -5.6066  -13.6886 O   0  0  0  0  0  0  0  0  0  0  0  0
  1  2  1  0
  2  4  1  0
  3  2  2  0
  4  5  1  0
  5  6  1  1
  5  7  1  0
  7  9  1  0
  7  8  2  0
  9 10  1  0
 10 13  1  0
 10 11  1  6
 11 12  1  0
 13 14  2  0
 15 13  1  0
 15 16  1  0
 16 20  1  0
 17 18  1  0
 16 17  1  1
 18 19  2  0
 20 21  1  0
 22 18  1  0
 23 20  2  0
M  END
$$$$
