NCD.pdb
     RDKit          3D

 23 22  0  0  1  0  0  0  0  0999 V2000
   17.6284  -11.2440  -18.5557 N   0  0  0  0  0  0  0  0  0  0  0  0
   17.5009  -11.5207  -17.1675 C   0  0  0  0  0  0  0  0  0  0  0  0
   16.8387  -12.5039  -16.8165 O   0  0  0  0  0  0  0  0  0  0  0  0
   18.1597  -10.6292  -16.2113 C   0  0  0  0  0  0  0  0  0  0  0  0
   18.9406   -9.4950  -16.7979 C   0  0  2  0  0  0  0  0  0  0  0  0
   20.2392  -10.0273  -17.2048 N   0  0  0  0  0  0  0  0  0  0  0  0
   19.1954   -8.3744  -15.8726 C   0  0  0  0  0  0  0  0  0  0  0  0
   18.2562   -7.7559  -15.2539 O   0  0  0  0  0  0  0  0  0  0  0  0
   20.5358   -7.9534  -15.6493 N   0  0  0  0  0  0  0  0  0  0  0  0
   20.8548   -6.8501  -14.7760 C   0  0  1  0  0  0  0  0  0  0  0  0
   22.2371   -7.0416  -14.1405 C   0  0  0  0  0  0  0  0  0  0  0  0
   22.5624   -5.6495  -13.0027 S   0  0  0  0  0  0  0  0  0  0  0  0
   20.7517   -5.5434  -15.4386 C   0  0  0  0  0  0  0  0  0  0  0  0
   21.2766   -5.3151  -16.5599 O   0  0  0  0  0  0  0  0  0  0  0  0
   20.0437   -4.4785  -14.8231 N   0  0  0  0  0  0  0  0  0  0  0  0
   20.0251   -3.1586  -15.4333 C   0  0  1  0  0  0  0  0  0  0  0  0
   18.6527   -2.5493  -15.2786 C   0  0  0  0  0  0  0  0  0  0  0  0
   17.8765   -2.6715  -16.5290 C   0  0  0  0  0  0  0  0  0  0  0  0
   18.4041   -2.9766  -17.6047 O   0  0  0  0  0  0  0  0  0  0  0  0
   21.0689   -2.3725  -14.7357 C   0  0  0  0  0  0  0  0  0  0  0  0
   21.8023   -1.4452  -15.4697 O   0  0  0  0  0  0  0  0  0  0  0  0
   16.5118   -2.4350  -16.4868 O   0  0  0  0  0  0  0  0  0  0  0  0
   21.3234   -2.5116  -13.4895 O   0  0  0  0  0  0  0  0  0  0  0  0
  1  2  1  0
  2  4  1  0
  3  2  2  0
  4  5  1  0
  5  6  1  1
  5  7  1  0
  7  9  1  0
  7  8  2  0
  9 10  1  0
 10 13  1  0
 10 11  1  6
 11 12  1  0
 13 14  2  0
 15 13  1  0
 15 16  1  0
 16 20  1  0
 17 18  1  0
 16 17  1  1
 18 19  2  0
 20 21  1  0
 22 18  1  0
 23 20  2  0
M  END
$$$$
