NCD.pdb
     RDKit          3D

 23 22  0  0  1  0  0  0  0  0999 V2000
   18.4109  -13.7038  -17.8639 N   0  0  0  0  0  0  0  0  0  0  0  0
   17.7586  -12.7572  -17.0282 C   0  0  0  0  0  0  0  0  0  0  0  0
   16.5227  -12.7347  -17.0088 O   0  0  0  0  0  0  0  0  0  0  0  0
   18.5784  -11.8484  -16.2251 C   0  0  0  0  0  0  0  0  0  0  0  0
   20.0577  -11.9345  -16.4365 C   0  0  2  0  0  0  0  0  0  0  0  0
   20.4957  -13.2274  -15.9153 N   0  0  0  0  0  0  0  0  0  0  0  0
   20.8436  -10.8937  -15.7467 C   0  0  0  0  0  0  0  0  0  0  0  0
   20.8959  -10.7945  -14.4681 O   0  0  0  0  0  0  0  0  0  0  0  0
   21.5788   -9.9548  -16.5224 N   0  0  0  0  0  0  0  0  0  0  0  0
   22.4895   -9.0120  -15.9196 C   0  0  1  0  0  0  0  0  0  0  0  0
   23.8912   -9.1454  -16.5267 C   0  0  0  0  0  0  0  0  0  0  0  0
   24.6916  -10.6388  -15.8432 S   0  0  0  0  0  0  0  0  0  0  0  0
   22.0110   -7.6251  -15.9887 C   0  0  0  0  0  0  0  0  0  0  0  0
   21.4364   -7.1625  -17.0088 O   0  0  0  0  0  0  0  0  0  0  0  0
   22.1851   -6.7482  -14.8865 N   0  0  0  0  0  0  0  0  0  0  0  0
   21.6862   -5.3836  -14.9470 C   0  0  1  0  0  0  0  0  0  0  0  0
   20.1900   -5.4007  -15.1467 C   0  0  0  0  0  0  0  0  0  0  0  0
   19.6406   -4.0299  -15.1413 C   0  0  0  0  0  0  0  0  0  0  0  0
   20.2106   -3.0896  -15.7067 O   0  0  0  0  0  0  0  0  0  0  0  0
   22.0730   -4.7510  -13.6647 C   0  0  0  0  0  0  0  0  0  0  0  0
   21.7716   -3.4063  -13.4709 O   0  0  0  0  0  0  0  0  0  0  0  0
   18.4461   -3.7982  -14.4786 O   0  0  0  0  0  0  0  0  0  0  0  0
   22.6722   -5.3886  -12.7311 O   0  0  0  0  0  0  0  0  0  0  0  0
  1  2  1  0
  2  4  1  0
  3  2  2  0
  4  5  1  0
  5  6  1  1
  5  7  1  0
  7  9  1  0
  7  8  2  0
  9 10  1  0
 10 13  1  0
 10 11  1  6
 11 12  1  0
 13 14  2  0
 15 13  1  0
 15 16  1  0
 16 20  1  0
 17 18  1  0
 16 17  1  1
 18 19  2  0
 20 21  1  0
 22 18  1  0
 23 20  2  0
M  END
$$$$
