NCD.pdb
     RDKit          3D

 23 22  0  0  1  0  0  0  0  0999 V2000
   16.9274  -13.0880  -17.2450 N   0  0  0  0  0  0  0  0  0  0  0  0
   17.5870  -13.5964  -16.0932 C   0  0  0  0  0  0  0  0  0  0  0  0
   17.1664  -14.6396  -15.5803 O   0  0  0  0  0  0  0  0  0  0  0  0
   18.7372  -12.8625  -15.5627 C   0  0  0  0  0  0  0  0  0  0  0  0
   19.0939  -11.5940  -16.2725 C   0  0  2  0  0  0  0  0  0  0  0  0
   19.6841  -11.9665  -17.5562 N   0  0  0  0  0  0  0  0  0  0  0  0
   20.0737  -10.7447  -15.5684 C   0  0  0  0  0  0  0  0  0  0  0  0
   19.8998  -10.3332  -14.3651 O   0  0  0  0  0  0  0  0  0  0  0  0
   21.2655  -10.3595  -16.2428 N   0  0  0  0  0  0  0  0  0  0  0  0
   22.2455   -9.4961  -15.6298 C   0  0  1  0  0  0  0  0  0  0  0  0
   23.6549   -9.8290  -16.1338 C   0  0  0  0  0  0  0  0  0  0  0  0
   24.2354  -11.3498  -15.3041 S   0  0  0  0  0  0  0  0  0  0  0  0
   21.9433   -8.0692  -15.8025 C   0  0  0  0  0  0  0  0  0  0  0  0
   21.8703   -7.5303  -16.9379 O   0  0  0  0  0  0  0  0  0  0  0  0
   21.7202   -7.2392  -14.6731 N   0  0  0  0  0  0  0  0  0  0  0  0
   21.5186   -5.8088  -14.8405 C   0  0  1  0  0  0  0  0  0  0  0  0
   20.0554   -5.5295  -15.0848 C   0  0  0  0  0  0  0  0  0  0  0  0
   19.8038   -4.0777  -15.1824 C   0  0  0  0  0  0  0  0  0  0  0  0
   20.7137   -3.2629  -15.3741 O   0  0  0  0  0  0  0  0  0  0  0  0
   22.0083   -5.1795  -13.5922 C   0  0  0  0  0  0  0  0  0  0  0  0
   22.1695   -3.7975  -13.5651 O   0  0  0  0  0  0  0  0  0  0  0  0
   18.5018   -3.6214  -15.0538 O   0  0  0  0  0  0  0  0  0  0  0  0
   22.2891   -5.8530  -12.5411 O   0  0  0  0  0  0  0  0  0  0  0  0
  1  2  1  0
  2  4  1  0
  3  2  2  0
  4  5  1  0
  5  6  1  6
  5  7  1  0
  7  9  1  0
  7  8  2  0
  9 10  1  0
 10 13  1  0
 10 11  1  6
 11 12  1  0
 13 14  2  0
 15 13  1  0
 15 16  1  0
 16 20  1  0
 17 18  1  0
 16 17  1  1
 18 19  2  0
 20 21  1  0
 22 18  1  0
 23 20  2  0
M  END
$$$$
