NCD.pdb
     RDKit          3D

 23 22  0  0  1  0  0  0  0  0999 V2000
   15.2171  -13.2992  -15.3181 N   0  0  0  0  0  0  0  0  0  0  0  0
   16.4605  -13.1969  -15.9989 C   0  0  0  0  0  0  0  0  0  0  0  0
   16.5310  -13.5910  -17.1686 O   0  0  0  0  0  0  0  0  0  0  0  0
   17.6057  -12.6287  -15.2858 C   0  0  0  0  0  0  0  0  0  0  0  0
   18.1749  -11.3660  -15.8532 C   0  0  2  0  0  0  0  0  0  0  0  0
   19.0438  -11.7435  -16.9657 N   0  0  0  0  0  0  0  0  0  0  0  0
   18.9877  -10.5742  -14.9100 C   0  0  0  0  0  0  0  0  0  0  0  0
   18.5579  -10.2112  -13.7563 O   0  0  0  0  0  0  0  0  0  0  0  0
   20.3054  -10.1916  -15.2852 N   0  0  0  0  0  0  0  0  0  0  0  0
   21.1309   -9.3641  -14.4394 C   0  0  1  0  0  0  0  0  0  0  0  0
   22.5019  -10.0132  -14.2147 C   0  0  0  0  0  0  0  0  0  0  0  0
   23.2494  -10.3926  -15.8381 S   0  0  0  0  0  0  0  0  0  0  0  0
   21.2699   -7.9897  -14.9382 C   0  0  0  0  0  0  0  0  0  0  0  0
   21.0750   -7.6898  -16.1452 O   0  0  0  0  0  0  0  0  0  0  0  0
   21.6347   -6.9382  -14.0576 N   0  0  0  0  0  0  0  0  0  0  0  0
   21.7239   -5.5704  -14.5433 C   0  0  1  0  0  0  0  0  0  0  0  0
   20.3837   -5.1387  -15.0875 C   0  0  0  0  0  0  0  0  0  0  0  0
   20.4189   -3.7272  -15.5199 C   0  0  0  0  0  0  0  0  0  0  0  0
   21.4770   -3.0960  -15.6230 O   0  0  0  0  0  0  0  0  0  0  0  0
   22.1470   -4.7527  -13.3829 C   0  0  0  0  0  0  0  0  0  0  0  0
   22.3819   -5.3937  -12.1702 O   0  0  0  0  0  0  0  0  0  0  0  0
   19.2219   -3.0963  -15.8185 O   0  0  0  0  0  0  0  0  0  0  0  0
   22.3038   -3.4846  -13.4498 O   0  0  0  0  0  0  0  0  0  0  0  0
  1  2  1  0
  2  4  1  0
  3  2  2  0
  4  5  1  0
  5  6  1  6
  5  7  1  0
  7  9  1  0
  7  8  2  0
  9 10  1  0
 10 13  1  0
 10 11  1  6
 11 12  1  0
 13 14  2  0
 15 13  1  0
 15 16  1  0
 16 20  1  0
 17 18  1  0
 16 17  1  1
 18 19  2  0
 20 21  1  0
 22 18  1  0
 23 20  2  0
M  END
$$$$
