NCD.pdb
     RDKit          3D

 23 22  0  0  1  0  0  0  0  0999 V2000
   20.1152  -13.0727  -19.9268 N   0  0  0  0  0  0  0  0  0  0  0  0
   18.8670  -13.4242  -19.3450 C   0  0  0  0  0  0  0  0  0  0  0  0
   18.1503  -14.2453  -19.9284 O   0  0  0  0  0  0  0  0  0  0  0  0
   18.4828  -12.7986  -18.0785 C   0  0  0  0  0  0  0  0  0  0  0  0
   19.4754  -11.8485  -17.4849 C   0  0  2  0  0  0  0  0  0  0  0  0
   20.1264  -12.5395  -16.3741 N   0  0  0  0  0  0  0  0  0  0  0  0
   18.8958  -10.6024  -16.9481 C   0  0  0  0  0  0  0  0  0  0  0  0
   18.3190   -9.7277  -17.6895 O   0  0  0  0  0  0  0  0  0  0  0  0
   18.9739  -10.3497  -15.5503 N   0  0  0  0  0  0  0  0  0  0  0  0
   18.4559   -9.1381  -14.9627 C   0  0  1  0  0  0  0  0  0  0  0  0
   17.5448   -9.4578  -13.7715 C   0  0  0  0  0  0  0  0  0  0  0  0
   15.9839  -10.1729  -14.3965 S   0  0  0  0  0  0  0  0  0  0  0  0
   19.5085   -8.1860  -14.5852 C   0  0  0  0  0  0  0  0  0  0  0  0
   20.6451   -8.5606  -14.1946 O   0  0  0  0  0  0  0  0  0  0  0  0
   19.2716   -6.7882  -14.6510 N   0  0  0  0  0  0  0  0  0  0  0  0
   20.3691   -5.8482  -14.4875 C   0  0  1  0  0  0  0  0  0  0  0  0
   21.4490   -6.1512  -15.4977 C   0  0  0  0  0  0  0  0  0  0  0  0
   22.4938   -5.1077  -15.4831 C   0  0  0  0  0  0  0  0  0  0  0  0
   22.7388   -4.4349  -14.4752 O   0  0  0  0  0  0  0  0  0  0  0  0
   19.7839   -4.5011  -14.6801 C   0  0  0  0  0  0  0  0  0  0  0  0
   18.4495   -4.4063  -15.0635 O   0  0  0  0  0  0  0  0  0  0  0  0
   23.2196   -4.8815  -16.6416 O   0  0  0  0  0  0  0  0  0  0  0  0
   20.4537   -3.4244  -14.5096 O   0  0  0  0  0  0  0  0  0  0  0  0
  1  2  1  0
  2  4  1  0
  3  2  2  0
  4  5  1  0
  5  6  1  1
  5  7  1  0
  7  9  1  0
  7  8  2  0
  9 10  1  0
 10 13  1  0
 10 11  1  1
 11 12  1  0
 13 14  2  0
 15 13  1  0
 15 16  1  0
 16 20  1  0
 17 18  1  0
 16 17  1  6
 18 19  2  0
 20 21  1  0
 22 18  1  0
 23 20  2  0
M  END
$$$$
