NCD.pdb
     RDKit          3D

 23 22  0  0  1  0  0  0  0  0999 V2000
   17.1555  -14.9626  -16.9272 N   0  0  0  0  0  0  0  0  0  0  0  0
   17.8012  -13.6972  -16.9710 C   0  0  0  0  0  0  0  0  0  0  0  0
   19.0120  -13.6569  -17.2172 O   0  0  0  0  0  0  0  0  0  0  0  0
   17.0046  -12.4944  -16.7224 C   0  0  0  0  0  0  0  0  0  0  0  0
   17.6522  -11.4366  -15.8846 C   0  0  2  0  0  0  0  0  0  0  0  0
   17.7344  -11.9537  -14.5204 N   0  0  0  0  0  0  0  0  0  0  0  0
   16.9190  -10.1576  -15.8262 C   0  0  0  0  0  0  0  0  0  0  0  0
   16.6965   -9.4353  -16.8636 O   0  0  0  0  0  0  0  0  0  0  0  0
   16.4334   -9.6958  -14.5713 N   0  0  0  0  0  0  0  0  0  0  0  0
   15.6869   -8.4675  -14.4459 C   0  0  1  0  0  0  0  0  0  0  0  0
   14.5829   -8.6074  -13.3909 C   0  0  0  0  0  0  0  0  0  0  0  0
   13.5176  -10.0240  -13.8343 S   0  0  0  0  0  0  0  0  0  0  0  0
   16.5380   -7.3023  -14.1723 C   0  0  0  0  0  0  0  0  0  0  0  0
   17.4732   -7.3359  -13.3302 O   0  0  0  0  0  0  0  0  0  0  0  0
   16.3278   -6.0800  -14.8623 N   0  0  0  0  0  0  0  0  0  0  0  0
   17.2166   -4.9500  -14.6430 C   0  0  1  0  0  0  0  0  0  0  0  0
   18.0343   -4.7010  -15.8872 C   0  0  0  0  0  0  0  0  0  0  0  0
   18.8671   -3.4906  -15.7386 C   0  0  0  0  0  0  0  0  0  0  0  0
   19.5993   -3.3111  -14.7587 O   0  0  0  0  0  0  0  0  0  0  0  0
   16.3417   -3.8024  -14.3087 C   0  0  0  0  0  0  0  0  0  0  0  0
   16.9130   -2.6873  -13.7031 O   0  0  0  0  0  0  0  0  0  0  0  0
   18.8208   -2.5288  -16.7350 O   0  0  0  0  0  0  0  0  0  0  0  0
   15.0857   -3.7951  -14.5525 O   0  0  0  0  0  0  0  0  0  0  0  0
  1  2  1  0
  2  4  1  0
  3  2  2  0
  4  5  1  0
  5  6  1  1
  5  7  1  0
  7  9  1  0
  7  8  2  0
  9 10  1  0
 10 13  1  0
 10 11  1  1
 11 12  1  0
 13 14  2  0
 15 13  1  0
 15 16  1  0
 16 20  1  0
 17 18  1  0
 16 17  1  6
 18 19  2  0
 20 21  1  0
 22 18  1  0
 23 20  2  0
M  END
$$$$
