WWS.pdb
     RDKit          3D

 35 38  0  0  1  0  0  0  0  0999 V2000
   26.9171  -19.7811  -12.1545 N   0  0  0  0  0  0  0  0  0  0  0  0
   25.7287  -20.4550  -11.7498 C   0  0  1  0  0  0  0  0  0  0  0  0
   25.2847  -21.4313  -12.8103 C   0  0  0  0  0  0  0  0  0  0  0  0
   24.8662  -20.6532  -14.0094 C   0  0  0  0  0  0  0  0  0  0  0  0
   25.5788  -20.5884  -15.2184 C   0  0  0  0  0  0  0  0  0  0  0  0
   24.9065  -19.8445  -16.0941 N   0  0  0  0  0  0  0  0  0  0  0  0
   23.7730  -19.4122  -15.5085 C   0  0  0  0  0  0  0  0  0  0  0  0
   22.7385  -18.6121  -15.9679 C   0  0  0  0  0  0  0  0  0  0  0  0
   21.7088  -18.3342  -15.1204 C   0  0  0  0  0  0  0  0  0  0  0  0
   21.6495  -18.8109  -13.8304 C   0  0  0  0  0  0  0  0  0  0  0  0
   22.6731  -19.6029  -13.3773 C   0  0  0  0  0  0  0  0  0  0  0  0
   23.7382  -19.9139  -14.1990 C   0  0  0  0  0  0  0  0  0  0  0  0
   25.8033  -21.0310  -10.3965 C   0  0  0  0  0  0  0  0  0  0  0  0
   26.3897  -22.1350  -10.2235 O   0  0  0  0  0  0  0  0  0  0  0  0
   25.2156  -20.3303   -9.3166 N   0  0  0  0  0  0  0  0  0  0  0  0
   24.8770  -20.9677   -8.0749 C   0  0  1  0  0  0  0  0  0  0  0  0
   25.1517  -20.0346   -6.9147 C   0  0  0  0  0  0  0  0  0  0  0  0
   26.5843  -19.6912   -6.8072 C   0  0  0  0  0  0  0  0  0  0  0  0
   27.2671  -18.8613   -7.7063 C   0  0  0  0  0  0  0  0  0  0  0  0
   28.5312  -18.7359   -7.3035 N   0  0  0  0  0  0  0  0  0  0  0  0
   28.7394  -19.4291   -6.1923 C   0  0  0  0  0  0  0  0  0  0  0  0
   29.8552  -19.6208   -5.4062 C   0  0  0  0  0  0  0  0  0  0  0  0
   29.8121  -20.4178   -4.2741 C   0  0  0  0  0  0  0  0  0  0  0  0
   28.6095  -21.0088   -3.9700 C   0  0  0  0  0  0  0  0  0  0  0  0
   27.4874  -20.8142   -4.7630 C   0  0  0  0  0  0  0  0  0  0  0  0
   27.5301  -20.0308   -5.8729 C   0  0  0  0  0  0  0  0  0  0  0  0
   23.4683  -21.4222   -8.0790 C   0  0  0  0  0  0  0  0  0  0  0  0
   22.5185  -20.6997   -8.4702 O   0  0  0  0  0  0  0  0  0  0  0  0
   20.7134  -22.4302   -4.8673 O   0  0  0  0  0  0  0  0  0  0  0  0
   21.8610  -22.1547   -5.6098 C   0  0  0  0  0  0  0  0  0  0  0  0
   21.8952  -22.9691   -6.8907 C   0  0  2  0  0  0  0  0  0  0  0  0
   23.1229  -22.7416   -7.6242 N   0  0  0  0  0  0  0  0  0  0  0  0
   20.7314  -22.6817   -7.7374 C   0  0  0  0  0  0  0  0  0  0  0  0
   19.8657  -23.7077   -8.0839 O   0  0  0  0  0  0  0  0  0  0  0  0
   20.4630  -21.5361   -8.1793 O   0  0  0  0  0  0  0  0  0  0  0  0
  2  1  1  6
  3  2  1  0
  4  3  1  0
  5  4  2  0
  6  5  1  0
  7  6  1  0
  7 12  2  0
  8  7  1  0
  9  8  2  0
  9 10  1  0
 10 11  2  0
 11 12  1  0
 12  4  1  0
 13  2  1  0
 14 13  2  0
 15 13  1  0
 16 15  1  0
 16 27  1  0
 16 17  1  1
 18 17  1  0
 19 18  2  0
 20 19  1  0
 21 20  1  0
 21 26  2  0
 22 23  2  0
 22 21  1  0
 23 24  1  0
 24 25  2  0
 26 25  1  0
 26 18  1  0
 27 28  2  0
 30 29  1  0
 31 30  1  1
 32 27  1  0
 32 31  1  0
 33 34  1  0
 33 31  1  0
 35 33  2  0
M  END
$$$$
