WWS.pdb
     RDKit          3D

 35 38  0  0  1  0  0  0  0  0999 V2000
   25.3803  -16.3282  -19.7852 N   0  0  0  0  0  0  0  0  0  0  0  0
   25.4720  -16.6886  -18.4097 C   0  0  1  0  0  0  0  0  0  0  0  0
   24.7346  -15.6928  -17.5497 C   0  0  0  0  0  0  0  0  0  0  0  0
   25.3811  -14.3624  -17.7245 C   0  0  0  0  0  0  0  0  0  0  0  0
   24.7296  -13.2011  -18.1723 C   0  0  0  0  0  0  0  0  0  0  0  0
   25.5843  -12.1805  -18.1713 N   0  0  0  0  0  0  0  0  0  0  0  0
   26.7808  -12.6237  -17.7394 C   0  0  0  0  0  0  0  0  0  0  0  0
   27.9971  -11.9837  -17.5593 C   0  0  0  0  0  0  0  0  0  0  0  0
   29.0541  -12.7157  -17.1091 C   0  0  0  0  0  0  0  0  0  0  0  0
   28.9692  -14.0601  -16.8257 C   0  0  0  0  0  0  0  0  0  0  0  0
   27.7652  -14.6920  -17.0036 C   0  0  0  0  0  0  0  0  0  0  0  0
   26.6643  -13.9927  -17.4566 C   0  0  0  0  0  0  0  0  0  0  0  0
   25.1209  -18.0928  -18.1383 C   0  0  0  0  0  0  0  0  0  0  0  0
   24.2592  -18.6674  -18.8592 O   0  0  0  0  0  0  0  0  0  0  0  0
   25.7614  -18.7691  -17.0730 N   0  0  0  0  0  0  0  0  0  0  0  0
   25.4631  -20.1322  -16.7328 C   0  0  1  0  0  0  0  0  0  0  0  0
   26.4615  -20.6502  -15.7195 C   0  0  0  0  0  0  0  0  0  0  0  0
   26.2447  -22.0778  -15.4080 C   0  0  0  0  0  0  0  0  0  0  0  0
   25.3580  -22.5467  -14.4296 C   0  0  0  0  0  0  0  0  0  0  0  0
   25.3827  -23.8790  -14.4275 N   0  0  0  0  0  0  0  0  0  0  0  0
   26.2296  -24.3330  -15.3415 C   0  0  0  0  0  0  0  0  0  0  0  0
   26.6067  -25.6048  -15.7156 C   0  0  0  0  0  0  0  0  0  0  0  0
   27.5399  -25.8156  -16.7174 C   0  0  0  0  0  0  0  0  0  0  0  0
   28.0729  -24.7020  -17.3206 C   0  0  0  0  0  0  0  0  0  0  0  0
   27.6914  -23.4225  -16.9422 C   0  0  0  0  0  0  0  0  0  0  0  0
   26.7747  -23.2166  -15.9602 C   0  0  0  0  0  0  0  0  0  0  0  0
   24.0746  -20.2632  -16.2367 C   0  0  0  0  0  0  0  0  0  0  0  0
   23.5755  -19.4823  -15.3890 O   0  0  0  0  0  0  0  0  0  0  0  0
   21.2666  -22.3314  -18.3877 O   0  0  0  0  0  0  0  0  0  0  0  0
   20.8694  -21.4461  -17.3864 C   0  0  0  0  0  0  0  0  0  0  0  0
   21.8605  -21.4368  -16.2364 C   0  0  2  0  0  0  0  0  0  0  0  0
   23.2210  -21.3154  -16.7174 N   0  0  0  0  0  0  0  0  0  0  0  0
   21.7179  -22.6336  -15.3989 C   0  0  0  0  0  0  0  0  0  0  0  0
   20.6020  -22.7739  -14.5882 O   0  0  0  0  0  0  0  0  0  0  0  0
   22.5641  -23.5625  -15.3692 O   0  0  0  0  0  0  0  0  0  0  0  0
  2  1  1  6
  3  2  1  0
  4  3  1  0
  5  4  2  0
  6  5  1  0
  7  6  1  0
  7 12  2  0
  8  7  1  0
  9  8  2  0
  9 10  1  0
 10 11  2  0
 11 12  1  0
 12  4  1  0
 13  2  1  0
 14 13  2  0
 15 13  1  0
 16 15  1  0
 16 27  1  0
 16 17  1  1
 18 17  1  0
 19 18  2  0
 20 19  1  0
 21 20  1  0
 21 26  2  0
 22 23  2  0
 22 21  1  0
 23 24  1  0
 24 25  2  0
 26 25  1  0
 26 18  1  0
 27 28  2  0
 30 29  1  0
 31 30  1  6
 32 27  1  0
 32 31  1  0
 33 34  1  0
 33 31  1  0
 35 33  2  0
M  END
$$$$
