WWS.pdb
     RDKit          3D

 35 38  0  0  1  0  0  0  0  0999 V2000
   21.8869  -19.9376  -12.8721 N   0  0  0  0  0  0  0  0  0  0  0  0
   22.3049  -19.8426  -14.2310 C   0  0  1  0  0  0  0  0  0  0  0  0
   21.5010  -18.7964  -14.9619 C   0  0  0  0  0  0  0  0  0  0  0  0
   20.2801  -19.4503  -15.5098 C   0  0  0  0  0  0  0  0  0  0  0  0
   19.0199  -19.4559  -14.8889 C   0  0  0  0  0  0  0  0  0  0  0  0
   18.1422  -20.0880  -15.6649 N   0  0  0  0  0  0  0  0  0  0  0  0
   18.7757  -20.5033  -16.7788 C   0  0  0  0  0  0  0  0  0  0  0  0
   18.3345  -21.2052  -17.8897 C   0  0  0  0  0  0  0  0  0  0  0  0
   19.2326  -21.4939  -18.8726 C   0  0  0  0  0  0  0  0  0  0  0  0
   20.5563  -21.1210  -18.8122 C   0  0  0  0  0  0  0  0  0  0  0  0
   20.9913  -20.4260  -17.7131 C   0  0  0  0  0  0  0  0  0  0  0  0
   20.1189  -20.1085  -16.6913 C   0  0  0  0  0  0  0  0  0  0  0  0
   23.7617  -19.7050  -14.3967 C   0  0  0  0  0  0  0  0  0  0  0  0
   24.2969  -18.5701  -14.2623 O   0  0  0  0  0  0  0  0  0  0  0  0
   24.5314  -20.8525  -14.7018 N   0  0  0  0  0  0  0  0  0  0  0  0
   25.9637  -20.8175  -14.8031 C   0  0  1  0  0  0  0  0  0  0  0  0
   26.5905  -21.5148  -13.6145 C   0  0  0  0  0  0  0  0  0  0  0  0
   26.5272  -20.6892  -12.3912 C   0  0  0  0  0  0  0  0  0  0  0  0
   27.3950  -19.6254  -12.1107 C   0  0  0  0  0  0  0  0  0  0  0  0
   27.0454  -19.0785  -10.9469 N   0  0  0  0  0  0  0  0  0  0  0  0
   25.9991  -19.7079  -10.4293 C   0  0  0  0  0  0  0  0  0  0  0  0
   25.2837  -19.5292   -9.2648 C   0  0  0  0  0  0  0  0  0  0  0  0
   24.2121  -20.3460   -8.9436 C   0  0  0  0  0  0  0  0  0  0  0  0
   23.8946  -21.3417   -9.8357 C   0  0  0  0  0  0  0  0  0  0  0  0
   24.6164  -21.5195  -11.0075 C   0  0  0  0  0  0  0  0  0  0  0  0
   25.6668  -20.7167  -11.3227 C   0  0  0  0  0  0  0  0  0  0  0  0
   26.4197  -21.4130  -16.0793 C   0  0  0  0  0  0  0  0  0  0  0  0
   25.8580  -22.4027  -16.6106 O   0  0  0  0  0  0  0  0  0  0  0  0
   28.5111  -19.3304  -18.9287 O   0  0  0  0  0  0  0  0  0  0  0  0
   29.0372  -20.6024  -18.7067 C   0  0  0  0  0  0  0  0  0  0  0  0
   28.0373  -21.4933  -17.9915 C   0  0  2  0  0  0  0  0  0  0  0  0
   27.5518  -20.8686  -16.7786 N   0  0  0  0  0  0  0  0  0  0  0  0
   28.6125  -22.8106  -17.6947 C   0  0  0  0  0  0  0  0  0  0  0  0
   28.8758  -23.6928  -18.7312 O   0  0  0  0  0  0  0  0  0  0  0  0
   28.8884  -23.1992  -16.5317 O   0  0  0  0  0  0  0  0  0  0  0  0
  2  1  1  1
  3  2  1  0
  4  3  1  0
  5  4  2  0
  6  5  1  0
  7  6  1  0
  7 12  2  0
  8  7  1  0
  9  8  2  0
  9 10  1  0
 10 11  2  0
 11 12  1  0
 12  4  1  0
 13  2  1  0
 14 13  2  0
 15 13  1  0
 16 15  1  0
 16 27  1  0
 16 17  1  1
 18 17  1  0
 19 18  2  0
 20 19  1  0
 21 20  1  0
 21 26  2  0
 22 23  2  0
 22 21  1  0
 23 24  1  0
 24 25  2  0
 26 25  1  0
 26 18  1  0
 27 28  2  0
 30 29  1  0
 31 30  1  1
 32 27  1  0
 32 31  1  0
 33 34  1  0
 33 31  1  0
 35 33  2  0
M  END
$$$$
