WWS.pdb
     RDKit          3D

 35 38  0  0  1  0  0  0  0  0999 V2000
   27.8377  -21.0489  -14.8022 N   0  0  0  0  0  0  0  0  0  0  0  0
   27.0167  -20.2218  -13.9823 C   0  0  1  0  0  0  0  0  0  0  0  0
   25.8322  -19.7094  -14.7627 C   0  0  0  0  0  0  0  0  0  0  0  0
   26.3421  -18.8458  -15.8639 C   0  0  0  0  0  0  0  0  0  0  0  0
   26.2804  -19.1612  -17.2315 C   0  0  0  0  0  0  0  0  0  0  0  0
   26.7832  -18.1562  -17.9450 N   0  0  0  0  0  0  0  0  0  0  0  0
   27.1774  -17.1848  -17.0991 C   0  0  0  0  0  0  0  0  0  0  0  0
   27.7650  -15.9482  -17.3160 C   0  0  0  0  0  0  0  0  0  0  0  0
   28.0646  -15.1747  -16.2353 C   0  0  0  0  0  0  0  0  0  0  0  0
   27.8110  -15.5652  -14.9399 C   0  0  0  0  0  0  0  0  0  0  0  0
   27.2290  -16.7884  -14.7267 C   0  0  0  0  0  0  0  0  0  0  0  0
   26.9055  -17.6080  -15.7896 C   0  0  0  0  0  0  0  0  0  0  0  0
   26.6658  -20.8294  -12.6876 C   0  0  0  0  0  0  0  0  0  0  0  0
   26.2478  -22.0196  -12.6537 O   0  0  0  0  0  0  0  0  0  0  0  0
   26.8075  -20.0631  -11.5064 N   0  0  0  0  0  0  0  0  0  0  0  0
   26.3079  -20.5049  -10.2343 C   0  0  1  0  0  0  0  0  0  0  0  0
   26.9921  -19.7529   -9.1125 C   0  0  0  0  0  0  0  0  0  0  0  0
   26.6054  -20.2684   -7.7834 C   0  0  0  0  0  0  0  0  0  0  0  0
   25.4973  -21.0932   -7.5481 C   0  0  0  0  0  0  0  0  0  0  0  0
   25.4537  -21.3983   -6.2517 N   0  0  0  0  0  0  0  0  0  0  0  0
   26.4613  -20.8303   -5.6029 C   0  0  0  0  0  0  0  0  0  0  0  0
   26.8413  -20.8368   -4.2781 C   0  0  0  0  0  0  0  0  0  0  0  0
   27.9561  -20.1388   -3.8436 C   0  0  0  0  0  0  0  0  0  0  0  0
   28.6652  -19.4397   -4.7905 C   0  0  0  0  0  0  0  0  0  0  0  0
   28.2805  -19.4348   -6.1239 C   0  0  0  0  0  0  0  0  0  0  0  0
   27.1875  -20.1212   -6.5496 C   0  0  0  0  0  0  0  0  0  0  0  0
   24.8367  -20.3582  -10.1625 C   0  0  0  0  0  0  0  0  0  0  0  0
   24.2665  -19.2467  -10.0329 O   0  0  0  0  0  0  0  0  0  0  0  0
   22.2651  -21.8615  -12.5349 O   0  0  0  0  0  0  0  0  0  0  0  0
   21.8685  -22.2281  -11.2494 C   0  0  0  0  0  0  0  0  0  0  0  0
   22.5410  -21.3622  -10.1992 C   0  0  2  0  0  0  0  0  0  0  0  0
   23.9809  -21.5108  -10.2403 N   0  0  0  0  0  0  0  0  0  0  0  0
   22.0330  -21.6615   -8.8552 C   0  0  0  0  0  0  0  0  0  0  0  0
   20.6739  -21.5657   -8.5990 O   0  0  0  0  0  0  0  0  0  0  0  0
   22.7702  -22.0079   -7.8980 O   0  0  0  0  0  0  0  0  0  0  0  0
  2  1  1  6
  3  2  1  0
  4  3  1  0
  5  4  2  0
  6  5  1  0
  7  6  1  0
  7 12  2  0
  8  7  1  0
  9  8  2  0
  9 10  1  0
 10 11  2  0
 11 12  1  0
 12  4  1  0
 13  2  1  0
 14 13  2  0
 15 13  1  0
 16 15  1  0
 16 27  1  0
 16 17  1  1
 18 17  1  0
 19 18  2  0
 20 19  1  0
 21 20  1  0
 21 26  2  0
 22 23  2  0
 22 21  1  0
 23 24  1  0
 24 25  2  0
 26 25  1  0
 26 18  1  0
 27 28  2  0
 30 29  1  0
 31 30  1  6
 32 27  1  0
 32 31  1  0
 33 34  1  0
 33 31  1  0
 35 33  2  0
M  END
$$$$
