WWS.pdb
     RDKit          3D

 35 38  0  0  1  0  0  0  0  0999 V2000
   28.0060  -23.2819  -17.6842 N   0  0  0  0  0  0  0  0  0  0  0  0
   27.1029  -22.2606  -17.2700 C   0  0  1  0  0  0  0  0  0  0  0  0
   25.9209  -22.1861  -18.2039 C   0  0  0  0  0  0  0  0  0  0  0  0
   26.3695  -21.5367  -19.4670 C   0  0  0  0  0  0  0  0  0  0  0  0
   26.9425  -22.2078  -20.5602 C   0  0  0  0  0  0  0  0  0  0  0  0
   27.1860  -21.3398  -21.5397 N   0  0  0  0  0  0  0  0  0  0  0  0
   26.7955  -20.1157  -21.1349 C   0  0  0  0  0  0  0  0  0  0  0  0
   26.8327  -18.8775  -21.7568 C   0  0  0  0  0  0  0  0  0  0  0  0
   26.3642  -17.7954  -21.0745 C   0  0  0  0  0  0  0  0  0  0  0  0
   25.8568  -17.8759  -19.7974 C   0  0  0  0  0  0  0  0  0  0  0  0
   25.8199  -19.1016  -19.1836 C   0  0  0  0  0  0  0  0  0  0  0  0
   26.2819  -20.2281  -19.8344 C   0  0  0  0  0  0  0  0  0  0  0  0
   26.7389  -22.3311  -15.8448 C   0  0  0  0  0  0  0  0  0  0  0  0
   26.3243  -23.4215  -15.3635 O   0  0  0  0  0  0  0  0  0  0  0  0
   26.8645  -21.1713  -15.0438 N   0  0  0  0  0  0  0  0  0  0  0  0
   26.3978  -21.1154  -13.6866 C   0  0  1  0  0  0  0  0  0  0  0  0
   27.1483  -20.0488  -12.9177 C   0  0  0  0  0  0  0  0  0  0  0  0
   26.7725  -20.0279  -11.4893 C   0  0  0  0  0  0  0  0  0  0  0  0
   25.5158  -19.6360  -11.0090 C   0  0  0  0  0  0  0  0  0  0  0  0
   25.5019  -19.7629   -9.6825 N   0  0  0  0  0  0  0  0  0  0  0  0
   26.6688  -20.2142   -9.2431 C   0  0  0  0  0  0  0  0  0  0  0  0
   27.1451  -20.4990   -7.9814 C   0  0  0  0  0  0  0  0  0  0  0  0
   28.4360  -20.9611   -7.7846 C   0  0  0  0  0  0  0  0  0  0  0  0
   29.2202  -21.1223   -8.9013 C   0  0  0  0  0  0  0  0  0  0  0  0
   28.7383  -20.8350  -10.1706 C   0  0  0  0  0  0  0  0  0  0  0  0
   27.4711  -20.3830  -10.3630 C   0  0  0  0  0  0  0  0  0  0  0  0
   24.9361  -20.8871  -13.6376 C   0  0  0  0  0  0  0  0  0  0  0  0
   24.3711  -19.9443  -14.2453 O   0  0  0  0  0  0  0  0  0  0  0  0
   22.1302  -22.6810  -10.8565 O   0  0  0  0  0  0  0  0  0  0  0  0
   21.9528  -22.7802  -12.2359 C   0  0  0  0  0  0  0  0  0  0  0  0
   22.6433  -21.6397  -12.9621 C   0  0  2  0  0  0  0  0  0  0  0  0
   24.0839  -21.7571  -12.8736 N   0  0  0  0  0  0  0  0  0  0  0  0
   22.2029  -20.3365  -12.4503 C   0  0  0  0  0  0  0  0  0  0  0  0
   23.1445  -19.4197  -12.0087 O   0  0  0  0  0  0  0  0  0  0  0  0
   20.9964  -19.9902  -12.3855 O   0  0  0  0  0  0  0  0  0  0  0  0
  2  1  1  6
  3  2  1  0
  4  3  1  0
  5  4  2  0
  6  5  1  0
  7  6  1  0
  7 12  2  0
  8  7  1  0
  9  8  2  0
  9 10  1  0
 10 11  2  0
 11 12  1  0
 12  4  1  0
 13  2  1  0
 14 13  2  0
 15 13  1  0
 16 15  1  0
 16 27  1  0
 16 17  1  1
 18 17  1  0
 19 18  2  0
 20 19  1  0
 21 20  1  0
 21 26  2  0
 22 23  2  0
 22 21  1  0
 23 24  1  0
 24 25  2  0
 26 25  1  0
 26 18  1  0
 27 28  2  0
 30 29  1  0
 31 30  1  1
 32 27  1  0
 32 31  1  0
 33 34  1  0
 33 31  1  0
 35 33  2  0
M  END
$$$$
