WWS.pdb
     RDKit          3D

 35 38  0  0  1  0  0  0  0  0999 V2000
   28.9890  -20.8610  -15.3860 N   0  0  0  0  0  0  0  0  0  0  0  0
   27.8689  -20.4182  -14.6248 C   0  0  1  0  0  0  0  0  0  0  0  0
   26.8416  -19.7706  -15.5193 C   0  0  0  0  0  0  0  0  0  0  0  0
   27.4598  -18.5640  -16.1359 C   0  0  0  0  0  0  0  0  0  0  0  0
   28.0983  -18.5342  -17.3870 C   0  0  0  0  0  0  0  0  0  0  0  0
   28.4978  -17.2931  -17.6554 N   0  0  0  0  0  0  0  0  0  0  0  0
   28.1478  -16.4978  -16.6260 C   0  0  0  0  0  0  0  0  0  0  0  0
   28.3295  -15.1428  -16.3973 C   0  0  0  0  0  0  0  0  0  0  0  0
   27.8641  -14.6144  -15.2311 C   0  0  0  0  0  0  0  0  0  0  0  0
   27.2229  -15.3641  -14.2710 C   0  0  0  0  0  0  0  0  0  0  0  0
   27.0431  -16.7043  -14.4988 C   0  0  0  0  0  0  0  0  0  0  0  0
   27.4959  -17.2861  -15.6661 C   0  0  0  0  0  0  0  0  0  0  0  0
   27.3189  -21.4450  -13.7238 C   0  0  0  0  0  0  0  0  0  0  0  0
   26.9822  -22.5668  -14.1937 O   0  0  0  0  0  0  0  0  0  0  0  0
   27.1820  -21.1507  -12.3464 N   0  0  0  0  0  0  0  0  0  0  0  0
   26.2082  -21.7968  -11.5114 C   0  0  1  0  0  0  0  0  0  0  0  0
   26.8103  -22.1251  -10.1617 C   0  0  0  0  0  0  0  0  0  0  0  0
   26.8450  -20.9483   -9.2696 C   0  0  0  0  0  0  0  0  0  0  0  0
   26.0910  -19.7841   -9.4685 C   0  0  0  0  0  0  0  0  0  0  0  0
   26.3346  -18.9362   -8.4697 N   0  0  0  0  0  0  0  0  0  0  0  0
   27.2039  -19.4573   -7.6146 C   0  0  0  0  0  0  0  0  0  0  0  0
   27.7685  -18.9822   -6.4505 C   0  0  0  0  0  0  0  0  0  0  0  0
   28.6791  -19.7371   -5.7295 C   0  0  0  0  0  0  0  0  0  0  0  0
   28.9949  -20.9788   -6.2259 C   0  0  0  0  0  0  0  0  0  0  0  0
   28.4250  -21.4550   -7.3983 C   0  0  0  0  0  0  0  0  0  0  0  0
   27.5305  -20.7143   -8.1043 C   0  0  0  0  0  0  0  0  0  0  0  0
   24.9932  -20.9630  -11.3710 C   0  0  0  0  0  0  0  0  0  0  0  0
   25.0336  -19.7359  -11.1068 O   0  0  0  0  0  0  0  0  0  0  0  0
   21.7191  -21.9173  -13.4727 O   0  0  0  0  0  0  0  0  0  0  0  0
   21.8994  -20.6386  -12.9469 C   0  0  0  0  0  0  0  0  0  0  0  0
   22.5085  -20.6968  -11.5574 C   0  0  2  0  0  0  0  0  0  0  0  0
   23.6863  -21.5390  -11.5358 N   0  0  0  0  0  0  0  0  0  0  0  0
   21.5307  -21.1576  -10.5647 C   0  0  0  0  0  0  0  0  0  0  0  0
   20.3372  -20.4699  -10.4077 O   0  0  0  0  0  0  0  0  0  0  0  0
   21.7110  -22.1611   -9.8296 O   0  0  0  0  0  0  0  0  0  0  0  0
  2  1  1  6
  3  2  1  0
  4  3  1  0
  5  4  2  0
  6  5  1  0
  7  6  1  0
  7 12  2  0
  8  7  1  0
  9  8  2  0
  9 10  1  0
 10 11  2  0
 11 12  1  0
 12  4  1  0
 13  2  1  0
 14 13  2  0
 15 13  1  0
 16 15  1  0
 16 27  1  0
 16 17  1  1
 18 17  1  0
 19 18  2  0
 20 19  1  0
 21 20  1  0
 21 26  2  0
 22 23  2  0
 22 21  1  0
 23 24  1  0
 24 25  2  0
 26 25  1  0
 26 18  1  0
 27 28  2  0
 30 29  1  0
 31 30  1  6
 32 27  1  0
 32 31  1  0
 33 34  1  0
 33 31  1  0
 35 33  2  0
M  END
$$$$
