WWS.pdb
     RDKit          3D

 35 38  0  0  1  0  0  0  0  0999 V2000
   28.2730  -19.9111  -16.6707 N   0  0  0  0  0  0  0  0  0  0  0  0
   27.2411  -19.7465  -15.7021 C   0  0  1  0  0  0  0  0  0  0  0  0
   26.0778  -18.9871  -16.2894 C   0  0  0  0  0  0  0  0  0  0  0  0
   26.5865  -17.6836  -16.7999 C   0  0  0  0  0  0  0  0  0  0  0  0
   26.6093  -17.2995  -18.1510 C   0  0  0  0  0  0  0  0  0  0  0  0
   27.0838  -16.0601  -18.2553 N   0  0  0  0  0  0  0  0  0  0  0  0
   27.3779  -15.6082  -17.0209 C   0  0  0  0  0  0  0  0  0  0  0  0
   27.8994  -14.4043  -16.5737 C   0  0  0  0  0  0  0  0  0  0  0  0
   28.0999  -14.2419  -15.2361 C   0  0  0  0  0  0  0  0  0  0  0  0
   27.8088  -15.2179  -14.3100 C   0  0  0  0  0  0  0  0  0  0  0  0
   27.2923  -16.4082  -14.7536 C   0  0  0  0  0  0  0  0  0  0  0  0
   27.0700  -16.6202  -16.0996 C   0  0  0  0  0  0  0  0  0  0  0  0
   26.8606  -20.9952  -15.0206 C   0  0  0  0  0  0  0  0  0  0  0  0
   26.6259  -22.0290  -15.7052 O   0  0  0  0  0  0  0  0  0  0  0  0
   26.7685  -21.0086  -13.6086 N   0  0  0  0  0  0  0  0  0  0  0  0
   26.2032  -22.1109  -12.8816 C   0  0  1  0  0  0  0  0  0  0  0  0
   26.9068  -22.2774  -11.5514 C   0  0  0  0  0  0  0  0  0  0  0  0
   26.4943  -21.2494  -10.5741 C   0  0  0  0  0  0  0  0  0  0  0  0
   25.2986  -20.5228  -10.6495 C   0  0  0  0  0  0  0  0  0  0  0  0
   25.2239  -19.7044   -9.6004 N   0  0  0  0  0  0  0  0  0  0  0  0
   26.2932  -19.8357   -8.8272 C   0  0  0  0  0  0  0  0  0  0  0  0
   26.6804  -19.2204   -7.6562 C   0  0  0  0  0  0  0  0  0  0  0  0
   27.8780  -19.5370   -7.0363 C   0  0  0  0  0  0  0  0  0  0  0  0
   28.6625  -20.4900   -7.6399 C   0  0  0  0  0  0  0  0  0  0  0  0
   28.2704  -21.1081   -8.8190 C   0  0  0  0  0  0  0  0  0  0  0  0
   27.0945  -20.7980   -9.4258 C   0  0  0  0  0  0  0  0  0  0  0  0
   24.7446  -21.9349  -12.7014 C   0  0  0  0  0  0  0  0  0  0  0  0
   24.2268  -20.8488  -12.3414 O   0  0  0  0  0  0  0  0  0  0  0  0
   22.0349  -25.1556  -13.0466 O   0  0  0  0  0  0  0  0  0  0  0  0
   21.7361  -23.9853  -13.7433 C   0  0  0  0  0  0  0  0  0  0  0  0
   22.4245  -22.7841  -13.1204 C   0  0  2  0  0  0  0  0  0  0  0  0
   23.8402  -23.0273  -12.9373 N   0  0  0  0  0  0  0  0  0  0  0  0
   21.7993  -22.4120  -11.8457 C   0  0  0  0  0  0  0  0  0  0  0  0
   20.4466  -22.1106  -11.8079 O   0  0  0  0  0  0  0  0  0  0  0  0
   22.4279  -22.3477  -10.7592 O   0  0  0  0  0  0  0  0  0  0  0  0
  2  1  1  6
  3  2  1  0
  4  3  1  0
  5  4  2  0
  6  5  1  0
  7  6  1  0
  7 12  2  0
  8  7  1  0
  9  8  2  0
  9 10  1  0
 10 11  2  0
 11 12  1  0
 12  4  1  0
 13  2  1  0
 14 13  2  0
 15 13  1  0
 16 15  1  0
 16 27  1  0
 16 17  1  1
 18 17  1  0
 19 18  2  0
 20 19  1  0
 21 20  1  0
 21 26  2  0
 22 23  2  0
 22 21  1  0
 23 24  1  0
 24 25  2  0
 26 25  1  0
 26 18  1  0
 27 28  2  0
 30 29  1  0
 31 30  1  1
 32 27  1  0
 32 31  1  0
 33 34  1  0
 33 31  1  0
 35 33  2  0
M  END
$$$$
