WWS.pdb
     RDKit          3D

 35 38  0  0  1  0  0  0  0  0999 V2000
   24.6416  -19.4548   -9.4950 N   0  0  0  0  0  0  0  0  0  0  0  0
   25.8074  -20.1127   -9.9831 C   0  0  1  0  0  0  0  0  0  0  0  0
   26.0556  -21.3894   -9.2194 C   0  0  0  0  0  0  0  0  0  0  0  0
   26.2405  -21.0409   -7.7831 C   0  0  0  0  0  0  0  0  0  0  0  0
   25.2535  -21.1589   -6.7904 C   0  0  0  0  0  0  0  0  0  0  0  0
   25.7611  -20.8067   -5.6114 N   0  0  0  0  0  0  0  0  0  0  0  0
   27.0505  -20.4580   -5.7865 C   0  0  0  0  0  0  0  0  0  0  0  0
   28.0194  -20.0126   -4.9009 C   0  0  0  0  0  0  0  0  0  0  0  0
   29.2583  -19.7229   -5.3878 C   0  0  0  0  0  0  0  0  0  0  0  0
   29.5907  -19.8518   -6.7174 C   0  0  0  0  0  0  0  0  0  0  0  0
   28.6315  -20.2932   -7.5923 C   0  0  0  0  0  0  0  0  0  0  0  0
   27.3615  -20.6009   -7.1468 C   0  0  0  0  0  0  0  0  0  0  0  0
   25.8302  -20.2742  -11.4467 C   0  0  0  0  0  0  0  0  0  0  0  0
   24.7411  -20.3497  -12.0796 O   0  0  0  0  0  0  0  0  0  0  0  0
   27.0769  -20.3391  -12.1130 N   0  0  0  0  0  0  0  0  0  0  0  0
   27.1911  -20.2990  -13.5441 C   0  0  1  0  0  0  0  0  0  0  0  0
   28.2270  -19.2758  -13.9589 C   0  0  0  0  0  0  0  0  0  0  0  0
   27.6088  -18.0617  -14.5297 C   0  0  0  0  0  0  0  0  0  0  0  0
   26.7609  -17.1997  -13.8215 C   0  0  0  0  0  0  0  0  0  0  0  0
   26.4055  -16.1926  -14.6185 N   0  0  0  0  0  0  0  0  0  0  0  0
   26.9605  -16.3248  -15.8157 C   0  0  0  0  0  0  0  0  0  0  0  0
   26.8974  -15.5645  -16.9636 C   0  0  0  0  0  0  0  0  0  0  0  0
   27.5796  -15.9327  -18.1115 C   0  0  0  0  0  0  0  0  0  0  0  0
   28.3207  -17.0883  -18.0557 C   0  0  0  0  0  0  0  0  0  0  0  0
   28.3828  -17.8521  -16.8986 C   0  0  0  0  0  0  0  0  0  0  0  0
   27.7143  -17.4894  -15.7723 C   0  0  0  0  0  0  0  0  0  0  0  0
   27.5087  -21.6384  -14.0885 C   0  0  0  0  0  0  0  0  0  0  0  0
   28.6547  -22.1481  -14.0234 O   0  0  0  0  0  0  0  0  0  0  0  0
   24.7141  -23.7130  -16.4866 O   0  0  0  0  0  0  0  0  0  0  0  0
   25.5707  -24.4797  -15.6975 C   0  0  0  0  0  0  0  0  0  0  0  0
   26.8230  -23.7032  -15.3319 C   0  0  2  0  0  0  0  0  0  0  0  0
   26.4927  -22.4287  -14.7289 N   0  0  0  0  0  0  0  0  0  0  0  0
   27.6904  -23.5082  -16.4997 C   0  0  0  0  0  0  0  0  0  0  0  0
   28.4709  -24.5589  -16.9569 O   0  0  0  0  0  0  0  0  0  0  0  0
   27.7726  -22.4223  -17.1272 O   0  0  0  0  0  0  0  0  0  0  0  0
  2  1  1  1
  3  2  1  0
  4  3  1  0
  5  4  2  0
  6  5  1  0
  7  6  1  0
  7 12  2  0
  8  7  1  0
  9  8  2  0
  9 10  1  0
 10 11  2  0
 11 12  1  0
 12  4  1  0
 13  2  1  0
 14 13  2  0
 15 13  1  0
 16 15  1  0
 16 27  1  0
 16 17  1  1
 18 17  1  0
 19 18  2  0
 20 19  1  0
 21 20  1  0
 21 26  2  0
 22 23  2  0
 22 21  1  0
 23 24  1  0
 24 25  2  0
 26 25  1  0
 26 18  1  0
 27 28  2  0
 30 29  1  0
 31 30  1  6
 32 27  1  0
 32 31  1  0
 33 34  1  0
 33 31  1  0
 35 33  2  0
M  END
$$$$
