WWS.pdb
     RDKit          3D

 35 38  0  0  1  0  0  0  0  0999 V2000
   23.4235  -21.6639  -10.9824 N   0  0  0  0  0  0  0  0  0  0  0  0
   24.0272  -20.5886  -11.6962 C   0  0  1  0  0  0  0  0  0  0  0  0
   23.0755  -19.4237  -11.8061 C   0  0  0  0  0  0  0  0  0  0  0  0
   21.8129  -19.9146  -12.4253 C   0  0  0  0  0  0  0  0  0  0  0  0
   20.5415  -19.8412  -11.8322 C   0  0  0  0  0  0  0  0  0  0  0  0
   19.6287  -20.3278  -12.6702 N   0  0  0  0  0  0  0  0  0  0  0  0
   20.2496  -20.7226  -13.7985 C   0  0  0  0  0  0  0  0  0  0  0  0
   19.7736  -21.2972  -14.9667 C   0  0  0  0  0  0  0  0  0  0  0  0
   20.6664  -21.6015  -15.9497 C   0  0  0  0  0  0  0  0  0  0  0  0
   22.0177  -21.3648  -15.8353 C   0  0  0  0  0  0  0  0  0  0  0  0
   22.4872  -20.7957  -14.6795 C   0  0  0  0  0  0  0  0  0  0  0  0
   21.6216  -20.4681  -13.6550 C   0  0  0  0  0  0  0  0  0  0  0  0
   25.3666  -20.2256  -11.2034 C   0  0  0  0  0  0  0  0  0  0  0  0
   25.7916  -19.0492  -11.3710 O   0  0  0  0  0  0  0  0  0  0  0  0
   26.1488  -21.2066  -10.5490 N   0  0  0  0  0  0  0  0  0  0  0  0
   27.5660  -21.0666  -10.3625 C   0  0  1  0  0  0  0  0  0  0  0  0
   27.9668  -21.5709   -8.9924 C   0  0  0  0  0  0  0  0  0  0  0  0
   27.7972  -20.5378   -7.9504 C   0  0  0  0  0  0  0  0  0  0  0  0
   26.8989  -19.4661   -8.0397 C   0  0  0  0  0  0  0  0  0  0  0  0
   26.9767  -18.7434   -6.9228 N   0  0  0  0  0  0  0  0  0  0  0  0
   27.8700  -19.2617   -6.0910 C   0  0  0  0  0  0  0  0  0  0  0  0
   28.3095  -18.8862   -4.8398 C   0  0  0  0  0  0  0  0  0  0  0  0
   29.2820  -19.6096   -4.1693 C   0  0  0  0  0  0  0  0  0  0  0  0
   29.7893  -20.7164   -4.8061 C   0  0  0  0  0  0  0  0  0  0  0  0
   29.3451  -21.0926   -6.0659 C   0  0  0  0  0  0  0  0  0  0  0  0
   28.3897  -20.3831   -6.7225 C   0  0  0  0  0  0  0  0  0  0  0  0
   28.3131  -21.7641  -11.4332 C   0  0  0  0  0  0  0  0  0  0  0  0
   28.4460  -23.0124  -11.4718 O   0  0  0  0  0  0  0  0  0  0  0  0
   30.5530  -19.5990  -14.3129 O   0  0  0  0  0  0  0  0  0  0  0  0
   29.9573  -20.7957  -14.7096 C   0  0  0  0  0  0  0  0  0  0  0  0
   29.7001  -21.7024  -13.5194 C   0  0  2  0  0  0  0  0  0  0  0  0
   28.9316  -21.0219  -12.4980 N   0  0  0  0  0  0  0  0  0  0  0  0
   30.9552  -22.2169  -12.9590 C   0  0  0  0  0  0  0  0  0  0  0  0
   31.8157  -22.9485  -13.7628 O   0  0  0  0  0  0  0  0  0  0  0  0
   31.3082  -22.0316  -11.7670 O   0  0  0  0  0  0  0  0  0  0  0  0
  2  1  1  1
  3  2  1  0
  4  3  1  0
  5  4  2  0
  6  5  1  0
  7  6  1  0
  7 12  2  0
  8  7  1  0
  9  8  2  0
  9 10  1  0
 10 11  2  0
 11 12  1  0
 12  4  1  0
 13  2  1  0
 14 13  2  0
 15 13  1  0
 16 15  1  0
 16 27  1  0
 16 17  1  1
 18 17  1  0
 19 18  2  0
 20 19  1  0
 21 20  1  0
 21 26  2  0
 22 23  2  0
 22 21  1  0
 23 24  1  0
 24 25  2  0
 26 25  1  0
 26 18  1  0
 27 28  2  0
 30 29  1  0
 31 30  1  6
 32 27  1  0
 32 31  1  0
 33 34  1  0
 33 31  1  0
 35 33  2  0
M  END
$$$$
