WWS.pdb
     RDKit          3D

 35 38  0  0  1  0  0  0  0  0999 V2000
   28.0770  -20.7066  -14.4255 N   0  0  0  0  0  0  0  0  0  0  0  0
   27.6675  -20.7823  -13.0628 C   0  0  1  0  0  0  0  0  0  0  0  0
   28.6777  -20.1106  -12.1667 C   0  0  0  0  0  0  0  0  0  0  0  0
   29.8881  -20.9761  -12.1036 C   0  0  0  0  0  0  0  0  0  0  0  0
   30.6598  -21.3664  -13.2108 C   0  0  0  0  0  0  0  0  0  0  0  0
   31.6923  -22.0993  -12.7999 N   0  0  0  0  0  0  0  0  0  0  0  0
   31.6328  -22.2101  -11.4587 C   0  0  0  0  0  0  0  0  0  0  0  0
   32.4457  -22.8625  -10.5449 C   0  0  0  0  0  0  0  0  0  0  0  0
   32.1153  -22.8017   -9.2247 C   0  0  0  0  0  0  0  0  0  0  0  0
   31.0124  -22.1231   -8.7579 C   0  0  0  0  0  0  0  0  0  0  0  0
   30.2094  -21.4775   -9.6628 C   0  0  0  0  0  0  0  0  0  0  0  0
   30.5032  -21.5089  -11.0114 C   0  0  0  0  0  0  0  0  0  0  0  0
   26.2790  -20.3480  -12.8343 C   0  0  0  0  0  0  0  0  0  0  0  0
   25.9992  -19.1181  -12.8739 O   0  0  0  0  0  0  0  0  0  0  0  0
   25.2862  -21.3228  -12.5766 N   0  0  0  0  0  0  0  0  0  0  0  0
   23.9287  -20.9776  -12.2587 C   0  0  1  0  0  0  0  0  0  0  0  0
   23.0146  -21.3276  -13.4137 C   0  0  0  0  0  0  0  0  0  0  0  0
   23.2021  -20.4193  -14.5634 C   0  0  0  0  0  0  0  0  0  0  0  0
   22.4384  -19.2671  -14.7923 C   0  0  0  0  0  0  0  0  0  0  0  0
   22.8853  -18.6645  -15.8937 N   0  0  0  0  0  0  0  0  0  0  0  0
   23.8994  -19.3395  -16.4178 C   0  0  0  0  0  0  0  0  0  0  0  0
   24.6804  -19.1340  -17.5348 C   0  0  0  0  0  0  0  0  0  0  0  0
   25.6952  -20.0123  -17.8773 C   0  0  0  0  0  0  0  0  0  0  0  0
   25.8883  -21.0967  -17.0559 C   0  0  0  0  0  0  0  0  0  0  0  0
   25.1007  -21.3014  -15.9318 C   0  0  0  0  0  0  0  0  0  0  0  0
   24.1061  -20.4384  -15.5955 C   0  0  0  0  0  0  0  0  0  0  0  0
   23.4929  -21.6377  -11.0075 C   0  0  0  0  0  0  0  0  0  0  0  0
   23.8151  -22.8139  -10.7076 O   0  0  0  0  0  0  0  0  0  0  0  0
   22.1939  -19.7857   -7.4567 O   0  0  0  0  0  0  0  0  0  0  0  0
   22.5282  -21.1288   -7.6249 C   0  0  0  0  0  0  0  0  0  0  0  0
   22.0419  -21.6524   -8.9645 C   0  0  2  0  0  0  0  0  0  0  0  0
   22.6630  -20.9413  -10.0625 N   0  0  0  0  0  0  0  0  0  0  0  0
   20.5797  -21.5786   -9.0677 C   0  0  0  0  0  0  0  0  0  0  0  0
   20.0009  -20.8901  -10.1227 O   0  0  0  0  0  0  0  0  0  0  0  0
   19.7996  -22.1132   -8.2399 O   0  0  0  0  0  0  0  0  0  0  0  0
  2  1  1  6
  3  2  1  0
  4  3  1  0
  5  4  2  0
  6  5  1  0
  7  6  1  0
  7 12  2  0
  8  7  1  0
  9  8  2  0
  9 10  1  0
 10 11  2  0
 11 12  1  0
 12  4  1  0
 13  2  1  0
 14 13  2  0
 15 13  1  0
 16 15  1  0
 16 27  1  0
 16 17  1  6
 18 17  1  0
 19 18  2  0
 20 19  1  0
 21 20  1  0
 21 26  2  0
 22 23  2  0
 22 21  1  0
 23 24  1  0
 24 25  2  0
 26 25  1  0
 26 18  1  0
 27 28  2  0
 30 29  1  0
 31 30  1  1
 32 27  1  0
 32 31  1  0
 33 34  1  0
 33 31  1  0
 35 33  2  0
M  END
$$$$
