WWS.pdb
     RDKit          3D

 35 38  0  0  1  0  0  0  0  0999 V2000
   26.7317  -20.5988  -13.5247 N   0  0  0  0  0  0  0  0  0  0  0  0
   25.6553  -20.5558  -12.5921 C   0  0  1  0  0  0  0  0  0  0  0  0
   24.3460  -20.8553  -13.2782 C   0  0  0  0  0  0  0  0  0  0  0  0
   24.1198  -19.8137  -14.3185 C   0  0  0  0  0  0  0  0  0  0  0  0
   24.8279  -19.7136  -15.5277 C   0  0  0  0  0  0  0  0  0  0  0  0
   24.3469  -18.7004  -16.2447 N   0  0  0  0  0  0  0  0  0  0  0  0
   23.3447  -18.1236  -15.5536 C   0  0  0  0  0  0  0  0  0  0  0  0
   22.5245  -17.0428  -15.8372 C   0  0  0  0  0  0  0  0  0  0  0  0
   21.5874  -16.6814  -14.9166 C   0  0  0  0  0  0  0  0  0  0  0  0
   21.4190  -17.3398  -13.7195 C   0  0  0  0  0  0  0  0  0  0  0  0
   22.2306  -18.4092  -13.4405 C   0  0  0  0  0  0  0  0  0  0  0  0
   23.1943  -18.8147  -14.3422 C   0  0  0  0  0  0  0  0  0  0  0  0
   25.8912  -21.3503  -11.3748 C   0  0  0  0  0  0  0  0  0  0  0  0
   26.3388  -22.5256  -11.4781 O   0  0  0  0  0  0  0  0  0  0  0  0
   25.6117  -20.7753  -10.1124 N   0  0  0  0  0  0  0  0  0  0  0  0
   25.1741  -21.5549   -8.9882 C   0  0  1  0  0  0  0  0  0  0  0  0
   26.3328  -21.8185   -8.0501 C   0  0  0  0  0  0  0  0  0  0  0  0
   26.8858  -20.5692   -7.4883 C   0  0  0  0  0  0  0  0  0  0  0  0
   26.5974  -19.2881   -7.9770 C   0  0  0  0  0  0  0  0  0  0  0  0
   27.2331  -18.3873   -7.2283 N   0  0  0  0  0  0  0  0  0  0  0  0
   27.9294  -18.9828   -6.2696 C   0  0  0  0  0  0  0  0  0  0  0  0
   28.7408  -18.4987   -5.2662 C   0  0  0  0  0  0  0  0  0  0  0  0
   29.3760  -19.3506   -4.3775 C   0  0  0  0  0  0  0  0  0  0  0  0
   29.1621  -20.6980   -4.5406 C   0  0  0  0  0  0  0  0  0  0  0  0
   28.3445  -21.1830   -5.5517 C   0  0  0  0  0  0  0  0  0  0  0  0
   27.7205  -20.3465   -6.4223 C   0  0  0  0  0  0  0  0  0  0  0  0
   24.0529  -20.8904   -8.2864 C   0  0  0  0  0  0  0  0  0  0  0  0
   23.5892  -19.7780   -8.6397 O   0  0  0  0  0  0  0  0  0  0  0  0
   21.3827  -23.5093   -8.0786 O   0  0  0  0  0  0  0  0  0  0  0  0
   21.2847  -22.1199   -8.1421 C   0  0  0  0  0  0  0  0  0  0  0  0
   21.9977  -21.4648   -6.9728 C   0  0  2  0  0  0  0  0  0  0  0  0
   23.4350  -21.5073   -7.1443 N   0  0  0  0  0  0  0  0  0  0  0  0
   21.6149  -22.0848   -5.6988 C   0  0  0  0  0  0  0  0  0  0  0  0
   20.3131  -21.9590   -5.2390 O   0  0  0  0  0  0  0  0  0  0  0  0
   22.4122  -22.7389   -4.9803 O   0  0  0  0  0  0  0  0  0  0  0  0
  2  1  1  6
  3  2  1  0
  4  3  1  0
  5  4  2  0
  6  5  1  0
  7  6  1  0
  7 12  2  0
  8  7  1  0
  9  8  2  0
  9 10  1  0
 10 11  2  0
 11 12  1  0
 12  4  1  0
 13  2  1  0
 14 13  2  0
 15 13  1  0
 16 15  1  0
 16 27  1  0
 16 17  1  1
 18 17  1  0
 19 18  2  0
 20 19  1  0
 21 20  1  0
 21 26  2  0
 22 23  2  0
 22 21  1  0
 23 24  1  0
 24 25  2  0
 26 25  1  0
 26 18  1  0
 27 28  2  0
 30 29  1  0
 31 30  1  6
 32 27  1  0
 32 31  1  0
 33 34  1  0
 33 31  1  0
 35 33  2  0
M  END
$$$$
