IQH.pdb
     RDKit          3D

 28 28  0  0  1  0  0  0  0  0999 V2000
   25.2588  -17.5509  -18.8132 C   0  0  0  0  0  0  0  0  0  0  0  0
   25.8119  -18.8105  -18.2351 C   0  0  0  0  0  0  0  0  0  0  0  0
   26.9439  -18.5092  -17.2673 C   0  0  2  0  0  0  0  0  0  0  0  0
   28.0811  -17.8564  -18.0197 C   0  0  0  0  0  0  0  0  0  0  0  0
   27.4343  -19.7708  -16.6106 C   0  0  2  0  0  0  0  0  0  0  0  0
   27.6427  -20.8141  -17.6104 N   0  0  0  0  0  0  0  0  0  0  0  0
   26.3291  -20.2936  -15.7304 C   0  0  0  0  0  0  0  0  0  0  0  0
   25.5232  -21.1468  -16.2342 O   0  0  0  0  0  0  0  0  0  0  0  0
   25.9162  -20.8220   -9.4674 N   0  0  0  0  0  0  0  0  0  0  0  0
   24.6126  -21.1805   -9.9125 C   0  0  0  0  0  0  0  0  0  0  0  0
   23.8122  -21.6559   -9.0825 O   0  0  0  0  0  0  0  0  0  0  0  0
   24.2944  -20.9606  -11.3363 C   0  0  0  0  0  0  0  0  0  0  0  0
   25.4834  -20.4633  -12.1240 C   0  0  0  0  0  0  0  0  0  0  0  0
   25.1236  -20.2505  -13.5337 C   0  0  2  0  0  0  0  0  0  0  0  0
   26.1936  -19.8649  -14.4052 N   0  0  0  0  0  0  0  0  0  0  0  0
   23.8271  -19.5546  -13.7839 C   0  0  0  0  0  0  0  0  0  0  0  0
   23.8113  -18.3165  -13.8703 O   0  0  0  0  0  0  0  0  0  0  0  0
   22.5895  -20.2209  -13.9332 N   0  0  0  0  0  0  0  0  0  0  0  0
   21.5292  -19.6470  -14.7802 C   0  0  1  0  0  0  0  0  0  0  0  0
   22.0718  -19.4039  -16.1782 C   0  0  0  0  0  0  0  0  0  0  0  0
   20.9899  -18.7893  -16.9864 C   0  0  0  0  0  0  0  0  0  0  0  0
   20.1448  -17.7467  -16.5747 C   0  0  0  0  0  0  0  0  0  0  0  0
   19.2946  -17.4568  -17.5675 N   0  0  0  0  0  0  0  0  0  0  0  0
   19.5625  -18.2713  -18.5953 C   0  0  0  0  0  0  0  0  0  0  0  0
   20.5829  -19.0704  -18.2401 N   0  0  0  0  0  0  0  0  0  0  0  0
   20.3367  -20.5277  -14.7717 C   0  0  0  0  0  0  0  0  0  0  0  0
   20.3811  -21.7780  -14.8182 O   0  0  0  0  0  0  0  0  0  0  0  0
   19.0846  -19.9302  -14.7080 O   0  0  0  0  0  0  0  0  0  0  0  0
  1  2  1  0
  3  2  1  0
  3  4  1  6
  5  3  1  0
  5  6  1  6
  7  8  2  0
  7  5  1  0
  9 10  1  0
 10 12  1  0
 11 10  2  0
 12 13  1  0
 14 13  1  1
 14 15  1  0
 15  7  1  0
 16 14  1  0
 16 17  2  0
 18 16  1  0
 19 18  1  0
 19 20  1  6
 20 21  1  0
 21 22  2  0
 21 25  1  0
 22 23  1  0
 23 24  1  0
 25 24  2  0
 26 19  1  0
 27 26  2  0
 28 26  1  0
M  END
$$$$
