IQH.pdb
     RDKit          3D

 28 28  0  0  1  0  0  0  0  0999 V2000
   27.9003  -17.6130  -19.8302 C   0  0  0  0  0  0  0  0  0  0  0  0
   27.3547  -16.9882  -18.5899 C   0  0  0  0  0  0  0  0  0  0  0  0
   26.5461  -17.9946  -17.7887 C   0  0  2  0  0  0  0  0  0  0  0  0
   25.4003  -18.4995  -18.6358 C   0  0  0  0  0  0  0  0  0  0  0  0
   26.0045  -17.3660  -16.5337 C   0  0  2  0  0  0  0  0  0  0  0  0
   27.0963  -17.0253  -15.6262 N   0  0  0  0  0  0  0  0  0  0  0  0
   25.2043  -18.4112  -15.8012 C   0  0  0  0  0  0  0  0  0  0  0  0
   25.8475  -19.3316  -15.1923 O   0  0  0  0  0  0  0  0  0  0  0  0
   19.1735  -18.2215  -13.8201 N   0  0  0  0  0  0  0  0  0  0  0  0
   19.5359  -19.5817  -13.6094 C   0  0  0  0  0  0  0  0  0  0  0  0
   18.7107  -20.3368  -13.0575 O   0  0  0  0  0  0  0  0  0  0  0  0
   20.8726  -20.0090  -14.0647 C   0  0  0  0  0  0  0  0  0  0  0  0
   21.6662  -18.8757  -14.6708 C   0  0  0  0  0  0  0  0  0  0  0  0
   22.9756  -19.3495  -15.1431 C   0  0  2  0  0  0  0  0  0  0  0  0
   23.8056  -18.3720  -15.7824 N   0  0  0  0  0  0  0  0  0  0  0  0
   22.9974  -20.7021  -15.7738 C   0  0  0  0  0  0  0  0  0  0  0  0
   22.8706  -20.7983  -17.0048 O   0  0  0  0  0  0  0  0  0  0  0  0
   23.1563  -21.9071  -15.0522 N   0  0  0  0  0  0  0  0  0  0  0  0
   23.8859  -23.0421  -15.6443 C   0  0  1  0  0  0  0  0  0  0  0  0
   25.3456  -22.9801  -15.2282 C   0  0  0  0  0  0  0  0  0  0  0  0
   26.0520  -24.1138  -15.8741 C   0  0  0  0  0  0  0  0  0  0  0  0
   25.4616  -25.1025  -16.6771 C   0  0  0  0  0  0  0  0  0  0  0  0
   26.4086  -25.9579  -17.0821 N   0  0  0  0  0  0  0  0  0  0  0  0
   27.5783  -25.5557  -16.5708 C   0  0  0  0  0  0  0  0  0  0  0  0
   27.3578  -24.4463  -15.8453 N   0  0  0  0  0  0  0  0  0  0  0  0
   23.2346  -24.3195  -15.2678 C   0  0  0  0  0  0  0  0  0  0  0  0
   23.4586  -25.4180  -15.8249 O   0  0  0  0  0  0  0  0  0  0  0  0
   22.3140  -24.3011  -14.2281 O   0  0  0  0  0  0  0  0  0  0  0  0
  1  2  1  0
  3  2  1  0
  3  4  1  6
  5  3  1  0
  5  6  1  1
  7  8  2  0
  7  5  1  0
  9 10  1  0
 10 12  1  0
 11 10  2  0
 12 13  1  0
 14 13  1  6
 14 15  1  0
 15  7  1  0
 16 14  1  0
 16 17  2  0
 18 16  1  0
 19 18  1  0
 19 20  1  1
 20 21  1  0
 21 22  2  0
 21 25  1  0
 22 23  1  0
 23 24  1  0
 25 24  2  0
 26 19  1  0
 27 26  2  0
 28 26  1  0
M  END
$$$$
