IQH.pdb
     RDKit          3D

 28 28  0  0  1  0  0  0  0  0999 V2000
   28.4993  -11.0690  -16.7674 C   0  0  0  0  0  0  0  0  0  0  0  0
   27.4445  -12.0500  -16.3779 C   0  0  0  0  0  0  0  0  0  0  0  0
   26.0715  -11.3993  -16.3878 C   0  0  2  0  0  0  0  0  0  0  0  0
   26.0232  -10.3236  -15.3267 C   0  0  0  0  0  0  0  0  0  0  0  0
   24.9967  -12.4174  -16.1207 C   0  0  2  0  0  0  0  0  0  0  0  0
   25.1033  -13.5259  -17.0649 N   0  0  0  0  0  0  0  0  0  0  0  0
   23.6673  -11.7770  -16.4243 C   0  0  0  0  0  0  0  0  0  0  0  0
   23.4571  -11.3865  -17.6221 O   0  0  0  0  0  0  0  0  0  0  0  0
   17.9657  -13.2060  -15.3150 N   0  0  0  0  0  0  0  0  0  0  0  0
   18.9842  -13.7168  -16.1682 C   0  0  0  0  0  0  0  0  0  0  0  0
   18.7886  -14.8093  -16.7373 O   0  0  0  0  0  0  0  0  0  0  0  0
   20.2099  -12.9107  -16.3243 C   0  0  0  0  0  0  0  0  0  0  0  0
   20.2327  -11.7103  -15.4077 C   0  0  0  0  0  0  0  0  0  0  0  0
   21.4567  -10.9213  -15.6111 C   0  0  2  0  0  0  0  0  0  0  0  0
   22.6940  -11.6211  -15.4311 N   0  0  0  0  0  0  0  0  0  0  0  0
   21.4382   -9.5286  -15.0747 C   0  0  0  0  0  0  0  0  0  0  0  0
   22.3913   -9.1327  -14.3852 O   0  0  0  0  0  0  0  0  0  0  0  0
   20.3893   -8.6088  -15.3022 N   0  0  0  0  0  0  0  0  0  0  0  0
   20.5724   -7.1776  -15.0037 C   0  0  1  0  0  0  0  0  0  0  0  0
   21.7897   -6.6554  -15.7474 C   0  0  0  0  0  0  0  0  0  0  0  0
   21.9221   -5.2087  -15.4455 C   0  0  0  0  0  0  0  0  0  0  0  0
   21.1198   -4.4757  -14.5568 C   0  0  0  0  0  0  0  0  0  0  0  0
   21.5345   -3.2028  -14.5437 N   0  0  0  0  0  0  0  0  0  0  0  0
   22.5680   -3.0937  -15.3871 C   0  0  0  0  0  0  0  0  0  0  0  0
   22.7967   -4.3030  -15.9265 N   0  0  0  0  0  0  0  0  0  0  0  0
   19.3356   -6.4267  -15.3267 C   0  0  0  0  0  0  0  0  0  0  0  0
   18.7260   -6.5048  -16.4173 O   0  0  0  0  0  0  0  0  0  0  0  0
   18.8151   -5.5789  -14.3577 O   0  0  0  0  0  0  0  0  0  0  0  0
  1  2  1  0
  3  2  1  0
  3  4  1  1
  5  3  1  0
  5  6  1  6
  7  8  2  0
  7  5  1  0
  9 10  1  0
 10 12  1  0
 11 10  2  0
 12 13  1  0
 14 13  1  1
 14 15  1  0
 15  7  1  0
 16 14  1  0
 16 17  2  0
 18 16  1  0
 19 18  1  0
 19 20  1  6
 20 21  1  0
 21 22  2  0
 21 25  1  0
 22 23  1  0
 23 24  1  0
 25 24  2  0
 26 19  1  0
 27 26  2  0
 28 26  1  0
M  END
$$$$
