IQH.pdb
     RDKit          3D

 28 28  0  0  1  0  0  0  0  0999 V2000
   28.4731  -22.1250  -19.7009 C   0  0  0  0  0  0  0  0  0  0  0  0
   27.8417  -23.4307  -19.3496 C   0  0  0  0  0  0  0  0  0  0  0  0
   26.9190  -23.2796  -18.1519 C   0  0  2  0  0  0  0  0  0  0  0  0
   26.0102  -22.0916  -18.3707 C   0  0  0  0  0  0  0  0  0  0  0  0
   27.7123  -23.0799  -16.8893 C   0  0  2  0  0  0  0  0  0  0  0  0
   28.4137  -24.3096  -16.5321 N   0  0  0  0  0  0  0  0  0  0  0  0
   26.7386  -22.8488  -15.7632 C   0  0  0  0  0  0  0  0  0  0  0  0
   26.0241  -23.8376  -15.3847 O   0  0  0  0  0  0  0  0  0  0  0  0
   26.3890  -22.0833  -10.8042 N   0  0  0  0  0  0  0  0  0  0  0  0
   25.2768  -21.1953  -10.8236 C   0  0  0  0  0  0  0  0  0  0  0  0
   24.4363  -21.2771   -9.9058 O   0  0  0  0  0  0  0  0  0  0  0  0
   25.1958  -20.2291  -11.9357 C   0  0  0  0  0  0  0  0  0  0  0  0
   26.2501  -20.4716  -12.9898 C   0  0  0  0  0  0  0  0  0  0  0  0
   25.7150  -21.2961  -14.0834 C   0  0  2  0  0  0  0  0  0  0  0  0
   26.6251  -21.5968  -15.1484 N   0  0  0  0  0  0  0  0  0  0  0  0
   24.3199  -20.9895  -14.5163 C   0  0  0  0  0  0  0  0  0  0  0  0
   24.1147  -20.0079  -15.2476 O   0  0  0  0  0  0  0  0  0  0  0  0
   23.1916  -21.7555  -14.1443 N   0  0  0  0  0  0  0  0  0  0  0  0
   21.8433  -21.3668  -14.5937 C   0  0  1  0  0  0  0  0  0  0  0  0
   21.0019  -22.6126  -14.8123 C   0  0  0  0  0  0  0  0  0  0  0  0
   21.3062  -23.1361  -16.1669 C   0  0  0  0  0  0  0  0  0  0  0  0
   21.9947  -22.4500  -17.1798 C   0  0  0  0  0  0  0  0  0  0  0  0
   22.0789  -23.2369  -18.2597 N   0  0  0  0  0  0  0  0  0  0  0  0
   21.4727  -24.3963  -17.9774 C   0  0  0  0  0  0  0  0  0  0  0  0
   21.0099  -24.3300  -16.7176 N   0  0  0  0  0  0  0  0  0  0  0  0
   21.2342  -20.4247  -13.6246 C   0  0  0  0  0  0  0  0  0  0  0  0
   21.7264  -20.1425  -12.5086 O   0  0  0  0  0  0  0  0  0  0  0  0
   20.0377  -19.8121  -13.9737 O   0  0  0  0  0  0  0  0  0  0  0  0
  1  2  1  0
  3  2  1  0
  3  4  1  6
  5  3  1  0
  5  6  1  1
  7  8  2  0
  7  5  1  0
  9 10  1  0
 10 12  1  0
 11 10  2  0
 12 13  1  0
 14 13  1  6
 14 15  1  0
 15  7  1  0
 16 14  1  0
 16 17  2  0
 18 16  1  0
 19 18  1  0
 19 20  1  1
 20 21  1  0
 21 22  2  0
 21 25  1  0
 22 23  1  0
 23 24  1  0
 25 24  2  0
 26 19  1  0
 27 26  2  0
 28 26  1  0
M  END
$$$$
