IQH.pdb
     RDKit          3D

 28 28  0  0  1  0  0  0  0  0999 V2000
   23.2511  -12.7146  -18.6064 C   0  0  0  0  0  0  0  0  0  0  0  0
   24.1233  -13.8436  -18.1691 C   0  0  0  0  0  0  0  0  0  0  0  0
   23.2891  -15.0580  -17.7975 C   0  0  2  0  0  0  0  0  0  0  0  0
   22.3778  -14.7018  -16.6451 C   0  0  0  0  0  0  0  0  0  0  0  0
   24.1714  -16.2109  -17.4029 C   0  0  2  0  0  0  0  0  0  0  0  0
   25.0138  -16.6114  -18.5262 N   0  0  0  0  0  0  0  0  0  0  0  0
   23.2866  -17.4012  -17.1391 C   0  0  0  0  0  0  0  0  0  0  0  0
   22.5709  -17.8336  -18.1046 O   0  0  0  0  0  0  0  0  0  0  0  0
   24.3178  -22.5747  -14.3453 N   0  0  0  0  0  0  0  0  0  0  0  0
   25.1485  -21.4572  -14.6403 C   0  0  0  0  0  0  0  0  0  0  0  0
   26.3822  -21.5837  -14.5077 O   0  0  0  0  0  0  0  0  0  0  0  0
   24.4878  -20.2168  -15.0891 C   0  0  0  0  0  0  0  0  0  0  0  0
   22.9855  -20.3558  -15.1613 C   0  0  0  0  0  0  0  0  0  0  0  0
   22.3593  -19.0749  -15.5207 C   0  0  2  0  0  0  0  0  0  0  0  0
   23.2544  -18.0162  -15.8825 N   0  0  0  0  0  0  0  0  0  0  0  0
   21.1938  -18.6559  -14.6877 C   0  0  0  0  0  0  0  0  0  0  0  0
   21.3950  -18.0172  -13.6426 O   0  0  0  0  0  0  0  0  0  0  0  0
   19.8480  -18.9408  -15.0128 N   0  0  0  0  0  0  0  0  0  0  0  0
   18.7553  -18.4912  -14.1326 C   0  0  1  0  0  0  0  0  0  0  0  0
   18.3604  -17.0705  -14.4982 C   0  0  0  0  0  0  0  0  0  0  0  0
   17.2311  -16.6717  -13.6225 C   0  0  0  0  0  0  0  0  0  0  0  0
   17.3378  -15.9943  -12.3975 C   0  0  0  0  0  0  0  0  0  0  0  0
   16.1112  -15.8067  -11.8949 N   0  0  0  0  0  0  0  0  0  0  0  0
   15.2267  -16.3363  -12.7484 C   0  0  0  0  0  0  0  0  0  0  0  0
   15.9058  -16.8550  -13.7855 N   0  0  0  0  0  0  0  0  0  0  0  0
   17.6187  -19.4402  -14.2046 C   0  0  0  0  0  0  0  0  0  0  0  0
   16.6909  -19.4967  -13.3660 O   0  0  0  0  0  0  0  0  0  0  0  0
   17.5762  -20.3276  -15.2721 O   0  0  0  0  0  0  0  0  0  0  0  0
  1  2  1  0
  3  2  1  0
  3  4  1  1
  5  3  1  0
  5  6  1  6
  7  8  2  0
  7  5  1  0
  9 10  1  0
 10 12  1  0
 11 10  2  0
 12 13  1  0
 14 13  1  1
 14 15  1  0
 15  7  1  0
 16 14  1  0
 16 17  2  0
 18 16  1  0
 19 18  1  0
 19 20  1  6
 20 21  1  0
 21 22  2  0
 21 25  1  0
 22 23  1  0
 23 24  1  0
 25 24  2  0
 26 19  1  0
 27 26  2  0
 28 26  1  0
M  END
$$$$
