IQH.pdb
     RDKit          3D

 28 28  0  0  1  0  0  0  0  0999 V2000
   35.1468   -5.6082   -4.1510 C   0  0  0  0  0  0  0  0  0  0  0  0
   35.6909   -4.5717   -5.0763 C   0  0  0  0  0  0  0  0  0  0  0  0
   36.7257   -5.1730   -6.0125 C   0  0  2  0  0  0  0  0  0  0  0  0
   37.8355   -5.7933   -5.1947 C   0  0  0  0  0  0  0  0  0  0  0  0
   37.2990   -4.1199   -6.9210 C   0  0  2  0  0  0  0  0  0  0  0  0
   36.2275   -3.3258   -7.5151 N   0  0  0  0  0  0  0  0  0  0  0  0
   37.9531   -4.8189   -8.0842 C   0  0  0  0  0  0  0  0  0  0  0  0
   39.1139   -5.3187   -7.8990 O   0  0  0  0  0  0  0  0  0  0  0  0
   35.2808   -7.2850  -13.2814 N   0  0  0  0  0  0  0  0  0  0  0  0
   36.6732   -7.4873  -13.4965 C   0  0  0  0  0  0  0  0  0  0  0  0
   37.0278   -8.1973  -14.4588 O   0  0  0  0  0  0  0  0  0  0  0  0
   37.6090   -6.8355  -12.5606 C   0  0  0  0  0  0  0  0  0  0  0  0
   36.8981   -6.1343  -11.4273 C   0  0  0  0  0  0  0  0  0  0  0  0
   37.8650   -5.5720  -10.4729 C   0  0  2  0  0  0  0  0  0  0  0  0
   37.3095   -4.9232   -9.3224 N   0  0  0  0  0  0  0  0  0  0  0  0
   39.0543   -4.8919  -11.0651 C   0  0  0  0  0  0  0  0  0  0  0  0
   38.9854   -3.6840  -11.3424 O   0  0  0  0  0  0  0  0  0  0  0  0
   40.2803   -5.5406  -11.3377 N   0  0  0  0  0  0  0  0  0  0  0  0
   41.3900   -4.8061  -11.9702 C   0  0  1  0  0  0  0  0  0  0  0  0
   42.7141   -5.3897  -11.5078 C   0  0  0  0  0  0  0  0  0  0  0  0
   43.0031   -4.8496  -10.1564 C   0  0  0  0  0  0  0  0  0  0  0  0
   42.2183   -3.9203   -9.4555 C   0  0  0  0  0  0  0  0  0  0  0  0
   42.7922   -3.6699   -8.2721 N   0  0  0  0  0  0  0  0  0  0  0  0
   43.9103   -4.4009   -8.1893 C   0  0  0  0  0  0  0  0  0  0  0  0
   44.0321   -5.1084   -9.3253 N   0  0  0  0  0  0  0  0  0  0  0  0
   41.2381   -4.8229  -13.4447 C   0  0  0  0  0  0  0  0  0  0  0  0
   40.2980   -5.3838  -14.0520 O   0  0  0  0  0  0  0  0  0  0  0  0
   42.2007   -4.1743  -14.2073 O   0  0  0  0  0  0  0  0  0  0  0  0
  1  2  1  0
  3  2  1  0
  3  4  1  1
  5  3  1  0
  5  6  1  6
  7  8  2  0
  7  5  1  0
  9 10  1  0
 10 12  1  0
 11 10  2  0
 12 13  1  0
 14 13  1  6
 14 15  1  0
 15  7  1  0
 16 14  1  0
 16 17  2  0
 18 16  1  0
 19 18  1  0
 19 20  1  6
 20 21  1  0
 21 22  2  0
 21 25  1  0
 22 23  1  0
 23 24  1  0
 25 24  2  0
 26 19  1  0
 27 26  2  0
 28 26  1  0
M  END
$$$$
