IQH.pdb
     RDKit          3D

 28 28  0  0  1  0  0  0  0  0999 V2000
   27.6079  -19.9623   -6.9080 C   0  0  0  0  0  0  0  0  0  0  0  0
   27.7722  -20.8898   -8.0654 C   0  0  0  0  0  0  0  0  0  0  0  0
   26.7391  -20.5994   -9.1411 C   0  0  2  0  0  0  0  0  0  0  0  0
   25.3562  -20.8463   -8.5824 C   0  0  0  0  0  0  0  0  0  0  0  0
   26.9595  -21.4766  -10.3433 C   0  0  2  0  0  0  0  0  0  0  0  0
   28.3364  -21.3547  -10.8134 N   0  0  0  0  0  0  0  0  0  0  0  0
   26.1169  -20.9377  -11.4698 C   0  0  0  0  0  0  0  0  0  0  0  0
   26.3161  -19.7297  -11.8338 O   0  0  0  0  0  0  0  0  0  0  0  0
   25.3806  -20.3121  -16.1985 N   0  0  0  0  0  0  0  0  0  0  0  0
   26.2978  -21.3138  -15.7724 C   0  0  0  0  0  0  0  0  0  0  0  0
   27.4621  -21.2803  -16.2184 O   0  0  0  0  0  0  0  0  0  0  0  0
   25.8048  -22.3291  -14.8223 C   0  0  0  0  0  0  0  0  0  0  0  0
   24.3724  -22.0866  -14.4090 C   0  0  0  0  0  0  0  0  0  0  0  0
   24.3130  -21.2927  -13.1728 C   0  0  2  0  0  0  0  0  0  0  0  0
   25.1542  -21.7340  -12.1001 N   0  0  0  0  0  0  0  0  0  0  0  0
   22.9586  -20.8230  -12.7572 C   0  0  0  0  0  0  0  0  0  0  0  0
   22.8106  -20.3222  -11.6312 O   0  0  0  0  0  0  0  0  0  0  0  0
   21.8080  -20.9097  -13.5737 N   0  0  0  0  0  0  0  0  0  0  0  0
   20.7455  -19.8933  -13.4781 C   0  0  1  0  0  0  0  0  0  0  0  0
   21.3258  -18.5221  -13.7794 C   0  0  0  0  0  0  0  0  0  0  0  0
   20.2328  -17.5268  -13.6521 C   0  0  0  0  0  0  0  0  0  0  0  0
   18.9459  -17.7761  -13.1496 C   0  0  0  0  0  0  0  0  0  0  0  0
   18.2357  -16.6417  -13.1880 N   0  0  0  0  0  0  0  0  0  0  0  0
   19.0163  -15.6795  -13.6941 C   0  0  0  0  0  0  0  0  0  0  0  0
   20.2162  -16.2174  -13.9713 N   0  0  0  0  0  0  0  0  0  0  0  0
   19.6174  -20.2489  -14.3718 C   0  0  0  0  0  0  0  0  0  0  0  0
   19.7468  -20.6132  -15.5625 O   0  0  0  0  0  0  0  0  0  0  0  0
   18.3293  -20.1745  -13.8579 O   0  0  0  0  0  0  0  0  0  0  0  0
  1  2  1  0
  3  2  1  0
  3  4  1  1
  5  3  1  0
  5  6  1  6
  7  8  2  0
  7  5  1  0
  9 10  1  0
 10 12  1  0
 11 10  2  0
 12 13  1  0
 14 13  1  6
 14 15  1  0
 15  7  1  0
 16 14  1  0
 16 17  2  0
 18 16  1  0
 19 18  1  0
 19 20  1  6
 20 21  1  0
 21 22  2  0
 21 25  1  0
 22 23  1  0
 23 24  1  0
 25 24  2  0
 26 19  1  0
 27 26  2  0
 28 26  1  0
M  END
$$$$
