IQH.pdb
     RDKit          3D

 28 28  0  0  1  0  0  0  0  0999 V2000
   25.6852  -23.7365  -19.9059 C   0  0  0  0  0  0  0  0  0  0  0  0
   26.4022  -23.9714  -18.6185 C   0  0  0  0  0  0  0  0  0  0  0  0
   25.5492  -23.5378  -17.4382 C   0  0  2  0  0  0  0  0  0  0  0  0
   25.2249  -22.0674  -17.5723 C   0  0  0  0  0  0  0  0  0  0  0  0
   26.2724  -23.7769  -16.1409 C   0  0  2  0  0  0  0  0  0  0  0  0
   26.5049  -25.2052  -15.9466 N   0  0  0  0  0  0  0  0  0  0  0  0
   25.3510  -23.3785  -15.0176 C   0  0  0  0  0  0  0  0  0  0  0  0
   24.2204  -23.9677  -14.9408 O   0  0  0  0  0  0  0  0  0  0  0  0
   26.5810  -20.6322   -9.4526 N   0  0  0  0  0  0  0  0  0  0  0  0
   25.1595  -20.6026   -9.5200 C   0  0  0  0  0  0  0  0  0  0  0  0
   24.5252  -20.2376   -8.5100 O   0  0  0  0  0  0  0  0  0  0  0  0
   24.5292  -21.0061  -10.7915 C   0  0  0  0  0  0  0  0  0  0  0  0
   25.5396  -21.4561  -11.8200 C   0  0  0  0  0  0  0  0  0  0  0  0
   24.8690  -21.9036  -13.0497 C   0  0  2  0  0  0  0  0  0  0  0  0
   25.7228  -22.4019  -14.0868 N   0  0  0  0  0  0  0  0  0  0  0  0
   23.7315  -21.0608  -13.5226 C   0  0  0  0  0  0  0  0  0  0  0  0
   23.9626  -19.9234  -13.9623 O   0  0  0  0  0  0  0  0  0  0  0  0
   22.3805  -21.4762  -13.5049 N   0  0  0  0  0  0  0  0  0  0  0  0
   21.3102  -20.5564  -13.9284 C   0  0  1  0  0  0  0  0  0  0  0  0
   20.0121  -21.3284  -14.0915 C   0  0  0  0  0  0  0  0  0  0  0  0
   20.0609  -22.0314  -15.3972 C   0  0  0  0  0  0  0  0  0  0  0  0
   21.0782  -21.9158  -16.3576 C   0  0  0  0  0  0  0  0  0  0  0  0
   20.7805  -22.6961  -17.4040 N   0  0  0  0  0  0  0  0  0  0  0  0
   19.6155  -23.3045  -17.1507 C   0  0  0  0  0  0  0  0  0  0  0  0
   19.1874  -22.9010  -15.9426 N   0  0  0  0  0  0  0  0  0  0  0  0
   21.1938  -19.4325  -12.9687 C   0  0  0  0  0  0  0  0  0  0  0  0
   21.3932  -19.5318  -11.7367 O   0  0  0  0  0  0  0  0  0  0  0  0
   20.8404  -18.1845  -13.4649 O   0  0  0  0  0  0  0  0  0  0  0  0
  1  2  1  0
  3  2  1  0
  3  4  1  6
  5  3  1  0
  5  6  1  1
  7  8  2  0
  7  5  1  0
  9 10  1  0
 10 12  1  0
 11 10  2  0
 12 13  1  0
 14 13  1  1
 14 15  1  0
 15  7  1  0
 16 14  1  0
 16 17  2  0
 18 16  1  0
 19 18  1  0
 19 20  1  1
 20 21  1  0
 21 22  2  0
 21 25  1  0
 22 23  1  0
 23 24  1  0
 25 24  2  0
 26 19  1  0
 27 26  2  0
 28 26  1  0
M  END
$$$$
