IQH.pdb
     RDKit          3D

 28 28  0  0  1  0  0  0  0  0999 V2000
   14.7197  -12.8048  -15.1465 C   0  0  0  0  0  0  0  0  0  0  0  0
   15.8642  -12.0101  -15.6805 C   0  0  0  0  0  0  0  0  0  0  0  0
   16.5794  -11.2735  -14.5604 C   0  0  2  0  0  0  0  0  0  0  0  0
   15.5991  -10.3604  -13.8600 C   0  0  0  0  0  0  0  0  0  0  0  0
   17.7242  -10.4613  -15.1018 C   0  0  2  0  0  0  0  0  0  0  0  0
   18.7185  -11.3353  -15.7175 N   0  0  0  0  0  0  0  0  0  0  0  0
   18.4353   -9.8286  -13.9341 C   0  0  0  0  0  0  0  0  0  0  0  0
   19.6564  -10.1488  -13.7392 O   0  0  0  0  0  0  0  0  0  0  0  0
   21.7909   -6.0157  -14.0319 N   0  0  0  0  0  0  0  0  0  0  0  0
   21.4568   -5.6348  -12.7018 C   0  0  0  0  0  0  0  0  0  0  0  0
   22.1588   -4.7717  -12.1379 O   0  0  0  0  0  0  0  0  0  0  0  0
   20.2919   -6.2904  -12.0775 C   0  0  0  0  0  0  0  0  0  0  0  0
   19.6466   -7.3096  -12.9865 C   0  0  0  0  0  0  0  0  0  0  0  0
   18.4412   -7.8759  -12.3633 C   0  0  2  0  0  0  0  0  0  0  0  0
   17.7836   -8.9171  -13.0959 N   0  0  0  0  0  0  0  0  0  0  0  0
   17.5270   -6.9031  -11.6956 C   0  0  0  0  0  0  0  0  0  0  0  0
   16.9229   -6.0676  -12.3866 O   0  0  0  0  0  0  0  0  0  0  0  0
   17.2955   -6.8662  -10.3017 N   0  0  0  0  0  0  0  0  0  0  0  0
   16.3534   -5.8904   -9.7261 C   0  0  1  0  0  0  0  0  0  0  0  0
   15.7366   -6.4645   -8.4622 C   0  0  0  0  0  0  0  0  0  0  0  0
   14.7975   -7.5414   -8.8620 C   0  0  0  0  0  0  0  0  0  0  0  0
   14.4557   -7.8898  -10.1782 C   0  0  0  0  0  0  0  0  0  0  0  0
   13.5833   -8.9049  -10.1479 N   0  0  0  0  0  0  0  0  0  0  0  0
   13.3545   -9.2183   -8.8669 C   0  0  0  0  0  0  0  0  0  0  0  0
   14.0873   -8.3951   -8.0981 N   0  0  0  0  0  0  0  0  0  0  0  0
   17.0377   -4.5958   -9.4949 C   0  0  0  0  0  0  0  0  0  0  0  0
   18.2528   -4.3896   -9.7143 O   0  0  0  0  0  0  0  0  0  0  0  0
   16.2842   -3.5383   -9.0021 O   0  0  0  0  0  0  0  0  0  0  0  0
  1  2  1  0
  3  2  1  0
  3  4  1  6
  5  3  1  0
  5  6  1  1
  7  8  2  0
  7  5  1  0
  9 10  1  0
 10 12  1  0
 11 10  2  0
 12 13  1  0
 14 13  1  6
 14 15  1  0
 15  7  1  0
 16 14  1  0
 16 17  2  0
 18 16  1  0
 19 18  1  0
 19 20  1  1
 20 21  1  0
 21 22  2  0
 21 25  1  0
 22 23  1  0
 23 24  1  0
 25 24  2  0
 26 19  1  0
 27 26  2  0
 28 26  1  0
M  END
$$$$
