IQH.pdb
     RDKit          3D

 28 28  0  0  1  0  0  0  0  0999 V2000
   21.5039  -13.7844  -20.1799 C   0  0  0  0  0  0  0  0  0  0  0  0
   20.5766  -13.1175  -19.2197 C   0  0  0  0  0  0  0  0  0  0  0  0
   21.1430  -11.7851  -18.7586 C   0  0  2  0  0  0  0  0  0  0  0  0
   22.4509  -12.0230  -18.0387 C   0  0  0  0  0  0  0  0  0  0  0  0
   20.1812  -11.0871  -17.8361 C   0  0  2  0  0  0  0  0  0  0  0  0
   18.8778  -10.9433  -18.4782 N   0  0  0  0  0  0  0  0  0  0  0  0
   20.6722   -9.6768  -17.6372 C   0  0  0  0  0  0  0  0  0  0  0  0
   21.7755   -9.5154  -17.0142 O   0  0  0  0  0  0  0  0  0  0  0  0
   19.0469   -3.9702  -20.1058 N   0  0  0  0  0  0  0  0  0  0  0  0
   18.0273   -4.8755  -19.6973 C   0  0  0  0  0  0  0  0  0  0  0  0
   16.8368   -4.5344  -19.8460 O   0  0  0  0  0  0  0  0  0  0  0  0
   18.4523   -6.1669  -19.1243 C   0  0  0  0  0  0  0  0  0  0  0  0
   19.9552   -6.3057  -19.0642 C   0  0  0  0  0  0  0  0  0  0  0  0
   20.3525   -7.2148  -17.9790 C   0  0  2  0  0  0  0  0  0  0  0  0
   19.9489   -8.5820  -18.1234 N   0  0  0  0  0  0  0  0  0  0  0  0
   20.2460   -6.6709  -16.5931 C   0  0  0  0  0  0  0  0  0  0  0  0
   19.2741   -6.9904  -15.8904 O   0  0  0  0  0  0  0  0  0  0  0  0
   21.1950   -5.7992  -16.0120 N   0  0  0  0  0  0  0  0  0  0  0  0
   21.2917   -5.6689  -14.5476 C   0  0  1  0  0  0  0  0  0  0  0  0
   21.6471   -7.0152  -13.9403 C   0  0  0  0  0  0  0  0  0  0  0  0
   20.4205   -7.5732  -13.3195 C   0  0  0  0  0  0  0  0  0  0  0  0
   19.1747   -6.9316  -13.2353 C   0  0  0  0  0  0  0  0  0  0  0  0
   18.3096   -7.7397  -12.6100 N   0  0  0  0  0  0  0  0  0  0  0  0
   18.9520   -8.8700  -12.2919 C   0  0  0  0  0  0  0  0  0  0  0  0
   20.2210   -8.7643  -12.7211 N   0  0  0  0  0  0  0  0  0  0  0  0
   22.2609   -4.6046  -14.1929 C   0  0  0  0  0  0  0  0  0  0  0  0
   23.2888   -4.3357  -14.8549 O   0  0  0  0  0  0  0  0  0  0  0  0
   22.0160   -3.8532  -13.0509 O   0  0  0  0  0  0  0  0  0  0  0  0
  1  2  1  0
  3  2  1  0
  3  4  1  1
  5  3  1  0
  5  6  1  6
  7  8  2  0
  7  5  1  0
  9 10  1  0
 10 12  1  0
 11 10  2  0
 12 13  1  0
 14 13  1  6
 14 15  1  0
 15  7  1  0
 16 14  1  0
 16 17  2  0
 18 16  1  0
 19 18  1  0
 19 20  1  1
 20 21  1  0
 21 22  2  0
 21 25  1  0
 22 23  1  0
 23 24  1  0
 25 24  2  0
 26 19  1  0
 27 26  2  0
 28 26  1  0
M  END
$$$$
