IQH.pdb
     RDKit          3D

 28 28  0  0  1  0  0  0  0  0999 V2000
   29.3473  -12.0341  -16.5228 C   0  0  0  0  0  0  0  0  0  0  0  0
   28.1473  -12.8542  -16.1849 C   0  0  0  0  0  0  0  0  0  0  0  0
   26.8706  -12.0619  -16.4107 C   0  0  2  0  0  0  0  0  0  0  0  0
   26.7929  -10.9439  -15.3961 C   0  0  0  0  0  0  0  0  0  0  0  0
   25.6622  -12.9478  -16.2761 C   0  0  2  0  0  0  0  0  0  0  0  0
   25.7504  -14.0694  -17.2065 N   0  0  0  0  0  0  0  0  0  0  0  0
   24.4598  -12.1619  -16.7303 C   0  0  0  0  0  0  0  0  0  0  0  0
   24.4848  -11.6674  -17.9077 O   0  0  0  0  0  0  0  0  0  0  0  0
   18.3872  -12.4782  -15.2195 N   0  0  0  0  0  0  0  0  0  0  0  0
   18.4704  -11.2159  -15.8720 C   0  0  0  0  0  0  0  0  0  0  0  0
   17.4107  -10.6121  -16.1330 O   0  0  0  0  0  0  0  0  0  0  0  0
   19.8156  -10.7030  -16.1945 C   0  0  0  0  0  0  0  0  0  0  0  0
   20.9106  -11.6674  -15.8040 C   0  0  0  0  0  0  0  0  0  0  0  0
   22.2281  -11.1508  -16.2033 C   0  0  2  0  0  0  0  0  0  0  0  0
   23.3514  -11.9850  -15.8946 N   0  0  0  0  0  0  0  0  0  0  0  0
   22.4531   -9.6903  -15.9935 C   0  0  0  0  0  0  0  0  0  0  0  0
   23.0852   -9.3124  -14.9944 O   0  0  0  0  0  0  0  0  0  0  0  0
   21.9875   -8.6856  -16.8720 N   0  0  0  0  0  0  0  0  0  0  0  0
   22.2505   -7.2639  -16.5880 C   0  0  1  0  0  0  0  0  0  0  0  0
   23.5089   -6.8247  -17.3169 C   0  0  0  0  0  0  0  0  0  0  0  0
   23.7772   -5.4118  -16.9520 C   0  0  0  0  0  0  0  0  0  0  0  0
   23.0890   -4.6666  -15.9815 C   0  0  0  0  0  0  0  0  0  0  0  0
   23.6077   -3.4333  -15.9302 N   0  0  0  0  0  0  0  0  0  0  0  0
   24.5981   -3.3613  -16.8277 C   0  0  0  0  0  0  0  0  0  0  0  0
   24.6955   -4.5539  -17.4392 N   0  0  0  0  0  0  0  0  0  0  0  0
   21.0661   -6.4453  -16.9417 C   0  0  0  0  0  0  0  0  0  0  0  0
   20.2574   -6.7298  -17.8540 O   0  0  0  0  0  0  0  0  0  0  0  0
   20.8345   -5.2847  -16.2151 O   0  0  0  0  0  0  0  0  0  0  0  0
  1  2  1  0
  3  2  1  0
  3  4  1  1
  5  3  1  0
  5  6  1  6
  7  8  2  0
  7  5  1  0
  9 10  1  0
 10 12  1  0
 11 10  2  0
 12 13  1  0
 14 13  1  1
 14 15  1  0
 15  7  1  0
 16 14  1  0
 16 17  2  0
 18 16  1  0
 19 18  1  0
 19 20  1  6
 20 21  1  0
 21 22  2  0
 21 25  1  0
 22 23  1  0
 23 24  1  0
 25 24  2  0
 26 19  1  0
 27 26  2  0
 28 26  1  0
M  END
$$$$
