GQH.pdb
     RDKit          3D

 24 24  0  0  1  0  0  0  0  0999 V2000
   28.5918  -20.2506  -16.9762 N   0  0  0  0  0  0  0  0  0  0  0  0
   28.0079  -19.4737  -15.9097 C   0  0  0  0  0  0  0  0  0  0  0  0
   27.0687  -20.2638  -15.0861 C   0  0  0  0  0  0  0  0  0  0  0  0
   26.3687  -21.1326  -15.6530 O   0  0  0  0  0  0  0  0  0  0  0  0
   26.5599  -20.4596   -8.7764 N   0  0  0  0  0  0  0  0  0  0  0  0
   25.4357  -21.1952   -9.1976 C   0  0  0  0  0  0  0  0  0  0  0  0
   24.7210  -21.8352   -8.3859 O   0  0  0  0  0  0  0  0  0  0  0  0
   25.0359  -21.2507  -10.6387 C   0  0  0  0  0  0  0  0  0  0  0  0
   26.0546  -20.6359  -11.5181 C   0  0  0  0  0  0  0  0  0  0  0  0
   25.7505  -20.7010  -12.9731 C   0  0  2  0  0  0  0  0  0  0  0  0
   26.9165  -20.0919  -13.6865 N   0  0  0  0  0  0  0  0  0  0  0  0
   24.5279  -19.9881  -13.3701 C   0  0  0  0  0  0  0  0  0  0  0  0
   24.6745  -18.7669  -13.7308 O   0  0  0  0  0  0  0  0  0  0  0  0
   23.2179  -20.5147  -13.4000 N   0  0  0  0  0  0  0  0  0  0  0  0
   22.2090  -19.8706  -14.2724 C   0  0  1  0  0  0  0  0  0  0  0  0
   22.6020  -20.0549  -15.7069 C   0  0  0  0  0  0  0  0  0  0  0  0
   21.6327  -19.4320  -16.6264 C   0  0  0  0  0  0  0  0  0  0  0  0
   21.0210  -18.2055  -16.6381 C   0  0  0  0  0  0  0  0  0  0  0  0
   20.2603  -18.0690  -17.7640 N   0  0  0  0  0  0  0  0  0  0  0  0
   20.4028  -19.1974  -18.4392 C   0  0  0  0  0  0  0  0  0  0  0  0
   21.2144  -20.0340  -17.7919 N   0  0  0  0  0  0  0  0  0  0  0  0
   20.9157  -20.5920  -14.0442 C   0  0  0  0  0  0  0  0  0  0  0  0
   19.7243  -19.8672  -14.1707 O   0  0  0  0  0  0  0  0  0  0  0  0
   20.8289  -21.7948  -13.7485 O   0  0  0  0  0  0  0  0  0  0  0  0
  1  2  1  0
  2  3  1  0
  3 11  1  0
  4  3  2  0
  6  7  2  0
  6  5  1  0
  8  6  1  0
  9  8  1  0
 10  9  1  1
 10 12  1  0
 11 10  1  0
 12 13  2  0
 12 14  1  0
 14 15  1  0
 15 16  1  6
 16 17  1  0
 17 18  2  0
 18 19  1  0
 20 19  1  0
 21 17  1  0
 21 20  2  0
 22 15  1  0
 22 23  1  0
 24 22  2  0
M  END
$$$$
