GQH.pdb
     RDKit          3D

 24 24  0  0  1  0  0  0  0  0999 V2000
   33.4795  -33.4659   -7.3695 N   0  0  0  0  0  0  0  0  0  0  0  0
   33.2653  -34.5830   -6.4818 C   0  0  0  0  0  0  0  0  0  0  0  0
   32.2484  -34.2946   -5.4485 C   0  0  0  0  0  0  0  0  0  0  0  0
   31.8970  -33.1057   -5.2775 O   0  0  0  0  0  0  0  0  0  0  0  0
   27.8265  -33.6275   -2.8513 N   0  0  0  0  0  0  0  0  0  0  0  0
   27.6881  -33.9100   -4.2236 C   0  0  0  0  0  0  0  0  0  0  0  0
   26.8947  -33.2664   -4.9555 O   0  0  0  0  0  0  0  0  0  0  0  0
   28.4826  -34.9952   -4.8799 C   0  0  0  0  0  0  0  0  0  0  0  0
   29.3914  -35.6681   -3.9256 C   0  0  0  0  0  0  0  0  0  0  0  0
   30.6340  -34.9156   -3.6042 C   0  0  2  0  0  0  0  0  0  0  0  0
   31.6477  -35.2921   -4.6388 N   0  0  0  0  0  0  0  0  0  0  0  0
   31.1886  -35.2001   -2.2729 C   0  0  0  0  0  0  0  0  0  0  0  0
   31.6456  -36.3834   -2.0893 O   0  0  0  0  0  0  0  0  0  0  0  0
   31.2736  -34.3020   -1.1864 N   0  0  0  0  0  0  0  0  0  0  0  0
   31.8361  -34.7840    0.0962 C   0  0  1  0  0  0  0  0  0  0  0  0
   32.4344  -33.6297    0.8417 C   0  0  0  0  0  0  0  0  0  0  0  0
   33.7133  -33.1970    0.2499 C   0  0  0  0  0  0  0  0  0  0  0  0
   34.4314  -33.6375   -0.8313 C   0  0  0  0  0  0  0  0  0  0  0  0
   35.5256  -32.8439   -1.0252 N   0  0  0  0  0  0  0  0  0  0  0  0
   35.4817  -31.9239   -0.0758 C   0  0  0  0  0  0  0  0  0  0  0  0
   34.4146  -32.1024    0.7034 N   0  0  0  0  0  0  0  0  0  0  0  0
   30.6885  -35.3166    0.8992 C   0  0  0  0  0  0  0  0  0  0  0  0
   30.9683  -35.9158    2.1334 O   0  0  0  0  0  0  0  0  0  0  0  0
   29.5007  -35.2626    0.5418 O   0  0  0  0  0  0  0  0  0  0  0  0
  1  2  1  0
  2  3  1  0
  3 11  1  0
  4  3  2  0
  6  7  2  0
  6  5  1  0
  8  6  1  0
  9  8  1  0
 10  9  1  6
 10 12  1  0
 11 10  1  0
 12 13  2  0
 12 14  1  0
 14 15  1  0
 15 16  1  1
 16 17  1  0
 17 18  2  0
 18 19  1  0
 20 19  1  0
 21 17  1  0
 21 20  2  0
 22 15  1  0
 22 23  1  0
 24 22  2  0
M  END
$$$$
