GQH.pdb
     RDKit          3D

 24 24  0  0  1  0  0  0  0  0999 V2000
   28.1516  -22.3686  -16.7259 N   0  0  0  0  0  0  0  0  0  0  0  0
   27.6959  -21.1765  -16.0529 C   0  0  0  0  0  0  0  0  0  0  0  0
   26.6877  -21.4677  -15.0119 C   0  0  0  0  0  0  0  0  0  0  0  0
   26.1604  -22.6025  -14.9977 O   0  0  0  0  0  0  0  0  0  0  0  0
   26.3349  -21.4995   -9.5876 N   0  0  0  0  0  0  0  0  0  0  0  0
   24.9982  -21.0591   -9.6224 C   0  0  0  0  0  0  0  0  0  0  0  0
   24.1753  -21.3689   -8.7245 O   0  0  0  0  0  0  0  0  0  0  0  0
   24.4904  -20.1968  -10.7352 C   0  0  0  0  0  0  0  0  0  0  0  0
   25.4873  -20.0502  -11.8187 C   0  0  0  0  0  0  0  0  0  0  0  0
   25.2430  -20.8985  -13.0163 C   0  0  2  0  0  0  0  0  0  0  0  0
   26.2840  -20.5308  -14.0266 N   0  0  0  0  0  0  0  0  0  0  0  0
   23.9146  -20.7261  -13.6215 C   0  0  0  0  0  0  0  0  0  0  0  0
   23.6973  -19.6054  -14.2043 O   0  0  0  0  0  0  0  0  0  0  0  0
   22.8641  -21.6699  -13.6303 N   0  0  0  0  0  0  0  0  0  0  0  0
   21.6110  -21.3370  -14.3464 C   0  0  1  0  0  0  0  0  0  0  0  0
   21.1488  -22.5333  -15.1219 C   0  0  0  0  0  0  0  0  0  0  0  0
   19.9384  -22.2421  -15.9113 C   0  0  0  0  0  0  0  0  0  0  0  0
   19.2250  -21.0915  -16.1256 C   0  0  0  0  0  0  0  0  0  0  0  0
   18.2160  -21.3217  -17.0165 N   0  0  0  0  0  0  0  0  0  0  0  0
   18.3074  -22.5987  -17.3489 C   0  0  0  0  0  0  0  0  0  0  0  0
   19.3231  -23.1799  -16.7099 N   0  0  0  0  0  0  0  0  0  0  0  0
   20.5830  -21.0306  -13.3002 C   0  0  0  0  0  0  0  0  0  0  0  0
   19.4990  -20.2194  -13.6576 O   0  0  0  0  0  0  0  0  0  0  0  0
   20.6282  -21.4490  -12.1321 O   0  0  0  0  0  0  0  0  0  0  0  0
  1  2  1  0
  2  3  1  0
  3 11  1  0
  4  3  2  0
  6  7  2  0
  6  5  1  0
  8  6  1  0
  9  8  1  0
 10  9  1  1
 10 12  1  0
 11 10  1  0
 12 13  2  0
 12 14  1  0
 14 15  1  0
 15 16  1  1
 16 17  1  0
 17 18  2  0
 18 19  1  0
 20 19  1  0
 21 17  1  0
 21 20  2  0
 22 15  1  0
 22 23  1  0
 24 22  2  0
M  END
$$$$
