GQH.pdb
     RDKit          3D

 24 24  0  0  1  0  0  0  0  0999 V2000
   17.9021  -14.7544  -16.2482 N   0  0  0  0  0  0  0  0  0  0  0  0
   18.6937  -13.7255  -16.8779 C   0  0  0  0  0  0  0  0  0  0  0  0
   18.2719  -12.3663  -16.4784 C   0  0  0  0  0  0  0  0  0  0  0  0
   17.9431  -11.5592  -17.3764 O   0  0  0  0  0  0  0  0  0  0  0  0
   16.1450  -10.8536  -10.8770 N   0  0  0  0  0  0  0  0  0  0  0  0
   15.3530  -11.2832  -11.9588 C   0  0  0  0  0  0  0  0  0  0  0  0
   14.2049  -11.7650  -11.7888 O   0  0  0  0  0  0  0  0  0  0  0  0
   15.8424  -11.1864  -13.3698 C   0  0  0  0  0  0  0  0  0  0  0  0
   17.1855  -10.5706  -13.4471 C   0  0  0  0  0  0  0  0  0  0  0  0
   17.7812  -10.5309  -14.8099 C   0  0  2  0  0  0  0  0  0  0  0  0
   18.2191  -11.9253  -15.1314 N   0  0  0  0  0  0  0  0  0  0  0  0
   18.9353   -9.6302  -14.9418 C   0  0  0  0  0  0  0  0  0  0  0  0
   20.0644  -10.0930  -14.5498 O   0  0  0  0  0  0  0  0  0  0  0  0
   18.9238   -8.3170  -15.4612 N   0  0  0  0  0  0  0  0  0  0  0  0
   20.2021   -7.5747  -15.5543 C   0  0  1  0  0  0  0  0  0  0  0  0
   20.0787   -6.5002  -16.5917 C   0  0  0  0  0  0  0  0  0  0  0  0
   21.3133   -5.7030  -16.7065 C   0  0  0  0  0  0  0  0  0  0  0  0
   22.5447   -5.9719  -17.2450 C   0  0  0  0  0  0  0  0  0  0  0  0
   23.3389   -4.8629  -17.1820 N   0  0  0  0  0  0  0  0  0  0  0  0
   22.6053   -3.9208  -16.6130 C   0  0  0  0  0  0  0  0  0  0  0  0
   21.3912   -4.3849  -16.3160 N   0  0  0  0  0  0  0  0  0  0  0  0
   20.4198   -6.9195  -14.2243 C   0  0  0  0  0  0  0  0  0  0  0  0
   21.7360   -6.6537  -13.8271 O   0  0  0  0  0  0  0  0  0  0  0  0
   19.5075   -6.5954  -13.4470 O   0  0  0  0  0  0  0  0  0  0  0  0
  1  2  1  0
  2  3  1  0
  3 11  1  0
  4  3  2  0
  6  7  2  0
  6  5  1  0
  8  6  1  0
  9  8  1  0
 10  9  1  1
 10 12  1  0
 11 10  1  0
 12 13  2  0
 12 14  1  0
 14 15  1  0
 15 16  1  6
 16 17  1  0
 17 18  2  0
 18 19  1  0
 20 19  1  0
 21 17  1  0
 21 20  2  0
 22 15  1  0
 22 23  1  0
 24 22  2  0
M  END
$$$$
