GQH.pdb
     RDKit          3D

 24 24  0  0  1  0  0  0  0  0999 V2000
   20.8458  -12.7103  -19.4616 N   0  0  0  0  0  0  0  0  0  0  0  0
   19.4757  -13.0433  -19.1552 C   0  0  0  0  0  0  0  0  0  0  0  0
   18.7737  -11.9489  -18.4522 C   0  0  0  0  0  0  0  0  0  0  0  0
   18.1135  -11.1332  -19.1340 O   0  0  0  0  0  0  0  0  0  0  0  0
   15.0547   -9.9791  -14.1544 N   0  0  0  0  0  0  0  0  0  0  0  0
   14.8644  -11.0684  -15.0257 C   0  0  0  0  0  0  0  0  0  0  0  0
   13.7168  -11.4791  -15.3317 O   0  0  0  0  0  0  0  0  0  0  0  0
   16.0248  -11.7932  -15.6323 C   0  0  0  0  0  0  0  0  0  0  0  0
   17.3163  -11.1693  -15.2687 C   0  0  0  0  0  0  0  0  0  0  0  0
   18.0923  -10.6189  -16.4125 C   0  0  2  0  0  0  0  0  0  0  0  0
   18.8066  -11.7716  -17.0454 N   0  0  0  0  0  0  0  0  0  0  0  0
   19.0808   -9.5969  -16.0395 C   0  0  0  0  0  0  0  0  0  0  0  0
   20.1496  -10.0207  -15.4732 O   0  0  0  0  0  0  0  0  0  0  0  0
   18.9727   -8.2045  -16.2490 N   0  0  0  0  0  0  0  0  0  0  0  0
   20.1125   -7.3355  -15.8754 C   0  0  1  0  0  0  0  0  0  0  0  0
   19.8931   -5.9612  -16.4315 C   0  0  0  0  0  0  0  0  0  0  0  0
   20.9901   -5.0430  -16.0757 C   0  0  0  0  0  0  0  0  0  0  0  0
   22.2305   -4.8258  -16.6169 C   0  0  0  0  0  0  0  0  0  0  0  0
   22.8512   -3.7936  -15.9733 N   0  0  0  0  0  0  0  0  0  0  0  0
   22.0027   -3.3782  -15.0476 C   0  0  0  0  0  0  0  0  0  0  0  0
   20.8817   -4.0994  -15.0789 N   0  0  0  0  0  0  0  0  0  0  0  0
   20.1131   -7.2416  -14.3800 C   0  0  0  0  0  0  0  0  0  0  0  0
   21.3440   -7.0968  -13.7282 O   0  0  0  0  0  0  0  0  0  0  0  0
   19.0910   -7.2844  -13.6764 O   0  0  0  0  0  0  0  0  0  0  0  0
  1  2  1  0
  2  3  1  0
  3 11  1  0
  4  3  2  0
  6  7  2  0
  6  5  1  0
  8  6  1  0
  9  8  1  0
 10  9  1  1
 10 12  1  0
 11 10  1  0
 12 13  2  0
 12 14  1  0
 14 15  1  0
 15 16  1  6
 16 17  1  0
 17 18  2  0
 18 19  1  0
 20 19  1  0
 21 17  1  0
 21 20  2  0
 22 15  1  0
 22 23  1  0
 24 22  2  0
M  END
$$$$
