GQH.pdb
     RDKit          3D

 24 24  0  0  1  0  0  0  0  0999 V2000
   28.4668  -21.2269  -16.0756 N   0  0  0  0  0  0  0  0  0  0  0  0
   27.8058  -20.2701  -15.2214 C   0  0  0  0  0  0  0  0  0  0  0  0
   26.6877  -20.8700  -14.4632 C   0  0  0  0  0  0  0  0  0  0  0  0
   26.0196  -21.7765  -15.0089 O   0  0  0  0  0  0  0  0  0  0  0  0
   25.5405  -20.3771   -8.2628 N   0  0  0  0  0  0  0  0  0  0  0  0
   26.6642  -20.8691   -8.9536 C   0  0  0  0  0  0  0  0  0  0  0  0
   27.7682  -21.0477   -8.3804 O   0  0  0  0  0  0  0  0  0  0  0  0
   26.5980  -21.2047  -10.4106 C   0  0  0  0  0  0  0  0  0  0  0  0
   25.3041  -20.8094  -11.0097 C   0  0  0  0  0  0  0  0  0  0  0  0
   25.1644  -21.1123  -12.4596 C   0  0  2  0  0  0  0  0  0  0  0  0
   26.3294  -20.4745  -13.1491 N   0  0  0  0  0  0  0  0  0  0  0  0
   23.9230  -20.6119  -13.0673 C   0  0  0  0  0  0  0  0  0  0  0  0
   23.8777  -19.3547  -13.3129 O   0  0  0  0  0  0  0  0  0  0  0  0
   22.7862  -21.3757  -13.4116 N   0  0  0  0  0  0  0  0  0  0  0  0
   21.6628  -20.7094  -14.1100 C   0  0  1  0  0  0  0  0  0  0  0  0
   21.5637  -21.2378  -15.5089 C   0  0  0  0  0  0  0  0  0  0  0  0
   20.4177  -20.6602  -16.2344 C   0  0  0  0  0  0  0  0  0  0  0  0
   19.9683  -19.3743  -16.3860 C   0  0  0  0  0  0  0  0  0  0  0  0
   18.8996  -19.3457  -17.2356 N   0  0  0  0  0  0  0  0  0  0  0  0
   18.6936  -20.5990  -17.6048 C   0  0  0  0  0  0  0  0  0  0  0  0
   19.5800  -21.4112  -17.0281 N   0  0  0  0  0  0  0  0  0  0  0  0
   20.4120  -21.0872  -13.3764 C   0  0  0  0  0  0  0  0  0  0  0  0
   19.3260  -20.2047  -13.4253 O   0  0  0  0  0  0  0  0  0  0  0  0
   20.2733  -22.1347  -12.7244 O   0  0  0  0  0  0  0  0  0  0  0  0
  1  2  1  0
  2  3  1  0
  3 11  1  0
  4  3  2  0
  6  7  2  0
  6  5  1  0
  8  6  1  0
  9  8  1  0
 10  9  1  1
 10 12  1  0
 11 10  1  0
 12 13  2  0
 12 14  1  0
 14 15  1  0
 15 16  1  6
 16 17  1  0
 17 18  2  0
 18 19  1  0
 20 19  1  0
 21 17  1  0
 21 20  2  0
 22 15  1  0
 22 23  1  0
 24 22  2  0
M  END
$$$$
