GQH.pdb
     RDKit          3D

 24 24  0  0  1  0  0  0  0  0999 V2000
   27.0810  -23.9867  -16.0785 N   0  0  0  0  0  0  0  0  0  0  0  0
   26.7374  -22.6267  -15.7404 C   0  0  0  0  0  0  0  0  0  0  0  0
   25.4925  -22.5404  -14.9482 C   0  0  0  0  0  0  0  0  0  0  0  0
   24.5055  -23.2146  -15.3190 O   0  0  0  0  0  0  0  0  0  0  0  0
   24.9792  -21.0405   -8.8506 N   0  0  0  0  0  0  0  0  0  0  0  0
   25.8101  -20.4702   -9.8336 C   0  0  0  0  0  0  0  0  0  0  0  0
   26.8673  -19.8601   -9.5345 O   0  0  0  0  0  0  0  0  0  0  0  0
   25.4730  -20.5634  -11.2888 C   0  0  0  0  0  0  0  0  0  0  0  0
   24.4848  -21.6309  -11.5591 C   0  0  0  0  0  0  0  0  0  0  0  0
   24.0918  -21.7765  -12.9867 C   0  0  2  0  0  0  0  0  0  0  0  0
   25.3541  -21.7346  -13.7894 N   0  0  0  0  0  0  0  0  0  0  0  0
   23.1846  -20.7286  -13.4763 C   0  0  0  0  0  0  0  0  0  0  0  0
   23.6837  -19.5536  -13.5908 O   0  0  0  0  0  0  0  0  0  0  0  0
   21.8289  -20.8895  -13.8374 N   0  0  0  0  0  0  0  0  0  0  0  0
   21.0710  -19.7085  -14.3112 C   0  0  1  0  0  0  0  0  0  0  0  0
   20.6690  -19.9161  -15.7399 C   0  0  0  0  0  0  0  0  0  0  0  0
   21.4612  -19.0807  -16.6605 C   0  0  0  0  0  0  0  0  0  0  0  0
   22.4749  -18.1809  -16.4573 C   0  0  0  0  0  0  0  0  0  0  0  0
   22.9470  -17.7245  -17.6546 N   0  0  0  0  0  0  0  0  0  0  0  0
   22.2340  -18.3370  -18.5851 C   0  0  0  0  0  0  0  0  0  0  0  0
   21.3383  -19.1539  -18.0300 N   0  0  0  0  0  0  0  0  0  0  0  0
   19.8264  -19.6311  -13.4804 C   0  0  0  0  0  0  0  0  0  0  0  0
   18.9836  -18.5267  -13.6553 O   0  0  0  0  0  0  0  0  0  0  0  0
   19.4908  -20.4841  -12.6429 O   0  0  0  0  0  0  0  0  0  0  0  0
  1  2  1  0
  2  3  1  0
  3 11  1  0
  4  3  2  0
  6  7  2  0
  6  5  1  0
  8  6  1  0
  9  8  1  0
 10  9  1  1
 10 12  1  0
 11 10  1  0
 12 13  2  0
 12 14  1  0
 14 15  1  0
 15 16  1  6
 16 17  1  0
 17 18  2  0
 18 19  1  0
 20 19  1  0
 21 17  1  0
 21 20  2  0
 22 15  1  0
 22 23  1  0
 24 22  2  0
M  END
$$$$
