GQH.pdb
     RDKit          3D

 24 24  0  0  1  0  0  0  0  0999 V2000
   18.8080  -11.6097  -16.7944 N   0  0  0  0  0  0  0  0  0  0  0  0
   18.4109  -10.2906  -16.3654 C   0  0  0  0  0  0  0  0  0  0  0  0
   18.9024   -9.9672  -15.0095 C   0  0  0  0  0  0  0  0  0  0  0  0
   18.9629  -10.8888  -14.1650 O   0  0  0  0  0  0  0  0  0  0  0  0
   20.2631   -5.2204  -10.6134 N   0  0  0  0  0  0  0  0  0  0  0  0
   21.1290   -5.6260  -11.6467 C   0  0  0  0  0  0  0  0  0  0  0  0
   21.7126   -4.7944  -12.3864 O   0  0  0  0  0  0  0  0  0  0  0  0
   21.3976   -7.0736  -11.9154 C   0  0  0  0  0  0  0  0  0  0  0  0
   20.8827   -7.4943  -13.2372 C   0  0  0  0  0  0  0  0  0  0  0  0
   19.7048   -8.4022  -13.1928 C   0  0  2  0  0  0  0  0  0  0  0  0
   19.3100   -8.6684  -14.6116 N   0  0  0  0  0  0  0  0  0  0  0  0
   18.5449   -7.8566  -12.4732 C   0  0  0  0  0  0  0  0  0  0  0  0
   17.7890   -7.0609  -13.1352 O   0  0  0  0  0  0  0  0  0  0  0  0
   18.1799   -8.1270  -11.1361 N   0  0  0  0  0  0  0  0  0  0  0  0
   16.9213   -7.5508  -10.6089 C   0  0  1  0  0  0  0  0  0  0  0  0
   16.0900   -8.6416  -10.0048 C   0  0  0  0  0  0  0  0  0  0  0  0
   14.8481   -8.1188   -9.4070 C   0  0  0  0  0  0  0  0  0  0  0  0
   14.3179   -6.8576   -9.3234 C   0  0  0  0  0  0  0  0  0  0  0  0
   13.0846   -6.9026   -8.7391 N   0  0  0  0  0  0  0  0  0  0  0  0
   12.8562   -8.1767   -8.4672 C   0  0  0  0  0  0  0  0  0  0  0  0
   13.8856   -8.9319   -8.8517 N   0  0  0  0  0  0  0  0  0  0  0  0
   17.3053   -6.5960   -9.5198 C   0  0  0  0  0  0  0  0  0  0  0  0
   16.5701   -5.4113   -9.3911 O   0  0  0  0  0  0  0  0  0  0  0  0
   18.2362   -6.7853   -8.7203 O   0  0  0  0  0  0  0  0  0  0  0  0
  1  2  1  0
  2  3  1  0
  3 11  1  0
  4  3  2  0
  6  7  2  0
  6  5  1  0
  8  6  1  0
  9  8  1  0
 10  9  1  6
 10 12  1  0
 11 10  1  0
 12 13  2  0
 12 14  1  0
 14 15  1  0
 15 16  1  1
 16 17  1  0
 17 18  2  0
 18 19  1  0
 20 19  1  0
 21 17  1  0
 21 20  2  0
 22 15  1  0
 22 23  1  0
 24 22  2  0
M  END
$$$$
