GQH.pdb
     RDKit          3D

 24 24  0  0  1  0  0  0  0  0999 V2000
   19.4939  -12.1291  -16.4728 N   0  0  0  0  0  0  0  0  0  0  0  0
   19.2805  -10.9188  -17.2288 C   0  0  0  0  0  0  0  0  0  0  0  0
   19.4999   -9.7023  -16.4183 C   0  0  0  0  0  0  0  0  0  0  0  0
   18.7408   -9.4925  -15.4458 O   0  0  0  0  0  0  0  0  0  0  0  0
   21.9949   -7.5134  -12.9716 N   0  0  0  0  0  0  0  0  0  0  0  0
   22.4111   -6.2767  -13.5002 C   0  0  0  0  0  0  0  0  0  0  0  0
   22.7152   -5.3084  -12.7592 O   0  0  0  0  0  0  0  0  0  0  0  0
   22.5121   -6.0546  -14.9768 C   0  0  0  0  0  0  0  0  0  0  0  0
   22.1481   -7.2666  -15.7434 C   0  0  0  0  0  0  0  0  0  0  0  0
   20.6903   -7.5579  -15.8035 C   0  0  2  0  0  0  0  0  0  0  0  0
   20.5247   -8.7580  -16.6821 N   0  0  0  0  0  0  0  0  0  0  0  0
   19.8738   -6.4607  -16.3422 C   0  0  0  0  0  0  0  0  0  0  0  0
   19.9401   -6.2725  -17.6083 O   0  0  0  0  0  0  0  0  0  0  0  0
   19.0240   -5.6043  -15.6083 N   0  0  0  0  0  0  0  0  0  0  0  0
   18.2536   -4.5687  -16.3348 C   0  0  1  0  0  0  0  0  0  0  0  0
   17.0259   -4.2199  -15.5492 C   0  0  0  0  0  0  0  0  0  0  0  0
   16.2169   -3.1883  -16.2234 C   0  0  0  0  0  0  0  0  0  0  0  0
   16.5347   -1.9761  -16.7786 C   0  0  0  0  0  0  0  0  0  0  0  0
   15.4327   -1.4234  -17.3659 N   0  0  0  0  0  0  0  0  0  0  0  0
   14.4476   -2.2855  -17.1765 C   0  0  0  0  0  0  0  0  0  0  0  0
   14.8777   -3.3504  -16.4992 N   0  0  0  0  0  0  0  0  0  0  0  0
   19.1253   -3.3521  -16.4072 C   0  0  0  0  0  0  0  0  0  0  0  0
   18.9817   -2.5019  -17.5105 O   0  0  0  0  0  0  0  0  0  0  0  0
   19.9707   -3.0459  -15.5509 O   0  0  0  0  0  0  0  0  0  0  0  0
  1  2  1  0
  2  3  1  0
  3 11  1  0
  4  3  2  0
  6  7  2  0
  6  5  1  0
  8  6  1  0
  9  8  1  0
 10  9  1  6
 10 12  1  0
 11 10  1  0
 12 13  2  0
 12 14  1  0
 14 15  1  0
 15 16  1  1
 16 17  1  0
 17 18  2  0
 18 19  1  0
 20 19  1  0
 21 17  1  0
 21 20  2  0
 22 15  1  0
 22 23  1  0
 24 22  2  0
M  END
$$$$
