GQH.pdb
     RDKit          3D

 24 24  0  0  1  0  0  0  0  0999 V2000
   20.4970  -15.7003  -16.5722 N   0  0  0  0  0  0  0  0  0  0  0  0
   20.4597  -14.8098  -15.4375 C   0  0  0  0  0  0  0  0  0  0  0  0
   19.9931  -13.4549  -15.7997 C   0  0  0  0  0  0  0  0  0  0  0  0
   20.6344  -12.8183  -16.6655 O   0  0  0  0  0  0  0  0  0  0  0  0
   14.2854  -11.0608  -14.7245 N   0  0  0  0  0  0  0  0  0  0  0  0
   14.6419  -11.8434  -15.8392 C   0  0  0  0  0  0  0  0  0  0  0  0
   13.7764  -12.3787  -16.5766 O   0  0  0  0  0  0  0  0  0  0  0  0
   16.0751  -12.0767  -16.2015 C   0  0  0  0  0  0  0  0  0  0  0  0
   16.9965  -11.3285  -15.3180 C   0  0  0  0  0  0  0  0  0  0  0  0
   18.4393  -11.4654  -15.6544 C   0  0  2  0  0  0  0  0  0  0  0  0
   18.8569  -12.8351  -15.2196 N   0  0  0  0  0  0  0  0  0  0  0  0
   19.3107  -10.4762  -15.0040 C   0  0  0  0  0  0  0  0  0  0  0  0
   19.3818  -10.5359  -13.7256 O   0  0  0  0  0  0  0  0  0  0  0  0
   20.0774   -9.4785  -15.6450 N   0  0  0  0  0  0  0  0  0  0  0  0
   20.8249   -8.5076  -14.8129 C   0  0  1  0  0  0  0  0  0  0  0  0
   22.2490   -8.4485  -15.2762 C   0  0  0  0  0  0  0  0  0  0  0  0
   22.9409   -9.7369  -15.0909 C   0  0  0  0  0  0  0  0  0  0  0  0
   23.3751  -10.6920  -15.9728 C   0  0  0  0  0  0  0  0  0  0  0  0
   24.0458  -11.6779  -15.3071 N   0  0  0  0  0  0  0  0  0  0  0  0
   24.0268  -11.3337  -14.0302 C   0  0  0  0  0  0  0  0  0  0  0  0
   23.3770  -10.1815  -13.8629 N   0  0  0  0  0  0  0  0  0  0  0  0
   20.1997   -7.1660  -15.0464 C   0  0  0  0  0  0  0  0  0  0  0  0
   20.6944   -6.0726  -14.3249 O   0  0  0  0  0  0  0  0  0  0  0  0
   19.2678   -6.9576  -15.8400 O   0  0  0  0  0  0  0  0  0  0  0  0
  1  2  1  0
  2  3  1  0
  3 11  1  0
  4  3  2  0
  6  7  2  0
  6  5  1  0
  8  6  1  0
  9  8  1  0
 10  9  1  1
 10 12  1  0
 11 10  1  0
 12 13  2  0
 12 14  1  0
 14 15  1  0
 15 16  1  6
 16 17  1  0
 17 18  2  0
 18 19  1  0
 20 19  1  0
 21 17  1  0
 21 20  2  0
 22 15  1  0
 22 23  1  0
 24 22  2  0
M  END
$$$$
