GQH.pdb
     RDKit          3D

 24 24  0  0  1  0  0  0  0  0999 V2000
   22.1829  -34.7413  -12.7596 N   0  0  0  0  0  0  0  0  0  0  0  0
   21.8414  -33.7794  -11.7398 C   0  0  0  0  0  0  0  0  0  0  0  0
   22.6771  -33.9213  -10.5289 C   0  0  0  0  0  0  0  0  0  0  0  0
   23.6392  -34.7209  -10.5625 O   0  0  0  0  0  0  0  0  0  0  0  0
   26.2895  -33.3465   -7.5706 N   0  0  0  0  0  0  0  0  0  0  0  0
   26.2537  -32.2610   -8.4665 C   0  0  0  0  0  0  0  0  0  0  0  0
   27.2736  -31.8924   -9.1013 O   0  0  0  0  0  0  0  0  0  0  0  0
   24.9936  -31.4903   -8.7072 C   0  0  0  0  0  0  0  0  0  0  0  0
   23.8824  -31.9696   -7.8558 C   0  0  0  0  0  0  0  0  0  0  0  0
   23.3913  -33.3374   -8.1747 C   0  0  2  0  0  0  0  0  0  0  0  0
   22.4488  -33.2004   -9.3291 N   0  0  0  0  0  0  0  0  0  0  0  0
   22.6902  -34.0039   -7.0679 C   0  0  0  0  0  0  0  0  0  0  0  0
   21.4934  -33.6091   -6.8342 O   0  0  0  0  0  0  0  0  0  0  0  0
   23.1993  -35.0343   -6.2473 N   0  0  0  0  0  0  0  0  0  0  0  0
   22.3531  -35.5572   -5.1500 C   0  0  1  0  0  0  0  0  0  0  0  0
   22.8367  -36.9197   -4.7553 C   0  0  0  0  0  0  0  0  0  0  0  0
   21.9554  -37.5466   -3.7536 C   0  0  0  0  0  0  0  0  0  0  0  0
   20.7203  -37.2098   -3.2641 C   0  0  0  0  0  0  0  0  0  0  0  0
   20.2782  -38.1699   -2.3995 N   0  0  0  0  0  0  0  0  0  0  0  0
   21.2287  -39.0888   -2.3579 C   0  0  0  0  0  0  0  0  0  0  0  0
   22.2445  -38.7514   -3.1531 N   0  0  0  0  0  0  0  0  0  0  0  0
   22.5406  -34.6367   -3.9826 C   0  0  0  0  0  0  0  0  0  0  0  0
   23.5683  -33.6879   -4.0486 O   0  0  0  0  0  0  0  0  0  0  0  0
   21.8432  -34.6592   -2.9556 O   0  0  0  0  0  0  0  0  0  0  0  0
  1  2  1  0
  2  3  1  0
  3 11  1  0
  4  3  2  0
  6  7  2  0
  6  5  1  0
  8  6  1  0
  9  8  1  0
 10  9  1  1
 10 12  1  0
 11 10  1  0
 12 13  2  0
 12 14  1  0
 14 15  1  0
 15 16  1  1
 16 17  1  0
 17 18  2  0
 18 19  1  0
 20 19  1  0
 21 17  1  0
 21 20  2  0
 22 15  1  0
 22 23  1  0
 24 22  2  0
M  END
$$$$
