GQH.pdb
     RDKit          3D

 24 24  0  0  1  0  0  0  0  0999 V2000
   23.0286  -15.0883  -18.2761 N   0  0  0  0  0  0  0  0  0  0  0  0
   22.9249  -14.4078  -17.0080 C   0  0  0  0  0  0  0  0  0  0  0  0
   22.1470  -13.1546  -17.1031 C   0  0  0  0  0  0  0  0  0  0  0  0
   22.4972  -12.3018  -17.9493 O   0  0  0  0  0  0  0  0  0  0  0  0
   16.2863  -12.1926  -15.1079 N   0  0  0  0  0  0  0  0  0  0  0  0
   16.7006  -12.8296  -16.2931 C   0  0  0  0  0  0  0  0  0  0  0  0
   15.9175  -13.5411  -16.9711 O   0  0  0  0  0  0  0  0  0  0  0  0
   18.1000  -12.6897  -16.8049 C   0  0  0  0  0  0  0  0  0  0  0  0
   18.9096  -11.7862  -15.9579 C   0  0  0  0  0  0  0  0  0  0  0  0
   20.3021  -11.5613  -16.4313 C   0  0  2  0  0  0  0  0  0  0  0  0
   21.0239  -12.8643  -16.2871 N   0  0  0  0  0  0  0  0  0  0  0  0
   21.0369  -10.5285  -15.6868 C   0  0  0  0  0  0  0  0  0  0  0  0
   21.4029  -10.8377  -14.4980 O   0  0  0  0  0  0  0  0  0  0  0  0
   21.3832   -9.2408  -16.1519 N   0  0  0  0  0  0  0  0  0  0  0  0
   22.0663   -8.3073  -15.2269 C   0  0  1  0  0  0  0  0  0  0  0  0
   23.3096   -7.7825  -15.8787 C   0  0  0  0  0  0  0  0  0  0  0  0
   24.3157   -8.8418  -16.0755 C   0  0  0  0  0  0  0  0  0  0  0  0
   24.6726   -9.5912  -17.1661 C   0  0  0  0  0  0  0  0  0  0  0  0
   25.7350  -10.3927  -16.8599 N   0  0  0  0  0  0  0  0  0  0  0  0
   26.0306  -10.1391  -15.5959 C   0  0  0  0  0  0  0  0  0  0  0  0
   25.2058   -9.2190  -15.0951 N   0  0  0  0  0  0  0  0  0  0  0  0
   21.1320   -7.1570  -15.0049 C   0  0  0  0  0  0  0  0  0  0  0  0
   19.8918   -7.1791  -15.6547 O   0  0  0  0  0  0  0  0  0  0  0  0
   21.3848   -6.1807  -14.2807 O   0  0  0  0  0  0  0  0  0  0  0  0
  1  2  1  0
  2  3  1  0
  3 11  1  0
  4  3  2  0
  6  7  2  0
  6  5  1  0
  8  6  1  0
  9  8  1  0
 10  9  1  1
 10 12  1  0
 11 10  1  0
 12 13  2  0
 12 14  1  0
 14 15  1  0
 15 16  1  6
 16 17  1  0
 17 18  2  0
 18 19  1  0
 20 19  1  0
 21 17  1  0
 21 20  2  0
 22 15  1  0
 22 23  1  0
 24 22  2  0
M  END
$$$$
