GQH.pdb
     RDKit          3D

 24 24  0  0  1  0  0  0  0  0999 V2000
   25.1599  -34.6058  -11.4498 N   0  0  0  0  0  0  0  0  0  0  0  0
   25.3784  -34.8309  -12.8581 C   0  0  0  0  0  0  0  0  0  0  0  0
   25.6306  -33.5758  -13.5969 C   0  0  0  0  0  0  0  0  0  0  0  0
   25.7467  -32.5154  -12.9426 O   0  0  0  0  0  0  0  0  0  0  0  0
   28.5610  -30.1874  -15.8832 N   0  0  0  0  0  0  0  0  0  0  0  0
   29.1454  -31.4402  -15.6166 C   0  0  0  0  0  0  0  0  0  0  0  0
   30.2431  -31.5440  -15.0135 O   0  0  0  0  0  0  0  0  0  0  0  0
   28.4848  -32.7144  -16.0404 C   0  0  0  0  0  0  0  0  0  0  0  0
   27.1574  -32.4724  -16.6476 C   0  0  0  0  0  0  0  0  0  0  0  0
   26.0619  -32.2046  -15.6771 C   0  0  2  0  0  0  0  0  0  0  0  0
   25.7483  -33.5062  -15.0086 N   0  0  0  0  0  0  0  0  0  0  0  0
   24.8314  -31.6748  -16.2819 C   0  0  0  0  0  0  0  0  0  0  0  0
   24.0394  -32.5361  -16.8050 O   0  0  0  0  0  0  0  0  0  0  0  0
   24.4352  -30.3204  -16.3364 N   0  0  0  0  0  0  0  0  0  0  0  0
   23.1374  -29.9806  -16.9642 C   0  0  1  0  0  0  0  0  0  0  0  0
   22.8834  -28.5110  -16.8168 C   0  0  0  0  0  0  0  0  0  0  0  0
   21.5796  -28.1194  -17.3823 C   0  0  0  0  0  0  0  0  0  0  0  0
   20.5130  -28.8456  -17.8445 C   0  0  0  0  0  0  0  0  0  0  0  0
   19.4896  -28.0108  -18.1916 N   0  0  0  0  0  0  0  0  0  0  0  0
   19.9194  -26.7845  -17.9446 C   0  0  0  0  0  0  0  0  0  0  0  0
   21.1616  -26.8099  -17.4606 N   0  0  0  0  0  0  0  0  0  0  0  0
   23.2691  -30.2896  -18.4245 C   0  0  0  0  0  0  0  0  0  0  0  0
   22.1372  -30.7539  -19.1057 O   0  0  0  0  0  0  0  0  0  0  0  0
   24.3194  -30.1615  -19.0742 O   0  0  0  0  0  0  0  0  0  0  0  0
  1  2  1  0
  2  3  1  0
  3 11  1  0
  4  3  2  0
  6  7  2  0
  6  5  1  0
  8  6  1  0
  9  8  1  0
 10  9  1  6
 10 12  1  0
 11 10  1  0
 12 13  2  0
 12 14  1  0
 14 15  1  0
 15 16  1  6
 16 17  1  0
 17 18  2  0
 18 19  1  0
 20 19  1  0
 21 17  1  0
 21 20  2  0
 22 15  1  0
 22 23  1  0
 24 22  2  0
M  END
$$$$
