GQH.pdb
     RDKit          3D

 24 24  0  0  1  0  0  0  0  0999 V2000
   21.9785  -14.1755  -19.8237 N   0  0  0  0  0  0  0  0  0  0  0  0
   22.4481  -13.4299  -18.6811 C   0  0  0  0  0  0  0  0  0  0  0  0
   21.4422  -12.4674  -18.1843 C   0  0  0  0  0  0  0  0  0  0  0  0
   21.1679  -11.4756  -18.8963 O   0  0  0  0  0  0  0  0  0  0  0  0
   16.3007  -13.2568  -15.5332 N   0  0  0  0  0  0  0  0  0  0  0  0
   16.5009  -11.9824  -14.9693 C   0  0  0  0  0  0  0  0  0  0  0  0
   15.5487  -11.3071  -14.5041 O   0  0  0  0  0  0  0  0  0  0  0  0
   17.8635  -11.3677  -14.8964 C   0  0  0  0  0  0  0  0  0  0  0  0
   18.8962  -12.2423  -15.4946 C   0  0  0  0  0  0  0  0  0  0  0  0
   19.7605  -11.5878  -16.5135 C   0  0  2  0  0  0  0  0  0  0  0  0
   20.7696  -12.6059  -16.9434 N   0  0  0  0  0  0  0  0  0  0  0  0
   20.4691  -10.3934  -16.0315 C   0  0  0  0  0  0  0  0  0  0  0  0
   21.5489  -10.6011  -15.3730 O   0  0  0  0  0  0  0  0  0  0  0  0
   20.0837   -9.0490  -16.2275 N   0  0  0  0  0  0  0  0  0  0  0  0
   20.8905   -7.9764  -15.6013 C   0  0  1  0  0  0  0  0  0  0  0  0
   20.7768   -6.7263  -16.4202 C   0  0  0  0  0  0  0  0  0  0  0  0
   21.4829   -5.5936  -15.7945 C   0  0  0  0  0  0  0  0  0  0  0  0
   21.1610   -4.7591  -14.7560 C   0  0  0  0  0  0  0  0  0  0  0  0
   22.1977   -3.9093  -14.4956 N   0  0  0  0  0  0  0  0  0  0  0  0
   23.1482   -4.2174  -15.3622 C   0  0  0  0  0  0  0  0  0  0  0  0
   22.7580   -5.2176  -16.1529 N   0  0  0  0  0  0  0  0  0  0  0  0
   20.2880   -7.7115  -14.2552 C   0  0  0  0  0  0  0  0  0  0  0  0
   21.1373   -7.2974  -13.2217 O   0  0  0  0  0  0  0  0  0  0  0  0
   19.0807   -7.8356  -13.9930 O   0  0  0  0  0  0  0  0  0  0  0  0
  1  2  1  0
  2  3  1  0
  3 11  1  0
  4  3  2  0
  6  7  2  0
  6  5  1  0
  8  6  1  0
  9  8  1  0
 10  9  1  1
 10 12  1  0
 11 10  1  0
 12 13  2  0
 12 14  1  0
 14 15  1  0
 15 16  1  6
 16 17  1  0
 17 18  2  0
 18 19  1  0
 20 19  1  0
 21 17  1  0
 21 20  2  0
 22 15  1  0
 22 23  1  0
 24 22  2  0
M  END
$$$$
