GQH.pdb
     RDKit          3D

 24 24  0  0  1  0  0  0  0  0999 V2000
   16.5673  -13.0378  -15.9674 N   0  0  0  0  0  0  0  0  0  0  0  0
   16.5368  -11.8093  -16.7236 C   0  0  0  0  0  0  0  0  0  0  0  0
   17.3537  -10.7453  -16.1028 C   0  0  0  0  0  0  0  0  0  0  0  0
   17.0543  -10.3645  -14.9490 O   0  0  0  0  0  0  0  0  0  0  0  0
   21.1472   -9.4275  -13.5634 N   0  0  0  0  0  0  0  0  0  0  0  0
   21.7416   -8.3718  -14.2805 C   0  0  0  0  0  0  0  0  0  0  0  0
   22.4493   -7.5018  -13.7134 O   0  0  0  0  0  0  0  0  0  0  0  0
   21.5586   -8.2339  -15.7595 C   0  0  0  0  0  0  0  0  0  0  0  0
   20.6517   -9.2694  -16.3022 C   0  0  0  0  0  0  0  0  0  0  0  0
   19.2035   -9.0218  -16.0677 C   0  0  2  0  0  0  0  0  0  0  0  0
   18.4600  -10.1309  -16.7434 N   0  0  0  0  0  0  0  0  0  0  0  0
   18.7150   -7.7376  -16.5902 C   0  0  0  0  0  0  0  0  0  0  0  0
   18.6168   -7.6436  -17.8647 O   0  0  0  0  0  0  0  0  0  0  0  0
   18.3389   -6.6077  -15.8311 N   0  0  0  0  0  0  0  0  0  0  0  0
   17.9316   -5.3735  -16.5414 C   0  0  1  0  0  0  0  0  0  0  0  0
   17.0989   -4.5260  -15.6280 C   0  0  0  0  0  0  0  0  0  0  0  0
   15.6992   -4.9857  -15.5763 C   0  0  0  0  0  0  0  0  0  0  0  0
   15.0460   -6.0381  -16.1630 C   0  0  0  0  0  0  0  0  0  0  0  0
   13.7518   -6.0899  -15.7303 N   0  0  0  0  0  0  0  0  0  0  0  0
   13.6093   -5.0822  -14.8854 C   0  0  0  0  0  0  0  0  0  0  0  0
   14.7498   -4.4016  -14.7680 N   0  0  0  0  0  0  0  0  0  0  0  0
   19.1888   -4.6231  -16.8607 C   0  0  0  0  0  0  0  0  0  0  0  0
   19.0761   -3.4097  -17.5503 O   0  0  0  0  0  0  0  0  0  0  0  0
   20.3290   -5.0071  -16.5541 O   0  0  0  0  0  0  0  0  0  0  0  0
  1  2  1  0
  2  3  1  0
  3 11  1  0
  4  3  2  0
  6  7  2  0
  6  5  1  0
  8  6  1  0
  9  8  1  0
 10  9  1  6
 10 12  1  0
 11 10  1  0
 12 13  2  0
 12 14  1  0
 14 15  1  0
 15 16  1  1
 16 17  1  0
 17 18  2  0
 18 19  1  0
 20 19  1  0
 21 17  1  0
 21 20  2  0
 22 15  1  0
 22 23  1  0
 24 22  2  0
M  END
$$$$
