HWY.pdb
     RDKit          3D

 37 40  0  0  1  0  0  0  0  0999 V2000
   28.9910  -22.7609  -17.7871 N   0  0  0  0  0  0  0  0  0  0  0  0
   28.0498  -21.6413  -17.5727 C   0  0  1  0  0  0  0  0  0  0  0  0
   27.0208  -21.7461  -18.6511 C   0  0  0  0  0  0  0  0  0  0  0  0
   27.3541  -21.0013  -19.8652 C   0  0  0  0  0  0  0  0  0  0  0  0
   26.8556  -19.7961  -20.3249 C   0  0  0  0  0  0  0  0  0  0  0  0
   27.4509  -19.5313  -21.4975 N   0  0  0  0  0  0  0  0  0  0  0  0
   28.3048  -20.5206  -21.7962 C   0  0  0  0  0  0  0  0  0  0  0  0
   28.2376  -21.3990  -20.8070 N   0  0  0  0  0  0  0  0  0  0  0  0
   27.4943  -21.8125  -16.2205 C   0  0  0  0  0  0  0  0  0  0  0  0
   27.2324  -22.9915  -15.7893 O   0  0  0  0  0  0  0  0  0  0  0  0
   27.2263  -20.7483  -15.3371 N   0  0  0  0  0  0  0  0  0  0  0  0
   26.7246  -20.9931  -13.9767 C   0  0  1  0  0  0  0  0  0  0  0  0
   27.3251  -19.8824  -13.1121 C   0  0  0  0  0  0  0  0  0  0  0  0
   26.9658  -20.0110  -11.6881 C   0  0  0  0  0  0  0  0  0  0  0  0
   25.7042  -19.6501  -11.1664 C   0  0  0  0  0  0  0  0  0  0  0  0
   25.6667  -19.9091   -9.8647 N   0  0  0  0  0  0  0  0  0  0  0  0
   26.8255  -20.4265   -9.4546 C   0  0  0  0  0  0  0  0  0  0  0  0
   27.2792  -20.8434   -8.2312 C   0  0  0  0  0  0  0  0  0  0  0  0
   28.5659  -21.3440   -8.0784 C   0  0  0  0  0  0  0  0  0  0  0  0
   29.3455  -21.3958   -9.2066 C   0  0  0  0  0  0  0  0  0  0  0  0
   28.9061  -20.9786  -10.4582 C   0  0  0  0  0  0  0  0  0  0  0  0
   27.6309  -20.4885  -10.5872 C   0  0  0  0  0  0  0  0  0  0  0  0
   25.2751  -21.0256  -13.9423 C   0  0  0  0  0  0  0  0  0  0  0  0
   24.6126  -20.2341  -14.6720 O   0  0  0  0  0  0  0  0  0  0  0  0
   16.9065  -22.1188  -11.4144 O   0  0  0  0  0  0  0  0  0  0  0  0
   18.3044  -22.2259  -11.5131 C   0  0  0  0  0  0  0  0  0  0  0  0
   19.1216  -21.4427  -10.7269 C   0  0  0  0  0  0  0  0  0  0  0  0
   20.5071  -21.5201  -10.7959 C   0  0  0  0  0  0  0  0  0  0  0  0
   21.1076  -22.4003  -11.6704 C   0  0  0  0  0  0  0  0  0  0  0  0
   22.5852  -22.5048  -11.7676 C   0  0  0  0  0  0  0  0  0  0  0  0
   23.1089  -21.8072  -13.0326 C   0  0  2  0  0  0  0  0  0  0  0  0
   24.5441  -21.9457  -13.1002 N   0  0  0  0  0  0  0  0  0  0  0  0
   22.6506  -20.4151  -13.0840 C   0  0  0  0  0  0  0  0  0  0  0  0
   21.8734  -20.0533  -13.9966 O   0  0  0  0  0  0  0  0  0  0  0  0
   20.2884  -23.1827  -12.4559 C   0  0  0  0  0  0  0  0  0  0  0  0
   18.9071  -23.1060  -12.3875 C   0  0  0  0  0  0  0  0  0  0  0  0
   23.0492  -19.4732  -12.1502 O   0  0  0  0  0  0  0  0  0  0  0  0
  2  1  1  6
  3  4  1  0
  3  2  1  0
  4  5  2  0
  6  5  1  0
  7  6  1  0
  8  7  2  0
  8  4  1  0
  9  2  1  0
  9 11  1  0
 10  9  2  0
 12 11  1  0
 12 13  1  1
 14 13  1  0
 14 15  2  0
 16 15  1  0
 17 22  2  0
 17 16  1  0
 18 17  1  0
 19 20  1  0
 19 18  2  0
 20 21  2  0
 21 22  1  0
 22 14  1  0
 23 12  1  0
 24 23  2  0
 25 26  1  0
 26 27  2  0
 26 36  1  0
 27 28  1  0
 28 29  2  0
 29 30  1  0
 31 30  1  1
 31 32  1  0
 32 23  1  0
 33 37  1  0
 33 31  1  0
 34 33  2  0
 35 29  1  0
 36 35  2  0
M  END
$$$$
