HWY.pdb
     RDKit          3D

 37 40  0  0  1  0  0  0  0  0999 V2000
   27.9931  -21.1249  -14.6066 N   0  0  0  0  0  0  0  0  0  0  0  0
   27.2747  -20.0154  -13.9444 C   0  0  1  0  0  0  0  0  0  0  0  0
   26.6244  -19.2271  -15.0347 C   0  0  0  0  0  0  0  0  0  0  0  0
   27.5563  -18.4184  -15.8205 C   0  0  0  0  0  0  0  0  0  0  0  0
   28.0916  -17.1733  -15.5456 C   0  0  0  0  0  0  0  0  0  0  0  0
   28.8773  -16.8323  -16.5779 N   0  0  0  0  0  0  0  0  0  0  0  0
   28.8595  -17.8118  -17.4930 C   0  0  0  0  0  0  0  0  0  0  0  0
   28.0614  -18.7603  -17.0262 N   0  0  0  0  0  0  0  0  0  0  0  0
   26.3108  -20.6322  -13.0188 C   0  0  0  0  0  0  0  0  0  0  0  0
   25.7005  -21.7057  -13.3645 O   0  0  0  0  0  0  0  0  0  0  0  0
   26.0039  -20.1201  -11.7427 N   0  0  0  0  0  0  0  0  0  0  0  0
   24.9858  -20.7525  -10.8907 C   0  0  1  0  0  0  0  0  0  0  0  0
   25.3219  -20.3216   -9.4613 C   0  0  0  0  0  0  0  0  0  0  0  0
   26.7284  -20.5810   -9.1036 C   0  0  0  0  0  0  0  0  0  0  0  0
   27.6283  -21.2819   -9.9360 C   0  0  0  0  0  0  0  0  0  0  0  0
   28.8253  -21.3283   -9.3631 N   0  0  0  0  0  0  0  0  0  0  0  0
   28.8075  -20.7028   -8.1853 C   0  0  0  0  0  0  0  0  0  0  0  0
   29.7650  -20.4872   -7.2299 C   0  0  0  0  0  0  0  0  0  0  0  0
   29.4671  -19.7967   -6.0619 C   0  0  0  0  0  0  0  0  0  0  0  0
   28.1772  -19.3497   -5.9219 C   0  0  0  0  0  0  0  0  0  0  0  0
   27.1892  -19.5567   -6.8782 C   0  0  0  0  0  0  0  0  0  0  0  0
   27.5053  -20.2402   -8.0254 C   0  0  0  0  0  0  0  0  0  0  0  0
   23.6448  -20.3821  -11.3005 C   0  0  0  0  0  0  0  0  0  0  0  0
   23.3328  -19.1608  -11.3949 O   0  0  0  0  0  0  0  0  0  0  0  0
   23.3938  -22.9106  -17.7604 O   0  0  0  0  0  0  0  0  0  0  0  0
   22.9348  -22.1821  -16.6496 C   0  0  0  0  0  0  0  0  0  0  0  0
   21.6976  -22.4478  -16.1035 C   0  0  0  0  0  0  0  0  0  0  0  0
   21.2097  -21.7495  -15.0060 C   0  0  0  0  0  0  0  0  0  0  0  0
   21.9678  -20.7546  -14.4269 C   0  0  0  0  0  0  0  0  0  0  0  0
   21.4731  -19.9902  -13.2544 C   0  0  0  0  0  0  0  0  0  0  0  0
   21.3322  -20.8958  -12.0209 C   0  0  2  0  0  0  0  0  0  0  0  0
   22.6356  -21.3675  -11.6181 N   0  0  0  0  0  0  0  0  0  0  0  0
   20.3712  -21.9737  -12.2766 C   0  0  0  0  0  0  0  0  0  0  0  0
   19.1730  -21.6921  -12.5062 O   0  0  0  0  0  0  0  0  0  0  0  0
   23.2050  -20.4904  -14.9746 C   0  0  0  0  0  0  0  0  0  0  0  0
   23.6920  -21.1863  -16.0687 C   0  0  0  0  0  0  0  0  0  0  0  0
   20.7426  -23.3079  -12.2739 O   0  0  0  0  0  0  0  0  0  0  0  0
  2  1  1  6
  3  4  1  0
  3  2  1  0
  4  5  2  0
  6  5  1  0
  7  6  1  0
  8  7  2  0
  8  4  1  0
  9  2  1  0
  9 11  1  0
 10  9  2  0
 12 11  1  0
 12 13  1  1
 14 13  1  0
 14 15  2  0
 16 15  1  0
 17 22  2  0
 17 16  1  0
 18 17  1  0
 19 20  1  0
 19 18  2  0
 20 21  2  0
 21 22  1  0
 22 14  1  0
 23 12  1  0
 24 23  2  0
 25 26  1  0
 26 27  2  0
 26 36  1  0
 27 28  1  0
 28 29  2  0
 29 30  1  0
 31 30  1  6
 31 32  1  0
 32 23  1  0
 33 37  1  0
 33 31  1  0
 34 33  2  0
 35 29  1  0
 36 35  2  0
M  END
$$$$
