HWY.pdb
     RDKit          3D

 37 40  0  0  1  0  0  0  0  0999 V2000
   15.3573  -19.6374    5.6847 N   0  0  0  0  0  0  0  0  0  0  0  0
   15.4385  -18.9349    6.9830 C   0  0  1  0  0  0  0  0  0  0  0  0
   15.5079  -19.9976    8.0312 C   0  0  0  0  0  0  0  0  0  0  0  0
   14.2028  -20.4072    8.5496 C   0  0  0  0  0  0  0  0  0  0  0  0
   13.5018  -19.9363    9.6447 C   0  0  0  0  0  0  0  0  0  0  0  0
   12.3628  -20.6396    9.7308 N   0  0  0  0  0  0  0  0  0  0  0  0
   12.3168  -21.5353    8.7344 C   0  0  0  0  0  0  0  0  0  0  0  0
   13.4291  -21.3860    8.0308 N   0  0  0  0  0  0  0  0  0  0  0  0
   16.6436  -18.0915    6.9295 C   0  0  0  0  0  0  0  0  0  0  0  0
   17.6730  -18.5001    6.2831 O   0  0  0  0  0  0  0  0  0  0  0  0
   16.7521  -16.8305    7.5484 N   0  0  0  0  0  0  0  0  0  0  0  0
   18.0001  -16.0552    7.4882 C   0  0  1  0  0  0  0  0  0  0  0  0
   17.5860  -14.5954    7.6863 C   0  0  0  0  0  0  0  0  0  0  0  0
   18.3444  -13.6662    6.8290 C   0  0  0  0  0  0  0  0  0  0  0  0
   17.8676  -13.1815    5.5914 C   0  0  0  0  0  0  0  0  0  0  0  0
   18.7525  -12.3411    5.0683 N   0  0  0  0  0  0  0  0  0  0  0  0
   19.8121  -12.2158    5.8685 C   0  0  0  0  0  0  0  0  0  0  0  0
   20.9705  -11.4908    5.7745 C   0  0  0  0  0  0  0  0  0  0  0  0
   21.9364  -11.5540    6.7708 C   0  0  0  0  0  0  0  0  0  0  0  0
   21.6678  -12.3728    7.8389 C   0  0  0  0  0  0  0  0  0  0  0  0
   20.4993  -13.1174    7.9555 C   0  0  0  0  0  0  0  0  0  0  0  0
   19.5576  -13.0392    6.9604 C   0  0  0  0  0  0  0  0  0  0  0  0
   18.9608  -16.5168    8.4717 C   0  0  0  0  0  0  0  0  0  0  0  0
   18.5558  -16.9595    9.5842 O   0  0  0  0  0  0  0  0  0  0  0  0
   20.0510  -22.8649    6.9679 O   0  0  0  0  0  0  0  0  0  0  0  0
   20.6098  -21.6488    7.3970 C   0  0  0  0  0  0  0  0  0  0  0  0
   20.9750  -20.6866    6.4804 C   0  0  0  0  0  0  0  0  0  0  0  0
   21.5299  -19.4726    6.8658 C   0  0  0  0  0  0  0  0  0  0  0  0
   21.7318  -19.1978    8.2014 C   0  0  0  0  0  0  0  0  0  0  0  0
   22.3237  -17.9104    8.6440 C   0  0  0  0  0  0  0  0  0  0  0  0
   21.2578  -16.9935    9.2639 C   0  0  2  0  0  0  0  0  0  0  0  0
   20.3854  -16.4985    8.2259 N   0  0  0  0  0  0  0  0  0  0  0  0
   21.8855  -15.9326   10.0584 C   0  0  0  0  0  0  0  0  0  0  0  0
   22.5989  -16.2364   11.0416 O   0  0  0  0  0  0  0  0  0  0  0  0
   21.3659  -20.1616    9.1166 C   0  0  0  0  0  0  0  0  0  0  0  0
   20.8125  -21.3720    8.7329 C   0  0  0  0  0  0  0  0  0  0  0  0
   21.7175  -14.5908    9.7595 O   0  0  0  0  0  0  0  0  0  0  0  0
  2  1  1  6
  3  4  1  0
  3  2  1  0
  4  5  2  0
  6  5  1  0
  7  6  1  0
  8  7  2  0
  8  4  1  0
  9  2  1  0
  9 11  1  0
 10  9  2  0
 12 11  1  0
 12 13  1  1
 14 13  1  0
 14 15  2  0
 16 15  1  0
 17 22  2  0
 17 16  1  0
 18 17  1  0
 19 20  1  0
 19 18  2  0
 20 21  2  0
 21 22  1  0
 22 14  1  0
 23 12  1  0
 24 23  2  0
 25 26  1  0
 26 27  2  0
 26 36  1  0
 27 28  1  0
 28 29  2  0
 29 30  1  0
 31 30  1  6
 31 32  1  0
 32 23  1  0
 33 37  1  0
 33 31  1  0
 34 33  2  0
 35 29  1  0
 36 35  2  0
M  END
$$$$
