HWY.pdb
     RDKit          3D

 37 40  0  0  1  0  0  0  0  0999 V2000
   26.7090  -21.4672  -17.0557 N   0  0  0  0  0  0  0  0  0  0  0  0
   25.7585  -22.3067  -16.2959 C   0  0  1  0  0  0  0  0  0  0  0  0
   26.5602  -22.9990  -15.2419 C   0  0  0  0  0  0  0  0  0  0  0  0
   27.4829  -24.0073  -15.7633 C   0  0  0  0  0  0  0  0  0  0  0  0
   27.2124  -25.2079  -16.3939 C   0  0  0  0  0  0  0  0  0  0  0  0
   28.3863  -25.7970  -16.6663 N   0  0  0  0  0  0  0  0  0  0  0  0
   29.3866  -25.0167  -16.2331 C   0  0  0  0  0  0  0  0  0  0  0  0
   28.8307  -23.9431  -15.6918 N   0  0  0  0  0  0  0  0  0  0  0  0
   24.7398  -21.3968  -15.7476 C   0  0  0  0  0  0  0  0  0  0  0  0
   25.1022  -20.4158  -15.0054 O   0  0  0  0  0  0  0  0  0  0  0  0
   23.3575  -21.5231  -15.9884 N   0  0  0  0  0  0  0  0  0  0  0  0
   22.3988  -20.5353  -15.4711 C   0  0  1  0  0  0  0  0  0  0  0  0
   21.6946  -19.9630  -16.7033 C   0  0  0  0  0  0  0  0  0  0  0  0
   22.4816  -18.9113  -17.3726 C   0  0  0  0  0  0  0  0  0  0  0  0
   23.1639  -19.1057  -18.5936 C   0  0  0  0  0  0  0  0  0  0  0  0
   23.7531  -17.9745  -18.9627 N   0  0  0  0  0  0  0  0  0  0  0  0
   23.5202  -17.0103  -18.0713 C   0  0  0  0  0  0  0  0  0  0  0  0
   23.9059  -15.6981  -17.9953 C   0  0  0  0  0  0  0  0  0  0  0  0
   23.5219  -14.9007  -16.9247 C   0  0  0  0  0  0  0  0  0  0  0  0
   22.7455  -15.4942  -15.9612 C   0  0  0  0  0  0  0  0  0  0  0  0
   22.3420  -16.8237  -16.0176 C   0  0  0  0  0  0  0  0  0  0  0  0
   22.7315  -17.5933  -17.0847 C   0  0  0  0  0  0  0  0  0  0  0  0
   21.4860  -21.1307  -14.5142 C   0  0  0  0  0  0  0  0  0  0  0  0
   21.2141  -22.3628  -14.5899 O   0  0  0  0  0  0  0  0  0  0  0  0
   16.9409  -15.4245  -12.9345 O   0  0  0  0  0  0  0  0  0  0  0  0
   17.6064  -16.5968  -12.5366 C   0  0  0  0  0  0  0  0  0  0  0  0
   18.9836  -16.6444  -12.5149 C   0  0  0  0  0  0  0  0  0  0  0  0
   19.6768  -17.7843  -12.1275 C   0  0  0  0  0  0  0  0  0  0  0  0
   18.9883  -18.9167  -11.7485 C   0  0  0  0  0  0  0  0  0  0  0  0
   19.7009  -20.1502  -11.3309 C   0  0  0  0  0  0  0  0  0  0  0  0
   19.9976  -21.0550  -12.5369 C   0  0  2  0  0  0  0  0  0  0  0  0
   20.8698  -20.3629  -13.4554 N   0  0  0  0  0  0  0  0  0  0  0  0
   18.7515  -21.5243  -13.1516 C   0  0  0  0  0  0  0  0  0  0  0  0
   17.9913  -22.2822  -12.5069 O   0  0  0  0  0  0  0  0  0  0  0  0
   17.6109  -18.8670  -11.7710 C   0  0  0  0  0  0  0  0  0  0  0  0
   16.9192  -17.7308  -12.1570 C   0  0  0  0  0  0  0  0  0  0  0  0
   18.3783  -21.1567  -14.4336 O   0  0  0  0  0  0  0  0  0  0  0  0
  2  1  1  6
  3  4  1  0
  3  2  1  0
  4  5  2  0
  6  5  1  0
  7  6  1  0
  8  7  2  0
  8  4  1  0
  9  2  1  0
  9 11  1  0
 10  9  2  0
 12 11  1  0
 12 13  1  6
 14 13  1  0
 14 15  2  0
 16 15  1  0
 17 22  2  0
 17 16  1  0
 18 17  1  0
 19 20  1  0
 19 18  2  0
 20 21  2  0
 21 22  1  0
 22 14  1  0
 23 12  1  0
 24 23  2  0
 25 26  1  0
 26 27  2  0
 26 36  1  0
 27 28  1  0
 28 29  2  0
 29 30  1  0
 31 30  1  1
 31 32  1  0
 32 23  1  0
 33 37  1  0
 33 31  1  0
 34 33  2  0
 35 29  1  0
 36 35  2  0
M  END
$$$$
