HWY.pdb
     RDKit          3D

 37 40  0  0  1  0  0  0  0  0999 V2000
   33.8529  -30.7281  -20.9575 N   0  0  0  0  0  0  0  0  0  0  0  0
   34.1730  -31.3252  -19.6435 C   0  0  1  0  0  0  0  0  0  0  0  0
   33.3598  -30.5804  -18.6351 C   0  0  0  0  0  0  0  0  0  0  0  0
   34.1423  -29.6809  -17.7875 C   0  0  0  0  0  0  0  0  0  0  0  0
   35.5074  -29.4623  -17.7583 C   0  0  0  0  0  0  0  0  0  0  0  0
   35.7541  -28.5629  -16.7941 N   0  0  0  0  0  0  0  0  0  0  0  0
   34.5998  -28.2053  -16.2137 C   0  0  0  0  0  0  0  0  0  0  0  0
   33.6375  -28.8845  -16.8197 N   0  0  0  0  0  0  0  0  0  0  0  0
   33.8226  -32.7518  -19.7338 C   0  0  0  0  0  0  0  0  0  0  0  0
   32.8618  -33.1195  -20.4994 O   0  0  0  0  0  0  0  0  0  0  0  0
   34.4862  -33.7736  -19.0263 N   0  0  0  0  0  0  0  0  0  0  0  0
   34.0370  -35.1716  -19.1035 C   0  0  1  0  0  0  0  0  0  0  0  0
   35.1975  -36.0060  -18.5566 C   0  0  0  0  0  0  0  0  0  0  0  0
   35.0628  -37.4413  -18.8650 C   0  0  0  0  0  0  0  0  0  0  0  0
   35.0836  -37.9622  -20.1773 C   0  0  0  0  0  0  0  0  0  0  0  0
   34.9745  -39.2849  -20.1362 N   0  0  0  0  0  0  0  0  0  0  0  0
   34.8789  -39.7099  -18.8757 C   0  0  0  0  0  0  0  0  0  0  0  0
   34.7432  -40.9542  -18.3193 C   0  0  0  0  0  0  0  0  0  0  0  0
   34.6536  -41.1161  -16.9426 C   0  0  0  0  0  0  0  0  0  0  0  0
   34.7076  -39.9746  -16.1828 C   0  0  0  0  0  0  0  0  0  0  0  0
   34.8451  -38.7018  -16.7255 C   0  0  0  0  0  0  0  0  0  0  0  0
   34.9332  -38.5646  -18.0880 C   0  0  0  0  0  0  0  0  0  0  0  0
   32.7962  -35.3722  -18.3800 C   0  0  0  0  0  0  0  0  0  0  0  0
   32.1662  -34.3745  -17.9269 O   0  0  0  0  0  0  0  0  0  0  0  0
   30.7192  -30.7540  -15.1873 O   0  0  0  0  0  0  0  0  0  0  0  0
   30.5498  -31.9767  -15.8594 C   0  0  0  0  0  0  0  0  0  0  0  0
   30.1161  -33.0934  -15.1779 C   0  0  0  0  0  0  0  0  0  0  0  0
   29.9367  -34.3189  -15.8074 C   0  0  0  0  0  0  0  0  0  0  0  0
   30.1939  -34.4479  -17.1554 C   0  0  0  0  0  0  0  0  0  0  0  0
   30.0127  -35.7443  -17.8555 C   0  0  0  0  0  0  0  0  0  0  0  0
   31.0326  -36.7854  -17.3682 C   0  0  2  0  0  0  0  0  0  0  0  0
   32.2366  -36.6867  -18.1583 N   0  0  0  0  0  0  0  0  0  0  0  0
   30.4414  -38.1275  -17.3644 C   0  0  0  0  0  0  0  0  0  0  0  0
   30.4387  -38.8049  -18.4174 O   0  0  0  0  0  0  0  0  0  0  0  0
   30.6276  -33.3298  -17.8351 C   0  0  0  0  0  0  0  0  0  0  0  0
   30.8066  -32.1077  -17.2081 C   0  0  0  0  0  0  0  0  0  0  0  0
   29.8790  -38.6815  -16.2265 O   0  0  0  0  0  0  0  0  0  0  0  0
  2  1  1  6
  3  4  1  0
  3  2  1  0
  4  5  2  0
  6  5  1  0
  7  6  1  0
  8  7  2  0
  8  4  1  0
  9  2  1  0
  9 11  1  0
 10  9  2  0
 12 11  1  0
 12 13  1  1
 14 13  1  0
 14 15  2  0
 16 15  1  0
 17 22  2  0
 17 16  1  0
 18 17  1  0
 19 20  1  0
 19 18  2  0
 20 21  2  0
 21 22  1  0
 22 14  1  0
 23 12  1  0
 24 23  2  0
 25 26  1  0
 26 27  2  0
 26 36  1  0
 27 28  1  0
 28 29  2  0
 29 30  1  0
 31 30  1  6
 31 32  1  0
 32 23  1  0
 33 37  1  0
 33 31  1  0
 34 33  2  0
 35 29  1  0
 36 35  2  0
M  END
$$$$
