HWY.pdb
     RDKit          3D

 37 40  0  0  1  0  0  0  0  0999 V2000
   27.1447  -21.5705  -15.0802 N   0  0  0  0  0  0  0  0  0  0  0  0
   27.2617  -20.4725  -14.0971 C   0  0  1  0  0  0  0  0  0  0  0  0
   26.4581  -19.3358  -14.6403 C   0  0  0  0  0  0  0  0  0  0  0  0
   27.0555  -18.6908  -15.8095 C   0  0  0  0  0  0  0  0  0  0  0  0
   26.5490  -18.5381  -17.0871 C   0  0  0  0  0  0  0  0  0  0  0  0
   27.4755  -17.8999  -17.8176 N   0  0  0  0  0  0  0  0  0  0  0  0
   28.5461  -17.6438  -17.0526 C   0  0  0  0  0  0  0  0  0  0  0  0
   28.2817  -18.1243  -15.8469 N   0  0  0  0  0  0  0  0  0  0  0  0
   26.7435  -20.9936  -12.8218 C   0  0  0  0  0  0  0  0  0  0  0  0
   25.6871  -21.7206  -12.8185 O   0  0  0  0  0  0  0  0  0  0  0  0
   27.3414  -20.7513  -11.5694 N   0  0  0  0  0  0  0  0  0  0  0  0
   26.6737  -21.1366  -10.3171 C   0  0  1  0  0  0  0  0  0  0  0  0
   27.7733  -21.1484   -9.2529 C   0  0  0  0  0  0  0  0  0  0  0  0
   27.2406  -21.0533   -7.8816 C   0  0  0  0  0  0  0  0  0  0  0  0
   26.0531  -21.6909   -7.4603 C   0  0  0  0  0  0  0  0  0  0  0  0
   25.8485  -21.4501   -6.1706 N   0  0  0  0  0  0  0  0  0  0  0  0
   26.8216  -20.6846   -5.6750 C   0  0  0  0  0  0  0  0  0  0  0  0
   27.0563  -20.1656   -4.4292 C   0  0  0  0  0  0  0  0  0  0  0  0
   28.1690  -19.3711   -4.1835 C   0  0  0  0  0  0  0  0  0  0  0  0
   29.0072  -19.1388   -5.2449 C   0  0  0  0  0  0  0  0  0  0  0  0
   28.7891  -19.6550   -6.5175 C   0  0  0  0  0  0  0  0  0  0  0  0
   27.6844  -20.4386   -6.7381 C   0  0  0  0  0  0  0  0  0  0  0  0
   25.5792  -20.2395  -10.0002 C   0  0  0  0  0  0  0  0  0  0  0  0
   25.7406  -18.9905  -10.1086 O   0  0  0  0  0  0  0  0  0  0  0  0
   19.1286  -17.7420  -14.6366 O   0  0  0  0  0  0  0  0  0  0  0  0
   20.2089  -18.3050  -13.9358 C   0  0  0  0  0  0  0  0  0  0  0  0
   20.6860  -17.7056  -12.7901 C   0  0  0  0  0  0  0  0  0  0  0  0
   21.7513  -18.2321  -12.0703 C   0  0  0  0  0  0  0  0  0  0  0  0
   22.3677  -19.3896  -12.4949 C   0  0  0  0  0  0  0  0  0  0  0  0
   23.5089  -19.9755  -11.7478 C   0  0  0  0  0  0  0  0  0  0  0  0
   23.1208  -20.2823  -10.2930 C   0  0  2  0  0  0  0  0  0  0  0  0
   24.2875  -20.7222   -9.5656 N   0  0  0  0  0  0  0  0  0  0  0  0
   22.0055  -21.2334  -10.2438 C   0  0  0  0  0  0  0  0  0  0  0  0
   20.9236  -20.8906   -9.7150 O   0  0  0  0  0  0  0  0  0  0  0  0
   21.8890  -19.9874  -13.6410 C   0  0  0  0  0  0  0  0  0  0  0  0
   20.8269  -19.4631  -14.3590 C   0  0  0  0  0  0  0  0  0  0  0  0
   22.1041  -22.5121  -10.7664 O   0  0  0  0  0  0  0  0  0  0  0  0
  2  1  1  6
  3  4  1  0
  3  2  1  0
  4  5  2  0
  6  5  1  0
  7  6  1  0
  8  7  2  0
  8  4  1  0
  9  2  1  0
  9 11  1  0
 10  9  2  0
 12 11  1  0
 12 13  1  1
 14 13  1  0
 14 15  2  0
 16 15  1  0
 17 22  2  0
 17 16  1  0
 18 17  1  0
 19 20  1  0
 19 18  2  0
 20 21  2  0
 21 22  1  0
 22 14  1  0
 23 12  1  0
 24 23  2  0
 25 26  1  0
 26 27  2  0
 26 36  1  0
 27 28  1  0
 28 29  2  0
 29 30  1  0
 31 30  1  6
 31 32  1  0
 32 23  1  0
 33 37  1  0
 33 31  1  0
 34 33  2  0
 35 29  1  0
 36 35  2  0
M  END
$$$$
