HWY.pdb
     RDKit          3D

 37 40  0  0  1  0  0  0  0  0999 V2000
   22.1810  -25.8856  -14.3341 N   0  0  0  0  0  0  0  0  0  0  0  0
   20.7342  -26.1888  -14.3104 C   0  0  1  0  0  0  0  0  0  0  0  0
   20.6060  -27.5807  -13.7823 C   0  0  0  0  0  0  0  0  0  0  0  0
   21.2329  -28.5971  -14.6271 C   0  0  0  0  0  0  0  0  0  0  0  0
   21.0028  -28.9035  -15.9559 C   0  0  0  0  0  0  0  0  0  0  0  0
   21.8051  -29.9281  -16.2811 N   0  0  0  0  0  0  0  0  0  0  0  0
   22.5321  -30.2807  -15.2113 C   0  0  0  0  0  0  0  0  0  0  0  0
   22.1790  -29.4729  -14.2227 N   0  0  0  0  0  0  0  0  0  0  0  0
   20.1074  -25.1780  -13.4434 C   0  0  0  0  0  0  0  0  0  0  0  0
   20.5281  -25.0277  -12.2413 O   0  0  0  0  0  0  0  0  0  0  0  0
   19.0536  -24.3353  -13.8485 N   0  0  0  0  0  0  0  0  0  0  0  0
   18.5243  -23.2922  -12.9573 C   0  0  1  0  0  0  0  0  0  0  0  0
   18.5580  -21.9988  -13.7745 C   0  0  0  0  0  0  0  0  0  0  0  0
   19.7560  -21.1837  -13.5028 C   0  0  0  0  0  0  0  0  0  0  0  0
   20.7288  -20.8775  -14.4794 C   0  0  0  0  0  0  0  0  0  0  0  0
   21.6682  -20.1034  -13.9488 N   0  0  0  0  0  0  0  0  0  0  0  0
   21.4043  -19.8564  -12.6651 C   0  0  0  0  0  0  0  0  0  0  0  0
   22.0577  -19.1349  -11.7013 C   0  0  0  0  0  0  0  0  0  0  0  0
   21.5559  -19.0494  -10.4088 C   0  0  0  0  0  0  0  0  0  0  0  0
   20.3854  -19.7198  -10.1563 C   0  0  0  0  0  0  0  0  0  0  0  0
   19.7051  -20.4579  -11.1186 C   0  0  0  0  0  0  0  0  0  0  0  0
   20.2177  -20.5280  -12.3895 C   0  0  0  0  0  0  0  0  0  0  0  0
   17.1997  -23.6292  -12.4722 C   0  0  0  0  0  0  0  0  0  0  0  0
   16.3790  -24.2076  -13.2400 O   0  0  0  0  0  0  0  0  0  0  0  0
   17.3481  -29.7159  -11.1530 O   0  0  0  0  0  0  0  0  0  0  0  0
   16.8445  -28.4592  -10.7755 C   0  0  0  0  0  0  0  0  0  0  0  0
   17.6549  -27.5460  -10.1362 C   0  0  0  0  0  0  0  0  0  0  0  0
   17.1936  -26.2943   -9.7480 C   0  0  0  0  0  0  0  0  0  0  0  0
   15.8879  -25.9305   -9.9988 C   0  0  0  0  0  0  0  0  0  0  0  0
   15.3656  -24.6009   -9.5949 C   0  0  0  0  0  0  0  0  0  0  0  0
   15.4026  -23.6102  -10.7690 C   0  0  2  0  0  0  0  0  0  0  0  0
   16.7744  -23.3331  -11.1225 N   0  0  0  0  0  0  0  0  0  0  0  0
   14.6225  -22.4080  -10.4574 C   0  0  0  0  0  0  0  0  0  0  0  0
   15.1750  -21.2851  -10.4968 O   0  0  0  0  0  0  0  0  0  0  0  0
   15.0790  -26.8454  -10.6382 C   0  0  0  0  0  0  0  0  0  0  0  0
   15.5384  -28.0934  -11.0256 C   0  0  0  0  0  0  0  0  0  0  0  0
   13.2814  -22.4677  -10.1169 O   0  0  0  0  0  0  0  0  0  0  0  0
  2  1  1  1
  3  4  1  0
  3  2  1  0
  4  5  2  0
  6  5  1  0
  7  6  1  0
  8  7  2  0
  8  4  1  0
  9  2  1  0
  9 11  1  0
 10  9  2  0
 12 11  1  0
 12 13  1  6
 14 13  1  0
 14 15  2  0
 16 15  1  0
 17 22  2  0
 17 16  1  0
 18 17  1  0
 19 20  1  0
 19 18  2  0
 20 21  2  0
 21 22  1  0
 22 14  1  0
 23 12  1  0
 24 23  2  0
 25 26  1  0
 26 27  2  0
 26 36  1  0
 27 28  1  0
 28 29  2  0
 29 30  1  0
 31 30  1  1
 31 32  1  0
 32 23  1  0
 33 37  1  0
 33 31  1  0
 34 33  2  0
 35 29  1  0
 36 35  2  0
M  END
$$$$
