HWY.pdb
     RDKit          3D

 37 40  0  0  1  0  0  0  0  0999 V2000
   27.2567  -21.2566  -19.0366 N   0  0  0  0  0  0  0  0  0  0  0  0
   26.8392  -19.9165  -18.5725 C   0  0  1  0  0  0  0  0  0  0  0  0
   26.0595  -19.3088  -19.6930 C   0  0  0  0  0  0  0  0  0  0  0  0
   26.8895  -18.7365  -20.7529 C   0  0  0  0  0  0  0  0  0  0  0  0
   27.0107  -17.4221  -21.1650 C   0  0  0  0  0  0  0  0  0  0  0  0
   27.8767  -17.3958  -22.1890 N   0  0  0  0  0  0  0  0  0  0  0  0
   28.3068  -18.6405  -22.4398 C   0  0  0  0  0  0  0  0  0  0  0  0
   27.7058  -19.4381  -21.5696 N   0  0  0  0  0  0  0  0  0  0  0  0
   26.0404  -20.1241  -17.3538 C   0  0  0  0  0  0  0  0  0  0  0  0
   25.2450  -21.1275  -17.2827 O   0  0  0  0  0  0  0  0  0  0  0  0
   26.0896  -19.2822  -16.2253 N   0  0  0  0  0  0  0  0  0  0  0  0
   25.2105  -19.5047  -15.0677 C   0  0  1  0  0  0  0  0  0  0  0  0
   25.9115  -18.8323  -13.8852 C   0  0  0  0  0  0  0  0  0  0  0  0
   26.2109  -19.7728  -12.7901 C   0  0  0  0  0  0  0  0  0  0  0  0
   27.4110  -20.5119  -12.7030 C   0  0  0  0  0  0  0  0  0  0  0  0
   27.4069  -21.2443  -11.5955 N   0  0  0  0  0  0  0  0  0  0  0  0
   26.2771  -21.0571  -10.9121 C   0  0  0  0  0  0  0  0  0  0  0  0
   25.8011  -21.5769   -9.7375 C   0  0  0  0  0  0  0  0  0  0  0  0
   24.5550  -21.2094   -9.2459 C   0  0  0  0  0  0  0  0  0  0  0  0
   23.8382  -20.3091   -9.9935 C   0  0  0  0  0  0  0  0  0  0  0  0
   24.3012  -19.7684  -11.1880 C   0  0  0  0  0  0  0  0  0  0  0  0
   25.5356  -20.1441  -11.6550 C   0  0  0  0  0  0  0  0  0  0  0  0
   23.8748  -18.9934  -15.3082 C   0  0  0  0  0  0  0  0  0  0  0  0
   23.7162  -17.9699  -16.0329 O   0  0  0  0  0  0  0  0  0  0  0  0
   16.2015  -16.7314  -18.0223 O   0  0  0  0  0  0  0  0  0  0  0  0
   17.4347  -17.3064  -17.6701 C   0  0  0  0  0  0  0  0  0  0  0  0
   18.5563  -16.5187  -17.5259 C   0  0  0  0  0  0  0  0  0  0  0  0
   19.7921  -17.0502  -17.1788 C   0  0  0  0  0  0  0  0  0  0  0  0
   19.9267  -18.4055  -16.9665 C   0  0  0  0  0  0  0  0  0  0  0  0
   21.2341  -19.0029  -16.5958 C   0  0  0  0  0  0  0  0  0  0  0  0
   21.4109  -19.0482  -15.0700 C   0  0  2  0  0  0  0  0  0  0  0  0
   22.6972  -19.6201  -14.7508 N   0  0  0  0  0  0  0  0  0  0  0  0
   20.2857  -19.7454  -14.4385 C   0  0  0  0  0  0  0  0  0  0  0  0
   20.3489  -20.9825  -14.2558 O   0  0  0  0  0  0  0  0  0  0  0  0
   18.8036  -19.1916  -17.1112 C   0  0  0  0  0  0  0  0  0  0  0  0
   17.5713  -18.6623  -17.4572 C   0  0  0  0  0  0  0  0  0  0  0  0
   19.1415  -19.0798  -14.0314 O   0  0  0  0  0  0  0  0  0  0  0  0
  2  1  1  6
  3  4  1  0
  3  2  1  0
  4  5  2  0
  6  5  1  0
  7  6  1  0
  8  7  2  0
  8  4  1  0
  9  2  1  0
  9 11  1  0
 10  9  2  0
 12 11  1  0
 12 13  1  1
 14 13  1  0
 14 15  2  0
 16 15  1  0
 17 22  2  0
 17 16  1  0
 18 17  1  0
 19 20  1  0
 19 18  2  0
 20 21  2  0
 21 22  1  0
 22 14  1  0
 23 12  1  0
 24 23  2  0
 25 26  1  0
 26 27  2  0
 26 36  1  0
 27 28  1  0
 28 29  2  0
 29 30  1  0
 31 30  1  6
 31 32  1  0
 32 23  1  0
 33 37  1  0
 33 31  1  0
 34 33  2  0
 35 29  1  0
 36 35  2  0
M  END
$$$$
