HWY.pdb
     RDKit          3D

 37 40  0  0  1  0  0  0  0  0999 V2000
   40.5684  -23.7713    6.1578 N   0  0  0  0  0  0  0  0  0  0  0  0
   39.4763  -24.0535    5.2020 C   0  0  1  0  0  0  0  0  0  0  0  0
   39.6097  -25.4936    4.8262 C   0  0  0  0  0  0  0  0  0  0  0  0
   40.7695  -25.7830    3.9830 C   0  0  0  0  0  0  0  0  0  0  0  0
   41.8426  -26.6229    4.2179 C   0  0  0  0  0  0  0  0  0  0  0  0
   42.6645  -26.5367    3.1612 N   0  0  0  0  0  0  0  0  0  0  0  0
   42.1534  -25.6764    2.2692 C   0  0  0  0  0  0  0  0  0  0  0  0
   41.0135  -25.2295    2.7748 N   0  0  0  0  0  0  0  0  0  0  0  0
   38.2173  -23.7493    5.9010 C   0  0  0  0  0  0  0  0  0  0  0  0
   38.1548  -23.8777    7.1754 O   0  0  0  0  0  0  0  0  0  0  0  0
   37.0438  -23.3097    5.2572 N   0  0  0  0  0  0  0  0  0  0  0  0
   35.8170  -23.0254    6.0164 C   0  0  1  0  0  0  0  0  0  0  0  0
   34.9281  -22.2145    5.0708 C   0  0  0  0  0  0  0  0  0  0  0  0
   33.7268  -21.6790    5.7367 C   0  0  0  0  0  0  0  0  0  0  0  0
   32.8003  -22.4818    6.4376 C   0  0  0  0  0  0  0  0  0  0  0  0
   31.8457  -21.7172    6.9544 N   0  0  0  0  0  0  0  0  0  0  0  0
   32.0554  -20.4350    6.6532 C   0  0  0  0  0  0  0  0  0  0  0  0
   31.3671  -19.2858    6.9390 C   0  0  0  0  0  0  0  0  0  0  0  0
   31.8127  -18.0526    6.4803 C   0  0  0  0  0  0  0  0  0  0  0  0
   32.9649  -18.0516    5.7349 C   0  0  0  0  0  0  0  0  0  0  0  0
   33.6799  -19.2053    5.4327 C   0  0  0  0  0  0  0  0  0  0  0  0
   33.2228  -20.4130    5.8969 C   0  0  0  0  0  0  0  0  0  0  0  0
   35.1892  -24.2447    6.4883 C   0  0  0  0  0  0  0  0  0  0  0  0
   35.2254  -25.2861    5.7729 O   0  0  0  0  0  0  0  0  0  0  0  0
   34.1374  -31.5835   10.6546 O   0  0  0  0  0  0  0  0  0  0  0  0
   34.4509  -30.3213   10.1217 C   0  0  0  0  0  0  0  0  0  0  0  0
   34.5826  -30.1516    8.7604 C   0  0  0  0  0  0  0  0  0  0  0  0
   34.8914  -28.9200    8.1964 C   0  0  0  0  0  0  0  0  0  0  0  0
   35.0769  -27.8175    9.0027 C   0  0  0  0  0  0  0  0  0  0  0  0
   35.4089  -26.4889    8.4297 C   0  0  0  0  0  0  0  0  0  0  0  0
   34.1480  -25.6275    8.2588 C   0  0  2  0  0  0  0  0  0  0  0  0
   34.5193  -24.3221    7.7672 N   0  0  0  0  0  0  0  0  0  0  0  0
   33.3751  -25.5874    9.5046 C   0  0  0  0  0  0  0  0  0  0  0  0
   33.6547  -24.7355   10.3785 O   0  0  0  0  0  0  0  0  0  0  0  0
   34.9448  -27.9894   10.3640 C   0  0  0  0  0  0  0  0  0  0  0  0
   34.6369  -29.2170   10.9268 C   0  0  0  0  0  0  0  0  0  0  0  0
   32.3347  -26.4667    9.7547 O   0  0  0  0  0  0  0  0  0  0  0  0
  2  1  1  1
  3  4  1  0
  3  2  1  0
  4  5  2  0
  6  5  1  0
  7  6  1  0
  8  7  2  0
  8  4  1  0
  9  2  1  0
  9 11  1  0
 10  9  2  0
 12 11  1  0
 12 13  1  6
 14 13  1  0
 14 15  2  0
 16 15  1  0
 17 22  2  0
 17 16  1  0
 18 17  1  0
 19 20  1  0
 19 18  2  0
 20 21  2  0
 21 22  1  0
 22 14  1  0
 23 12  1  0
 24 23  2  0
 25 26  1  0
 26 27  2  0
 26 36  1  0
 27 28  1  0
 28 29  2  0
 29 30  1  0
 31 30  1  1
 31 32  1  0
 32 23  1  0
 33 37  1  0
 33 31  1  0
 34 33  2  0
 35 29  1  0
 36 35  2  0
M  END
$$$$
