HWY.pdb
     RDKit          3D

 37 40  0  0  1  0  0  0  0  0999 V2000
   26.9091  -21.8648  -18.7015 N   0  0  0  0  0  0  0  0  0  0  0  0
   25.8081  -20.9601  -18.3078 C   0  0  1  0  0  0  0  0  0  0  0  0
   24.6814  -21.2361  -19.2498 C   0  0  0  0  0  0  0  0  0  0  0  0
   24.8064  -20.5593  -20.5406 C   0  0  0  0  0  0  0  0  0  0  0  0
   24.3451  -19.3160  -20.9324 C   0  0  0  0  0  0  0  0  0  0  0  0
   24.6832  -19.1445  -22.2192 N   0  0  0  0  0  0  0  0  0  0  0  0
   25.3391  -20.2294  -22.6550 C   0  0  0  0  0  0  0  0  0  0  0  0
   25.4068  -21.0734  -21.6364 N   0  0  0  0  0  0  0  0  0  0  0  0
   25.4854  -21.2761  -16.9070 C   0  0  0  0  0  0  0  0  0  0  0  0
   25.5254  -22.4943  -16.5084 O   0  0  0  0  0  0  0  0  0  0  0  0
   25.1311  -20.3124  -15.9423 N   0  0  0  0  0  0  0  0  0  0  0  0
   24.8166  -20.6971  -14.5583 C   0  0  1  0  0  0  0  0  0  0  0  0
   25.4848  -19.6396  -13.6768 C   0  0  0  0  0  0  0  0  0  0  0  0
   26.0415  -20.2029  -12.4334 C   0  0  0  0  0  0  0  0  0  0  0  0
   27.3325  -20.7679  -12.3427 C   0  0  0  0  0  0  0  0  0  0  0  0
   27.5641  -21.1586  -11.0950 N   0  0  0  0  0  0  0  0  0  0  0  0
   26.5119  -20.8986  -10.3178 C   0  0  0  0  0  0  0  0  0  0  0  0
   26.2590  -21.1132   -8.9888 C   0  0  0  0  0  0  0  0  0  0  0  0
   25.0444  -20.7459   -8.4236 C   0  0  0  0  0  0  0  0  0  0  0  0
   24.1255  -20.1645   -9.2607 C   0  0  0  0  0  0  0  0  0  0  0  0
   24.3604  -19.9367  -10.6122 C   0  0  0  0  0  0  0  0  0  0  0  0
   25.5676  -20.3061  -11.1500 C   0  0  0  0  0  0  0  0  0  0  0  0
   23.3854  -20.7984  -14.3467 C   0  0  0  0  0  0  0  0  0  0  0  0
   22.6139  -19.9352  -14.8541 O   0  0  0  0  0  0  0  0  0  0  0  0
   15.3465  -22.9300  -11.4252 O   0  0  0  0  0  0  0  0  0  0  0  0
   16.7144  -22.9766  -11.7446 C   0  0  0  0  0  0  0  0  0  0  0  0
   17.6665  -22.8299  -10.7591 C   0  0  0  0  0  0  0  0  0  0  0  0
   19.0275  -22.8704  -11.0357 C   0  0  0  0  0  0  0  0  0  0  0  0
   19.4647  -23.0622  -12.3288 C   0  0  0  0  0  0  0  0  0  0  0  0
   20.9120  -23.1088  -12.6556 C   0  0  0  0  0  0  0  0  0  0  0  0
   21.3867  -21.7799  -13.2638 C   0  0  2  0  0  0  0  0  0  0  0  0
   22.7939  -21.8671  -13.5733 N   0  0  0  0  0  0  0  0  0  0  0  0
   21.0478  -20.6569  -12.3836 C   0  0  0  0  0  0  0  0  0  0  0  0
   20.0014  -20.0017  -12.5922 O   0  0  0  0  0  0  0  0  0  0  0  0
   18.5107  -23.2087  -13.3130 C   0  0  0  0  0  0  0  0  0  0  0  0
   17.1537  -23.1685  -13.0378 C   0  0  0  0  0  0  0  0  0  0  0  0
   21.8508  -20.2885  -11.3170 O   0  0  0  0  0  0  0  0  0  0  0  0
  2  1  1  6
  3  4  1  0
  3  2  1  0
  4  5  2  0
  6  5  1  0
  7  6  1  0
  8  7  2  0
  8  4  1  0
  9  2  1  0
  9 11  1  0
 10  9  2  0
 12 11  1  0
 12 13  1  1
 14 13  1  0
 14 15  2  0
 16 15  1  0
 17 22  2  0
 17 16  1  0
 18 17  1  0
 19 20  1  0
 19 18  2  0
 20 21  2  0
 21 22  1  0
 22 14  1  0
 23 12  1  0
 24 23  2  0
 25 26  1  0
 26 27  2  0
 26 36  1  0
 27 28  1  0
 28 29  2  0
 29 30  1  0
 31 30  1  1
 31 32  1  0
 32 23  1  0
 33 37  1  0
 33 31  1  0
 34 33  2  0
 35 29  1  0
 36 35  2  0
M  END
$$$$
