HWY.pdb
     RDKit          3D

 37 40  0  0  1  0  0  0  0  0999 V2000
   28.0803  -18.9653  -18.1570 N   0  0  0  0  0  0  0  0  0  0  0  0
   26.6895  -18.7243  -18.5966 C   0  0  1  0  0  0  0  0  0  0  0  0
   26.1146  -20.0644  -18.9229 C   0  0  0  0  0  0  0  0  0  0  0  0
   26.5353  -20.5917  -20.2209 C   0  0  0  0  0  0  0  0  0  0  0  0
   25.9055  -20.5152  -21.4496 C   0  0  0  0  0  0  0  0  0  0  0  0
   26.6677  -21.1703  -22.3380 N   0  0  0  0  0  0  0  0  0  0  0  0
   27.7528  -21.6572  -21.7194 C   0  0  0  0  0  0  0  0  0  0  0  0
   27.6619  -21.3027  -20.4464 N   0  0  0  0  0  0  0  0  0  0  0  0
   26.0056  -18.0548  -17.4784 C   0  0  0  0  0  0  0  0  0  0  0  0
   26.2413  -18.4328  -16.2759 O   0  0  0  0  0  0  0  0  0  0  0  0
   25.0894  -16.9960  -17.6342 N   0  0  0  0  0  0  0  0  0  0  0  0
   24.4961  -16.3219  -16.4697 C   0  0  1  0  0  0  0  0  0  0  0  0
   24.5218  -14.8286  -16.8031 C   0  0  0  0  0  0  0  0  0  0  0  0
   25.8166  -14.1969  -16.4906 C   0  0  0  0  0  0  0  0  0  0  0  0
   26.2618  -13.9401  -15.1753 C   0  0  0  0  0  0  0  0  0  0  0  0
   27.4731  -13.3972  -15.2102 N   0  0  0  0  0  0  0  0  0  0  0  0
   27.8920  -13.2625  -16.4691 C   0  0  0  0  0  0  0  0  0  0  0  0
   29.0413  -12.7609  -17.0204 C   0  0  0  0  0  0  0  0  0  0  0  0
   29.2190  -12.7290  -18.3977 C   0  0  0  0  0  0  0  0  0  0  0  0
   28.1920  -13.2214  -19.1634 C   0  0  0  0  0  0  0  0  0  0  0  0
   27.0172  -13.7354  -18.6259 C   0  0  0  0  0  0  0  0  0  0  0  0
   26.8627  -13.7586  -17.2626 C   0  0  0  0  0  0  0  0  0  0  0  0
   23.1650  -16.8230  -16.1864 C   0  0  0  0  0  0  0  0  0  0  0  0
   22.4102  -17.1714  -17.1386 O   0  0  0  0  0  0  0  0  0  0  0  0
   15.7218  -19.5398  -12.3117 O   0  0  0  0  0  0  0  0  0  0  0  0
   17.0287  -19.0671  -12.5216 C   0  0  0  0  0  0  0  0  0  0  0  0
   17.2758  -17.7142  -12.6099 C   0  0  0  0  0  0  0  0  0  0  0  0
   18.5534  -17.2090  -12.8166 C   0  0  0  0  0  0  0  0  0  0  0  0
   19.6246  -18.0677  -12.9405 C   0  0  0  0  0  0  0  0  0  0  0  0
   21.0010  -17.5581  -13.1631 C   0  0  0  0  0  0  0  0  0  0  0  0
   21.3118  -17.4362  -14.6630 C   0  0  2  0  0  0  0  0  0  0  0  0
   22.6595  -16.9498  -14.8378 N   0  0  0  0  0  0  0  0  0  0  0  0
   20.2999  -16.6159  -15.3368 C   0  0  0  0  0  0  0  0  0  0  0  0
   20.4103  -15.3687  -15.3300 O   0  0  0  0  0  0  0  0  0  0  0  0
   19.3752  -19.4205  -12.8518 C   0  0  0  0  0  0  0  0  0  0  0  0
   18.1017  -19.9247  -12.6457 C   0  0  0  0  0  0  0  0  0  0  0  0
   19.2132  -17.1746  -15.9886 O   0  0  0  0  0  0  0  0  0  0  0  0
  2  1  1  1
  3  4  1  0
  3  2  1  0
  4  5  2  0
  6  5  1  0
  7  6  1  0
  8  7  2  0
  8  4  1  0
  9  2  1  0
  9 11  1  0
 10  9  2  0
 12 11  1  0
 12 13  1  6
 14 13  1  0
 14 15  2  0
 16 15  1  0
 17 22  2  0
 17 16  1  0
 18 17  1  0
 19 20  1  0
 19 18  2  0
 20 21  2  0
 21 22  1  0
 22 14  1  0
 23 12  1  0
 24 23  2  0
 25 26  1  0
 26 27  2  0
 26 36  1  0
 27 28  1  0
 28 29  2  0
 29 30  1  0
 31 30  1  1
 31 32  1  0
 32 23  1  0
 33 37  1  0
 33 31  1  0
 34 33  2  0
 35 29  1  0
 36 35  2  0
M  END
$$$$
