HWY.pdb
     RDKit          3D

 37 40  0  0  1  0  0  0  0  0999 V2000
   23.6821  -20.2901  -17.5071 N   0  0  0  0  0  0  0  0  0  0  0  0
   23.5322  -19.2325  -18.5291 C   0  0  1  0  0  0  0  0  0  0  0  0
   22.3504  -19.6159  -19.3592 C   0  0  0  0  0  0  0  0  0  0  0  0
   22.6507  -20.5932  -20.4054 C   0  0  0  0  0  0  0  0  0  0  0  0
   22.4677  -20.5047  -21.7733 C   0  0  0  0  0  0  0  0  0  0  0  0
   22.8721  -21.6643  -22.3129 N   0  0  0  0  0  0  0  0  0  0  0  0
   23.3028  -22.4809  -21.3408 C   0  0  0  0  0  0  0  0  0  0  0  0
   23.1646  -21.8255  -20.1981 N   0  0  0  0  0  0  0  0  0  0  0  0
   23.3449  -17.9676  -17.8002 C   0  0  0  0  0  0  0  0  0  0  0  0
   22.6207  -17.9490  -16.7421 O   0  0  0  0  0  0  0  0  0  0  0  0
   23.9227  -16.7419  -18.1857 N   0  0  0  0  0  0  0  0  0  0  0  0
   23.7600  -15.5304  -17.3682 C   0  0  1  0  0  0  0  0  0  0  0  0
   25.1771  -15.0062  -17.1255 C   0  0  0  0  0  0  0  0  0  0  0  0
   25.9928  -15.9243  -16.3100 C   0  0  0  0  0  0  0  0  0  0  0  0
   25.7953  -16.1225  -14.9259 C   0  0  0  0  0  0  0  0  0  0  0  0
   26.6561  -17.0276  -14.4755 N   0  0  0  0  0  0  0  0  0  0  0  0
   27.4368  -17.4667  -15.4635 C   0  0  0  0  0  0  0  0  0  0  0  0
   28.4616  -18.3745  -15.5085 C   0  0  0  0  0  0  0  0  0  0  0  0
   29.1284  -18.6419  -16.6974 C   0  0  0  0  0  0  0  0  0  0  0  0
   28.7082  -17.9542  -17.8081 C   0  0  0  0  0  0  0  0  0  0  0  0
   27.6706  -17.0287  -17.7861 C   0  0  0  0  0  0  0  0  0  0  0  0
   27.0244  -16.7806  -16.6013 C   0  0  0  0  0  0  0  0  0  0  0  0
   22.8946  -14.5638  -18.0163 C   0  0  0  0  0  0  0  0  0  0  0  0
   23.0623  -14.2930  -19.2396 O   0  0  0  0  0  0  0  0  0  0  0  0
   16.4788  -17.2624  -16.4612 O   0  0  0  0  0  0  0  0  0  0  0  0
   17.3953  -16.4150  -17.1073 C   0  0  0  0  0  0  0  0  0  0  0  0
   17.0896  -15.0878  -17.3183 C   0  0  0  0  0  0  0  0  0  0  0  0
   17.9693  -14.2196  -17.9527 C   0  0  0  0  0  0  0  0  0  0  0  0
   19.1927  -14.6757  -18.3945 C   0  0  0  0  0  0  0  0  0  0  0  0
   20.1531  -13.7725  -19.0768 C   0  0  0  0  0  0  0  0  0  0  0  0
   20.9902  -12.9819  -18.0592 C   0  0  2  0  0  0  0  0  0  0  0  0
   21.8257  -13.8916  -17.3122 N   0  0  0  0  0  0  0  0  0  0  0  0
   20.1279  -12.1490  -17.2145 C   0  0  0  0  0  0  0  0  0  0  0  0
   19.3604  -11.3152  -17.7469 O   0  0  0  0  0  0  0  0  0  0  0  0
   19.4964  -16.0036  -18.1825 C   0  0  0  0  0  0  0  0  0  0  0  0
   18.6199  -16.8696  -17.5500 C   0  0  0  0  0  0  0  0  0  0  0  0
   20.1299  -12.2505  -15.8333 O   0  0  0  0  0  0  0  0  0  0  0  0
  2  1  1  1
  3  4  1  0
  3  2  1  0
  4  5  2  0
  6  5  1  0
  7  6  1  0
  8  7  2  0
  8  4  1  0
  9  2  1  0
  9 11  1  0
 10  9  2  0
 12 11  1  0
 12 13  1  6
 14 13  1  0
 14 15  2  0
 16 15  1  0
 17 22  2  0
 17 16  1  0
 18 17  1  0
 19 20  1  0
 19 18  2  0
 20 21  2  0
 21 22  1  0
 22 14  1  0
 23 12  1  0
 24 23  2  0
 25 26  1  0
 26 27  2  0
 26 36  1  0
 27 28  1  0
 28 29  2  0
 29 30  1  0
 31 30  1  6
 31 32  1  0
 32 23  1  0
 33 37  1  0
 33 31  1  0
 34 33  2  0
 35 29  1  0
 36 35  2  0
M  END
$$$$
