TQY.pdb
     RDKit          3D

 29 29  0  0  1  0  0  0  0  0999 V2000
   17.5498  -11.5246  -15.4241 C   0  0  0  0  0  0  0  0  0  0  0  0
   18.4771  -12.5002  -16.1151 C   0  0  1  0  0  0  0  0  0  0  0  0
   17.7565  -13.4688  -16.7951 O   0  0  0  0  0  0  0  0  0  0  0  0
   19.3662  -11.7610  -17.0762 C   0  0  2  0  0  0  0  0  0  0  0  0
   20.1028  -12.6775  -17.9159 N   0  0  0  0  0  0  0  0  0  0  0  0
   20.3529  -10.9343  -16.3463 C   0  0  0  0  0  0  0  0  0  0  0  0
   20.0293  -10.0682  -15.4911 O   0  0  0  0  0  0  0  0  0  0  0  0
   26.6502  -11.8767  -16.7966 N   0  0  0  0  0  0  0  0  0  0  0  0
   26.5399  -10.7810  -15.8744 C   0  0  0  0  0  0  0  0  0  0  0  0
   27.5643  -10.3099  -15.3269 O   0  0  0  0  0  0  0  0  0  0  0  0
   25.2268  -10.2020  -15.5655 C   0  0  0  0  0  0  0  0  0  0  0  0
   24.0702  -10.8922  -16.1850 C   0  0  0  0  0  0  0  0  0  0  0  0
   22.7184  -10.3159  -15.8367 C   0  0  2  0  0  0  0  0  0  0  0  0
   21.7475  -11.0976  -16.5964 N   0  0  0  0  0  0  0  0  0  0  0  0
   22.7301   -8.9081  -16.2487 C   0  0  0  0  0  0  0  0  0  0  0  0
   22.9877   -8.6021  -17.4279 O   0  0  0  0  0  0  0  0  0  0  0  0
   21.0163   -0.6132  -17.8367 O   0  0  0  0  0  0  0  0  0  0  0  0
   21.0709   -1.9658  -17.4990 C   0  0  0  0  0  0  0  0  0  0  0  0
   20.2735   -2.4845  -16.5026 C   0  0  0  0  0  0  0  0  0  0  0  0
   20.3180   -3.8160  -16.1606 C   0  0  0  0  0  0  0  0  0  0  0  0
   21.1793   -4.6980  -16.8152 C   0  0  0  0  0  0  0  0  0  0  0  0
   21.2227   -6.1166  -16.4300 C   0  0  0  0  0  0  0  0  0  0  0  0
   22.4726   -6.4691  -15.6587 C   0  0  2  0  0  0  0  0  0  0  0  0
   22.4504   -7.8902  -15.3159 N   0  0  0  0  0  0  0  0  0  0  0  0
   22.5929   -5.6579  -14.4390 C   0  0  0  0  0  0  0  0  0  0  0  0
   23.3104   -4.4498  -14.4875 O   0  0  0  0  0  0  0  0  0  0  0  0
   21.9690   -4.1553  -17.8100 C   0  0  0  0  0  0  0  0  0  0  0  0
   21.9187   -2.8126  -18.1493 C   0  0  0  0  0  0  0  0  0  0  0  0
   22.1056   -5.9480  -13.3361 O   0  0  0  0  0  0  0  0  0  0  0  0
  2  1  1  6
  2  3  1  0
  4  2  1  0
  4  5  1  1
  6  7  2  0
  6  4  1  0
  9  8  1  0
 10  9  2  0
 11  9  1  0
 12 11  1  0
 13 12  1  6
 13 14  1  0
 14  6  1  0
 15 24  1  0
 15 13  1  0
 16 15  2  0
 18 19  2  0
 18 17  1  0
 20 19  1  0
 21 20  2  0
 22 21  1  0
 23 24  1  0
 23 22  1  1
 25 23  1  0
 26 25  1  0
 27 21  1  0
 27 28  2  0
 28 18  1  0
 29 25  2  0
M  END
$$$$
