TQY.pdb
     RDKit          3D

 29 29  0  0  1  0  0  0  0  0999 V2000
   20.8328  -10.3361  -21.2234 C   0  0  0  0  0  0  0  0  0  0  0  0
   19.6050  -11.1890  -21.4568 C   0  0  1  0  0  0  0  0  0  0  0  0
   19.9002  -12.2643  -22.2792 O   0  0  0  0  0  0  0  0  0  0  0  0
   19.0757  -11.6870  -20.1406 C   0  0  2  0  0  0  0  0  0  0  0  0
   17.9260  -12.5414  -20.3302 N   0  0  0  0  0  0  0  0  0  0  0  0
   18.6540  -10.5562  -19.2845 C   0  0  0  0  0  0  0  0  0  0  0  0
   17.5846   -9.9157  -19.4647 O   0  0  0  0  0  0  0  0  0  0  0  0
   17.2067  -10.1821  -13.2357 N   0  0  0  0  0  0  0  0  0  0  0  0
   16.4783   -9.7894  -14.4098 C   0  0  0  0  0  0  0  0  0  0  0  0
   15.2534  -10.0369  -14.5061 O   0  0  0  0  0  0  0  0  0  0  0  0
   17.1614   -9.0935  -15.5071 C   0  0  0  0  0  0  0  0  0  0  0  0
   18.1902   -9.8902  -16.2174 C   0  0  0  0  0  0  0  0  0  0  0  0
   18.9812   -9.1336  -17.2578 C   0  0  2  0  0  0  0  0  0  0  0  0
   19.4722  -10.1419  -18.1921 N   0  0  0  0  0  0  0  0  0  0  0  0
   20.0779   -8.4558  -16.5580 C   0  0  0  0  0  0  0  0  0  0  0  0
   21.1195   -9.0766  -16.2750 O   0  0  0  0  0  0  0  0  0  0  0  0
   26.4179   -2.7013  -16.6800 O   0  0  0  0  0  0  0  0  0  0  0  0
   25.3445   -3.5840  -16.8026 C   0  0  0  0  0  0  0  0  0  0  0  0
   24.9361   -4.3615  -15.7412 C   0  0  0  0  0  0  0  0  0  0  0  0
   23.8793   -5.2352  -15.8496 C   0  0  0  0  0  0  0  0  0  0  0  0
   23.1760   -5.3678  -17.0479 C   0  0  0  0  0  0  0  0  0  0  0  0
   22.0555   -6.3147  -17.1505 C   0  0  0  0  0  0  0  0  0  0  0  0
   21.1216   -6.2371  -15.9659 C   0  0  2  0  0  0  0  0  0  0  0  0
   19.9635   -7.0983  -16.1997 N   0  0  0  0  0  0  0  0  0  0  0  0
   20.6822   -4.8557  -15.7230 C   0  0  0  0  0  0  0  0  0  0  0  0
   19.4249   -4.4430  -16.1978 O   0  0  0  0  0  0  0  0  0  0  0  0
   23.6037   -4.5787  -18.0978 C   0  0  0  0  0  0  0  0  0  0  0  0
   24.6693   -3.7003  -17.9813 C   0  0  0  0  0  0  0  0  0  0  0  0
   21.3369   -3.9925  -15.1194 O   0  0  0  0  0  0  0  0  0  0  0  0
  2  1  1  1
  2  3  1  0
  4  2  1  0
  4  5  1  6
  6  7  2  0
  6  4  1  0
  9  8  1  0
 10  9  2  0
 11  9  1  0
 12 11  1  0
 13 12  1  1
 13 14  1  0
 14  6  1  0
 15 24  1  0
 15 13  1  0
 16 15  2  0
 18 19  2  0
 18 17  1  0
 20 19  1  0
 21 20  2  0
 22 21  1  0
 23 24  1  0
 23 22  1  6
 25 23  1  0
 26 25  1  0
 27 21  1  0
 27 28  2  0
 28 18  1  0
 29 25  2  0
M  END
$$$$
