TQY.pdb
     RDKit          3D

 29 29  0  0  1  0  0  0  0  0999 V2000
   34.2139  -26.1802  -18.6610 C   0  0  0  0  0  0  0  0  0  0  0  0
   33.8374  -27.6409  -18.5425 C   0  0  1  0  0  0  0  0  0  0  0  0
   32.5142  -27.8401  -18.9017 O   0  0  0  0  0  0  0  0  0  0  0  0
   34.7324  -28.4683  -19.4229 C   0  0  2  0  0  0  0  0  0  0  0  0
   34.4507  -28.2338  -20.8205 N   0  0  0  0  0  0  0  0  0  0  0  0
   34.5322  -29.9113  -19.1640 C   0  0  0  0  0  0  0  0  0  0  0  0
   33.7700  -30.6371  -19.8558 O   0  0  0  0  0  0  0  0  0  0  0  0
   38.1818  -33.9187  -18.5124 N   0  0  0  0  0  0  0  0  0  0  0  0
   37.3077  -34.6234  -17.6165 C   0  0  0  0  0  0  0  0  0  0  0  0
   37.3926  -35.8684  -17.4992 O   0  0  0  0  0  0  0  0  0  0  0  0
   36.3078  -33.8920  -16.8291 C   0  0  0  0  0  0  0  0  0  0  0  0
   36.2424  -32.4338  -17.0883 C   0  0  0  0  0  0  0  0  0  0  0  0
   35.0141  -31.9700  -17.8345 C   0  0  2  0  0  0  0  0  0  0  0  0
   35.2186  -30.5470  -18.0874 N   0  0  0  0  0  0  0  0  0  0  0  0
   33.8611  -32.2102  -16.9598 C   0  0  0  0  0  0  0  0  0  0  0  0
   33.7751  -31.6287  -15.8622 O   0  0  0  0  0  0  0  0  0  0  0  0
   25.6837  -33.6420  -14.1972 O   0  0  0  0  0  0  0  0  0  0  0  0
   26.8728  -33.3690  -14.8740 C   0  0  0  0  0  0  0  0  0  0  0  0
   27.5871  -32.2179  -14.6242 C   0  0  0  0  0  0  0  0  0  0  0  0
   28.7607  -31.9376  -15.2846 C   0  0  0  0  0  0  0  0  0  0  0  0
   29.2756  -32.8156  -16.2397 C   0  0  0  0  0  0  0  0  0  0  0  0
   30.5258  -32.4959  -16.9449 C   0  0  0  0  0  0  0  0  0  0  0  0
   31.6719  -33.3848  -16.5233 C   0  0  2  0  0  0  0  0  0  0  0  0
   32.8418  -33.0996  -17.3526 N   0  0  0  0  0  0  0  0  0  0  0  0
   31.3119  -34.8058  -16.6305 C   0  0  0  0  0  0  0  0  0  0  0  0
   31.8724  -35.5788  -17.6624 O   0  0  0  0  0  0  0  0  0  0  0  0
   28.5422  -33.9625  -16.4734 C   0  0  0  0  0  0  0  0  0  0  0  0
   27.3606  -34.2384  -15.8040 C   0  0  0  0  0  0  0  0  0  0  0  0
   30.5356  -35.4061  -15.8722 O   0  0  0  0  0  0  0  0  0  0  0  0
  2  1  1  6
  2  3  1  0
  4  2  1  0
  4  5  1  6
  6  7  2  0
  6  4  1  0
  9  8  1  0
 10  9  2  0
 11  9  1  0
 12 11  1  0
 13 12  1  1
 13 14  1  0
 14  6  1  0
 15 24  1  0
 15 13  1  0
 16 15  2  0
 18 19  2  0
 18 17  1  0
 20 19  1  0
 21 20  2  0
 22 21  1  0
 23 24  1  0
 23 22  1  6
 25 23  1  0
 26 25  1  0
 27 21  1  0
 27 28  2  0
 28 18  1  0
 29 25  2  0
M  END
$$$$
