TQY.pdb
     RDKit          3D

 29 29  0  0  1  0  0  0  0  0999 V2000
   18.5445  -13.6881  -15.2429 C   0  0  0  0  0  0  0  0  0  0  0  0
   19.1081  -12.7387  -16.2775 C   0  0  1  0  0  0  0  0  0  0  0  0
   19.0569  -13.3008  -17.5429 O   0  0  0  0  0  0  0  0  0  0  0  0
   18.3307  -11.4519  -16.2619 C   0  0  2  0  0  0  0  0  0  0  0  0
   18.6926  -10.6102  -17.3792 N   0  0  0  0  0  0  0  0  0  0  0  0
   18.6043  -10.6901  -15.0233 C   0  0  0  0  0  0  0  0  0  0  0  0
   18.4731  -11.1784  -13.8697 O   0  0  0  0  0  0  0  0  0  0  0  0
   21.3426   -4.9348  -15.0091 N   0  0  0  0  0  0  0  0  0  0  0  0
   21.1757   -5.2327  -13.6139 C   0  0  0  0  0  0  0  0  0  0  0  0
   21.5946   -4.4352  -12.7425 O   0  0  0  0  0  0  0  0  0  0  0  0
   20.5117   -6.4734  -13.1957 C   0  0  0  0  0  0  0  0  0  0  0  0
   20.0864   -7.3660  -14.3003 C   0  0  0  0  0  0  0  0  0  0  0  0
   19.3073   -8.5873  -13.8735 C   0  0  2  0  0  0  0  0  0  0  0  0
   19.0397   -9.3340  -15.0989 N   0  0  0  0  0  0  0  0  0  0  0  0
   18.0718   -8.1121  -13.2413 C   0  0  0  0  0  0  0  0  0  0  0  0
   17.1469   -7.6545  -13.9382 O   0  0  0  0  0  0  0  0  0  0  0  0
   12.1317   -6.5333   -6.8153 O   0  0  0  0  0  0  0  0  0  0  0  0
   13.2440   -6.9607   -7.5410 C   0  0  0  0  0  0  0  0  0  0  0  0
   13.1532   -8.0039   -8.4362 C   0  0  0  0  0  0  0  0  0  0  0  0
   14.2423   -8.4343   -9.1576 C   0  0  0  0  0  0  0  0  0  0  0  0
   15.4895   -7.8256   -9.0086 C   0  0  0  0  0  0  0  0  0  0  0  0
   16.6466   -8.3050   -9.7794 C   0  0  0  0  0  0  0  0  0  0  0  0
   16.7291   -7.6773  -11.1507 C   0  0  2  0  0  0  0  0  0  0  0  0
   17.9199   -8.1689  -11.8420 N   0  0  0  0  0  0  0  0  0  0  0  0
   16.7655   -6.2105  -11.0643 C   0  0  0  0  0  0  0  0  0  0  0  0
   17.9855   -5.5706  -10.7838 O   0  0  0  0  0  0  0  0  0  0  0  0
   15.5562   -6.7826   -8.1057 C   0  0  0  0  0  0  0  0  0  0  0  0
   14.4545   -6.3541   -7.3823 C   0  0  0  0  0  0  0  0  0  0  0  0
   15.7903   -5.4604  -11.2206 O   0  0  0  0  0  0  0  0  0  0  0  0
  2  1  1  1
  2  3  1  0
  4  2  1  0
  4  5  1  6
  6  7  2  0
  6  4  1  0
  9  8  1  0
 10  9  2  0
 11  9  1  0
 12 11  1  0
 13 12  1  6
 13 14  1  0
 14  6  1  0
 15 24  1  0
 15 13  1  0
 16 15  2  0
 18 19  2  0
 18 17  1  0
 20 19  1  0
 21 20  2  0
 22 21  1  0
 23 24  1  0
 23 22  1  1
 25 23  1  0
 26 25  1  0
 27 21  1  0
 27 28  2  0
 28 18  1  0
 29 25  2  0
M  END
$$$$
