TQY.pdb
     RDKit          3D

 29 29  0  0  1  0  0  0  0  0999 V2000
   27.6292  -14.1383  -18.8724 C   0  0  0  0  0  0  0  0  0  0  0  0
   26.7891  -15.3467  -18.5214 C   0  0  1  0  0  0  0  0  0  0  0  0
   25.7244  -15.4790  -19.3981 O   0  0  0  0  0  0  0  0  0  0  0  0
   27.6396  -16.5858  -18.5652 C   0  0  2  0  0  0  0  0  0  0  0  0
   28.1394  -16.8286  -19.8990 N   0  0  0  0  0  0  0  0  0  0  0  0
   26.8554  -17.7734  -18.1602 C   0  0  0  0  0  0  0  0  0  0  0  0
   26.1768  -18.4606  -18.9686 O   0  0  0  0  0  0  0  0  0  0  0  0
   27.2884  -22.6365  -16.7901 N   0  0  0  0  0  0  0  0  0  0  0  0
   26.4618  -22.6095  -15.6158 C   0  0  0  0  0  0  0  0  0  0  0  0
   25.9206  -23.6604  -15.1991 O   0  0  0  0  0  0  0  0  0  0  0  0
   26.2442  -21.3511  -14.8919 C   0  0  0  0  0  0  0  0  0  0  0  0
   26.9007  -20.1604  -15.4827 C   0  0  0  0  0  0  0  0  0  0  0  0
   26.0262  -19.3323  -16.3938 C   0  0  2  0  0  0  0  0  0  0  0  0
   26.8428  -18.1914  -16.7966 N   0  0  0  0  0  0  0  0  0  0  0  0
   24.8566  -18.9188  -15.6108 C   0  0  0  0  0  0  0  0  0  0  0  0
   25.0011  -18.2266  -14.5860 O   0  0  0  0  0  0  0  0  0  0  0  0
   20.4016  -20.4294  -21.2334 O   0  0  0  0  0  0  0  0  0  0  0  0
   20.6821  -19.8156  -20.0123 C   0  0  0  0  0  0  0  0  0  0  0  0
   21.7910  -19.0132  -19.8560 C   0  0  0  0  0  0  0  0  0  0  0  0
   22.0782  -18.4025  -18.6574 C   0  0  0  0  0  0  0  0  0  0  0  0
   21.2507  -18.5742  -17.5465 C   0  0  0  0  0  0  0  0  0  0  0  0
   21.5779  -17.9232  -16.2691 C   0  0  0  0  0  0  0  0  0  0  0  0
   22.3504  -18.8284  -15.3390 C   0  0  2  0  0  0  0  0  0  0  0  0
   23.5606  -19.3001  -16.0102 N   0  0  0  0  0  0  0  0  0  0  0  0
   21.5340  -19.9723  -14.9084 C   0  0  0  0  0  0  0  0  0  0  0  0
   20.4265  -19.7476  -14.0721 O   0  0  0  0  0  0  0  0  0  0  0  0
   20.1457  -19.3829  -17.7271 C   0  0  0  0  0  0  0  0  0  0  0  0
   19.8624  -19.9949  -18.9378 C   0  0  0  0  0  0  0  0  0  0  0  0
   21.7367  -21.1545  -15.2235 O   0  0  0  0  0  0  0  0  0  0  0  0
  2  1  1  6
  2  3  1  0
  4  2  1  0
  4  5  1  6
  6  7  2  0
  6  4  1  0
  9  8  1  0
 10  9  2  0
 11  9  1  0
 12 11  1  0
 13 12  1  1
 13 14  1  0
 14  6  1  0
 15 24  1  0
 15 13  1  0
 16 15  2  0
 18 19  2  0
 18 17  1  0
 20 19  1  0
 21 20  2  0
 22 21  1  0
 23 24  1  0
 23 22  1  6
 25 23  1  0
 26 25  1  0
 27 21  1  0
 27 28  2  0
 28 18  1  0
 29 25  2  0
M  END
$$$$
