TQY.pdb
     RDKit          3D

 29 29  0  0  1  0  0  0  0  0999 V2000
   27.1418  -30.6751  -16.7448 C   0  0  0  0  0  0  0  0  0  0  0  0
   28.3462  -30.3452  -17.5991 C   0  0  1  0  0  0  0  0  0  0  0  0
   28.8805  -31.4925  -18.1629 O   0  0  0  0  0  0  0  0  0  0  0  0
   27.9500  -29.3833  -18.6847 C   0  0  2  0  0  0  0  0  0  0  0  0
   29.0900  -29.0041  -19.4874 N   0  0  0  0  0  0  0  0  0  0  0  0
   27.3814  -28.1460  -18.1056 C   0  0  0  0  0  0  0  0  0  0  0  0
   27.9745  -27.0352  -18.1337 O   0  0  0  0  0  0  0  0  0  0  0  0
   24.4247  -24.7125  -20.6264 N   0  0  0  0  0  0  0  0  0  0  0  0
   24.2181  -24.1032  -19.3422 C   0  0  0  0  0  0  0  0  0  0  0  0
   23.7803  -22.9316  -19.2613 O   0  0  0  0  0  0  0  0  0  0  0  0
   24.5167  -24.8474  -18.1126 C   0  0  0  0  0  0  0  0  0  0  0  0
   25.1578  -26.1689  -18.3135 C   0  0  0  0  0  0  0  0  0  0  0  0
   25.4772  -26.9256  -17.0462 C   0  0  2  0  0  0  0  0  0  0  0  0
   26.1016  -28.1728  -17.4767 N   0  0  0  0  0  0  0  0  0  0  0  0
   24.2064  -27.1610  -16.3520 C   0  0  0  0  0  0  0  0  0  0  0  0
   23.3204  -27.8552  -16.8845 O   0  0  0  0  0  0  0  0  0  0  0  0
   18.1546  -26.9190   -9.8552 O   0  0  0  0  0  0  0  0  0  0  0  0
   19.3075  -26.7347  -10.6190 C   0  0  0  0  0  0  0  0  0  0  0  0
   19.4799  -25.6050  -11.3883 C   0  0  0  0  0  0  0  0  0  0  0  0
   20.6119  -25.4117  -12.1453 C   0  0  0  0  0  0  0  0  0  0  0  0
   21.6359  -26.3599  -12.1626 C   0  0  0  0  0  0  0  0  0  0  0  0
   22.8349  -26.1432  -12.9860 C   0  0  0  0  0  0  0  0  0  0  0  0
   22.7117  -26.7562  -14.3609 C   0  0  2  0  0  0  0  0  0  0  0  0
   23.9766  -26.6049  -15.0783 N   0  0  0  0  0  0  0  0  0  0  0  0
   21.6207  -26.1355  -15.1256 C   0  0  0  0  0  0  0  0  0  0  0  0
   20.3422  -26.7193  -15.0928 O   0  0  0  0  0  0  0  0  0  0  0  0
   21.4407  -27.4840  -11.3841 C   0  0  0  0  0  0  0  0  0  0  0  0
   20.2975  -27.6721  -10.6236 C   0  0  0  0  0  0  0  0  0  0  0  0
   21.7252  -25.1126  -15.8190 O   0  0  0  0  0  0  0  0  0  0  0  0
  2  1  1  6
  2  3  1  0
  4  2  1  0
  4  5  1  1
  6  7  2  0
  6  4  1  0
  9  8  1  0
 10  9  2  0
 11  9  1  0
 12 11  1  0
 13 12  1  6
 13 14  1  0
 14  6  1  0
 15 24  1  0
 15 13  1  0
 16 15  2  0
 18 19  2  0
 18 17  1  0
 20 19  1  0
 21 20  2  0
 22 21  1  0
 23 24  1  0
 23 22  1  1
 25 23  1  0
 26 25  1  0
 27 21  1  0
 27 28  2  0
 28 18  1  0
 29 25  2  0
M  END
$$$$
