TQY.pdb
     RDKit          3D

 29 29  0  0  1  0  0  0  0  0999 V2000
   24.4651  -11.7420  -18.5341 C   0  0  0  0  0  0  0  0  0  0  0  0
   23.8366  -12.0944  -19.8645 C   0  0  1  0  0  0  0  0  0  0  0  0
   24.4896  -13.1671  -20.4500 O   0  0  0  0  0  0  0  0  0  0  0  0
   22.3847  -12.4308  -19.6663 C   0  0  2  0  0  0  0  0  0  0  0  0
   21.7472  -12.7516  -20.9227 N   0  0  0  0  0  0  0  0  0  0  0  0
   21.6575  -11.2844  -19.0777 C   0  0  0  0  0  0  0  0  0  0  0  0
   21.3150  -10.2703  -19.7414 O   0  0  0  0  0  0  0  0  0  0  0  0
   17.1054  -11.6455  -15.0788 N   0  0  0  0  0  0  0  0  0  0  0  0
   17.3789  -10.2357  -15.0486 C   0  0  0  0  0  0  0  0  0  0  0  0
   16.5949   -9.4520  -14.4638 O   0  0  0  0  0  0  0  0  0  0  0  0
   18.5798   -9.7000  -15.7011 C   0  0  0  0  0  0  0  0  0  0  0  0
   19.3790  -10.6885  -16.4639 C   0  0  0  0  0  0  0  0  0  0  0  0
   20.6290  -10.1404  -17.1101 C   0  0  2  0  0  0  0  0  0  0  0  0
   21.3098  -11.2918  -17.6944 N   0  0  0  0  0  0  0  0  0  0  0  0
   21.4250   -9.5147  -16.0486 C   0  0  0  0  0  0  0  0  0  0  0  0
   21.9948  -10.2190  -15.1944 O   0  0  0  0  0  0  0  0  0  0  0  0
   20.7840   -1.6704  -17.3405 O   0  0  0  0  0  0  0  0  0  0  0  0
   21.3978   -2.8528  -16.9262 C   0  0  0  0  0  0  0  0  0  0  0  0
   22.0407   -2.9343  -15.7106 C   0  0  0  0  0  0  0  0  0  0  0  0
   22.6494   -4.0942  -15.2910 C   0  0  0  0  0  0  0  0  0  0  0  0
   22.6382   -5.2406  -16.0871 C   0  0  0  0  0  0  0  0  0  0  0  0
   23.3032   -6.4696  -15.6286 C   0  0  0  0  0  0  0  0  0  0  0  0
   22.3471   -7.4320  -14.9646 C   0  0  2  0  0  0  0  0  0  0  0  0
   21.5523   -8.1132  -15.9854 N   0  0  0  0  0  0  0  0  0  0  0  0
   21.4633   -6.7374  -14.0176 C   0  0  0  0  0  0  0  0  0  0  0  0
   21.9853   -6.2996  -12.7879 O   0  0  0  0  0  0  0  0  0  0  0  0
   21.9882   -5.1349  -17.3012 C   0  0  0  0  0  0  0  0  0  0  0  0
   21.3770   -3.9629  -17.7174 C   0  0  0  0  0  0  0  0  0  0  0  0
   20.2622   -6.4935  -14.2074 O   0  0  0  0  0  0  0  0  0  0  0  0
  2  1  1  1
  2  3  1  0
  4  2  1  0
  4  5  1  6
  6  7  2  0
  6  4  1  0
  9  8  1  0
 10  9  2  0
 11  9  1  0
 12 11  1  0
 13 12  1  1
 13 14  1  0
 14  6  1  0
 15 24  1  0
 15 13  1  0
 16 15  2  0
 18 19  2  0
 18 17  1  0
 20 19  1  0
 21 20  2  0
 22 21  1  0
 23 24  1  0
 23 22  1  6
 25 23  1  0
 26 25  1  0
 27 21  1  0
 27 28  2  0
 28 18  1  0
 29 25  2  0
M  END
$$$$
