TQY.pdb
     RDKit          3D

 29 29  0  0  1  0  0  0  0  0999 V2000
   25.9182  -10.5552  -14.7030 C   0  0  0  0  0  0  0  0  0  0  0  0
   26.3759  -10.8841  -16.1071 C   0  0  1  0  0  0  0  0  0  0  0  0
   27.4372  -11.7746  -16.0843 O   0  0  0  0  0  0  0  0  0  0  0  0
   25.2344  -11.4749  -16.8873 C   0  0  2  0  0  0  0  0  0  0  0  0
   25.6495  -11.8425  -18.2216 N   0  0  0  0  0  0  0  0  0  0  0  0
   24.1292  -10.4996  -17.0174 C   0  0  0  0  0  0  0  0  0  0  0  0
   24.1207   -9.5768  -17.8746 O   0  0  0  0  0  0  0  0  0  0  0  0
   18.2327  -11.8775  -16.6209 N   0  0  0  0  0  0  0  0  0  0  0  0
   18.1636  -10.4457  -16.5291 C   0  0  0  0  0  0  0  0  0  0  0  0
   17.0533   -9.8642  -16.5414 O   0  0  0  0  0  0  0  0  0  0  0  0
   19.3924   -9.6504  -16.4187 C   0  0  0  0  0  0  0  0  0  0  0  0
   20.6520  -10.4320  -16.4042 C   0  0  0  0  0  0  0  0  0  0  0  0
   21.9139   -9.6116  -16.2812 C   0  0  2  0  0  0  0  0  0  0  0  0
   23.0015  -10.5761  -16.1476 N   0  0  0  0  0  0  0  0  0  0  0  0
   21.7718   -8.7777  -15.0827 C   0  0  0  0  0  0  0  0  0  0  0  0
   21.7913   -9.2975  -13.9514 O   0  0  0  0  0  0  0  0  0  0  0  0
   23.5658   -2.1603  -18.2769 O   0  0  0  0  0  0  0  0  0  0  0  0
   23.3598   -3.0166  -17.1949 C   0  0  0  0  0  0  0  0  0  0  0  0
   23.9002   -4.2837  -17.1758 C   0  0  0  0  0  0  0  0  0  0  0  0
   23.7045   -5.1371  -16.1150 C   0  0  0  0  0  0  0  0  0  0  0  0
   22.9455   -4.7484  -15.0100 C   0  0  0  0  0  0  0  0  0  0  0  0
   22.7366   -5.6768  -13.8889 C   0  0  0  0  0  0  0  0  0  0  0  0
   21.4784   -6.4979  -14.0438 C   0  0  2  0  0  0  0  0  0  0  0  0
   21.6121   -7.3830  -15.1998 N   0  0  0  0  0  0  0  0  0  0  0  0
   20.2966   -5.6382  -14.2008 C   0  0  0  0  0  0  0  0  0  0  0  0
   19.8346   -4.9001  -13.0971 O   0  0  0  0  0  0  0  0  0  0  0  0
   22.4137   -3.4743  -15.0519 C   0  0  0  0  0  0  0  0  0  0  0  0
   22.6152   -2.6197  -16.1241 C   0  0  0  0  0  0  0  0  0  0  0  0
   19.6481   -5.4983  -15.2486 O   0  0  0  0  0  0  0  0  0  0  0  0
  2  1  1  1
  2  3  1  0
  4  2  1  0
  4  5  1  6
  6  7  2  0
  6  4  1  0
  9  8  1  0
 10  9  2  0
 11  9  1  0
 12 11  1  0
 13 12  1  1
 13 14  1  0
 14  6  1  0
 15 24  1  0
 15 13  1  0
 16 15  2  0
 18 19  2  0
 18 17  1  0
 20 19  1  0
 21 20  2  0
 22 21  1  0
 23 24  1  0
 23 22  1  6
 25 23  1  0
 26 25  1  0
 27 21  1  0
 27 28  2  0
 28 18  1  0
 29 25  2  0
M  END
$$$$
