TQY.pdb
     RDKit          3D

 29 29  0  0  1  0  0  0  0  0999 V2000
   26.1468  -11.8510  -14.9265 C   0  0  0  0  0  0  0  0  0  0  0  0
   26.5835  -12.5454  -16.1979 C   0  0  1  0  0  0  0  0  0  0  0  0
   27.6637  -13.3794  -15.9586 O   0  0  0  0  0  0  0  0  0  0  0  0
   25.4396  -13.3445  -16.7579 C   0  0  2  0  0  0  0  0  0  0  0  0
   25.8402  -14.0702  -17.9414 N   0  0  0  0  0  0  0  0  0  0  0  0
   24.3179  -12.4573  -17.1378 C   0  0  0  0  0  0  0  0  0  0  0  0
   24.3238  -11.7435  -18.1755 O   0  0  0  0  0  0  0  0  0  0  0  0
   18.3826  -13.6248  -15.7569 N   0  0  0  0  0  0  0  0  0  0  0  0
   18.3045  -12.2709  -16.2301 C   0  0  0  0  0  0  0  0  0  0  0  0
   17.1901  -11.7184  -16.3848 O   0  0  0  0  0  0  0  0  0  0  0  0
   19.5291  -11.5211  -16.5355 C   0  0  0  0  0  0  0  0  0  0  0  0
   20.7915  -12.2828  -16.3811 C   0  0  0  0  0  0  0  0  0  0  0  0
   22.0493  -11.5095  -16.6983 C   0  0  2  0  0  0  0  0  0  0  0  0
   23.1564  -12.3798  -16.3138 N   0  0  0  0  0  0  0  0  0  0  0  0
   22.0149  -10.2814  -15.8967 C   0  0  0  0  0  0  0  0  0  0  0  0
   22.0881  -10.3408  -14.6552 O   0  0  0  0  0  0  0  0  0  0  0  0
   21.0992   -1.5798  -14.2463 O   0  0  0  0  0  0  0  0  0  0  0  0
   21.4099   -2.8231  -14.7978 C   0  0  0  0  0  0  0  0  0  0  0  0
   22.2206   -3.7159  -14.1318 C   0  0  0  0  0  0  0  0  0  0  0  0
   22.5340   -4.9445  -14.6648 C   0  0  0  0  0  0  0  0  0  0  0  0
   22.0388   -5.3356  -15.9098 C   0  0  0  0  0  0  0  0  0  0  0  0
   22.3924   -6.6483  -16.4706 C   0  0  0  0  0  0  0  0  0  0  0  0
   21.6744   -7.7846  -15.7818 C   0  0  2  0  0  0  0  0  0  0  0  0
   21.8988   -9.0248  -16.5229 N   0  0  0  0  0  0  0  0  0  0  0  0
   20.2334   -7.5164  -15.6722 C   0  0  0  0  0  0  0  0  0  0  0  0
   19.7275   -6.9655  -14.4817 O   0  0  0  0  0  0  0  0  0  0  0  0
   21.2288   -4.4243  -16.5587 C   0  0  0  0  0  0  0  0  0  0  0  0
   20.9171   -3.1880  -16.0155 C   0  0  0  0  0  0  0  0  0  0  0  0
   19.3953   -7.7372  -16.5592 O   0  0  0  0  0  0  0  0  0  0  0  0
  2  1  1  1
  2  3  1  0
  4  2  1  0
  4  5  1  6
  6  7  2  0
  6  4  1  0
  9  8  1  0
 10  9  2  0
 11  9  1  0
 12 11  1  0
 13 12  1  1
 13 14  1  0
 14  6  1  0
 15 24  1  0
 15 13  1  0
 16 15  2  0
 18 19  2  0
 18 17  1  0
 20 19  1  0
 21 20  2  0
 22 21  1  0
 23 24  1  0
 23 22  1  6
 25 23  1  0
 26 25  1  0
 27 21  1  0
 27 28  2  0
 28 18  1  0
 29 25  2  0
M  END
$$$$
