TQY.pdb
     RDKit          3D

 29 29  0  0  1  0  0  0  0  0999 V2000
   25.2902  -14.0994  -16.5189 C   0  0  0  0  0  0  0  0  0  0  0  0
   25.2120  -14.4520  -17.9882 C   0  0  1  0  0  0  0  0  0  0  0  0
   25.9002  -15.6254  -18.2515 O   0  0  0  0  0  0  0  0  0  0  0  0
   23.7732  -14.6047  -18.3973 C   0  0  2  0  0  0  0  0  0  0  0  0
   23.6650  -15.0557  -19.7657 N   0  0  0  0  0  0  0  0  0  0  0  0
   23.0605  -13.3119  -18.2966 C   0  0  0  0  0  0  0  0  0  0  0  0
   23.1691  -12.3955  -19.1537 O   0  0  0  0  0  0  0  0  0  0  0  0
   17.4459  -12.7788  -15.7895 N   0  0  0  0  0  0  0  0  0  0  0  0
   17.7719  -11.4086  -16.0711 C   0  0  0  0  0  0  0  0  0  0  0  0
   16.8929  -10.5192  -15.9861 O   0  0  0  0  0  0  0  0  0  0  0  0
   19.1378  -11.0370  -16.4599 C   0  0  0  0  0  0  0  0  0  0  0  0
   20.0900  -12.1668  -16.5813 C   0  0  0  0  0  0  0  0  0  0  0  0
   21.4501  -11.8028  -17.1271 C   0  0  2  0  0  0  0  0  0  0  0  0
   22.1994  -13.0540  -17.1892 N   0  0  0  0  0  0  0  0  0  0  0  0
   22.0519  -10.8507  -16.1872 C   0  0  0  0  0  0  0  0  0  0  0  0
   22.2161  -11.1665  -14.9940 O   0  0  0  0  0  0  0  0  0  0  0  0
   28.5551  -11.4276  -16.7197 O   0  0  0  0  0  0  0  0  0  0  0  0
   27.4731  -10.5515  -16.6278 C   0  0  0  0  0  0  0  0  0  0  0  0
   27.0963  -10.0086  -15.4190 C   0  0  0  0  0  0  0  0  0  0  0  0
   26.0318   -9.1438  -15.3154 C   0  0  0  0  0  0  0  0  0  0  0  0
   25.2879   -8.7812  -16.4395 C   0  0  0  0  0  0  0  0  0  0  0  0
   24.1457   -7.8640  -16.3100 C   0  0  0  0  0  0  0  0  0  0  0  0
   22.9300   -8.5338  -15.7145 C   0  0  2  0  0  0  0  0  0  0  0  0
   22.4493   -9.5720  -16.6247 N   0  0  0  0  0  0  0  0  0  0  0  0
   21.8609   -7.5604  -15.4501 C   0  0  0  0  0  0  0  0  0  0  0  0
   22.0527   -6.5848  -14.4561 O   0  0  0  0  0  0  0  0  0  0  0  0
   25.6841   -9.3382  -17.6398 C   0  0  0  0  0  0  0  0  0  0  0  0
   26.7579  -10.2089  -17.7367 C   0  0  0  0  0  0  0  0  0  0  0  0
   20.7709   -7.5173  -16.0402 O   0  0  0  0  0  0  0  0  0  0  0  0
  2  1  1  1
  2  3  1  0
  4  2  1  0
  4  5  1  6
  6  7  2  0
  6  4  1  0
  9  8  1  0
 10  9  2  0
 11  9  1  0
 12 11  1  0
 13 12  1  1
 13 14  1  0
 14  6  1  0
 15 24  1  0
 15 13  1  0
 16 15  2  0
 18 19  2  0
 18 17  1  0
 20 19  1  0
 21 20  2  0
 22 21  1  0
 23 24  1  0
 23 22  1  6
 25 23  1  0
 26 25  1  0
 27 21  1  0
 27 28  2  0
 28 18  1  0
 29 25  2  0
M  END
$$$$
