TQY.pdb
     RDKit          3D

 29 29  0  0  1  0  0  0  0  0999 V2000
   30.8640  -35.9440    2.0332 C   0  0  0  0  0  0  0  0  0  0  0  0
   31.6126  -35.8988    0.7191 C   0  0  1  0  0  0  0  0  0  0  0  0
   32.8285  -36.5553    0.8210 O   0  0  0  0  0  0  0  0  0  0  0  0
   30.7813  -36.5348   -0.3603 C   0  0  2  0  0  0  0  0  0  0  0  0
   31.4914  -36.5612   -1.6184 N   0  0  0  0  0  0  0  0  0  0  0  0
   29.5287  -35.7760   -0.5716 C   0  0  0  0  0  0  0  0  0  0  0  0
   29.4188  -34.8468   -1.4147 O   0  0  0  0  0  0  0  0  0  0  0  0
   26.3986  -36.3865   -3.3852 N   0  0  0  0  0  0  0  0  0  0  0  0
   26.8404  -37.5421   -2.6554 C   0  0  0  0  0  0  0  0  0  0  0  0
   27.2997  -38.5369   -3.2641 O   0  0  0  0  0  0  0  0  0  0  0  0
   26.7592  -37.5684   -1.1899 C   0  0  0  0  0  0  0  0  0  0  0  0
   26.1462  -36.3697   -0.5693 C   0  0  0  0  0  0  0  0  0  0  0  0
   27.1262  -35.3518   -0.0364 C   0  0  2  0  0  0  0  0  0  0  0  0
   28.3678  -36.0829    0.1980 N   0  0  0  0  0  0  0  0  0  0  0  0
   26.5615  -34.8192    1.2084 C   0  0  0  0  0  0  0  0  0  0  0  0
   26.7149  -35.4344    2.2800 O   0  0  0  0  0  0  0  0  0  0  0  0
   31.3584  -31.9065    4.4729 O   0  0  0  0  0  0  0  0  0  0  0  0
   30.0509  -31.8285    3.9925 C   0  0  0  0  0  0  0  0  0  0  0  0
   28.9870  -31.6442    4.8480 C   0  0  0  0  0  0  0  0  0  0  0  0
   27.6936  -31.5655    4.3866 C   0  0  0  0  0  0  0  0  0  0  0  0
   27.4086  -31.6702    3.0242 C   0  0  0  0  0  0  0  0  0  0  0  0
   26.0192  -31.5951    2.5483 C   0  0  0  0  0  0  0  0  0  0  0  0
   25.3748  -32.9556    2.4255 C   0  0  2  0  0  0  0  0  0  0  0  0
   25.8414  -33.6085    1.2034 N   0  0  0  0  0  0  0  0  0  0  0  0
   23.9087  -32.8521    2.4138 C   0  0  0  0  0  0  0  0  0  0  0  0
   23.2431  -32.4175    3.5734 O   0  0  0  0  0  0  0  0  0  0  0  0
   28.4909  -31.8549    2.1862 C   0  0  0  0  0  0  0  0  0  0  0  0
   29.7915  -31.9331    2.6582 C   0  0  0  0  0  0  0  0  0  0  0  0
   23.1805  -33.1206    1.4465 O   0  0  0  0  0  0  0  0  0  0  0  0
  2  1  1  1
  2  3  1  0
  4  2  1  0
  4  5  1  6
  6  7  2  0
  6  4  1  0
  9  8  1  0
 10  9  2  0
 11  9  1  0
 12 11  1  0
 13 12  1  1
 13 14  1  0
 14  6  1  0
 15 24  1  0
 15 13  1  0
 16 15  2  0
 18 19  2  0
 18 17  1  0
 20 19  1  0
 21 20  2  0
 22 21  1  0
 23 24  1  0
 23 22  1  6
 25 23  1  0
 26 25  1  0
 27 21  1  0
 27 28  2  0
 28 18  1  0
 29 25  2  0
M  END
$$$$
