TQY.pdb
     RDKit          3D

 29 29  0  0  1  0  0  0  0  0999 V2000
   23.0722   -7.6264  -22.2591 C   0  0  0  0  0  0  0  0  0  0  0  0
   23.3189   -9.0981  -22.0088 C   0  0  1  0  0  0  0  0  0  0  0  0
   24.3094   -9.5822  -22.8481 O   0  0  0  0  0  0  0  0  0  0  0  0
   23.7209   -9.3083  -20.5754 C   0  0  2  0  0  0  0  0  0  0  0  0
   24.0044  -10.7005  -20.3118 N   0  0  0  0  0  0  0  0  0  0  0  0
   22.6338   -8.8942  -19.6608 C   0  0  0  0  0  0  0  0  0  0  0  0
   22.0981   -7.7549  -19.6971 O   0  0  0  0  0  0  0  0  0  0  0  0
   19.2843  -12.9315  -16.0796 N   0  0  0  0  0  0  0  0  0  0  0  0
   18.7244  -11.6475  -15.7618 C   0  0  0  0  0  0  0  0  0  0  0  0
   17.7019  -11.5644  -15.0415 O   0  0  0  0  0  0  0  0  0  0  0  0
   19.3450  -10.4208  -16.2764 C   0  0  0  0  0  0  0  0  0  0  0  0
   20.4795  -10.6291  -17.2077 C   0  0  0  0  0  0  0  0  0  0  0  0
   21.1185   -9.3653  -17.7322 C   0  0  2  0  0  0  0  0  0  0  0  0
   22.1420   -9.8020  -18.6769 N   0  0  0  0  0  0  0  0  0  0  0  0
   21.6992   -8.6653  -16.5811 C   0  0  0  0  0  0  0  0  0  0  0  0
   22.7116   -9.1198  -16.0165 O   0  0  0  0  0  0  0  0  0  0  0  0
   25.8718   -4.2564  -19.1314 O   0  0  0  0  0  0  0  0  0  0  0  0
   24.8554   -4.5009  -18.2075 C   0  0  0  0  0  0  0  0  0  0  0  0
   25.1031   -4.4781  -16.8526 C   0  0  0  0  0  0  0  0  0  0  0  0
   24.1095   -4.7174  -15.9319 C   0  0  0  0  0  0  0  0  0  0  0  0
   22.8035   -4.9942  -16.3392 C   0  0  0  0  0  0  0  0  0  0  0  0
   21.7551   -5.2586  -15.3424 C   0  0  0  0  0  0  0  0  0  0  0  0
   21.6610   -6.7207  -14.9750 C   0  0  2  0  0  0  0  0  0  0  0  0
   21.1179   -7.4740  -16.1042 N   0  0  0  0  0  0  0  0  0  0  0  0
   20.8204   -6.9185  -13.7857 C   0  0  0  0  0  0  0  0  0  0  0  0
   19.6242   -7.6476  -13.9054 O   0  0  0  0  0  0  0  0  0  0  0  0
   22.5793   -5.0119  -17.7020 C   0  0  0  0  0  0  0  0  0  0  0  0
   23.5853   -4.7698  -18.6239 C   0  0  0  0  0  0  0  0  0  0  0  0
   21.0750   -6.4892  -12.6504 O   0  0  0  0  0  0  0  0  0  0  0  0
  2  1  1  1
  2  3  1  0
  4  2  1  0
  4  5  1  6
  6  7  2  0
  6  4  1  0
  9  8  1  0
 10  9  2  0
 11  9  1  0
 12 11  1  0
 13 12  1  1
 13 14  1  0
 14  6  1  0
 15 24  1  0
 15 13  1  0
 16 15  2  0
 18 19  2  0
 18 17  1  0
 20 19  1  0
 21 20  2  0
 22 21  1  0
 23 24  1  0
 23 22  1  6
 25 23  1  0
 26 25  1  0
 27 21  1  0
 27 28  2  0
 28 18  1  0
 29 25  2  0
M  END
$$$$
