TQY.pdb
     RDKit          3D

 29 29  0  0  1  0  0  0  0  0999 V2000
   29.1011  -22.8240  -15.9980 C   0  0  0  0  0  0  0  0  0  0  0  0
   28.5048  -22.0737  -14.8271 C   0  0  1  0  0  0  0  0  0  0  0  0
   29.5001  -21.5645  -14.0087 O   0  0  0  0  0  0  0  0  0  0  0  0
   27.6392  -20.9524  -15.3312 C   0  0  2  0  0  0  0  0  0  0  0  0
   28.3682  -20.0992  -16.2413 N   0  0  0  0  0  0  0  0  0  0  0  0
   27.1694  -20.1091  -14.2097 C   0  0  0  0  0  0  0  0  0  0  0  0
   27.2078  -18.8504  -14.2298 O   0  0  0  0  0  0  0  0  0  0  0  0
   23.5899  -18.6117  -14.9869 N   0  0  0  0  0  0  0  0  0  0  0  0
   23.1514  -19.7687  -14.2574 C   0  0  0  0  0  0  0  0  0  0  0  0
   22.1954  -20.4591  -14.6822 O   0  0  0  0  0  0  0  0  0  0  0  0
   23.8195  -20.1541  -13.0084 C   0  0  0  0  0  0  0  0  0  0  0  0
   24.8714  -19.2203  -12.5402 C   0  0  0  0  0  0  0  0  0  0  0  0
   26.1021  -19.8785  -11.9634 C   0  0  2  0  0  0  0  0  0  0  0  0
   26.6409  -20.7149  -13.0316 N   0  0  0  0  0  0  0  0  0  0  0  0
   25.6659  -20.6755  -10.8117 C   0  0  0  0  0  0  0  0  0  0  0  0
   25.3271  -21.8640  -10.9639 O   0  0  0  0  0  0  0  0  0  0  0  0
   30.7920  -19.6433   -5.4863 O   0  0  0  0  0  0  0  0  0  0  0  0
   29.4580  -19.7168   -5.8884 C   0  0  0  0  0  0  0  0  0  0  0  0
   28.6425  -20.7445   -5.4682 C   0  0  0  0  0  0  0  0  0  0  0  0
   27.3259  -20.8280   -5.8575 C   0  0  0  0  0  0  0  0  0  0  0  0
   26.7627  -19.8673   -6.6991 C   0  0  0  0  0  0  0  0  0  0  0  0
   25.3564  -19.9771   -7.1149 C   0  0  0  0  0  0  0  0  0  0  0  0
   25.1811  -20.8405   -8.3417 C   0  0  2  0  0  0  0  0  0  0  0  0
   25.6262  -20.1050   -9.5243 N   0  0  0  0  0  0  0  0  0  0  0  0
   23.7811  -21.2576   -8.5045 C   0  0  0  0  0  0  0  0  0  0  0  0
   23.2744  -22.2882   -7.6936 O   0  0  0  0  0  0  0  0  0  0  0  0
   27.5994  -18.8471   -7.1075 C   0  0  0  0  0  0  0  0  0  0  0  0
   28.9251  -18.7693   -6.7111 C   0  0  0  0  0  0  0  0  0  0  0  0
   22.9795  -20.7704   -9.3157 O   0  0  0  0  0  0  0  0  0  0  0  0
  2  1  1  6
  2  3  1  0
  4  2  1  0
  4  5  1  6
  6  7  2  0
  6  4  1  0
  9  8  1  0
 10  9  2  0
 11  9  1  0
 12 11  1  0
 13 12  1  6
 13 14  1  0
 14  6  1  0
 15 24  1  0
 15 13  1  0
 16 15  2  0
 18 19  2  0
 18 17  1  0
 20 19  1  0
 21 20  2  0
 22 21  1  0
 23 24  1  0
 23 22  1  1
 25 23  1  0
 26 25  1  0
 27 21  1  0
 27 28  2  0
 28 18  1  0
 29 25  2  0
M  END
$$$$
