STY.pdb
     RDKit          3D

 26 26  0  0  1  0  0  0  0  0999 V2000
   17.3178  -11.0819  -14.9465 O   0  0  0  0  0  0  0  0  0  0  0  0
   18.1944  -10.1174  -15.4949 C   0  0  0  0  0  0  0  0  0  0  0  0
   17.5602   -9.5445  -16.7691 C   0  0  2  0  0  0  0  0  0  0  0  0
   17.6762  -10.5487  -17.8004 N   0  0  0  0  0  0  0  0  0  0  0  0
   18.4358   -8.3907  -17.1563 C   0  0  0  0  0  0  0  0  0  0  0  0
   19.3982   -8.5322  -17.9439 O   0  0  0  0  0  0  0  0  0  0  0  0
   18.0581   -5.1881  -19.2306 C   0  0  0  0  0  0  0  0  0  0  0  0
   18.2262   -4.8352  -17.7574 C   0  0  1  0  0  0  0  0  0  0  0  0
   17.0637   -4.3521  -17.2007 O   0  0  0  0  0  0  0  0  0  0  0  0
   18.9127   -5.8991  -17.0022 C   0  0  2  0  0  0  0  0  0  0  0  0
   18.2345   -7.0756  -16.6613 N   0  0  0  0  0  0  0  0  0  0  0  0
   19.4623   -5.3010  -15.7453 C   0  0  0  0  0  0  0  0  0  0  0  0
   18.8064   -5.4942  -14.6913 O   0  0  0  0  0  0  0  0  0  0  0  0
   22.5270  -10.2222  -14.1422 O   0  0  0  0  0  0  0  0  0  0  0  0
   22.5580   -8.8291  -14.1726 C   0  0  0  0  0  0  0  0  0  0  0  0
   21.9988   -8.0942  -13.1492 C   0  0  0  0  0  0  0  0  0  0  0  0
   22.0316   -6.7194  -13.1828 C   0  0  0  0  0  0  0  0  0  0  0  0
   22.6250   -6.0159  -14.2411 C   0  0  0  0  0  0  0  0  0  0  0  0
   22.6112   -4.5435  -14.2506 C   0  0  0  0  0  0  0  0  0  0  0  0
   21.2342   -4.0321  -14.4643 C   0  0  2  0  0  0  0  0  0  0  0  0
   20.6417   -4.5561  -15.6900 N   0  0  0  0  0  0  0  0  0  0  0  0
   21.2313   -2.5655  -14.5725 C   0  0  0  0  0  0  0  0  0  0  0  0
   20.8547   -1.9316  -15.7363 O   0  0  0  0  0  0  0  0  0  0  0  0
   23.1718   -6.8053  -15.2439 C   0  0  0  0  0  0  0  0  0  0  0  0
   23.1475   -8.1765  -15.2251 C   0  0  0  0  0  0  0  0  0  0  0  0
   21.5863   -1.8479  -13.5745 O   0  0  0  0  0  0  0  0  0  0  0  0
  2  1  1  0
  3  4  1  6
  3  2  1  0
  5  3  1  0
  6  5  2  0
  8  7  1  6
  8 10  1  0
  9  8  1  0
 10 12  1  0
 10 11  1  1
 11  5  1  0
 12 21  1  0
 13 12  2  0
 15 14  1  0
 16 15  2  0
 17 16  1  0
 18 17  2  0
 18 24  1  0
 19 18  1  0
 20 19  1  6
 20 22  1  0
 21 20  1  0
 22 26  2  0
 22 23  1  0
 24 25  2  0
 25 15  1  0
M  END
$$$$
