STY.pdb
     RDKit          3D

 26 26  0  0  1  0  0  0  0  0999 V2000
   22.9802  -13.5117  -21.1482 O   0  0  0  0  0  0  0  0  0  0  0  0
   23.3252  -12.1995  -20.7500 C   0  0  0  0  0  0  0  0  0  0  0  0
   22.9079  -12.0040  -19.2866 C   0  0  2  0  0  0  0  0  0  0  0  0
   21.4941  -12.2847  -19.1977 N   0  0  0  0  0  0  0  0  0  0  0  0
   23.0994  -10.5414  -19.0181 C   0  0  0  0  0  0  0  0  0  0  0  0
   24.2308  -10.0080  -19.0639 O   0  0  0  0  0  0  0  0  0  0  0  0
   21.6464   -7.3399  -20.7147 C   0  0  0  0  0  0  0  0  0  0  0  0
   21.2228   -7.3769  -19.2512 C   0  0  1  0  0  0  0  0  0  0  0  0
   19.8606   -7.5111  -19.1054 O   0  0  0  0  0  0  0  0  0  0  0  0
   22.0535   -8.2954  -18.4514 C   0  0  2  0  0  0  0  0  0  0  0  0
   22.0228   -9.6734  -18.6975 N   0  0  0  0  0  0  0  0  0  0  0  0
   21.7348   -8.0764  -17.0056 C   0  0  0  0  0  0  0  0  0  0  0  0
   21.0695   -8.9730  -16.4294 O   0  0  0  0  0  0  0  0  0  0  0  0
   24.1533   -1.1529  -16.8954 O   0  0  0  0  0  0  0  0  0  0  0  0
   23.8901   -2.3599  -16.2499 C   0  0  0  0  0  0  0  0  0  0  0  0
   23.0390   -2.4030  -15.1665 C   0  0  0  0  0  0  0  0  0  0  0  0
   22.7817   -3.5963  -14.5322 C   0  0  0  0  0  0  0  0  0  0  0  0
   23.3635   -4.8015  -14.9519 C   0  0  0  0  0  0  0  0  0  0  0  0
   23.0830   -6.0509  -14.2250 C   0  0  0  0  0  0  0  0  0  0  0  0
   21.9482   -6.7777  -14.8473 C   0  0  2  0  0  0  0  0  0  0  0  0
   22.1325   -6.9494  -16.2842 N   0  0  0  0  0  0  0  0  0  0  0  0
   20.6882   -6.0442  -14.6552 C   0  0  0  0  0  0  0  0  0  0  0  0
   19.9950   -5.5150  -15.7217 O   0  0  0  0  0  0  0  0  0  0  0  0
   24.2117   -4.6998  -16.0463 C   0  0  0  0  0  0  0  0  0  0  0  0
   24.4784   -3.5182  -16.6897 C   0  0  0  0  0  0  0  0  0  0  0  0
   20.2133   -5.8823  -13.4782 O   0  0  0  0  0  0  0  0  0  0  0  0
  2  1  1  0
  3  4  1  6
  3  2  1  0
  5  3  1  0
  6  5  2  0
  8  7  1  6
  8 10  1  0
  9  8  1  0
 10 12  1  0
 10 11  1  6
 11  5  1  0
 12 21  1  0
 13 12  2  0
 15 14  1  0
 16 15  2  0
 17 16  1  0
 18 17  2  0
 18 24  1  0
 19 18  1  0
 20 19  1  6
 20 22  1  0
 21 20  1  0
 22 26  2  0
 22 23  1  0
 24 25  2  0
 25 15  1  0
M  END
$$$$
