STY.pdb
     RDKit          3D

 26 26  0  0  1  0  0  0  0  0999 V2000
   21.1429  -23.9140  -13.8743 O   0  0  0  0  0  0  0  0  0  0  0  0
   21.4097  -24.3605  -15.1891 C   0  0  0  0  0  0  0  0  0  0  0  0
   22.2095  -23.2767  -15.9237 C   0  0  2  0  0  0  0  0  0  0  0  0
   22.4149  -23.7328  -17.2785 N   0  0  0  0  0  0  0  0  0  0  0  0
   23.5460  -23.2501  -15.2447 C   0  0  0  0  0  0  0  0  0  0  0  0
   24.4294  -24.0991  -15.5004 O   0  0  0  0  0  0  0  0  0  0  0  0
   24.9982  -19.4550  -14.5191 C   0  0  0  0  0  0  0  0  0  0  0  0
   25.8347  -20.7285  -14.5560 C   0  0  1  0  0  0  0  0  0  0  0  0
   27.1469  -20.5012  -14.2080 O   0  0  0  0  0  0  0  0  0  0  0  0
   25.1697  -21.8545  -13.8753 C   0  0  2  0  0  0  0  0  0  0  0  0
   23.8950  -22.2715  -14.2774 N   0  0  0  0  0  0  0  0  0  0  0  0
   25.1167  -21.5509  -12.4108 C   0  0  0  0  0  0  0  0  0  0  0  0
   24.0263  -21.1191  -11.9603 O   0  0  0  0  0  0  0  0  0  0  0  0
   27.7401  -18.9680   -4.4245 O   0  0  0  0  0  0  0  0  0  0  0  0
   27.7206  -19.4974   -5.7137 C   0  0  0  0  0  0  0  0  0  0  0  0
   26.7039  -20.3402   -6.1088 C   0  0  0  0  0  0  0  0  0  0  0  0
   26.6882  -20.8605   -7.3821 C   0  0  0  0  0  0  0  0  0  0  0  0
   27.6882  -20.5620   -8.3192 C   0  0  0  0  0  0  0  0  0  0  0  0
   27.6475  -21.1650   -9.6619 C   0  0  0  0  0  0  0  0  0  0  0  0
   26.2583  -21.1924  -10.1840 C   0  0  2  0  0  0  0  0  0  0  0  0
   26.1962  -21.7210  -11.5423 N   0  0  0  0  0  0  0  0  0  0  0  0
   25.6848  -19.8387  -10.2177 C   0  0  0  0  0  0  0  0  0  0  0  0
   24.6641  -19.4693   -9.3692 O   0  0  0  0  0  0  0  0  0  0  0  0
   28.6867  -19.7094   -7.8681 C   0  0  0  0  0  0  0  0  0  0  0  0
   28.7167  -19.1823   -6.6023 C   0  0  0  0  0  0  0  0  0  0  0  0
   26.1299  -18.9740  -11.0491 O   0  0  0  0  0  0  0  0  0  0  0  0
  2  1  1  0
  3  4  1  6
  3  2  1  0
  5  3  1  0
  6  5  2  0
  8  7  1  1
  8 10  1  0
  9  8  1  0
 10 12  1  0
 10 11  1  6
 11  5  1  0
 12 21  1  0
 13 12  2  0
 15 14  1  0
 16 15  2  0
 17 16  1  0
 18 17  2  0
 18 24  1  0
 19 18  1  0
 20 19  1  6
 20 22  1  0
 21 20  1  0
 22 26  2  0
 22 23  1  0
 24 25  2  0
 25 15  1  0
M  END
$$$$
