STY.pdb
     RDKit          3D

 26 26  0  0  1  0  0  0  0  0999 V2000
   16.5948  -15.0184  -14.2610 O   0  0  0  0  0  0  0  0  0  0  0  0
   17.7535  -14.3404  -14.7048 C   0  0  0  0  0  0  0  0  0  0  0  0
   17.6781  -14.1834  -16.2291 C   0  0  2  0  0  0  0  0  0  0  0  0
   18.1837  -15.4022  -16.8160 N   0  0  0  0  0  0  0  0  0  0  0  0
   18.6447  -13.0852  -16.5568 C   0  0  0  0  0  0  0  0  0  0  0  0
   19.8369  -13.3261  -16.8518 O   0  0  0  0  0  0  0  0  0  0  0  0
   18.0191  -10.3037  -19.3266 C   0  0  0  0  0  0  0  0  0  0  0  0
   18.3418   -9.6681  -17.9794 C   0  0  1  0  0  0  0  0  0  0  0  0
   17.2796   -8.9554  -17.4709 O   0  0  0  0  0  0  0  0  0  0  0  0
   18.9880  -10.6165  -17.0540 C   0  0  2  0  0  0  0  0  0  0  0  0
   18.2766  -11.7141  -16.5545 N   0  0  0  0  0  0  0  0  0  0  0  0
   19.5234   -9.8434  -15.8898 C   0  0  0  0  0  0  0  0  0  0  0  0
   18.9594  -10.0237  -14.7817 O   0  0  0  0  0  0  0  0  0  0  0  0
   22.1354   -1.9536  -14.4354 O   0  0  0  0  0  0  0  0  0  0  0  0
   22.2188   -3.3338  -14.6108 C   0  0  0  0  0  0  0  0  0  0  0  0
   22.3044   -3.8746  -15.8758 C   0  0  0  0  0  0  0  0  0  0  0  0
   22.3866   -5.2374  -16.0446 C   0  0  0  0  0  0  0  0  0  0  0  0
   22.3872   -6.1223  -14.9565 C   0  0  0  0  0  0  0  0  0  0  0  0
   22.4470   -7.5757  -15.1848 C   0  0  0  0  0  0  0  0  0  0  0  0
   21.1509   -8.2149  -14.8460 C   0  0  2  0  0  0  0  0  0  0  0  0
   20.5947   -8.9525  -15.9750 N   0  0  0  0  0  0  0  0  0  0  0  0
   20.1561   -7.2055  -14.4536 C   0  0  0  0  0  0  0  0  0  0  0  0
   20.0009   -6.8225  -13.1393 O   0  0  0  0  0  0  0  0  0  0  0  0
   22.2988   -5.5239  -13.7067 C   0  0  0  0  0  0  0  0  0  0  0  0
   22.2163   -4.1674  -13.5216 C   0  0  0  0  0  0  0  0  0  0  0  0
   19.4084   -6.6635  -15.3392 O   0  0  0  0  0  0  0  0  0  0  0  0
  2  1  1  0
  3  4  1  6
  3  2  1  0
  5  3  1  0
  6  5  2  0
  8  7  1  6
  8 10  1  0
  9  8  1  0
 10 12  1  0
 10 11  1  1
 11  5  1  0
 12 21  1  0
 13 12  2  0
 15 14  1  0
 16 15  2  0
 17 16  1  0
 18 17  2  0
 18 24  1  0
 19 18  1  0
 20 19  1  6
 20 22  1  0
 21 20  1  0
 22 26  2  0
 22 23  1  0
 24 25  2  0
 25 15  1  0
M  END
$$$$
