STY.pdb
     RDKit          3D

 26 26  0  0  1  0  0  0  0  0999 V2000
   14.3702  -12.2824  -16.0017 O   0  0  0  0  0  0  0  0  0  0  0  0
   15.5564  -12.5345  -15.2747 C   0  0  0  0  0  0  0  0  0  0  0  0
   16.3656  -13.6098  -16.0114 C   0  0  2  0  0  0  0  0  0  0  0  0
   16.0110  -14.8874  -15.4391 N   0  0  0  0  0  0  0  0  0  0  0  0
   17.7959  -13.3334  -15.6570 C   0  0  0  0  0  0  0  0  0  0  0  0
   18.3653  -13.9274  -14.7138 O   0  0  0  0  0  0  0  0  0  0  0  0
   21.1111  -14.1522  -17.0526 C   0  0  0  0  0  0  0  0  0  0  0  0
   20.9336  -12.6436  -17.1779 C   0  0  1  0  0  0  0  0  0  0  0  0
   20.7691  -12.2443  -18.4850 O   0  0  0  0  0  0  0  0  0  0  0  0
   19.9556  -12.1132  -16.2106 C   0  0  2  0  0  0  0  0  0  0  0  0
   18.5912  -12.3903  -16.3593 N   0  0  0  0  0  0  0  0  0  0  0  0
   20.1214  -10.6274  -16.1440 C   0  0  0  0  0  0  0  0  0  0  0  0
   19.2376   -9.9324  -16.7047 O   0  0  0  0  0  0  0  0  0  0  0  0
   23.1066   -2.4910  -14.7505 O   0  0  0  0  0  0  0  0  0  0  0  0
   22.9134   -3.8689  -14.6673 C   0  0  0  0  0  0  0  0  0  0  0  0
   23.7981   -4.7372  -15.2703 C   0  0  0  0  0  0  0  0  0  0  0  0
   23.6040   -6.0964  -15.1858 C   0  0  0  0  0  0  0  0  0  0  0  0
   22.5165   -6.6502  -14.4945 C   0  0  0  0  0  0  0  0  0  0  0  0
   22.3314   -8.1104  -14.4547 C   0  0  0  0  0  0  0  0  0  0  0  0
   21.4566   -8.5600  -15.5664 C   0  0  2  0  0  0  0  0  0  0  0  0
   21.1868   -9.9922  -15.5034 N   0  0  0  0  0  0  0  0  0  0  0  0
   22.0859   -8.2930  -16.8685 C   0  0  0  0  0  0  0  0  0  0  0  0
   21.7831   -7.1618  -17.5944 O   0  0  0  0  0  0  0  0  0  0  0  0
   21.6579   -5.7307  -13.9073 C   0  0  0  0  0  0  0  0  0  0  0  0
   21.8374   -4.3730  -13.9822 C   0  0  0  0  0  0  0  0  0  0  0  0
   22.9328   -9.1204  -17.3533 O   0  0  0  0  0  0  0  0  0  0  0  0
  2  1  1  0
  3  4  1  1
  3  2  1  0
  5  3  1  0
  6  5  2  0
  8  7  1  6
  8 10  1  0
  9  8  1  0
 10 12  1  0
 10 11  1  6
 11  5  1  0
 12 21  1  0
 13 12  2  0
 15 14  1  0
 16 15  2  0
 17 16  1  0
 18 17  2  0
 18 24  1  0
 19 18  1  0
 20 19  1  1
 20 22  1  0
 21 20  1  0
 22 26  2  0
 22 23  1  0
 24 25  2  0
 25 15  1  0
M  END
$$$$
