STY.pdb
     RDKit          3D

 26 26  0  0  1  0  0  0  0  0999 V2000
   22.2863  -25.3567  -14.7270 O   0  0  0  0  0  0  0  0  0  0  0  0
   23.0661  -24.2311  -14.3745 C   0  0  0  0  0  0  0  0  0  0  0  0
   24.1040  -23.9868  -15.4777 C   0  0  2  0  0  0  0  0  0  0  0  0
   24.5174  -25.2771  -15.9775 N   0  0  0  0  0  0  0  0  0  0  0  0
   25.2791  -23.3714  -14.7788 C   0  0  0  0  0  0  0  0  0  0  0  0
   26.4257  -23.8662  -14.8624 O   0  0  0  0  0  0  0  0  0  0  0  0
   26.9393  -19.9389  -15.3311 C   0  0  0  0  0  0  0  0  0  0  0  0
   26.3684  -20.0126  -13.9199 C   0  0  1  0  0  0  0  0  0  0  0  0
   25.2858  -19.1794  -13.7508 O   0  0  0  0  0  0  0  0  0  0  0  0
   26.1947  -21.4021  -13.4586 C   0  0  2  0  0  0  0  0  0  0  0  0
   25.1712  -22.1998  -13.9846 N   0  0  0  0  0  0  0  0  0  0  0  0
   26.0501  -21.3864  -11.9692 C   0  0  0  0  0  0  0  0  0  0  0  0
   24.9017  -21.6046  -11.5086 O   0  0  0  0  0  0  0  0  0  0  0  0
   27.3902  -19.5876   -3.4683 O   0  0  0  0  0  0  0  0  0  0  0  0
   27.5969  -19.8028   -4.8298 C   0  0  0  0  0  0  0  0  0  0  0  0
   27.5449  -18.7519   -5.7203 C   0  0  0  0  0  0  0  0  0  0  0  0
   27.7496  -18.9685   -7.0632 C   0  0  0  0  0  0  0  0  0  0  0  0
   28.0158  -20.2458   -7.5779 C   0  0  0  0  0  0  0  0  0  0  0  0
   28.1993  -20.4363   -9.0264 C   0  0  0  0  0  0  0  0  0  0  0  0
   26.9588  -20.9629   -9.6486 C   0  0  2  0  0  0  0  0  0  0  0  0
   27.1061  -21.1464  -11.0883 N   0  0  0  0  0  0  0  0  0  0  0  0
   25.8352  -20.0372   -9.4410 C   0  0  0  0  0  0  0  0  0  0  0  0
   24.8659  -20.2846   -8.4936 O   0  0  0  0  0  0  0  0  0  0  0  0
   28.0564  -21.2663   -6.6374 C   0  0  0  0  0  0  0  0  0  0  0  0
   27.8547  -21.0669   -5.2955 C   0  0  0  0  0  0  0  0  0  0  0  0
   25.7392  -18.9759  -10.1491 O   0  0  0  0  0  0  0  0  0  0  0  0
  2  1  1  0
  3  4  1  1
  3  2  1  0
  5  3  1  0
  6  5  2  0
  8  7  1  6
  8 10  1  0
  9  8  1  0
 10 12  1  0
 10 11  1  6
 11  5  1  0
 12 21  1  0
 13 12  2  0
 15 14  1  0
 16 15  2  0
 17 16  1  0
 18 17  2  0
 18 24  1  0
 19 18  1  0
 20 19  1  6
 20 22  1  0
 21 20  1  0
 22 26  2  0
 22 23  1  0
 24 25  2  0
 25 15  1  0
M  END
$$$$
