STY.pdb
     RDKit          3D

 26 26  0  0  1  0  0  0  0  0999 V2000
   25.3138   -9.7940  -22.5129 O   0  0  0  0  0  0  0  0  0  0  0  0
   25.6735   -9.3992  -21.2036 C   0  0  0  0  0  0  0  0  0  0  0  0
   26.0059  -10.6538  -20.3855 C   0  0  2  0  0  0  0  0  0  0  0  0
   25.6870  -11.8012  -21.2025 N   0  0  0  0  0  0  0  0  0  0  0  0
   25.0464  -10.6343  -19.2336 C   0  0  0  0  0  0  0  0  0  0  0  0
   23.8269  -10.8681  -19.3907 O   0  0  0  0  0  0  0  0  0  0  0  0
   26.5871   -9.7805  -15.2366 C   0  0  0  0  0  0  0  0  0  0  0  0
   25.3274  -10.6173  -15.4258 C   0  0  1  0  0  0  0  0  0  0  0  0
   24.4995  -10.5700  -14.3271 O   0  0  0  0  0  0  0  0  0  0  0  0
   24.6860  -10.3755  -16.7311 C   0  0  2  0  0  0  0  0  0  0  0  0
   25.4522  -10.3524  -17.9028 N   0  0  0  0  0  0  0  0  0  0  0  0
   23.9276   -9.0880  -16.6487 C   0  0  0  0  0  0  0  0  0  0  0  0
   24.5452   -8.0440  -16.9761 O   0  0  0  0  0  0  0  0  0  0  0  0
   17.7671  -12.4549  -14.8487 O   0  0  0  0  0  0  0  0  0  0  0  0
   18.4328  -11.3478  -15.3719 C   0  0  0  0  0  0  0  0  0  0  0  0
   19.2408  -11.4768  -16.4812 C   0  0  0  0  0  0  0  0  0  0  0  0
   19.8959  -10.3816  -16.9947 C   0  0  0  0  0  0  0  0  0  0  0  0
   19.7735   -9.1069  -16.4227 C   0  0  0  0  0  0  0  0  0  0  0  0
   20.5165   -7.9680  -16.9876 C   0  0  0  0  0  0  0  0  0  0  0  0
   21.8021   -7.7722  -16.2720 C   0  0  2  0  0  0  0  0  0  0  0  0
   22.5976   -8.9945  -16.2350 N   0  0  0  0  0  0  0  0  0  0  0  0
   21.5689   -7.3629  -14.8789 C   0  0  0  0  0  0  0  0  0  0  0  0
   20.9843   -6.1532  -14.5737 O   0  0  0  0  0  0  0  0  0  0  0  0
   18.9483   -9.0347  -15.3085 C   0  0  0  0  0  0  0  0  0  0  0  0
   18.2882  -10.1168  -14.7846 C   0  0  0  0  0  0  0  0  0  0  0  0
   21.9131   -8.1339  -13.9176 O   0  0  0  0  0  0  0  0  0  0  0  0
  2  1  1  0
  3  4  1  6
  3  2  1  0
  5  3  1  0
  6  5  2  0
  8  7  1  1
  8 10  1  0
  9  8  1  0
 10 12  1  0
 10 11  1  6
 11  5  1  0
 12 21  1  0
 13 12  2  0
 15 14  1  0
 16 15  2  0
 17 16  1  0
 18 17  2  0
 18 24  1  0
 19 18  1  0
 20 19  1  1
 20 22  1  0
 21 20  1  0
 22 26  2  0
 22 23  1  0
 24 25  2  0
 25 15  1  0
M  END
$$$$
