STY.pdb
     RDKit          3D

 26 26  0  0  1  0  0  0  0  0999 V2000
   26.9767  -23.2021  -16.1051 O   0  0  0  0  0  0  0  0  0  0  0  0
   25.8515  -22.5264  -15.5790 C   0  0  0  0  0  0  0  0  0  0  0  0
   25.8436  -21.0902  -16.1186 C   0  0  2  0  0  0  0  0  0  0  0  0
   27.1718  -20.5522  -15.9390 N   0  0  0  0  0  0  0  0  0  0  0  0
   24.9202  -20.3364  -15.2091 C   0  0  0  0  0  0  0  0  0  0  0  0
   25.3311  -19.4038  -14.4825 O   0  0  0  0  0  0  0  0  0  0  0  0
   22.1162  -17.9287  -15.8945 C   0  0  0  0  0  0  0  0  0  0  0  0
   21.5242  -19.1527  -15.2058 C   0  0  1  0  0  0  0  0  0  0  0  0
   20.7252  -19.8907  -16.0493 O   0  0  0  0  0  0  0  0  0  0  0  0
   22.5346  -19.9092  -14.4439 C   0  0  2  0  0  0  0  0  0  0  0  0
   23.5341  -20.6267  -15.1122 N   0  0  0  0  0  0  0  0  0  0  0  0
   21.8205  -20.8534  -13.5285 C   0  0  0  0  0  0  0  0  0  0  0  0
   21.9024  -22.0774  -13.8000 O   0  0  0  0  0  0  0  0  0  0  0  0
   17.6385  -24.3745   -6.6116 O   0  0  0  0  0  0  0  0  0  0  0  0
   18.2270  -23.4791   -7.5030 C   0  0  0  0  0  0  0  0  0  0  0  0
   19.5980  -23.3488   -7.5611 C   0  0  0  0  0  0  0  0  0  0  0  0
   20.1750  -22.4641   -8.4424 C   0  0  0  0  0  0  0  0  0  0  0  0
   19.4079  -21.6688   -9.3062 C   0  0  0  0  0  0  0  0  0  0  0  0
   20.0664  -20.7134  -10.2127 C   0  0  0  0  0  0  0  0  0  0  0  0
   20.3724  -21.3520  -11.5172 C   0  0  2  0  0  0  0  0  0  0  0  0
   21.0851  -20.4480  -12.4133 N   0  0  0  0  0  0  0  0  0  0  0  0
   19.1371  -21.7596  -12.2032 C   0  0  0  0  0  0  0  0  0  0  0  0
   18.6718  -23.0546  -12.1361 O   0  0  0  0  0  0  0  0  0  0  0  0
   18.0338  -21.8404   -9.2051 C   0  0  0  0  0  0  0  0  0  0  0  0
   17.4432  -22.7181   -8.3322 C   0  0  0  0  0  0  0  0  0  0  0  0
   18.4698  -20.9061  -12.8838 O   0  0  0  0  0  0  0  0  0  0  0  0
  2  1  1  0
  3  4  1  1
  3  2  1  0
  5  3  1  0
  6  5  2  0
  8  7  1  6
  8 10  1  0
  9  8  1  0
 10 12  1  0
 10 11  1  6
 11  5  1  0
 12 21  1  0
 13 12  2  0
 15 14  1  0
 16 15  2  0
 17 16  1  0
 18 17  2  0
 18 24  1  0
 19 18  1  0
 20 19  1  1
 20 22  1  0
 21 20  1  0
 22 26  2  0
 22 23  1  0
 24 25  2  0
 25 15  1  0
M  END
$$$$
