STY.pdb
     RDKit          3D

 26 26  0  0  1  0  0  0  0  0999 V2000
   25.6004  -19.4409   -8.2560 O   0  0  0  0  0  0  0  0  0  0  0  0
   25.8577  -19.5176   -9.6443 C   0  0  0  0  0  0  0  0  0  0  0  0
   26.0596  -20.9897  -10.0265 C   0  0  2  0  0  0  0  0  0  0  0  0
   27.4227  -21.3390   -9.7016 N   0  0  0  0  0  0  0  0  0  0  0  0
   25.9233  -21.0278  -11.5191 C   0  0  0  0  0  0  0  0  0  0  0  0
   26.8723  -20.7162  -12.2733 O   0  0  0  0  0  0  0  0  0  0  0  0
   24.7407  -23.9866  -13.9969 C   0  0  0  0  0  0  0  0  0  0  0  0
   23.8261  -22.7693  -14.0627 C   0  0  1  0  0  0  0  0  0  0  0  0
   22.5654  -23.0369  -13.5791 O   0  0  0  0  0  0  0  0  0  0  0  0
   24.4754  -21.5529  -13.5408 C   0  0  2  0  0  0  0  0  0  0  0  0
   24.7225  -21.4154  -12.1695 N   0  0  0  0  0  0  0  0  0  0  0  0
   23.6785  -20.3679  -13.9885 C   0  0  0  0  0  0  0  0  0  0  0  0
   22.9749  -19.7962  -13.1187 O   0  0  0  0  0  0  0  0  0  0  0  0
   20.4943  -13.6236  -18.7310 O   0  0  0  0  0  0  0  0  0  0  0  0
   21.2041  -14.7466  -18.3094 C   0  0  0  0  0  0  0  0  0  0  0  0
   22.4685  -14.6158  -17.7763 C   0  0  0  0  0  0  0  0  0  0  0  0
   23.1657  -15.7267  -17.3612 C   0  0  0  0  0  0  0  0  0  0  0  0
   22.6309  -17.0195  -17.4600 C   0  0  0  0  0  0  0  0  0  0  0  0
   23.4244  -18.1832  -17.0307 C   0  0  0  0  0  0  0  0  0  0  0  0
   22.9046  -18.7314  -15.7530 C   0  0  2  0  0  0  0  0  0  0  0  0
   23.6802  -19.8794  -15.2963 N   0  0  0  0  0  0  0  0  0  0  0  0
   21.5121  -19.1796  -15.9035 C   0  0  0  0  0  0  0  0  0  0  0  0
   20.4574  -18.4062  -15.4704 O   0  0  0  0  0  0  0  0  0  0  0  0
   21.3556  -17.0926  -18.0041 C   0  0  0  0  0  0  0  0  0  0  0  0
   20.6475  -15.9951  -18.4224 C   0  0  0  0  0  0  0  0  0  0  0  0
   21.2573  -20.3111  -16.4437 O   0  0  0  0  0  0  0  0  0  0  0  0
  2  1  1  0
  3  4  1  6
  3  2  1  0
  5  3  1  0
  6  5  2  0
  8  7  1  1
  8 10  1  0
  9  8  1  0
 10 12  1  0
 10 11  1  1
 11  5  1  0
 12 21  1  0
 13 12  2  0
 15 14  1  0
 16 15  2  0
 17 16  1  0
 18 17  2  0
 18 24  1  0
 19 18  1  0
 20 19  1  6
 20 22  1  0
 21 20  1  0
 22 26  2  0
 22 23  1  0
 24 25  2  0
 25 15  1  0
M  END
$$$$
