STY.pdb
     RDKit          3D

 26 26  0  0  1  0  0  0  0  0999 V2000
   20.0693  -14.3632  -21.4884 O   0  0  0  0  0  0  0  0  0  0  0  0
   20.2363  -13.7610  -20.2200 C   0  0  0  0  0  0  0  0  0  0  0  0
   21.7249  -13.7970  -19.8506 C   0  0  2  0  0  0  0  0  0  0  0  0
   22.0580  -15.1640  -19.5250 N   0  0  0  0  0  0  0  0  0  0  0  0
   21.8346  -12.9895  -18.5921 C   0  0  0  0  0  0  0  0  0  0  0  0
   21.5089  -13.4606  -17.4792 O   0  0  0  0  0  0  0  0  0  0  0  0
   24.6951  -11.8393  -16.5930 C   0  0  0  0  0  0  0  0  0  0  0  0
   23.9912  -10.5788  -17.0815 C   0  0  1  0  0  0  0  0  0  0  0  0
   24.7545   -9.8707  -17.9819 O   0  0  0  0  0  0  0  0  0  0  0  0
   22.5945  -10.8357  -17.4771 C   0  0  2  0  0  0  0  0  0  0  0  0
   22.3095  -11.6518  -18.5786 N   0  0  0  0  0  0  0  0  0  0  0  0
   21.9183   -9.5178  -17.6904 C   0  0  0  0  0  0  0  0  0  0  0  0
   21.9195   -9.0627  -18.8615 O   0  0  0  0  0  0  0  0  0  0  0  0
   15.8487  -10.8522  -19.2722 O   0  0  0  0  0  0  0  0  0  0  0  0
   16.6845  -10.0238  -18.5253 C   0  0  0  0  0  0  0  0  0  0  0  0
   17.3642   -8.9877  -19.1291 C   0  0  0  0  0  0  0  0  0  0  0  0
   18.1880   -8.1723  -18.3883 C   0  0  0  0  0  0  0  0  0  0  0  0
   18.3704   -8.3552  -17.0098 C   0  0  0  0  0  0  0  0  0  0  0  0
   19.2850   -7.4767  -16.2615 C   0  0  0  0  0  0  0  0  0  0  0  0
   20.6429   -7.4990  -16.8607 C   0  0  2  0  0  0  0  0  0  0  0  0
   21.3008   -8.7875  -16.6735 N   0  0  0  0  0  0  0  0  0  0  0  0
   21.5036   -6.4779  -16.2450 C   0  0  0  0  0  0  0  0  0  0  0  0
   21.1890   -5.1382  -16.3108 O   0  0  0  0  0  0  0  0  0  0  0  0
   17.6628   -9.4126  -16.4541 C   0  0  0  0  0  0  0  0  0  0  0  0
   16.8375  -10.2344  -17.1786 C   0  0  0  0  0  0  0  0  0  0  0  0
   22.5730   -6.8240  -15.6339 O   0  0  0  0  0  0  0  0  0  0  0  0
  2  1  1  0
  3  4  1  1
  3  2  1  0
  5  3  1  0
  6  5  2  0
  8  7  1  6
  8 10  1  0
  9  8  1  0
 10 12  1  0
 10 11  1  6
 11  5  1  0
 12 21  1  0
 13 12  2  0
 15 14  1  0
 16 15  2  0
 17 16  1  0
 18 17  2  0
 18 24  1  0
 19 18  1  0
 20 19  1  1
 20 22  1  0
 21 20  1  0
 22 26  2  0
 22 23  1  0
 24 25  2  0
 25 15  1  0
M  END
$$$$
