STY.pdb
     RDKit          3D

 26 26  0  0  1  0  0  0  0  0999 V2000
   19.5508  -13.8544  -17.7056 O   0  0  0  0  0  0  0  0  0  0  0  0
   20.4087  -12.7512  -17.4904 C   0  0  0  0  0  0  0  0  0  0  0  0
   20.8924  -12.2317  -18.8505 C   0  0  2  0  0  0  0  0  0  0  0  0
   22.1313  -12.9076  -19.1570 N   0  0  0  0  0  0  0  0  0  0  0  0
   21.2075  -10.7833  -18.6257 C   0  0  0  0  0  0  0  0  0  0  0  0
   22.3713  -10.3952  -18.3779 O   0  0  0  0  0  0  0  0  0  0  0  0
   19.8134   -6.0108  -19.1000 C   0  0  0  0  0  0  0  0  0  0  0  0
   19.3692   -7.4681  -19.1443 C   0  0  1  0  0  0  0  0  0  0  0  0
   18.8529   -7.8191  -20.3711 O   0  0  0  0  0  0  0  0  0  0  0  0
   20.3834   -8.3794  -18.5836 C   0  0  2  0  0  0  0  0  0  0  0  0
   20.2182   -9.7665  -18.6781 N   0  0  0  0  0  0  0  0  0  0  0  0
   20.5768   -8.0337  -17.1404 C   0  0  0  0  0  0  0  0  0  0  0  0
   19.8912   -8.6764  -16.3065 O   0  0  0  0  0  0  0  0  0  0  0  0
   26.9737   -4.6496  -18.2312 O   0  0  0  0  0  0  0  0  0  0  0  0
   26.0220   -5.2674  -17.4217 C   0  0  0  0  0  0  0  0  0  0  0  0
   25.4737   -4.5967  -16.3496 C   0  0  0  0  0  0  0  0  0  0  0  0
   24.5346   -5.2099  -15.5531 C   0  0  0  0  0  0  0  0  0  0  0  0
   24.1003   -6.5220  -15.7919 C   0  0  0  0  0  0  0  0  0  0  0  0
   23.1148   -7.1497  -14.8959 C   0  0  0  0  0  0  0  0  0  0  0  0
   21.7338   -6.7675  -15.2834 C   0  0  2  0  0  0  0  0  0  0  0  0
   21.4621   -7.0539  -16.6877 N   0  0  0  0  0  0  0  0  0  0  0  0
   21.5133   -5.3274  -15.0828 C   0  0  0  0  0  0  0  0  0  0  0  0
   21.4851   -4.7736  -13.8216 O   0  0  0  0  0  0  0  0  0  0  0  0
   24.6853   -7.1498  -16.8834 C   0  0  0  0  0  0  0  0  0  0  0  0
   25.6225   -6.5524  -17.6870 C   0  0  0  0  0  0  0  0  0  0  0  0
   21.3392   -4.5587  -16.0906 O   0  0  0  0  0  0  0  0  0  0  0  0
  2  1  1  0
  3  4  1  1
  3  2  1  0
  5  3  1  0
  6  5  2  0
  8  7  1  6
  8 10  1  0
  9  8  1  0
 10 12  1  0
 10 11  1  1
 11  5  1  0
 12 21  1  0
 13 12  2  0
 15 14  1  0
 16 15  2  0
 17 16  1  0
 18 17  2  0
 18 24  1  0
 19 18  1  0
 20 19  1  6
 20 22  1  0
 21 20  1  0
 22 26  2  0
 22 23  1  0
 24 25  2  0
 25 15  1  0
M  END
$$$$
