STY.pdb
     RDKit          3D

 26 26  0  0  1  0  0  0  0  0999 V2000
   19.8280  -14.0785  -15.7032 O   0  0  0  0  0  0  0  0  0  0  0  0
   20.2252  -12.8068  -16.1770 C   0  0  0  0  0  0  0  0  0  0  0  0
   18.9901  -12.0764  -16.7196 C   0  0  2  0  0  0  0  0  0  0  0  0
   18.7460  -12.5702  -18.0546 N   0  0  0  0  0  0  0  0  0  0  0  0
   19.4048  -10.6401  -16.8342 C   0  0  0  0  0  0  0  0  0  0  0  0
   20.2402  -10.2639  -17.6869 O   0  0  0  0  0  0  0  0  0  0  0  0
   17.0877   -7.4348  -17.3647 C   0  0  0  0  0  0  0  0  0  0  0  0
   17.9012   -7.3316  -16.0800 C   0  0  1  0  0  0  0  0  0  0  0  0
   17.1079   -7.3671  -14.9557 O   0  0  0  0  0  0  0  0  0  0  0  0
   19.0649   -8.2368  -16.0806 C   0  0  2  0  0  0  0  0  0  0  0  0
   18.8838   -9.6224  -15.9928 N   0  0  0  0  0  0  0  0  0  0  0  0
   19.9836   -7.8191  -14.9755 C   0  0  0  0  0  0  0  0  0  0  0  0
   20.0185   -8.5556  -13.9582 O   0  0  0  0  0  0  0  0  0  0  0  0
   24.9841   -4.7436  -19.2919 O   0  0  0  0  0  0  0  0  0  0  0  0
   24.5188   -5.2625  -18.0848 C   0  0  0  0  0  0  0  0  0  0  0  0
   24.6597   -4.5471  -16.9150 C   0  0  0  0  0  0  0  0  0  0  0  0
   24.1990   -5.0626  -15.7257 C   0  0  0  0  0  0  0  0  0  0  0  0
   23.5761   -6.3171  -15.6512 C   0  0  0  0  0  0  0  0  0  0  0  0
   23.1247   -6.8429  -14.3521 C   0  0  0  0  0  0  0  0  0  0  0  0
   21.7774   -6.3204  -14.0129 C   0  0  2  0  0  0  0  0  0  0  0  0
   20.7845   -6.6767  -15.0206 N   0  0  0  0  0  0  0  0  0  0  0  0
   21.7935   -4.8530  -13.9182 C   0  0  0  0  0  0  0  0  0  0  0  0
   22.4952   -4.2047  -12.9256 O   0  0  0  0  0  0  0  0  0  0  0  0
   23.4611   -6.9936  -16.8582 C   0  0  0  0  0  0  0  0  0  0  0  0
   23.9149   -6.4935  -18.0520 C   0  0  0  0  0  0  0  0  0  0  0  0
   21.1446   -4.1483  -14.7664 O   0  0  0  0  0  0  0  0  0  0  0  0
  2  1  1  0
  3  4  1  6
  3  2  1  0
  5  3  1  0
  6  5  2  0
  8  7  1  6
  8 10  1  0
  9  8  1  0
 10 12  1  0
 10 11  1  1
 11  5  1  0
 12 21  1  0
 13 12  2  0
 15 14  1  0
 16 15  2  0
 17 16  1  0
 18 17  2  0
 18 24  1  0
 19 18  1  0
 20 19  1  6
 20 22  1  0
 21 20  1  0
 22 26  2  0
 22 23  1  0
 24 25  2  0
 25 15  1  0
M  END
$$$$
