STY.pdb
     RDKit          3D

 26 26  0  0  1  0  0  0  0  0999 V2000
   16.6875   -8.5490  -13.6486 O   0  0  0  0  0  0  0  0  0  0  0  0
   16.3612   -9.5982  -14.5386 C   0  0  0  0  0  0  0  0  0  0  0  0
   17.6210   -9.9872  -15.3231 C   0  0  2  0  0  0  0  0  0  0  0  0
   17.8749   -8.9387  -16.2831 N   0  0  0  0  0  0  0  0  0  0  0  0
   17.2406  -11.2206  -16.0859 C   0  0  0  0  0  0  0  0  0  0  0  0
   16.3555  -11.1987  -16.9706 O   0  0  0  0  0  0  0  0  0  0  0  0
   19.5213  -13.8395  -18.1628 C   0  0  0  0  0  0  0  0  0  0  0  0
   18.7897  -14.4930  -16.9964 C   0  0  1  0  0  0  0  0  0  0  0  0
   19.6535  -14.9320  -16.0187 O   0  0  0  0  0  0  0  0  0  0  0  0
   17.6430  -13.6897  -16.5347 C   0  0  2  0  0  0  0  0  0  0  0  0
   17.8517  -12.4816  -15.8584 N   0  0  0  0  0  0  0  0  0  0  0  0
   16.7789  -14.5579  -15.6750 C   0  0  0  0  0  0  0  0  0  0  0  0
   16.7779  -14.3141  -14.4425 O   0  0  0  0  0  0  0  0  0  0  0  0
   11.0280  -20.4337  -12.5630 O   0  0  0  0  0  0  0  0  0  0  0  0
   11.7484  -19.5676  -13.3837 C   0  0  0  0  0  0  0  0  0  0  0  0
   11.6687  -18.2034  -13.2026 C   0  0  0  0  0  0  0  0  0  0  0  0
   12.3814  -17.3520  -14.0146 C   0  0  0  0  0  0  0  0  0  0  0  0
   13.2068  -17.8252  -15.0452 C   0  0  0  0  0  0  0  0  0  0  0  0
   13.9287  -16.8765  -15.9095 C   0  0  0  0  0  0  0  0  0  0  0  0
   15.2570  -16.5475  -15.3344 C   0  0  2  0  0  0  0  0  0  0  0  0
   15.9924  -15.6013  -16.1664 N   0  0  0  0  0  0  0  0  0  0  0  0
   16.0876  -17.7547  -15.2108 C   0  0  0  0  0  0  0  0  0  0  0  0
   16.0423  -18.5457  -14.0837 O   0  0  0  0  0  0  0  0  0  0  0  0
   13.2493  -19.2061  -15.1828 C   0  0  0  0  0  0  0  0  0  0  0  0
   12.5452  -20.0683  -14.3816 C   0  0  0  0  0  0  0  0  0  0  0  0
   16.8769  -18.0902  -16.1602 O   0  0  0  0  0  0  0  0  0  0  0  0
  2  1  1  0
  3  4  1  6
  3  2  1  0
  5  3  1  0
  6  5  2  0
  8  7  1  6
  8 10  1  0
  9  8  1  0
 10 12  1  0
 10 11  1  1
 11  5  1  0
 12 21  1  0
 13 12  2  0
 15 14  1  0
 16 15  2  0
 17 16  1  0
 18 17  2  0
 18 24  1  0
 19 18  1  0
 20 19  1  6
 20 22  1  0
 21 20  1  0
 22 26  2  0
 22 23  1  0
 24 25  2  0
 25 15  1  0
M  END
$$$$
