STY.pdb
     RDKit          3D

 26 26  0  0  1  0  0  0  0  0999 V2000
   23.2792  -16.8145  -15.8563 O   0  0  0  0  0  0  0  0  0  0  0  0
   22.6112  -16.0107  -16.8087 C   0  0  0  0  0  0  0  0  0  0  0  0
   21.1027  -16.0774  -16.5370 C   0  0  2  0  0  0  0  0  0  0  0  0
   20.5885  -17.2364  -17.2282 N   0  0  0  0  0  0  0  0  0  0  0  0
   20.5321  -14.8606  -17.2017 C   0  0  0  0  0  0  0  0  0  0  0  0
   20.3166  -14.8258  -18.4341 O   0  0  0  0  0  0  0  0  0  0  0  0
   17.6936  -12.5521  -15.3595 C   0  0  0  0  0  0  0  0  0  0  0  0
   18.1519  -12.2923  -16.7896 C   0  0  1  0  0  0  0  0  0  0  0  0
   17.6531  -11.1113  -17.2910 O   0  0  0  0  0  0  0  0  0  0  0  0
   19.6001  -12.5084  -16.9609 C   0  0  2  0  0  0  0  0  0  0  0  0
   20.2020  -13.6799  -16.4860 N   0  0  0  0  0  0  0  0  0  0  0  0
   20.3217  -11.3419  -16.3623 C   0  0  0  0  0  0  0  0  0  0  0  0
   20.5694  -11.3990  -15.1319 O   0  0  0  0  0  0  0  0  0  0  0  0
   23.9482   -3.3851  -15.3590 O   0  0  0  0  0  0  0  0  0  0  0  0
   23.5277   -4.5984  -15.9010 C   0  0  0  0  0  0  0  0  0  0  0  0
   22.1844   -4.8851  -16.0166 C   0  0  0  0  0  0  0  0  0  0  0  0
   21.7735   -6.0837  -16.5523 C   0  0  0  0  0  0  0  0  0  0  0  0
   22.6866   -7.0509  -16.9970 C   0  0  0  0  0  0  0  0  0  0  0  0
   22.2026   -8.3326  -17.5365 C   0  0  0  0  0  0  0  0  0  0  0  0
   21.4065   -9.0640  -16.5194 C   0  0  2  0  0  0  0  0  0  0  0  0
   20.7230  -10.2199  -17.0894 N   0  0  0  0  0  0  0  0  0  0  0  0
   20.3750   -8.1929  -15.9363 C   0  0  0  0  0  0  0  0  0  0  0  0
   20.5951   -7.5043  -14.7635 O   0  0  0  0  0  0  0  0  0  0  0  0
   24.0252   -6.7101  -16.8566 C   0  0  0  0  0  0  0  0  0  0  0  0
   24.4511   -5.5197  -16.3250 C   0  0  0  0  0  0  0  0  0  0  0  0
   19.2421   -8.0631  -16.5165 O   0  0  0  0  0  0  0  0  0  0  0  0
  2  1  1  0
  3  4  1  6
  3  2  1  0
  5  3  1  0
  6  5  2  0
  8  7  1  1
  8 10  1  0
  9  8  1  0
 10 12  1  0
 10 11  1  1
 11  5  1  0
 12 21  1  0
 13 12  2  0
 15 14  1  0
 16 15  2  0
 17 16  1  0
 18 17  2  0
 18 24  1  0
 19 18  1  0
 20 19  1  6
 20 22  1  0
 21 20  1  0
 22 26  2  0
 22 23  1  0
 24 25  2  0
 25 15  1  0
M  END
$$$$
