FFE.pdb
     RDKit          3D

 32 33  0  0  1  0  0  0  0  0999 V2000
   10.5891  -16.6269   19.3793 N   0  0  0  0  0  0  0  0  0  0  0  0
    9.5378  -16.9334   20.3038 C   0  0  1  0  0  0  0  0  0  0  0  0
    9.4469  -18.4349   20.5671 C   0  0  0  0  0  0  0  0  0  0  0  0
    9.1533  -19.1495   19.2864 C   0  0  0  0  0  0  0  0  0  0  0  0
   10.1626  -19.7776   18.5858 C   0  0  0  0  0  0  0  0  0  0  0  0
    9.8888  -20.4395   17.3961 C   0  0  0  0  0  0  0  0  0  0  0  0
    8.6109  -20.4785   16.9003 C   0  0  0  0  0  0  0  0  0  0  0  0
    7.6087  -19.8528   17.5994 C   0  0  0  0  0  0  0  0  0  0  0  0
    7.8674  -19.1921   18.7820 C   0  0  0  0  0  0  0  0  0  0  0  0
    9.6216  -16.1748   21.5748 C   0  0  0  0  0  0  0  0  0  0  0  0
   10.7067  -16.0729   22.1603 O   0  0  0  0  0  0  0  0  0  0  0  0
    8.4782  -15.5562   22.1435 N   0  0  0  0  0  0  0  0  0  0  0  0
    8.4257  -14.8355   23.3510 C   0  0  1  0  0  0  0  0  0  0  0  0
    7.2213  -13.9484   23.5728 C   0  0  0  0  0  0  0  0  0  0  0  0
    7.1821  -13.3132   24.8966 C   0  0  0  0  0  0  0  0  0  0  0  0
    6.4223  -13.9049   25.9147 C   0  0  0  0  0  0  0  0  0  0  0  0
    6.3485  -13.3438   27.1660 C   0  0  0  0  0  0  0  0  0  0  0  0
    7.0149  -12.1796   27.4744 C   0  0  0  0  0  0  0  0  0  0  0  0
    7.7691  -11.5930   26.4620 C   0  0  0  0  0  0  0  0  0  0  0  0
    7.8365  -12.1699   25.1986 C   0  0  0  0  0  0  0  0  0  0  0  0
    8.5825  -15.7067   24.5311 C   0  0  0  0  0  0  0  0  0  0  0  0
    7.8421  -16.7414   24.6389 O   0  0  0  0  0  0  0  0  0  0  0  0
    9.5003  -15.4837   25.5671 N   0  0  0  0  0  0  0  0  0  0  0  0
   10.3434  -16.5793   26.1416 C   0  0  1  0  0  0  0  0  0  0  0  0
   11.5315  -16.7681   25.2958 C   0  0  0  0  0  0  0  0  0  0  0  0
   12.5039  -17.7717   25.7997 C   0  0  0  0  0  0  0  0  0  0  0  0
   13.1902  -18.5665   24.7589 C   0  0  0  0  0  0  0  0  0  0  0  0
   12.5619  -19.3931   24.0279 O   0  0  0  0  0  0  0  0  0  0  0  0
   10.4596  -16.3727   27.5507 C   0  0  0  0  0  0  0  0  0  0  0  0
   10.3363  -17.3867   28.3360 O   0  0  0  0  0  0  0  0  0  0  0  0
   14.5720  -18.4638   24.4991 O   0  0  0  0  0  0  0  0  0  0  0  0
   10.7061  -15.1866   28.2413 O   0  0  0  0  0  0  0  0  0  0  0  0
  2  1  1  6
  3  4  1  0
  3  2  1  0
  4  5  2  0
  5  6  1  0
  7  6  2  0
  8  7  1  0
  9  8  2  0
  9  4  1  0
 10  2  1  0
 10 11  2  0
 12 10  1  0
 13 12  1  0
 13 21  1  0
 13 14  1  1
 15 14  1  0
 16 15  2  0
 17 16  1  0
 18 17  2  0
 18 19  1  0
 19 20  2  0
 20 15  1  0
 21 23  1  0
 22 21  2  0
 23 24  1  0
 24 29  1  0
 25 26  1  0
 24 25  1  6
 27 26  1  0
 27 28  2  0
 29 30  2  0
 29 32  1  0
 31 27  1  0
M  END
$$$$
