FFE.pdb
     RDKit          3D

 32 33  0  0  1  0  0  0  0  0999 V2000
    8.1734  -16.0995   20.1295 N   0  0  0  0  0  0  0  0  0  0  0  0
    7.7812  -16.9125   21.2425 C   0  0  1  0  0  0  0  0  0  0  0  0
    8.0298  -18.3938   20.9662 C   0  0  0  0  0  0  0  0  0  0  0  0
    7.5162  -19.2082   22.1107 C   0  0  0  0  0  0  0  0  0  0  0  0
    6.3179  -19.8849   22.0087 C   0  0  0  0  0  0  0  0  0  0  0  0
    5.8416  -20.6396   23.0726 C   0  0  0  0  0  0  0  0  0  0  0  0
    6.5555  -20.7233   24.2404 C   0  0  0  0  0  0  0  0  0  0  0  0
    7.7473  -20.0492   24.3392 C   0  0  0  0  0  0  0  0  0  0  0  0
    8.2314  -19.2963   23.2899 C   0  0  0  0  0  0  0  0  0  0  0  0
    8.3957  -16.5009   22.5274 C   0  0  0  0  0  0  0  0  0  0  0  0
    9.5914  -16.1853   22.5646 O   0  0  0  0  0  0  0  0  0  0  0  0
    7.6409  -16.4590   23.7282 N   0  0  0  0  0  0  0  0  0  0  0  0
    7.9954  -15.8026   24.9214 C   0  0  1  0  0  0  0  0  0  0  0  0
    6.8674  -15.3560   25.8242 C   0  0  0  0  0  0  0  0  0  0  0  0
    6.6686  -13.9011   25.8577 C   0  0  0  0  0  0  0  0  0  0  0  0
    7.3653  -13.0964   24.9461 C   0  0  0  0  0  0  0  0  0  0  0  0
    7.2184  -11.7310   24.9444 C   0  0  0  0  0  0  0  0  0  0  0  0
    6.3835  -11.0947   25.8347 C   0  0  0  0  0  0  0  0  0  0  0  0
    5.6924  -11.8953   26.7397 C   0  0  0  0  0  0  0  0  0  0  0  0
    5.8489  -13.2770   26.7325 C   0  0  0  0  0  0  0  0  0  0  0  0
    8.9522  -16.5836   25.7279 C   0  0  0  0  0  0  0  0  0  0  0  0
    9.2632  -16.1667   26.8941 O   0  0  0  0  0  0  0  0  0  0  0  0
    9.5613  -17.7738   25.3063 N   0  0  0  0  0  0  0  0  0  0  0  0
   10.5844  -18.4883   26.1335 C   0  0  1  0  0  0  0  0  0  0  0  0
   10.3158  -19.9335   26.0910 C   0  0  0  0  0  0  0  0  0  0  0  0
    8.9369  -20.3243   26.4817 C   0  0  0  0  0  0  0  0  0  0  0  0
    8.6212  -21.7615   26.3371 C   0  0  0  0  0  0  0  0  0  0  0  0
    9.1100  -22.4608   25.3967 O   0  0  0  0  0  0  0  0  0  0  0  0
   11.8744  -17.9625   25.8154 C   0  0  0  0  0  0  0  0  0  0  0  0
   12.8905  -18.3630   26.4991 O   0  0  0  0  0  0  0  0  0  0  0  0
    7.7714  -22.4550   27.2227 O   0  0  0  0  0  0  0  0  0  0  0  0
   12.2225  -17.0441   24.8256 O   0  0  0  0  0  0  0  0  0  0  0  0
  2  1  1  6
  3  4  1  0
  3  2  1  0
  4  5  2  0
  5  6  1  0
  7  6  2  0
  8  7  1  0
  9  8  2  0
  9  4  1  0
 10  2  1  0
 10 11  2  0
 12 10  1  0
 13 12  1  0
 13 21  1  0
 13 14  1  1
 15 14  1  0
 16 15  2  0
 17 16  1  0
 18 17  2  0
 18 19  1  0
 19 20  2  0
 20 15  1  0
 21 23  1  0
 22 21  2  0
 23 24  1  0
 24 29  1  0
 25 26  1  0
 24 25  1  6
 27 26  1  0
 27 28  2  0
 29 30  2  0
 29 32  1  0
 31 27  1  0
M  END
$$$$
