FFE.pdb
     RDKit          3D

 32 33  0  0  1  0  0  0  0  0999 V2000
   10.9726  -14.5206   20.1732 N   0  0  0  0  0  0  0  0  0  0  0  0
    9.8198  -14.6044   21.0204 C   0  0  1  0  0  0  0  0  0  0  0  0
    8.6701  -15.3326   20.3274 C   0  0  0  0  0  0  0  0  0  0  0  0
    8.1020  -14.4606   19.2533 C   0  0  0  0  0  0  0  0  0  0  0  0
    8.5582  -14.5591   17.9547 C   0  0  0  0  0  0  0  0  0  0  0  0
    8.0308  -13.7478   16.9586 C   0  0  0  0  0  0  0  0  0  0  0  0
    7.0486  -12.8368   17.2513 C   0  0  0  0  0  0  0  0  0  0  0  0
    6.5966  -12.7409   18.5440 C   0  0  0  0  0  0  0  0  0  0  0  0
    7.1120  -13.5408   19.5424 C   0  0  0  0  0  0  0  0  0  0  0  0
   10.0992  -15.1962   22.3507 C   0  0  0  0  0  0  0  0  0  0  0  0
   11.0198  -16.0125   22.4800 O   0  0  0  0  0  0  0  0  0  0  0  0
    9.3304  -14.8477   23.4912 N   0  0  0  0  0  0  0  0  0  0  0  0
    9.6575  -15.1041   24.8357 C   0  0  1  0  0  0  0  0  0  0  0  0
    8.7910  -14.4560   25.8920 C   0  0  0  0  0  0  0  0  0  0  0  0
    9.1921  -14.7697   27.2696 C   0  0  0  0  0  0  0  0  0  0  0  0
    9.9414  -13.8314   27.9922 C   0  0  0  0  0  0  0  0  0  0  0  0
   10.3465  -14.0830   29.2801 C   0  0  0  0  0  0  0  0  0  0  0  0
   10.0357  -15.2635   29.9159 C   0  0  0  0  0  0  0  0  0  0  0  0
    9.2915  -16.1945   29.1969 C   0  0  0  0  0  0  0  0  0  0  0  0
    8.8868  -15.9293   27.8933 C   0  0  0  0  0  0  0  0  0  0  0  0
    9.7405  -16.5478   25.1269 C   0  0  0  0  0  0  0  0  0  0  0  0
    9.0820  -17.3646   24.3990 O   0  0  0  0  0  0  0  0  0  0  0  0
   10.5018  -17.1071   26.1629 N   0  0  0  0  0  0  0  0  0  0  0  0
   11.3372  -18.3346   25.9720 C   0  0  1  0  0  0  0  0  0  0  0  0
   12.0356  -18.2472   24.6808 C   0  0  0  0  0  0  0  0  0  0  0  0
   11.8624  -19.4277   23.7958 C   0  0  0  0  0  0  0  0  0  0  0  0
   12.5737  -19.3585   22.5015 C   0  0  0  0  0  0  0  0  0  0  0  0
   13.8308  -19.5188   22.4215 O   0  0  0  0  0  0  0  0  0  0  0  0
   12.0469  -18.5950   27.1845 C   0  0  0  0  0  0  0  0  0  0  0  0
   12.3936  -19.8074   27.4493 O   0  0  0  0  0  0  0  0  0  0  0  0
   11.9191  -19.1189   21.2761 O   0  0  0  0  0  0  0  0  0  0  0  0
   12.4496  -17.6948   28.1704 O   0  0  0  0  0  0  0  0  0  0  0  0
  2  1  1  6
  3  4  1  0
  3  2  1  0
  4  5  2  0
  5  6  1  0
  7  6  2  0
  8  7  1  0
  9  8  2  0
  9  4  1  0
 10  2  1  0
 10 11  2  0
 12 10  1  0
 13 12  1  0
 13 21  1  0
 13 14  1  1
 15 14  1  0
 16 15  2  0
 17 16  1  0
 18 17  2  0
 18 19  1  0
 19 20  2  0
 20 15  1  0
 21 23  1  0
 22 21  2  0
 23 24  1  0
 24 29  1  0
 25 26  1  0
 24 25  1  6
 27 26  1  0
 27 28  2  0
 29 30  2  0
 29 32  1  0
 31 27  1  0
M  END
$$$$
