FFE.pdb
     RDKit          3D

 32 33  0  0  1  0  0  0  0  0999 V2000
    6.6025  -18.9778   27.1729 N   0  0  0  0  0  0  0  0  0  0  0  0
    7.5513  -17.9107   27.2938 C   0  0  1  0  0  0  0  0  0  0  0  0
    8.5774  -18.1980   28.3878 C   0  0  0  0  0  0  0  0  0  0  0  0
    9.3611  -16.9570   28.6755 C   0  0  0  0  0  0  0  0  0  0  0  0
   10.7385  -16.9978   28.7480 C   0  0  0  0  0  0  0  0  0  0  0  0
   11.4649  -15.8450   29.0166 C   0  0  0  0  0  0  0  0  0  0  0  0
   10.8234  -14.6492   29.2137 C   0  0  0  0  0  0  0  0  0  0  0  0
    9.4531  -14.6115   29.1410 C   0  0  0  0  0  0  0  0  0  0  0  0
    8.7202  -15.7491   28.8749 C   0  0  0  0  0  0  0  0  0  0  0  0
    8.2189  -17.5589   26.0177 C   0  0  0  0  0  0  0  0  0  0  0  0
    8.3901  -18.4271   25.1530 O   0  0  0  0  0  0  0  0  0  0  0  0
    8.6716  -16.2392   25.7592 N   0  0  0  0  0  0  0  0  0  0  0  0
    9.2131  -15.7576   24.5529 C   0  0  1  0  0  0  0  0  0  0  0  0
    9.1588  -14.2643   24.3203 C   0  0  0  0  0  0  0  0  0  0  0  0
    7.9023  -13.6373   24.7508 C   0  0  0  0  0  0  0  0  0  0  0  0
    6.8063  -13.6367   23.8775 C   0  0  0  0  0  0  0  0  0  0  0  0
    5.6135  -13.0558   24.2321 C   0  0  0  0  0  0  0  0  0  0  0  0
    5.4423  -12.4506   25.4564 C   0  0  0  0  0  0  0  0  0  0  0  0
    6.5319  -12.4519   26.3227 C   0  0  0  0  0  0  0  0  0  0  0  0
    7.7350  -13.0430   25.9531 C   0  0  0  0  0  0  0  0  0  0  0  0
   10.6016  -16.2087   24.3422 C   0  0  0  0  0  0  0  0  0  0  0  0
   11.3634  -16.3604   25.3557 O   0  0  0  0  0  0  0  0  0  0  0  0
   11.1643  -16.4902   23.0893 N   0  0  0  0  0  0  0  0  0  0  0  0
   12.5128  -17.1229   22.9393 C   0  0  1  0  0  0  0  0  0  0  0  0
   12.6022  -17.7611   21.6175 C   0  0  0  0  0  0  0  0  0  0  0  0
   13.5142  -17.0863   20.6585 C   0  0  0  0  0  0  0  0  0  0  0  0
   13.2364  -17.3473   19.2300 C   0  0  0  0  0  0  0  0  0  0  0  0
   12.2356  -18.0355   18.8597 O   0  0  0  0  0  0  0  0  0  0  0  0
   13.5031  -16.1940   23.3846 C   0  0  0  0  0  0  0  0  0  0  0  0
   13.1668  -14.9602   23.5413 O   0  0  0  0  0  0  0  0  0  0  0  0
   14.0459  -16.8540   18.1865 O   0  0  0  0  0  0  0  0  0  0  0  0
   14.8411  -16.4291   23.6993 O   0  0  0  0  0  0  0  0  0  0  0  0
  2  1  1  6
  3  4  1  0
  3  2  1  0
  4  5  2  0
  5  6  1  0
  7  6  2  0
  8  7  1  0
  9  8  2  0
  9  4  1  0
 10  2  1  0
 10 11  2  0
 12 10  1  0
 13 12  1  0
 13 21  1  0
 13 14  1  1
 15 14  1  0
 16 15  2  0
 17 16  1  0
 18 17  2  0
 18 19  1  0
 19 20  2  0
 20 15  1  0
 21 23  1  0
 22 21  2  0
 23 24  1  0
 24 29  1  0
 25 26  1  0
 24 25  1  6
 27 26  1  0
 27 28  2  0
 29 30  2  0
 29 32  1  0
 31 27  1  0
M  END
$$$$
