FFE.pdb
     RDKit          3D

 32 33  0  0  1  0  0  0  0  0999 V2000
    7.2011  -16.6134   19.8852 N   0  0  0  0  0  0  0  0  0  0  0  0
    6.7131  -16.7261   21.2279 C   0  0  1  0  0  0  0  0  0  0  0  0
    6.3197  -18.1639   21.5596 C   0  0  0  0  0  0  0  0  0  0  0  0
    5.1302  -18.5572   20.7426 C   0  0  0  0  0  0  0  0  0  0  0  0
    3.8537  -18.2532   21.1698 C   0  0  0  0  0  0  0  0  0  0  0  0
    2.7502  -18.6202   20.4109 C   0  0  0  0  0  0  0  0  0  0  0  0
    2.9131  -19.2901   19.2256 C   0  0  0  0  0  0  0  0  0  0  0  0
    4.1841  -19.5912   18.8030 C   0  0  0  0  0  0  0  0  0  0  0  0
    5.2883  -19.2324   19.5473 C   0  0  0  0  0  0  0  0  0  0  0  0
    7.6408  -16.1801   22.2473 C   0  0  0  0  0  0  0  0  0  0  0  0
    8.8604  -16.1945   22.0401 O   0  0  0  0  0  0  0  0  0  0  0  0
    7.1619  -15.6358   23.4671 N   0  0  0  0  0  0  0  0  0  0  0  0
    7.9400  -15.1217   24.5209 C   0  0  1  0  0  0  0  0  0  0  0  0
    7.2094  -14.3893   25.6239 C   0  0  0  0  0  0  0  0  0  0  0  0
    8.0538  -14.0475   26.7761 C   0  0  0  0  0  0  0  0  0  0  0  0
    8.3293  -15.0312   27.7354 C   0  0  0  0  0  0  0  0  0  0  0  0
    9.1068  -14.7569   28.8337 C   0  0  0  0  0  0  0  0  0  0  0  0
    9.6478  -13.5083   29.0402 C   0  0  0  0  0  0  0  0  0  0  0  0
    9.3731  -12.5322   28.0865 C   0  0  0  0  0  0  0  0  0  0  0  0
    8.5845  -12.8210   26.9783 C   0  0  0  0  0  0  0  0  0  0  0  0
    8.7981  -16.1507   25.1380 C   0  0  0  0  0  0  0  0  0  0  0  0
    8.2495  -17.1525   25.7090 O   0  0  0  0  0  0  0  0  0  0  0  0
   10.1995  -16.1153   25.1478 N   0  0  0  0  0  0  0  0  0  0  0  0
   11.0316  -17.3425   25.3554 C   0  0  1  0  0  0  0  0  0  0  0  0
   12.0184  -17.4459   24.2700 C   0  0  0  0  0  0  0  0  0  0  0  0
   13.0655  -16.3921   24.2755 C   0  0  0  0  0  0  0  0  0  0  0  0
   14.0041  -16.4262   23.1336 C   0  0  0  0  0  0  0  0  0  0  0  0
   14.9051  -15.5442   22.9838 O   0  0  0  0  0  0  0  0  0  0  0  0
   11.4273  -17.3972   26.7273 C   0  0  0  0  0  0  0  0  0  0  0  0
   11.2401  -16.3583   27.4661 O   0  0  0  0  0  0  0  0  0  0  0  0
   13.9738  -17.4289   22.1430 O   0  0  0  0  0  0  0  0  0  0  0  0
   12.0056  -18.4556   27.4271 O   0  0  0  0  0  0  0  0  0  0  0  0
  2  1  1  6
  3  4  1  0
  3  2  1  0
  4  5  2  0
  5  6  1  0
  7  6  2  0
  8  7  1  0
  9  8  2  0
  9  4  1  0
 10  2  1  0
 10 11  2  0
 12 10  1  0
 13 12  1  0
 13 21  1  0
 13 14  1  1
 15 14  1  0
 16 15  2  0
 17 16  1  0
 18 17  2  0
 18 19  1  0
 19 20  2  0
 20 15  1  0
 21 23  1  0
 22 21  2  0
 23 24  1  0
 24 29  1  0
 25 26  1  0
 24 25  1  6
 27 26  1  0
 27 28  2  0
 29 30  2  0
 29 32  1  0
 31 27  1  0
M  END
$$$$
