FFE.pdb
     RDKit          3D

 32 33  0  0  1  0  0  0  0  0999 V2000
    9.0461  -18.1006   20.4783 N   0  0  0  0  0  0  0  0  0  0  0  0
    9.2479  -16.7073   20.2103 C   0  0  1  0  0  0  0  0  0  0  0  0
    8.2455  -16.1862   19.1827 C   0  0  0  0  0  0  0  0  0  0  0  0
    8.1936  -14.6929   19.2486 C   0  0  0  0  0  0  0  0  0  0  0  0
    9.2664  -13.9340   18.8274 C   0  0  0  0  0  0  0  0  0  0  0  0
    9.2175  -12.5476   18.8905 C   0  0  0  0  0  0  0  0  0  0  0  0
    8.1017  -11.9126   19.3724 C   0  0  0  0  0  0  0  0  0  0  0  0
    7.0359  -12.6699   19.7906 C   0  0  0  0  0  0  0  0  0  0  0  0
    7.0719  -14.0474   19.7332 C   0  0  0  0  0  0  0  0  0  0  0  0
    9.2508  -15.8604   21.4271 C   0  0  0  0  0  0  0  0  0  0  0  0
   10.0618  -14.9315   21.5284 O   0  0  0  0  0  0  0  0  0  0  0  0
    8.3388  -16.0894   22.4897 N   0  0  0  0  0  0  0  0  0  0  0  0
    8.2982  -15.4130   23.7230 C   0  0  1  0  0  0  0  0  0  0  0  0
    7.2018  -14.3888   23.9120 C   0  0  0  0  0  0  0  0  0  0  0  0
    7.2368  -13.7086   25.2134 C   0  0  0  0  0  0  0  0  0  0  0  0
    6.3245  -14.0895   26.2066 C   0  0  0  0  0  0  0  0  0  0  0  0
    6.3133  -13.4773   27.4359 C   0  0  0  0  0  0  0  0  0  0  0  0
    7.1944  -12.4663   27.7457 C   0  0  0  0  0  0  0  0  0  0  0  0
    8.0999  -12.0890   26.7580 C   0  0  0  0  0  0  0  0  0  0  0  0
    8.1021  -12.7157   25.5168 C   0  0  0  0  0  0  0  0  0  0  0  0
    8.2684  -16.3400   24.8701 C   0  0  0  0  0  0  0  0  0  0  0  0
    7.3194  -17.1903   24.9538 O   0  0  0  0  0  0  0  0  0  0  0  0
    9.2203  -16.3620   25.8991 N   0  0  0  0  0  0  0  0  0  0  0  0
    9.9937  -17.5948   26.2503 C   0  0  1  0  0  0  0  0  0  0  0  0
   10.5082  -18.2095   25.0174 C   0  0  0  0  0  0  0  0  0  0  0  0
   10.1970  -19.6538   24.8626 C   0  0  0  0  0  0  0  0  0  0  0  0
   10.8354  -20.3186   23.7066 C   0  0  0  0  0  0  0  0  0  0  0  0
   10.1513  -20.9137   22.8176 O   0  0  0  0  0  0  0  0  0  0  0  0
   10.8586  -17.2922   27.3467 C   0  0  0  0  0  0  0  0  0  0  0  0
   11.6085  -18.2278   27.8185 O   0  0  0  0  0  0  0  0  0  0  0  0
   12.2303  -20.3365   23.5037 O   0  0  0  0  0  0  0  0  0  0  0  0
   11.0316  -16.0795   28.0128 O   0  0  0  0  0  0  0  0  0  0  0  0
  2  1  1  1
  3  4  1  0
  3  2  1  0
  4  5  2  0
  5  6  1  0
  7  6  2  0
  8  7  1  0
  9  8  2  0
  9  4  1  0
 10  2  1  0
 10 11  2  0
 12 10  1  0
 13 12  1  0
 13 21  1  0
 13 14  1  6
 15 14  1  0
 16 15  2  0
 17 16  1  0
 18 17  2  0
 18 19  1  0
 19 20  2  0
 20 15  1  0
 21 23  1  0
 22 21  2  0
 23 24  1  0
 24 29  1  0
 25 26  1  0
 24 25  1  6
 27 26  1  0
 27 28  2  0
 29 30  2  0
 29 32  1  0
 31 27  1  0
M  END
$$$$
