FFE.pdb
     RDKit          3D

 32 33  0  0  1  0  0  0  0  0999 V2000
    8.4514  -18.1648   21.1138 N   0  0  0  0  0  0  0  0  0  0  0  0
    8.5811  -16.7883   20.7367 C   0  0  1  0  0  0  0  0  0  0  0  0
    7.5457  -16.3985   19.6839 C   0  0  0  0  0  0  0  0  0  0  0  0
    7.6615  -14.9372   19.3868 C   0  0  0  0  0  0  0  0  0  0  0  0
    6.9397  -14.0136   20.1149 C   0  0  0  0  0  0  0  0  0  0  0  0
    7.0472  -12.6572   19.8371 C   0  0  0  0  0  0  0  0  0  0  0  0
    7.8725  -12.2161   18.8348 C   0  0  0  0  0  0  0  0  0  0  0  0
    8.5894  -13.1371   18.1121 C   0  0  0  0  0  0  0  0  0  0  0  0
    8.4917  -14.4868   18.3780 C   0  0  0  0  0  0  0  0  0  0  0  0
    8.5516  -15.8503   21.8844 C   0  0  0  0  0  0  0  0  0  0  0  0
    8.4072  -14.6379   21.6848 O   0  0  0  0  0  0  0  0  0  0  0  0
    8.6861  -16.3112   23.2196 N   0  0  0  0  0  0  0  0  0  0  0  0
    8.5053  -15.5544   24.3922 C   0  0  1  0  0  0  0  0  0  0  0  0
    7.2381  -14.7357   24.4960 C   0  0  0  0  0  0  0  0  0  0  0  0
    7.2523  -13.7468   25.5819 C   0  0  0  0  0  0  0  0  0  0  0  0
    8.1556  -13.9097   26.6409 C   0  0  0  0  0  0  0  0  0  0  0  0
    8.2005  -13.0158   27.6825 C   0  0  0  0  0  0  0  0  0  0  0  0
    7.3635  -11.9244   27.7323 C   0  0  0  0  0  0  0  0  0  0  0  0
    6.4667  -11.7640   26.6797 C   0  0  0  0  0  0  0  0  0  0  0  0
    6.4299  -12.6754   25.6302 C   0  0  0  0  0  0  0  0  0  0  0  0
    8.6283  -16.3737   25.6127 C   0  0  0  0  0  0  0  0  0  0  0  0
    8.3222  -15.8556   26.7390 O   0  0  0  0  0  0  0  0  0  0  0  0
    9.0648  -17.7057   25.6350 N   0  0  0  0  0  0  0  0  0  0  0  0
   10.4824  -18.0805   25.9371 C   0  0  1  0  0  0  0  0  0  0  0  0
   11.3636  -17.5027   24.9113 C   0  0  0  0  0  0  0  0  0  0  0  0
   12.8140  -17.5662   25.2260 C   0  0  0  0  0  0  0  0  0  0  0  0
   13.6688  -18.1327   24.1609 C   0  0  0  0  0  0  0  0  0  0  0  0
   14.2962  -19.2252   24.3192 O   0  0  0  0  0  0  0  0  0  0  0  0
   10.7227  -17.8666   27.3294 C   0  0  0  0  0  0  0  0  0  0  0  0
   10.0851  -16.9205   27.9280 O   0  0  0  0  0  0  0  0  0  0  0  0
   13.8443  -17.5151   22.9058 O   0  0  0  0  0  0  0  0  0  0  0  0
   11.5762  -18.5626   28.1846 O   0  0  0  0  0  0  0  0  0  0  0  0
  2  1  1  1
  3  4  1  0
  3  2  1  0
  4  5  2  0
  5  6  1  0
  7  6  2  0
  8  7  1  0
  9  8  2  0
  9  4  1  0
 10  2  1  0
 10 11  2  0
 12 10  1  0
 13 12  1  0
 13 21  1  0
 13 14  1  6
 15 14  1  0
 16 15  2  0
 17 16  1  0
 18 17  2  0
 18 19  1  0
 19 20  2  0
 20 15  1  0
 21 23  1  0
 22 21  2  0
 23 24  1  0
 24 29  1  0
 25 26  1  0
 24 25  1  6
 27 26  1  0
 27 28  2  0
 29 30  2  0
 29 32  1  0
 31 27  1  0
M  END
$$$$
