FFE.pdb
     RDKit          3D

 32 33  0  0  1  0  0  0  0  0999 V2000
    8.1533  -18.5853   27.2119 N   0  0  0  0  0  0  0  0  0  0  0  0
    7.2634  -17.6688   26.5623 C   0  0  1  0  0  0  0  0  0  0  0  0
    6.8909  -16.5072   27.4810 C   0  0  0  0  0  0  0  0  0  0  0  0
    8.1127  -15.7005   27.7864 C   0  0  0  0  0  0  0  0  0  0  0  0
    9.2117  -16.2880   28.3791 C   0  0  0  0  0  0  0  0  0  0  0  0
   10.3450  -15.5375   28.6634 C   0  0  0  0  0  0  0  0  0  0  0  0
   10.3883  -14.2012   28.3590 C   0  0  0  0  0  0  0  0  0  0  0  0
    9.2936  -13.6192   27.7694 C   0  0  0  0  0  0  0  0  0  0  0  0
    8.1621  -14.3535   27.4819 C   0  0  0  0  0  0  0  0  0  0  0  0
    7.7645  -17.1751   25.2573 C   0  0  0  0  0  0  0  0  0  0  0  0
    8.6160  -17.8256   24.6389 O   0  0  0  0  0  0  0  0  0  0  0  0
    7.2884  -15.9634   24.6929 N   0  0  0  0  0  0  0  0  0  0  0  0
    7.6241  -15.4341   23.4329 C   0  0  1  0  0  0  0  0  0  0  0  0
    6.9103  -14.1723   23.0026 C   0  0  0  0  0  0  0  0  0  0  0  0
    7.2435  -13.7312   21.6418 C   0  0  0  0  0  0  0  0  0  0  0  0
    8.0081  -12.5695   21.4695 C   0  0  0  0  0  0  0  0  0  0  0  0
    8.3378  -12.1133   20.2168 C   0  0  0  0  0  0  0  0  0  0  0  0
    7.9335  -12.7744   19.0793 C   0  0  0  0  0  0  0  0  0  0  0  0
    7.1740  -13.9282   19.2521 C   0  0  0  0  0  0  0  0  0  0  0  0
    6.8459  -14.3808   20.5253 C   0  0  0  0  0  0  0  0  0  0  0  0
    9.0758  -15.2184   23.2842 C   0  0  0  0  0  0  0  0  0  0  0  0
    9.6638  -14.4024   24.0710 O   0  0  0  0  0  0  0  0  0  0  0  0
    9.8793  -15.8521   22.3260 N   0  0  0  0  0  0  0  0  0  0  0  0
   11.3662  -15.9549   22.4670 C   0  0  1  0  0  0  0  0  0  0  0  0
   11.6910  -16.4291   23.8206 C   0  0  0  0  0  0  0  0  0  0  0  0
   13.1295  -16.7186   24.0526 C   0  0  0  0  0  0  0  0  0  0  0  0
   13.4713  -17.1760   25.4164 C   0  0  0  0  0  0  0  0  0  0  0  0
   13.2189  -18.3576   25.8067 O   0  0  0  0  0  0  0  0  0  0  0  0
   11.8894  -16.6041   21.3066 C   0  0  0  0  0  0  0  0  0  0  0  0
   13.1643  -16.6032   21.1202 O   0  0  0  0  0  0  0  0  0  0  0  0
   14.0993  -16.3492   26.3700 O   0  0  0  0  0  0  0  0  0  0  0  0
   11.2008  -17.2790   20.2993 O   0  0  0  0  0  0  0  0  0  0  0  0
  2  1  1  1
  3  4  1  0
  3  2  1  0
  4  5  2  0
  5  6  1  0
  7  6  2  0
  8  7  1  0
  9  8  2  0
  9  4  1  0
 10  2  1  0
 10 11  2  0
 12 10  1  0
 13 12  1  0
 13 21  1  0
 13 14  1  1
 15 14  1  0
 16 15  2  0
 17 16  1  0
 18 17  2  0
 18 19  1  0
 19 20  2  0
 20 15  1  0
 21 23  1  0
 22 21  2  0
 23 24  1  0
 24 29  1  0
 25 26  1  0
 24 25  1  1
 27 26  1  0
 27 28  2  0
 29 30  2  0
 29 32  1  0
 31 27  1  0
M  END
$$$$
