FFE.pdb
     RDKit          3D

 32 33  0  0  1  0  0  0  0  0999 V2000
   11.1033  -17.2700   19.9321 N   0  0  0  0  0  0  0  0  0  0  0  0
   10.2519  -16.2830   20.5276 C   0  0  1  0  0  0  0  0  0  0  0  0
    8.8429  -16.3347   19.9410 C   0  0  0  0  0  0  0  0  0  0  0  0
    8.0521  -15.1664   20.4377 C   0  0  0  0  0  0  0  0  0  0  0  0
    7.0233  -15.3476   21.3394 C   0  0  0  0  0  0  0  0  0  0  0  0
    6.2890  -14.2621   21.7987 C   0  0  0  0  0  0  0  0  0  0  0  0
    6.5758  -12.9941   21.3627 C   0  0  0  0  0  0  0  0  0  0  0  0
    7.5998  -12.8167   20.4657 C   0  0  0  0  0  0  0  0  0  0  0  0
    8.3366  -13.8863   20.0018 C   0  0  0  0  0  0  0  0  0  0  0  0
   10.2139  -16.3434   22.0084 C   0  0  0  0  0  0  0  0  0  0  0  0
   10.4355  -17.4146   22.5865 O   0  0  0  0  0  0  0  0  0  0  0  0
    9.9271  -15.1933   22.7884 N   0  0  0  0  0  0  0  0  0  0  0  0
   10.0197  -15.0825   24.1882 C   0  0  1  0  0  0  0  0  0  0  0  0
    9.3098  -13.9150   24.8360 C   0  0  0  0  0  0  0  0  0  0  0  0
    9.4200  -13.8860   26.3004 C   0  0  0  0  0  0  0  0  0  0  0  0
    8.3213  -14.2823   27.0749 C   0  0  0  0  0  0  0  0  0  0  0  0
    8.3739  -14.2645   28.4471 C   0  0  0  0  0  0  0  0  0  0  0  0
    9.5038  -13.8582   29.1200 C   0  0  0  0  0  0  0  0  0  0  0  0
   10.5941  -13.4647   28.3493 C   0  0  0  0  0  0  0  0  0  0  0  0
   10.5297  -13.4866   26.9604 C   0  0  0  0  0  0  0  0  0  0  0  0
    9.6021  -16.3182   24.8772 C   0  0  0  0  0  0  0  0  0  0  0  0
    8.3853  -16.6952   24.7882 O   0  0  0  0  0  0  0  0  0  0  0  0
   10.4540  -17.1298   25.6393 N   0  0  0  0  0  0  0  0  0  0  0  0
    9.9695  -18.3526   26.3545 C   0  0  1  0  0  0  0  0  0  0  0  0
    9.8443  -19.4571   25.3918 C   0  0  0  0  0  0  0  0  0  0  0  0
   11.1304  -19.9473   24.8329 C   0  0  0  0  0  0  0  0  0  0  0  0
   11.0229  -21.1008   23.9143 C   0  0  0  0  0  0  0  0  0  0  0  0
   10.4994  -22.1984   24.2798 O   0  0  0  0  0  0  0  0  0  0  0  0
   10.7193  -18.5005   27.5619 C   0  0  0  0  0  0  0  0  0  0  0  0
   10.4145  -19.4611   28.3647 O   0  0  0  0  0  0  0  0  0  0  0  0
   11.4809  -21.0677   22.5814 O   0  0  0  0  0  0  0  0  0  0  0  0
   11.7879  -17.7336   28.0249 O   0  0  0  0  0  0  0  0  0  0  0  0
  2  1  1  6
  3  4  1  0
  3  2  1  0
  4  5  2  0
  5  6  1  0
  7  6  2  0
  8  7  1  0
  9  8  2  0
  9  4  1  0
 10  2  1  0
 10 11  2  0
 12 10  1  0
 13 12  1  0
 13 21  1  0
 13 14  1  1
 15 14  1  0
 16 15  2  0
 17 16  1  0
 18 17  2  0
 18 19  1  0
 19 20  2  0
 20 15  1  0
 21 23  1  0
 22 21  2  0
 23 24  1  0
 24 29  1  0
 25 26  1  0
 24 25  1  6
 27 26  1  0
 27 28  2  0
 29 30  2  0
 29 32  1  0
 31 27  1  0
M  END
$$$$
