FFE.pdb
     RDKit          3D

 32 33  0  0  1  0  0  0  0  0999 V2000
   10.3369  -17.9468   20.7080 N   0  0  0  0  0  0  0  0  0  0  0  0
    9.5854  -16.7631   21.0045 C   0  0  1  0  0  0  0  0  0  0  0  0
    8.2827  -16.7157   20.2089 C   0  0  0  0  0  0  0  0  0  0  0  0
    8.0200  -15.3120   19.7643 C   0  0  0  0  0  0  0  0  0  0  0  0
    8.9468  -14.3167   19.9979 C   0  0  0  0  0  0  0  0  0  0  0  0
    8.7010  -13.0135   19.5858 C   0  0  0  0  0  0  0  0  0  0  0  0
    7.5332  -12.6970   18.9405 C   0  0  0  0  0  0  0  0  0  0  0  0
    6.6130  -13.6891   18.7093 C   0  0  0  0  0  0  0  0  0  0  0  0
    6.8450  -14.9871   19.1135 C   0  0  0  0  0  0  0  0  0  0  0  0
    9.3321  -16.5645   22.4517 C   0  0  0  0  0  0  0  0  0  0  0  0
   10.0694  -17.1049   23.2853 O   0  0  0  0  0  0  0  0  0  0  0  0
    8.2551  -15.7628   22.9107 N   0  0  0  0  0  0  0  0  0  0  0  0
    8.2178  -15.0033   24.0948 C   0  0  1  0  0  0  0  0  0  0  0  0
    7.2737  -13.8224   24.1272 C   0  0  0  0  0  0  0  0  0  0  0  0
    7.1973  -13.1535   25.4326 C   0  0  0  0  0  0  0  0  0  0  0  0
    5.9852  -13.1669   26.1358 C   0  0  0  0  0  0  0  0  0  0  0  0
    5.8629  -12.5483   27.3558 C   0  0  0  0  0  0  0  0  0  0  0  0
    6.9214  -11.8903   27.9398 C   0  0  0  0  0  0  0  0  0  0  0  0
    8.1247  -11.8778   27.2400 C   0  0  0  0  0  0  0  0  0  0  0  0
    8.2371  -12.5073   26.0052 C   0  0  0  0  0  0  0  0  0  0  0  0
    7.9605  -15.8344   25.2860 C   0  0  0  0  0  0  0  0  0  0  0  0
    8.1388  -15.3274   26.4443 O   0  0  0  0  0  0  0  0  0  0  0  0
    7.5263  -17.1668   25.2466 N   0  0  0  0  0  0  0  0  0  0  0  0
    7.2939  -17.9719   26.4873 C   0  0  1  0  0  0  0  0  0  0  0  0
    6.4119  -19.1048   26.1695 C   0  0  0  0  0  0  0  0  0  0  0  0
    6.7601  -19.8376   24.9250 C   0  0  0  0  0  0  0  0  0  0  0  0
    5.9561  -21.0492   24.6577 C   0  0  0  0  0  0  0  0  0  0  0  0
    5.1803  -21.1275   23.6555 O   0  0  0  0  0  0  0  0  0  0  0  0
    8.5478  -18.1677   27.1440 C   0  0  0  0  0  0  0  0  0  0  0  0
    8.5581  -18.7423   28.2972 O   0  0  0  0  0  0  0  0  0  0  0  0
    5.9940  -22.1941   25.4794 O   0  0  0  0  0  0  0  0  0  0  0  0
    9.8258  -17.8237   26.7050 O   0  0  0  0  0  0  0  0  0  0  0  0
  2  1  1  1
  3  4  1  0
  3  2  1  0
  4  5  2  0
  5  6  1  0
  7  6  2  0
  8  7  1  0
  9  8  2  0
  9  4  1  0
 10  2  1  0
 10 11  2  0
 12 10  1  0
 13 12  1  0
 13 21  1  0
 13 14  1  6
 15 14  1  0
 16 15  2  0
 17 16  1  0
 18 17  2  0
 18 19  1  0
 19 20  2  0
 20 15  1  0
 21 23  1  0
 22 21  2  0
 23 24  1  0
 24 29  1  0
 25 26  1  0
 24 25  1  6
 27 26  1  0
 27 28  2  0
 29 30  2  0
 29 32  1  0
 31 27  1  0
M  END
$$$$
