FFE.pdb
     RDKit          3D

 32 33  0  0  1  0  0  0  0  0999 V2000
   10.8365  -15.6543   21.2183 N   0  0  0  0  0  0  0  0  0  0  0  0
    9.7400  -15.2821   22.0627 C   0  0  1  0  0  0  0  0  0  0  0  0
    8.3979  -15.5936   21.4038 C   0  0  0  0  0  0  0  0  0  0  0  0
    7.9898  -14.4462   20.5356 C   0  0  0  0  0  0  0  0  0  0  0  0
    6.8325  -14.5096   19.7866 C   0  0  0  0  0  0  0  0  0  0  0  0
    6.4555  -13.4441   18.9798 C   0  0  0  0  0  0  0  0  0  0  0  0
    7.2282  -12.3131   18.9158 C   0  0  0  0  0  0  0  0  0  0  0  0
    8.3789  -12.2527   19.6619 C   0  0  0  0  0  0  0  0  0  0  0  0
    8.7645  -13.3039   20.4671 C   0  0  0  0  0  0  0  0  0  0  0  0
    9.8116  -15.8642   23.4243 C   0  0  0  0  0  0  0  0  0  0  0  0
   10.8207  -16.4886   23.7744 O   0  0  0  0  0  0  0  0  0  0  0  0
    8.7423  -15.7228   24.3462 N   0  0  0  0  0  0  0  0  0  0  0  0
    8.7591  -16.0632   25.7115 C   0  0  1  0  0  0  0  0  0  0  0  0
    7.5745  -15.6287   26.5452 C   0  0  0  0  0  0  0  0  0  0  0  0
    7.3553  -14.1765   26.5616 C   0  0  0  0  0  0  0  0  0  0  0  0
    6.1750  -13.6587   26.0114 C   0  0  0  0  0  0  0  0  0  0  0  0
    5.9292  -12.3076   25.9964 C   0  0  0  0  0  0  0  0  0  0  0  0
    6.8279  -11.4055   26.5190 C   0  0  0  0  0  0  0  0  0  0  0  0
    7.9999  -11.9214   27.0649 C   0  0  0  0  0  0  0  0  0  0  0  0
    8.2384  -13.2913   27.0747 C   0  0  0  0  0  0  0  0  0  0  0  0
    8.9720  -17.5069   25.9268 C   0  0  0  0  0  0  0  0  0  0  0  0
    8.0896  -18.3311   25.5113 O   0  0  0  0  0  0  0  0  0  0  0  0
   10.0911  -18.0585   26.5661 N   0  0  0  0  0  0  0  0  0  0  0  0
   10.4966  -19.4879   26.3821 C   0  0  1  0  0  0  0  0  0  0  0  0
   10.4566  -19.8205   24.9502 C   0  0  0  0  0  0  0  0  0  0  0  0
   10.8951  -21.2002   24.6170 C   0  0  0  0  0  0  0  0  0  0  0  0
    9.8716  -22.0521   23.9746 C   0  0  0  0  0  0  0  0  0  0  0  0
    8.7475  -22.2727   24.5223 O   0  0  0  0  0  0  0  0  0  0  0  0
   11.6627  -19.7349   27.1701 C   0  0  0  0  0  0  0  0  0  0  0  0
   11.8881  -20.9353   27.5805 O   0  0  0  0  0  0  0  0  0  0  0  0
   10.0612  -22.6694   22.7214 O   0  0  0  0  0  0  0  0  0  0  0  0
   12.6476  -18.8355   27.5769 O   0  0  0  0  0  0  0  0  0  0  0  0
  2  1  1  6
  3  4  1  0
  3  2  1  0
  4  5  2  0
  5  6  1  0
  7  6  2  0
  8  7  1  0
  9  8  2  0
  9  4  1  0
 10  2  1  0
 10 11  2  0
 12 10  1  0
 13 12  1  0
 13 21  1  0
 13 14  1  6
 15 14  1  0
 16 15  2  0
 17 16  1  0
 18 17  2  0
 18 19  1  0
 19 20  2  0
 20 15  1  0
 21 23  1  0
 22 21  2  0
 23 24  1  0
 24 29  1  0
 25 26  1  0
 24 25  1  6
 27 26  1  0
 27 28  2  0
 29 30  2  0
 29 32  1  0
 31 27  1  0
M  END
$$$$
