FFE.pdb
     RDKit          3D

 32 33  0  0  1  0  0  0  0  0999 V2000
    7.7488  -17.3088   20.4146 N   0  0  0  0  0  0  0  0  0  0  0  0
    8.9767  -16.5730   20.3460 C   0  0  1  0  0  0  0  0  0  0  0  0
    9.0135  -15.6624   19.1206 C   0  0  0  0  0  0  0  0  0  0  0  0
    8.0456  -14.5372   19.3054 C   0  0  0  0  0  0  0  0  0  0  0  0
    8.4901  -13.2325   19.3705 C   0  0  0  0  0  0  0  0  0  0  0  0
    7.5904  -12.1889   19.5435 C   0  0  0  0  0  0  0  0  0  0  0  0
    6.2467  -12.4401   19.6521 C   0  0  0  0  0  0  0  0  0  0  0  0
    5.8073  -13.7391   19.5870 C   0  0  0  0  0  0  0  0  0  0  0  0
    6.6904  -14.7844   19.4154 C   0  0  0  0  0  0  0  0  0  0  0  0
    9.2872  -15.8147   21.5815 C   0  0  0  0  0  0  0  0  0  0  0  0
   10.3106  -15.1218   21.6376 O   0  0  0  0  0  0  0  0  0  0  0  0
    8.4327  -15.8631   22.7133 N   0  0  0  0  0  0  0  0  0  0  0  0
    8.6217  -15.1967   23.9383 C   0  0  1  0  0  0  0  0  0  0  0  0
    7.3877  -14.6626   24.6303 C   0  0  0  0  0  0  0  0  0  0  0  0
    7.6725  -13.8765   25.8379 C   0  0  0  0  0  0  0  0  0  0  0  0
    7.1716  -12.5713   25.9358 C   0  0  0  0  0  0  0  0  0  0  0  0
    7.4183  -11.7950   27.0415 C   0  0  0  0  0  0  0  0  0  0  0  0
    8.1655  -12.2627   28.0986 C   0  0  0  0  0  0  0  0  0  0  0  0
    8.6624  -13.5593   27.9997 C   0  0  0  0  0  0  0  0  0  0  0  0
    8.4066  -14.3364   26.8754 C   0  0  0  0  0  0  0  0  0  0  0  0
    9.3806  -16.0096   24.9074 C   0  0  0  0  0  0  0  0  0  0  0  0
    8.8765  -17.1066   25.3236 O   0  0  0  0  0  0  0  0  0  0  0  0
   10.6394  -15.6657   25.4197 N   0  0  0  0  0  0  0  0  0  0  0  0
   11.6908  -16.6888   25.7184 C   0  0  1  0  0  0  0  0  0  0  0  0
   12.9545  -16.2811   25.0866 C   0  0  0  0  0  0  0  0  0  0  0  0
   14.1134  -17.1623   25.3820 C   0  0  0  0  0  0  0  0  0  0  0  0
   15.3820  -16.7817   24.7248 C   0  0  0  0  0  0  0  0  0  0  0  0
   15.4667  -16.6472   23.4650 O   0  0  0  0  0  0  0  0  0  0  0  0
   11.6261  -17.0151   27.1081 C   0  0  0  0  0  0  0  0  0  0  0  0
   12.3940  -17.9456   27.5606 O   0  0  0  0  0  0  0  0  0  0  0  0
   16.5737  -16.5369   25.4370 O   0  0  0  0  0  0  0  0  0  0  0  0
   10.8274  -16.4490   28.1011 O   0  0  0  0  0  0  0  0  0  0  0  0
  2  1  1  1
  3  4  1  0
  3  2  1  0
  4  5  2  0
  5  6  1  0
  7  6  2  0
  8  7  1  0
  9  8  2  0
  9  4  1  0
 10  2  1  0
 10 11  2  0
 12 10  1  0
 13 12  1  0
 13 21  1  0
 13 14  1  1
 15 14  1  0
 16 15  2  0
 17 16  1  0
 18 17  2  0
 18 19  1  0
 19 20  2  0
 20 15  1  0
 21 23  1  0
 22 21  2  0
 23 24  1  0
 24 29  1  0
 25 26  1  0
 24 25  1  1
 27 26  1  0
 27 28  2  0
 29 30  2  0
 29 32  1  0
 31 27  1  0
M  END
$$$$
