PGK.pdb
     RDKit          3D

 21 21  0  0  1  0  0  0  0  0999 V2000
   26.4524  -18.3490  -16.3021 N   0  0  0  0  0  0  0  0  0  0  0  0
   26.2565  -17.0525  -15.7314 C   0  0  0  0  0  0  0  0  0  0  0  0
   26.0471  -17.2270  -14.2467 C   0  0  0  0  0  0  0  0  0  0  0  0
   26.6482  -18.6127  -14.0238 C   0  0  0  0  0  0  0  0  0  0  0  0
   26.2112  -19.3326  -15.2676 C   0  0  1  0  0  0  0  0  0  0  0  0
   24.7499  -19.6348  -15.2683 C   0  0  0  0  0  0  0  0  0  0  0  0
   24.2244  -20.4135  -14.4157 O   0  0  0  0  0  0  0  0  0  0  0  0
   23.8625  -19.0677  -16.2240 N   0  0  0  0  0  0  0  0  0  0  0  0
   23.1950  -19.8545  -17.2105 C   0  0  0  0  0  0  0  0  0  0  0  0
   21.9535  -20.4917  -16.7017 C   0  0  0  0  0  0  0  0  0  0  0  0
   21.2588  -21.1616  -17.5031 O   0  0  0  0  0  0  0  0  0  0  0  0
   21.5704  -20.3420  -15.3438 N   0  0  0  0  0  0  0  0  0  0  0  0
   20.4678  -21.1095  -14.7626 C   0  0  1  0  0  0  0  0  0  0  0  0
   20.8138  -21.4005  -13.3229 C   0  0  0  0  0  0  0  0  0  0  0  0
   19.7579  -22.1810  -12.6143 C   0  0  0  0  0  0  0  0  0  0  0  0
   20.2319  -22.4482  -11.1934 C   0  0  0  0  0  0  0  0  0  0  0  0
   19.1566  -23.2794  -10.5037 C   0  0  0  0  0  0  0  0  0  0  0  0
   19.3887  -23.4253   -9.0994 N   0  0  0  0  0  0  0  0  0  0  0  0
   19.2161  -20.3124  -14.7646 C   0  0  0  0  0  0  0  0  0  0  0  0
   19.2025  -19.0605  -14.7502 O   0  0  0  0  0  0  0  0  0  0  0  0
   18.0105  -20.9836  -14.7832 O   0  0  0  0  0  0  0  0  0  0  0  0
  1  2  1  0
  1  5  1  0
  2  3  1  0
  3  4  1  0
  5  4  1  0
  5  6  1  1
  6  7  2  0
  8  6  1  0
  9  8  1  0
  9 10  1  0
 10 12  1  0
 11 10  2  0
 12 13  1  0
 13 19  1  0
 13 14  1  1
 14 15  1  0
 16 17  1  0
 16 15  1  0
 18 17  1  0
 19 20  2  0
 19 21  1  0
M  END
$$$$
