PGK.pdb
     RDKit          3D

 21 21  0  0  1  0  0  0  0  0999 V2000
   27.2640  -21.0633  -12.4604 N   0  0  0  0  0  0  0  0  0  0  0  0
   27.3127  -20.9021  -11.0403 C   0  0  0  0  0  0  0  0  0  0  0  0
   25.9224  -20.5547  -10.5657 C   0  0  0  0  0  0  0  0  0  0  0  0
   25.0779  -21.0447  -11.7396 C   0  0  0  0  0  0  0  0  0  0  0  0
   25.9443  -20.6715  -12.9086 C   0  0  1  0  0  0  0  0  0  0  0  0
   25.9720  -19.1995  -13.1513 C   0  0  0  0  0  0  0  0  0  0  0  0
   25.1821  -18.4053  -12.5556 O   0  0  0  0  0  0  0  0  0  0  0  0
   26.8847  -18.6021  -14.0636 N   0  0  0  0  0  0  0  0  0  0  0  0
   26.7266  -18.6992  -15.4790 C   0  0  0  0  0  0  0  0  0  0  0  0
   25.3100  -18.5926  -15.9131 C   0  0  0  0  0  0  0  0  0  0  0  0
   24.9575  -17.5657  -16.5415 O   0  0  0  0  0  0  0  0  0  0  0  0
   24.3864  -19.6291  -15.6209 N   0  0  0  0  0  0  0  0  0  0  0  0
   22.9898  -19.5650  -16.0545 C   0  0  1  0  0  0  0  0  0  0  0  0
   22.5452  -20.9661  -16.3952 C   0  0  0  0  0  0  0  0  0  0  0  0
   21.1183  -21.0384  -16.8251 C   0  0  0  0  0  0  0  0  0  0  0  0
   20.7748  -22.4943  -17.1031 C   0  0  0  0  0  0  0  0  0  0  0  0
   19.3440  -22.5321  -17.6271 C   0  0  0  0  0  0  0  0  0  0  0  0
   18.9107  -23.8566  -17.9518 N   0  0  0  0  0  0  0  0  0  0  0  0
   22.1209  -19.0803  -14.9535 C   0  0  0  0  0  0  0  0  0  0  0  0
   22.3244  -19.3568  -13.7495 O   0  0  0  0  0  0  0  0  0  0  0  0
   21.0374  -18.2875  -15.2728 O   0  0  0  0  0  0  0  0  0  0  0  0
  1  2  1  0
  1  5  1  0
  2  3  1  0
  3  4  1  0
  5  4  1  0
  5  6  1  1
  6  7  2  0
  8  6  1  0
  9  8  1  0
  9 10  1  0
 10 12  1  0
 11 10  2  0
 12 13  1  0
 13 19  1  0
 13 14  1  1
 14 15  1  0
 16 17  1  0
 16 15  1  0
 18 17  1  0
 19 20  2  0
 19 21  1  0
M  END
$$$$
