PGK.pdb
     RDKit          3D

 21 21  0  0  1  0  0  0  0  0999 V2000
   22.3126  -15.5381  -15.6102 N   0  0  0  0  0  0  0  0  0  0  0  0
   21.2114  -16.2307  -16.2041 C   0  0  0  0  0  0  0  0  0  0  0  0
   21.5640  -16.5120  -17.6447 C   0  0  0  0  0  0  0  0  0  0  0  0
   23.0847  -16.3807  -17.6083 C   0  0  0  0  0  0  0  0  0  0  0  0
   23.2638  -15.2315  -16.6577 C   0  0  1  0  0  0  0  0  0  0  0  0
   22.8631  -13.9259  -17.2590 C   0  0  0  0  0  0  0  0  0  0  0  0
   23.3178  -13.5329  -18.3762 O   0  0  0  0  0  0  0  0  0  0  0  0
   21.9489  -13.0474  -16.6149 N   0  0  0  0  0  0  0  0  0  0  0  0
   21.6420  -11.7512  -17.1280 C   0  0  0  0  0  0  0  0  0  0  0  0
   22.0287  -10.6547  -16.2035 C   0  0  0  0  0  0  0  0  0  0  0  0
   22.1753  -10.9273  -14.9878 O   0  0  0  0  0  0  0  0  0  0  0  0
   22.2251   -9.3367  -16.6904 N   0  0  0  0  0  0  0  0  0  0  0  0
   22.5696   -8.2271  -15.8000 C   0  0  1  0  0  0  0  0  0  0  0  0
   22.6910   -6.9793  -16.6397 C   0  0  0  0  0  0  0  0  0  0  0  0
   23.0379   -5.7682  -15.8403 C   0  0  0  0  0  0  0  0  0  0  0  0
   23.0590   -4.5673  -16.7744 C   0  0  0  0  0  0  0  0  0  0  0  0
   23.4650   -3.3538  -15.9463 C   0  0  0  0  0  0  0  0  0  0  0  0
   23.4617   -2.1416  -16.7065 N   0  0  0  0  0  0  0  0  0  0  0  0
   21.4873   -7.9923  -14.8123 C   0  0  0  0  0  0  0  0  0  0  0  0
   20.2727   -8.1321  -15.0823 O   0  0  0  0  0  0  0  0  0  0  0  0
   21.8370   -7.6013  -13.5358 O   0  0  0  0  0  0  0  0  0  0  0  0
  1  2  1  0
  1  5  1  0
  2  3  1  0
  3  4  1  0
  5  4  1  0
  5  6  1  6
  6  7  2  0
  8  6  1  0
  9  8  1  0
  9 10  1  0
 10 12  1  0
 11 10  2  0
 12 13  1  0
 13 19  1  0
 13 14  1  6
 14 15  1  0
 16 17  1  0
 16 15  1  0
 18 17  1  0
 19 20  2  0
 19 21  1  0
M  END
$$$$
