PGK.pdb
     RDKit          3D

 21 21  0  0  1  0  0  0  0  0999 V2000
   19.5371  -13.0807  -17.5556 N   0  0  0  0  0  0  0  0  0  0  0  0
   19.5953  -12.6700  -18.9241 C   0  0  0  0  0  0  0  0  0  0  0  0
   21.0492  -12.5197  -19.3012 C   0  0  0  0  0  0  0  0  0  0  0  0
   21.7240  -13.3585  -18.2185 C   0  0  0  0  0  0  0  0  0  0  0  0
   20.8808  -13.0336  -17.0185 C   0  0  1  0  0  0  0  0  0  0  0  0
   21.1142  -11.6483  -16.5155 C   0  0  0  0  0  0  0  0  0  0  0  0
   22.2547  -11.2614  -16.1169 O   0  0  0  0  0  0  0  0  0  0  0  0
   20.0723  -10.6823  -16.4537 N   0  0  0  0  0  0  0  0  0  0  0  0
   19.7224  -10.0097  -15.2443 C   0  0  0  0  0  0  0  0  0  0  0  0
   20.5031   -8.7650  -15.0259 C   0  0  0  0  0  0  0  0  0  0  0  0
   20.2085   -8.0444  -14.0423 O   0  0  0  0  0  0  0  0  0  0  0  0
   21.5528   -8.4077  -15.9110 N   0  0  0  0  0  0  0  0  0  0  0  0
   22.3443   -7.1913  -15.7203 C   0  0  1  0  0  0  0  0  0  0  0  0
   23.7479   -7.4717  -16.1978 C   0  0  0  0  0  0  0  0  0  0  0  0
   23.7984   -7.9728  -17.6023 C   0  0  0  0  0  0  0  0  0  0  0  0
   25.2574   -8.0813  -18.0202 C   0  0  0  0  0  0  0  0  0  0  0  0
   25.2819   -8.5596  -19.4672 C   0  0  0  0  0  0  0  0  0  0  0  0
   26.6061   -8.8332  -19.9350 N   0  0  0  0  0  0  0  0  0  0  0  0
   21.8086   -6.0822  -16.5480 C   0  0  0  0  0  0  0  0  0  0  0  0
   22.2373   -4.9079  -16.4781 O   0  0  0  0  0  0  0  0  0  0  0  0
   20.7895   -6.3591  -17.4364 O   0  0  0  0  0  0  0  0  0  0  0  0
  1  2  1  0
  1  5  1  0
  2  3  1  0
  3  4  1  0
  5  4  1  0
  5  6  1  6
  6  7  2  0
  8  6  1  0
  9  8  1  0
  9 10  1  0
 10 12  1  0
 11 10  2  0
 12 13  1  0
 13 19  1  0
 13 14  1  6
 14 15  1  0
 16 17  1  0
 16 15  1  0
 18 17  1  0
 19 20  2  0
 19 21  1  0
M  END
$$$$
