PGK.pdb
     RDKit          3D

 21 21  0  0  1  0  0  0  0  0999 V2000
   17.7769  -10.0137  -15.6445 N   0  0  0  0  0  0  0  0  0  0  0  0
   18.9083  -10.8856  -15.7137 C   0  0  0  0  0  0  0  0  0  0  0  0
   18.4830  -12.2381  -15.1955 C   0  0  0  0  0  0  0  0  0  0  0  0
   16.9657  -12.1460  -15.3381 C   0  0  0  0  0  0  0  0  0  0  0  0
   16.7148  -10.7154  -14.9549 C   0  0  1  0  0  0  0  0  0  0  0  0
   16.8949  -10.4764  -13.4931 C   0  0  0  0  0  0  0  0  0  0  0  0
   16.2002  -11.0835  -12.6223 O   0  0  0  0  0  0  0  0  0  0  0  0
   17.8551   -9.5548  -12.9918 N   0  0  0  0  0  0  0  0  0  0  0  0
   17.9700   -9.2488  -11.6023 C   0  0  0  0  0  0  0  0  0  0  0  0
   17.1882   -8.0497  -11.2057 C   0  0  0  0  0  0  0  0  0  0  0  0
   17.1888   -7.0593  -11.9756 O   0  0  0  0  0  0  0  0  0  0  0  0
   16.4627   -8.0328   -9.9866 N   0  0  0  0  0  0  0  0  0  0  0  0
   15.6597   -6.8781   -9.5808 C   0  0  1  0  0  0  0  0  0  0  0  0
   14.6698   -7.3438   -8.5415 C   0  0  0  0  0  0  0  0  0  0  0  0
   13.4695   -8.0044   -9.1320 C   0  0  0  0  0  0  0  0  0  0  0  0
   12.5617   -8.4527   -7.9962 C   0  0  0  0  0  0  0  0  0  0  0  0
   11.2845   -8.9994   -8.6231 C   0  0  0  0  0  0  0  0  0  0  0  0
   10.3683   -9.5112   -7.6504 N   0  0  0  0  0  0  0  0  0  0  0  0
   16.5132   -5.8430   -8.9467 C   0  0  0  0  0  0  0  0  0  0  0  0
   17.5886   -6.1071   -8.3625 O   0  0  0  0  0  0  0  0  0  0  0  0
   16.1013   -4.5271   -9.0042 O   0  0  0  0  0  0  0  0  0  0  0  0
  1  2  1  0
  1  5  1  0
  2  3  1  0
  3  4  1  0
  5  4  1  0
  5  6  1  1
  6  7  2  0
  8  6  1  0
  9  8  1  0
  9 10  1  0
 10 12  1  0
 11 10  2  0
 12 13  1  0
 13 19  1  0
 13 14  1  1
 14 15  1  0
 16 17  1  0
 16 15  1  0
 18 17  1  0
 19 20  2  0
 19 21  1  0
M  END
$$$$
