PGK.pdb
     RDKit          3D

 21 21  0  0  1  0  0  0  0  0999 V2000
   26.4724  -19.0777   -8.3613 N   0  0  0  0  0  0  0  0  0  0  0  0
   26.6676  -19.9180   -7.2208 C   0  0  0  0  0  0  0  0  0  0  0  0
   27.9969  -20.6150   -7.3811 C   0  0  0  0  0  0  0  0  0  0  0  0
   28.6861  -19.7076   -8.3974 C   0  0  0  0  0  0  0  0  0  0  0  0
   27.5416  -19.3449   -9.3001 C   0  0  1  0  0  0  0  0  0  0  0  0
   27.1090  -20.4856  -10.1594 C   0  0  0  0  0  0  0  0  0  0  0  0
   27.8874  -21.0230  -11.0048 O   0  0  0  0  0  0  0  0  0  0  0  0
   25.8001  -21.0359  -10.0803 N   0  0  0  0  0  0  0  0  0  0  0  0
   25.3167  -21.9995  -11.0161 C   0  0  0  0  0  0  0  0  0  0  0  0
   24.2748  -21.4548  -11.9238 C   0  0  0  0  0  0  0  0  0  0  0  0
   23.1476  -22.0052  -11.9315 O   0  0  0  0  0  0  0  0  0  0  0  0
   24.5550  -20.3411  -12.7570 N   0  0  0  0  0  0  0  0  0  0  0  0
   23.5258  -19.7250  -13.5958 C   0  0  1  0  0  0  0  0  0  0  0  0
   24.1751  -18.6167  -14.3876 C   0  0  0  0  0  0  0  0  0  0  0  0
   23.1992  -17.8207  -15.1877 C   0  0  0  0  0  0  0  0  0  0  0  0
   23.9693  -16.7744  -15.9798 C   0  0  0  0  0  0  0  0  0  0  0  0
   22.9503  -15.9564  -16.7642 C   0  0  0  0  0  0  0  0  0  0  0  0
   23.5626  -14.9844  -17.6171 N   0  0  0  0  0  0  0  0  0  0  0  0
   22.9860  -20.7066  -14.5691 C   0  0  0  0  0  0  0  0  0  0  0  0
   21.7748  -20.7653  -14.8809 O   0  0  0  0  0  0  0  0  0  0  0  0
   23.8611  -21.5966  -15.1578 O   0  0  0  0  0  0  0  0  0  0  0  0
  1  2  1  0
  1  5  1  0
  2  3  1  0
  3  4  1  0
  5  4  1  0
  5  6  1  6
  6  7  2  0
  8  6  1  0
  9  8  1  0
  9 10  1  0
 10 12  1  0
 11 10  2  0
 12 13  1  0
 13 19  1  0
 13 14  1  6
 14 15  1  0
 16 17  1  0
 16 15  1  0
 18 17  1  0
 19 20  2  0
 19 21  1  0
M  END
$$$$
