PGK.pdb
     RDKit          3D

 21 21  0  0  1  0  0  0  0  0999 V2000
   18.1929  -10.3518  -13.5596 N   0  0  0  0  0  0  0  0  0  0  0  0
   16.8715  -10.2186  -14.0897 C   0  0  0  0  0  0  0  0  0  0  0  0
   16.7712   -8.8643  -14.7486 C   0  0  0  0  0  0  0  0  0  0  0  0
   18.2451   -8.5321  -14.9684 C   0  0  0  0  0  0  0  0  0  0  0  0
   18.8659   -9.0793  -13.7148 C   0  0  1  0  0  0  0  0  0  0  0  0
   18.5471   -8.2542  -12.5130 C   0  0  0  0  0  0  0  0  0  0  0  0
   18.7718   -7.0062  -12.4760 O   0  0  0  0  0  0  0  0  0  0  0  0
   17.9733   -8.8187  -11.3406 N   0  0  0  0  0  0  0  0  0  0  0  0
   17.6725   -8.0388  -10.1835 C   0  0  0  0  0  0  0  0  0  0  0  0
   16.3027   -7.4649  -10.2107 C   0  0  0  0  0  0  0  0  0  0  0  0
   15.8474   -7.0672  -11.3098 O   0  0  0  0  0  0  0  0  0  0  0  0
   15.5360   -7.3726   -9.0205 N   0  0  0  0  0  0  0  0  0  0  0  0
   14.1729   -6.8389   -9.0185 C   0  0  1  0  0  0  0  0  0  0  0  0
   13.4479   -7.4231   -7.8312 C   0  0  0  0  0  0  0  0  0  0  0  0
   12.0353   -6.9557   -7.7209 C   0  0  0  0  0  0  0  0  0  0  0  0
   11.3741   -7.6964   -6.5680 C   0  0  0  0  0  0  0  0  0  0  0  0
    9.9027   -7.2988   -6.5559 C   0  0  0  0  0  0  0  0  0  0  0  0
    9.1799   -7.8933   -5.4736 N   0  0  0  0  0  0  0  0  0  0  0  0
   14.1875   -5.3649   -8.8469 C   0  0  0  0  0  0  0  0  0  0  0  0
   13.3159   -4.6108   -9.3360 O   0  0  0  0  0  0  0  0  0  0  0  0
   15.2106   -4.7995   -8.1134 O   0  0  0  0  0  0  0  0  0  0  0  0
  1  2  1  0
  1  5  1  0
  2  3  1  0
  3  4  1  0
  5  4  1  0
  5  6  1  1
  6  7  2  0
  8  6  1  0
  9  8  1  0
  9 10  1  0
 10 12  1  0
 11 10  2  0
 12 13  1  0
 13 19  1  0
 13 14  1  1
 14 15  1  0
 16 17  1  0
 16 15  1  0
 18 17  1  0
 19 20  2  0
 19 21  1  0
M  END
$$$$
