PGK.pdb
     RDKit          3D

 21 21  0  0  1  0  0  0  0  0999 V2000
   14.3716  -22.4138   -0.2879 N   0  0  0  0  0  0  0  0  0  0  0  0
   15.4381  -22.7809   -1.1670 C   0  0  0  0  0  0  0  0  0  0  0  0
   16.2400  -23.8681   -0.4934 C   0  0  0  0  0  0  0  0  0  0  0  0
   15.2362  -24.3816    0.5361 C   0  0  0  0  0  0  0  0  0  0  0  0
   14.5706  -23.1062    0.9680 C   0  0  1  0  0  0  0  0  0  0  0  0
   15.4599  -22.2561    1.8124 C   0  0  0  0  0  0  0  0  0  0  0  0
   16.0197  -22.7025    2.8596 O   0  0  0  0  0  0  0  0  0  0  0  0
   15.7312  -20.8972    1.4923 N   0  0  0  0  0  0  0  0  0  0  0  0
   16.3748  -20.0091    2.4059 C   0  0  0  0  0  0  0  0  0  0  0  0
   15.5107  -18.8730    2.8168 C   0  0  0  0  0  0  0  0  0  0  0  0
   16.0402  -17.9169    3.4325 O   0  0  0  0  0  0  0  0  0  0  0  0
   14.1240  -18.8767    2.5171 N   0  0  0  0  0  0  0  0  0  0  0  0
   13.2544  -17.7526    2.8675 C   0  0  1  0  0  0  0  0  0  0  0  0
   12.1861  -17.6446    1.8073 C   0  0  0  0  0  0  0  0  0  0  0  0
   11.2987  -16.4593    1.9902 C   0  0  0  0  0  0  0  0  0  0  0  0
   10.2868  -16.4383    0.8541 C   0  0  0  0  0  0  0  0  0  0  0  0
    9.4339  -15.1871    1.0274 C   0  0  0  0  0  0  0  0  0  0  0  0
    8.4777  -15.0218   -0.0241 N   0  0  0  0  0  0  0  0  0  0  0  0
   12.5708  -18.0021    4.1608 C   0  0  0  0  0  0  0  0  0  0  0  0
   12.3997  -19.1486    4.6339 O   0  0  0  0  0  0  0  0  0  0  0  0
   12.1017  -16.9185    4.8752 O   0  0  0  0  0  0  0  0  0  0  0  0
  1  2  1  0
  1  5  1  0
  2  3  1  0
  3  4  1  0
  5  4  1  0
  5  6  1  1
  6  7  2  0
  8  6  1  0
  9  8  1  0
  9 10  1  0
 10 12  1  0
 11 10  2  0
 12 13  1  0
 13 19  1  0
 13 14  1  6
 14 15  1  0
 16 17  1  0
 16 15  1  0
 18 17  1  0
 19 20  2  0
 19 21  1  0
M  END
$$$$
