PGK.pdb
     RDKit          3D

 21 21  0  0  1  0  0  0  0  0999 V2000
   28.8929  -18.6159   -7.0929 N   0  0  0  0  0  0  0  0  0  0  0  0
   27.5410  -18.5864   -6.6278 C   0  0  0  0  0  0  0  0  0  0  0  0
   27.2429  -19.9198   -5.9860 C   0  0  0  0  0  0  0  0  0  0  0  0
   28.6523  -20.4319   -5.6989 C   0  0  0  0  0  0  0  0  0  0  0  0
   29.3958  -19.9621   -6.9167 C   0  0  1  0  0  0  0  0  0  0  0  0
   29.0365  -20.7384   -8.1393 C   0  0  0  0  0  0  0  0  0  0  0  0
   28.6952  -21.9590   -8.0840 O   0  0  0  0  0  0  0  0  0  0  0  0
   29.0560  -20.1554   -9.4363 N   0  0  0  0  0  0  0  0  0  0  0  0
   28.9782  -20.9368  -10.6283 C   0  0  0  0  0  0  0  0  0  0  0  0
   27.5849  -21.2983  -10.9951 C   0  0  0  0  0  0  0  0  0  0  0  0
   27.4025  -21.9861  -12.0282 O   0  0  0  0  0  0  0  0  0  0  0  0
   26.4947  -20.8730  -10.1930 N   0  0  0  0  0  0  0  0  0  0  0  0
   25.1118  -21.2254  -10.5184 C   0  0  1  0  0  0  0  0  0  0  0  0
   24.3391  -21.3135   -9.2254 C   0  0  0  0  0  0  0  0  0  0  0  0
   22.8980  -21.6433   -9.4268 C   0  0  0  0  0  0  0  0  0  0  0  0
   22.2480  -21.8053   -8.0607 C   0  0  0  0  0  0  0  0  0  0  0  0
   20.7957  -22.2056   -8.2924 C   0  0  0  0  0  0  0  0  0  0  0  0
   20.0668  -22.3667   -7.0717 N   0  0  0  0  0  0  0  0  0  0  0  0
   24.4798  -20.1636  -11.3402 C   0  0  0  0  0  0  0  0  0  0  0  0
   24.9029  -18.9858  -11.3787 O   0  0  0  0  0  0  0  0  0  0  0  0
   23.3734  -20.4906  -12.0974 O   0  0  0  0  0  0  0  0  0  0  0  0
  1  2  1  0
  1  5  1  0
  2  3  1  0
  3  4  1  0
  5  4  1  0
  5  6  1  6
  6  7  2  0
  8  6  1  0
  9  8  1  0
  9 10  1  0
 10 12  1  0
 11 10  2  0
 12 13  1  0
 13 19  1  0
 13 14  1  1
 14 15  1  0
 16 17  1  0
 16 15  1  0
 18 17  1  0
 19 20  2  0
 19 21  1  0
M  END
$$$$
