PGK.pdb
     RDKit          3D

 21 21  0  0  1  0  0  0  0  0999 V2000
   29.4395  -20.6226  -11.2839 N   0  0  0  0  0  0  0  0  0  0  0  0
   30.2199  -20.2013  -10.1620 C   0  0  0  0  0  0  0  0  0  0  0  0
   30.2561  -21.3383   -9.1699 C   0  0  0  0  0  0  0  0  0  0  0  0
   29.8871  -22.5213  -10.0617 C   0  0  0  0  0  0  0  0  0  0  0  0
   28.8536  -21.9069  -10.9622 C   0  0  1  0  0  0  0  0  0  0  0  0
   27.5643  -21.6474  -10.2572 C   0  0  0  0  0  0  0  0  0  0  0  0
   26.8451  -22.5890   -9.8037 O   0  0  0  0  0  0  0  0  0  0  0  0
   27.0676  -20.3306  -10.0530 N   0  0  0  0  0  0  0  0  0  0  0  0
   25.7793  -20.0764   -9.4933 C   0  0  0  0  0  0  0  0  0  0  0  0
   24.7208  -19.9162  -10.5229 C   0  0  0  0  0  0  0  0  0  0  0  0
   23.5361  -19.7674  -10.1382 O   0  0  0  0  0  0  0  0  0  0  0  0
   25.0491  -19.9321  -11.9031 N   0  0  0  0  0  0  0  0  0  0  0  0
   24.0266  -19.8025  -12.9425 C   0  0  1  0  0  0  0  0  0  0  0  0
   24.7298  -19.6731  -14.2712 C   0  0  0  0  0  0  0  0  0  0  0  0
   23.7909  -19.4633  -15.4116 C   0  0  0  0  0  0  0  0  0  0  0  0
   24.6034  -19.4030  -16.6965 C   0  0  0  0  0  0  0  0  0  0  0  0
   23.6338  -19.1074  -17.8347 C   0  0  0  0  0  0  0  0  0  0  0  0
   24.2983  -18.8949  -19.0839 N   0  0  0  0  0  0  0  0  0  0  0  0
   23.1846  -21.0229  -13.0043 C   0  0  0  0  0  0  0  0  0  0  0  0
   23.6518  -22.1812  -12.9182 O   0  0  0  0  0  0  0  0  0  0  0  0
   21.8221  -20.8729  -13.1644 O   0  0  0  0  0  0  0  0  0  0  0  0
  1  2  1  0
  1  5  1  0
  2  3  1  0
  3  4  1  0
  5  4  1  0
  5  6  1  1
  6  7  2  0
  8  6  1  0
  9  8  1  0
  9 10  1  0
 10 12  1  0
 11 10  2  0
 12 13  1  0
 13 19  1  0
 13 14  1  6
 14 15  1  0
 16 17  1  0
 16 15  1  0
 18 17  1  0
 19 20  2  0
 19 21  1  0
M  END
$$$$
