PGK.pdb
     RDKit          3D

 21 21  0  0  1  0  0  0  0  0999 V2000
   20.7641  -16.6746  -15.2174 N   0  0  0  0  0  0  0  0  0  0  0  0
   20.3201  -17.3705  -16.3851 C   0  0  0  0  0  0  0  0  0  0  0  0
   21.3613  -17.1804  -17.4614 C   0  0  0  0  0  0  0  0  0  0  0  0
   22.5791  -16.7862  -16.6289 C   0  0  0  0  0  0  0  0  0  0  0  0
   21.9520  -15.9256  -15.5694 C   0  0  1  0  0  0  0  0  0  0  0  0
   21.5076  -14.6028  -16.0980 C   0  0  0  0  0  0  0  0  0  0  0  0
   22.2983  -13.8256  -16.7146 O   0  0  0  0  0  0  0  0  0  0  0  0
   20.1730  -14.1373  -15.9414 N   0  0  0  0  0  0  0  0  0  0  0  0
   19.7539  -12.8486  -16.3900 C   0  0  0  0  0  0  0  0  0  0  0  0
   20.2407  -11.7457  -15.5224 C   0  0  0  0  0  0  0  0  0  0  0  0
   20.0674  -11.8441  -14.2838 O   0  0  0  0  0  0  0  0  0  0  0  0
   20.8837  -10.6141  -16.0872 N   0  0  0  0  0  0  0  0  0  0  0  0
   21.2569   -9.4529  -15.2779 C   0  0  1  0  0  0  0  0  0  0  0  0
   21.9649   -8.4693  -16.1769 C   0  0  0  0  0  0  0  0  0  0  0  0
   22.3988   -7.2329  -15.4634 C   0  0  0  0  0  0  0  0  0  0  0  0
   22.2017   -6.0472  -16.3963 C   0  0  0  0  0  0  0  0  0  0  0  0
   22.6822   -4.8030  -15.6587 C   0  0  0  0  0  0  0  0  0  0  0  0
   22.4824   -3.6035  -16.4127 N   0  0  0  0  0  0  0  0  0  0  0  0
   20.0489   -8.7754  -14.7451 C   0  0  0  0  0  0  0  0  0  0  0  0
   18.9789   -8.6796  -15.3880 O   0  0  0  0  0  0  0  0  0  0  0  0
   20.1087   -8.2251  -13.4809 O   0  0  0  0  0  0  0  0  0  0  0  0
  1  2  1  0
  1  5  1  0
  2  3  1  0
  3  4  1  0
  5  4  1  0
  5  6  1  6
  6  7  2  0
  8  6  1  0
  9  8  1  0
  9 10  1  0
 10 12  1  0
 11 10  2  0
 12 13  1  0
 13 19  1  0
 13 14  1  6
 14 15  1  0
 16 17  1  0
 16 15  1  0
 18 17  1  0
 19 20  2  0
 19 21  1  0
M  END
$$$$
