PGK.pdb
     RDKit          3D

 21 21  0  0  1  0  0  0  0  0999 V2000
   26.0013  -20.8951  -11.9284 N   0  0  0  0  0  0  0  0  0  0  0  0
   27.2566  -21.5642  -11.7816 C   0  0  0  0  0  0  0  0  0  0  0  0
   28.1030  -21.2301  -12.9860 C   0  0  0  0  0  0  0  0  0  0  0  0
   27.4125  -19.9656  -13.4915 C   0  0  0  0  0  0  0  0  0  0  0  0
   25.9676  -20.2942  -13.2452 C   0  0  1  0  0  0  0  0  0  0  0  0
   25.4465  -21.3217  -14.1935 C   0  0  0  0  0  0  0  0  0  0  0  0
   25.3662  -21.1054  -15.4410 O   0  0  0  0  0  0  0  0  0  0  0  0
   25.0099  -22.6018  -13.7541 N   0  0  0  0  0  0  0  0  0  0  0  0
   24.4088  -23.5501  -14.6356 C   0  0  0  0  0  0  0  0  0  0  0  0
   22.9279  -23.4435  -14.6800 C   0  0  0  0  0  0  0  0  0  0  0  0
   22.3166  -24.0463  -15.5946 O   0  0  0  0  0  0  0  0  0  0  0  0
   22.2308  -22.6781  -13.7099 N   0  0  0  0  0  0  0  0  0  0  0  0
   20.7717  -22.5605  -13.7207 C   0  0  1  0  0  0  0  0  0  0  0  0
   20.3036  -22.4650  -12.2894 C   0  0  0  0  0  0  0  0  0  0  0  0
   19.7241  -23.7410  -11.7775 C   0  0  0  0  0  0  0  0  0  0  0  0
   19.2939  -23.5268  -10.3339 C   0  0  0  0  0  0  0  0  0  0  0  0
   18.6801  -24.8329   -9.8435 C   0  0  0  0  0  0  0  0  0  0  0  0
   18.2684  -24.7688   -8.4746 N   0  0  0  0  0  0  0  0  0  0  0  0
   20.3515  -21.3142  -14.4079 C   0  0  0  0  0  0  0  0  0  0  0  0
   20.8742  -20.1991  -14.1821 O   0  0  0  0  0  0  0  0  0  0  0  0
   19.3364  -21.3887  -15.3399 O   0  0  0  0  0  0  0  0  0  0  0  0
  1  2  1  0
  1  5  1  0
  2  3  1  0
  3  4  1  0
  5  4  1  0
  5  6  1  6
  6  7  2  0
  8  6  1  0
  9  8  1  0
  9 10  1  0
 10 12  1  0
 11 10  2  0
 12 13  1  0
 13 19  1  0
 13 14  1  1
 14 15  1  0
 16 17  1  0
 16 15  1  0
 18 17  1  0
 19 20  2  0
 19 21  1  0
M  END
$$$$
