PGK.pdb
     RDKit          3D

 21 21  0  0  1  0  0  0  0  0999 V2000
   35.1000  -36.3626   -5.4166 N   0  0  0  0  0  0  0  0  0  0  0  0
   34.2039  -37.3745   -4.9496 C   0  0  0  0  0  0  0  0  0  0  0  0
   32.9661  -37.3310   -5.8125 C   0  0  0  0  0  0  0  0  0  0  0  0
   33.4901  -36.5977   -7.0450 C   0  0  0  0  0  0  0  0  0  0  0  0
   34.4087  -35.5848   -6.4232 C   0  0  1  0  0  0  0  0  0  0  0  0
   33.6670  -34.4983   -5.7190 C   0  0  0  0  0  0  0  0  0  0  0  0
   33.5921  -34.4468   -4.4537 O   0  0  0  0  0  0  0  0  0  0  0  0
   33.0016  -33.4586   -6.4251 N   0  0  0  0  0  0  0  0  0  0  0  0
   32.4189  -32.3354   -5.7643 C   0  0  0  0  0  0  0  0  0  0  0  0
   31.0371  -32.5963   -5.2859 C   0  0  0  0  0  0  0  0  0  0  0  0
   30.4113  -31.6570   -4.7384 O   0  0  0  0  0  0  0  0  0  0  0  0
   30.4478  -33.8767   -5.4478 N   0  0  0  0  0  0  0  0  0  0  0  0
   29.0948  -34.1705   -4.9726 C   0  0  1  0  0  0  0  0  0  0  0  0
   28.2587  -34.5612   -6.1664 C   0  0  0  0  0  0  0  0  0  0  0  0
   27.6231  -33.3929   -6.8425 C   0  0  0  0  0  0  0  0  0  0  0  0
   26.7510  -33.9115   -7.9763 C   0  0  0  0  0  0  0  0  0  0  0  0
   26.0429  -32.7103   -8.5917 C   0  0  0  0  0  0  0  0  0  0  0  0
   25.1697  -33.0753   -9.6649 N   0  0  0  0  0  0  0  0  0  0  0  0
   29.1056  -35.3267   -4.0424 C   0  0  0  0  0  0  0  0  0  0  0  0
   28.1317  -35.6292   -3.3161 O   0  0  0  0  0  0  0  0  0  0  0  0
   30.2434  -36.1048   -3.9755 O   0  0  0  0  0  0  0  0  0  0  0  0
  1  2  1  0
  1  5  1  0
  2  3  1  0
  3  4  1  0
  5  4  1  0
  5  6  1  1
  6  7  2  0
  8  6  1  0
  9  8  1  0
  9 10  1  0
 10 12  1  0
 11 10  2  0
 12 13  1  0
 13 19  1  0
 13 14  1  6
 14 15  1  0
 16 17  1  0
 16 15  1  0
 18 17  1  0
 19 20  2  0
 19 21  1  0
M  END
$$$$
