PGK.pdb
     RDKit          3D

 21 21  0  0  1  0  0  0  0  0999 V2000
   27.1483  -19.1579  -15.5822 N   0  0  0  0  0  0  0  0  0  0  0  0
   28.3094  -18.9436  -14.7753 C   0  0  0  0  0  0  0  0  0  0  0  0
   28.9473  -20.2868  -14.5157 C   0  0  0  0  0  0  0  0  0  0  0  0
   28.3456  -21.1230  -15.6427 C   0  0  0  0  0  0  0  0  0  0  0  0
   26.9437  -20.5864  -15.6984 C   0  0  1  0  0  0  0  0  0  0  0  0
   26.1208  -21.0178  -14.5309 C   0  0  0  0  0  0  0  0  0  0  0  0
   25.9151  -22.2420  -14.2695 O   0  0  0  0  0  0  0  0  0  0  0  0
   25.5199  -20.0822  -13.6442 N   0  0  0  0  0  0  0  0  0  0  0  0
   24.5057  -20.4540  -12.7111 C   0  0  0  0  0  0  0  0  0  0  0  0
   23.1391  -20.4100  -13.2914 C   0  0  0  0  0  0  0  0  0  0  0  0
   22.9050  -19.5732  -14.1961 O   0  0  0  0  0  0  0  0  0  0  0  0
   22.1306  -21.2945  -12.8290 N   0  0  0  0  0  0  0  0  0  0  0  0
   20.7818  -21.2937  -13.3976 C   0  0  1  0  0  0  0  0  0  0  0  0
   20.0169  -22.4376  -12.7785 C   0  0  0  0  0  0  0  0  0  0  0  0
   18.6283  -22.5672  -13.3086 C   0  0  0  0  0  0  0  0  0  0  0  0
   17.9601  -23.7472  -12.6186 C   0  0  0  0  0  0  0  0  0  0  0  0
   16.5722  -23.9046  -13.2285 C   0  0  0  0  0  0  0  0  0  0  0  0
   15.8913  -25.0708  -12.7556 N   0  0  0  0  0  0  0  0  0  0  0  0
   20.0661  -20.0418  -13.0472 C   0  0  0  0  0  0  0  0  0  0  0  0
   20.3000  -19.3892  -12.0046 O   0  0  0  0  0  0  0  0  0  0  0  0
   19.0970  -19.5756  -13.9121 O   0  0  0  0  0  0  0  0  0  0  0  0
  1  2  1  0
  1  5  1  0
  2  3  1  0
  3  4  1  0
  5  4  1  0
  5  6  1  1
  6  7  2  0
  8  6  1  0
  9  8  1  0
  9 10  1  0
 10 12  1  0
 11 10  2  0
 12 13  1  0
 13 19  1  0
 13 14  1  1
 14 15  1  0
 16 17  1  0
 16 15  1  0
 18 17  1  0
 19 20  2  0
 19 21  1  0
M  END
$$$$
