PGK.pdb
     RDKit          3D

 21 21  0  0  1  0  0  0  0  0999 V2000
   20.6216  -12.0053  -15.6724 N   0  0  0  0  0  0  0  0  0  0  0  0
   19.4426  -11.1968  -15.6378 C   0  0  0  0  0  0  0  0  0  0  0  0
   19.0547  -10.8824  -17.0623 C   0  0  0  0  0  0  0  0  0  0  0  0
   19.7933  -11.9831  -17.8200 C   0  0  0  0  0  0  0  0  0  0  0  0
   21.0771  -12.0709  -17.0451 C   0  0  1  0  0  0  0  0  0  0  0  0
   21.9662  -10.8955  -17.2789 C   0  0  0  0  0  0  0  0  0  0  0  0
   22.3604  -10.5717  -18.4405 O   0  0  0  0  0  0  0  0  0  0  0  0
   22.4227  -10.0709  -16.2140 N   0  0  0  0  0  0  0  0  0  0  0  0
   23.2137   -8.9033  -16.4347 C   0  0  0  0  0  0  0  0  0  0  0  0
   22.4604   -7.6421  -16.2152 C   0  0  0  0  0  0  0  0  0  0  0  0
   23.1097   -6.5746  -16.1039 O   0  0  0  0  0  0  0  0  0  0  0  0
   21.0439   -7.6530  -16.1349 N   0  0  0  0  0  0  0  0  0  0  0  0
   20.2637   -6.4161  -16.0720 C   0  0  1  0  0  0  0  0  0  0  0  0
   18.8511   -6.7369  -16.4943 C   0  0  0  0  0  0  0  0  0  0  0  0
   17.9680   -5.5352  -16.5421 C   0  0  0  0  0  0  0  0  0  0  0  0
   16.5728   -5.9819  -16.9529 C   0  0  0  0  0  0  0  0  0  0  0  0
   15.7019   -4.7339  -17.0374 C   0  0  0  0  0  0  0  0  0  0  0  0
   14.4202   -4.9942  -17.6178 N   0  0  0  0  0  0  0  0  0  0  0  0
   20.2041   -5.9042  -14.6803 C   0  0  0  0  0  0  0  0  0  0  0  0
   20.1770   -4.6841  -14.4010 O   0  0  0  0  0  0  0  0  0  0  0  0
   20.1774   -6.8171  -13.6457 O   0  0  0  0  0  0  0  0  0  0  0  0
  1  2  1  0
  1  5  1  0
  2  3  1  0
  3  4  1  0
  5  4  1  0
  5  6  1  6
  6  7  2  0
  8  6  1  0
  9  8  1  0
  9 10  1  0
 10 12  1  0
 11 10  2  0
 12 13  1  0
 13 19  1  0
 13 14  1  1
 14 15  1  0
 16 17  1  0
 16 15  1  0
 18 17  1  0
 19 20  2  0
 19 21  1  0
M  END
$$$$
