EVL.pdb
     RDKit          3D

 25 24  0  0  1  0  0  0  0  0999 V2000
   10.8489  -17.2924   18.5057 N   0  0  0  0  0  0  0  0  0  0  0  0
   10.7246  -17.7758   19.8814 C   0  0  1  0  0  0  0  0  0  0  0  0
   11.9313  -18.6144   20.1984 C   0  0  0  0  0  0  0  0  0  0  0  0
   13.2304  -17.9069   20.0875 C   0  0  0  0  0  0  0  0  0  0  0  0
   14.4027  -18.6556   20.5629 C   0  0  0  0  0  0  0  0  0  0  0  0
   15.5423  -18.4236   20.1104 O   0  0  0  0  0  0  0  0  0  0  0  0
   10.5702  -16.6146   20.8273 C   0  0  0  0  0  0  0  0  0  0  0  0
   11.4209  -15.7085   20.8220 O   0  0  0  0  0  0  0  0  0  0  0  0
   14.2842  -19.6414   21.5263 O   0  0  0  0  0  0  0  0  0  0  0  0
    7.3444  -14.8300   20.8792 C   0  0  0  0  0  0  0  0  0  0  0  0
    7.5569  -15.2181   22.3476 C   0  0  1  0  0  0  0  0  0  0  0  0
    6.7945  -16.5715   22.4158 C   0  0  0  0  0  0  0  0  0  0  0  0
    9.0149  -15.5535   22.5705 C   0  0  2  0  0  0  0  0  0  0  0  0
    9.4633  -16.6119   21.6763 N   0  0  0  0  0  0  0  0  0  0  0  0
    9.4118  -15.8440   23.9425 C   0  0  0  0  0  0  0  0  0  0  0  0
    9.4984  -17.0992   24.2389 O   0  0  0  0  0  0  0  0  0  0  0  0
   11.2409  -14.6720   29.2245 C   0  0  0  0  0  0  0  0  0  0  0  0
    9.8369  -14.4081   28.7345 C   0  0  1  0  0  0  0  0  0  0  0  0
    9.4087  -13.0957   29.4131 C   0  0  0  0  0  0  0  0  0  0  0  0
    9.7010  -14.1962   27.2779 C   0  0  0  0  0  0  0  0  0  0  0  0
    9.8482  -15.3650   26.3844 C   0  0  2  0  0  0  0  0  0  0  0  0
    9.7170  -14.9669   24.9830 N   0  0  0  0  0  0  0  0  0  0  0  0
    9.0379  -16.5384   26.7036 C   0  0  0  0  0  0  0  0  0  0  0  0
    9.6355  -17.6290   27.3175 O   0  0  0  0  0  0  0  0  0  0  0  0
    7.8047  -16.6408   26.4577 O   0  0  0  0  0  0  0  0  0  0  0  0
  2  1  1  6
  2  3  1  0
  3  4  1  0
  5  6  2  0
  5  4  1  0
  7  8  2  0
  7  2  1  0
  9  5  1  0
 11 10  1  6
 11 13  1  0
 12 11  1  0
 13 14  1  6
 14  7  1  0
 15 22  1  0
 15 13  1  0
 16 15  2  0
 18 17  1  6
 18 20  1  0
 19 18  1  0
 21 20  1  1
 21 23  1  0
 21 22  1  0
 23 24  1  0
 25 23  2  0
M  END
$$$$
