EVL.pdb
     RDKit          3D

 25 24  0  0  1  0  0  0  0  0999 V2000
    9.9312  -16.7346   16.6443 N   0  0  0  0  0  0  0  0  0  0  0  0
    9.1811  -17.1239   17.8391 C   0  0  1  0  0  0  0  0  0  0  0  0
    9.3693  -18.5997   18.0550 C   0  0  0  0  0  0  0  0  0  0  0  0
    8.7102  -19.1425   19.2680 C   0  0  0  0  0  0  0  0  0  0  0  0
    8.8420  -20.5933   19.4657 C   0  0  0  0  0  0  0  0  0  0  0  0
    9.4588  -21.3020   18.6445 O   0  0  0  0  0  0  0  0  0  0  0  0
    9.6322  -16.3102   19.0228 C   0  0  0  0  0  0  0  0  0  0  0  0
   10.8460  -16.2278   19.2773 O   0  0  0  0  0  0  0  0  0  0  0  0
    8.2881  -21.2222   20.5664 O   0  0  0  0  0  0  0  0  0  0  0  0
    7.7454  -13.0558   19.7260 C   0  0  0  0  0  0  0  0  0  0  0  0
    7.8170  -13.7671   21.0828 C   0  0  1  0  0  0  0  0  0  0  0  0
    6.4193  -14.4457   21.1423 C   0  0  0  0  0  0  0  0  0  0  0  0
    8.8212  -14.8955   21.0039 C   0  0  2  0  0  0  0  0  0  0  0  0
    8.6514  -15.6788   19.7879 N   0  0  0  0  0  0  0  0  0  0  0  0
    8.9065  -15.7711   22.1658 C   0  0  0  0  0  0  0  0  0  0  0  0
    8.2876  -16.9004   22.0536 O   0  0  0  0  0  0  0  0  0  0  0  0
   13.0010  -19.0483   22.6754 C   0  0  0  0  0  0  0  0  0  0  0  0
   12.1059  -18.3710   23.6858 C   0  0  1  0  0  0  0  0  0  0  0  0
   13.0570  -17.7755   24.7379 C   0  0  0  0  0  0  0  0  0  0  0  0
   11.2939  -17.2505   23.1660 C   0  0  0  0  0  0  0  0  0  0  0  0
   10.3297  -16.6024   24.0807 C   0  0  2  0  0  0  0  0  0  0  0  0
    9.5619  -15.5727   23.3809 N   0  0  0  0  0  0  0  0  0  0  0  0
   10.8579  -16.1259   25.3571 C   0  0  0  0  0  0  0  0  0  0  0  0
   11.2098  -14.7910   25.4898 O   0  0  0  0  0  0  0  0  0  0  0  0
   11.0241  -16.8524   26.3750 O   0  0  0  0  0  0  0  0  0  0  0  0
  2  1  1  6
  2  3  1  0
  3  4  1  0
  5  6  2  0
  5  4  1  0
  7  8  2  0
  7  2  1  0
  9  5  1  0
 11 10  1  6
 11 13  1  0
 12 11  1  0
 13 14  1  6
 14  7  1  0
 15 22  1  0
 15 13  1  0
 16 15  2  0
 18 17  1  6
 18 20  1  0
 19 18  1  0
 21 20  1  6
 21 23  1  0
 21 22  1  0
 23 24  1  0
 25 23  2  0
M  END
$$$$
