EVL.pdb
     RDKit          3D

 25 24  0  0  1  0  0  0  0  0999 V2000
    9.9652  -19.4165   20.1637 N   0  0  0  0  0  0  0  0  0  0  0  0
    9.0491  -18.7314   21.0764 C   0  0  1  0  0  0  0  0  0  0  0  0
    9.0134  -19.4947   22.3710 C   0  0  0  0  0  0  0  0  0  0  0  0
    8.9076  -20.9671   22.2253 C   0  0  0  0  0  0  0  0  0  0  0  0
    8.8998  -21.7297   23.4820 C   0  0  0  0  0  0  0  0  0  0  0  0
    7.9356  -21.6613   24.2712 O   0  0  0  0  0  0  0  0  0  0  0  0
    9.4796  -17.3013   21.2670 C   0  0  0  0  0  0  0  0  0  0  0  0
   10.6892  -17.0409   21.3857 O   0  0  0  0  0  0  0  0  0  0  0  0
    9.9585  -22.5481   23.8331 O   0  0  0  0  0  0  0  0  0  0  0  0
    6.2085  -14.3721   21.4312 C   0  0  0  0  0  0  0  0  0  0  0  0
    7.5644  -14.1120   20.7634 C   0  0  1  0  0  0  0  0  0  0  0  0
    7.7984  -12.6183   21.1263 C   0  0  0  0  0  0  0  0  0  0  0  0
    8.6385  -14.8877   21.4931 C   0  0  2  0  0  0  0  0  0  0  0  0
    8.4855  -16.3233   21.3013 N   0  0  0  0  0  0  0  0  0  0  0  0
    8.8157  -14.5790   22.9064 C   0  0  0  0  0  0  0  0  0  0  0  0
    9.3438  -13.4264   23.1585 O   0  0  0  0  0  0  0  0  0  0  0  0
    6.0629  -12.1355   26.1093 C   0  0  0  0  0  0  0  0  0  0  0  0
    7.3418  -12.7689   25.6152 C   0  0  1  0  0  0  0  0  0  0  0  0
    8.4724  -12.0347   26.3561 C   0  0  0  0  0  0  0  0  0  0  0  0
    7.4986  -14.2066   25.9206 C   0  0  0  0  0  0  0  0  0  0  0  0
    8.6984  -14.9033   25.4092 C   0  0  2  0  0  0  0  0  0  0  0  0
    8.4950  -15.3422   24.0288 N   0  0  0  0  0  0  0  0  0  0  0  0
    9.2473  -15.9642   26.2511 C   0  0  0  0  0  0  0  0  0  0  0  0
    9.6666  -15.6607   27.5378 O   0  0  0  0  0  0  0  0  0  0  0  0
    9.3738  -17.1663   25.8900 O   0  0  0  0  0  0  0  0  0  0  0  0
  2  1  1  6
  2  3  1  0
  3  4  1  0
  5  6  2  0
  5  4  1  0
  7  8  2  0
  7  2  1  0
  9  5  1  0
 11 10  1  1
 11 13  1  0
 12 11  1  0
 13 14  1  1
 14  7  1  0
 15 22  1  0
 15 13  1  0
 16 15  2  0
 18 17  1  1
 18 20  1  0
 19 18  1  0
 21 20  1  1
 21 23  1  0
 21 22  1  0
 23 24  1  0
 25 23  2  0
M  END
$$$$
