EVL.pdb
     RDKit          3D

 25 24  0  0  1  0  0  0  0  0999 V2000
   11.3208  -16.7054   18.5387 N   0  0  0  0  0  0  0  0  0  0  0  0
   11.1536  -17.3058   19.8628 C   0  0  1  0  0  0  0  0  0  0  0  0
   12.4609  -17.9277   20.2680 C   0  0  0  0  0  0  0  0  0  0  0  0
   12.7136  -19.2754   19.7020 C   0  0  0  0  0  0  0  0  0  0  0  0
   13.9597  -19.9224   20.1373 C   0  0  0  0  0  0  0  0  0  0  0  0
   14.7664  -19.3308   20.8832 O   0  0  0  0  0  0  0  0  0  0  0  0
   10.6839  -16.2682   20.8474 C   0  0  0  0  0  0  0  0  0  0  0  0
   11.2017  -15.1384   20.8338 O   0  0  0  0  0  0  0  0  0  0  0  0
   14.2811  -21.2069   19.7364 O   0  0  0  0  0  0  0  0  0  0  0  0
    6.9564  -14.8063   23.6531 C   0  0  0  0  0  0  0  0  0  0  0  0
    7.5616  -15.6714   22.5408 C   0  0  1  0  0  0  0  0  0  0  0  0
    7.4130  -14.7307   21.3117 C   0  0  0  0  0  0  0  0  0  0  0  0
    9.0492  -15.8162   22.7729 C   0  0  2  0  0  0  0  0  0  0  0  0
    9.6751  -16.6304   21.7403 N   0  0  0  0  0  0  0  0  0  0  0  0
    9.4588  -16.2691   24.0962 C   0  0  0  0  0  0  0  0  0  0  0  0
    9.5049  -17.5515   24.2519 O   0  0  0  0  0  0  0  0  0  0  0  0
   10.1926  -13.8287   29.4777 C   0  0  0  0  0  0  0  0  0  0  0  0
    9.9279  -14.0912   28.0142 C   0  0  1  0  0  0  0  0  0  0  0  0
   10.1663  -12.7448   27.3094 C   0  0  0  0  0  0  0  0  0  0  0  0
   10.8280  -15.0715   27.3710 C   0  0  0  0  0  0  0  0  0  0  0  0
   10.2289  -16.1025   26.4967 C   0  0  2  0  0  0  0  0  0  0  0  0
    9.8134  -15.5226   25.2197 N   0  0  0  0  0  0  0  0  0  0  0  0
    9.1864  -16.9374   27.0897 C   0  0  0  0  0  0  0  0  0  0  0  0
    9.5436  -17.9370   27.9823 O   0  0  0  0  0  0  0  0  0  0  0  0
    7.9542  -16.8181   26.8467 O   0  0  0  0  0  0  0  0  0  0  0  0
  2  1  1  6
  2  3  1  0
  3  4  1  0
  5  6  2  0
  5  4  1  0
  7  8  2  0
  7  2  1  0
  9  5  1  0
 11 10  1  1
 11 13  1  0
 12 11  1  0
 13 14  1  6
 14  7  1  0
 15 22  1  0
 15 13  1  0
 16 15  2  0
 18 17  1  1
 18 20  1  0
 19 18  1  0
 21 20  1  1
 21 23  1  0
 21 22  1  0
 23 24  1  0
 25 23  2  0
M  END
$$$$
