EVL.pdb
     RDKit          3D

 25 24  0  0  1  0  0  0  0  0999 V2000
   10.5184  -18.0064   18.7882 N   0  0  0  0  0  0  0  0  0  0  0  0
    9.6399  -17.8063   19.9414 C   0  0  1  0  0  0  0  0  0  0  0  0
    9.9248  -18.8880   20.9457 C   0  0  0  0  0  0  0  0  0  0  0  0
   11.3617  -19.0939   21.2513 C   0  0  0  0  0  0  0  0  0  0  0  0
   11.6888  -19.2673   22.6739 C   0  0  0  0  0  0  0  0  0  0  0  0
   10.8004  -19.2244   23.5492 O   0  0  0  0  0  0  0  0  0  0  0  0
    9.8397  -16.4278   20.5127 C   0  0  0  0  0  0  0  0  0  0  0  0
   10.9848  -15.9461   20.5529 O   0  0  0  0  0  0  0  0  0  0  0  0
   12.9898  -19.4837   23.0914 O   0  0  0  0  0  0  0  0  0  0  0  0
    8.1472  -13.5258   19.3400 C   0  0  0  0  0  0  0  0  0  0  0  0
    7.7503  -13.4947   20.8210 C   0  0  1  0  0  0  0  0  0  0  0  0
    6.3554  -14.1799   20.7745 C   0  0  0  0  0  0  0  0  0  0  0  0
    8.6460  -14.4330   21.5989 C   0  0  2  0  0  0  0  0  0  0  0  0
    8.7132  -15.7477   20.9761 N   0  0  0  0  0  0  0  0  0  0  0  0
    8.3722  -14.5587   23.0249 C   0  0  0  0  0  0  0  0  0  0  0  0
    7.1667  -14.9140   23.3272 O   0  0  0  0  0  0  0  0  0  0  0  0
    7.8878  -11.9932   27.6992 C   0  0  0  0  0  0  0  0  0  0  0  0
    7.0130  -12.8283   26.7947 C   0  0  1  0  0  0  0  0  0  0  0  0
    5.7860  -11.9514   26.4918 C   0  0  0  0  0  0  0  0  0  0  0  0
    7.6081  -13.1894   25.4907 C   0  0  0  0  0  0  0  0  0  0  0  0
    8.7632  -14.1124   25.4807 C   0  0  2  0  0  0  0  0  0  0  0  0
    9.2209  -14.3566   24.1131 N   0  0  0  0  0  0  0  0  0  0  0  0
    8.6180  -15.3500   26.2440 C   0  0  0  0  0  0  0  0  0  0  0  0
    7.8190  -16.3666   25.7425 O   0  0  0  0  0  0  0  0  0  0  0  0
    9.1766  -15.5725   27.3531 O   0  0  0  0  0  0  0  0  0  0  0  0
  2  1  1  6
  2  3  1  0
  3  4  1  0
  5  6  2  0
  5  4  1  0
  7  8  2  0
  7  2  1  0
  9  5  1  0
 11 10  1  6
 11 13  1  0
 12 11  1  0
 13 14  1  6
 14  7  1  0
 15 22  1  0
 15 13  1  0
 16 15  2  0
 18 17  1  1
 18 20  1  0
 19 18  1  0
 21 20  1  6
 21 23  1  0
 21 22  1  0
 23 24  1  0
 25 23  2  0
M  END
$$$$
