EVL.pdb
     RDKit          3D

 25 24  0  0  1  0  0  0  0  0999 V2000
   12.2971  -17.3476   19.5587 N   0  0  0  0  0  0  0  0  0  0  0  0
   11.9454  -17.5471   20.9651 C   0  0  1  0  0  0  0  0  0  0  0  0
   13.2172  -17.6676   21.7575 C   0  0  0  0  0  0  0  0  0  0  0  0
   13.9514  -18.9429   21.5703 C   0  0  0  0  0  0  0  0  0  0  0  0
   15.2124  -19.0640   22.3161 C   0  0  0  0  0  0  0  0  0  0  0  0
   16.3143  -18.9608   21.7398 O   0  0  0  0  0  0  0  0  0  0  0  0
   11.0753  -16.4171   21.4477 C   0  0  0  0  0  0  0  0  0  0  0  0
   11.5458  -15.2680   21.5027 O   0  0  0  0  0  0  0  0  0  0  0  0
   15.2217  -19.2959   23.6800 O   0  0  0  0  0  0  0  0  0  0  0  0
    6.4088  -14.9525   21.8447 C   0  0  0  0  0  0  0  0  0  0  0  0
    7.4762  -15.9464   21.3706 C   0  0  1  0  0  0  0  0  0  0  0  0
    7.8535  -15.3471   19.9864 C   0  0  0  0  0  0  0  0  0  0  0  0
    8.7107  -15.8040   22.2329 C   0  0  2  0  0  0  0  0  0  0  0  0
    9.7638  -16.7190   21.8148 N   0  0  0  0  0  0  0  0  0  0  0  0
    8.5088  -15.8846   23.6740 C   0  0  0  0  0  0  0  0  0  0  0  0
    9.0768  -16.8891   24.2565 O   0  0  0  0  0  0  0  0  0  0  0  0
    6.0762  -11.7735   26.5031 C   0  0  0  0  0  0  0  0  0  0  0  0
    7.1288  -12.8141   26.2032 C   0  0  1  0  0  0  0  0  0  0  0  0
    8.3318  -12.4430   27.0871 C   0  0  0  0  0  0  0  0  0  0  0  0
    6.7640  -14.2049   26.5462 C   0  0  0  0  0  0  0  0  0  0  0  0
    7.5428  -15.3031   25.9349 C   0  0  2  0  0  0  0  0  0  0  0  0
    7.7964  -15.0346   24.5196 N   0  0  0  0  0  0  0  0  0  0  0  0
    7.0481  -16.6597   26.1599 C   0  0  0  0  0  0  0  0  0  0  0  0
    7.4914  -17.3687   27.2663 O   0  0  0  0  0  0  0  0  0  0  0  0
    6.2282  -17.2529   25.4066 O   0  0  0  0  0  0  0  0  0  0  0  0
  2  1  1  6
  2  3  1  0
  3  4  1  0
  5  6  2  0
  5  4  1  0
  7  8  2  0
  7  2  1  0
  9  5  1  0
 11 10  1  1
 11 13  1  0
 12 11  1  0
 13 14  1  6
 14  7  1  0
 15 22  1  0
 15 13  1  0
 16 15  2  0
 18 17  1  1
 18 20  1  0
 19 18  1  0
 21 20  1  6
 21 23  1  0
 21 22  1  0
 23 24  1  0
 25 23  2  0
M  END
$$$$
