EVL.pdb
     RDKit          3D

 25 24  0  0  1  0  0  0  0  0999 V2000
   10.5355  -19.1063   19.9374 N   0  0  0  0  0  0  0  0  0  0  0  0
    9.6307  -18.6165   20.9780 C   0  0  1  0  0  0  0  0  0  0  0  0
    9.8191  -19.4641   22.2052 C   0  0  0  0  0  0  0  0  0  0  0  0
    9.5170  -20.9047   22.0217 C   0  0  0  0  0  0  0  0  0  0  0  0
    9.7829  -21.7616   23.1862 C   0  0  0  0  0  0  0  0  0  0  0  0
    9.4865  -21.3906   24.3402 O   0  0  0  0  0  0  0  0  0  0  0  0
    9.8887  -17.1574   21.2451 C   0  0  0  0  0  0  0  0  0  0  0  0
   11.0513  -16.7750   21.4617 O   0  0  0  0  0  0  0  0  0  0  0  0
   10.3694  -23.0064   23.0441 O   0  0  0  0  0  0  0  0  0  0  0  0
    6.2997  -14.5603   21.7088 C   0  0  0  0  0  0  0  0  0  0  0  0
    7.5739  -14.1824   20.9436 C   0  0  1  0  0  0  0  0  0  0  0  0
    7.7144  -12.6790   21.3144 C   0  0  0  0  0  0  0  0  0  0  0  0
    8.7607  -14.8763   21.5742 C   0  0  2  0  0  0  0  0  0  0  0  0
    8.7942  -16.2925   21.2361 N   0  0  0  0  0  0  0  0  0  0  0  0
    8.9337  -14.6913   23.0094 C   0  0  0  0  0  0  0  0  0  0  0  0
    9.8598  -13.8570   23.3517 O   0  0  0  0  0  0  0  0  0  0  0  0
    5.6477  -12.3388   26.0917 C   0  0  0  0  0  0  0  0  0  0  0  0
    6.9829  -12.8858   25.6459 C   0  0  1  0  0  0  0  0  0  0  0  0
    8.0360  -12.0064   26.3414 C   0  0  0  0  0  0  0  0  0  0  0  0
    7.2643  -14.2807   26.0461 C   0  0  0  0  0  0  0  0  0  0  0  0
    8.4572  -14.9442   25.4776 C   0  0  2  0  0  0  0  0  0  0  0  0
    8.2438  -15.2786   24.0697 N   0  0  0  0  0  0  0  0  0  0  0  0
    9.0043  -16.0674   26.2356 C   0  0  0  0  0  0  0  0  0  0  0  0
    9.4298  -15.8629   27.5396 O   0  0  0  0  0  0  0  0  0  0  0  0
    9.1239  -17.2397   25.7850 O   0  0  0  0  0  0  0  0  0  0  0  0
  2  1  1  6
  2  3  1  0
  3  4  1  0
  5  6  2  0
  5  4  1  0
  7  8  2  0
  7  2  1  0
  9  5  1  0
 11 10  1  1
 11 13  1  0
 12 11  1  0
 13 14  1  1
 14  7  1  0
 15 22  1  0
 15 13  1  0
 16 15  2  0
 18 17  1  1
 18 20  1  0
 19 18  1  0
 21 20  1  1
 21 23  1  0
 21 22  1  0
 23 24  1  0
 25 23  2  0
M  END
$$$$
