EVL.pdb
     RDKit          3D

 25 24  0  0  1  0  0  0  0  0999 V2000
   11.5055  -17.8025   19.0585 N   0  0  0  0  0  0  0  0  0  0  0  0
   11.8245  -17.5913   20.4711 C   0  0  1  0  0  0  0  0  0  0  0  0
   13.2945  -17.2983   20.5847 C   0  0  0  0  0  0  0  0  0  0  0  0
   14.1637  -18.4957   20.6907 C   0  0  0  0  0  0  0  0  0  0  0  0
   15.5942  -18.2247   20.8942 C   0  0  0  0  0  0  0  0  0  0  0  0
   16.2401  -18.8095   21.7874 O   0  0  0  0  0  0  0  0  0  0  0  0
   10.9748  -16.4836   21.0348 C   0  0  0  0  0  0  0  0  0  0  0  0
   11.3821  -15.3111   20.9691 O   0  0  0  0  0  0  0  0  0  0  0  0
   16.2730  -17.3141   20.1043 O   0  0  0  0  0  0  0  0  0  0  0  0
    6.2834  -15.3287   21.8882 C   0  0  0  0  0  0  0  0  0  0  0  0
    7.3751  -16.2732   21.3705 C   0  0  1  0  0  0  0  0  0  0  0  0
    7.5329  -15.7781   19.9050 C   0  0  0  0  0  0  0  0  0  0  0  0
    8.6830  -15.9513   22.0586 C   0  0  2  0  0  0  0  0  0  0  0  0
    9.7535  -16.8319   21.6120 N   0  0  0  0  0  0  0  0  0  0  0  0
    8.6518  -15.8856   23.5142 C   0  0  0  0  0  0  0  0  0  0  0  0
    9.4038  -16.7431   24.1226 O   0  0  0  0  0  0  0  0  0  0  0  0
    6.1869  -11.7115   26.3538 C   0  0  0  0  0  0  0  0  0  0  0  0
    7.2518  -12.7012   25.9448 C   0  0  1  0  0  0  0  0  0  0  0  0
    8.5417  -12.2175   26.6292 C   0  0  0  0  0  0  0  0  0  0  0  0
    7.0315  -14.0931   26.3911 C   0  0  0  0  0  0  0  0  0  0  0  0
    7.8746  -15.1571   25.8051 C   0  0  2  0  0  0  0  0  0  0  0  0
    7.9333  -15.0301   24.3491 N   0  0  0  0  0  0  0  0  0  0  0  0
    7.5887  -16.5260   26.2292 C   0  0  0  0  0  0  0  0  0  0  0  0
    8.2800  -17.0611   27.3059 O   0  0  0  0  0  0  0  0  0  0  0  0
    6.7405  -17.2799   25.6781 O   0  0  0  0  0  0  0  0  0  0  0  0
  2  1  1  6
  2  3  1  0
  3  4  1  0
  5  6  2  0
  5  4  1  0
  7  8  2  0
  7  2  1  0
  9  5  1  0
 11 10  1  1
 11 13  1  0
 12 11  1  0
 13 14  1  1
 14  7  1  0
 15 22  1  0
 15 13  1  0
 16 15  2  0
 18 17  1  1
 18 20  1  0
 19 18  1  0
 21 20  1  6
 21 23  1  0
 21 22  1  0
 23 24  1  0
 25 23  2  0
M  END
$$$$
