EVL.pdb
     RDKit          3D

 25 24  0  0  1  0  0  0  0  0999 V2000
    9.4685  -18.3104   19.2897 N   0  0  0  0  0  0  0  0  0  0  0  0
   10.1718  -18.1702   20.5653 C   0  0  1  0  0  0  0  0  0  0  0  0
   11.5819  -18.6587   20.3837 C   0  0  0  0  0  0  0  0  0  0  0  0
   11.8423  -19.3511   19.0979 C   0  0  0  0  0  0  0  0  0  0  0  0
   13.1833  -19.9357   18.9528 C   0  0  0  0  0  0  0  0  0  0  0  0
   13.9751  -19.9786   19.9163 O   0  0  0  0  0  0  0  0  0  0  0  0
   10.1172  -16.7403   21.0334 C   0  0  0  0  0  0  0  0  0  0  0  0
   11.1656  -16.0740   21.0765 O   0  0  0  0  0  0  0  0  0  0  0  0
   13.6135  -20.4575   17.7460 O   0  0  0  0  0  0  0  0  0  0  0  0
    7.3287  -12.7749   21.6357 C   0  0  0  0  0  0  0  0  0  0  0  0
    7.4817  -14.2193   21.1436 C   0  0  1  0  0  0  0  0  0  0  0  0
    8.0745  -13.9937   19.7240 C   0  0  0  0  0  0  0  0  0  0  0  0
    8.5679  -14.9070   21.9405 C   0  0  2  0  0  0  0  0  0  0  0  0
    8.8743  -16.2248   21.4013 N   0  0  0  0  0  0  0  0  0  0  0  0
    8.3675  -14.9809   23.3822 C   0  0  0  0  0  0  0  0  0  0  0  0
    7.3822  -15.7245   23.7660 O   0  0  0  0  0  0  0  0  0  0  0  0
    6.0587  -11.7316   26.1952 C   0  0  0  0  0  0  0  0  0  0  0  0
    7.3949  -12.3626   25.8834 C   0  0  1  0  0  0  0  0  0  0  0  0
    8.3982  -11.6797   26.8285 C   0  0  0  0  0  0  0  0  0  0  0  0
    7.4886  -13.8147   26.1434 C   0  0  0  0  0  0  0  0  0  0  0  0
    8.7609  -14.5004   25.8312 C   0  0  2  0  0  0  0  0  0  0  0  0
    9.0853  -14.3710   24.4108 N   0  0  0  0  0  0  0  0  0  0  0  0
    8.8962  -15.8758   26.3058 C   0  0  0  0  0  0  0  0  0  0  0  0
    9.7511  -16.1476   27.3635 O   0  0  0  0  0  0  0  0  0  0  0  0
    8.2808  -16.8621   25.8158 O   0  0  0  0  0  0  0  0  0  0  0  0
  2  1  1  6
  2  3  1  0
  3  4  1  0
  5  6  2  0
  5  4  1  0
  7  8  2  0
  7  2  1  0
  9  5  1  0
 11 10  1  1
 11 13  1  0
 12 11  1  0
 13 14  1  6
 14  7  1  0
 15 22  1  0
 15 13  1  0
 16 15  2  0
 18 17  1  1
 18 20  1  0
 19 18  1  0
 21 20  1  6
 21 23  1  0
 21 22  1  0
 23 24  1  0
 25 23  2  0
M  END
$$$$
