EVL.pdb
     RDKit          3D

 25 24  0  0  1  0  0  0  0  0999 V2000
    8.7214  -18.6186   19.9931 N   0  0  0  0  0  0  0  0  0  0  0  0
   10.0793  -18.0830   19.8877 C   0  0  1  0  0  0  0  0  0  0  0  0
   10.4575  -18.0373   18.4335 C   0  0  0  0  0  0  0  0  0  0  0  0
   11.4544  -19.0531   18.0151 C   0  0  0  0  0  0  0  0  0  0  0  0
   11.8665  -18.9939   16.6053 C   0  0  0  0  0  0  0  0  0  0  0  0
   11.2450  -19.6236   15.7254 O   0  0  0  0  0  0  0  0  0  0  0  0
   10.1551  -16.7289   20.5416 C   0  0  0  0  0  0  0  0  0  0  0  0
   11.2484  -16.1402   20.5961 O   0  0  0  0  0  0  0  0  0  0  0  0
   12.9552  -18.2397   16.2054 O   0  0  0  0  0  0  0  0  0  0  0  0
    7.3421  -12.8619   21.7986 C   0  0  0  0  0  0  0  0  0  0  0  0
    7.4059  -14.3299   21.3593 C   0  0  1  0  0  0  0  0  0  0  0  0
    7.3561  -14.1848   19.8121 C   0  0  0  0  0  0  0  0  0  0  0  0
    8.7748  -14.8887   21.6782 C   0  0  2  0  0  0  0  0  0  0  0  0
    8.9772  -16.1927   21.0622 N   0  0  0  0  0  0  0  0  0  0  0  0
    9.1483  -14.9274   23.0864 C   0  0  0  0  0  0  0  0  0  0  0  0
   10.4042  -15.1248   23.3200 O   0  0  0  0  0  0  0  0  0  0  0  0
    6.2982  -13.0967   26.3605 C   0  0  0  0  0  0  0  0  0  0  0  0
    7.6867  -12.6757   25.9412 C   0  0  1  0  0  0  0  0  0  0  0  0
    7.9632  -11.3682   26.7029 C   0  0  0  0  0  0  0  0  0  0  0  0
    8.7714  -13.6133   26.3011 C   0  0  0  0  0  0  0  0  0  0  0  0
    8.8381  -14.9100   25.5937 C   0  0  2  0  0  0  0  0  0  0  0  0
    8.3508  -14.7782   24.2208 N   0  0  0  0  0  0  0  0  0  0  0  0
    8.2530  -16.0601   26.2797 C   0  0  0  0  0  0  0  0  0  0  0  0
    8.8127  -16.4963   27.4712 O   0  0  0  0  0  0  0  0  0  0  0  0
    7.2525  -16.7051   25.8620 O   0  0  0  0  0  0  0  0  0  0  0  0
  2  1  1  6
  2  3  1  0
  3  4  1  0
  5  6  2  0
  5  4  1  0
  7  8  2  0
  7  2  1  0
  9  5  1  0
 11 10  1  1
 11 13  1  0
 12 11  1  0
 13 14  1  1
 14  7  1  0
 15 22  1  0
 15 13  1  0
 16 15  2  0
 18 17  1  1
 18 20  1  0
 19 18  1  0
 21 20  1  1
 21 23  1  0
 21 22  1  0
 23 24  1  0
 25 23  2  0
M  END
$$$$
