EVL.pdb
     RDKit          3D

 25 24  0  0  1  0  0  0  0  0999 V2000
   12.0995  -17.9277   19.1670 N   0  0  0  0  0  0  0  0  0  0  0  0
   12.0125  -17.4631   20.5520 C   0  0  1  0  0  0  0  0  0  0  0  0
   13.3800  -17.0150   20.9867 C   0  0  0  0  0  0  0  0  0  0  0  0
   13.9762  -17.8085   22.0892 C   0  0  0  0  0  0  0  0  0  0  0  0
   14.8618  -17.0660   22.9978 C   0  0  0  0  0  0  0  0  0  0  0  0
   15.3518  -17.6109   24.0078 O   0  0  0  0  0  0  0  0  0  0  0  0
   10.9872  -16.3667   20.6680 C   0  0  0  0  0  0  0  0  0  0  0  0
   11.1540  -15.3088   20.0371 O   0  0  0  0  0  0  0  0  0  0  0  0
   15.1823  -15.7404   22.7655 O   0  0  0  0  0  0  0  0  0  0  0  0
    7.0433  -17.5213   21.6181 C   0  0  0  0  0  0  0  0  0  0  0  0
    7.5091  -16.1916   21.0125 C   0  0  1  0  0  0  0  0  0  0  0  0
    6.3641  -15.2389   21.4583 C   0  0  0  0  0  0  0  0  0  0  0  0
    8.7479  -15.7174   21.7393 C   0  0  2  0  0  0  0  0  0  0  0  0
    9.8833  -16.5946   21.4899 N   0  0  0  0  0  0  0  0  0  0  0  0
    8.6054  -15.4629   23.1673 C   0  0  0  0  0  0  0  0  0  0  0  0
    9.0187  -16.4116   23.9419 O   0  0  0  0  0  0  0  0  0  0  0  0
    8.0059  -12.3371   27.8926 C   0  0  0  0  0  0  0  0  0  0  0  0
    6.8372  -12.7666   27.0379 C   0  0  1  0  0  0  0  0  0  0  0  0
    5.8520  -11.5857   27.0720 C   0  0  0  0  0  0  0  0  0  0  0  0
    7.1484  -13.0180   25.6149 C   0  0  0  0  0  0  0  0  0  0  0  0
    7.8453  -14.2735   25.2627 C   0  0  2  0  0  0  0  0  0  0  0  0
    8.0925  -14.3437   23.8227 N   0  0  0  0  0  0  0  0  0  0  0  0
    7.2686  -15.5104   25.7852 C   0  0  0  0  0  0  0  0  0  0  0  0
    7.9206  -16.1843   26.8070 O   0  0  0  0  0  0  0  0  0  0  0  0
    6.1960  -16.0278   25.3686 O   0  0  0  0  0  0  0  0  0  0  0  0
  2  1  1  6
  2  3  1  0
  3  4  1  0
  5  6  2  0
  5  4  1  0
  7  8  2  0
  7  2  1  0
  9  5  1  0
 11 10  1  1
 11 13  1  0
 12 11  1  0
 13 14  1  1
 14  7  1  0
 15 22  1  0
 15 13  1  0
 16 15  2  0
 18 17  1  1
 18 20  1  0
 19 18  1  0
 21 20  1  6
 21 23  1  0
 21 22  1  0
 23 24  1  0
 25 23  2  0
M  END
$$$$
