EVL.pdb
     RDKit          3D

 25 24  0  0  1  0  0  0  0  0999 V2000
   11.2664  -17.7542   18.7963 N   0  0  0  0  0  0  0  0  0  0  0  0
   11.0090  -17.9360   20.2254 C   0  0  1  0  0  0  0  0  0  0  0  0
   12.3298  -18.0797   20.9288 C   0  0  0  0  0  0  0  0  0  0  0  0
   13.5037  -18.2146   20.0320 C   0  0  0  0  0  0  0  0  0  0  0  0
   14.8002  -18.3789   20.7050 C   0  0  0  0  0  0  0  0  0  0  0  0
   15.3580  -17.4176   21.2724 O   0  0  0  0  0  0  0  0  0  0  0  0
   10.1996  -16.7833   20.7575 C   0  0  0  0  0  0  0  0  0  0  0  0
   10.3620  -15.6507   20.2721 O   0  0  0  0  0  0  0  0  0  0  0  0
   15.4459  -19.6021   20.7331 O   0  0  0  0  0  0  0  0  0  0  0  0
    6.9197  -16.6088   20.2592 C   0  0  0  0  0  0  0  0  0  0  0  0
    6.8853  -16.5668   21.7919 C   0  0  1  0  0  0  0  0  0  0  0  0
    6.7157  -18.0745   22.1317 C   0  0  0  0  0  0  0  0  0  0  0  0
    8.2508  -16.1768   22.3126 C   0  0  2  0  0  0  0  0  0  0  0  0
    9.2931  -17.0463   21.7847 N   0  0  0  0  0  0  0  0  0  0  0  0
    8.3812  -16.0456   23.7582 C   0  0  0  0  0  0  0  0  0  0  0  0
    9.2871  -16.7906   24.3015 O   0  0  0  0  0  0  0  0  0  0  0  0
    5.8833  -11.9519   26.5933 C   0  0  0  0  0  0  0  0  0  0  0  0
    6.9418  -12.8889   26.0619 C   0  0  1  0  0  0  0  0  0  0  0  0
    8.2812  -12.1766   26.3166 C   0  0  0  0  0  0  0  0  0  0  0  0
    7.0252  -14.2019   26.7358 C   0  0  0  0  0  0  0  0  0  0  0  0
    7.8290  -15.2660   26.0971 C   0  0  2  0  0  0  0  0  0  0  0  0
    7.6755  -15.2304   24.6429 N   0  0  0  0  0  0  0  0  0  0  0  0
    7.6741  -16.6154   26.6362 C   0  0  0  0  0  0  0  0  0  0  0  0
    8.4678  -17.0160   27.7006 O   0  0  0  0  0  0  0  0  0  0  0  0
    6.8540  -17.4678   26.1976 O   0  0  0  0  0  0  0  0  0  0  0  0
  2  1  1  6
  2  3  1  0
  3  4  1  0
  5  6  2  0
  5  4  1  0
  7  8  2  0
  7  2  1  0
  9  5  1  0
 11 10  1  6
 11 13  1  0
 12 11  1  0
 13 14  1  1
 14  7  1  0
 15 22  1  0
 15 13  1  0
 16 15  2  0
 18 17  1  1
 18 20  1  0
 19 18  1  0
 21 20  1  1
 21 23  1  0
 21 22  1  0
 23 24  1  0
 25 23  2  0
M  END
$$$$
