EVL.pdb
     RDKit          3D

 25 24  0  0  1  0  0  0  0  0999 V2000
   10.9418  -17.7015   18.6278 N   0  0  0  0  0  0  0  0  0  0  0  0
   10.6254  -17.9039   20.0422 C   0  0  1  0  0  0  0  0  0  0  0  0
   11.8711  -18.3698   20.7430 C   0  0  0  0  0  0  0  0  0  0  0  0
   13.1418  -17.9324   20.1150 C   0  0  0  0  0  0  0  0  0  0  0  0
   14.3692  -18.3892   20.7827 C   0  0  0  0  0  0  0  0  0  0  0  0
   15.4934  -18.1564   20.2939 O   0  0  0  0  0  0  0  0  0  0  0  0
   10.0743  -16.6355   20.6373 C   0  0  0  0  0  0  0  0  0  0  0  0
   10.6145  -15.5502   20.3630 O   0  0  0  0  0  0  0  0  0  0  0  0
   14.3211  -19.0915   21.9737 O   0  0  0  0  0  0  0  0  0  0  0  0
    6.7873  -15.5838   19.9869 C   0  0  0  0  0  0  0  0  0  0  0  0
    6.7507  -15.6872   21.5166 C   0  0  1  0  0  0  0  0  0  0  0  0
    6.2410  -17.1435   21.7089 C   0  0  0  0  0  0  0  0  0  0  0  0
    8.1647  -15.6700   22.0533 C   0  0  2  0  0  0  0  0  0  0  0  0
    8.9677  -16.7413   21.4800 N   0  0  0  0  0  0  0  0  0  0  0  0
    8.3085  -15.6463   23.5034 C   0  0  0  0  0  0  0  0  0  0  0  0
    9.0697  -16.5661   23.9987 O   0  0  0  0  0  0  0  0  0  0  0  0
    6.1749  -11.5444   26.6438 C   0  0  0  0  0  0  0  0  0  0  0  0
    7.1741  -12.5370   26.0988 C   0  0  1  0  0  0  0  0  0  0  0  0
    8.5461  -12.0460   26.5917 C   0  0  0  0  0  0  0  0  0  0  0  0
    7.0213  -13.9248   26.5840 C   0  0  0  0  0  0  0  0  0  0  0  0
    7.7603  -14.9963   25.8825 C   0  0  2  0  0  0  0  0  0  0  0  0
    7.7492  -14.7738   24.4369 N   0  0  0  0  0  0  0  0  0  0  0  0
    7.4085  -16.3708   26.2327 C   0  0  0  0  0  0  0  0  0  0  0  0
    8.0958  -17.0074   27.2553 O   0  0  0  0  0  0  0  0  0  0  0  0
    6.5053  -17.0421   25.6627 O   0  0  0  0  0  0  0  0  0  0  0  0
  2  1  1  6
  2  3  1  0
  3  4  1  0
  5  6  2  0
  5  4  1  0
  7  8  2  0
  7  2  1  0
  9  5  1  0
 11 10  1  6
 11 13  1  0
 12 11  1  0
 13 14  1  1
 14  7  1  0
 15 22  1  0
 15 13  1  0
 16 15  2  0
 18 17  1  1
 18 20  1  0
 19 18  1  0
 21 20  1  1
 21 23  1  0
 21 22  1  0
 23 24  1  0
 25 23  2  0
M  END
$$$$
