HRV.pdb
     RDKit          3D

 29 29  0  0  1  0  0  0  0  0999 V2000
   25.9736  -20.4598  -16.2626 N   0  0  0  0  0  0  0  0  0  0  0  0
   26.8445  -20.6829  -15.1343 C   0  0  1  0  0  0  0  0  0  0  0  0
   28.1663  -20.0040  -15.4523 C   0  0  0  0  0  0  0  0  0  0  0  0
   28.8072  -20.7438  -16.5691 C   0  0  0  0  0  0  0  0  0  0  0  0
   28.3858  -21.8407  -17.2689 C   0  0  0  0  0  0  0  0  0  0  0  0
   29.3022  -22.1753  -18.2107 N   0  0  0  0  0  0  0  0  0  0  0  0
   30.3078  -21.2867  -18.1067 C   0  0  0  0  0  0  0  0  0  0  0  0
   30.0145  -20.4233  -17.1203 N   0  0  0  0  0  0  0  0  0  0  0  0
   26.2368  -20.1538  -13.8991 C   0  0  0  0  0  0  0  0  0  0  0  0
   25.9481  -18.9432  -13.8229 O   0  0  0  0  0  0  0  0  0  0  0  0
   20.0877  -19.0869  -11.3727 N   0  0  0  0  0  0  0  0  0  0  0  0
   19.9274  -19.7164  -10.1189 C   0  0  0  0  0  0  0  0  0  0  0  0
   19.2023  -19.2061   -9.1913 N   0  0  0  0  0  0  0  0  0  0  0  0
   20.5825  -20.9448   -9.8724 N   0  0  0  0  0  0  0  0  0  0  0  0
   21.4387  -21.4826  -10.9119 C   0  0  0  0  0  0  0  0  0  0  0  0
   22.7559  -20.7555  -10.8435 C   0  0  0  0  0  0  0  0  0  0  0  0
   23.7643  -21.2178  -11.8227 C   0  0  0  0  0  0  0  0  0  0  0  0
   25.0817  -20.5084  -11.6874 C   0  0  2  0  0  0  0  0  0  0  0  0
   25.9680  -20.9768  -12.7901 N   0  0  0  0  0  0  0  0  0  0  0  0
   25.7465  -20.9254  -10.4267 C   0  0  0  0  0  0  0  0  0  0  0  0
   26.1743  -22.1364  -10.3319 O   0  0  0  0  0  0  0  0  0  0  0  0
   19.0701  -19.7435   -8.2856 C   0  0  0  0  0  0  0  0  0  0  0  0
   27.2029  -18.4629   -7.1765 C   0  0  2  0  0  0  0  0  0  0  0  0
   27.7394  -19.8012   -7.6281 C   0  0  0  0  0  0  0  0  0  0  0  0
   28.4801  -20.3997   -6.4498 C   0  0  1  0  0  0  0  0  0  0  0  0
   26.6156  -20.6505   -8.1013 N   0  0  0  0  0  0  0  0  0  0  0  0
   25.9733  -20.1303   -9.2966 C   0  0  0  0  0  0  0  0  0  0  0  0
   25.6604  -20.8879   -7.0004 O   0  0  0  0  0  0  0  0  0  0  0  0
   24.4817  -20.4755   -7.0836 O   0  0  0  0  0  0  0  0  0  0  0  0
  2  1  1  6
  3  4  1  0
  3  2  1  0
  4  8  1  0
  5  4  2  0
  5  6  1  0
  6  7  1  0
  8  7  2  0
  9  2  1  0
  9 19  1  0
 10  9  2  0
 11 12  1  0
 12 14  1  0
 13 12  2  0
 14 15  1  0
 16 17  1  0
 16 15  1  0
 18 19  1  0
 18 17  1  6
 20 18  1  0
 21 20  2  0
 23 22  1  6
 23 24  1  0
 23 25  1  0
 25 27  1  0
 25 26  1  6
 26 20  1  0
 27 29  1  0
 28 27  2  0
M  END
$$$$
