HRV.pdb
     RDKit          3D

 29 29  0  0  1  0  0  0  0  0999 V2000
   21.2553  -11.9656  -16.6086 N   0  0  0  0  0  0  0  0  0  0  0  0
   21.6751  -10.9065  -15.7235 C   0  0  1  0  0  0  0  0  0  0  0  0
   23.0295  -10.4257  -16.2172 C   0  0  0  0  0  0  0  0  0  0  0  0
   24.0016  -11.5357  -16.0493 C   0  0  0  0  0  0  0  0  0  0  0  0
   24.7331  -11.9223  -14.9602 C   0  0  0  0  0  0  0  0  0  0  0  0
   25.4970  -12.9996  -15.2681 N   0  0  0  0  0  0  0  0  0  0  0  0
   25.2481  -13.2962  -16.5571 C   0  0  0  0  0  0  0  0  0  0  0  0
   24.3490  -12.4182  -17.0315 N   0  0  0  0  0  0  0  0  0  0  0  0
   20.6778   -9.8202  -15.7069 C   0  0  0  0  0  0  0  0  0  0  0  0
   20.2234   -9.3832  -16.7826 O   0  0  0  0  0  0  0  0  0  0  0  0
   15.0914   -9.7297   -9.4699 N   0  0  0  0  0  0  0  0  0  0  0  0
   14.6251  -10.1673  -10.7289 C   0  0  0  0  0  0  0  0  0  0  0  0
   13.4721  -10.7115  -10.8736 N   0  0  0  0  0  0  0  0  0  0  0  0
   15.4480  -10.0038  -11.8668 N   0  0  0  0  0  0  0  0  0  0  0  0
   16.5640   -9.0823  -11.7756 C   0  0  0  0  0  0  0  0  0  0  0  0
   17.3004   -9.1218  -13.0887 C   0  0  0  0  0  0  0  0  0  0  0  0
   18.4841   -8.2364  -13.1561 C   0  0  0  0  0  0  0  0  0  0  0  0
   19.1337   -8.2276  -14.5107 C   0  0  2  0  0  0  0  0  0  0  0  0
   20.2152   -9.2528  -14.5053 N   0  0  0  0  0  0  0  0  0  0  0  0
   19.8104   -6.9243  -14.7317 C   0  0  0  0  0  0  0  0  0  0  0  0
   20.9486   -6.7216  -14.1643 O   0  0  0  0  0  0  0  0  0  0  0  0
   13.1713  -11.0334  -11.8392 C   0  0  0  0  0  0  0  0  0  0  0  0
   19.4791   -4.5152  -18.0740 C   0  0  2  0  0  0  0  0  0  0  0  0
   20.6388   -4.5200  -17.1055 C   0  0  0  0  0  0  0  0  0  0  0  0
   21.4093   -3.2357  -17.3337 C   0  0  1  0  0  0  0  0  0  0  0  0
   20.1237   -4.6510  -15.7178 N   0  0  0  0  0  0  0  0  0  0  0  0
   19.3434   -5.8597  -15.5122 C   0  0  0  0  0  0  0  0  0  0  0  0
   19.3908   -3.4287  -15.3311 O   0  0  0  0  0  0  0  0  0  0  0  0
   18.1394   -3.4196  -15.3098 O   0  0  0  0  0  0  0  0  0  0  0  0
  2  1  1  6
  3  4  1  0
  3  2  1  0
  4  8  1  0
  5  4  2  0
  5  6  1  0
  6  7  1  0
  8  7  2  0
  9  2  1  0
  9 19  1  0
 10  9  2  0
 11 12  1  0
 12 14  1  0
 13 12  2  0
 14 15  1  0
 16 17  1  0
 16 15  1  0
 18 19  1  0
 18 17  1  1
 20 18  1  0
 21 20  2  0
 23 22  1  6
 23 24  1  0
 23 25  1  0
 25 27  1  0
 25 26  1  6
 26 20  1  0
 27 29  1  0
 28 27  2  0
M  END
$$$$
