HRV.pdb
     RDKit          3D

 29 29  0  0  1  0  0  0  0  0999 V2000
   21.8870  -18.9355  -17.4588 N   0  0  0  0  0  0  0  0  0  0  0  0
   22.6957  -18.2161  -16.5051 C   0  0  1  0  0  0  0  0  0  0  0  0
   21.7520  -17.6636  -15.4498 C   0  0  0  0  0  0  0  0  0  0  0  0
   21.0148  -16.5198  -16.0444 C   0  0  0  0  0  0  0  0  0  0  0  0
   21.3824  -15.2131  -16.2116 C   0  0  0  0  0  0  0  0  0  0  0  0
   20.3818  -14.5180  -16.8069 N   0  0  0  0  0  0  0  0  0  0  0  0
   19.3767  -15.3882  -17.0174 C   0  0  0  0  0  0  0  0  0  0  0  0
   19.7529  -16.5940  -16.5603 N   0  0  0  0  0  0  0  0  0  0  0  0
   23.7177  -19.1035  -15.9195 C   0  0  0  0  0  0  0  0  0  0  0  0
   23.3710  -20.1743  -15.3831 O   0  0  0  0  0  0  0  0  0  0  0  0
   30.8117  -24.3974  -15.2989 N   0  0  0  0  0  0  0  0  0  0  0  0
   29.8319  -23.5897  -15.9167 C   0  0  0  0  0  0  0  0  0  0  0  0
   29.1119  -24.0198  -16.8879 N   0  0  0  0  0  0  0  0  0  0  0  0
   29.6338  -22.2678  -15.4563 N   0  0  0  0  0  0  0  0  0  0  0  0
   28.5273  -21.5108  -16.0091 C   0  0  0  0  0  0  0  0  0  0  0  0
   28.5502  -20.1410  -15.3835 C   0  0  0  0  0  0  0  0  0  0  0  0
   27.4573  -19.2461  -15.8241 C   0  0  0  0  0  0  0  0  0  0  0  0
   26.1018  -19.7074  -15.3694 C   0  0  2  0  0  0  0  0  0  0  0  0
   25.0869  -18.7806  -15.9452 N   0  0  0  0  0  0  0  0  0  0  0  0
   25.9937  -19.5634  -13.8953 C   0  0  0  0  0  0  0  0  0  0  0  0
   26.2508  -18.4151  -13.3720 O   0  0  0  0  0  0  0  0  0  0  0  0
   28.3811  -23.3775  -17.3120 C   0  0  0  0  0  0  0  0  0  0  0  0
   23.3635  -21.2078  -11.4287 C   0  0  2  0  0  0  0  0  0  0  0  0
   24.7381  -21.2470  -10.8027 C   0  0  0  0  0  0  0  0  0  0  0  0
   25.1950  -22.6911  -10.8318 C   0  0  2  0  0  0  0  0  0  0  0  0
   25.6459  -20.3343  -11.5451 N   0  0  0  0  0  0  0  0  0  0  0  0
   25.6294  -20.5593  -12.9808 C   0  0  0  0  0  0  0  0  0  0  0  0
   27.0068  -20.3983  -10.9755 O   0  0  0  0  0  0  0  0  0  0  0  0
   27.9543  -20.8640  -11.6476 O   0  0  0  0  0  0  0  0  0  0  0  0
  2  1  1  6
  3  4  1  0
  3  2  1  0
  4  8  1  0
  5  4  2  0
  5  6  1  0
  6  7  1  0
  8  7  2  0
  9  2  1  0
  9 19  1  0
 10  9  2  0
 11 12  1  0
 12 14  1  0
 13 12  2  0
 14 15  1  0
 16 17  1  0
 16 15  1  0
 18 19  1  0
 18 17  1  6
 20 18  1  0
 21 20  2  0
 23 22  1  1
 23 24  1  0
 23 25  1  0
 25 27  1  0
 25 26  1  1
 26 20  1  0
 27 29  1  0
 28 27  2  0
M  END
$$$$
