HRV.pdb
     RDKit          3D

 29 29  0  0  1  0  0  0  0  0999 V2000
   26.5222  -34.5161  -17.9742 N   0  0  0  0  0  0  0  0  0  0  0  0
   25.1985  -34.8348  -17.4971 C   0  0  1  0  0  0  0  0  0  0  0  0
   24.7340  -36.0626  -18.2626 C   0  0  0  0  0  0  0  0  0  0  0  0
   24.4733  -35.6582  -19.6675 C   0  0  0  0  0  0  0  0  0  0  0  0
   25.1668  -35.9269  -20.8153 C   0  0  0  0  0  0  0  0  0  0  0  0
   24.5556  -35.3474  -21.8780 N   0  0  0  0  0  0  0  0  0  0  0  0
   23.4707  -34.7092  -21.4010 C   0  0  0  0  0  0  0  0  0  0  0  0
   23.4170  -34.8933  -20.0715 N   0  0  0  0  0  0  0  0  0  0  0  0
   25.2155  -35.0676  -16.0409 C   0  0  0  0  0  0  0  0  0  0  0  0
   26.2705  -35.4346  -15.4870 O   0  0  0  0  0  0  0  0  0  0  0  0
   25.0217  -30.9189   -8.5958 N   0  0  0  0  0  0  0  0  0  0  0  0
   25.2669  -32.3009   -8.7512 C   0  0  0  0  0  0  0  0  0  0  0  0
   26.2499  -32.8852   -8.1691 N   0  0  0  0  0  0  0  0  0  0  0  0
   24.4078  -33.0684   -9.5708 N   0  0  0  0  0  0  0  0  0  0  0  0
   24.5300  -32.9270  -11.0090 C   0  0  0  0  0  0  0  0  0  0  0  0
   23.5707  -33.8959  -11.6485 C   0  0  0  0  0  0  0  0  0  0  0  0
   23.5415  -33.8459  -13.1271 C   0  0  0  0  0  0  0  0  0  0  0  0
   24.1281  -35.0718  -13.7674 C   0  0  2  0  0  0  0  0  0  0  0  0
   24.0692  -34.8880  -15.2450 N   0  0  0  0  0  0  0  0  0  0  0  0
   23.2727  -36.2487  -13.4698 C   0  0  0  0  0  0  0  0  0  0  0  0
   22.0328  -36.2071  -13.8153 O   0  0  0  0  0  0  0  0  0  0  0  0
   26.3356  -33.9409   -8.2368 C   0  0  0  0  0  0  0  0  0  0  0  0
   24.3257  -40.2245  -13.5306 C   0  0  2  0  0  0  0  0  0  0  0  0
   23.4632  -39.8298  -12.3545 C   0  0  0  0  0  0  0  0  0  0  0  0
   24.3778  -39.7290  -11.1511 C   0  0  2  0  0  0  0  0  0  0  0  0
   22.7620  -38.5559  -12.6609 N   0  0  0  0  0  0  0  0  0  0  0  0
   23.6701  -37.4359  -12.8426 C   0  0  0  0  0  0  0  0  0  0  0  0
   21.7268  -38.2888  -11.6422 O   0  0  0  0  0  0  0  0  0  0  0  0
   20.7461  -39.0565  -11.5182 O   0  0  0  0  0  0  0  0  0  0  0  0
  2  1  1  6
  3  4  1  0
  3  2  1  0
  4  8  1  0
  5  4  2  0
  5  6  1  0
  6  7  1  0
  8  7  2  0
  9  2  1  0
  9 19  1  0
 10  9  2  0
 11 12  1  0
 12 14  1  0
 13 12  2  0
 14 15  1  0
 16 17  1  0
 16 15  1  0
 18 19  1  0
 18 17  1  1
 20 18  1  0
 21 20  2  0
 23 22  1  1
 23 24  1  0
 23 25  1  0
 25 27  1  0
 25 26  1  1
 26 20  1  0
 27 29  1  0
 28 27  2  0
M  END
$$$$
