HRV.pdb
     RDKit          3D

 29 29  0  0  1  0  0  0  0  0999 V2000
   27.0350  -19.1768  -19.2102 N   0  0  0  0  0  0  0  0  0  0  0  0
   26.7598  -18.3173  -18.0847 C   0  0  1  0  0  0  0  0  0  0  0  0
   26.2711  -16.9926  -18.6464 C   0  0  0  0  0  0  0  0  0  0  0  0
   27.4451  -16.2593  -19.1843 C   0  0  0  0  0  0  0  0  0  0  0  0
   28.7613  -16.6219  -19.2658 C   0  0  0  0  0  0  0  0  0  0  0  0
   29.4861  -15.6279  -19.8362 N   0  0  0  0  0  0  0  0  0  0  0  0
   28.6253  -14.6320  -20.1170 C   0  0  0  0  0  0  0  0  0  0  0  0
   27.3960  -15.0072  -19.7266 N   0  0  0  0  0  0  0  0  0  0  0  0
   25.7637  -18.9376  -17.1914 C   0  0  0  0  0  0  0  0  0  0  0  0
   24.7622  -19.4982  -17.6786 O   0  0  0  0  0  0  0  0  0  0  0  0
   24.7125  -20.7641   -9.1618 N   0  0  0  0  0  0  0  0  0  0  0  0
   23.4680  -21.1454   -9.7094 C   0  0  0  0  0  0  0  0  0  0  0  0
   22.3920  -21.1502   -9.0102 N   0  0  0  0  0  0  0  0  0  0  0  0
   23.3991  -21.5341  -11.0669 N   0  0  0  0  0  0  0  0  0  0  0  0
   24.5488  -21.2725  -11.9112 C   0  0  0  0  0  0  0  0  0  0  0  0
   24.3823  -19.8964  -12.5000 C   0  0  0  0  0  0  0  0  0  0  0  0
   25.4041  -19.5309  -13.5059 C   0  0  0  0  0  0  0  0  0  0  0  0
   24.8708  -19.5305  -14.9104 C   0  0  2  0  0  0  0  0  0  0  0  0
   25.9053  -18.9189  -15.7917 N   0  0  0  0  0  0  0  0  0  0  0  0
   23.6863  -18.6387  -14.9948 C   0  0  0  0  0  0  0  0  0  0  0  0
   23.8026  -17.4258  -14.5780 O   0  0  0  0  0  0  0  0  0  0  0  0
   21.4904  -21.4923   -9.4536 C   0  0  0  0  0  0  0  0  0  0  0  0
   21.8130  -17.0936  -17.6109 C   0  0  2  0  0  0  0  0  0  0  0  0
   20.7346  -17.7162  -16.7551 C   0  0  0  0  0  0  0  0  0  0  0  0
   20.2188  -18.9263  -17.5066 C   0  0  2  0  0  0  0  0  0  0  0  0
   21.2956  -18.0550  -15.4215 N   0  0  0  0  0  0  0  0  0  0  0  0
   22.4211  -18.9716  -15.4937 C   0  0  0  0  0  0  0  0  0  0  0  0
   20.2241  -18.5398  -14.5285 O   0  0  0  0  0  0  0  0  0  0  0  0
   20.2449  -19.7125  -14.0916 O   0  0  0  0  0  0  0  0  0  0  0  0
  2  1  1  6
  3  4  1  0
  3  2  1  0
  4  8  1  0
  5  4  2  0
  5  6  1  0
  6  7  1  0
  8  7  2  0
  9  2  1  0
  9 19  1  0
 10  9  2  0
 11 12  1  0
 12 14  1  0
 13 12  2  0
 14 15  1  0
 16 17  1  0
 16 15  1  0
 18 19  1  0
 18 17  1  1
 20 18  1  0
 21 20  2  0
 23 22  1  6
 23 24  1  0
 23 25  1  0
 25 27  1  0
 25 26  1  1
 26 20  1  0
 27 29  1  0
 28 27  2  0
M  END
$$$$
