HRV.pdb
     RDKit          3D

 29 29  0  0  1  0  0  0  0  0999 V2000
   25.8808  -17.8266  -17.4596 N   0  0  0  0  0  0  0  0  0  0  0  0
   26.5333  -17.6368  -16.1870 C   0  0  1  0  0  0  0  0  0  0  0  0
   26.8798  -16.1610  -16.0811 C   0  0  0  0  0  0  0  0  0  0  0  0
   27.7659  -15.8130  -17.2208 C   0  0  0  0  0  0  0  0  0  0  0  0
   27.6370  -14.8565  -18.1898 C   0  0  0  0  0  0  0  0  0  0  0  0
   28.6969  -14.9003  -19.0346 N   0  0  0  0  0  0  0  0  0  0  0  0
   29.5000  -15.8885  -18.5985 C   0  0  0  0  0  0  0  0  0  0  0  0
   28.9441  -16.4406  -17.5074 N   0  0  0  0  0  0  0  0  0  0  0  0
   25.6570  -18.0771  -15.0855 C   0  0  0  0  0  0  0  0  0  0  0  0
   24.7745  -17.3091  -14.6544 O   0  0  0  0  0  0  0  0  0  0  0  0
   19.0648  -20.4632  -12.7553 N   0  0  0  0  0  0  0  0  0  0  0  0
   19.6279  -21.4661  -11.9359 C   0  0  0  0  0  0  0  0  0  0  0  0
   18.9420  -22.0710  -11.0358 N   0  0  0  0  0  0  0  0  0  0  0  0
   20.9863  -21.8182  -12.1075 N   0  0  0  0  0  0  0  0  0  0  0  0
   21.7557  -21.1038  -13.1078 C   0  0  0  0  0  0  0  0  0  0  0  0
   23.1615  -21.6433  -13.0772 C   0  0  0  0  0  0  0  0  0  0  0  0
   24.0838  -21.0095  -14.0453 C   0  0  0  0  0  0  0  0  0  0  0  0
   24.8039  -19.8198  -13.4771 C   0  0  2  0  0  0  0  0  0  0  0  0
   25.7833  -19.3488  -14.4968 N   0  0  0  0  0  0  0  0  0  0  0  0
   25.6100  -20.2380  -12.3021 C   0  0  0  0  0  0  0  0  0  0  0  0
   26.5658  -21.0816  -12.4846 O   0  0  0  0  0  0  0  0  0  0  0  0
   19.4022  -22.8393  -10.4662 C   0  0  0  0  0  0  0  0  0  0  0  0
   25.2174  -18.9939   -8.1264 C   0  0  2  0  0  0  0  0  0  0  0  0
   26.5150  -19.3313   -8.8229 C   0  0  0  0  0  0  0  0  0  0  0  0
   27.4694  -19.8330   -7.7587 C   0  0  1  0  0  0  0  0  0  0  0  0
   26.2572  -20.3312   -9.8916 N   0  0  0  0  0  0  0  0  0  0  0  0
   25.4502  -19.8056  -10.9799 C   0  0  0  0  0  0  0  0  0  0  0  0
   25.6906  -21.5635   -9.3076 O   0  0  0  0  0  0  0  0  0  0  0  0
   24.4929  -21.8671   -9.5070 O   0  0  0  0  0  0  0  0  0  0  0  0
  2  1  1  6
  3  4  1  0
  3  2  1  0
  4  8  1  0
  5  4  2  0
  5  6  1  0
  6  7  1  0
  8  7  2  0
  9  2  1  0
  9 19  1  0
 10  9  2  0
 11 12  1  0
 12 14  1  0
 13 12  2  0
 14 15  1  0
 16 17  1  0
 16 15  1  0
 18 19  1  0
 18 17  1  6
 20 18  1  0
 21 20  2  0
 23 22  1  1
 23 24  1  0
 23 25  1  0
 25 27  1  0
 25 26  1  6
 26 20  1  0
 27 29  1  0
 28 27  2  0
M  END
$$$$
