HRV.pdb
     RDKit          3D

 29 29  0  0  1  0  0  0  0  0999 V2000
   20.1279  -20.1518  -16.2455 N   0  0  0  0  0  0  0  0  0  0  0  0
   20.9529  -19.3757  -15.3520 C   0  0  1  0  0  0  0  0  0  0  0  0
   20.1250  -19.1033  -14.1071 C   0  0  0  0  0  0  0  0  0  0  0  0
   19.0539  -18.1401  -14.4679 C   0  0  0  0  0  0  0  0  0  0  0  0
   17.6953  -18.2287  -14.3379 C   0  0  0  0  0  0  0  0  0  0  0  0
   17.1059  -17.1002  -14.8048 N   0  0  0  0  0  0  0  0  0  0  0  0
   18.0954  -16.2940  -15.2321 C   0  0  0  0  0  0  0  0  0  0  0  0
   19.2693  -16.9153  -15.0315 N   0  0  0  0  0  0  0  0  0  0  0  0
   22.1984  -20.1000  -15.0373 C   0  0  0  0  0  0  0  0  0  0  0  0
   22.1625  -21.0881  -14.2777 O   0  0  0  0  0  0  0  0  0  0  0  0
   29.3455  -22.9481  -17.3084 N   0  0  0  0  0  0  0  0  0  0  0  0
   28.4717  -22.6121  -18.3656 C   0  0  0  0  0  0  0  0  0  0  0  0
   28.2614  -23.4071  -19.3506 N   0  0  0  0  0  0  0  0  0  0  0  0
   27.8063  -21.3649  -18.3437 N   0  0  0  0  0  0  0  0  0  0  0  0
   28.0240  -20.4948  -17.2042 C   0  0  0  0  0  0  0  0  0  0  0  0
   26.9840  -20.8278  -16.1671 C   0  0  0  0  0  0  0  0  0  0  0  0
   25.6779  -20.1630  -16.3713 C   0  0  0  0  0  0  0  0  0  0  0  0
   24.6681  -20.5171  -15.3169 C   0  0  2  0  0  0  0  0  0  0  0  0
   23.4408  -19.7107  -15.5706 N   0  0  0  0  0  0  0  0  0  0  0  0
   25.1664  -20.0904  -13.9846 C   0  0  0  0  0  0  0  0  0  0  0  0
   25.0544  -18.8498  -13.6578 O   0  0  0  0  0  0  0  0  0  0  0  0
   27.6061  -23.1028  -20.1281 C   0  0  0  0  0  0  0  0  0  0  0  0
   24.4236  -20.8331  -10.5325 C   0  0  2  0  0  0  0  0  0  0  0  0
   25.9317  -20.9179  -10.5655 C   0  0  0  0  0  0  0  0  0  0  0  0
   26.2957  -22.3763  -10.3770 C   0  0  2  0  0  0  0  0  0  0  0  0
   26.4308  -20.3544  -11.8468 N   0  0  0  0  0  0  0  0  0  0  0  0
   25.7577  -20.9050  -13.0112 C   0  0  0  0  0  0  0  0  0  0  0  0
   27.8994  -20.4893  -11.9226 O   0  0  0  0  0  0  0  0  0  0  0  0
   28.6353  -19.8693  -11.1224 O   0  0  0  0  0  0  0  0  0  0  0  0
  2  1  1  6
  3  4  1  0
  3  2  1  0
  4  8  1  0
  5  4  2  0
  5  6  1  0
  6  7  1  0
  8  7  2  0
  9  2  1  0
  9 19  1  0
 10  9  2  0
 11 12  1  0
 12 14  1  0
 13 12  2  0
 14 15  1  0
 16 17  1  0
 16 15  1  0
 18 19  1  0
 18 17  1  6
 20 18  1  0
 21 20  2  0
 23 22  1  1
 23 24  1  0
 23 25  1  0
 25 27  1  0
 25 26  1  1
 26 20  1  0
 27 29  1  0
 28 27  2  0
M  END
$$$$
