HRV.pdb
     RDKit          3D

 29 29  0  0  1  0  0  0  0  0999 V2000
   24.7156  -25.7839  -15.3457 N   0  0  0  0  0  0  0  0  0  0  0  0
   24.1968  -24.4835  -14.9976 C   0  0  1  0  0  0  0  0  0  0  0  0
   24.5700  -23.5391  -16.1282 C   0  0  0  0  0  0  0  0  0  0  0  0
   26.0480  -23.3952  -16.1392 C   0  0  0  0  0  0  0  0  0  0  0  0
   26.9773  -23.8158  -17.0502 C   0  0  0  0  0  0  0  0  0  0  0  0
   28.2223  -23.4611  -16.6465 N   0  0  0  0  0  0  0  0  0  0  0  0
   28.0806  -22.8133  -15.4752 C   0  0  0  0  0  0  0  0  0  0  0  0
   26.7741  -22.7712  -15.1658 N   0  0  0  0  0  0  0  0  0  0  0  0
   22.7378  -24.5467  -14.7919 C   0  0  0  0  0  0  0  0  0  0  0  0
   22.0350  -25.2301  -15.5624 O   0  0  0  0  0  0  0  0  0  0  0  0
   18.5177  -26.5947   -8.5898 N   0  0  0  0  0  0  0  0  0  0  0  0
   18.8022  -25.2380   -8.3204 C   0  0  0  0  0  0  0  0  0  0  0  0
   18.9492  -24.8005   -7.1231 N   0  0  0  0  0  0  0  0  0  0  0  0
   18.9299  -24.3307   -9.3970 N   0  0  0  0  0  0  0  0  0  0  0  0
   18.6077  -24.8028  -10.7298 C   0  0  0  0  0  0  0  0  0  0  0  0
   18.9460  -23.7024  -11.7008 C   0  0  0  0  0  0  0  0  0  0  0  0
   20.3781  -23.6230  -12.0646 C   0  0  0  0  0  0  0  0  0  0  0  0
   20.6455  -24.0269  -13.4866 C   0  0  2  0  0  0  0  0  0  0  0  0
   22.1032  -23.8546  -13.7441 N   0  0  0  0  0  0  0  0  0  0  0  0
   19.9562  -23.0902  -14.4101 C   0  0  0  0  0  0  0  0  0  0  0  0
   20.3165  -21.8538  -14.4090 O   0  0  0  0  0  0  0  0  0  0  0  0
   19.1734  -23.7740   -6.9731 C   0  0  0  0  0  0  0  0  0  0  0  0
   19.2277  -23.3756  -18.2169 C   0  0  2  0  0  0  0  0  0  0  0  0
   17.9706  -22.9184  -17.5144 C   0  0  0  0  0  0  0  0  0  0  0  0
   17.0325  -24.1071  -17.4707 C   0  0  2  0  0  0  0  0  0  0  0  0
   18.3181  -22.4014  -16.1652 N   0  0  0  0  0  0  0  0  0  0  0  0
   18.9326  -23.4048  -15.3122 C   0  0  0  0  0  0  0  0  0  0  0  0
   17.1358  -21.7729  -15.5425 O   0  0  0  0  0  0  0  0  0  0  0  0
   16.5812  -22.3050  -14.5547 O   0  0  0  0  0  0  0  0  0  0  0  0
  2  1  1  6
  3  4  1  0
  3  2  1  0
  4  8  1  0
  5  4  2  0
  5  6  1  0
  6  7  1  0
  8  7  2  0
  9  2  1  0
  9 19  1  0
 10  9  2  0
 11 12  1  0
 12 14  1  0
 13 12  2  0
 14 15  1  0
 16 17  1  0
 16 15  1  0
 18 19  1  0
 18 17  1  1
 20 18  1  0
 21 20  2  0
 23 22  1  6
 23 24  1  0
 23 25  1  0
 25 27  1  0
 25 26  1  6
 26 20  1  0
 27 29  1  0
 28 27  2  0
M  END
$$$$
