HRV.pdb
     RDKit          3D

 29 29  0  0  1  0  0  0  0  0999 V2000
   25.1563  -20.9839   -9.9850 N   0  0  0  0  0  0  0  0  0  0  0  0
   24.0526  -20.9091  -10.9110 C   0  0  1  0  0  0  0  0  0  0  0  0
   23.0170  -19.9838  -10.2942 C   0  0  0  0  0  0  0  0  0  0  0  0
   22.3319  -20.7217   -9.2027 C   0  0  0  0  0  0  0  0  0  0  0  0
   22.5968  -20.7776   -7.8621 C   0  0  0  0  0  0  0  0  0  0  0  0
   21.7019  -21.5857   -7.2416 N   0  0  0  0  0  0  0  0  0  0  0  0
   20.8672  -22.0432   -8.1932 C   0  0  0  0  0  0  0  0  0  0  0  0
   21.2422  -21.5261   -9.3748 N   0  0  0  0  0  0  0  0  0  0  0  0
   24.5121  -20.4230  -12.2254 C   0  0  0  0  0  0  0  0  0  0  0  0
   25.1208  -19.3376  -12.3035 O   0  0  0  0  0  0  0  0  0  0  0  0
   29.8891  -23.9922  -16.2922 N   0  0  0  0  0  0  0  0  0  0  0  0
   28.6005  -24.0033  -16.8698 C   0  0  0  0  0  0  0  0  0  0  0  0
   28.1522  -25.0219  -17.5086 N   0  0  0  0  0  0  0  0  0  0  0  0
   27.7757  -22.8620  -16.7439 N   0  0  0  0  0  0  0  0  0  0  0  0
   27.9892  -21.9874  -15.6071 C   0  0  0  0  0  0  0  0  0  0  0  0
   26.7628  -22.0592  -14.7359 C   0  0  0  0  0  0  0  0  0  0  0  0
   25.4997  -21.7110  -15.4236 C   0  0  0  0  0  0  0  0  0  0  0  0
   24.7340  -20.6216  -14.7279 C   0  0  2  0  0  0  0  0  0  0  0  0
   24.2851  -21.1495  -13.4087 N   0  0  0  0  0  0  0  0  0  0  0  0
   23.4944  -20.3188  -15.4876 C   0  0  0  0  0  0  0  0  0  0  0  0
   22.4821  -21.1019  -15.3443 O   0  0  0  0  0  0  0  0  0  0  0  0
   27.1582  -25.0011  -17.8801 C   0  0  0  0  0  0  0  0  0  0  0  0
   21.8643  -16.7568  -16.1034 C   0  0  2  0  0  0  0  0  0  0  0  0
   21.7816  -17.5903  -17.3609 C   0  0  0  0  0  0  0  0  0  0  0  0
   22.8066  -17.0333  -18.3274 C   0  0  2  0  0  0  0  0  0  0  0  0
   22.0153  -19.0186  -17.0238 N   0  0  0  0  0  0  0  0  0  0  0  0
   23.2902  -19.2465  -16.3646 C   0  0  0  0  0  0  0  0  0  0  0  0
   21.8385  -19.8590  -18.2252 O   0  0  0  0  0  0  0  0  0  0  0  0
   22.8204  -20.4325  -18.7480 O   0  0  0  0  0  0  0  0  0  0  0  0
  2  1  1  1
  3  4  1  0
  3  2  1  0
  4  8  1  0
  5  4  2  0
  5  6  1  0
  6  7  1  0
  8  7  2  0
  9  2  1  0
  9 19  1  0
 10  9  2  0
 11 12  1  0
 12 14  1  0
 13 12  2  0
 14 15  1  0
 16 17  1  0
 16 15  1  0
 18 19  1  0
 18 17  1  6
 20 18  1  0
 21 20  2  0
 23 22  1  6
 23 24  1  0
 23 25  1  0
 25 27  1  0
 25 26  1  6
 26 20  1  0
 27 29  1  0
 28 27  2  0
M  END
$$$$
