HRV.pdb
     RDKit          3D

 29 29  0  0  1  0  0  0  0  0999 V2000
   28.2730  -22.2963  -17.6548 N   0  0  0  0  0  0  0  0  0  0  0  0
   27.2995  -22.8669  -16.7560 C   0  0  1  0  0  0  0  0  0  0  0  0
   28.0300  -23.8883  -15.9001 C   0  0  0  0  0  0  0  0  0  0  0  0
   28.3556  -25.0576  -16.7555 C   0  0  0  0  0  0  0  0  0  0  0  0
   27.5659  -26.0795  -17.2057 C   0  0  0  0  0  0  0  0  0  0  0  0
   28.2944  -26.9337  -17.9664 N   0  0  0  0  0  0  0  0  0  0  0  0
   29.5502  -26.4506  -17.9978 C   0  0  0  0  0  0  0  0  0  0  0  0
   29.5920  -25.3219  -17.2708 N   0  0  0  0  0  0  0  0  0  0  0  0
   26.6697  -21.8132  -15.9387 C   0  0  0  0  0  0  0  0  0  0  0  0
   27.3803  -20.9382  -15.4057 O   0  0  0  0  0  0  0  0  0  0  0  0
   19.1173  -17.4786  -16.8557 N   0  0  0  0  0  0  0  0  0  0  0  0
   19.6785  -16.9770  -15.6609 C   0  0  0  0  0  0  0  0  0  0  0  0
   19.1779  -15.9668  -15.0481 N   0  0  0  0  0  0  0  0  0  0  0  0
   20.8252  -17.6016  -15.1193 N   0  0  0  0  0  0  0  0  0  0  0  0
   21.4312  -18.6847  -15.8695 C   0  0  0  0  0  0  0  0  0  0  0  0
   22.6620  -19.1276  -15.1230 C   0  0  0  0  0  0  0  0  0  0  0  0
   23.4487  -20.1792  -15.8048 C   0  0  0  0  0  0  0  0  0  0  0  0
   24.6535  -20.6128  -15.0191 C   0  0  2  0  0  0  0  0  0  0  0  0
   25.2783  -21.7598  -15.7366 N   0  0  0  0  0  0  0  0  0  0  0  0
   24.2251  -21.1435  -13.6999 C   0  0  0  0  0  0  0  0  0  0  0  0
   23.4897  -22.2003  -13.6749 O   0  0  0  0  0  0  0  0  0  0  0  0
   19.6476  -15.6157  -14.1634 C   0  0  0  0  0  0  0  0  0  0  0  0
   26.2486  -21.4236  -10.3064 C   0  0  2  0  0  0  0  0  0  0  0  0
   24.8533  -20.9149  -10.0286 C   0  0  0  0  0  0  0  0  0  0  0  0
   24.9800  -19.4448   -9.6852 C   0  0  2  0  0  0  0  0  0  0  0  0
   23.9913  -21.1635  -11.2133 N   0  0  0  0  0  0  0  0  0  0  0  0
   24.5408  -20.6156  -12.4420 C   0  0  0  0  0  0  0  0  0  0  0  0
   22.6161  -20.6956  -10.9474 O   0  0  0  0  0  0  0  0  0  0  0  0
   22.1508  -19.7113  -11.5647 O   0  0  0  0  0  0  0  0  0  0  0  0
  2  1  1  6
  3  4  1  0
  3  2  1  0
  4  8  1  0
  5  4  2  0
  5  6  1  0
  6  7  1  0
  8  7  2  0
  9  2  1  0
  9 19  1  0
 10  9  2  0
 11 12  1  0
 12 14  1  0
 13 12  2  0
 14 15  1  0
 16 17  1  0
 16 15  1  0
 18 19  1  0
 18 17  1  6
 20 18  1  0
 21 20  2  0
 23 22  1  1
 23 24  1  0
 23 25  1  0
 25 27  1  0
 25 26  1  1
 26 20  1  0
 27 29  1  0
 28 27  2  0
M  END
$$$$
