HRV.pdb
     RDKit          3D

 29 29  0  0  1  0  0  0  0  0999 V2000
   27.3345  -21.2913  -10.5333 N   0  0  0  0  0  0  0  0  0  0  0  0
   25.9784  -20.9102  -10.2218 C   0  0  1  0  0  0  0  0  0  0  0  0
   26.0534  -19.6362   -9.3968 C   0  0  0  0  0  0  0  0  0  0  0  0
   26.8273  -19.9305   -8.1641 C   0  0  0  0  0  0  0  0  0  0  0  0
   26.6440  -20.8875   -7.2043 C   0  0  0  0  0  0  0  0  0  0  0  0
   27.6019  -20.7829   -6.2502 N   0  0  0  0  0  0  0  0  0  0  0  0
   28.3948  -19.7556   -6.6075 C   0  0  0  0  0  0  0  0  0  0  0  0
   27.9327  -19.2395   -7.7583 N   0  0  0  0  0  0  0  0  0  0  0  0
   25.1974  -20.7203  -11.4583 C   0  0  0  0  0  0  0  0  0  0  0  0
   25.2592  -19.6337  -12.0665 O   0  0  0  0  0  0  0  0  0  0  0  0
   27.2090  -23.7350  -16.7466 N   0  0  0  0  0  0  0  0  0  0  0  0
   25.9366  -23.7934  -17.3562 C   0  0  0  0  0  0  0  0  0  0  0  0
   25.7503  -23.4324  -18.5734 N   0  0  0  0  0  0  0  0  0  0  0  0
   24.8320  -24.2623  -16.6088 N   0  0  0  0  0  0  0  0  0  0  0  0
   25.0440  -24.5969  -15.2138 C   0  0  0  0  0  0  0  0  0  0  0  0
   25.0209  -23.3139  -14.4254 C   0  0  0  0  0  0  0  0  0  0  0  0
   23.6732  -22.8838  -13.9915 C   0  0  0  0  0  0  0  0  0  0  0  0
   23.6792  -21.5564  -13.2880 C   0  0  2  0  0  0  0  0  0  0  0  0
   24.3748  -21.7346  -11.9822 N   0  0  0  0  0  0  0  0  0  0  0  0
   22.2869  -21.1606  -12.9560 C   0  0  0  0  0  0  0  0  0  0  0  0
   21.7503  -21.6455  -11.8905 O   0  0  0  0  0  0  0  0  0  0  0  0
   24.7880  -23.5513  -19.0050 C   0  0  0  0  0  0  0  0  0  0  0  0
   20.8811  -17.6775  -12.6090 C   0  0  2  0  0  0  0  0  0  0  0  0
   19.8531  -18.4709  -13.3813 C   0  0  0  0  0  0  0  0  0  0  0  0
   19.9189  -17.9969  -14.8187 C   0  0  2  0  0  0  0  0  0  0  0  0
   20.1356  -19.9224  -13.2336 N   0  0  0  0  0  0  0  0  0  0  0  0
   21.4663  -20.2921  -13.6860 C   0  0  0  0  0  0  0  0  0  0  0  0
   19.0733  -20.7149  -13.8848 O   0  0  0  0  0  0  0  0  0  0  0  0
   19.3148  -21.3630  -14.9280 O   0  0  0  0  0  0  0  0  0  0  0  0
  2  1  1  6
  3  4  1  0
  3  2  1  0
  4  8  1  0
  5  4  2  0
  5  6  1  0
  6  7  1  0
  8  7  2  0
  9  2  1  0
  9 19  1  0
 10  9  2  0
 11 12  1  0
 12 14  1  0
 13 12  2  0
 14 15  1  0
 16 17  1  0
 16 15  1  0
 18 19  1  0
 18 17  1  1
 20 18  1  0
 21 20  2  0
 23 22  1  1
 23 24  1  0
 23 25  1  0
 25 27  1  0
 25 26  1  1
 26 20  1  0
 27 29  1  0
 28 27  2  0
M  END
$$$$
