HRV.pdb
     RDKit          3D

 29 29  0  0  1  0  0  0  0  0999 V2000
   24.9599  -26.4321  -23.7525 N   0  0  0  0  0  0  0  0  0  0  0  0
   24.4469  -26.3134  -22.4093 C   0  0  1  0  0  0  0  0  0  0  0  0
   22.9906  -25.8950  -22.5253 C   0  0  0  0  0  0  0  0  0  0  0  0
   22.9524  -24.4775  -22.9664 C   0  0  0  0  0  0  0  0  0  0  0  0
   22.7028  -23.9336  -24.1961 C   0  0  0  0  0  0  0  0  0  0  0  0
   22.7736  -22.5809  -24.1326 N   0  0  0  0  0  0  0  0  0  0  0  0
   23.0691  -22.2672  -22.8575 C   0  0  0  0  0  0  0  0  0  0  0  0
   23.1777  -23.4051  -22.1520 N   0  0  0  0  0  0  0  0  0  0  0  0
   24.5974  -27.5883  -21.6835 C   0  0  0  0  0  0  0  0  0  0  0  0
   24.3981  -28.6651  -22.2797 O   0  0  0  0  0  0  0  0  0  0  0  0
   30.6436  -30.9318  -16.5206 N   0  0  0  0  0  0  0  0  0  0  0  0
   29.6726  -31.9481  -16.6561 C   0  0  0  0  0  0  0  0  0  0  0  0
   29.8823  -33.1457  -16.2460 N   0  0  0  0  0  0  0  0  0  0  0  0
   28.4314  -31.6433  -17.2603 N   0  0  0  0  0  0  0  0  0  0  0  0
   28.2566  -30.3221  -17.8322 C   0  0  0  0  0  0  0  0  0  0  0  0
   26.8579  -30.2427  -18.3850 C   0  0  0  0  0  0  0  0  0  0  0  0
   26.5560  -28.9914  -19.1148 C   0  0  0  0  0  0  0  0  0  0  0  0
   25.1441  -28.9360  -19.6252 C   0  0  2  0  0  0  0  0  0  0  0  0
   24.9623  -27.6331  -20.3254 N   0  0  0  0  0  0  0  0  0  0  0  0
   24.1991  -28.9170  -18.4798 C   0  0  0  0  0  0  0  0  0  0  0  0
   24.1497  -27.8609  -17.7446 O   0  0  0  0  0  0  0  0  0  0  0  0
   29.0977  -33.8576  -16.3100 C   0  0  0  0  0  0  0  0  0  0  0  0
   20.4399  -29.3966  -18.2892 C   0  0  2  0  0  0  0  0  0  0  0  0
   21.0578  -30.2780  -17.2288 C   0  0  0  0  0  0  0  0  0  0  0  0
   20.9975  -31.7002  -17.7474 C   0  0  2  0  0  0  0  0  0  0  0  0
   22.4431  -29.8186  -16.9495 N   0  0  0  0  0  0  0  0  0  0  0  0
   23.3261  -29.9427  -18.0971 C   0  0  0  0  0  0  0  0  0  0  0  0
   22.9712  -30.4990  -15.7499 O   0  0  0  0  0  0  0  0  0  0  0  0
   23.8900  -31.3426  -15.8522 O   0  0  0  0  0  0  0  0  0  0  0  0
  2  1  1  6
  3  4  1  0
  3  2  1  0
  4  8  1  0
  5  4  2  0
  5  6  1  0
  6  7  1  0
  8  7  2  0
  9  2  1  0
  9 19  1  0
 10  9  2  0
 11 12  1  0
 12 14  1  0
 13 12  2  0
 14 15  1  0
 16 17  1  0
 16 15  1  0
 18 19  1  0
 18 17  1  1
 20 18  1  0
 21 20  2  0
 23 22  1  1
 23 24  1  0
 23 25  1  0
 25 27  1  0
 25 26  1  1
 26 20  1  0
 27 29  1  0
 28 27  2  0
M  END
$$$$
