LMS.pdb
     RDKit          3D

 23 22  0  0  1  0  0  0  0  0999 V2000
    8.7300  -12.6695   17.9429 C   0  0  0  0  0  0  0  0  0  0  0  0
    8.1927  -13.7463   18.8610 C   0  0  2  0  0  0  0  0  0  0  0  0
    6.6992  -13.6497   18.8729 C   0  0  0  0  0  0  0  0  0  0  0  0
    8.7921  -13.5461   20.2491 C   0  0  0  0  0  0  0  0  0  0  0  0
    8.8644  -14.9054   20.8916 C   0  0  2  0  0  0  0  0  0  0  0  0
    7.6865  -15.6490   20.5475 N   0  0  0  0  0  0  0  0  0  0  0  0
    9.0242  -14.8379   22.3621 C   0  0  0  0  0  0  0  0  0  0  0  0
   10.1515  -14.5263   22.8585 O   0  0  0  0  0  0  0  0  0  0  0  0
    8.4090  -11.7890   27.3765 C   0  0  0  0  0  0  0  0  0  0  0  0
    6.7959  -12.6049   27.2323 S   0  0  0  0  0  0  0  0  0  0  0  0
    7.0145  -14.3841   26.8438 C   0  0  0  0  0  0  0  0  0  0  0  0
    6.9052  -14.5118   25.3472 C   0  0  0  0  0  0  0  0  0  0  0  0
    8.1435  -15.0622   24.7059 C   0  0  2  0  0  0  0  0  0  0  0  0
    7.9811  -15.1034   23.2682 N   0  0  0  0  0  0  0  0  0  0  0  0
    8.5283  -16.3873   25.2558 C   0  0  0  0  0  0  0  0  0  0  0  0
    7.7407  -17.3680   25.2760 O   0  0  0  0  0  0  0  0  0  0  0  0
   12.4593  -17.6332   25.4541 O   0  0  0  0  0  0  0  0  0  0  0  0
   11.3494  -18.4664   25.3777 C   0  0  0  0  0  0  0  0  0  0  0  0
   10.2754  -17.8881   26.2824 C   0  0  2  0  0  0  0  0  0  0  0  0
    9.8282  -16.6001   25.7905 N   0  0  0  0  0  0  0  0  0  0  0  0
   10.6862  -17.8474   27.6887 C   0  0  0  0  0  0  0  0  0  0  0  0
   10.6323  -16.6548   28.3793 O   0  0  0  0  0  0  0  0  0  0  0  0
   11.0803  -18.8700   28.2624 O   0  0  0  0  0  0  0  0  0  0  0  0
  2  1  1  6
  2  3  1  0
  4  5  1  0
  4  2  1  0
  5  6  1  1
  7  8  2  0
  7  5  1  0
 10  9  1  0
 10 11  1  0
 11 12  1  0
 13 12  1  1
 13 14  1  0
 14  7  1  0
 15 20  1  0
 15 13  1  0
 16 15  2  0
 17 18  1  0
 19 18  1  6
 19 20  1  0
 19 21  1  0
 21 22  1  0
 23 21  2  0
M  END
$$$$
