LMS.pdb
     RDKit          3D

 23 22  0  0  1  0  0  0  0  0999 V2000
    6.5889  -17.0581   19.2242 C   0  0  0  0  0  0  0  0  0  0  0  0
    7.8152  -17.9341   19.3654 C   0  0  2  0  0  0  0  0  0  0  0  0
    7.3881  -19.3626   19.2352 C   0  0  0  0  0  0  0  0  0  0  0  0
    8.4639  -17.6495   20.7161 C   0  0  0  0  0  0  0  0  0  0  0  0
    8.7384  -16.1704   20.7636 C   0  0  2  0  0  0  0  0  0  0  0  0
    9.7615  -15.8533   19.8089 N   0  0  0  0  0  0  0  0  0  0  0  0
    9.1252  -15.7011   22.1136 C   0  0  0  0  0  0  0  0  0  0  0  0
   10.3313  -15.8142   22.4970 O   0  0  0  0  0  0  0  0  0  0  0  0
    6.3558  -11.0765   26.0260 C   0  0  0  0  0  0  0  0  0  0  0  0
    6.3632  -12.5931   27.0202 S   0  0  0  0  0  0  0  0  0  0  0  0
    7.7225  -13.7008   26.4821 C   0  0  0  0  0  0  0  0  0  0  0  0
    7.4580  -14.0317   25.0368 C   0  0  0  0  0  0  0  0  0  0  0  0
    8.5428  -14.8528   24.4072 C   0  0  2  0  0  0  0  0  0  0  0  0
    8.2199  -15.1231   23.0224 N   0  0  0  0  0  0  0  0  0  0  0  0
    8.8228  -16.1010   25.1622 C   0  0  0  0  0  0  0  0  0  0  0  0
    8.0224  -17.0711   25.1897 O   0  0  0  0  0  0  0  0  0  0  0  0
   11.9850  -19.2479   26.5185 O   0  0  0  0  0  0  0  0  0  0  0  0
   11.6724  -18.0570   25.8737 C   0  0  0  0  0  0  0  0  0  0  0  0
   10.4223  -17.4934   26.5265 C   0  0  2  0  0  0  0  0  0  0  0  0
   10.0310  -16.2480   25.8967 N   0  0  0  0  0  0  0  0  0  0  0  0
   10.5506  -17.3779   27.9819 C   0  0  0  0  0  0  0  0  0  0  0  0
   10.8608  -18.4952   28.7286 O   0  0  0  0  0  0  0  0  0  0  0  0
   10.3839  -16.2904   28.5473 O   0  0  0  0  0  0  0  0  0  0  0  0
  2  1  1  1
  2  3  1  0
  4  5  1  0
  4  2  1  0
  5  6  1  6
  7  8  2  0
  7  5  1  0
 10  9  1  0
 10 11  1  0
 11 12  1  0
 13 12  1  1
 13 14  1  0
 14  7  1  0
 15 20  1  0
 15 13  1  0
 16 15  2  0
 17 18  1  0
 19 18  1  6
 19 20  1  0
 19 21  1  0
 21 22  1  0
 23 21  2  0
M  END
$$$$
