LMS.pdb
     RDKit          3D

 23 22  0  0  1  0  0  0  0  0999 V2000
    8.2500  -14.4910   17.6242 C   0  0  0  0  0  0  0  0  0  0  0  0
    7.6477  -13.7588   18.8040 C   0  0  2  0  0  0  0  0  0  0  0  0
    7.2837  -12.3761   18.3613 C   0  0  0  0  0  0  0  0  0  0  0  0
    8.6641  -13.7486   19.9411 C   0  0  0  0  0  0  0  0  0  0  0  0
    8.5618  -15.0842   20.6276 C   0  0  2  0  0  0  0  0  0  0  0  0
    7.2353  -15.6014   20.4501 N   0  0  0  0  0  0  0  0  0  0  0  0
    8.9045  -15.0181   22.0666 C   0  0  0  0  0  0  0  0  0  0  0  0
   10.1022  -14.7799   22.4174 O   0  0  0  0  0  0  0  0  0  0  0  0
    7.2702  -11.7028   28.5054 C   0  0  0  0  0  0  0  0  0  0  0  0
    6.7012  -12.3783   26.9216 S   0  0  0  0  0  0  0  0  0  0  0  0
    7.4263  -14.0394   26.6403 C   0  0  0  0  0  0  0  0  0  0  0  0
    7.1208  -14.4032   25.2112 C   0  0  0  0  0  0  0  0  0  0  0  0
    8.2763  -15.0414   24.5006 C   0  0  2  0  0  0  0  0  0  0  0  0
    7.9650  -15.2069   23.0967 N   0  0  0  0  0  0  0  0  0  0  0  0
    8.6934  -16.3215   25.1279 C   0  0  0  0  0  0  0  0  0  0  0  0
    7.9746  -17.3536   25.1058 O   0  0  0  0  0  0  0  0  0  0  0  0
   12.1726  -19.3002   25.8214 O   0  0  0  0  0  0  0  0  0  0  0  0
   11.7438  -18.0415   25.4170 C   0  0  0  0  0  0  0  0  0  0  0  0
   10.5023  -17.6968   26.2210 C   0  0  2  0  0  0  0  0  0  0  0  0
    9.9468  -16.4294   25.7900 N   0  0  0  0  0  0  0  0  0  0  0  0
   10.7349  -17.7525   27.6670 C   0  0  0  0  0  0  0  0  0  0  0  0
   10.4913  -16.6360   28.4391 O   0  0  0  0  0  0  0  0  0  0  0  0
   11.1470  -18.7889   28.2019 O   0  0  0  0  0  0  0  0  0  0  0  0
  2  1  1  6
  2  3  1  0
  4  5  1  0
  4  2  1  0
  5  6  1  1
  7  8  2  0
  7  5  1  0
 10  9  1  0
 10 11  1  0
 11 12  1  0
 13 12  1  1
 13 14  1  0
 14  7  1  0
 15 20  1  0
 15 13  1  0
 16 15  2  0
 17 18  1  0
 19 18  1  6
 19 20  1  0
 19 21  1  0
 21 22  1  0
 23 21  2  0
M  END
$$$$
