LMS.pdb
     RDKit          3D

 23 22  0  0  1  0  0  0  0  0999 V2000
    6.7811  -12.2440   19.6044 C   0  0  0  0  0  0  0  0  0  0  0  0
    8.0138  -13.1143   19.7230 C   0  0  2  0  0  0  0  0  0  0  0  0
    8.9337  -12.7807   18.5905 C   0  0  0  0  0  0  0  0  0  0  0  0
    7.5813  -14.5767   19.6997 C   0  0  0  0  0  0  0  0  0  0  0  0
    8.6066  -15.3459   20.4887 C   0  0  2  0  0  0  0  0  0  0  0  0
    8.2629  -16.7389   20.4703 N   0  0  0  0  0  0  0  0  0  0  0  0
    8.7398  -14.8629   21.8820 C   0  0  0  0  0  0  0  0  0  0  0  0
    8.6152  -13.6235   22.1325 O   0  0  0  0  0  0  0  0  0  0  0  0
    7.1961  -12.3829   28.0242 C   0  0  0  0  0  0  0  0  0  0  0  0
    7.6153  -12.8447   26.3214 S   0  0  0  0  0  0  0  0  0  0  0  0
    7.0095  -14.5362   25.9527 C   0  0  0  0  0  0  0  0  0  0  0  0
    7.3748  -14.8185   24.5191 C   0  0  0  0  0  0  0  0  0  0  0  0
    8.7744  -15.3289   24.3521 C   0  0  2  0  0  0  0  0  0  0  0  0
    9.0023  -15.7098   22.9744 N   0  0  0  0  0  0  0  0  0  0  0  0
    9.0925  -16.4356   25.2904 C   0  0  0  0  0  0  0  0  0  0  0  0
    8.2194  -17.2333   25.7192 O   0  0  0  0  0  0  0  0  0  0  0  0
   13.1015  -17.1876   26.2313 O   0  0  0  0  0  0  0  0  0  0  0  0
   12.2528  -18.2463   25.9302 C   0  0  0  0  0  0  0  0  0  0  0  0
   10.8568  -17.8632   26.3893 C   0  0  2  0  0  0  0  0  0  0  0  0
   10.4232  -16.6380   25.7476 N   0  0  0  0  0  0  0  0  0  0  0  0
   10.7387  -17.8121   27.8493 C   0  0  0  0  0  0  0  0  0  0  0  0
   11.0714  -18.9212   28.5984 O   0  0  0  0  0  0  0  0  0  0  0  0
   10.3442  -16.7859   28.4164 O   0  0  0  0  0  0  0  0  0  0  0  0
  2  1  1  6
  2  3  1  0
  4  5  1  0
  4  2  1  0
  5  6  1  1
  7  8  2  0
  7  5  1  0
 10  9  1  0
 10 11  1  0
 11 12  1  0
 13 12  1  6
 13 14  1  0
 14  7  1  0
 15 20  1  0
 15 13  1  0
 16 15  2  0
 17 18  1  0
 19 18  1  1
 19 20  1  0
 19 21  1  0
 21 22  1  0
 23 21  2  0
M  END
$$$$
