LMS.pdb
     RDKit          3D

 23 22  0  0  1  0  0  0  0  0999 V2000
    5.8875  -12.6168   25.8901 C   0  0  0  0  0  0  0  0  0  0  0  0
    6.5336  -13.3859   27.0224 C   0  0  2  0  0  0  0  0  0  0  0  0
    7.2732  -12.4136   27.8872 C   0  0  0  0  0  0  0  0  0  0  0  0
    7.4575  -14.4435   26.4276 C   0  0  0  0  0  0  0  0  0  0  0  0
    6.6326  -15.2451   25.4567 C   0  0  2  0  0  0  0  0  0  0  0  0
    5.9611  -16.2947   26.1682 N   0  0  0  0  0  0  0  0  0  0  0  0
    7.4355  -15.8033   24.3449 C   0  0  0  0  0  0  0  0  0  0  0  0
    7.8953  -16.9845   24.4326 O   0  0  0  0  0  0  0  0  0  0  0  0
    8.2019  -11.6057   19.7436 C   0  0  0  0  0  0  0  0  0  0  0  0
    7.3884  -13.0969   19.1089 S   0  0  0  0  0  0  0  0  0  0  0  0
    7.1754  -14.3272   20.4526 C   0  0  0  0  0  0  0  0  0  0  0  0
    8.5581  -14.6738   20.9384 C   0  0  0  0  0  0  0  0  0  0  0  0
    8.5592  -15.6166   22.1040 C   0  0  2  0  0  0  0  0  0  0  0  0
    7.7296  -15.0915   23.1675 N   0  0  0  0  0  0  0  0  0  0  0  0
    9.9307  -15.9327   22.5790 C   0  0  0  0  0  0  0  0  0  0  0  0
   10.6147  -15.1269   23.2611 O   0  0  0  0  0  0  0  0  0  0  0  0
   11.4013  -19.6547   21.8096 O   0  0  0  0  0  0  0  0  0  0  0  0
   12.0317  -19.0176   22.8720 C   0  0  0  0  0  0  0  0  0  0  0  0
   11.8880  -17.5203   22.6628 C   0  0  2  0  0  0  0  0  0  0  0  0
   10.5329  -17.1837   22.2738 N   0  0  0  0  0  0  0  0  0  0  0  0
   12.8933  -16.9816   21.7423 C   0  0  0  0  0  0  0  0  0  0  0  0
   14.2328  -17.1680   22.0124 O   0  0  0  0  0  0  0  0  0  0  0  0
   12.5538  -16.3622   20.7268 O   0  0  0  0  0  0  0  0  0  0  0  0
  2  1  1  6
  2  3  1  0
  4  5  1  0
  4  2  1  0
  5  6  1  1
  7  8  2  0
  7  5  1  0
 10  9  1  0
 10 11  1  0
 11 12  1  0
 13 12  1  6
 13 14  1  0
 14  7  1  0
 15 20  1  0
 15 13  1  0
 16 15  2  0
 17 18  1  0
 19 18  1  6
 19 20  1  0
 19 21  1  0
 21 22  1  0
 23 21  2  0
M  END
$$$$
