LMS.pdb
     RDKit          3D

 23 22  0  0  1  0  0  0  0  0999 V2000
    8.2632  -14.2425   18.2058 C   0  0  0  0  0  0  0  0  0  0  0  0
    7.5927  -13.7692   19.4776 C   0  0  2  0  0  0  0  0  0  0  0  0
    6.9020  -12.4732   19.1889 C   0  0  0  0  0  0  0  0  0  0  0  0
    8.6543  -13.6247   20.5630 C   0  0  0  0  0  0  0  0  0  0  0  0
    8.7394  -14.9521   21.2675 C   0  0  2  0  0  0  0  0  0  0  0  0
    7.5513  -15.7069   20.9887 N   0  0  0  0  0  0  0  0  0  0  0  0
    8.9362  -14.8154   22.7286 C   0  0  0  0  0  0  0  0  0  0  0  0
    9.9709  -14.2258   23.1713 O   0  0  0  0  0  0  0  0  0  0  0  0
    7.4097  -11.9246   28.1280 C   0  0  0  0  0  0  0  0  0  0  0  0
    6.1727  -12.4724   26.9204 S   0  0  0  0  0  0  0  0  0  0  0  0
    6.9918  -13.2763   25.4897 C   0  0  0  0  0  0  0  0  0  0  0  0
    7.2176  -14.7138   25.8781 C   0  0  0  0  0  0  0  0  0  0  0  0
    8.3157  -15.3740   25.0998 C   0  0  2  0  0  0  0  0  0  0  0  0
    8.0276  -15.3090   23.6828 N   0  0  0  0  0  0  0  0  0  0  0  0
    8.5723  -16.7670   25.5472 C   0  0  0  0  0  0  0  0  0  0  0  0
    7.6495  -17.6032   25.7250 O   0  0  0  0  0  0  0  0  0  0  0  0
   12.0901  -18.5844   24.8209 O   0  0  0  0  0  0  0  0  0  0  0  0
   10.9520  -19.3178   25.1350 C   0  0  0  0  0  0  0  0  0  0  0  0
   10.2047  -18.5663   26.2228 C   0  0  2  0  0  0  0  0  0  0  0  0
    9.8982  -17.2155   25.7960 N   0  0  0  0  0  0  0  0  0  0  0  0
   10.8962  -18.6106   27.5143 C   0  0  0  0  0  0  0  0  0  0  0  0
   11.1648  -19.8294   28.1010 O   0  0  0  0  0  0  0  0  0  0  0  0
   11.2413  -17.5678   28.0831 O   0  0  0  0  0  0  0  0  0  0  0  0
  2  1  1  6
  2  3  1  0
  4  5  1  0
  4  2  1  0
  5  6  1  1
  7  8  2  0
  7  5  1  0
 10  9  1  0
 10 11  1  0
 11 12  1  0
 13 12  1  1
 13 14  1  0
 14  7  1  0
 15 20  1  0
 15 13  1  0
 16 15  2  0
 17 18  1  0
 19 18  1  6
 19 20  1  0
 19 21  1  0
 21 22  1  0
 23 21  2  0
M  END
$$$$
