LMS.pdb
     RDKit          3D

 23 22  0  0  1  0  0  0  0  0999 V2000
    8.6076  -14.2911   17.7693 C   0  0  0  0  0  0  0  0  0  0  0  0
    7.7331  -13.6500   18.8253 C   0  0  2  0  0  0  0  0  0  0  0  0
    7.2455  -12.3375   18.2964 C   0  0  0  0  0  0  0  0  0  0  0  0
    8.5517  -13.4863   20.1017 C   0  0  0  0  0  0  0  0  0  0  0  0
    8.6102  -14.8400   20.7572 C   0  0  2  0  0  0  0  0  0  0  0  0
    7.3438  -15.4945   20.5937 N   0  0  0  0  0  0  0  0  0  0  0  0
    8.9761  -14.7689   22.1902 C   0  0  0  0  0  0  0  0  0  0  0  0
   10.1595  -14.4465   22.5218 O   0  0  0  0  0  0  0  0  0  0  0  0
    6.7493  -11.1227   26.7372 C   0  0  0  0  0  0  0  0  0  0  0  0
    6.3886  -12.7588   27.4311 S   0  0  0  0  0  0  0  0  0  0  0  0
    7.6080  -13.9892   26.8283 C   0  0  0  0  0  0  0  0  0  0  0  0
    7.3122  -14.2045   25.3674 C   0  0  0  0  0  0  0  0  0  0  0  0
    8.4135  -14.9115   24.6362 C   0  0  2  0  0  0  0  0  0  0  0  0
    8.0745  -15.0423   23.2351 N   0  0  0  0  0  0  0  0  0  0  0  0
    8.7519  -16.2227   25.2466 C   0  0  0  0  0  0  0  0  0  0  0  0
    7.9251  -17.1674   25.3262 O   0  0  0  0  0  0  0  0  0  0  0  0
   12.2352  -19.3216   26.2729 O   0  0  0  0  0  0  0  0  0  0  0  0
   11.8515  -18.1112   25.7076 C   0  0  0  0  0  0  0  0  0  0  0  0
   10.4769  -17.7632   26.2514 C   0  0  2  0  0  0  0  0  0  0  0  0
   10.0499  -16.4629   25.7744 N   0  0  0  0  0  0  0  0  0  0  0  0
   10.4011  -17.8859   27.7100 C   0  0  0  0  0  0  0  0  0  0  0  0
   10.6422  -19.1071   28.3037 O   0  0  0  0  0  0  0  0  0  0  0  0
   10.1235  -16.9071   28.4135 O   0  0  0  0  0  0  0  0  0  0  0  0
  2  1  1  6
  2  3  1  0
  4  5  1  0
  4  2  1  0
  5  6  1  1
  7  8  2  0
  7  5  1  0
 10  9  1  0
 10 11  1  0
 11 12  1  0
 13 12  1  1
 13 14  1  0
 14  7  1  0
 15 20  1  0
 15 13  1  0
 16 15  2  0
 17 18  1  0
 19 18  1  1
 19 20  1  0
 19 21  1  0
 21 22  1  0
 23 21  2  0
M  END
$$$$
