LMS.pdb
     RDKit          3D

 23 22  0  0  1  0  0  0  0  0999 V2000
    5.9134  -14.7937   18.4216 C   0  0  0  0  0  0  0  0  0  0  0  0
    7.3576  -15.2246   18.2815 C   0  0  2  0  0  0  0  0  0  0  0  0
    7.3929  -16.4967   17.4938 C   0  0  0  0  0  0  0  0  0  0  0  0
    7.9520  -15.3958   19.6757 C   0  0  0  0  0  0  0  0  0  0  0  0
    7.8474  -14.0593   20.3600 C   0  0  2  0  0  0  0  0  0  0  0  0
    8.4451  -13.0575   19.5245 N   0  0  0  0  0  0  0  0  0  0  0  0
    8.4688  -14.0520   21.7040 C   0  0  0  0  0  0  0  0  0  0  0  0
    9.6930  -13.7357   21.8290 O   0  0  0  0  0  0  0  0  0  0  0  0
    5.7021  -10.4946   26.7327 C   0  0  0  0  0  0  0  0  0  0  0  0
    6.2213  -12.2321   26.7342 S   0  0  0  0  0  0  0  0  0  0  0  0
    7.0723  -12.6439   25.1624 C   0  0  0  0  0  0  0  0  0  0  0  0
    7.4740  -14.0921   25.2600 C   0  0  0  0  0  0  0  0  0  0  0  0
    8.4119  -14.5229   24.1727 C   0  0  2  0  0  0  0  0  0  0  0  0
    7.7730  -14.3814   22.8816 N   0  0  0  0  0  0  0  0  0  0  0  0
    8.9331  -15.8980   24.3825 C   0  0  0  0  0  0  0  0  0  0  0  0
    8.1873  -16.9109   24.3992 O   0  0  0  0  0  0  0  0  0  0  0  0
   13.0738  -16.6653   24.3257 O   0  0  0  0  0  0  0  0  0  0  0  0
   12.1437  -17.5878   23.8612 C   0  0  0  0  0  0  0  0  0  0  0  0
   10.8930  -17.4500   24.7117 C   0  0  2  0  0  0  0  0  0  0  0  0
   10.3232  -16.1242   24.5760 N   0  0  0  0  0  0  0  0  0  0  0  0
   11.1178  -17.8312   26.1089 C   0  0  0  0  0  0  0  0  0  0  0  0
   11.5884  -19.0938   26.4027 O   0  0  0  0  0  0  0  0  0  0  0  0
   10.8902  -17.0335   27.0266 O   0  0  0  0  0  0  0  0  0  0  0  0
  2  1  1  1
  2  3  1  0
  4  5  1  0
  4  2  1  0
  5  6  1  6
  7  8  2  0
  7  5  1  0
 10  9  1  0
 10 11  1  0
 11 12  1  0
 13 12  1  1
 13 14  1  0
 14  7  1  0
 15 20  1  0
 15 13  1  0
 16 15  2  0
 17 18  1  0
 19 18  1  6
 19 20  1  0
 19 21  1  0
 21 22  1  0
 23 21  2  0
M  END
$$$$
