LMS.pdb
     RDKit          3D

 23 22  0  0  1  0  0  0  0  0999 V2000
    8.3719  -14.5709   17.9444 C   0  0  0  0  0  0  0  0  0  0  0  0
    7.7396  -13.7700   19.0623 C   0  0  2  0  0  0  0  0  0  0  0  0
    7.3960  -12.4137   18.5309 C   0  0  0  0  0  0  0  0  0  0  0  0
    8.7227  -13.6985   20.2262 C   0  0  0  0  0  0  0  0  0  0  0  0
    8.7189  -15.0531   20.8824 C   0  0  2  0  0  0  0  0  0  0  0  0
    7.4630  -15.6961   20.6214 N   0  0  0  0  0  0  0  0  0  0  0  0
    8.9747  -14.9863   22.3393 C   0  0  0  0  0  0  0  0  0  0  0  0
   10.1620  -14.8269   22.7626 O   0  0  0  0  0  0  0  0  0  0  0  0
    7.1306  -11.1389   27.2017 C   0  0  0  0  0  0  0  0  0  0  0  0
    6.2211  -12.6918   27.4244 S   0  0  0  0  0  0  0  0  0  0  0  0
    7.2456  -14.1133   26.8823 C   0  0  0  0  0  0  0  0  0  0  0  0
    7.1182  -14.1857   25.3834 C   0  0  0  0  0  0  0  0  0  0  0  0
    8.2059  -14.9863   24.7327 C   0  0  2  0  0  0  0  0  0  0  0  0
    7.9615  -15.0906   23.3099 N   0  0  0  0  0  0  0  0  0  0  0  0
    8.3844  -16.3203   25.3611 C   0  0  0  0  0  0  0  0  0  0  0  0
    7.4719  -17.1858   25.3862 O   0  0  0  0  0  0  0  0  0  0  0  0
   11.8269  -18.2764   25.3205 O   0  0  0  0  0  0  0  0  0  0  0  0
   10.6067  -18.8790   25.6029 C   0  0  0  0  0  0  0  0  0  0  0  0
    9.8575  -17.9746   26.5658 C   0  0  2  0  0  0  0  0  0  0  0  0
    9.6190  -16.6751   25.9699 N   0  0  0  0  0  0  0  0  0  0  0  0
   10.5070  -17.8875   27.8769 C   0  0  0  0  0  0  0  0  0  0  0  0
   10.8276  -16.6510   28.3968 O   0  0  0  0  0  0  0  0  0  0  0  0
   10.7704  -18.9099   28.5214 O   0  0  0  0  0  0  0  0  0  0  0  0
  2  1  1  6
  2  3  1  0
  4  5  1  0
  4  2  1  0
  5  6  1  1
  7  8  2  0
  7  5  1  0
 10  9  1  0
 10 11  1  0
 11 12  1  0
 13 12  1  1
 13 14  1  0
 14  7  1  0
 15 20  1  0
 15 13  1  0
 16 15  2  0
 17 18  1  0
 19 18  1  6
 19 20  1  0
 19 21  1  0
 21 22  1  0
 23 21  2  0
M  END
$$$$
