LMS.pdb
     RDKit          3D

 23 22  0  0  1  0  0  0  0  0999 V2000
    8.4511  -14.5141   18.2601 C   0  0  0  0  0  0  0  0  0  0  0  0
    7.6724  -13.6915   19.2641 C   0  0  2  0  0  0  0  0  0  0  0  0
    7.3737  -12.3604   18.6484 C   0  0  0  0  0  0  0  0  0  0  0  0
    8.5034  -13.5621   20.5365 C   0  0  0  0  0  0  0  0  0  0  0  0
    8.5576  -14.9303   21.1614 C   0  0  2  0  0  0  0  0  0  0  0  0
    7.3027  -15.5925   20.9477 N   0  0  0  0  0  0  0  0  0  0  0  0
    8.8835  -14.8898   22.6052 C   0  0  0  0  0  0  0  0  0  0  0  0
   10.0189  -14.4617   22.9817 O   0  0  0  0  0  0  0  0  0  0  0  0
    9.5462  -12.9096   28.6220 C   0  0  0  0  0  0  0  0  0  0  0  0
    8.1447  -12.7942   27.4770 S   0  0  0  0  0  0  0  0  0  0  0  0
    7.3820  -14.4447   27.2355 C   0  0  0  0  0  0  0  0  0  0  0  0
    7.1412  -14.5924   25.7561 C   0  0  0  0  0  0  0  0  0  0  0  0
    8.2919  -15.2175   25.0264 C   0  0  2  0  0  0  0  0  0  0  0  0
    7.9938  -15.3056   23.6128 N   0  0  0  0  0  0  0  0  0  0  0  0
    8.6761  -16.5360   25.5924 C   0  0  0  0  0  0  0  0  0  0  0  0
    7.8333  -17.4303   25.8612 O   0  0  0  0  0  0  0  0  0  0  0  0
   12.6356  -17.8493   25.4457 O   0  0  0  0  0  0  0  0  0  0  0  0
   11.5464  -18.7120   25.4118 C   0  0  0  0  0  0  0  0  0  0  0  0
   10.4771  -18.1409   26.3267 C   0  0  2  0  0  0  0  0  0  0  0  0
   10.0391  -16.8417   25.8565 N   0  0  0  0  0  0  0  0  0  0  0  0
   10.8890  -18.1264   27.7332 C   0  0  0  0  0  0  0  0  0  0  0  0
   11.2326  -19.3090   28.3540 O   0  0  0  0  0  0  0  0  0  0  0  0
   10.9317  -17.0661   28.3689 O   0  0  0  0  0  0  0  0  0  0  0  0
  2  1  1  6
  2  3  1  0
  4  5  1  0
  4  2  1  0
  5  6  1  1
  7  8  2  0
  7  5  1  0
 10  9  1  0
 10 11  1  0
 11 12  1  0
 13 12  1  1
 13 14  1  0
 14  7  1  0
 15 20  1  0
 15 13  1  0
 16 15  2  0
 17 18  1  0
 19 18  1  6
 19 20  1  0
 19 21  1  0
 21 22  1  0
 23 21  2  0
M  END
$$$$
