LMS.pdb
     RDKit          3D

 23 22  0  0  1  0  0  0  0  0999 V2000
    8.6180  -14.0795   18.2798 C   0  0  0  0  0  0  0  0  0  0  0  0
    7.7270  -13.3858   19.2877 C   0  0  2  0  0  0  0  0  0  0  0  0
    7.4301  -12.0090   18.7815 C   0  0  0  0  0  0  0  0  0  0  0  0
    8.4428  -13.3605   20.6342 C   0  0  0  0  0  0  0  0  0  0  0  0
    8.5215  -14.7857   21.1116 C   0  0  2  0  0  0  0  0  0  0  0  0
    7.2310  -15.3976   20.9735 N   0  0  0  0  0  0  0  0  0  0  0  0
    9.0022  -14.8982   22.5076 C   0  0  0  0  0  0  0  0  0  0  0  0
   10.2111  -14.6185   22.7808 O   0  0  0  0  0  0  0  0  0  0  0  0
    9.6549  -13.1011   29.1883 C   0  0  0  0  0  0  0  0  0  0  0  0
    8.9745  -13.1971   27.5102 S   0  0  0  0  0  0  0  0  0  0  0  0
    8.0028  -14.7391   27.3041 C   0  0  0  0  0  0  0  0  0  0  0  0
    7.5824  -14.7900   25.8589 C   0  0  0  0  0  0  0  0  0  0  0  0
    8.6363  -15.3519   24.9530 C   0  0  2  0  0  0  0  0  0  0  0  0
    8.1853  -15.3052   23.5784 N   0  0  0  0  0  0  0  0  0  0  0  0
    9.0570  -16.7203   25.3493 C   0  0  0  0  0  0  0  0  0  0  0  0
    8.2554  -17.6885   25.3994 O   0  0  0  0  0  0  0  0  0  0  0  0
   12.9656  -17.9460   25.0614 O   0  0  0  0  0  0  0  0  0  0  0  0
   11.8924  -18.8292   25.0691 C   0  0  0  0  0  0  0  0  0  0  0  0
   10.8757  -18.3108   26.0711 C   0  0  2  0  0  0  0  0  0  0  0  0
   10.4093  -16.9914   25.6938 N   0  0  0  0  0  0  0  0  0  0  0  0
   11.3665  -18.3664   27.4510 C   0  0  0  0  0  0  0  0  0  0  0  0
   11.3819  -17.2182   28.2147 O   0  0  0  0  0  0  0  0  0  0  0  0
   11.7668  -19.4310   27.9375 O   0  0  0  0  0  0  0  0  0  0  0  0
  2  1  1  6
  2  3  1  0
  4  5  1  0
  4  2  1  0
  5  6  1  1
  7  8  2  0
  7  5  1  0
 10  9  1  0
 10 11  1  0
 11 12  1  0
 13 12  1  1
 13 14  1  0
 14  7  1  0
 15 20  1  0
 15 13  1  0
 16 15  2  0
 17 18  1  0
 19 18  1  6
 19 20  1  0
 19 21  1  0
 21 22  1  0
 23 21  2  0
M  END
$$$$
