LMS.pdb
     RDKit          3D

 23 22  0  0  1  0  0  0  0  0999 V2000
    8.1850  -12.3523   19.2950 C   0  0  0  0  0  0  0  0  0  0  0  0
    7.8569  -13.7964   18.9819 C   0  0  2  0  0  0  0  0  0  0  0  0
    6.4964  -13.8436   18.3599 C   0  0  0  0  0  0  0  0  0  0  0  0
    7.9255  -14.6026   20.2748 C   0  0  0  0  0  0  0  0  0  0  0  0
    9.2971  -14.3804   20.8534 C   0  0  2  0  0  0  0  0  0  0  0  0
   10.2359  -15.2226   20.1692 N   0  0  0  0  0  0  0  0  0  0  0  0
    9.3507  -14.6228   22.3132 C   0  0  0  0  0  0  0  0  0  0  0  0
   10.2532  -15.3779   22.7924 O   0  0  0  0  0  0  0  0  0  0  0  0
    6.9352  -10.8733   27.4257 C   0  0  0  0  0  0  0  0  0  0  0  0
    6.1962  -12.5270   27.5136 S   0  0  0  0  0  0  0  0  0  0  0  0
    7.3496  -13.7774   26.8277 C   0  0  0  0  0  0  0  0  0  0  0  0
    7.3843  -13.5561   25.3384 C   0  0  0  0  0  0  0  0  0  0  0  0
    8.4570  -14.3417   24.6459 C   0  0  2  0  0  0  0  0  0  0  0  0
    8.4434  -14.0561   23.2270 N   0  0  0  0  0  0  0  0  0  0  0  0
    8.3598  -15.7991   24.9163 C   0  0  0  0  0  0  0  0  0  0  0  0
    7.3176  -16.4641   24.6834 O   0  0  0  0  0  0  0  0  0  0  0  0
   11.5864  -18.2742   25.0789 O   0  0  0  0  0  0  0  0  0  0  0  0
   10.2881  -18.7515   24.9436 C   0  0  0  0  0  0  0  0  0  0  0  0
    9.3918  -17.9088   25.8341 C   0  0  2  0  0  0  0  0  0  0  0  0
    9.4641  -16.5105   25.4596 N   0  0  0  0  0  0  0  0  0  0  0  0
    9.6483  -18.1287   27.2603 C   0  0  0  0  0  0  0  0  0  0  0  0
    9.5788  -19.4062   27.7753 O   0  0  0  0  0  0  0  0  0  0  0  0
    9.9262  -17.1819   28.0062 O   0  0  0  0  0  0  0  0  0  0  0  0
  2  1  1  1
  2  3  1  0
  4  5  1  0
  4  2  1  0
  5  6  1  6
  7  8  2  0
  7  5  1  0
 10  9  1  0
 10 11  1  0
 11 12  1  0
 13 12  1  1
 13 14  1  0
 14  7  1  0
 15 20  1  0
 15 13  1  0
 16 15  2  0
 17 18  1  0
 19 18  1  6
 19 20  1  0
 19 21  1  0
 21 22  1  0
 23 21  2  0
M  END
$$$$
