LMS.pdb
     RDKit          3D

 23 22  0  0  1  0  0  0  0  0999 V2000
    8.5215  -14.4583   18.0791 C   0  0  0  0  0  0  0  0  0  0  0  0
    7.7189  -13.6401   19.0677 C   0  0  2  0  0  0  0  0  0  0  0  0
    7.3033  -12.3689   18.3958 C   0  0  0  0  0  0  0  0  0  0  0  0
    8.5802  -13.3833   20.2999 C   0  0  0  0  0  0  0  0  0  0  0  0
    8.7099  -14.6978   21.0214 C   0  0  2  0  0  0  0  0  0  0  0  0
    7.5641  -15.5092   20.7256 N   0  0  0  0  0  0  0  0  0  0  0  0
    8.8676  -14.5367   22.4848 C   0  0  0  0  0  0  0  0  0  0  0  0
    9.8658  -13.8982   22.9432 O   0  0  0  0  0  0  0  0  0  0  0  0
    6.4014  -11.3808   26.6964 C   0  0  0  0  0  0  0  0  0  0  0  0
    7.5896  -12.6818   27.1250 S   0  0  0  0  0  0  0  0  0  0  0  0
    6.8159  -14.3352   26.9460 C   0  0  0  0  0  0  0  0  0  0  0  0
    6.7519  -14.6200   25.4686 C   0  0  0  0  0  0  0  0  0  0  0  0
    8.0955  -14.8727   24.8535 C   0  0  2  0  0  0  0  0  0  0  0  0
    7.9598  -15.0587   23.4245 N   0  0  0  0  0  0  0  0  0  0  0  0
    8.8094  -16.0079   25.4922 C   0  0  0  0  0  0  0  0  0  0  0  0
    8.9983  -16.0779   26.7339 O   0  0  0  0  0  0  0  0  0  0  0  0
    8.5873  -19.5773   24.1818 O   0  0  0  0  0  0  0  0  0  0  0  0
    9.9425  -19.4264   24.4513 C   0  0  0  0  0  0  0  0  0  0  0  0
   10.1124  -18.1546   25.2638 C   0  0  2  0  0  0  0  0  0  0  0  0
    9.3160  -17.0792   24.7070 N   0  0  0  0  0  0  0  0  0  0  0  0
   11.5193  -17.7852   25.4432 C   0  0  0  0  0  0  0  0  0  0  0  0
   11.9470  -16.5300   25.0644 O   0  0  0  0  0  0  0  0  0  0  0  0
   12.3264  -18.5861   25.9302 O   0  0  0  0  0  0  0  0  0  0  0  0
  2  1  1  6
  2  3  1  0
  4  5  1  0
  4  2  1  0
  5  6  1  1
  7  8  2  0
  7  5  1  0
 10  9  1  0
 10 11  1  0
 11 12  1  0
 13 12  1  1
 13 14  1  0
 14  7  1  0
 15 20  1  0
 15 13  1  0
 16 15  2  0
 17 18  1  0
 19 18  1  6
 19 20  1  0
 19 21  1  0
 21 22  1  0
 23 21  2  0
M  END
$$$$
