PVI.pdb
     RDKit          3D

 23 23  0  0  1  0  0  0  0  0999 V2000
   28.0719  -21.5295  -18.1803 N   0  0  0  0  0  0  0  0  0  0  0  0
   29.5000  -21.5411  -18.0348 C   0  0  0  0  0  0  0  0  0  0  0  0
   29.8663  -22.5132  -16.9652 C   0  0  0  0  0  0  0  0  0  0  0  0
   28.6044  -23.2995  -16.7006 C   0  0  0  0  0  0  0  0  0  0  0  0
   27.5254  -22.3724  -17.1449 C   0  0  1  0  0  0  0  0  0  0  0  0
   26.9894  -21.5366  -16.0028 C   0  0  0  0  0  0  0  0  0  0  0  0
   27.4633  -20.4105  -15.7562 O   0  0  0  0  0  0  0  0  0  0  0  0
   23.7826  -20.2451  -15.8561 C   0  0  0  0  0  0  0  0  0  0  0  0
   23.8784  -20.9010  -14.4872 C   0  0  2  0  0  0  0  0  0  0  0  0
   23.1820  -20.0048  -13.5208 C   0  0  0  0  0  0  0  0  0  0  0  0
   25.2676  -21.2981  -14.2145 C   0  0  2  0  0  0  0  0  0  0  0  0
   25.9418  -22.0565  -15.2212 N   0  0  0  0  0  0  0  0  0  0  0  0
   25.5723  -21.7127  -12.8178 C   0  0  0  0  0  0  0  0  0  0  0  0
   25.3540  -22.8939  -12.4439 O   0  0  0  0  0  0  0  0  0  0  0  0
   30.1682  -20.3119  -10.4716 C   0  0  0  0  0  0  0  0  0  0  0  0
   28.8978  -21.0271  -10.8687 C   0  0  0  0  0  0  0  0  0  0  0  0
   27.6920  -20.6073  -10.0851 C   0  0  2  0  0  0  0  0  0  0  0  0
   27.8977  -20.7730   -8.5946 C   0  0  0  0  0  0  0  0  0  0  0  0
   26.4081  -21.2785  -10.4760 C   0  0  2  0  0  0  0  0  0  0  0  0
   26.0996  -20.8500  -11.8498 N   0  0  0  0  0  0  0  0  0  0  0  0
   25.3523  -20.7954   -9.5432 C   0  0  0  0  0  0  0  0  0  0  0  0
   24.9709  -21.4365   -8.3941 O   0  0  0  0  0  0  0  0  0  0  0  0
   24.7697  -19.7210   -9.8334 O   0  0  0  0  0  0  0  0  0  0  0  0
  1  5  1  0
  1  2  1  0
  2  3  1  0
  3  4  1  0
  5  4  1  0
  6  7  2  0
  5  6  1  1
  9  8  1  6
  9 11  1  0
 10  9  1  0
 11 12  1  6
 12  6  1  0
 13 20  1  0
 13 11  1  0
 14 13  2  0
 15 16  1  0
 17 16  1  0
 17 19  1  0
 17 18  1  1
 19 20  1  6
 19 21  1  0
 21 22  1  0
 23 21  2  0
M  END
$$$$
