PVI.pdb
     RDKit          3D

 23 23  0  0  1  0  0  0  0  0999 V2000
   23.2333  -21.0546  -13.9261 N   0  0  0  0  0  0  0  0  0  0  0  0
   22.0256  -21.8280  -13.9910 C   0  0  0  0  0  0  0  0  0  0  0  0
   21.1504  -21.4499  -12.8447 C   0  0  0  0  0  0  0  0  0  0  0  0
   21.7689  -20.1951  -12.2759 C   0  0  0  0  0  0  0  0  0  0  0  0
   23.1940  -20.2947  -12.7003 C   0  0  1  0  0  0  0  0  0  0  0  0
   24.0576  -20.9444  -11.6409 C   0  0  0  0  0  0  0  0  0  0  0  0
   23.9061  -22.1441  -11.3387 O   0  0  0  0  0  0  0  0  0  0  0  0
   28.2096  -20.1562  -11.3268 C   0  0  0  0  0  0  0  0  0  0  0  0
   27.2516  -21.2760  -10.9506 C   0  0  2  0  0  0  0  0  0  0  0  0
   27.0111  -22.0810  -12.1820 C   0  0  0  0  0  0  0  0  0  0  0  0
   26.0974  -20.7287  -10.2224 C   0  0  2  0  0  0  0  0  0  0  0  0
   25.0388  -20.1659  -11.0008 N   0  0  0  0  0  0  0  0  0  0  0  0
   26.4004  -19.9933   -8.9643 C   0  0  0  0  0  0  0  0  0  0  0  0
   26.0976  -18.7776   -8.8504 O   0  0  0  0  0  0  0  0  0  0  0  0
   26.6501  -22.5908   -4.0722 C   0  0  0  0  0  0  0  0  0  0  0  0
   26.3987  -21.5418   -5.1304 C   0  0  0  0  0  0  0  0  0  0  0  0
   27.6277  -20.7978   -5.5547 C   0  0  2  0  0  0  0  0  0  0  0  0
   28.2976  -20.0982   -4.3913 C   0  0  0  0  0  0  0  0  0  0  0  0
   27.4269  -19.8093   -6.6657 C   0  0  2  0  0  0  0  0  0  0  0  0
   27.0269  -20.5762   -7.8566 N   0  0  0  0  0  0  0  0  0  0  0  0
   28.7355  -19.1405   -6.9072 C   0  0  0  0  0  0  0  0  0  0  0  0
   29.1149  -17.9434   -6.3594 O   0  0  0  0  0  0  0  0  0  0  0  0
   29.5498  -19.7178   -7.6697 O   0  0  0  0  0  0  0  0  0  0  0  0
  1  5  1  0
  1  2  1  0
  2  3  1  0
  3  4  1  0
  5  4  1  0
  6  7  2  0
  5  6  1  1
  9  8  1  6
  9 11  1  0
 10  9  1  0
 11 12  1  6
 12  6  1  0
 13 20  1  0
 13 11  1  0
 14 13  2  0
 15 16  1  0
 17 16  1  0
 17 19  1  0
 17 18  1  1
 19 20  1  6
 19 21  1  0
 21 22  1  0
 23 21  2  0
M  END
$$$$
