PVI.pdb
     RDKit          3D

 23 23  0  0  1  0  0  0  0  0999 V2000
   23.5239  -19.5145  -12.3041 N   0  0  0  0  0  0  0  0  0  0  0  0
   23.7004  -19.7110  -13.7152 C   0  0  0  0  0  0  0  0  0  0  0  0
   23.5035  -21.1556  -14.0277 C   0  0  0  0  0  0  0  0  0  0  0  0
   22.8990  -21.7487  -12.7774 C   0  0  0  0  0  0  0  0  0  0  0  0
   23.3478  -20.8153  -11.7056 C   0  0  1  0  0  0  0  0  0  0  0  0
   24.6298  -21.2795  -11.0489 C   0  0  0  0  0  0  0  0  0  0  0  0
   24.7434  -22.4436  -10.6182 O   0  0  0  0  0  0  0  0  0  0  0  0
   28.1204  -21.3231  -11.9912 C   0  0  0  0  0  0  0  0  0  0  0  0
   28.1484  -20.5779  -10.6656 C   0  0  2  0  0  0  0  0  0  0  0  0
   29.2931  -21.1210   -9.8802 C   0  0  0  0  0  0  0  0  0  0  0  0
   26.8084  -20.5755  -10.0602 C   0  0  2  0  0  0  0  0  0  0  0  0
   25.6956  -20.3689  -10.9332 N   0  0  0  0  0  0  0  0  0  0  0  0
   26.6862  -19.9135   -8.7327 C   0  0  0  0  0  0  0  0  0  0  0  0
   25.9769  -18.8831   -8.5996 O   0  0  0  0  0  0  0  0  0  0  0  0
   30.1794  -21.2817   -4.3059 C   0  0  0  0  0  0  0  0  0  0  0  0
   29.4731  -20.5900   -5.4487 C   0  0  0  0  0  0  0  0  0  0  0  0
   27.9867  -20.5033   -5.2830 C   0  0  2  0  0  0  0  0  0  0  0  0
   27.3380  -21.8708   -5.2555 C   0  0  0  0  0  0  0  0  0  0  0  0
   27.2781  -19.6495   -6.2932 C   0  0  2  0  0  0  0  0  0  0  0  0
   27.3322  -20.3675   -7.5769 N   0  0  0  0  0  0  0  0  0  0  0  0
   28.0284  -18.3671   -6.3956 C   0  0  0  0  0  0  0  0  0  0  0  0
   27.9607  -17.3464   -5.4841 O   0  0  0  0  0  0  0  0  0  0  0  0
   28.7775  -18.2115   -7.3918 O   0  0  0  0  0  0  0  0  0  0  0  0
  1  5  1  0
  1  2  1  0
  2  3  1  0
  3  4  1  0
  5  4  1  0
  6  7  2  0
  5  6  1  6
  9  8  1  6
  9 11  1  0
 10  9  1  0
 11 12  1  6
 12  6  1  0
 13 20  1  0
 13 11  1  0
 14 13  2  0
 15 16  1  0
 17 16  1  0
 17 19  1  0
 17 18  1  6
 19 20  1  6
 19 21  1  0
 21 22  1  0
 23 21  2  0
M  END
$$$$
