PVI.pdb
     RDKit          3D

 23 23  0  0  1  0  0  0  0  0999 V2000
   23.5717  -18.9760  -17.6985 N   0  0  0  0  0  0  0  0  0  0  0  0
   22.1948  -18.7558  -17.3572 C   0  0  0  0  0  0  0  0  0  0  0  0
   22.1273  -17.7571  -16.2521 C   0  0  0  0  0  0  0  0  0  0  0  0
   23.5162  -17.1701  -16.1683 C   0  0  0  0  0  0  0  0  0  0  0  0
   24.3742  -18.2393  -16.7527 C   0  0  1  0  0  0  0  0  0  0  0  0
   24.9319  -19.1629  -15.6914 C   0  0  0  0  0  0  0  0  0  0  0  0
   24.2770  -20.1435  -15.2877 O   0  0  0  0  0  0  0  0  0  0  0  0
   28.3547  -20.7178  -15.9192 C   0  0  0  0  0  0  0  0  0  0  0  0
   28.2567  -20.1262  -14.5215 C   0  0  2  0  0  0  0  0  0  0  0  0
   28.9587  -21.0623  -13.5978 C   0  0  0  0  0  0  0  0  0  0  0  0
   26.8655  -19.7497  -14.2298 C   0  0  2  0  0  0  0  0  0  0  0  0
   26.2087  -18.8928  -15.1666 N   0  0  0  0  0  0  0  0  0  0  0  0
   26.5433  -19.4716  -12.8035 C   0  0  0  0  0  0  0  0  0  0  0  0
   26.7175  -18.3210  -12.3257 O   0  0  0  0  0  0  0  0  0  0  0  0
   21.9613  -20.4844  -10.7129 C   0  0  0  0  0  0  0  0  0  0  0  0
   23.3486  -19.9484  -10.9801 C   0  0  0  0  0  0  0  0  0  0  0  0
   24.4234  -20.6106  -10.1735 C   0  0  2  0  0  0  0  0  0  0  0  0
   24.1865  -20.4664   -8.6854 C   0  0  0  0  0  0  0  0  0  0  0  0
   25.8232  -20.1709  -10.4876 C   0  0  2  0  0  0  0  0  0  0  0  0
   26.0463  -20.4352  -11.9182 N   0  0  0  0  0  0  0  0  0  0  0  0
   26.7453  -21.0039   -9.6666 C   0  0  0  0  0  0  0  0  0  0  0  0
   27.2361  -20.6481   -8.4380 O   0  0  0  0  0  0  0  0  0  0  0  0
   27.0980  -22.1139  -10.1371 O   0  0  0  0  0  0  0  0  0  0  0  0
  1  5  1  0
  1  2  1  0
  2  3  1  0
  3  4  1  0
  5  4  1  0
  6  7  2  0
  5  6  1  1
  9  8  1  6
  9 11  1  0
 10  9  1  0
 11 12  1  6
 12  6  1  0
 13 20  1  0
 13 11  1  0
 14 13  2  0
 15 16  1  0
 17 16  1  0
 17 19  1  0
 17 18  1  1
 19 20  1  6
 19 21  1  0
 21 22  1  0
 23 21  2  0
M  END
$$$$
