PVI.pdb
     RDKit          3D

 23 23  0  0  1  0  0  0  0  0999 V2000
   23.6879  -21.5671  -13.4882 N   0  0  0  0  0  0  0  0  0  0  0  0
   22.3913  -22.0983  -13.1759 C   0  0  0  0  0  0  0  0  0  0  0  0
   21.8128  -21.3195  -12.0437 C   0  0  0  0  0  0  0  0  0  0  0  0
   22.7019  -20.1065  -11.9069 C   0  0  0  0  0  0  0  0  0  0  0  0
   23.9914  -20.5601  -12.5006 C   0  0  1  0  0  0  0  0  0  0  0  0
   24.9374  -21.1067  -11.4533 C   0  0  0  0  0  0  0  0  0  0  0  0
   24.7618  -22.2378  -10.9600 O   0  0  0  0  0  0  0  0  0  0  0  0
   28.4582  -21.5769  -11.8628 C   0  0  0  0  0  0  0  0  0  0  0  0
   28.3875  -20.8402  -10.5341 C   0  0  2  0  0  0  0  0  0  0  0  0
   29.3927  -21.4677   -9.6296 C   0  0  0  0  0  0  0  0  0  0  0  0
   26.9906  -20.7425  -10.0855 C   0  0  2  0  0  0  0  0  0  0  0  0
   26.0231  -20.3110  -11.0451 N   0  0  0  0  0  0  0  0  0  0  0  0
   26.7756  -20.2177   -8.7093 C   0  0  0  0  0  0  0  0  0  0  0  0
   26.0132  -19.2360   -8.5158 O   0  0  0  0  0  0  0  0  0  0  0  0
   29.0651  -21.2674   -2.9905 C   0  0  0  0  0  0  0  0  0  0  0  0
   28.0648  -20.5469   -3.8643 C   0  0  0  0  0  0  0  0  0  0  0  0
   28.0669  -20.9986   -5.2926 C   0  0  2  0  0  0  0  0  0  0  0  0
   29.4709  -21.1856   -5.8267 C   0  0  0  0  0  0  0  0  0  0  0  0
   27.2981  -20.1267   -6.2416 C   0  0  2  0  0  0  0  0  0  0  0  0
   27.3876  -20.7536   -7.5702 N   0  0  0  0  0  0  0  0  0  0  0  0
   27.9654  -18.7953   -6.2613 C   0  0  0  0  0  0  0  0  0  0  0  0
   27.6482  -17.7491   -5.4355 O   0  0  0  0  0  0  0  0  0  0  0  0
   28.8862  -18.6205   -7.0976 O   0  0  0  0  0  0  0  0  0  0  0  0
  1  5  1  0
  1  2  1  0
  2  3  1  0
  3  4  1  0
  5  4  1  0
  6  7  2  0
  5  6  1  1
  9  8  1  6
  9 11  1  0
 10  9  1  0
 11 12  1  6
 12  6  1  0
 13 20  1  0
 13 11  1  0
 14 13  2  0
 15 16  1  0
 17 16  1  0
 17 19  1  0
 17 18  1  6
 19 20  1  6
 19 21  1  0
 21 22  1  0
 23 21  2  0
M  END
$$$$
