PVI.pdb
     RDKit          3D

 23 23  0  0  1  0  0  0  0  0999 V2000
   20.4991  -12.8171  -21.1495 N   0  0  0  0  0  0  0  0  0  0  0  0
   21.3229  -12.1021  -22.0827 C   0  0  0  0  0  0  0  0  0  0  0  0
   22.6080  -11.7467  -21.4153 C   0  0  0  0  0  0  0  0  0  0  0  0
   22.6249  -12.5556  -20.1402 C   0  0  0  0  0  0  0  0  0  0  0  0
   21.1798  -12.8084  -19.8775 C   0  0  1  0  0  0  0  0  0  0  0  0
   20.5797  -11.7675  -18.9573 C   0  0  0  0  0  0  0  0  0  0  0  0
   19.8762  -10.8430  -19.4089 O   0  0  0  0  0  0  0  0  0  0  0  0
   20.1185  -12.4239  -14.6572 C   0  0  0  0  0  0  0  0  0  0  0  0
   19.3579  -11.5214  -15.6164 C   0  0  2  0  0  0  0  0  0  0  0  0
   18.1634  -12.2821  -16.0819 C   0  0  0  0  0  0  0  0  0  0  0  0
   20.2776  -10.9603  -16.6171 C   0  0  2  0  0  0  0  0  0  0  0  0
   20.8316  -11.8633  -17.5767 N   0  0  0  0  0  0  0  0  0  0  0  0
   21.2203   -9.9151  -16.1329 C   0  0  0  0  0  0  0  0  0  0  0  0
   20.8272   -9.0256  -15.3349 O   0  0  0  0  0  0  0  0  0  0  0  0
   26.3236  -11.3235  -15.1096 C   0  0  0  0  0  0  0  0  0  0  0  0
   24.9474  -10.6998  -15.1254 C   0  0  0  0  0  0  0  0  0  0  0  0
   24.8522   -9.4548  -15.9530 C   0  0  2  0  0  0  0  0  0  0  0  0
   25.8617   -8.4108  -15.5259 C   0  0  0  0  0  0  0  0  0  0  0  0
   23.4923   -8.8228  -16.0060 C   0  0  2  0  0  0  0  0  0  0  0  0
   22.5637   -9.8428  -16.5194 N   0  0  0  0  0  0  0  0  0  0  0  0
   23.5701   -7.6802  -16.9582 C   0  0  0  0  0  0  0  0  0  0  0  0
   23.7752   -6.3744  -16.5978 O   0  0  0  0  0  0  0  0  0  0  0  0
   23.4373   -7.9346  -18.1811 O   0  0  0  0  0  0  0  0  0  0  0  0
  1  5  1  0
  1  2  1  0
  2  3  1  0
  3  4  1  0
  5  4  1  0
  6  7  2  0
  5  6  1  1
  9  8  1  1
  9 11  1  0
 10  9  1  0
 11 12  1  1
 12  6  1  0
 13 20  1  0
 13 11  1  0
 14 13  2  0
 15 16  1  0
 17 16  1  0
 17 19  1  0
 17 18  1  1
 19 20  1  6
 19 21  1  0
 21 22  1  0
 23 21  2  0
M  END
$$$$
