PVI.pdb
     RDKit          3D

 23 23  0  0  1  0  0  0  0  0999 V2000
   28.0003  -21.2310  -17.1920 N   0  0  0  0  0  0  0  0  0  0  0  0
   29.3438  -21.7369  -17.1950 C   0  0  0  0  0  0  0  0  0  0  0  0
   29.4900  -22.7190  -16.0826 C   0  0  0  0  0  0  0  0  0  0  0  0
   28.0807  -22.9961  -15.6160 C   0  0  0  0  0  0  0  0  0  0  0  0
   27.3373  -21.7729  -16.0310 C   0  0  1  0  0  0  0  0  0  0  0  0
   27.2738  -20.7440  -14.9229 C   0  0  0  0  0  0  0  0  0  0  0  0
   27.5083  -19.5415  -15.1518 O   0  0  0  0  0  0  0  0  0  0  0  0
   23.7982  -20.7006  -13.4348 C   0  0  0  0  0  0  0  0  0  0  0  0
   24.9589  -19.7259  -13.3074 C   0  0  2  0  0  0  0  0  0  0  0  0
   25.0996  -19.0359  -14.6213 C   0  0  0  0  0  0  0  0  0  0  0  0
   26.1286  -20.4072  -12.7333 C   0  0  2  0  0  0  0  0  0  0  0  0
   26.9438  -21.1720  -13.6243 N   0  0  0  0  0  0  0  0  0  0  0  0
   25.9425  -21.0149  -11.3874 C   0  0  0  0  0  0  0  0  0  0  0  0
   25.4508  -22.1672  -11.2732 O   0  0  0  0  0  0  0  0  0  0  0  0
   28.6641  -18.6902   -7.1543 C   0  0  0  0  0  0  0  0  0  0  0  0
   28.1093  -19.7696   -8.0546 C   0  0  0  0  0  0  0  0  0  0  0  0
   26.6494  -20.0391   -7.8543 C   0  0  2  0  0  0  0  0  0  0  0  0
   26.3548  -20.5670   -6.4665 C   0  0  0  0  0  0  0  0  0  0  0  0
   26.0218  -20.9533   -8.8653 C   0  0  2  0  0  0  0  0  0  0  0  0
   26.2826  -20.3713  -10.1917 N   0  0  0  0  0  0  0  0  0  0  0  0
   24.5569  -20.9731   -8.5975 C   0  0  0  0  0  0  0  0  0  0  0  0
   23.6411  -20.1484   -9.1961 O   0  0  0  0  0  0  0  0  0  0  0  0
   24.1317  -21.8076   -7.7605 O   0  0  0  0  0  0  0  0  0  0  0  0
  1  5  1  0
  1  2  1  0
  2  3  1  0
  3  4  1  0
  5  4  1  0
  6  7  2  0
  5  6  1  1
  9  8  1  6
  9 11  1  0
 10  9  1  0
 11 12  1  6
 12  6  1  0
 13 20  1  0
 13 11  1  0
 14 13  2  0
 15 16  1  0
 17 16  1  0
 17 19  1  0
 17 18  1  1
 19 20  1  6
 19 21  1  0
 21 22  1  0
 23 21  2  0
M  END
$$$$
