PVI.pdb
     RDKit          3D

 23 23  0  0  1  0  0  0  0  0999 V2000
   28.8979  -21.4939  -15.0651 N   0  0  0  0  0  0  0  0  0  0  0  0
   28.5328  -21.4123  -16.4510 C   0  0  0  0  0  0  0  0  0  0  0  0
   27.7602  -20.1563  -16.6714 C   0  0  0  0  0  0  0  0  0  0  0  0
   27.9527  -19.3505  -15.4087 C   0  0  0  0  0  0  0  0  0  0  0  0
   28.2668  -20.3883  -14.3864 C   0  0  1  0  0  0  0  0  0  0  0  0
   27.0292  -20.8507  -13.6481 C   0  0  0  0  0  0  0  0  0  0  0  0
   26.3691  -21.8270  -14.0539 O   0  0  0  0  0  0  0  0  0  0  0  0
   26.8190  -21.0231   -9.7098 C   0  0  0  0  0  0  0  0  0  0  0  0
   25.5835  -20.3239  -10.2555 C   0  0  2  0  0  0  0  0  0  0  0  0
   24.4327  -20.7353   -9.4019 C   0  0  0  0  0  0  0  0  0  0  0  0
   25.4950  -20.5190  -11.7102 C   0  0  2  0  0  0  0  0  0  0  0  0
   26.6360  -20.1551  -12.4905 N   0  0  0  0  0  0  0  0  0  0  0  0
   24.1852  -20.1971  -12.3397 C   0  0  0  0  0  0  0  0  0  0  0  0
   23.9503  -19.0342  -12.7582 O   0  0  0  0  0  0  0  0  0  0  0  0
   22.5036  -22.4353  -16.5184 C   0  0  0  0  0  0  0  0  0  0  0  0
   22.7252  -21.5484  -15.3152 C   0  0  0  0  0  0  0  0  0  0  0  0
   21.6442  -21.6417  -14.2823 C   0  0  2  0  0  0  0  0  0  0  0  0
   20.2757  -21.3626  -14.8662 C   0  0  0  0  0  0  0  0  0  0  0  0
   21.8403  -20.7796  -13.0699 C   0  0  2  0  0  0  0  0  0  0  0  0
   23.1526  -21.1281  -12.5020 N   0  0  0  0  0  0  0  0  0  0  0  0
   20.7605  -21.1212  -12.1026 C   0  0  0  0  0  0  0  0  0  0  0  0
   19.6819  -20.3248  -11.8211 O   0  0  0  0  0  0  0  0  0  0  0  0
   20.8472  -22.2207  -11.5014 O   0  0  0  0  0  0  0  0  0  0  0  0
  1  5  1  0
  1  2  1  0
  2  3  1  0
  3  4  1  0
  5  4  1  0
  6  7  2  0
  5  6  1  6
  9  8  1  1
  9 11  1  0
 10  9  1  0
 11 12  1  6
 12  6  1  0
 13 20  1  0
 13 11  1  0
 14 13  2  0
 15 16  1  0
 17 16  1  0
 17 19  1  0
 17 18  1  6
 19 20  1  1
 19 21  1  0
 21 22  1  0
 23 21  2  0
M  END
$$$$
