PVI.pdb
     RDKit          3D

 23 23  0  0  1  0  0  0  0  0999 V2000
   27.4322  -19.8112  -15.9622 N   0  0  0  0  0  0  0  0  0  0  0  0
   28.6936  -19.1280  -16.0170 C   0  0  0  0  0  0  0  0  0  0  0  0
   29.6171  -19.7432  -15.0211 C   0  0  0  0  0  0  0  0  0  0  0  0
   28.9376  -21.0223  -14.5936 C   0  0  0  0  0  0  0  0  0  0  0  0
   27.4984  -20.7533  -14.8716 C   0  0  1  0  0  0  0  0  0  0  0  0
   26.7764  -20.2146  -13.6555 C   0  0  0  0  0  0  0  0  0  0  0  0
   26.8970  -19.0214  -13.3159 O   0  0  0  0  0  0  0  0  0  0  0  0
   23.4647  -19.7492  -13.3201 C   0  0  0  0  0  0  0  0  0  0  0  0
   23.7175  -20.5237  -12.0358 C   0  0  2  0  0  0  0  0  0  0  0  0
   22.8765  -19.9008  -10.9741 C   0  0  0  0  0  0  0  0  0  0  0  0
   25.1634  -20.6627  -11.8071 C   0  0  2  0  0  0  0  0  0  0  0  0
   25.9633  -21.0892  -12.9123 N   0  0  0  0  0  0  0  0  0  0  0  0
   25.5712  -21.2280  -10.4920 C   0  0  0  0  0  0  0  0  0  0  0  0
   25.7165  -22.4696  -10.3518 O   0  0  0  0  0  0  0  0  0  0  0  0
   28.5812  -18.3445   -6.8711 C   0  0  0  0  0  0  0  0  0  0  0  0
   28.0352  -19.5362   -7.6228 C   0  0  0  0  0  0  0  0  0  0  0  0
   26.6701  -19.9637   -7.1780 C   0  0  2  0  0  0  0  0  0  0  0  0
   26.6576  -20.4065   -5.7305 C   0  0  0  0  0  0  0  0  0  0  0  0
   26.0267  -21.0282   -8.0174 C   0  0  2  0  0  0  0  0  0  0  0  0
   25.8091  -20.4497   -9.3531 N   0  0  0  0  0  0  0  0  0  0  0  0
   24.7186  -21.3604   -7.3875 C   0  0  0  0  0  0  0  0  0  0  0  0
   24.5131  -22.3913   -6.5088 O   0  0  0  0  0  0  0  0  0  0  0  0
   23.7325  -20.6417   -7.6854 O   0  0  0  0  0  0  0  0  0  0  0  0
  1  5  1  0
  1  2  1  0
  2  3  1  0
  3  4  1  0
  5  4  1  0
  6  7  2  0
  5  6  1  1
  9  8  1  6
  9 11  1  0
 10  9  1  0
 11 12  1  6
 12  6  1  0
 13 20  1  0
 13 11  1  0
 14 13  2  0
 15 16  1  0
 17 16  1  0
 17 19  1  0
 17 18  1  1
 19 20  1  6
 19 21  1  0
 21 22  1  0
 23 21  2  0
M  END
$$$$
