PVI.pdb
     RDKit          3D

 23 23  0  0  1  0  0  0  0  0999 V2000
   26.9802  -20.0303  -15.6569 N   0  0  0  0  0  0  0  0  0  0  0  0
   28.2185  -19.4141  -16.0415 C   0  0  0  0  0  0  0  0  0  0  0  0
   29.3162  -19.9785  -15.2051 C   0  0  0  0  0  0  0  0  0  0  0  0
   28.7100  -21.1804  -14.5208 C   0  0  0  0  0  0  0  0  0  0  0  0
   27.2521  -20.8713  -14.5167 C   0  0  1  0  0  0  0  0  0  0  0  0
   26.8197  -20.1912  -13.2357 C   0  0  0  0  0  0  0  0  0  0  0  0
   27.0554  -18.9828  -13.0414 O   0  0  0  0  0  0  0  0  0  0  0  0
   23.2329  -21.1882  -11.0476 C   0  0  0  0  0  0  0  0  0  0  0  0
   24.1353  -19.9730  -11.1967 C   0  0  2  0  0  0  0  0  0  0  0  0
   23.6793  -19.2329  -12.4078 C   0  0  0  0  0  0  0  0  0  0  0  0
   25.5457  -20.3773  -11.0999 C   0  0  2  0  0  0  0  0  0  0  0  0
   26.1439  -20.9515  -12.2643 N   0  0  0  0  0  0  0  0  0  0  0  0
   25.9656  -21.0012   -9.8154 C   0  0  0  0  0  0  0  0  0  0  0  0
   26.0858  -22.2502   -9.7252 O   0  0  0  0  0  0  0  0  0  0  0  0
   29.1543  -18.2564   -6.2847 C   0  0  0  0  0  0  0  0  0  0  0  0
   28.5248  -19.3674   -7.0928 C   0  0  0  0  0  0  0  0  0  0  0  0
   27.2434  -19.8882   -6.5177 C   0  0  2  0  0  0  0  0  0  0  0  0
   27.4327  -20.4469   -5.1235 C   0  0  0  0  0  0  0  0  0  0  0  0
   26.5319  -20.9081   -7.3574 C   0  0  2  0  0  0  0  0  0  0  0  0
   26.2424  -20.2723   -8.6529 N   0  0  0  0  0  0  0  0  0  0  0  0
   25.2596  -21.2472   -6.6615 C   0  0  0  0  0  0  0  0  0  0  0  0
   25.0993  -22.2916   -5.7894 O   0  0  0  0  0  0  0  0  0  0  0  0
   24.2610  -20.5211   -6.8926 O   0  0  0  0  0  0  0  0  0  0  0  0
  1  5  1  0
  1  2  1  0
  2  3  1  0
  3  4  1  0
  5  4  1  0
  6  7  2  0
  5  6  1  1
  9  8  1  6
  9 11  1  0
 10  9  1  0
 11 12  1  6
 12  6  1  0
 13 20  1  0
 13 11  1  0
 14 13  2  0
 15 16  1  0
 17 16  1  0
 17 19  1  0
 17 18  1  1
 19 20  1  6
 19 21  1  0
 21 22  1  0
 23 21  2  0
M  END
$$$$
