PVI.pdb
     RDKit          3D

 23 23  0  0  1  0  0  0  0  0999 V2000
   26.6733  -20.1821  -14.8656 N   0  0  0  0  0  0  0  0  0  0  0  0
   27.9720  -19.7559  -15.3046 C   0  0  0  0  0  0  0  0  0  0  0  0
   29.0017  -20.3425  -14.3997 C   0  0  0  0  0  0  0  0  0  0  0  0
   28.2660  -21.3844  -13.5913 C   0  0  0  0  0  0  0  0  0  0  0  0
   26.8522  -20.9152  -13.6360 C   0  0  1  0  0  0  0  0  0  0  0  0
   26.5028  -20.0516  -12.4433 C   0  0  0  0  0  0  0  0  0  0  0  0
   26.0258  -18.9104  -12.5971 O   0  0  0  0  0  0  0  0  0  0  0  0
   23.9677  -19.7058  -11.5580 C   0  0  0  0  0  0  0  0  0  0  0  0
   24.3671  -20.6146  -10.4056 C   0  0  2  0  0  0  0  0  0  0  0  0
   23.3529  -20.4303   -9.3287 C   0  0  0  0  0  0  0  0  0  0  0  0
   25.7890  -20.4245  -10.0831 C   0  0  2  0  0  0  0  0  0  0  0  0
   26.7274  -20.5630  -11.1524 N   0  0  0  0  0  0  0  0  0  0  0  0
   26.2485  -20.9767   -8.7795 C   0  0  0  0  0  0  0  0  0  0  0  0
   26.3139  -22.2207   -8.6042 O   0  0  0  0  0  0  0  0  0  0  0  0
   29.6380  -17.8050   -5.9100 C   0  0  0  0  0  0  0  0  0  0  0  0
   29.0494  -19.0532   -6.5256 C   0  0  0  0  0  0  0  0  0  0  0  0
   27.9069  -19.6343   -5.7503 C   0  0  2  0  0  0  0  0  0  0  0  0
   28.3357  -20.1111   -4.3791 C   0  0  0  0  0  0  0  0  0  0  0  0
   27.1622  -20.7404   -6.4385 C   0  0  2  0  0  0  0  0  0  0  0  0
   26.6230  -20.1827   -7.6892 N   0  0  0  0  0  0  0  0  0  0  0  0
   26.0462  -21.1499   -5.5413 C   0  0  0  0  0  0  0  0  0  0  0  0
   26.1171  -22.1558   -4.6138 O   0  0  0  0  0  0  0  0  0  0  0  0
   24.9608  -20.5262   -5.6443 O   0  0  0  0  0  0  0  0  0  0  0  0
  1  5  1  0
  1  2  1  0
  2  3  1  0
  3  4  1  0
  5  4  1  0
  6  7  2  0
  5  6  1  1
  9  8  1  6
  9 11  1  0
 10  9  1  0
 11 12  1  6
 12  6  1  0
 13 20  1  0
 13 11  1  0
 14 13  2  0
 15 16  1  0
 17 16  1  0
 17 19  1  0
 17 18  1  1
 19 20  1  6
 19 21  1  0
 21 22  1  0
 23 21  2  0
M  END
$$$$
