PVI.pdb
     RDKit          3D

 23 23  0  0  1  0  0  0  0  0999 V2000
   23.1510  -20.8254  -13.6406 N   0  0  0  0  0  0  0  0  0  0  0  0
   22.0054  -21.6871  -13.5639 C   0  0  0  0  0  0  0  0  0  0  0  0
   21.3086  -21.4460  -12.2679 C   0  0  0  0  0  0  0  0  0  0  0  0
   21.9252  -20.1811  -11.7201 C   0  0  0  0  0  0  0  0  0  0  0  0
   23.2636  -20.1429  -12.3745 C   0  0  1  0  0  0  0  0  0  0  0  0
   24.3336  -20.7822  -11.5160 C   0  0  0  0  0  0  0  0  0  0  0  0
   24.2693  -21.9874  -11.2049 O   0  0  0  0  0  0  0  0  0  0  0  0
   27.6700  -21.2446  -12.2429 C   0  0  0  0  0  0  0  0  0  0  0  0
   27.7914  -20.6190  -10.8619 C   0  0  2  0  0  0  0  0  0  0  0  0
   28.8510  -21.3706  -10.1306 C   0  0  0  0  0  0  0  0  0  0  0  0
   26.4613  -20.4879  -10.2490 C   0  0  2  0  0  0  0  0  0  0  0  0
   25.4065  -19.9874  -11.0738 N   0  0  0  0  0  0  0  0  0  0  0  0
   26.4291  -20.0061   -8.8411 C   0  0  0  0  0  0  0  0  0  0  0  0
   25.7456  -18.9967   -8.5306 O   0  0  0  0  0  0  0  0  0  0  0  0
   29.4325  -21.2212   -3.5161 C   0  0  0  0  0  0  0  0  0  0  0  0
   28.2451  -20.5747   -4.1908 C   0  0  0  0  0  0  0  0  0  0  0  0
   28.0753  -20.9623   -5.6278 C   0  0  2  0  0  0  0  0  0  0  0  0
   29.4049  -21.1211   -6.3337 C   0  0  0  0  0  0  0  0  0  0  0  0
   27.2006  -20.0514   -6.4382 C   0  0  2  0  0  0  0  0  0  0  0  0
   27.1355  -20.6141   -7.7967 N   0  0  0  0  0  0  0  0  0  0  0  0
   27.8598  -18.7163   -6.4716 C   0  0  0  0  0  0  0  0  0  0  0  0
   27.6664  -17.7252   -5.5457 O   0  0  0  0  0  0  0  0  0  0  0  0
   28.6506  -18.4837   -7.4194 O   0  0  0  0  0  0  0  0  0  0  0  0
  1  5  1  0
  1  2  1  0
  2  3  1  0
  3  4  1  0
  5  4  1  0
  6  7  2  0
  5  6  1  1
  9  8  1  6
  9 11  1  0
 10  9  1  0
 11 12  1  6
 12  6  1  0
 13 20  1  0
 13 11  1  0
 14 13  2  0
 15 16  1  0
 17 16  1  0
 17 19  1  0
 17 18  1  6
 19 20  1  6
 19 21  1  0
 21 22  1  0
 23 21  2  0
M  END
$$$$
