PVI.pdb
     RDKit          3D

 23 23  0  0  1  0  0  0  0  0999 V2000
   19.0606  -14.8800  -17.9605 N   0  0  0  0  0  0  0  0  0  0  0  0
   17.7102  -14.5184  -18.2869 C   0  0  0  0  0  0  0  0  0  0  0  0
   17.7335  -13.3063  -19.1547 C   0  0  0  0  0  0  0  0  0  0  0  0
   19.1755  -13.1529  -19.5761 C   0  0  0  0  0  0  0  0  0  0  0  0
   19.9233  -13.8543  -18.4945 C   0  0  1  0  0  0  0  0  0  0  0  0
   20.3645  -12.9048  -17.4017 C   0  0  0  0  0  0  0  0  0  0  0  0
   19.6270  -12.6648  -16.4259 O   0  0  0  0  0  0  0  0  0  0  0  0
   23.5197  -13.2522  -15.5319 C   0  0  0  0  0  0  0  0  0  0  0  0
   23.4988  -11.7945  -15.9655 C   0  0  2  0  0  0  0  0  0  0  0  0
   24.0583  -10.9931  -14.8398 C   0  0  0  0  0  0  0  0  0  0  0  0
   22.1728  -11.4454  -16.4964 C   0  0  2  0  0  0  0  0  0  0  0  0
   21.6278  -12.2954  -17.5081 N   0  0  0  0  0  0  0  0  0  0  0  0
   21.9030   -9.9950  -16.6937 C   0  0  0  0  0  0  0  0  0  0  0  0
   22.3157   -9.4068  -17.7262 O   0  0  0  0  0  0  0  0  0  0  0  0
   17.6411   -6.0343  -16.9437 C   0  0  0  0  0  0  0  0  0  0  0  0
   19.0837   -6.1727  -16.5157 C   0  0  0  0  0  0  0  0  0  0  0  0
   19.5473   -7.5913  -16.3863 C   0  0  2  0  0  0  0  0  0  0  0  0
   18.6636   -8.3946  -15.4561 C   0  0  0  0  0  0  0  0  0  0  0  0
   20.9776   -7.7623  -15.9659 C   0  0  2  0  0  0  0  0  0  0  0  0
   21.2007   -9.2046  -15.7763 N   0  0  0  0  0  0  0  0  0  0  0  0
   21.1486   -7.0464  -14.6711 C   0  0  0  0  0  0  0  0  0  0  0  0
   21.4571   -5.7174  -14.5469 O   0  0  0  0  0  0  0  0  0  0  0  0
   20.9991   -7.7121  -13.6164 O   0  0  0  0  0  0  0  0  0  0  0  0
  1  5  1  0
  1  2  1  0
  2  3  1  0
  3  4  1  0
  5  4  1  0
  6  7  2  0
  5  6  1  1
  9  8  1  1
  9 11  1  0
 10  9  1  0
 11 12  1  6
 12  6  1  0
 13 20  1  0
 13 11  1  0
 14 13  2  0
 15 16  1  0
 17 16  1  0
 17 19  1  0
 17 18  1  1
 19 20  1  1
 19 21  1  0
 21 22  1  0
 23 21  2  0
M  END
$$$$
