SCP.pdb
     RDKit          3D

 20 20  0  0  1  0  0  0  0  0999 V2000
    9.6986  -17.4908   21.6971 O   0  0  0  0  0  0  0  0  0  0  0  0
    8.3890  -17.0436   21.8039 C   0  0  0  0  0  0  0  0  0  0  0  0
    8.3800  -15.5575   21.5020 C   0  0  2  0  0  0  0  0  0  0  0  0
    9.4429  -15.2409   20.5426 N   0  0  0  0  0  0  0  0  0  0  0  0
    8.6133  -14.7942   22.7598 C   0  0  0  0  0  0  0  0  0  0  0  0
    9.7963  -14.4632   23.0653 O   0  0  0  0  0  0  0  0  0  0  0  0
    7.5946  -14.3998   23.6603 N   0  0  0  0  0  0  0  0  0  0  0  0
    7.8594  -13.9755   25.0203 C   0  0  1  0  0  0  0  0  0  0  0  0
    6.5362  -13.5043   25.5828 C   0  0  0  0  0  0  0  0  0  0  0  0
    6.7459  -13.1593   27.3336 S   0  0  0  0  0  0  0  0  0  0  0  0
    8.4644  -15.0751   25.7773 C   0  0  0  0  0  0  0  0  0  0  0  0
    8.3526  -16.2698   25.3593 O   0  0  0  0  0  0  0  0  0  0  0  0
    9.1865  -14.8898   26.9786 N   0  0  0  0  0  0  0  0  0  0  0  0
    9.0357  -13.8063   27.9605 C   0  0  0  0  0  0  0  0  0  0  0  0
   10.3726  -13.6340   28.6106 C   0  0  0  0  0  0  0  0  0  0  0  0
   11.2556  -14.6488   27.9172 C   0  0  0  0  0  0  0  0  0  0  0  0
   10.2448  -15.7107   27.5368 C   0  0  1  0  0  0  0  0  0  0  0  0
    9.7890  -16.4281   28.7583 C   0  0  0  0  0  0  0  0  0  0  0  0
   10.5817  -17.2835   29.4902 O   0  0  0  0  0  0  0  0  0  0  0  0
    8.6116  -16.2406   29.1423 O   0  0  0  0  0  0  0  0  0  0  0  0
  1  2  1  0
  2  3  1  0
  3  4  1  6
  5  3  1  0
  6  5  2  0
  7  5  1  0
  8 11  1  0
  8  7  1  0
  9 10  1  0
  8  9  1  1
 11 12  2  0
 13 11  1  0
 13 14  1  0
 15 14  1  0
 16 17  1  0
 16 15  1  0
 17 18  1  1
 17 13  1  0
 18 19  1  0
 20 18  2  0
M  END
$$$$
