SCP.pdb
     RDKit          3D

 20 20  0  0  1  0  0  0  0  0999 V2000
   10.0183  -17.1274   21.8124 O   0  0  0  0  0  0  0  0  0  0  0  0
    8.6460  -17.0243   21.6317 C   0  0  0  0  0  0  0  0  0  0  0  0
    8.3134  -15.5587   21.4288 C   0  0  2  0  0  0  0  0  0  0  0  0
    9.1662  -14.9989   20.3753 N   0  0  0  0  0  0  0  0  0  0  0  0
    8.5520  -14.8154   22.6976 C   0  0  0  0  0  0  0  0  0  0  0  0
    9.7240  -14.4173   22.9634 O   0  0  0  0  0  0  0  0  0  0  0  0
    7.5504  -14.5114   23.6506 N   0  0  0  0  0  0  0  0  0  0  0  0
    7.8464  -14.0756   25.0004 C   0  0  1  0  0  0  0  0  0  0  0  0
    6.5152  -13.7559   25.6445 C   0  0  0  0  0  0  0  0  0  0  0  0
    6.8181  -13.0068   27.2493 S   0  0  0  0  0  0  0  0  0  0  0  0
    8.6083  -15.1118   25.7035 C   0  0  0  0  0  0  0  0  0  0  0  0
    8.6940  -16.2801   25.2112 O   0  0  0  0  0  0  0  0  0  0  0  0
    9.2750  -14.8915   26.9306 N   0  0  0  0  0  0  0  0  0  0  0  0
    9.0511  -13.8033   27.8931 C   0  0  0  0  0  0  0  0  0  0  0  0
   10.3545  -13.5824   28.5944 C   0  0  0  0  0  0  0  0  0  0  0  0
   11.2959  -14.5761   27.9488 C   0  0  0  0  0  0  0  0  0  0  0  0
   10.3348  -15.6730   27.5404 C   0  0  1  0  0  0  0  0  0  0  0  0
    9.8522  -16.3917   28.7508 C   0  0  0  0  0  0  0  0  0  0  0  0
   10.6188  -17.2721   29.4807 O   0  0  0  0  0  0  0  0  0  0  0  0
    8.6761  -16.1812   29.1267 O   0  0  0  0  0  0  0  0  0  0  0  0
  1  2  1  0
  2  3  1  0
  3  4  1  6
  5  3  1  0
  6  5  2  0
  7  5  1  0
  8 11  1  0
  8  7  1  0
  9 10  1  0
  8  9  1  1
 11 12  2  0
 13 11  1  0
 13 14  1  0
 15 14  1  0
 16 17  1  0
 16 15  1  0
 17 18  1  1
 17 13  1  0
 18 19  1  0
 20 18  2  0
M  END
$$$$
