SCP.pdb
     RDKit          3D

 20 20  0  0  1  0  0  0  0  0999 V2000
    6.0208  -20.2118   21.7992 O   0  0  0  0  0  0  0  0  0  0  0  0
    5.3940  -19.4857   22.8025 C   0  0  0  0  0  0  0  0  0  0  0  0
    5.1792  -18.0750   22.2894 C   0  0  2  0  0  0  0  0  0  0  0  0
    5.1445  -18.0814   20.8234 N   0  0  0  0  0  0  0  0  0  0  0  0
    6.2974  -17.2043   22.7483 C   0  0  0  0  0  0  0  0  0  0  0  0
    7.2863  -17.0207   21.9795 O   0  0  0  0  0  0  0  0  0  0  0  0
    6.3432  -16.5506   24.0031 N   0  0  0  0  0  0  0  0  0  0  0  0
    7.5477  -15.9515   24.5415 C   0  0  1  0  0  0  0  0  0  0  0  0
    7.1285  -15.2026   25.7876 C   0  0  0  0  0  0  0  0  0  0  0  0
    6.4193  -13.6256   25.2993 S   0  0  0  0  0  0  0  0  0  0  0  0
    8.5541  -16.9885   24.7869 C   0  0  0  0  0  0  0  0  0  0  0  0
    8.1895  -18.1799   25.0366 O   0  0  0  0  0  0  0  0  0  0  0  0
    9.9465  -16.7444   24.7634 N   0  0  0  0  0  0  0  0  0  0  0  0
   10.6308  -15.4555   24.5867 C   0  0  0  0  0  0  0  0  0  0  0  0
   11.9505  -15.7597   23.9500 C   0  0  0  0  0  0  0  0  0  0  0  0
   11.9352  -17.2617   23.7645 C   0  0  0  0  0  0  0  0  0  0  0  0
   11.0362  -17.6922   24.9049 C   0  0  1  0  0  0  0  0  0  0  0  0
   11.7484  -17.5119   26.1990 C   0  0  0  0  0  0  0  0  0  0  0  0
   11.4468  -16.5282   27.1138 O   0  0  0  0  0  0  0  0  0  0  0  0
   12.6790  -18.3051   26.4706 O   0  0  0  0  0  0  0  0  0  0  0  0
  1  2  1  0
  2  3  1  0
  3  4  1  6
  5  3  1  0
  6  5  2  0
  7  5  1  0
  8 11  1  0
  8  7  1  0
  9 10  1  0
  8  9  1  1
 11 12  2  0
 13 11  1  0
 13 14  1  0
 15 14  1  0
 16 17  1  0
 16 15  1  0
 17 18  1  1
 17 13  1  0
 18 19  1  0
 20 18  2  0
M  END
$$$$
