SCP.pdb
     RDKit          3D

 20 20  0  0  1  0  0  0  0  0999 V2000
   10.0240  -18.1402   14.1183 O   0  0  0  0  0  0  0  0  0  0  0  0
    8.8792  -17.6074   14.6947 C   0  0  0  0  0  0  0  0  0  0  0  0
    8.8866  -16.1117   14.4445 C   0  0  2  0  0  0  0  0  0  0  0  0
    9.7904  -15.8004   13.3323 N   0  0  0  0  0  0  0  0  0  0  0  0
    9.3571  -15.4060   15.6690 C   0  0  0  0  0  0  0  0  0  0  0  0
   10.6010  -15.3239   15.8893 O   0  0  0  0  0  0  0  0  0  0  0  0
    8.5052  -14.8058   16.6272 N   0  0  0  0  0  0  0  0  0  0  0  0
    8.9863  -14.2369   17.8700 C   0  0  1  0  0  0  0  0  0  0  0  0
    7.7831  -13.6177   18.5468 C   0  0  0  0  0  0  0  0  0  0  0  0
    8.2521  -13.1166   20.2073 S   0  0  0  0  0  0  0  0  0  0  0  0
    9.6455  -15.2727   18.6706 C   0  0  0  0  0  0  0  0  0  0  0  0
    9.3078  -16.4901   18.5351 O   0  0  0  0  0  0  0  0  0  0  0  0
   10.6638  -14.9994   19.6126 N   0  0  0  0  0  0  0  0  0  0  0  0
   11.1715  -13.6852   20.0324 C   0  0  0  0  0  0  0  0  0  0  0  0
   12.5968  -13.8914   20.4392 C   0  0  0  0  0  0  0  0  0  0  0  0
   12.8434  -15.3642   20.1929 C   0  0  0  0  0  0  0  0  0  0  0  0
   11.4544  -15.9346   20.3910 C   0  0  1  0  0  0  0  0  0  0  0  0
   11.0930  -15.8823   21.8337 C   0  0  0  0  0  0  0  0  0  0  0  0
   11.6355  -16.7063   22.7940 O   0  0  0  0  0  0  0  0  0  0  0  0
   10.2430  -15.0358   22.1940 O   0  0  0  0  0  0  0  0  0  0  0  0
  1  2  1  0
  2  3  1  0
  3  4  1  6
  5  3  1  0
  6  5  2  0
  7  5  1  0
  8 11  1  0
  8  7  1  0
  9 10  1  0
  8  9  1  1
 11 12  2  0
 13 11  1  0
 13 14  1  0
 15 14  1  0
 16 17  1  0
 16 15  1  0
 17 18  1  1
 17 13  1  0
 18 19  1  0
 20 18  2  0
M  END
$$$$
