SCP.pdb
     RDKit          3D

 20 20  0  0  1  0  0  0  0  0999 V2000
    9.4780  -15.6598   19.0547 O   0  0  0  0  0  0  0  0  0  0  0  0
    9.4790  -16.2623   20.3051 C   0  0  0  0  0  0  0  0  0  0  0  0
    8.1008  -16.8507   20.5378 C   0  0  2  0  0  0  0  0  0  0  0  0
    7.1864  -16.4016   19.4830 N   0  0  0  0  0  0  0  0  0  0  0  0
    7.5840  -16.3965   21.8590 C   0  0  0  0  0  0  0  0  0  0  0  0
    6.9006  -15.3325   21.9168 O   0  0  0  0  0  0  0  0  0  0  0  0
    7.8003  -17.0754   23.0823 N   0  0  0  0  0  0  0  0  0  0  0  0
    7.2921  -16.6002   24.3534 C   0  0  1  0  0  0  0  0  0  0  0  0
    6.8932  -17.8311   25.1376 C   0  0  0  0  0  0  0  0  0  0  0  0
    6.9083  -17.4273   26.8883 S   0  0  0  0  0  0  0  0  0  0  0  0
    8.3060  -15.7785   25.0205 C   0  0  0  0  0  0  0  0  0  0  0  0
    9.5312  -15.9056   24.7085 O   0  0  0  0  0  0  0  0  0  0  0  0
    8.0027  -14.8242   26.0186 N   0  0  0  0  0  0  0  0  0  0  0  0
    6.6851  -14.5047   26.5866 C   0  0  0  0  0  0  0  0  0  0  0  0
    6.7448  -13.0728   27.0173 C   0  0  0  0  0  0  0  0  0  0  0  0
    8.1385  -12.6271   26.6306 C   0  0  0  0  0  0  0  0  0  0  0  0
    8.9033  -13.9311   26.7235 C   0  0  1  0  0  0  0  0  0  0  0  0
    9.0509  -14.3240   28.1512 C   0  0  0  0  0  0  0  0  0  0  0  0
    8.4947  -15.4578   28.6995 O   0  0  0  0  0  0  0  0  0  0  0  0
    9.7229  -13.5758   28.8979 O   0  0  0  0  0  0  0  0  0  0  0  0
  1  2  1  0
  2  3  1  0
  3  4  1  6
  5  3  1  0
  6  5  2  0
  7  5  1  0
  8 11  1  0
  8  7  1  0
  9 10  1  0
  8  9  1  1
 11 12  2  0
 13 11  1  0
 13 14  1  0
 15 14  1  0
 16 17  1  0
 16 15  1  0
 17 18  1  1
 17 13  1  0
 18 19  1  0
 20 18  2  0
M  END
$$$$
