SCP.pdb
     RDKit          3D

 20 20  0  0  1  0  0  0  0  0999 V2000
    8.8496  -16.8756   21.8573 O   0  0  0  0  0  0  0  0  0  0  0  0
    7.5812  -16.3962   21.5609 C   0  0  0  0  0  0  0  0  0  0  0  0
    7.6620  -14.8836   21.4887 C   0  0  2  0  0  0  0  0  0  0  0  0
    8.6495  -14.4883   20.4791 N   0  0  0  0  0  0  0  0  0  0  0  0
    8.0756  -14.3448   22.8144 C   0  0  0  0  0  0  0  0  0  0  0  0
    9.3084  -14.1852   23.0535 O   0  0  0  0  0  0  0  0  0  0  0  0
    7.1799  -13.9883   23.8511 N   0  0  0  0  0  0  0  0  0  0  0  0
    7.6128  -13.6556   25.1934 C   0  0  1  0  0  0  0  0  0  0  0  0
    6.3765  -13.1996   25.9370 C   0  0  0  0  0  0  0  0  0  0  0  0
    6.8075  -12.9350   27.6610 S   0  0  0  0  0  0  0  0  0  0  0  0
    8.2764  -14.8109   25.8044 C   0  0  0  0  0  0  0  0  0  0  0  0
    8.1152  -15.9701   25.3094 O   0  0  0  0  0  0  0  0  0  0  0  0
    9.1097  -14.7191   26.9429 N   0  0  0  0  0  0  0  0  0  0  0  0
    9.1175  -13.6667   27.9691 C   0  0  0  0  0  0  0  0  0  0  0  0
   10.5138  -13.6064   28.5041 C   0  0  0  0  0  0  0  0  0  0  0  0
   11.2632  -14.6489   27.7029 C   0  0  0  0  0  0  0  0  0  0  0  0
   10.1538  -15.6276   27.3785 C   0  0  1  0  0  0  0  0  0  0  0  0
    9.7568  -16.3604   28.6113 C   0  0  0  0  0  0  0  0  0  0  0  0
   10.5304  -17.3249   29.2170 O   0  0  0  0  0  0  0  0  0  0  0  0
    8.6505  -16.0809   29.1279 O   0  0  0  0  0  0  0  0  0  0  0  0
  1  2  1  0
  2  3  1  0
  3  4  1  6
  5  3  1  0
  6  5  2  0
  7  5  1  0
  8 11  1  0
  8  7  1  0
  9 10  1  0
  8  9  1  1
 11 12  2  0
 13 11  1  0
 13 14  1  0
 15 14  1  0
 16 17  1  0
 16 15  1  0
 17 18  1  1
 17 13  1  0
 18 19  1  0
 20 18  2  0
M  END
$$$$
