SCP.pdb
     RDKit          3D

 20 20  0  0  1  0  0  0  0  0999 V2000
   10.3295  -16.7898   19.3876 O   0  0  0  0  0  0  0  0  0  0  0  0
    9.1404  -16.1534   19.7156 C   0  0  0  0  0  0  0  0  0  0  0  0
    8.2489  -17.1647   20.4100 C   0  0  2  0  0  0  0  0  0  0  0  0
    7.2951  -17.7265   19.4481 N   0  0  0  0  0  0  0  0  0  0  0  0
    7.4984  -16.4936   21.5078 C   0  0  0  0  0  0  0  0  0  0  0  0
    6.2435  -16.3648   21.4026 O   0  0  0  0  0  0  0  0  0  0  0  0
    8.0896  -15.9775   22.6860 N   0  0  0  0  0  0  0  0  0  0  0  0
    7.3187  -15.4940   23.8137 C   0  0  1  0  0  0  0  0  0  0  0  0
    6.5276  -16.6778   24.3254 C   0  0  0  0  0  0  0  0  0  0  0  0
    7.6501  -17.7974   25.1708 S   0  0  0  0  0  0  0  0  0  0  0  0
    8.2136  -14.9054   24.8142 C   0  0  0  0  0  0  0  0  0  0  0  0
    9.4698  -15.0686   24.7160 O   0  0  0  0  0  0  0  0  0  0  0  0
    7.7583  -14.1443   25.9155 N   0  0  0  0  0  0  0  0  0  0  0  0
    6.3732  -13.9656   26.3740 C   0  0  0  0  0  0  0  0  0  0  0  0
    6.3164  -12.6267   27.0401 C   0  0  0  0  0  0  0  0  0  0  0  0
    7.7203  -12.0804   26.8946 C   0  0  0  0  0  0  0  0  0  0  0  0
    8.5332  -13.3577   26.8569 C   0  0  1  0  0  0  0  0  0  0  0  0
    8.5451  -13.9833   28.2071 C   0  0  0  0  0  0  0  0  0  0  0  0
    9.3394  -13.5556   29.2472 O   0  0  0  0  0  0  0  0  0  0  0  0
    7.7851  -14.9586   28.4073 O   0  0  0  0  0  0  0  0  0  0  0  0
  1  2  1  0
  2  3  1  0
  3  4  1  6
  5  3  1  0
  6  5  2  0
  7  5  1  0
  8 11  1  0
  8  7  1  0
  9 10  1  0
  8  9  1  1
 11 12  2  0
 13 11  1  0
 13 14  1  0
 15 14  1  0
 16 17  1  0
 16 15  1  0
 17 18  1  1
 17 13  1  0
 18 19  1  0
 20 18  2  0
M  END
$$$$
