SCP.pdb
     RDKit          3D

 20 20  0  0  1  0  0  0  0  0999 V2000
   10.9420  -16.4798   15.8069 O   0  0  0  0  0  0  0  0  0  0  0  0
   10.4071  -17.6795   15.3583 C   0  0  0  0  0  0  0  0  0  0  0  0
    8.9273  -17.4628   15.1073 C   0  0  2  0  0  0  0  0  0  0  0  0
    8.7443  -16.6341   13.9113 N   0  0  0  0  0  0  0  0  0  0  0  0
    8.3213  -16.7709   16.2790 C   0  0  0  0  0  0  0  0  0  0  0  0
    8.2490  -15.5070   16.2744 O   0  0  0  0  0  0  0  0  0  0  0  0
    7.8076  -17.4286   17.4225 N   0  0  0  0  0  0  0  0  0  0  0  0
    7.2567  -16.7234   18.5622 C   0  0  1  0  0  0  0  0  0  0  0  0
    6.4572  -17.7418   19.3452 C   0  0  0  0  0  0  0  0  0  0  0  0
    5.9753  -17.0112   20.9143 S   0  0  0  0  0  0  0  0  0  0  0  0
    8.3366  -16.1014   19.3337 C   0  0  0  0  0  0  0  0  0  0  0  0
    9.5081  -16.5919   19.2945 O   0  0  0  0  0  0  0  0  0  0  0  0
    8.1565  -14.9566   20.1436 N   0  0  0  0  0  0  0  0  0  0  0  0
    6.9100  -14.2182   20.3926 C   0  0  0  0  0  0  0  0  0  0  0  0
    7.3049  -12.8026   20.6752 C   0  0  0  0  0  0  0  0  0  0  0  0
    8.8122  -12.8039   20.5388 C   0  0  0  0  0  0  0  0  0  0  0  0
    9.1434  -14.2313   20.9217 C   0  0  1  0  0  0  0  0  0  0  0  0
    8.9295  -14.4201   22.3822 C   0  0  0  0  0  0  0  0  0  0  0  0
    7.8639  -15.1043   22.9225 O   0  0  0  0  0  0  0  0  0  0  0  0
    9.7718  -13.9253   23.1661 O   0  0  0  0  0  0  0  0  0  0  0  0
  1  2  1  0
  2  3  1  0
  3  4  1  6
  5  3  1  0
  6  5  2  0
  7  5  1  0
  8 11  1  0
  8  7  1  0
  9 10  1  0
  8  9  1  1
 11 12  2  0
 13 11  1  0
 13 14  1  0
 15 14  1  0
 16 17  1  0
 16 15  1  0
 17 18  1  1
 17 13  1  0
 18 19  1  0
 20 18  2  0
M  END
$$$$
