SCP.pdb
     RDKit          3D

 20 20  0  0  1  0  0  0  0  0999 V2000
    9.4591  -17.1405   21.8195 O   0  0  0  0  0  0  0  0  0  0  0  0
    8.1143  -16.8322   21.6677 C   0  0  0  0  0  0  0  0  0  0  0  0
    8.0015  -15.3332   21.4682 C   0  0  2  0  0  0  0  0  0  0  0  0
    8.9536  -14.8975   20.4415 N   0  0  0  0  0  0  0  0  0  0  0  0
    8.3106  -14.6374   22.7485 C   0  0  0  0  0  0  0  0  0  0  0  0
    9.5130  -14.3395   23.0093 O   0  0  0  0  0  0  0  0  0  0  0  0
    7.3454  -14.2740   23.7183 N   0  0  0  0  0  0  0  0  0  0  0  0
    7.6888  -13.8785   25.0693 C   0  0  1  0  0  0  0  0  0  0  0  0
    6.3923  -13.4719   25.7348 C   0  0  0  0  0  0  0  0  0  0  0  0
    6.7279  -13.0785   27.4555 S   0  0  0  0  0  0  0  0  0  0  0  0
    8.3822  -14.9762   25.7495 C   0  0  0  0  0  0  0  0  0  0  0  0
    8.2812  -16.1624   25.3053 O   0  0  0  0  0  0  0  0  0  0  0  0
    9.1809  -14.7980   26.9026 N   0  0  0  0  0  0  0  0  0  0  0  0
    9.1147  -13.7039   27.8820 C   0  0  0  0  0  0  0  0  0  0  0  0
   10.4926  -13.5568   28.4472 C   0  0  0  0  0  0  0  0  0  0  0  0
   11.3086  -14.5966   27.7101 C   0  0  0  0  0  0  0  0  0  0  0  0
   10.2532  -15.6383   27.4021 C   0  0  1  0  0  0  0  0  0  0  0  0
    9.8578  -16.3358   28.6557 C   0  0  0  0  0  0  0  0  0  0  0  0
    8.6327  -16.1872   29.2664 O   0  0  0  0  0  0  0  0  0  0  0  0
   10.6922  -17.1047   29.1861 O   0  0  0  0  0  0  0  0  0  0  0  0
  1  2  1  0
  2  3  1  0
  3  4  1  6
  5  3  1  0
  6  5  2  0
  7  5  1  0
  8 11  1  0
  8  7  1  0
  9 10  1  0
  8  9  1  1
 11 12  2  0
 13 11  1  0
 13 14  1  0
 15 14  1  0
 16 17  1  0
 16 15  1  0
 17 18  1  1
 17 13  1  0
 18 19  1  0
 20 18  2  0
M  END
$$$$
