SCP.pdb
     RDKit          3D

 20 20  0  0  1  0  0  0  0  0999 V2000
    9.5886  -17.5308   22.2490 O   0  0  0  0  0  0  0  0  0  0  0  0
    8.3079  -17.1069   21.9223 C   0  0  0  0  0  0  0  0  0  0  0  0
    8.3776  -15.6273   21.5973 C   0  0  2  0  0  0  0  0  0  0  0  0
    9.4702  -15.3793   20.6511 N   0  0  0  0  0  0  0  0  0  0  0  0
    8.6282  -14.8559   22.8467 C   0  0  0  0  0  0  0  0  0  0  0  0
    9.8229  -14.6609   23.2172 O   0  0  0  0  0  0  0  0  0  0  0  0
    7.6145  -14.3108   23.6709 N   0  0  0  0  0  0  0  0  0  0  0  0
    7.8393  -13.9126   25.0458 C   0  0  1  0  0  0  0  0  0  0  0  0
    6.4952  -13.4752   25.5858 C   0  0  0  0  0  0  0  0  0  0  0  0
    6.6399  -13.2325   27.3602 S   0  0  0  0  0  0  0  0  0  0  0  0
    8.4438  -15.0189   25.7933 C   0  0  0  0  0  0  0  0  0  0  0  0
    8.3452  -16.2081   25.3567 O   0  0  0  0  0  0  0  0  0  0  0  0
    9.1514  -14.8462   27.0051 N   0  0  0  0  0  0  0  0  0  0  0  0
    8.9414  -13.8134   28.0298 C   0  0  0  0  0  0  0  0  0  0  0  0
   10.2654  -13.5991   28.6936 C   0  0  0  0  0  0  0  0  0  0  0  0
   11.2022  -14.5374   27.9639 C   0  0  0  0  0  0  0  0  0  0  0  0
   10.2491  -15.6336   27.5349 C   0  0  1  0  0  0  0  0  0  0  0  0
    9.8271  -16.4233   28.7235 C   0  0  0  0  0  0  0  0  0  0  0  0
    8.5642  -16.3777   29.2698 O   0  0  0  0  0  0  0  0  0  0  0  0
   10.6746  -17.1749   29.2580 O   0  0  0  0  0  0  0  0  0  0  0  0
  1  2  1  0
  2  3  1  0
  3  4  1  6
  5  3  1  0
  6  5  2  0
  7  5  1  0
  8 11  1  0
  8  7  1  0
  9 10  1  0
  8  9  1  1
 11 12  2  0
 13 11  1  0
 13 14  1  0
 15 14  1  0
 16 17  1  0
 16 15  1  0
 17 18  1  1
 17 13  1  0
 18 19  1  0
 20 18  2  0
M  END
$$$$
