SCP.pdb
     RDKit          3D

 20 20  0  0  1  0  0  0  0  0999 V2000
    7.3314  -21.4179   23.7485 O   0  0  0  0  0  0  0  0  0  0  0  0
    7.4150  -20.0738   24.0847 C   0  0  0  0  0  0  0  0  0  0  0  0
    6.0056  -19.5654   24.3189 C   0  0  2  0  0  0  0  0  0  0  0  0
    5.0714  -20.2729   23.4372 N   0  0  0  0  0  0  0  0  0  0  0  0
    5.9485  -18.1068   24.0223 C   0  0  0  0  0  0  0  0  0  0  0  0
    5.5878  -17.7296   22.8689 O   0  0  0  0  0  0  0  0  0  0  0  0
    6.2719  -17.0858   24.9481 N   0  0  0  0  0  0  0  0  0  0  0  0
    6.7267  -15.7690   24.5496 C   0  0  1  0  0  0  0  0  0  0  0  0
    6.8690  -14.9658   25.8239 C   0  0  0  0  0  0  0  0  0  0  0  0
    7.5280  -13.3459   25.4117 S   0  0  0  0  0  0  0  0  0  0  0  0
    7.9697  -15.8818   23.7812 C   0  0  0  0  0  0  0  0  0  0  0  0
    8.7739  -16.8381   24.0124 O   0  0  0  0  0  0  0  0  0  0  0  0
    8.3455  -14.9695   22.7684 N   0  0  0  0  0  0  0  0  0  0  0  0
    7.8270  -13.6127   22.5427 C   0  0  0  0  0  0  0  0  0  0  0  0
    7.9603  -13.3464   21.0761 C   0  0  0  0  0  0  0  0  0  0  0  0
    8.5440  -14.6264   20.5183 C   0  0  0  0  0  0  0  0  0  0  0  0
    9.3237  -15.1410   21.7105 C   0  0  1  0  0  0  0  0  0  0  0  0
   10.5204  -14.2848   21.9330 C   0  0  0  0  0  0  0  0  0  0  0  0
   11.6552  -14.3297   21.1547 O   0  0  0  0  0  0  0  0  0  0  0  0
   10.4911  -13.4744   22.8876 O   0  0  0  0  0  0  0  0  0  0  0  0
  1  2  1  0
  2  3  1  0
  3  4  1  6
  5  3  1  0
  6  5  2  0
  7  5  1  0
  8 11  1  0
  8  7  1  0
  9 10  1  0
  8  9  1  1
 11 12  2  0
 13 11  1  0
 13 14  1  0
 15 14  1  0
 16 17  1  0
 16 15  1  0
 17 18  1  1
 17 13  1  0
 18 19  1  0
 20 18  2  0
M  END
$$$$
