SCP.pdb
     RDKit          3D

 20 20  0  0  1  0  0  0  0  0999 V2000
    8.9000  -17.3537   21.8526 O   0  0  0  0  0  0  0  0  0  0  0  0
    7.6849  -16.7008   21.6981 C   0  0  0  0  0  0  0  0  0  0  0  0
    7.9730  -15.2257   21.4960 C   0  0  2  0  0  0  0  0  0  0  0  0
    9.1120  -15.0639   20.5866 N   0  0  0  0  0  0  0  0  0  0  0  0
    8.3015  -14.6001   22.8074 C   0  0  0  0  0  0  0  0  0  0  0  0
    9.5161  -14.4043   23.1058 O   0  0  0  0  0  0  0  0  0  0  0  0
    7.3425  -14.1972   23.7675 N   0  0  0  0  0  0  0  0  0  0  0  0
    7.6892  -13.8091   25.1199 C   0  0  1  0  0  0  0  0  0  0  0  0
    6.4104  -13.3154   25.7605 C   0  0  0  0  0  0  0  0  0  0  0  0
    6.7584  -12.8626   27.4641 S   0  0  0  0  0  0  0  0  0  0  0  0
    8.3023  -14.9402   25.8220 C   0  0  0  0  0  0  0  0  0  0  0  0
    8.1349  -16.1225   25.3877 O   0  0  0  0  0  0  0  0  0  0  0  0
    9.0923  -14.7994   26.9861 N   0  0  0  0  0  0  0  0  0  0  0  0
    9.0462  -13.7162   27.9787 C   0  0  0  0  0  0  0  0  0  0  0  0
   10.4210  -13.6158   28.5611 C   0  0  0  0  0  0  0  0  0  0  0  0
   11.2155  -14.6693   27.8200 C   0  0  0  0  0  0  0  0  0  0  0  0
   10.1343  -15.6763   27.4868 C   0  0  1  0  0  0  0  0  0  0  0  0
    9.7046  -16.3778   28.7269 C   0  0  0  0  0  0  0  0  0  0  0  0
    8.4508  -16.2599   29.2835 O   0  0  0  0  0  0  0  0  0  0  0  0
   10.5362  -17.1204   29.2976 O   0  0  0  0  0  0  0  0  0  0  0  0
  1  2  1  0
  2  3  1  0
  3  4  1  6
  5  3  1  0
  6  5  2  0
  7  5  1  0
  8 11  1  0
  8  7  1  0
  9 10  1  0
  8  9  1  1
 11 12  2  0
 13 11  1  0
 13 14  1  0
 15 14  1  0
 16 17  1  0
 16 15  1  0
 17 18  1  1
 17 13  1  0
 18 19  1  0
 20 18  2  0
M  END
$$$$
