MCM.pdb
     RDKit          3D

 23 22  0  0  1  0  0  0  0  0999 V2000
    8.5742  -11.9900   20.5011 C   0  0  0  0  0  0  0  0  0  0  0  0
    7.4191  -12.8913   19.4702 S   0  0  0  0  0  0  0  0  0  0  0  0
    7.7465  -14.6597   19.4235 C   0  0  0  0  0  0  0  0  0  0  0  0
    9.1796  -14.9638   19.0205 C   0  0  0  0  0  0  0  0  0  0  0  0
    9.3541  -16.4631   19.1385 C   0  0  2  0  0  0  0  0  0  0  0  0
    8.5186  -17.1138   18.1503 N   0  0  0  0  0  0  0  0  0  0  0  0
    8.9701  -16.9658   20.4743 C   0  0  0  0  0  0  0  0  0  0  0  0
    7.8272  -17.4485   20.6642 O   0  0  0  0  0  0  0  0  0  0  0  0
    9.8534  -16.9227   21.5604 N   0  0  0  0  0  0  0  0  0  0  0  0
    9.5515  -17.4700   22.8834 C   0  0  1  0  0  0  0  0  0  0  0  0
   10.6173  -18.5099   23.2423 C   0  0  0  0  0  0  0  0  0  0  0  0
   12.2514  -17.7778   23.1429 S   0  0  0  0  0  0  0  0  0  0  0  0
    9.7154  -16.3318   23.8263 C   0  0  0  0  0  0  0  0  0  0  0  0
   10.6479  -15.4756   23.6496 O   0  0  0  0  0  0  0  0  0  0  0  0
    5.8489  -11.6503   25.7362 C   0  0  0  0  0  0  0  0  0  0  0  0
    6.7500  -12.0132   27.2409 S   0  0  0  0  0  0  0  0  0  0  0  0
    8.1799  -13.0638   26.9897 C   0  0  0  0  0  0  0  0  0  0  0  0
    7.9147  -14.1802   26.0053 C   0  0  0  0  0  0  0  0  0  0  0  0
    9.1945  -15.0152   25.8889 C   0  0  2  0  0  0  0  0  0  0  0  0
    8.8972  -16.0941   24.9521 N   0  0  0  0  0  0  0  0  0  0  0  0
    9.5297  -15.5729   27.2131 C   0  0  0  0  0  0  0  0  0  0  0  0
    9.2307  -16.7509   27.4935 O   0  0  0  0  0  0  0  0  0  0  0  0
   10.1743  -14.7864   28.1377 O   0  0  0  0  0  0  0  0  0  0  0  0
  2  1  1  0
  3  2  1  0
  4  3  1  0
  5  6  1  6
  5  4  1  0
  7  5  1  0
  8  7  2  0
  9  7  1  0
 10  9  1  0
 10 13  1  0
 10 11  1  1
 12 11  1  0
 13 20  1  0
 14 13  2  0
 16 15  1  0
 17 16  1  0
 18 17  1  0
 19 18  1  1
 19 21  1  0
 20 19  1  0
 21 22  2  0
 21 23  1  0
M  END
$$$$
