MCM.pdb
     RDKit          3D

 23 22  0  0  1  0  0  0  0  0999 V2000
    8.4642  -11.6194   20.8154 C   0  0  0  0  0  0  0  0  0  0  0  0
    6.9199  -12.5242   20.8917 S   0  0  0  0  0  0  0  0  0  0  0  0
    7.1500  -14.3064   20.9784 C   0  0  0  0  0  0  0  0  0  0  0  0
    8.1309  -14.8063   19.9312 C   0  0  0  0  0  0  0  0  0  0  0  0
    8.1124  -16.3183   20.0069 C   0  0  2  0  0  0  0  0  0  0  0  0
    6.8382  -16.7991   19.5139 N   0  0  0  0  0  0  0  0  0  0  0  0
    8.2903  -16.8096   21.3895 C   0  0  0  0  0  0  0  0  0  0  0  0
    7.3204  -17.3019   22.0158 O   0  0  0  0  0  0  0  0  0  0  0  0
    9.5283  -16.7449   22.0415 N   0  0  0  0  0  0  0  0  0  0  0  0
    9.8182  -17.4044   23.3150 C   0  0  1  0  0  0  0  0  0  0  0  0
   11.0498  -18.2980   23.1390 C   0  0  0  0  0  0  0  0  0  0  0  0
   12.3896  -17.3629   22.3996 S   0  0  0  0  0  0  0  0  0  0  0  0
   10.2010  -16.3099   24.2462 C   0  0  0  0  0  0  0  0  0  0  0  0
   10.4310  -15.1339   23.8011 O   0  0  0  0  0  0  0  0  0  0  0  0
    6.1886  -12.5578   25.3059 C   0  0  0  0  0  0  0  0  0  0  0  0
    7.6298  -12.5210   26.3686 S   0  0  0  0  0  0  0  0  0  0  0  0
    7.9455  -14.0717   27.2096 C   0  0  0  0  0  0  0  0  0  0  0  0
    8.4258  -15.1547   26.2704 C   0  0  0  0  0  0  0  0  0  0  0  0
    9.9112  -15.3984   26.5579 C   0  0  2  0  0  0  0  0  0  0  0  0
   10.3389  -16.4528   25.6440 N   0  0  0  0  0  0  0  0  0  0  0  0
   10.0657  -15.8465   27.9552 C   0  0  0  0  0  0  0  0  0  0  0  0
    9.8753  -17.0416   28.2572 O   0  0  0  0  0  0  0  0  0  0  0  0
   10.4214  -14.9387   28.9239 O   0  0  0  0  0  0  0  0  0  0  0  0
  2  1  1  0
  3  2  1  0
  4  3  1  0
  5  6  1  1
  5  4  1  0
  7  5  1  0
  8  7  2  0
  9  7  1  0
 10  9  1  0
 10 13  1  0
 10 11  1  6
 12 11  1  0
 13 20  1  0
 14 13  2  0
 16 15  1  0
 17 16  1  0
 18 17  1  0
 19 18  1  6
 19 21  1  0
 20 19  1  0
 21 22  2  0
 21 23  1  0
M  END
$$$$
