MCM.pdb
     RDKit          3D

 23 22  0  0  1  0  0  0  0  0999 V2000
    7.7852  -20.6304   27.2031 C   0  0  0  0  0  0  0  0  0  0  0  0
    6.4261  -21.3652   26.2962 S   0  0  0  0  0  0  0  0  0  0  0  0
    5.9616  -20.4232   24.8356 C   0  0  0  0  0  0  0  0  0  0  0  0
    6.8501  -19.2070   24.6351 C   0  0  0  0  0  0  0  0  0  0  0  0
    6.2585  -18.4234   23.4825 C   0  0  2  0  0  0  0  0  0  0  0  0
    6.3996  -19.1965   22.2657 N   0  0  0  0  0  0  0  0  0  0  0  0
    6.9339  -17.1233   23.2872 C   0  0  0  0  0  0  0  0  0  0  0  0
    7.7760  -16.9795   22.3677 O   0  0  0  0  0  0  0  0  0  0  0  0
    6.6634  -16.0212   24.1082 N   0  0  0  0  0  0  0  0  0  0  0  0
    7.2669  -14.7002   23.9303 C   0  0  1  0  0  0  0  0  0  0  0  0
    6.3882  -13.6580   24.6287 C   0  0  0  0  0  0  0  0  0  0  0  0
    6.0767  -14.1508   26.3247 S   0  0  0  0  0  0  0  0  0  0  0  0
    8.5553  -14.7538   24.6710 C   0  0  0  0  0  0  0  0  0  0  0  0
    9.1770  -13.6762   24.9647 O   0  0  0  0  0  0  0  0  0  0  0  0
   10.4336  -12.7151   29.3259 C   0  0  0  0  0  0  0  0  0  0  0  0
   11.2644  -14.2912   29.5104 S   0  0  0  0  0  0  0  0  0  0  0  0
   11.4237  -15.2062   27.9778 C   0  0  0  0  0  0  0  0  0  0  0  0
   10.2008  -15.0825   27.0975 C   0  0  0  0  0  0  0  0  0  0  0  0
   10.4538  -15.9017   25.8273 C   0  0  2  0  0  0  0  0  0  0  0  0
    9.1868  -15.9400   25.1040 N   0  0  0  0  0  0  0  0  0  0  0  0
   10.8613  -17.2681   26.2067 C   0  0  0  0  0  0  0  0  0  0  0  0
   12.0144  -17.4861   26.6293 O   0  0  0  0  0  0  0  0  0  0  0  0
    9.9621  -18.3012   26.0920 O   0  0  0  0  0  0  0  0  0  0  0  0
  2  1  1  0
  3  2  1  0
  4  3  1  0
  5  6  1  6
  5  4  1  0
  7  5  1  0
  8  7  2  0
  9  7  1  0
 10  9  1  0
 10 13  1  0
 10 11  1  1
 12 11  1  0
 13 20  1  0
 14 13  2  0
 16 15  1  0
 17 16  1  0
 18 17  1  0
 19 18  1  1
 19 21  1  0
 20 19  1  0
 21 22  2  0
 21 23  1  0
M  END
$$$$
