MCM.pdb
     RDKit          3D

 23 22  0  0  1  0  0  0  0  0999 V2000
    2.5081  -19.6518   19.8647 C   0  0  0  0  0  0  0  0  0  0  0  0
    2.3445  -18.9334   21.4976 S   0  0  0  0  0  0  0  0  0  0  0  0
    3.4115  -17.5072   21.7510 C   0  0  0  0  0  0  0  0  0  0  0  0
    4.6024  -17.5113   20.8073 C   0  0  0  0  0  0  0  0  0  0  0  0
    5.8365  -17.6818   21.6677 C   0  0  2  0  0  0  0  0  0  0  0  0
    5.4414  -18.2030   22.9601 N   0  0  0  0  0  0  0  0  0  0  0  0
    6.5487  -16.4043   21.8805 C   0  0  0  0  0  0  0  0  0  0  0  0
    6.8610  -15.6832   20.9018 O   0  0  0  0  0  0  0  0  0  0  0  0
    6.8959  -15.9583   23.1621 N   0  0  0  0  0  0  0  0  0  0  0  0
    7.9492  -14.9787   23.4305 C   0  0  1  0  0  0  0  0  0  0  0  0
    7.3500  -13.8151   24.2261 C   0  0  0  0  0  0  0  0  0  0  0  0
    6.4143  -14.4400   25.6227 S   0  0  0  0  0  0  0  0  0  0  0  0
    8.9117  -15.6724   24.3271 C   0  0  0  0  0  0  0  0  0  0  0  0
    8.5286  -16.6544   25.0502 O   0  0  0  0  0  0  0  0  0  0  0  0
   10.6265  -13.1438   29.0633 C   0  0  0  0  0  0  0  0  0  0  0  0
   10.5799  -14.8861   29.4756 S   0  0  0  0  0  0  0  0  0  0  0  0
   10.8803  -15.9663   28.0775 C   0  0  0  0  0  0  0  0  0  0  0  0
   10.1203  -15.5417   26.8415 C   0  0  0  0  0  0  0  0  0  0  0  0
   11.0439  -15.7369   25.6342 C   0  0  2  0  0  0  0  0  0  0  0  0
   10.2760  -15.3343   24.4603 N   0  0  0  0  0  0  0  0  0  0  0  0
   11.4127  -17.1619   25.5333 C   0  0  0  0  0  0  0  0  0  0  0  0
   10.5349  -18.0453   25.6030 O   0  0  0  0  0  0  0  0  0  0  0  0
   12.7308  -17.5116   25.3617 O   0  0  0  0  0  0  0  0  0  0  0  0
  2  1  1  0
  3  2  1  0
  4  3  1  0
  5  6  1  1
  5  4  1  0
  7  5  1  0
  8  7  2  0
  9  7  1  0
 10  9  1  0
 10 13  1  0
 10 11  1  1
 12 11  1  0
 13 20  1  0
 14 13  2  0
 16 15  1  0
 17 16  1  0
 18 17  1  0
 19 18  1  1
 19 21  1  0
 20 19  1  0
 21 22  2  0
 21 23  1  0
M  END
$$$$
