MCM.pdb
     RDKit          3D

 23 22  0  0  1  0  0  0  0  0999 V2000
    7.8781  -19.3054   28.0841 C   0  0  0  0  0  0  0  0  0  0  0  0
    6.3200  -20.1060   27.7090 S   0  0  0  0  0  0  0  0  0  0  0  0
    5.8972  -20.0429   25.9614 C   0  0  0  0  0  0  0  0  0  0  0  0
    6.8556  -19.1650   25.1743 C   0  0  0  0  0  0  0  0  0  0  0  0
    6.3866  -19.1934   23.7350 C   0  0  2  0  0  0  0  0  0  0  0  0
    6.5830  -20.5258   23.2018 N   0  0  0  0  0  0  0  0  0  0  0  0
    7.1319  -18.2397   22.8867 C   0  0  0  0  0  0  0  0  0  0  0  0
    8.1613  -18.6105   22.2718 O   0  0  0  0  0  0  0  0  0  0  0  0
    6.7234  -16.9080   22.7402 N   0  0  0  0  0  0  0  0  0  0  0  0
    7.5331  -15.8686   22.1038 C   0  0  1  0  0  0  0  0  0  0  0  0
    6.6209  -14.7012   21.7150 C   0  0  0  0  0  0  0  0  0  0  0  0
    7.5913  -13.3696   21.0068 S   0  0  0  0  0  0  0  0  0  0  0  0
    8.4463  -15.3749   23.1687 C   0  0  0  0  0  0  0  0  0  0  0  0
    8.2380  -14.2429   23.7248 O   0  0  0  0  0  0  0  0  0  0  0  0
    9.9872  -12.0095   27.0903 C   0  0  0  0  0  0  0  0  0  0  0  0
   10.0488  -13.5888   27.9329 S   0  0  0  0  0  0  0  0  0  0  0  0
   10.7963  -14.8960   26.9613 C   0  0  0  0  0  0  0  0  0  0  0  0
    9.8368  -15.4962   25.9590 C   0  0  0  0  0  0  0  0  0  0  0  0
   10.5089  -15.4507   24.5825 C   0  0  2  0  0  0  0  0  0  0  0  0
    9.5756  -16.0731   23.6489 N   0  0  0  0  0  0  0  0  0  0  0  0
   11.7651  -16.2230   24.6324 C   0  0  0  0  0  0  0  0  0  0  0  0
   12.8573  -15.6387   24.7784 O   0  0  0  0  0  0  0  0  0  0  0  0
   11.7254  -17.5920   24.5171 O   0  0  0  0  0  0  0  0  0  0  0  0
  2  1  1  0
  3  2  1  0
  4  3  1  0
  5  6  1  6
  5  4  1  0
  7  5  1  0
  8  7  2  0
  9  7  1  0
 10  9  1  0
 10 13  1  0
 10 11  1  1
 12 11  1  0
 13 20  1  0
 14 13  2  0
 16 15  1  0
 17 16  1  0
 18 17  1  0
 19 18  1  1
 19 21  1  0
 20 19  1  0
 21 22  2  0
 21 23  1  0
M  END
$$$$
