MCM.pdb
     RDKit          3D

 23 22  0  0  1  0  0  0  0  0999 V2000
    7.0981  -12.1047   19.5278 C   0  0  0  0  0  0  0  0  0  0  0  0
    8.4700  -12.3516   18.4026 S   0  0  0  0  0  0  0  0  0  0  0  0
    9.0166  -14.0637   18.3216 C   0  0  0  0  0  0  0  0  0  0  0  0
    7.9720  -15.0222   18.8682 C   0  0  0  0  0  0  0  0  0  0  0  0
    8.5618  -16.4126   18.7620 C   0  0  2  0  0  0  0  0  0  0  0  0
    7.9775  -17.0862   17.6206 N   0  0  0  0  0  0  0  0  0  0  0  0
    8.2946  -17.2252   19.9673 C   0  0  0  0  0  0  0  0  0  0  0  0
    7.3144  -18.0084   19.9978 O   0  0  0  0  0  0  0  0  0  0  0  0
    9.1125  -17.1523   21.1021 N   0  0  0  0  0  0  0  0  0  0  0  0
    8.7228  -17.6416   22.4248 C   0  0  1  0  0  0  0  0  0  0  0  0
    9.4902  -18.9342   22.7187 C   0  0  0  0  0  0  0  0  0  0  0  0
   11.2351  -18.7080   22.3716 S   0  0  0  0  0  0  0  0  0  0  0  0
    9.2114  -16.6148   23.3832 C   0  0  0  0  0  0  0  0  0  0  0  0
   10.3374  -16.0396   23.1954 O   0  0  0  0  0  0  0  0  0  0  0  0
    5.8476  -11.8878   25.9452 C   0  0  0  0  0  0  0  0  0  0  0  0
    7.2519  -11.8853   27.0569 S   0  0  0  0  0  0  0  0  0  0  0  0
    8.4393  -13.1851   26.7217 C   0  0  0  0  0  0  0  0  0  0  0  0
    7.9467  -14.1687   25.6846 C   0  0  0  0  0  0  0  0  0  0  0  0
    9.0700  -15.1788   25.4270 C   0  0  2  0  0  0  0  0  0  0  0  0
    8.5144  -16.1927   24.5362 N   0  0  0  0  0  0  0  0  0  0  0  0
    9.4694  -15.7942   26.7071 C   0  0  0  0  0  0  0  0  0  0  0  0
    8.9474  -16.8635   27.0810 O   0  0  0  0  0  0  0  0  0  0  0  0
   10.4215  -15.1820   27.4868 O   0  0  0  0  0  0  0  0  0  0  0  0
  2  1  1  0
  3  2  1  0
  4  3  1  0
  5  6  1  6
  5  4  1  0
  7  5  1  0
  8  7  2  0
  9  7  1  0
 10  9  1  0
 10 13  1  0
 10 11  1  1
 12 11  1  0
 13 20  1  0
 14 13  2  0
 16 15  1  0
 17 16  1  0
 18 17  1  0
 19 18  1  1
 19 21  1  0
 20 19  1  0
 21 22  2  0
 21 23  1  0
M  END
$$$$
