MCM.pdb
     RDKit          3D

 23 22  0  0  1  0  0  0  0  0999 V2000
    7.8500  -11.3967   26.9500 C   0  0  0  0  0  0  0  0  0  0  0  0
    6.1467  -11.6766   26.4709 S   0  0  0  0  0  0  0  0  0  0  0  0
    5.8594  -13.3289   25.8197 C   0  0  0  0  0  0  0  0  0  0  0  0
    7.1568  -14.0346   25.4627 C   0  0  0  0  0  0  0  0  0  0  0  0
    6.7721  -15.3237   24.7680 C   0  0  2  0  0  0  0  0  0  0  0  0
    6.0716  -16.1744   25.7080 N   0  0  0  0  0  0  0  0  0  0  0  0
    7.9511  -16.0597   24.2655 C   0  0  0  0  0  0  0  0  0  0  0  0
    8.5486  -16.8786   25.0056 O   0  0  0  0  0  0  0  0  0  0  0  0
    8.4375  -15.8735   22.9652 N   0  0  0  0  0  0  0  0  0  0  0  0
    9.6303  -16.5346   22.4349 C   0  0  1  0  0  0  0  0  0  0  0  0
    9.8388  -16.0876   20.9848 C   0  0  0  0  0  0  0  0  0  0  0  0
    8.4964  -16.6846   19.9563 S   0  0  0  0  0  0  0  0  0  0  0  0
   10.7655  -15.9921   23.2278 C   0  0  0  0  0  0  0  0  0  0  0  0
   11.1680  -14.7930   23.0429 O   0  0  0  0  0  0  0  0  0  0  0  0
    9.1967  -15.2523   28.4307 C   0  0  0  0  0  0  0  0  0  0  0  0
   10.6871  -14.3218   28.0827 S   0  0  0  0  0  0  0  0  0  0  0  0
   11.3632  -14.6267   26.4513 C   0  0  0  0  0  0  0  0  0  0  0  0
   12.1399  -15.9216   26.3770 C   0  0  0  0  0  0  0  0  0  0  0  0
   12.5982  -16.1098   24.9268 C   0  0  2  0  0  0  0  0  0  0  0  0
   11.4741  -16.7103   24.2155 N   0  0  0  0  0  0  0  0  0  0  0  0
   13.7582  -17.0211   24.9010 C   0  0  0  0  0  0  0  0  0  0  0  0
   13.6102  -18.2191   24.5867 O   0  0  0  0  0  0  0  0  0  0  0  0
   15.0051  -16.5424   25.2255 O   0  0  0  0  0  0  0  0  0  0  0  0
  2  1  1  0
  3  2  1  0
  4  3  1  0
  5  6  1  1
  5  4  1  0
  7  5  1  0
  8  7  2  0
  9  7  1  0
 10  9  1  0
 10 13  1  0
 10 11  1  6
 12 11  1  0
 13 20  1  0
 14 13  2  0
 16 15  1  0
 17 16  1  0
 18 17  1  0
 19 18  1  1
 19 21  1  0
 20 19  1  0
 21 22  2  0
 21 23  1  0
M  END
$$$$
