MCM.pdb
     RDKit          3D

 23 22  0  0  1  0  0  0  0  0999 V2000
    8.0423  -11.5555   19.8696 C   0  0  0  0  0  0  0  0  0  0  0  0
    8.2873  -12.2016   18.2168 S   0  0  0  0  0  0  0  0  0  0  0  0
    8.7628  -13.9367   18.2010 C   0  0  0  0  0  0  0  0  0  0  0  0
    8.1152  -14.7157   19.3335 C   0  0  0  0  0  0  0  0  0  0  0  0
    8.6517  -16.1290   19.2495 C   0  0  2  0  0  0  0  0  0  0  0  0
    7.9669  -16.8303   18.1831 N   0  0  0  0  0  0  0  0  0  0  0  0
    8.4450  -16.8795   20.5059 C   0  0  0  0  0  0  0  0  0  0  0  0
    7.3357  -17.4142   20.7484 O   0  0  0  0  0  0  0  0  0  0  0  0
    9.4635  -17.0194   21.4573 N   0  0  0  0  0  0  0  0  0  0  0  0
    9.2719  -17.6151   22.7800 C   0  0  1  0  0  0  0  0  0  0  0  0
   10.4304  -18.5770   23.0606 C   0  0  0  0  0  0  0  0  0  0  0  0
   11.9877  -17.8194   22.5947 S   0  0  0  0  0  0  0  0  0  0  0  0
    9.3970  -16.4870   23.7408 C   0  0  0  0  0  0  0  0  0  0  0  0
   10.2921  -15.5902   23.5714 O   0  0  0  0  0  0  0  0  0  0  0  0
    5.6575  -11.8011   26.0364 C   0  0  0  0  0  0  0  0  0  0  0  0
    7.2836  -11.9400   26.7743 S   0  0  0  0  0  0  0  0  0  0  0  0
    7.7044  -13.6058   27.2839 C   0  0  0  0  0  0  0  0  0  0  0  0
    7.4839  -14.6222   26.1867 C   0  0  0  0  0  0  0  0  0  0  0  0
    8.8447  -15.2323   25.8336 C   0  0  2  0  0  0  0  0  0  0  0  0
    8.5794  -16.3020   24.8769 N   0  0  0  0  0  0  0  0  0  0  0  0
    9.4573  -15.7869   27.0558 C   0  0  0  0  0  0  0  0  0  0  0  0
    9.3705  -17.0059   27.3055 O   0  0  0  0  0  0  0  0  0  0  0  0
   10.1256  -14.9520   27.9193 O   0  0  0  0  0  0  0  0  0  0  0  0
  2  1  1  0
  3  2  1  0
  4  3  1  0
  5  6  1  6
  5  4  1  0
  7  5  1  0
  8  7  2  0
  9  7  1  0
 10  9  1  0
 10 13  1  0
 10 11  1  1
 12 11  1  0
 13 20  1  0
 14 13  2  0
 16 15  1  0
 17 16  1  0
 18 17  1  0
 19 18  1  1
 19 21  1  0
 20 19  1  0
 21 22  2  0
 21 23  1  0
M  END
$$$$
