MCM.pdb
     RDKit          3D

 23 22  0  0  1  0  0  0  0  0999 V2000
    8.2573  -11.9719   20.8094 C   0  0  0  0  0  0  0  0  0  0  0  0
    7.2203  -12.9541   19.7281 S   0  0  0  0  0  0  0  0  0  0  0  0
    7.5043  -14.7229   19.8935 C   0  0  0  0  0  0  0  0  0  0  0  0
    8.9514  -15.0961   19.6190 C   0  0  0  0  0  0  0  0  0  0  0  0
    9.0619  -16.5906   19.8347 C   0  0  2  0  0  0  0  0  0  0  0  0
    8.1793  -17.2670   18.9065 N   0  0  0  0  0  0  0  0  0  0  0  0
    8.6824  -16.9855   21.2074 C   0  0  0  0  0  0  0  0  0  0  0  0
    7.5224  -17.3994   21.4490 O   0  0  0  0  0  0  0  0  0  0  0  0
    9.5890  -16.9134   22.2727 N   0  0  0  0  0  0  0  0  0  0  0  0
    9.2933  -17.3686   23.6315 C   0  0  1  0  0  0  0  0  0  0  0  0
   10.3466  -18.4002   24.0467 C   0  0  0  0  0  0  0  0  0  0  0  0
   11.9891  -17.7971   23.6535 S   0  0  0  0  0  0  0  0  0  0  0  0
    9.4854  -16.1743   24.4965 C   0  0  0  0  0  0  0  0  0  0  0  0
   10.0698  -15.1332   24.0400 O   0  0  0  0  0  0  0  0  0  0  0  0
    6.1589  -11.4212   27.7055 C   0  0  0  0  0  0  0  0  0  0  0  0
    6.6597  -11.7935   26.0266 S   0  0  0  0  0  0  0  0  0  0  0  0
    8.1168  -12.8314   25.9220 C   0  0  0  0  0  0  0  0  0  0  0  0
    7.9666  -14.1232   26.6930 C   0  0  0  0  0  0  0  0  0  0  0  0
    9.3039  -14.8683   26.6227 C   0  0  2  0  0  0  0  0  0  0  0  0
    9.0608  -16.0755   25.8394 N   0  0  0  0  0  0  0  0  0  0  0  0
    9.7286  -15.2287   27.9889 C   0  0  0  0  0  0  0  0  0  0  0  0
    9.5532  -16.3870   28.4172 O   0  0  0  0  0  0  0  0  0  0  0  0
   10.3197  -14.2799   28.7887 O   0  0  0  0  0  0  0  0  0  0  0  0
  2  1  1  0
  3  2  1  0
  4  3  1  0
  5  6  1  6
  5  4  1  0
  7  5  1  0
  8  7  2  0
  9  7  1  0
 10  9  1  0
 10 13  1  0
 10 11  1  1
 12 11  1  0
 13 20  1  0
 14 13  2  0
 16 15  1  0
 17 16  1  0
 18 17  1  0
 19 18  1  1
 19 21  1  0
 20 19  1  0
 21 22  2  0
 21 23  1  0
M  END
$$$$
