MCM.pdb
     RDKit          3D

 23 22  0  0  1  0  0  0  0  0999 V2000
    8.3375  -18.4362   28.1832 C   0  0  0  0  0  0  0  0  0  0  0  0
    6.8553  -18.4265   27.1771 S   0  0  0  0  0  0  0  0  0  0  0  0
    7.1687  -18.8440   25.4554 C   0  0  0  0  0  0  0  0  0  0  0  0
    5.9072  -18.7686   24.6117 C   0  0  0  0  0  0  0  0  0  0  0  0
    6.3040  -19.1573   23.2033 C   0  0  2  0  0  0  0  0  0  0  0  0
    7.0650  -20.3888   23.2511 N   0  0  0  0  0  0  0  0  0  0  0  0
    7.1355  -18.1230   22.5527 C   0  0  0  0  0  0  0  0  0  0  0  0
    8.3615  -18.3196   22.3695 O   0  0  0  0  0  0  0  0  0  0  0  0
    6.5946  -16.9044   22.1233 N   0  0  0  0  0  0  0  0  0  0  0  0
    7.3646  -15.8598   21.4473 C   0  0  1  0  0  0  0  0  0  0  0  0
    6.3978  -14.7900   20.9308 C   0  0  0  0  0  0  0  0  0  0  0  0
    7.3102  -13.4649   20.1385 S   0  0  0  0  0  0  0  0  0  0  0  0
    8.1886  -15.2279   22.5119 C   0  0  0  0  0  0  0  0  0  0  0  0
    9.0577  -14.3391   22.2142 O   0  0  0  0  0  0  0  0  0  0  0  0
    5.6518  -11.7995   27.2935 C   0  0  0  0  0  0  0  0  0  0  0  0
    7.4309  -11.7662   27.0896 S   0  0  0  0  0  0  0  0  0  0  0  0
    8.1691  -13.3914   26.9308 C   0  0  0  0  0  0  0  0  0  0  0  0
    7.5612  -14.1983   25.8061 C   0  0  0  0  0  0  0  0  0  0  0  0
    8.7018  -14.6640   24.8947 C   0  0  2  0  0  0  0  0  0  0  0  0
    8.0959  -15.5297   23.8880 N   0  0  0  0  0  0  0  0  0  0  0  0
    9.6795  -15.4259   25.6950 C   0  0  0  0  0  0  0  0  0  0  0  0
    9.7297  -16.6693   25.6096 O   0  0  0  0  0  0  0  0  0  0  0  0
   10.5362  -14.7574   26.5366 O   0  0  0  0  0  0  0  0  0  0  0  0
  2  1  1  0
  3  2  1  0
  4  3  1  0
  5  6  1  1
  5  4  1  0
  7  5  1  0
  8  7  2  0
  9  7  1  0
 10  9  1  0
 10 13  1  0
 10 11  1  1
 12 11  1  0
 13 20  1  0
 14 13  2  0
 16 15  1  0
 17 16  1  0
 18 17  1  0
 19 18  1  1
 19 21  1  0
 20 19  1  0
 21 22  2  0
 21 23  1  0
M  END
$$$$
