MCM.pdb
     RDKit          3D

 23 22  0  0  1  0  0  0  0  0999 V2000
    5.0649  -19.7747   22.5201 C   0  0  0  0  0  0  0  0  0  0  0  0
    6.8372  -19.8444   22.2686 S   0  0  0  0  0  0  0  0  0  0  0  0
    7.5394  -18.2692   21.7561 C   0  0  0  0  0  0  0  0  0  0  0  0
    6.4802  -17.3192   21.2230 C   0  0  0  0  0  0  0  0  0  0  0  0
    7.1933  -16.0332   20.8627 C   0  0  2  0  0  0  0  0  0  0  0  0
    8.2161  -16.3216   19.8785 N   0  0  0  0  0  0  0  0  0  0  0  0
    7.8405  -15.4073   22.0348 C   0  0  0  0  0  0  0  0  0  0  0  0
    9.0915  -15.3325   22.1020 O   0  0  0  0  0  0  0  0  0  0  0  0
    7.0932  -14.8826   23.0970 N   0  0  0  0  0  0  0  0  0  0  0  0
    7.6698  -14.1233   24.2070 C   0  0  1  0  0  0  0  0  0  0  0  0
    6.5318  -13.5239   25.0387 C   0  0  0  0  0  0  0  0  0  0  0  0
    7.1073  -13.1564   26.6971 S   0  0  0  0  0  0  0  0  0  0  0  0
    8.3518  -15.1319   25.0608 C   0  0  0  0  0  0  0  0  0  0  0  0
    7.8412  -16.2925   25.2229 O   0  0  0  0  0  0  0  0  0  0  0  0
   10.7117  -12.9575   29.2472 C   0  0  0  0  0  0  0  0  0  0  0  0
   10.7311  -14.5650   30.0370 S   0  0  0  0  0  0  0  0  0  0  0  0
   10.7939  -15.9347   28.8832 C   0  0  0  0  0  0  0  0  0  0  0  0
    9.6354  -15.9297   27.9118 C   0  0  0  0  0  0  0  0  0  0  0  0
   10.2134  -15.9921   26.4939 C   0  0  2  0  0  0  0  0  0  0  0  0
    9.5708  -14.9197   25.7408 N   0  0  0  0  0  0  0  0  0  0  0  0
    9.8833  -17.2993   25.8946 C   0  0  0  0  0  0  0  0  0  0  0  0
    8.6938  -17.6177   25.6956 O   0  0  0  0  0  0  0  0  0  0  0  0
   10.8950  -18.1659   25.5560 O   0  0  0  0  0  0  0  0  0  0  0  0
  2  1  1  0
  3  2  1  0
  4  3  1  0
  5  6  1  6
  5  4  1  0
  7  5  1  0
  8  7  2  0
  9  7  1  0
 10  9  1  0
 10 13  1  0
 10 11  1  1
 12 11  1  0
 13 20  1  0
 14 13  2  0
 16 15  1  0
 17 16  1  0
 18 17  1  0
 19 18  1  1
 19 21  1  0
 20 19  1  0
 21 22  2  0
 21 23  1  0
M  END
$$$$
