MCM.pdb
     RDKit          3D

 23 22  0  0  1  0  0  0  0  0999 V2000
    8.0822  -11.9614   19.3913 C   0  0  0  0  0  0  0  0  0  0  0  0
    8.0307  -13.1354   18.0392 S   0  0  0  0  0  0  0  0  0  0  0  0
    8.0114  -14.8474   18.5917 C   0  0  0  0  0  0  0  0  0  0  0  0
    7.1000  -15.0494   19.7906 C   0  0  0  0  0  0  0  0  0  0  0  0
    7.1757  -16.5183   20.1499 C   0  0  2  0  0  0  0  0  0  0  0  0
    6.3078  -17.2654   19.2630 N   0  0  0  0  0  0  0  0  0  0  0  0
    6.7488  -16.7746   21.5415 C   0  0  0  0  0  0  0  0  0  0  0  0
    5.5303  -16.7626   21.8420 O   0  0  0  0  0  0  0  0  0  0  0  0
    7.6739  -17.0363   22.5602 N   0  0  0  0  0  0  0  0  0  0  0  0
    7.3180  -17.1784   23.9724 C   0  0  1  0  0  0  0  0  0  0  0  0
    7.4599  -18.6504   24.3714 C   0  0  0  0  0  0  0  0  0  0  0  0
    7.3886  -18.8153   26.1557 S   0  0  0  0  0  0  0  0  0  0  0  0
    8.3580  -16.4206   24.7178 C   0  0  0  0  0  0  0  0  0  0  0  0
    9.5954  -16.5744   24.4368 O   0  0  0  0  0  0  0  0  0  0  0  0
    6.6390  -10.7489   27.1216 C   0  0  0  0  0  0  0  0  0  0  0  0
    6.2569  -12.3323   27.8665 S   0  0  0  0  0  0  0  0  0  0  0  0
    7.0829  -13.7161   27.0828 C   0  0  0  0  0  0  0  0  0  0  0  0
    8.5884  -13.5783   27.0975 C   0  0  0  0  0  0  0  0  0  0  0  0
    9.1808  -14.8517   26.4843 C   0  0  2  0  0  0  0  0  0  0  0  0
    8.0952  -15.5004   25.7559 N   0  0  0  0  0  0  0  0  0  0  0  0
    9.6602  -15.7316   27.5673 C   0  0  0  0  0  0  0  0  0  0  0  0
    9.0410  -16.7771   27.8488 O   0  0  0  0  0  0  0  0  0  0  0  0
   10.7946  -15.3929   28.2654 O   0  0  0  0  0  0  0  0  0  0  0  0
  2  1  1  0
  3  2  1  0
  4  3  1  0
  5  6  1  6
  5  4  1  0
  7  5  1  0
  8  7  2  0
  9  7  1  0
 10  9  1  0
 10 13  1  0
 10 11  1  1
 12 11  1  0
 13 20  1  0
 14 13  2  0
 16 15  1  0
 17 16  1  0
 18 17  1  0
 19 18  1  1
 19 21  1  0
 20 19  1  0
 21 22  2  0
 21 23  1  0
M  END
$$$$
