MCM.pdb
     RDKit          3D

 23 22  0  0  1  0  0  0  0  0999 V2000
    7.8083  -11.9579   19.4559 C   0  0  0  0  0  0  0  0  0  0  0  0
    8.2531  -12.9197   18.0115 S   0  0  0  0  0  0  0  0  0  0  0  0
    8.3499  -14.6855   18.3421 C   0  0  0  0  0  0  0  0  0  0  0  0
    7.6709  -15.0589   19.6492 C   0  0  0  0  0  0  0  0  0  0  0  0
    7.8597  -16.5508   19.8248 C   0  0  2  0  0  0  0  0  0  0  0  0
    7.0892  -17.2453   18.8138 N   0  0  0  0  0  0  0  0  0  0  0  0
    7.4097  -17.0173   21.1531 C   0  0  0  0  0  0  0  0  0  0  0  0
    6.2386  -17.4398   21.3120 O   0  0  0  0  0  0  0  0  0  0  0  0
    8.2602  -17.0052   22.2659 N   0  0  0  0  0  0  0  0  0  0  0  0
    7.8277  -17.3101   23.6301 C   0  0  1  0  0  0  0  0  0  0  0  0
    8.2658  -18.7355   23.9798 C   0  0  0  0  0  0  0  0  0  0  0  0
   10.0258  -18.9275   23.6938 S   0  0  0  0  0  0  0  0  0  0  0  0
    8.6014  -16.3877   24.5030 C   0  0  0  0  0  0  0  0  0  0  0  0
    9.7740  -16.0085   24.1636 O   0  0  0  0  0  0  0  0  0  0  0  0
    6.4108  -11.0677   27.6232 C   0  0  0  0  0  0  0  0  0  0  0  0
    5.9575  -12.1649   26.2821 S   0  0  0  0  0  0  0  0  0  0  0  0
    7.2545  -13.3113   25.8185 C   0  0  0  0  0  0  0  0  0  0  0  0
    8.0129  -13.8444   27.0127 C   0  0  0  0  0  0  0  0  0  0  0  0
    8.9577  -14.9434   26.5145 C   0  0  2  0  0  0  0  0  0  0  0  0
    8.1403  -15.8634   25.7302 N   0  0  0  0  0  0  0  0  0  0  0  0
    9.5371  -15.6454   27.6757 C   0  0  0  0  0  0  0  0  0  0  0  0
    9.1234  -16.7774   27.9970 O   0  0  0  0  0  0  0  0  0  0  0  0
   10.5370  -15.0447   28.4026 O   0  0  0  0  0  0  0  0  0  0  0  0
  2  1  1  0
  3  2  1  0
  4  3  1  0
  5  6  1  6
  5  4  1  0
  7  5  1  0
  8  7  2  0
  9  7  1  0
 10  9  1  0
 10 13  1  0
 10 11  1  1
 12 11  1  0
 13 20  1  0
 14 13  2  0
 16 15  1  0
 17 16  1  0
 18 17  1  0
 19 18  1  1
 19 21  1  0
 20 19  1  0
 21 22  2  0
 21 23  1  0
M  END
$$$$
