MCM.pdb
     RDKit          3D

 23 22  0  0  1  0  0  0  0  0999 V2000
    7.4336  -11.3455   20.4993 C   0  0  0  0  0  0  0  0  0  0  0  0
    7.6035  -12.2847   18.9832 S   0  0  0  0  0  0  0  0  0  0  0  0
    8.2036  -13.9590   19.2541 C   0  0  0  0  0  0  0  0  0  0  0  0
    7.8598  -14.4702   20.6430 C   0  0  0  0  0  0  0  0  0  0  0  0
    8.2566  -15.9309   20.6776 C   0  0  2  0  0  0  0  0  0  0  0  0
    7.4573  -16.6591   19.7139 N   0  0  0  0  0  0  0  0  0  0  0  0
    8.0426  -16.5354   22.0093 C   0  0  0  0  0  0  0  0  0  0  0  0
    6.9492  -17.0861   22.2859 O   0  0  0  0  0  0  0  0  0  0  0  0
    9.0365  -16.5164   22.9961 N   0  0  0  0  0  0  0  0  0  0  0  0
    8.8529  -17.0323   24.3529 C   0  0  1  0  0  0  0  0  0  0  0  0
    9.5260  -18.4044   24.4546 C   0  0  0  0  0  0  0  0  0  0  0  0
   10.6747  -18.4274   25.8317 S   0  0  0  0  0  0  0  0  0  0  0  0
    9.6137  -16.1052   25.2322 C   0  0  0  0  0  0  0  0  0  0  0  0
   10.8090  -15.7656   24.9324 O   0  0  0  0  0  0  0  0  0  0  0  0
    7.4137  -11.4423   24.8385 C   0  0  0  0  0  0  0  0  0  0  0  0
    7.7404  -12.8813   25.8537 S   0  0  0  0  0  0  0  0  0  0  0  0
    8.9616  -12.5982   27.1344 C   0  0  0  0  0  0  0  0  0  0  0  0
    9.1197  -13.7841   28.0587 C   0  0  0  0  0  0  0  0  0  0  0  0
    9.9943  -14.8204   27.3449 C   0  0  2  0  0  0  0  0  0  0  0  0
    9.1160  -15.5347   26.4238 N   0  0  0  0  0  0  0  0  0  0  0  0
   10.5482  -15.7551   28.3432 C   0  0  0  0  0  0  0  0  0  0  0  0
   11.4249  -15.3732   29.1440 O   0  0  0  0  0  0  0  0  0  0  0  0
   10.0922  -17.0510   28.3863 O   0  0  0  0  0  0  0  0  0  0  0  0
  2  1  1  0
  3  2  1  0
  4  3  1  0
  5  6  1  6
  5  4  1  0
  7  5  1  0
  8  7  2  0
  9  7  1  0
 10  9  1  0
 10 13  1  0
 10 11  1  6
 12 11  1  0
 13 20  1  0
 14 13  2  0
 16 15  1  0
 17 16  1  0
 18 17  1  0
 19 18  1  1
 19 21  1  0
 20 19  1  0
 21 22  2  0
 21 23  1  0
M  END
$$$$
