MCM.pdb
     RDKit          3D

 23 22  0  0  1  0  0  0  0  0999 V2000
    4.9264  -11.5574   26.2540 C   0  0  0  0  0  0  0  0  0  0  0  0
    6.4179  -12.5475   26.3191 S   0  0  0  0  0  0  0  0  0  0  0  0
    6.4673  -13.8323   25.0607 C   0  0  0  0  0  0  0  0  0  0  0  0
    5.7721  -15.1041   25.5167 C   0  0  0  0  0  0  0  0  0  0  0  0
    6.7986  -16.2137   25.4310 C   0  0  2  0  0  0  0  0  0  0  0  0
    7.9926  -15.8068   26.1429 N   0  0  0  0  0  0  0  0  0  0  0  0
    7.1730  -16.5204   24.0345 C   0  0  0  0  0  0  0  0  0  0  0  0
    6.7918  -17.5888   23.4972 O   0  0  0  0  0  0  0  0  0  0  0  0
    7.9546  -15.6439   23.2710 N   0  0  0  0  0  0  0  0  0  0  0  0
    8.9423  -16.0775   22.2824 C   0  0  1  0  0  0  0  0  0  0  0  0
    9.0855  -14.9868   21.2166 C   0  0  0  0  0  0  0  0  0  0  0  0
    7.7555  -13.7939   21.3723 S   0  0  0  0  0  0  0  0  0  0  0  0
   10.2327  -16.1424   23.0186 C   0  0  0  0  0  0  0  0  0  0  0  0
   11.1038  -15.2175   22.8785 O   0  0  0  0  0  0  0  0  0  0  0  0
    9.4837  -14.9520   28.8794 C   0  0  0  0  0  0  0  0  0  0  0  0
   11.1110  -14.5110   28.2746 S   0  0  0  0  0  0  0  0  0  0  0  0
   11.7851  -15.6830   27.0983 C   0  0  0  0  0  0  0  0  0  0  0  0
   10.8847  -15.8879   25.9013 C   0  0  0  0  0  0  0  0  0  0  0  0
   11.5388  -16.9391   24.9982 C   0  0  2  0  0  0  0  0  0  0  0  0
   10.6044  -17.1784   23.9029 N   0  0  0  0  0  0  0  0  0  0  0  0
   11.7422  -18.1800   25.7700 C   0  0  0  0  0  0  0  0  0  0  0  0
   10.8102  -18.9981   25.9028 O   0  0  0  0  0  0  0  0  0  0  0  0
   12.9663  -18.4303   26.3428 O   0  0  0  0  0  0  0  0  0  0  0  0
  2  1  1  0
  3  2  1  0
  4  3  1  0
  5  6  1  1
  5  4  1  0
  7  5  1  0
  8  7  2  0
  9  7  1  0
 10  9  1  0
 10 13  1  0
 10 11  1  6
 12 11  1  0
 13 20  1  0
 14 13  2  0
 16 15  1  0
 17 16  1  0
 18 17  1  0
 19 18  1  1
 19 21  1  0
 20 19  1  0
 21 22  2  0
 21 23  1  0
M  END
$$$$
