LDL.pdb
     RDKit          3D

 25 24  0  0  1  0  0  0  0  0999 V2000
    9.3945  -12.9830   18.9641 C   0  0  0  0  0  0  0  0  0  0  0  0
    7.9347  -13.2394   19.1389 C   0  0  2  0  0  0  0  0  0  0  0  0
    7.2572  -11.9153   19.4501 C   0  0  0  0  0  0  0  0  0  0  0  0
    7.6654  -14.1590   20.3064 C   0  0  0  0  0  0  0  0  0  0  0  0
    8.3200  -15.5098   20.1606 C   0  0  2  0  0  0  0  0  0  0  0  0
    7.5873  -16.3574   19.2571 N   0  0  0  0  0  0  0  0  0  0  0  0
    8.5181  -16.2022   21.4348 C   0  0  0  0  0  0  0  0  0  0  0  0
    7.5890  -16.8963   21.9491 O   0  0  0  0  0  0  0  0  0  0  0  0
    9.7316  -16.1607   22.1875 N   0  0  0  0  0  0  0  0  0  0  0  0
    9.9324  -16.8102   23.4312 C   0  0  1  0  0  0  0  0  0  0  0  0
   11.0639  -17.7832   23.3339 C   0  0  0  0  0  0  0  0  0  0  0  0
   11.3025  -18.5333   24.5869 C   0  0  0  0  0  0  0  0  0  0  0  0
   10.4106  -19.0636   25.2933 O   0  0  0  0  0  0  0  0  0  0  0  0
   10.0462  -15.8933   24.5858 C   0  0  0  0  0  0  0  0  0  0  0  0
   11.0835  -15.1874   24.7415 O   0  0  0  0  0  0  0  0  0  0  0  0
   12.6263  -18.6803   25.0485 O   0  0  0  0  0  0  0  0  0  0  0  0
    6.1769  -12.6118   26.2739 C   0  0  0  0  0  0  0  0  0  0  0  0
    7.5318  -13.2228   26.0645 C   0  0  1  0  0  0  0  0  0  0  0  0
    8.5339  -12.0710   26.0809 C   0  0  0  0  0  0  0  0  0  0  0  0
    7.9489  -14.1838   27.1249 C   0  0  0  0  0  0  0  0  0  0  0  0
    9.1778  -14.9858   26.7859 C   0  0  2  0  0  0  0  0  0  0  0  0
    9.0315  -15.7466   25.5680 N   0  0  0  0  0  0  0  0  0  0  0  0
    9.7198  -15.7570   27.9061 C   0  0  0  0  0  0  0  0  0  0  0  0
    9.5743  -16.9930   27.9457 O   0  0  0  0  0  0  0  0  0  0  0  0
   10.3983  -15.1478   28.9372 O   0  0  0  0  0  0  0  0  0  0  0  0
  2  1  1  1
  2  3  1  0
  4  5  1  0
  4  2  1  0
  5  6  1  6
  7  5  1  0
  7  8  2  0
  9  7  1  0
 10  9  1  0
 10 11  1  6
 12 11  1  0
 13 12  2  0
 14 10  1  0
 15 14  2  0
 16 12  1  0
 18 19  1  1
 18 17  1  0
 20 18  1  0
 21 20  1  1
 21 22  1  0
 22 14  1  0
 23 21  1  0
 24 23  2  0
 25 23  1  0
M  END
$$$$
