LDL.pdb
     RDKit          3D

 25 24  0  0  1  0  0  0  0  0999 V2000
    9.1650  -13.1153   18.3385 C   0  0  0  0  0  0  0  0  0  0  0  0
    7.8254  -13.3484   18.9540 C   0  0  2  0  0  0  0  0  0  0  0  0
    7.2521  -12.0009   19.3599 C   0  0  0  0  0  0  0  0  0  0  0  0
    7.9255  -14.1825   20.2092 C   0  0  0  0  0  0  0  0  0  0  0  0
    8.4680  -15.5672   19.9593 C   0  0  2  0  0  0  0  0  0  0  0  0
    7.5781  -16.3429   19.1357 N   0  0  0  0  0  0  0  0  0  0  0  0
    8.7721  -16.3045   21.1866 C   0  0  0  0  0  0  0  0  0  0  0  0
    7.8537  -16.8873   21.8396 O   0  0  0  0  0  0  0  0  0  0  0  0
   10.0831  -16.4302   21.7402 N   0  0  0  0  0  0  0  0  0  0  0  0
   10.3729  -16.9920   23.0088 C   0  0  1  0  0  0  0  0  0  0  0  0
   11.7685  -17.5285   23.0343 C   0  0  0  0  0  0  0  0  0  0  0  0
   11.9629  -18.6124   24.0227 C   0  0  0  0  0  0  0  0  0  0  0  0
   11.5097  -18.6135   25.1933 O   0  0  0  0  0  0  0  0  0  0  0  0
   10.0652  -16.1059   24.1521 C   0  0  0  0  0  0  0  0  0  0  0  0
   10.9167  -15.2621   24.5539 O   0  0  0  0  0  0  0  0  0  0  0  0
   12.7120  -19.7464   23.6482 O   0  0  0  0  0  0  0  0  0  0  0  0
    8.1624  -12.3475   26.0520 C   0  0  0  0  0  0  0  0  0  0  0  0
    7.1481  -13.3202   26.5794 C   0  0  1  0  0  0  0  0  0  0  0  0
    5.7761  -12.7241   26.2736 C   0  0  0  0  0  0  0  0  0  0  0  0
    7.1934  -14.6682   25.9446 C   0  0  0  0  0  0  0  0  0  0  0  0
    8.5363  -15.3454   26.0235 C   0  0  2  0  0  0  0  0  0  0  0  0
    8.8322  -16.1398   24.8553 N   0  0  0  0  0  0  0  0  0  0  0  0
    8.7875  -16.0356   27.2900 C   0  0  0  0  0  0  0  0  0  0  0  0
    8.2538  -17.1366   27.5212 O   0  0  0  0  0  0  0  0  0  0  0  0
    9.6108  -15.4962   28.2521 O   0  0  0  0  0  0  0  0  0  0  0  0
  2  1  1  1
  2  3  1  0
  4  5  1  0
  4  2  1  0
  5  6  1  1
  7  5  1  0
  7  8  2  0
  9  7  1  0
 10  9  1  0
 10 11  1  6
 12 11  1  0
 13 12  2  0
 14 10  1  0
 15 14  2  0
 16 12  1  0
 18 19  1  6
 18 17  1  0
 20 18  1  0
 21 20  1  6
 21 22  1  0
 22 14  1  0
 23 21  1  0
 24 23  2  0
 25 23  1  0
M  END
$$$$
