LDL.pdb
     RDKit          3D

 25 24  0  0  1  0  0  0  0  0999 V2000
    9.4123  -12.7030   18.7194 C   0  0  0  0  0  0  0  0  0  0  0  0
    8.0039  -13.0432   19.0776 C   0  0  2  0  0  0  0  0  0  0  0  0
    7.3020  -11.7629   19.4988 C   0  0  0  0  0  0  0  0  0  0  0  0
    7.9400  -13.9897   20.2528 C   0  0  0  0  0  0  0  0  0  0  0  0
    8.6401  -15.3007   19.9972 C   0  0  2  0  0  0  0  0  0  0  0  0
    7.9578  -16.0779   18.9961 N   0  0  0  0  0  0  0  0  0  0  0  0
    8.8271  -16.1069   21.2044 C   0  0  0  0  0  0  0  0  0  0  0  0
    7.8627  -16.7615   21.7052 O   0  0  0  0  0  0  0  0  0  0  0  0
   10.0678  -16.2254   21.9028 N   0  0  0  0  0  0  0  0  0  0  0  0
   10.2545  -16.9678   23.0957 C   0  0  1  0  0  0  0  0  0  0  0  0
   11.4870  -17.8093   22.9978 C   0  0  0  0  0  0  0  0  0  0  0  0
   11.6992  -18.6788   24.1761 C   0  0  0  0  0  0  0  0  0  0  0  0
   10.8715  -19.5126   24.6181 O   0  0  0  0  0  0  0  0  0  0  0  0
   10.1943  -16.1591   24.3322 C   0  0  0  0  0  0  0  0  0  0  0  0
   11.1524  -15.3952   24.6436 O   0  0  0  0  0  0  0  0  0  0  0  0
   12.9182  -18.5856   24.8779 O   0  0  0  0  0  0  0  0  0  0  0  0
    6.2350  -12.9351   26.1985 C   0  0  0  0  0  0  0  0  0  0  0  0
    7.5713  -13.5898   26.0014 C   0  0  1  0  0  0  0  0  0  0  0  0
    8.6206  -12.5791   26.4581 C   0  0  0  0  0  0  0  0  0  0  0  0
    7.7778  -14.8303   26.8018 C   0  0  0  0  0  0  0  0  0  0  0  0
    9.0753  -15.5410   26.5194 C   0  0  2  0  0  0  0  0  0  0  0  0
    9.0921  -16.1834   25.2270 N   0  0  0  0  0  0  0  0  0  0  0  0
    9.5428  -16.3950   27.6129 C   0  0  0  0  0  0  0  0  0  0  0  0
    9.3813  -17.6284   27.5588 O   0  0  0  0  0  0  0  0  0  0  0  0
   10.1672  -15.8680   28.7206 O   0  0  0  0  0  0  0  0  0  0  0  0
  2  1  1  1
  2  3  1  0
  4  5  1  0
  4  2  1  0
  5  6  1  6
  7  5  1  0
  7  8  2  0
  9  7  1  0
 10  9  1  0
 10 11  1  6
 12 11  1  0
 13 12  2  0
 14 10  1  0
 15 14  2  0
 16 12  1  0
 18 19  1  1
 18 17  1  0
 20 18  1  0
 21 20  1  1
 21 22  1  0
 22 14  1  0
 23 21  1  0
 24 23  2  0
 25 23  1  0
M  END
$$$$
