LDL.pdb
     RDKit          3D

 25 24  0  0  1  0  0  0  0  0999 V2000
    8.4898  -12.0819   18.7228 C   0  0  0  0  0  0  0  0  0  0  0  0
    7.7261  -13.3631   18.7769 C   0  0  2  0  0  0  0  0  0  0  0  0
    6.3002  -13.0812   18.3333 C   0  0  0  0  0  0  0  0  0  0  0  0
    7.6518  -13.9095   20.1830 C   0  0  0  0  0  0  0  0  0  0  0  0
    9.0032  -14.0465   20.8381 C   0  0  2  0  0  0  0  0  0  0  0  0
   10.0291  -14.3499   19.8752 N   0  0  0  0  0  0  0  0  0  0  0  0
    9.0309  -15.0361   21.9162 C   0  0  0  0  0  0  0  0  0  0  0  0
    8.0156  -15.2230   22.6536 O   0  0  0  0  0  0  0  0  0  0  0  0
   10.1626  -15.8517   22.2244 N   0  0  0  0  0  0  0  0  0  0  0  0
   10.2322  -16.7573   23.3126 C   0  0  1  0  0  0  0  0  0  0  0  0
   11.4353  -17.6360   23.1828 C   0  0  0  0  0  0  0  0  0  0  0  0
   11.5920  -18.2213   21.8329 C   0  0  0  0  0  0  0  0  0  0  0  0
   10.7060  -18.8603   21.2144 O   0  0  0  0  0  0  0  0  0  0  0  0
   10.1118  -16.1219   24.6425 C   0  0  0  0  0  0  0  0  0  0  0  0
   11.1374  -15.9405   25.3592 O   0  0  0  0  0  0  0  0  0  0  0  0
   12.8228  -18.0649   21.1637 O   0  0  0  0  0  0  0  0  0  0  0  0
    8.4105  -12.5805   26.1161 C   0  0  0  0  0  0  0  0  0  0  0  0
    7.5081  -13.2729   27.0955 C   0  0  1  0  0  0  0  0  0  0  0  0
    6.1286  -12.6379   26.9377 C   0  0  0  0  0  0  0  0  0  0  0  0
    7.3478  -14.7365   26.8630 C   0  0  0  0  0  0  0  0  0  0  0  0
    8.6378  -15.4665   26.5959 C   0  0  2  0  0  0  0  0  0  0  0  0
    8.8763  -15.6855   25.1893 N   0  0  0  0  0  0  0  0  0  0  0  0
    8.8370  -16.6571   27.4243 C   0  0  0  0  0  0  0  0  0  0  0  0
    8.3895  -17.7594   27.0565 O   0  0  0  0  0  0  0  0  0  0  0  0
    9.5161  -16.5961   28.6199 O   0  0  0  0  0  0  0  0  0  0  0  0
  2  1  1  1
  2  3  1  0
  4  5  1  0
  4  2  1  0
  5  6  1  6
  7  5  1  0
  7  8  2  0
  9  7  1  0
 10  9  1  0
 10 11  1  1
 12 11  1  0
 13 12  2  0
 14 10  1  0
 15 14  2  0
 16 12  1  0
 18 19  1  6
 18 17  1  0
 20 18  1  0
 21 20  1  6
 21 22  1  0
 22 14  1  0
 23 21  1  0
 24 23  2  0
 25 23  1  0
M  END
$$$$
