LDL.pdb
     RDKit          3D

 25 24  0  0  1  0  0  0  0  0999 V2000
    8.9036  -12.5095   18.7273 C   0  0  0  0  0  0  0  0  0  0  0  0
    7.7977  -13.5113   18.7567 C   0  0  2  0  0  0  0  0  0  0  0  0
    6.4851  -12.7708   18.5618 C   0  0  0  0  0  0  0  0  0  0  0  0
    7.7155  -14.2128   20.0917 C   0  0  0  0  0  0  0  0  0  0  0  0
    9.0444  -14.7478   20.5633 C   0  0  2  0  0  0  0  0  0  0  0  0
    9.6172  -15.6581   19.6068 N   0  0  0  0  0  0  0  0  0  0  0  0
    8.9815  -15.3889   21.8776 C   0  0  0  0  0  0  0  0  0  0  0  0
    8.1098  -15.0395   22.7306 O   0  0  0  0  0  0  0  0  0  0  0  0
    9.8640  -16.4285   22.3035 N   0  0  0  0  0  0  0  0  0  0  0  0
    9.7813  -17.0966   23.5508 C   0  0  1  0  0  0  0  0  0  0  0  0
   10.6470  -18.3161   23.5468 C   0  0  0  0  0  0  0  0  0  0  0  0
   10.5610  -19.1012   24.7981 C   0  0  0  0  0  0  0  0  0  0  0  0
    9.4958  -19.4126   25.3846 O   0  0  0  0  0  0  0  0  0  0  0  0
   10.0030  -16.2249   24.7246 C   0  0  0  0  0  0  0  0  0  0  0  0
   11.0615  -15.5405   24.8215 O   0  0  0  0  0  0  0  0  0  0  0  0
   11.7535  -19.5484   25.4023 O   0  0  0  0  0  0  0  0  0  0  0  0
    6.2107  -12.9467   26.2773 C   0  0  0  0  0  0  0  0  0  0  0  0
    7.5997  -13.4978   26.1362 C   0  0  1  0  0  0  0  0  0  0  0  0
    8.5463  -12.3001   26.1659 C   0  0  0  0  0  0  0  0  0  0  0  0
    8.0170  -14.4155   27.2342 C   0  0  0  0  0  0  0  0  0  0  0  0
    9.2466  -15.2294   26.9280 C   0  0  2  0  0  0  0  0  0  0  0  0
    9.0727  -16.1000   25.7899 N   0  0  0  0  0  0  0  0  0  0  0  0
    9.8369  -15.8882   28.0946 C   0  0  0  0  0  0  0  0  0  0  0  0
    9.9350  -17.1289   28.1318 O   0  0  0  0  0  0  0  0  0  0  0  0
   10.2960  -15.1661   29.1728 O   0  0  0  0  0  0  0  0  0  0  0  0
  2  1  1  1
  2  3  1  0
  4  5  1  0
  4  2  1  0
  5  6  1  6
  7  5  1  0
  7  8  2  0
  9  7  1  0
 10  9  1  0
 10 11  1  6
 12 11  1  0
 13 12  2  0
 14 10  1  0
 15 14  2  0
 16 12  1  0
 18 19  1  1
 18 17  1  0
 20 18  1  0
 21 20  1  1
 21 22  1  0
 22 14  1  0
 23 21  1  0
 24 23  2  0
 25 23  1  0
M  END
$$$$
