LDL.pdb
     RDKit          3D

 25 24  0  0  1  0  0  0  0  0999 V2000
    8.7990  -13.2263   18.6565 C   0  0  0  0  0  0  0  0  0  0  0  0
    7.5614  -13.2603   19.4901 C   0  0  2  0  0  0  0  0  0  0  0  0
    7.1618  -11.8272   19.7996 C   0  0  0  0  0  0  0  0  0  0  0  0
    7.7986  -13.9487   20.8133 C   0  0  0  0  0  0  0  0  0  0  0  0
    8.2212  -15.3888   20.6653 C   0  0  2  0  0  0  0  0  0  0  0  0
    7.1925  -16.1802   20.0431 N   0  0  0  0  0  0  0  0  0  0  0  0
    8.6259  -16.0103   21.9271 C   0  0  0  0  0  0  0  0  0  0  0  0
    7.7595  -16.4520   22.7418 O   0  0  0  0  0  0  0  0  0  0  0  0
    9.9840  -16.1702   22.3406 N   0  0  0  0  0  0  0  0  0  0  0  0
   10.3917  -16.7753   23.5558 C   0  0  1  0  0  0  0  0  0  0  0  0
   11.7058  -17.4668   23.3781 C   0  0  0  0  0  0  0  0  0  0  0  0
   11.6735  -18.5347   22.3544 C   0  0  0  0  0  0  0  0  0  0  0  0
   10.7705  -19.3989   22.2391 O   0  0  0  0  0  0  0  0  0  0  0  0
   10.3585  -15.8728   24.7268 C   0  0  0  0  0  0  0  0  0  0  0  0
   11.3278  -15.0961   24.9627 O   0  0  0  0  0  0  0  0  0  0  0  0
   12.7272  -18.6126   21.4212 O   0  0  0  0  0  0  0  0  0  0  0  0
    6.4648  -12.5393   26.4298 C   0  0  0  0  0  0  0  0  0  0  0  0
    7.7649  -13.2569   26.2108 C   0  0  1  0  0  0  0  0  0  0  0  0
    8.8689  -12.2171   26.3864 C   0  0  0  0  0  0  0  0  0  0  0  0
    8.0373  -14.3558   27.1805 C   0  0  0  0  0  0  0  0  0  0  0  0
    9.3016  -15.1263   26.9048 C   0  0  2  0  0  0  0  0  0  0  0  0
    9.2711  -15.8175   25.6381 N   0  0  0  0  0  0  0  0  0  0  0  0
    9.7557  -15.9554   28.0228 C   0  0  0  0  0  0  0  0  0  0  0  0
    9.6873  -17.1967   27.9517 O   0  0  0  0  0  0  0  0  0  0  0  0
   10.2657  -15.3962   29.1724 O   0  0  0  0  0  0  0  0  0  0  0  0
  2  1  1  6
  2  3  1  0
  4  5  1  0
  4  2  1  0
  5  6  1  1
  7  5  1  0
  7  8  2  0
  9  7  1  0
 10  9  1  0
 10 11  1  6
 12 11  1  0
 13 12  2  0
 14 10  1  0
 15 14  2  0
 16 12  1  0
 18 19  1  1
 18 17  1  0
 20 18  1  0
 21 20  1  1
 21 22  1  0
 22 14  1  0
 23 21  1  0
 24 23  2  0
 25 23  1  0
M  END
$$$$
