LDL.pdb
     RDKit          3D

 25 24  0  0  1  0  0  0  0  0999 V2000
    9.1252  -13.3739   18.7444 C   0  0  0  0  0  0  0  0  0  0  0  0
    7.7239  -13.5567   19.2248 C   0  0  2  0  0  0  0  0  0  0  0  0
    7.1638  -12.1886   19.5767 C   0  0  0  0  0  0  0  0  0  0  0  0
    7.6693  -14.3933   20.4811 C   0  0  0  0  0  0  0  0  0  0  0  0
    8.2049  -15.7897   20.2874 C   0  0  2  0  0  0  0  0  0  0  0  0
    7.2143  -16.6606   19.7114 N   0  0  0  0  0  0  0  0  0  0  0  0
    8.7327  -16.3871   21.5149 C   0  0  0  0  0  0  0  0  0  0  0  0
    7.9513  -16.8369   22.4074 O   0  0  0  0  0  0  0  0  0  0  0  0
   10.1251  -16.5134   21.8086 N   0  0  0  0  0  0  0  0  0  0  0  0
   10.6517  -16.9500   23.0499 C   0  0  1  0  0  0  0  0  0  0  0  0
   12.0150  -17.5348   22.8607 C   0  0  0  0  0  0  0  0  0  0  0  0
   12.5902  -18.0972   24.1025 C   0  0  0  0  0  0  0  0  0  0  0  0
   13.8011  -18.0414   24.4286 O   0  0  0  0  0  0  0  0  0  0  0  0
   10.5930  -15.9378   24.1263 C   0  0  0  0  0  0  0  0  0  0  0  0
   10.7721  -14.7142   23.8634 O   0  0  0  0  0  0  0  0  0  0  0  0
   11.7347  -18.7534   25.0106 O   0  0  0  0  0  0  0  0  0  0  0  0
    7.3699  -12.6467   27.0987 C   0  0  0  0  0  0  0  0  0  0  0  0
    8.7631  -13.2052   27.0915 C   0  0  1  0  0  0  0  0  0  0  0  0
    9.0057  -13.7829   28.4839 C   0  0  0  0  0  0  0  0  0  0  0  0
    8.9837  -14.3081   26.1132 C   0  0  0  0  0  0  0  0  0  0  0  0
   10.0547  -15.2879   26.5151 C   0  0  2  0  0  0  0  0  0  0  0  0
   10.3396  -16.2590   25.4860 N   0  0  0  0  0  0  0  0  0  0  0  0
    9.8678  -15.8700   27.8454 C   0  0  0  0  0  0  0  0  0  0  0  0
   10.6378  -15.5680   28.7762 O   0  0  0  0  0  0  0  0  0  0  0  0
    8.8486  -16.7577   28.1054 O   0  0  0  0  0  0  0  0  0  0  0  0
  2  1  1  1
  2  3  1  0
  4  5  1  0
  4  2  1  0
  5  6  1  1
  7  5  1  0
  7  8  2  0
  9  7  1  0
 10  9  1  0
 10 11  1  6
 12 11  1  0
 13 12  2  0
 14 10  1  0
 15 14  2  0
 16 12  1  0
 18 19  1  1
 18 17  1  0
 20 18  1  0
 21 20  1  6
 21 22  1  0
 22 14  1  0
 23 21  1  0
 24 23  2  0
 25 23  1  0
M  END
$$$$
