LDL.pdb
     RDKit          3D

 25 24  0  0  1  0  0  0  0  0999 V2000
    9.4467  -13.4661   18.2262 C   0  0  0  0  0  0  0  0  0  0  0  0
    7.9859  -13.4904   18.5310 C   0  0  2  0  0  0  0  0  0  0  0  0
    7.5316  -12.0613   18.7770 C   0  0  0  0  0  0  0  0  0  0  0  0
    7.6914  -14.2709   19.7900 C   0  0  0  0  0  0  0  0  0  0  0  0
    8.1478  -15.7065   19.7183 C   0  0  2  0  0  0  0  0  0  0  0  0
    7.2205  -16.5195   18.9760 N   0  0  0  0  0  0  0  0  0  0  0  0
    8.3896  -16.3077   21.0306 C   0  0  0  0  0  0  0  0  0  0  0  0
    7.4231  -16.6756   21.7655 O   0  0  0  0  0  0  0  0  0  0  0  0
    9.6888  -16.5268   21.5830 N   0  0  0  0  0  0  0  0  0  0  0  0
    9.9386  -16.9908   22.8988 C   0  0  1  0  0  0  0  0  0  0  0  0
   11.2281  -17.7465   22.9486 C   0  0  0  0  0  0  0  0  0  0  0  0
   11.4967  -18.3631   24.2666 C   0  0  0  0  0  0  0  0  0  0  0  0
   12.0738  -17.7959   25.2262 O   0  0  0  0  0  0  0  0  0  0  0  0
    9.8295  -15.9492   23.9428 C   0  0  0  0  0  0  0  0  0  0  0  0
   10.6448  -14.9833   23.9696 O   0  0  0  0  0  0  0  0  0  0  0  0
   11.0830  -19.6918   24.4915 O   0  0  0  0  0  0  0  0  0  0  0  0
    8.5645  -11.9781   26.9178 C   0  0  0  0  0  0  0  0  0  0  0  0
    7.4638  -12.9983   26.8928 C   0  0  1  0  0  0  0  0  0  0  0  0
    6.1690  -12.2327   26.6311 C   0  0  0  0  0  0  0  0  0  0  0  0
    7.5934  -14.0236   25.8185 C   0  0  0  0  0  0  0  0  0  0  0  0
    8.7352  -14.9859   26.0147 C   0  0  2  0  0  0  0  0  0  0  0  0
    8.8339  -15.9610   24.9551 N   0  0  0  0  0  0  0  0  0  0  0  0
    8.8125  -15.5602   27.3592 C   0  0  0  0  0  0  0  0  0  0  0  0
    8.2650  -16.6506   27.6082 O   0  0  0  0  0  0  0  0  0  0  0  0
    9.4838  -14.9213   28.3768 O   0  0  0  0  0  0  0  0  0  0  0  0
  2  1  1  1
  2  3  1  0
  4  5  1  0
  4  2  1  0
  5  6  1  1
  7  5  1  0
  7  8  2  0
  9  7  1  0
 10  9  1  0
 10 11  1  6
 12 11  1  0
 13 12  2  0
 14 10  1  0
 15 14  2  0
 16 12  1  0
 18 19  1  6
 18 17  1  0
 20 18  1  0
 21 20  1  1
 21 22  1  0
 22 14  1  0
 23 21  1  0
 24 23  2  0
 25 23  1  0
M  END
$$$$
