LDL.pdb
     RDKit          3D

 25 24  0  0  1  0  0  0  0  0999 V2000
    8.9841  -13.3082   18.7872 C   0  0  0  0  0  0  0  0  0  0  0  0
    7.6311  -13.3065   19.4172 C   0  0  2  0  0  0  0  0  0  0  0  0
    7.2251  -11.8621   19.6585 C   0  0  0  0  0  0  0  0  0  0  0  0
    7.6409  -13.9936   20.7622 C   0  0  0  0  0  0  0  0  0  0  0  0
    8.0354  -15.4470   20.6827 C   0  0  2  0  0  0  0  0  0  0  0  0
    7.0284  -16.2325   20.0189 N   0  0  0  0  0  0  0  0  0  0  0  0
    8.3437  -16.0395   21.9851 C   0  0  0  0  0  0  0  0  0  0  0  0
    7.4169  -16.4428   22.7518 O   0  0  0  0  0  0  0  0  0  0  0  0
    9.6681  -16.2111   22.4925 N   0  0  0  0  0  0  0  0  0  0  0  0
    9.9815  -16.7616   23.7604 C   0  0  1  0  0  0  0  0  0  0  0  0
   11.2065  -17.6146   23.6695 C   0  0  0  0  0  0  0  0  0  0  0  0
   11.5477  -18.2894   24.9413 C   0  0  0  0  0  0  0  0  0  0  0  0
   10.8803  -19.2098   25.4734 O   0  0  0  0  0  0  0  0  0  0  0  0
   10.0375  -15.7715   24.8573 C   0  0  0  0  0  0  0  0  0  0  0  0
   10.9840  -14.9353   24.9158 O   0  0  0  0  0  0  0  0  0  0  0  0
   12.7088  -17.8880   25.6327 O   0  0  0  0  0  0  0  0  0  0  0  0
    5.9168  -12.9205   26.4104 C   0  0  0  0  0  0  0  0  0  0  0  0
    7.3285  -13.3883   26.2077 C   0  0  1  0  0  0  0  0  0  0  0  0
    8.1716  -12.1361   25.9790 C   0  0  0  0  0  0  0  0  0  0  0  0
    7.9166  -14.1076   27.3734 C   0  0  0  0  0  0  0  0  0  0  0  0
    9.1823  -14.8621   27.0618 C   0  0  2  0  0  0  0  0  0  0  0  0
    9.0638  -15.6934   25.8878 N   0  0  0  0  0  0  0  0  0  0  0  0
    9.7748  -15.5433   28.2144 C   0  0  0  0  0  0  0  0  0  0  0  0
   10.0299  -14.9090   29.2551 O   0  0  0  0  0  0  0  0  0  0  0  0
   10.0647  -16.8884   28.1840 O   0  0  0  0  0  0  0  0  0  0  0  0
  2  1  1  1
  2  3  1  0
  4  5  1  0
  4  2  1  0
  5  6  1  1
  7  5  1  0
  7  8  2  0
  9  7  1  0
 10  9  1  0
 10 11  1  6
 12 11  1  0
 13 12  2  0
 14 10  1  0
 15 14  2  0
 16 12  1  0
 18 19  1  1
 18 17  1  0
 20 18  1  0
 21 20  1  1
 21 22  1  0
 22 14  1  0
 23 21  1  0
 24 23  2  0
 25 23  1  0
M  END
$$$$
