LDL.pdb
     RDKit          3D

 25 24  0  0  1  0  0  0  0  0999 V2000
    9.1409  -13.3140   18.2158 C   0  0  0  0  0  0  0  0  0  0  0  0
    7.7292  -13.4094   18.6908 C   0  0  2  0  0  0  0  0  0  0  0  0
    7.2384  -12.0040   18.9962 C   0  0  0  0  0  0  0  0  0  0  0  0
    7.6238  -14.2026   19.9718 C   0  0  0  0  0  0  0  0  0  0  0  0
    8.1251  -15.6184   19.8355 C   0  0  2  0  0  0  0  0  0  0  0  0
    7.2140  -16.4306   19.0726 N   0  0  0  0  0  0  0  0  0  0  0  0
    8.4047  -16.2639   21.1190 C   0  0  0  0  0  0  0  0  0  0  0  0
    7.4597  -16.6437   21.8755 O   0  0  0  0  0  0  0  0  0  0  0  0
    9.7194  -16.5158   21.6181 N   0  0  0  0  0  0  0  0  0  0  0  0
   10.0111  -16.9808   22.9249 C   0  0  1  0  0  0  0  0  0  0  0  0
   11.3146  -17.7137   22.9381 C   0  0  0  0  0  0  0  0  0  0  0  0
   11.6658  -18.2632   24.2663 C   0  0  0  0  0  0  0  0  0  0  0  0
   10.8468  -18.7287   25.0959 O   0  0  0  0  0  0  0  0  0  0  0  0
    9.9106  -15.9457   23.9763 C   0  0  0  0  0  0  0  0  0  0  0  0
   10.7425  -14.9946   24.0182 O   0  0  0  0  0  0  0  0  0  0  0  0
   13.0197  -18.2780   24.6585 O   0  0  0  0  0  0  0  0  0  0  0  0
    8.4966  -11.9596   26.8841 C   0  0  0  0  0  0  0  0  0  0  0  0
    7.4407  -13.0261   26.9096 C   0  0  1  0  0  0  0  0  0  0  0  0
    6.1077  -12.3223   26.6668 C   0  0  0  0  0  0  0  0  0  0  0  0
    7.5866  -14.0682   25.8537 C   0  0  0  0  0  0  0  0  0  0  0  0
    8.7908  -14.9569   26.0223 C   0  0  2  0  0  0  0  0  0  0  0  0
    8.9056  -15.9479   24.9793 N   0  0  0  0  0  0  0  0  0  0  0  0
    8.9555  -15.4954   27.3737 C   0  0  0  0  0  0  0  0  0  0  0  0
    9.0310  -14.7269   28.3505 O   0  0  0  0  0  0  0  0  0  0  0  0
    9.0310  -16.8503   27.6038 O   0  0  0  0  0  0  0  0  0  0  0  0
  2  1  1  1
  2  3  1  0
  4  5  1  0
  4  2  1  0
  5  6  1  1
  7  5  1  0
  7  8  2  0
  9  7  1  0
 10  9  1  0
 10 11  1  6
 12 11  1  0
 13 12  2  0
 14 10  1  0
 15 14  2  0
 16 12  1  0
 18 19  1  6
 18 17  1  0
 20 18  1  0
 21 20  1  1
 21 22  1  0
 22 14  1  0
 23 21  1  0
 24 23  2  0
 25 23  1  0
M  END
$$$$
