LDL.pdb
     RDKit          3D

 25 24  0  0  1  0  0  0  0  0999 V2000
    8.9596  -13.3568   18.6033 C   0  0  0  0  0  0  0  0  0  0  0  0
    7.6225  -13.3628   19.2663 C   0  0  2  0  0  0  0  0  0  0  0  0
    7.2303  -11.9223   19.5500 C   0  0  0  0  0  0  0  0  0  0  0  0
    7.6615  -14.0802   20.5948 C   0  0  0  0  0  0  0  0  0  0  0  0
    8.0916  -15.5210   20.4783 C   0  0  2  0  0  0  0  0  0  0  0  0
    7.0384  -16.3456   19.9468 N   0  0  0  0  0  0  0  0  0  0  0  0
    8.5743  -16.0890   21.7379 C   0  0  0  0  0  0  0  0  0  0  0  0
    7.7611  -16.4562   22.6397 O   0  0  0  0  0  0  0  0  0  0  0  0
    9.9550  -16.2746   22.0545 N   0  0  0  0  0  0  0  0  0  0  0  0
   10.4370  -16.8460   23.2587 C   0  0  1  0  0  0  0  0  0  0  0  0
   11.8488  -17.3086   23.0872 C   0  0  0  0  0  0  0  0  0  0  0  0
   11.9690  -18.5375   22.2719 C   0  0  0  0  0  0  0  0  0  0  0  0
   11.0076  -19.2466   21.8865 O   0  0  0  0  0  0  0  0  0  0  0  0
   10.2391  -16.0009   24.4559 C   0  0  0  0  0  0  0  0  0  0  0  0
   11.0277  -15.0431   24.6995 O   0  0  0  0  0  0  0  0  0  0  0  0
   13.2526  -18.9708   21.8821 O   0  0  0  0  0  0  0  0  0  0  0  0
    6.4255  -12.8329   25.9018 C   0  0  0  0  0  0  0  0  0  0  0  0
    7.7461  -13.5463   25.8902 C   0  0  1  0  0  0  0  0  0  0  0  0
    8.7877  -12.5377   26.3689 C   0  0  0  0  0  0  0  0  0  0  0  0
    7.8226  -14.7236   26.8014 C   0  0  0  0  0  0  0  0  0  0  0  0
    9.0843  -15.5341   26.6620 C   0  0  2  0  0  0  0  0  0  0  0  0
    9.1840  -16.1996   25.3850 N   0  0  0  0  0  0  0  0  0  0  0  0
    9.3715  -16.4002   27.8069 C   0  0  0  0  0  0  0  0  0  0  0  0
    9.5017  -15.9128   28.9453 O   0  0  0  0  0  0  0  0  0  0  0  0
    9.5051  -17.7625   27.6627 O   0  0  0  0  0  0  0  0  0  0  0  0
  2  1  1  1
  2  3  1  0
  4  5  1  0
  4  2  1  0
  5  6  1  1
  7  5  1  0
  7  8  2  0
  9  7  1  0
 10  9  1  0
 10 11  1  6
 12 11  1  0
 13 12  2  0
 14 10  1  0
 15 14  2  0
 16 12  1  0
 18 19  1  1
 18 17  1  0
 20 18  1  0
 21 20  1  1
 21 22  1  0
 22 14  1  0
 23 21  1  0
 24 23  2  0
 25 23  1  0
M  END
$$$$
