LDL.pdb
     RDKit          3D

 25 24  0  0  1  0  0  0  0  0999 V2000
    8.9191  -13.0874   19.1237 C   0  0  0  0  0  0  0  0  0  0  0  0
    7.6497  -13.2470   19.8923 C   0  0  2  0  0  0  0  0  0  0  0  0
    7.1821  -11.8665   20.3223 C   0  0  0  0  0  0  0  0  0  0  0  0
    7.8572  -14.0554   21.1510 C   0  0  0  0  0  0  0  0  0  0  0  0
    8.3473  -15.4561   20.8821 C   0  0  2  0  0  0  0  0  0  0  0  0
    7.3628  -16.2345   20.1775 N   0  0  0  0  0  0  0  0  0  0  0  0
    8.7672  -16.1687   22.0896 C   0  0  0  0  0  0  0  0  0  0  0  0
    7.9225  -16.7858   22.8074 O   0  0  0  0  0  0  0  0  0  0  0  0
   10.1172  -16.2317   22.5526 N   0  0  0  0  0  0  0  0  0  0  0  0
   10.5315  -16.8714   23.7477 C   0  0  1  0  0  0  0  0  0  0  0  0
   11.8696  -17.5118   23.5587 C   0  0  0  0  0  0  0  0  0  0  0  0
   12.2396  -18.4333   24.6557 C   0  0  0  0  0  0  0  0  0  0  0  0
   11.4410  -18.9152   25.4957 O   0  0  0  0  0  0  0  0  0  0  0  0
   10.4556  -16.0182   24.9531 C   0  0  0  0  0  0  0  0  0  0  0  0
   11.3160  -15.1131   25.1506 O   0  0  0  0  0  0  0  0  0  0  0  0
   13.5888  -18.8181   24.7932 O   0  0  0  0  0  0  0  0  0  0  0  0
    6.4698  -12.9590   26.4692 C   0  0  0  0  0  0  0  0  0  0  0  0
    7.8413  -13.5643   26.3947 C   0  0  1  0  0  0  0  0  0  0  0  0
    8.8262  -12.4501   26.7408 C   0  0  0  0  0  0  0  0  0  0  0  0
    8.0807  -14.6774   27.3568 C   0  0  0  0  0  0  0  0  0  0  0  0
    9.3935  -15.3902   27.1657 C   0  0  2  0  0  0  0  0  0  0  0  0
    9.4440  -16.1516   25.9405 N   0  0  0  0  0  0  0  0  0  0  0  0
    9.8529  -16.1292   28.3432 C   0  0  0  0  0  0  0  0  0  0  0  0
    9.9712  -17.3680   28.2998 O   0  0  0  0  0  0  0  0  0  0  0  0
   10.1642  -15.4862   29.5197 O   0  0  0  0  0  0  0  0  0  0  0  0
  2  1  1  1
  2  3  1  0
  4  5  1  0
  4  2  1  0
  5  6  1  1
  7  5  1  0
  7  8  2  0
  9  7  1  0
 10  9  1  0
 10 11  1  6
 12 11  1  0
 13 12  2  0
 14 10  1  0
 15 14  2  0
 16 12  1  0
 18 19  1  1
 18 17  1  0
 20 18  1  0
 21 20  1  1
 21 22  1  0
 22 14  1  0
 23 21  1  0
 24 23  2  0
 25 23  1  0
M  END
$$$$
