YRL.pdb
     RDKit          3D

 32 32  0  0  1  0  0  0  0  0999 V2000
   16.9881  -14.8066  -15.0567 O   0  0  0  0  0  0  0  0  0  0  0  0
   17.8020  -15.7525  -14.4399 C   0  0  0  0  0  0  0  0  0  0  0  0
   18.9953  -16.1732  -14.9794 C   0  0  0  0  0  0  0  0  0  0  0  0
   19.8004  -17.1065  -14.3728 C   0  0  0  0  0  0  0  0  0  0  0  0
   19.4266  -17.6694  -13.1652 C   0  0  0  0  0  0  0  0  0  0  0  0
   20.2313  -18.6826  -12.4394 C   0  0  0  0  0  0  0  0  0  0  0  0
   20.1717  -19.9752  -13.1762 C   0  0  2  0  0  0  0  0  0  0  0  0
   18.9744  -20.6915  -12.7958 N   0  0  0  0  0  0  0  0  0  0  0  0
   21.3832  -20.7917  -13.0429 C   0  0  0  0  0  0  0  0  0  0  0  0
   21.7023  -21.4097  -11.9941 O   0  0  0  0  0  0  0  0  0  0  0  0
   18.2086  -17.2331  -12.6246 C   0  0  0  0  0  0  0  0  0  0  0  0
   17.4192  -16.3013  -13.2446 C   0  0  0  0  0  0  0  0  0  0  0  0
   27.3618  -24.3043  -16.9063 N   0  0  0  0  0  0  0  0  0  0  0  0
   26.4578  -25.3539  -16.5047 C   0  0  0  0  0  0  0  0  0  0  0  0
   26.5964  -26.5621  -16.9358 N   0  0  0  0  0  0  0  0  0  0  0  0
   25.3800  -25.0911  -15.6188 N   0  0  0  0  0  0  0  0  0  0  0  0
   25.3337  -23.9483  -14.7733 C   0  0  0  0  0  0  0  0  0  0  0  0
   25.3202  -22.6220  -15.4851 C   0  0  0  0  0  0  0  0  0  0  0  0
   23.9317  -22.0224  -15.4586 C   0  0  0  0  0  0  0  0  0  0  0  0
   23.4899  -21.6768  -14.0747 C   0  0  2  0  0  0  0  0  0  0  0  0
   22.2613  -20.9038  -14.1546 N   0  0  0  0  0  0  0  0  0  0  0  0
   24.4810  -20.9097  -13.3088 C   0  0  0  0  0  0  0  0  0  0  0  0
   24.5639  -19.6490  -13.5186 O   0  0  0  0  0  0  0  0  0  0  0  0
   25.9516  -27.2829  -16.5473 C   0  0  0  0  0  0  0  0  0  0  0  0
   28.1527  -21.9601   -8.4467 C   0  0  1  0  0  0  0  0  0  0  0  0
   27.7004  -21.0658   -9.5432 C   0  0  0  0  0  0  0  0  0  0  0  0
   27.0757  -19.8068   -8.8941 C   0  0  0  0  0  0  0  0  0  0  0  0
   26.7192  -21.5673  -10.5114 C   0  0  2  0  0  0  0  0  0  0  0  0
   26.3727  -20.7673  -11.7287 N   0  0  0  0  0  0  0  0  0  0  0  0
   25.3069  -21.5603  -12.3756 C   0  0  0  0  0  0  0  0  0  0  0  0
   27.4298  -20.5821  -12.7300 O   0  0  0  0  0  0  0  0  0  0  0  0
   27.8195  -21.4786  -13.4983 O   0  0  0  0  0  0  0  0  0  0  0  0
  2  1  1  0
  3  2  2  0
  4  3  1  0
  5  4  2  0
  5 11  1  0
  6  5  1  0
  7  9  1  0
  7  8  1  1
  7  6  1  0
  9 10  2  0
 11 12  2  0
 12  2  1  0
 14 13  1  0
 15 14  2  0
 16 14  1  0
 17 16  1  0
 18 17  1  0
 19 18  1  0
 20 19  1  6
 20 22  1  0
 21  9  1  0
 21 20  1  0
 22 29  1  0
 22 23  2  0
 25 24  1  6
 26 25  1  0
 27 25  1  0
 28 27  1  1
 28 30  1  0
 29 28  1  0
 30 31  2  0
 30 32  1  0
M  END
$$$$
