YRL.pdb
     RDKit          3D

 32 32  0  0  1  0  0  0  0  0999 V2000
   28.0082  -19.7881   -4.0630 O   0  0  0  0  0  0  0  0  0  0  0  0
   27.8035  -19.7340   -5.4388 C   0  0  0  0  0  0  0  0  0  0  0  0
   26.6102  -20.0811   -6.0283 C   0  0  0  0  0  0  0  0  0  0  0  0
   26.4056  -20.0287   -7.3858 C   0  0  0  0  0  0  0  0  0  0  0  0
   27.4220  -19.6132   -8.2278 C   0  0  0  0  0  0  0  0  0  0  0  0
   27.2915  -19.5258   -9.7030 C   0  0  0  0  0  0  0  0  0  0  0  0
   26.8606  -20.8477  -10.2360 C   0  0  2  0  0  0  0  0  0  0  0  0
   27.8963  -21.8267   -9.9905 N   0  0  0  0  0  0  0  0  0  0  0  0
   26.4391  -20.8133  -11.6407 C   0  0  0  0  0  0  0  0  0  0  0  0
   27.0417  -20.1713  -12.5398 O   0  0  0  0  0  0  0  0  0  0  0  0
   28.6338  -19.2619   -7.6161 C   0  0  0  0  0  0  0  0  0  0  0  0
   28.8189  -19.3208   -6.2603 C   0  0  0  0  0  0  0  0  0  0  0  0
   28.3390  -25.7311  -15.7539 N   0  0  0  0  0  0  0  0  0  0  0  0
   26.9858  -25.8062  -16.2472 C   0  0  0  0  0  0  0  0  0  0  0  0
   26.4751  -26.9235  -16.6419 N   0  0  0  0  0  0  0  0  0  0  0  0
   26.1677  -24.6480  -16.3165 N   0  0  0  0  0  0  0  0  0  0  0  0
   26.4368  -23.4645  -15.5748 C   0  0  0  0  0  0  0  0  0  0  0  0
   26.0431  -23.5124  -14.1227 C   0  0  0  0  0  0  0  0  0  0  0  0
   24.6825  -22.8822  -13.9231 C   0  0  0  0  0  0  0  0  0  0  0  0
   24.7752  -21.4905  -13.3898 C   0  0  2  0  0  0  0  0  0  0  0  0
   25.2832  -21.5433  -12.0288 N   0  0  0  0  0  0  0  0  0  0  0  0
   23.4961  -20.7684  -13.3883 C   0  0  0  0  0  0  0  0  0  0  0  0
   22.7474  -20.8662  -12.3538 O   0  0  0  0  0  0  0  0  0  0  0  0
   25.4869  -26.9044  -16.9727 C   0  0  0  0  0  0  0  0  0  0  0  0
   20.2498  -16.6245  -14.3372 C   0  0  1  0  0  0  0  0  0  0  0  0
   21.0448  -17.0539  -15.5164 C   0  0  0  0  0  0  0  0  0  0  0  0
   20.0562  -17.6020  -16.5741 C   0  0  0  0  0  0  0  0  0  0  0  0
   22.0801  -18.0783  -15.3416 C   0  0  1  0  0  0  0  0  0  0  0  0
   21.8572  -19.2371  -14.4201 N   0  0  0  0  0  0  0  0  0  0  0  0
   23.1220  -19.9965  -14.5020 C   0  0  0  0  0  0  0  0  0  0  0  0
   20.7795  -20.1707  -14.7688 O   0  0  0  0  0  0  0  0  0  0  0  0
   19.6339  -20.1150  -14.2888 O   0  0  0  0  0  0  0  0  0  0  0  0
  2  1  1  0
  3  2  2  0
  4  3  1  0
  5  4  2  0
  5 11  1  0
  6  5  1  0
  7  9  1  0
  7  8  1  6
  7  6  1  0
  9 10  2  0
 11 12  2  0
 12  2  1  0
 14 13  1  0
 15 14  2  0
 16 14  1  0
 17 16  1  0
 18 17  1  0
 19 18  1  0
 20 19  1  1
 20 22  1  0
 21  9  1  0
 21 20  1  0
 22 29  1  0
 22 23  2  0
 25 24  1  6
 26 25  1  0
 27 25  1  0
 28 27  1  1
 28 30  1  0
 29 28  1  0
 30 31  2  0
 30 32  1  0
M  END
$$$$
