YRL.pdb
     RDKit          3D

 32 32  0  0  1  0  0  0  0  0999 V2000
   31.2057  -17.6394  -19.2828 O   0  0  0  0  0  0  0  0  0  0  0  0
   30.3660  -17.6114  -18.1730 C   0  0  0  0  0  0  0  0  0  0  0  0
   29.5804  -16.5263  -17.8609 C   0  0  0  0  0  0  0  0  0  0  0  0
   28.7508  -16.4961  -16.7662 C   0  0  0  0  0  0  0  0  0  0  0  0
   28.6766  -17.5871  -15.9183 C   0  0  0  0  0  0  0  0  0  0  0  0
   27.8107  -17.6432  -14.7149 C   0  0  0  0  0  0  0  0  0  0  0  0
   26.7096  -18.6180  -14.9487 C   0  0  2  0  0  0  0  0  0  0  0  0
   25.9104  -18.1814  -16.0721 N   0  0  0  0  0  0  0  0  0  0  0  0
   25.9012  -18.8985  -13.7571 C   0  0  0  0  0  0  0  0  0  0  0  0
   25.1772  -18.0446  -13.1820 O   0  0  0  0  0  0  0  0  0  0  0  0
   29.4816  -18.6874  -16.2461 C   0  0  0  0  0  0  0  0  0  0  0  0
   30.3027  -18.6987  -17.3421 C   0  0  0  0  0  0  0  0  0  0  0  0
   21.6152  -21.2349   -9.4807 N   0  0  0  0  0  0  0  0  0  0  0  0
   20.5347  -20.8409  -10.3509 C   0  0  0  0  0  0  0  0  0  0  0  0
   19.4023  -20.4419   -9.8784 N   0  0  0  0  0  0  0  0  0  0  0  0
   20.6815  -20.8802  -11.7625 N   0  0  0  0  0  0  0  0  0  0  0  0
   21.9451  -20.9860  -12.4069 C   0  0  0  0  0  0  0  0  0  0  0  0
   22.9702  -21.8144  -11.6797 C   0  0  0  0  0  0  0  0  0  0  0  0
   24.2950  -21.7748  -12.4087 C   0  0  0  0  0  0  0  0  0  0  0  0
   25.0960  -20.5627  -12.0636 C   0  0  2  0  0  0  0  0  0  0  0  0
   25.9236  -20.2076  -13.2047 N   0  0  0  0  0  0  0  0  0  0  0  0
   25.9612  -20.7369  -10.8894 C   0  0  0  0  0  0  0  0  0  0  0  0
   26.9755  -21.5117  -10.9948 O   0  0  0  0  0  0  0  0  0  0  0  0
   18.6562  -20.2054  -10.5667 C   0  0  0  0  0  0  0  0  0  0  0  0
   28.1285  -18.3825   -5.8567 C   0  0  1  0  0  0  0  0  0  0  0  0
   27.6148  -19.6025   -6.5309 C   0  0  0  0  0  0  0  0  0  0  0  0
   28.8063  -20.5736   -6.7151 C   0  0  0  0  0  0  0  0  0  0  0  0
   26.9741  -19.4733   -7.8441 C   0  0  2  0  0  0  0  0  0  0  0  0
   26.2128  -20.6186   -8.4362 N   0  0  0  0  0  0  0  0  0  0  0  0
   25.6665  -20.0628   -9.6915 C   0  0  0  0  0  0  0  0  0  0  0  0
   25.0717  -21.1310   -7.6681 O   0  0  0  0  0  0  0  0  0  0  0  0
   23.8958  -20.7727   -7.8543 O   0  0  0  0  0  0  0  0  0  0  0  0
  2  1  1  0
  3  2  2  0
  4  3  1  0
  5  4  2  0
  5 11  1  0
  6  5  1  0
  7  9  1  0
  7  8  1  6
  7  6  1  0
  9 10  2  0
 11 12  2  0
 12  2  1  0
 14 13  1  0
 15 14  2  0
 16 14  1  0
 17 16  1  0
 18 17  1  0
 19 18  1  0
 20 19  1  6
 20 22  1  0
 21  9  1  0
 21 20  1  0
 22 29  1  0
 22 23  2  0
 25 24  1  1
 26 25  1  0
 27 25  1  0
 28 27  1  6
 28 30  1  0
 29 28  1  0
 30 31  2  0
 30 32  1  0
M  END
$$$$
