YRL.pdb
     RDKit          3D

 32 32  0  0  1  0  0  0  0  0999 V2000
   22.6847  -17.4340  -15.4558 O   0  0  0  0  0  0  0  0  0  0  0  0
   21.9703  -18.5368  -14.9963 C   0  0  0  0  0  0  0  0  0  0  0  0
   22.5088  -19.4684  -14.1395 C   0  0  0  0  0  0  0  0  0  0  0  0
   21.8059  -20.5576  -13.6846 C   0  0  0  0  0  0  0  0  0  0  0  0
   20.4966  -20.7584  -14.0848 C   0  0  0  0  0  0  0  0  0  0  0  0
   19.6628  -21.9041  -13.6454 C   0  0  0  0  0  0  0  0  0  0  0  0
   20.0675  -23.1224  -14.3999 C   0  0  2  0  0  0  0  0  0  0  0  0
   19.8754  -22.8980  -15.8155 N   0  0  0  0  0  0  0  0  0  0  0  0
   19.4213  -24.3534  -13.9316 C   0  0  0  0  0  0  0  0  0  0  0  0
   18.3182  -24.7767  -14.3648 O   0  0  0  0  0  0  0  0  0  0  0  0
   19.9581  -19.8026  -14.9580 C   0  0  0  0  0  0  0  0  0  0  0  0
   20.6749  -18.7228  -15.4009 C   0  0  0  0  0  0  0  0  0  0  0  0
   23.3403  -31.2953  -10.0738 N   0  0  0  0  0  0  0  0  0  0  0  0
   21.9514  -31.6736  -10.1624 C   0  0  0  0  0  0  0  0  0  0  0  0
   21.5583  -32.8645   -9.8587 N   0  0  0  0  0  0  0  0  0  0  0  0
   20.9665  -30.7446  -10.5896 N   0  0  0  0  0  0  0  0  0  0  0  0
   21.2617  -29.3854  -10.8872 C   0  0  0  0  0  0  0  0  0  0  0  0
   20.1420  -28.6099  -11.5281 C   0  0  0  0  0  0  0  0  0  0  0  0
   20.5908  -27.2013  -11.8485 C   0  0  0  0  0  0  0  0  0  0  0  0
   19.5028  -26.3865  -12.4666 C   0  0  2  0  0  0  0  0  0  0  0  0
   20.0650  -25.1283  -12.9292 N   0  0  0  0  0  0  0  0  0  0  0  0
   18.3864  -26.0981  -11.5566 C   0  0  0  0  0  0  0  0  0  0  0  0
   17.7468  -27.0861  -11.0516 O   0  0  0  0  0  0  0  0  0  0  0  0
   20.5432  -33.0733   -9.9699 C   0  0  0  0  0  0  0  0  0  0  0  0
   18.0721  -26.5369   -7.7914 C   0  0  2  0  0  0  0  0  0  0  0  0
   18.8242  -25.2569   -7.8454 C   0  0  0  0  0  0  0  0  0  0  0  0
   18.3418  -24.3794   -6.6648 C   0  0  0  0  0  0  0  0  0  0  0  0
   18.7284  -24.4257   -9.0503 C   0  0  2  0  0  0  0  0  0  0  0  0
   17.5074  -24.4764   -9.9155 N   0  0  0  0  0  0  0  0  0  0  0  0
   18.0449  -24.7669  -11.2609 C   0  0  0  0  0  0  0  0  0  0  0  0
   16.7188  -23.2439  -10.0316 O   0  0  0  0  0  0  0  0  0  0  0  0
   15.6738  -23.0287   -9.3933 O   0  0  0  0  0  0  0  0  0  0  0  0
  2  1  1  0
  3  2  2  0
  4  3  1  0
  5  4  2  0
  5 11  1  0
  6  5  1  0
  7  9  1  0
  7  8  1  6
  7  6  1  0
  9 10  2  0
 11 12  2  0
 12  2  1  0
 14 13  1  0
 15 14  2  0
 16 14  1  0
 17 16  1  0
 18 17  1  0
 19 18  1  0
 20 19  1  1
 20 22  1  0
 21  9  1  0
 21 20  1  0
 22 29  1  0
 22 23  2  0
 25 24  1  1
 26 25  1  0
 27 25  1  0
 28 27  1  1
 28 30  1  0
 29 28  1  0
 30 31  2  0
 30 32  1  0
M  END
$$$$
