YRL.pdb
     RDKit          3D

 32 32  0  0  1  0  0  0  0  0999 V2000
   31.1043  -17.4409  -19.6762 O   0  0  0  0  0  0  0  0  0  0  0  0
   30.3639  -17.5981  -18.5080 C   0  0  0  0  0  0  0  0  0  0  0  0
   30.1663  -18.8213  -17.9108 C   0  0  0  0  0  0  0  0  0  0  0  0
   29.4360  -18.9793  -16.7580 C   0  0  0  0  0  0  0  0  0  0  0  0
   28.8594  -17.8821  -16.1429 C   0  0  0  0  0  0  0  0  0  0  0  0
   28.0556  -17.9578  -14.8982 C   0  0  0  0  0  0  0  0  0  0  0  0
   26.9107  -18.8860  -15.1101 C   0  0  2  0  0  0  0  0  0  0  0  0
   26.1228  -18.4301  -16.2338 N   0  0  0  0  0  0  0  0  0  0  0  0
   26.1000  -19.1138  -13.9088 C   0  0  0  0  0  0  0  0  0  0  0  0
   25.3121  -18.2624  -13.4208 O   0  0  0  0  0  0  0  0  0  0  0  0
   29.0674  -16.6405  -16.7603 C   0  0  0  0  0  0  0  0  0  0  0  0
   29.7988  -16.5029  -17.9100 C   0  0  0  0  0  0  0  0  0  0  0  0
   19.9755  -20.2777  -14.8003 N   0  0  0  0  0  0  0  0  0  0  0  0
   20.0415  -21.1773  -13.6750 C   0  0  0  0  0  0  0  0  0  0  0  0
   19.1023  -22.0303  -13.4402 N   0  0  0  0  0  0  0  0  0  0  0  0
   21.1462  -21.1531  -12.7837 N   0  0  0  0  0  0  0  0  0  0  0  0
   22.3820  -20.5235  -13.0992 C   0  0  0  0  0  0  0  0  0  0  0  0
   23.4289  -21.4254  -13.6963 C   0  0  0  0  0  0  0  0  0  0  0  0
   24.4206  -21.8563  -12.6383 C   0  0  0  0  0  0  0  0  0  0  0  0
   25.2801  -20.7271  -12.1736 C   0  0  2  0  0  0  0  0  0  0  0  0
   26.1964  -20.3653  -13.2426 N   0  0  0  0  0  0  0  0  0  0  0  0
   26.0599  -21.0318  -10.9667 C   0  0  0  0  0  0  0  0  0  0  0  0
   26.8906  -22.0054  -11.0129 O   0  0  0  0  0  0  0  0  0  0  0  0
   19.2147  -22.6440  -12.6053 C   0  0  0  0  0  0  0  0  0  0  0  0
   27.4558  -18.8045   -5.4830 C   0  0  1  0  0  0  0  0  0  0  0  0
   27.4262  -19.9679   -6.4063 C   0  0  0  0  0  0  0  0  0  0  0  0
   28.8680  -20.5219   -6.5092 C   0  0  0  0  0  0  0  0  0  0  0  0
   26.9543  -19.7730   -7.7815 C   0  0  2  0  0  0  0  0  0  0  0  0
   26.2539  -20.8776   -8.5102 N   0  0  0  0  0  0  0  0  0  0  0  0
   25.8843  -20.2638   -9.8024 C   0  0  0  0  0  0  0  0  0  0  0  0
   25.0140  -21.3901   -7.9149 O   0  0  0  0  0  0  0  0  0  0  0  0
   23.8912  -20.8996   -8.1257 O   0  0  0  0  0  0  0  0  0  0  0  0
  2  1  1  0
  3  2  2  0
  4  3  1  0
  5  4  2  0
  5 11  1  0
  6  5  1  0
  7  9  1  0
  7  8  1  6
  7  6  1  0
  9 10  2  0
 11 12  2  0
 12  2  1  0
 14 13  1  0
 15 14  2  0
 16 14  1  0
 17 16  1  0
 18 17  1  0
 19 18  1  0
 20 19  1  6
 20 22  1  0
 21  9  1  0
 21 20  1  0
 22 29  1  0
 22 23  2  0
 25 24  1  1
 26 25  1  0
 27 25  1  0
 28 27  1  6
 28 30  1  0
 29 28  1  0
 30 31  2  0
 30 32  1  0
M  END
$$$$
