YRL.pdb
     RDKit          3D

 32 32  0  0  1  0  0  0  0  0999 V2000
   20.3610  -26.7371  -12.7526 O   0  0  0  0  0  0  0  0  0  0  0  0
   20.8038  -27.6472  -11.7968 C   0  0  0  0  0  0  0  0  0  0  0  0
   19.9475  -28.3201  -10.9566 C   0  0  0  0  0  0  0  0  0  0  0  0
   20.3818  -29.2187  -10.0125 C   0  0  0  0  0  0  0  0  0  0  0  0
   21.7327  -29.4834   -9.8723 C   0  0  0  0  0  0  0  0  0  0  0  0
   22.2915  -30.4362   -8.8819 C   0  0  0  0  0  0  0  0  0  0  0  0
   22.8850  -31.5976   -9.6003 C   0  0  2  0  0  0  0  0  0  0  0  0
   21.8684  -32.2356  -10.4069 N   0  0  0  0  0  0  0  0  0  0  0  0
   23.5853  -32.5435   -8.7243 C   0  0  0  0  0  0  0  0  0  0  0  0
   23.0320  -33.5267   -8.1667 O   0  0  0  0  0  0  0  0  0  0  0  0
   22.5961  -28.7918  -10.7340 C   0  0  0  0  0  0  0  0  0  0  0  0
   22.1441  -27.8993  -11.6693 C   0  0  0  0  0  0  0  0  0  0  0  0
   32.3493  -33.1518   -7.1569 N   0  0  0  0  0  0  0  0  0  0  0  0
   31.7581  -34.1996   -6.3615 C   0  0  0  0  0  0  0  0  0  0  0  0
   32.4676  -34.9106   -5.5517 N   0  0  0  0  0  0  0  0  0  0  0  0
   30.3699  -34.4855   -6.4446 N   0  0  0  0  0  0  0  0  0  0  0  0
   29.4772  -33.7543   -7.2761 C   0  0  0  0  0  0  0  0  0  0  0  0
   28.0162  -34.0511   -7.0681 C   0  0  0  0  0  0  0  0  0  0  0  0
   27.1657  -33.1560   -7.9420 C   0  0  0  0  0  0  0  0  0  0  0  0
   25.7145  -33.2442   -7.6012 C   0  0  2  0  0  0  0  0  0  0  0  0
   24.9723  -32.3546   -8.4793 N   0  0  0  0  0  0  0  0  0  0  0  0
   25.4092  -32.8945   -6.2076 C   0  0  0  0  0  0  0  0  0  0  0  0
   25.5254  -31.6696   -5.8519 O   0  0  0  0  0  0  0  0  0  0  0  0
   31.9835  -35.6850   -5.0493 C   0  0  0  0  0  0  0  0  0  0  0  0
   21.8785  -32.3926   -3.4791 C   0  0  1  0  0  0  0  0  0  0  0  0
   22.2969  -33.7681   -3.8531 C   0  0  0  0  0  0  0  0  0  0  0  0
   21.2705  -34.7530   -3.2422 C   0  0  0  0  0  0  0  0  0  0  0  0
   23.6242  -34.2430   -3.4476 C   0  0  2  0  0  0  0  0  0  0  0  0
   24.8589  -33.5162   -3.8825 N   0  0  0  0  0  0  0  0  0  0  0  0
   25.0023  -33.8918   -5.3044 C   0  0  0  0  0  0  0  0  0  0  0  0
   26.1170  -33.8797   -3.2196 O   0  0  0  0  0  0  0  0  0  0  0  0
   26.9018  -34.7423   -3.6506 O   0  0  0  0  0  0  0  0  0  0  0  0
  2  1  1  0
  3  2  2  0
  4  3  1  0
  5  4  2  0
  5 11  1  0
  6  5  1  0
  7  9  1  0
  7  8  1  1
  7  6  1  0
  9 10  2  0
 11 12  2  0
 12  2  1  0
 14 13  1  0
 15 14  2  0
 16 14  1  0
 17 16  1  0
 18 17  1  0
 19 18  1  0
 20 19  1  1
 20 22  1  0
 21  9  1  0
 21 20  1  0
 22 29  1  0
 22 23  2  0
 25 24  1  6
 26 25  1  0
 27 25  1  0
 28 27  1  6
 28 30  1  0
 29 28  1  0
 30 31  2  0
 30 32  1  0
M  END
$$$$
