YRL.pdb
     RDKit          3D

 32 32  0  0  1  0  0  0  0  0999 V2000
   28.1290  -20.0861   -3.4242 O   0  0  0  0  0  0  0  0  0  0  0  0
   27.9210  -19.9772   -4.7963 C   0  0  0  0  0  0  0  0  0  0  0  0
   26.9492  -20.6886   -5.4608 C   0  0  0  0  0  0  0  0  0  0  0  0
   26.7419  -20.5830   -6.8148 C   0  0  0  0  0  0  0  0  0  0  0  0
   27.5261  -19.7337   -7.5753 C   0  0  0  0  0  0  0  0  0  0  0  0
   27.3743  -19.5562   -9.0404 C   0  0  0  0  0  0  0  0  0  0  0  0
   27.3694  -20.8922   -9.6978 C   0  0  2  0  0  0  0  0  0  0  0  0
   28.5857  -21.5986   -9.3620 N   0  0  0  0  0  0  0  0  0  0  0  0
   27.1277  -20.8421  -11.1440 C   0  0  0  0  0  0  0  0  0  0  0  0
   28.0124  -20.5653  -11.9951 O   0  0  0  0  0  0  0  0  0  0  0  0
   28.5134  -19.0136   -6.8875 C   0  0  0  0  0  0  0  0  0  0  0  0
   28.7050  -19.1324   -5.5366 C   0  0  0  0  0  0  0  0  0  0  0  0
   23.6725  -25.5052  -14.0582 N   0  0  0  0  0  0  0  0  0  0  0  0
   23.8519  -25.4254  -15.4870 C   0  0  0  0  0  0  0  0  0  0  0  0
   23.1793  -26.1765  -16.2921 N   0  0  0  0  0  0  0  0  0  0  0  0
   24.7796  -24.5145  -16.0574 N   0  0  0  0  0  0  0  0  0  0  0  0
   25.2699  -23.3732  -15.3646 C   0  0  0  0  0  0  0  0  0  0  0  0
   24.2162  -22.4995  -14.7384 C   0  0  0  0  0  0  0  0  0  0  0  0
   24.5153  -22.2797  -13.2719 C   0  0  0  0  0  0  0  0  0  0  0  0
   25.5532  -21.2280  -13.0565 C   0  0  2  0  0  0  0  0  0  0  0  0
   25.8225  -21.1205  -11.6320 N   0  0  0  0  0  0  0  0  0  0  0  0
   25.1720  -19.9041  -13.5658 C   0  0  0  0  0  0  0  0  0  0  0  0
   24.3557  -19.2013  -12.8730 O   0  0  0  0  0  0  0  0  0  0  0  0
   23.4111  -26.1143  -17.3064 C   0  0  0  0  0  0  0  0  0  0  0  0
   27.7064  -15.8156  -17.2944 C   0  0  1  0  0  0  0  0  0  0  0  0
   26.5294  -16.2125  -16.4795 C   0  0  0  0  0  0  0  0  0  0  0  0
   26.3225  -15.1275  -15.3948 C   0  0  0  0  0  0  0  0  0  0  0  0
   26.5496  -17.5026  -15.7816 C   0  0  2  0  0  0  0  0  0  0  0  0
   25.2848  -18.0990  -15.2464 N   0  0  0  0  0  0  0  0  0  0  0  0
   25.6998  -19.4392  -14.7830 C   0  0  0  0  0  0  0  0  0  0  0  0
   24.1863  -18.3016  -16.1986 O   0  0  0  0  0  0  0  0  0  0  0  0
   23.3684  -17.4181  -16.5092 O   0  0  0  0  0  0  0  0  0  0  0  0
  2  1  1  0
  3  2  2  0
  4  3  1  0
  5  4  2  0
  5 11  1  0
  6  5  1  0
  7  9  1  0
  7  8  1  6
  7  6  1  0
  9 10  2  0
 11 12  2  0
 12  2  1  0
 14 13  1  0
 15 14  2  0
 16 14  1  0
 17 16  1  0
 18 17  1  0
 19 18  1  0
 20 19  1  1
 20 22  1  0
 21  9  1  0
 21 20  1  0
 22 29  1  0
 22 23  2  0
 25 24  1  6
 26 25  1  0
 27 25  1  0
 28 27  1  1
 28 30  1  0
 29 28  1  0
 30 31  2  0
 30 32  1  0
M  END
$$$$
