YRL.pdb
     RDKit          3D

 32 32  0  0  1  0  0  0  0  0999 V2000
   28.6059  -19.7190   -5.4882 O   0  0  0  0  0  0  0  0  0  0  0  0
   28.3295  -19.9127   -6.8387 C   0  0  0  0  0  0  0  0  0  0  0  0
   29.2903  -20.2872   -7.7490 C   0  0  0  0  0  0  0  0  0  0  0  0
   29.0203  -20.4789   -9.0823 C   0  0  0  0  0  0  0  0  0  0  0  0
   27.7369  -20.2966   -9.5663 C   0  0  0  0  0  0  0  0  0  0  0  0
   27.3539  -20.4805  -10.9877 C   0  0  0  0  0  0  0  0  0  0  0  0
   26.1850  -21.3998  -11.0652 C   0  0  2  0  0  0  0  0  0  0  0  0
   26.6175  -22.7526  -10.7928 N   0  0  0  0  0  0  0  0  0  0  0  0
   25.4260  -21.2918  -12.3159 C   0  0  0  0  0  0  0  0  0  0  0  0
   25.7560  -21.8593  -13.3896 O   0  0  0  0  0  0  0  0  0  0  0  0
   26.7657  -19.9150   -8.6295 C   0  0  0  0  0  0  0  0  0  0  0  0
   27.0543  -19.7285   -7.3037 C   0  0  0  0  0  0  0  0  0  0  0  0
   17.9610  -19.9944  -13.0837 N   0  0  0  0  0  0  0  0  0  0  0  0
   18.5645  -20.0129  -11.7740 C   0  0  0  0  0  0  0  0  0  0  0  0
   18.1448  -19.2408  -10.8293 N   0  0  0  0  0  0  0  0  0  0  0  0
   19.6461  -20.8843  -11.4798 N   0  0  0  0  0  0  0  0  0  0  0  0
   20.1309  -21.8547  -12.3999 C   0  0  0  0  0  0  0  0  0  0  0  0
   21.6105  -21.8004  -12.6712 C   0  0  0  0  0  0  0  0  0  0  0  0
   22.0038  -20.4327  -13.1841 C   0  0  0  0  0  0  0  0  0  0  0  0
   23.4507  -20.3573  -13.5452 C   0  0  2  0  0  0  0  0  0  0  0  0
   24.2436  -20.5037  -12.3356 N   0  0  0  0  0  0  0  0  0  0  0  0
   23.8324  -19.1047  -14.2108 C   0  0  0  0  0  0  0  0  0  0  0  0
   23.8661  -18.0332  -13.5101 O   0  0  0  0  0  0  0  0  0  0  0  0
   18.5925  -19.3465   -9.8940 C   0  0  0  0  0  0  0  0  0  0  0  0
   26.9362  -16.4890  -17.8927 C   0  0  1  0  0  0  0  0  0  0  0  0
   26.9668  -16.7981  -16.4400 C   0  0  0  0  0  0  0  0  0  0  0  0
   28.4187  -17.1919  -16.0747 C   0  0  0  0  0  0  0  0  0  0  0  0
   26.1017  -17.8630  -15.9208 C   0  0  1  0  0  0  0  0  0  0  0  0
   24.6265  -17.8381  -16.1756 N   0  0  0  0  0  0  0  0  0  0  0  0
   24.1482  -19.1032  -15.5806 C   0  0  0  0  0  0  0  0  0  0  0  0
   24.1902  -17.8376  -17.5771 O   0  0  0  0  0  0  0  0  0  0  0  0
   23.9566  -18.8702  -18.2291 O   0  0  0  0  0  0  0  0  0  0  0  0
  2  1  1  0
  3  2  2  0
  4  3  1  0
  5  4  2  0
  5 11  1  0
  6  5  1  0
  7  9  1  0
  7  8  1  6
  7  6  1  0
  9 10  2  0
 11 12  2  0
 12  2  1  0
 14 13  1  0
 15 14  2  0
 16 14  1  0
 17 16  1  0
 18 17  1  0
 19 18  1  0
 20 19  1  1
 20 22  1  0
 21  9  1  0
 21 20  1  0
 22 29  1  0
 22 23  2  0
 25 24  1  1
 26 25  1  0
 27 25  1  0
 28 27  1  1
 28 30  1  0
 29 28  1  0
 30 31  2  0
 30 32  1  0
M  END
$$$$
