YRL.pdb
     RDKit          3D

 32 32  0  0  1  0  0  0  0  0999 V2000
   19.4932  -23.4744  -10.1672 O   0  0  0  0  0  0  0  0  0  0  0  0
   20.5762  -22.6247  -10.3740 C   0  0  0  0  0  0  0  0  0  0  0  0
   21.0498  -21.7725   -9.4037 C   0  0  0  0  0  0  0  0  0  0  0  0
   22.1184  -20.9329   -9.6052 C   0  0  0  0  0  0  0  0  0  0  0  0
   22.7712  -20.9169  -10.8251 C   0  0  0  0  0  0  0  0  0  0  0  0
   23.9315  -20.0448  -11.1320 C   0  0  0  0  0  0  0  0  0  0  0  0
   25.1446  -20.8891  -11.3132 C   0  0  2  0  0  0  0  0  0  0  0  0
   25.5712  -21.4007  -10.0296 N   0  0  0  0  0  0  0  0  0  0  0  0
   26.2289  -20.2227  -12.0430 C   0  0  0  0  0  0  0  0  0  0  0  0
   27.1502  -19.5682  -11.4893 O   0  0  0  0  0  0  0  0  0  0  0  0
   22.2799  -21.7896  -11.8066 C   0  0  0  0  0  0  0  0  0  0  0  0
   21.2129  -22.6195  -11.5868 C   0  0  0  0  0  0  0  0  0  0  0  0
   28.3695  -22.5105  -18.9600 N   0  0  0  0  0  0  0  0  0  0  0  0
   27.8579  -23.6617  -18.2579 C   0  0  0  0  0  0  0  0  0  0  0  0
   27.1765  -24.5725  -18.8669 N   0  0  0  0  0  0  0  0  0  0  0  0
   28.0869  -23.8310  -16.8671 N   0  0  0  0  0  0  0  0  0  0  0  0
   28.6099  -22.8008  -16.0375 C   0  0  0  0  0  0  0  0  0  0  0  0
   27.5948  -21.8216  -15.5114 C   0  0  0  0  0  0  0  0  0  0  0  0
   28.2718  -20.7537  -14.6812 C   0  0  0  0  0  0  0  0  0  0  0  0
   27.3198  -19.6924  -14.2372 C   0  0  2  0  0  0  0  0  0  0  0  0
   26.2576  -20.3109  -13.4610 N   0  0  0  0  0  0  0  0  0  0  0  0
   26.7170  -18.9350  -15.3420 C   0  0  0  0  0  0  0  0  0  0  0  0
   25.6169  -19.3625  -15.8392 O   0  0  0  0  0  0  0  0  0  0  0  0
   26.8463  -25.3805  -18.2973 C   0  0  0  0  0  0  0  0  0  0  0  0
   24.5987  -14.5297  -16.8076 C   0  0  1  0  0  0  0  0  0  0  0  0
   25.8009  -14.7231  -15.9565 C   0  0  0  0  0  0  0  0  0  0  0  0
   26.4109  -13.3270  -15.6822 C   0  0  0  0  0  0  0  0  0  0  0  0
   26.8942  -15.5670  -16.4508 C   0  0  2  0  0  0  0  0  0  0  0  0
   26.6382  -16.9857  -16.8552 N   0  0  0  0  0  0  0  0  0  0  0  0
   27.3464  -17.7751  -15.8263 C   0  0  0  0  0  0  0  0  0  0  0  0
   27.1654  -17.4155  -18.1559 O   0  0  0  0  0  0  0  0  0  0  0  0
   28.2565  -17.9930  -18.3034 O   0  0  0  0  0  0  0  0  0  0  0  0
  2  1  1  0
  3  2  2  0
  4  3  1  0
  5  4  2  0
  5 11  1  0
  6  5  1  0
  7  9  1  0
  7  8  1  1
  7  6  1  0
  9 10  2  0
 11 12  2  0
 12  2  1  0
 14 13  1  0
 15 14  2  0
 16 14  1  0
 17 16  1  0
 18 17  1  0
 19 18  1  0
 20 19  1  6
 20 22  1  0
 21  9  1  0
 21 20  1  0
 22 29  1  0
 22 23  2  0
 25 24  1  1
 26 25  1  0
 27 25  1  0
 28 27  1  1
 28 30  1  0
 29 28  1  0
 30 31  2  0
 30 32  1  0
M  END
$$$$
