YRL.pdb
     RDKit          3D

 32 32  0  0  1  0  0  0  0  0999 V2000
   20.9848  -13.3660  -19.6645 O   0  0  0  0  0  0  0  0  0  0  0  0
   21.2056  -14.4186  -18.7808 C   0  0  0  0  0  0  0  0  0  0  0  0
   20.2040  -15.2656  -18.3666 C   0  0  0  0  0  0  0  0  0  0  0  0
   20.4193  -16.3051  -17.4946 C   0  0  0  0  0  0  0  0  0  0  0  0
   21.6862  -16.5404  -16.9905 C   0  0  0  0  0  0  0  0  0  0  0  0
   22.0110  -17.6371  -16.0456 C   0  0  0  0  0  0  0  0  0  0  0  0
   22.9421  -18.5932  -16.7061 C   0  0  2  0  0  0  0  0  0  0  0  0
   22.2847  -19.1973  -17.8437 N   0  0  0  0  0  0  0  0  0  0  0  0
   23.5180  -19.5878  -15.7942 C   0  0  0  0  0  0  0  0  0  0  0  0
   22.8805  -20.5692  -15.3313 O   0  0  0  0  0  0  0  0  0  0  0  0
   22.6993  -15.6710  -17.4196 C   0  0  0  0  0  0  0  0  0  0  0  0
   22.4652  -14.6397  -18.2898 C   0  0  0  0  0  0  0  0  0  0  0  0
   27.8144  -20.3871  -19.0226 N   0  0  0  0  0  0  0  0  0  0  0  0
   28.6676  -21.5325  -18.8226 C   0  0  0  0  0  0  0  0  0  0  0  0
   29.0684  -22.2537  -19.8146 N   0  0  0  0  0  0  0  0  0  0  0  0
   29.0958  -21.9068  -17.5218 N   0  0  0  0  0  0  0  0  0  0  0  0
   28.7100  -21.2033  -16.3474 C   0  0  0  0  0  0  0  0  0  0  0  0
   27.2332  -21.1999  -16.0559 C   0  0  0  0  0  0  0  0  0  0  0  0
   26.9516  -20.4667  -14.7631 C   0  0  0  0  0  0  0  0  0  0  0  0
   25.4907  -20.3820  -14.4661 C   0  0  2  0  0  0  0  0  0  0  0  0
   24.8762  -19.4518  -15.3991 N   0  0  0  0  0  0  0  0  0  0  0  0
   25.1871  -19.9463  -13.0966 C   0  0  0  0  0  0  0  0  0  0  0  0
   24.7000  -18.7738  -12.9287 O   0  0  0  0  0  0  0  0  0  0  0  0
   29.6638  -23.0798  -19.5924 C   0  0  0  0  0  0  0  0  0  0  0  0
   20.8078  -20.8419  -10.5233 C   0  0  1  0  0  0  0  0  0  0  0  0
   22.2037  -20.5007  -10.1468 C   0  0  0  0  0  0  0  0  0  0  0  0
   22.2177  -19.0223   -9.6879 C   0  0  0  0  0  0  0  0  0  0  0  0
   23.2648  -20.6367  -11.1505 C   0  0  2  0  0  0  0  0  0  0  0  0
   24.7056  -20.5519  -10.7521 N   0  0  0  0  0  0  0  0  0  0  0  0
   25.4320  -20.8078  -12.0131 C   0  0  0  0  0  0  0  0  0  0  0  0
   25.1887  -21.5376   -9.7776 O   0  0  0  0  0  0  0  0  0  0  0  0
   25.5936  -22.6723  -10.0843 O   0  0  0  0  0  0  0  0  0  0  0  0
  2  1  1  0
  3  2  2  0
  4  3  1  0
  5  4  2  0
  5 11  1  0
  6  5  1  0
  7  9  1  0
  7  8  1  6
  7  6  1  0
  9 10  2  0
 11 12  2  0
 12  2  1  0
 14 13  1  0
 15 14  2  0
 16 14  1  0
 17 16  1  0
 18 17  1  0
 19 18  1  0
 20 19  1  1
 20 22  1  0
 21  9  1  0
 21 20  1  0
 22 29  1  0
 22 23  2  0
 25 24  1  1
 26 25  1  0
 27 25  1  0
 28 27  1  6
 28 30  1  0
 29 28  1  0
 30 31  2  0
 30 32  1  0
M  END
$$$$
