YRL.pdb
     RDKit          3D

 32 32  0  0  1  0  0  0  0  0999 V2000
   21.0529  -15.6727  -18.5513 O   0  0  0  0  0  0  0  0  0  0  0  0
   21.4357  -16.5215  -17.5165 C   0  0  0  0  0  0  0  0  0  0  0  0
   20.5992  -17.4784  -16.9904 C   0  0  0  0  0  0  0  0  0  0  0  0
   20.9745  -18.3172  -15.9693 C   0  0  0  0  0  0  0  0  0  0  0  0
   22.2418  -18.2241  -15.4214 C   0  0  0  0  0  0  0  0  0  0  0  0
   22.7325  -19.0863  -14.3183 C   0  0  0  0  0  0  0  0  0  0  0  0
   23.7427  -20.0400  -14.8542 C   0  0  2  0  0  0  0  0  0  0  0  0
   23.0895  -20.9981  -15.7183 N   0  0  0  0  0  0  0  0  0  0  0  0
   24.5623  -20.6808  -13.8200 C   0  0  0  0  0  0  0  0  0  0  0  0
   24.1086  -21.4751  -12.9557 O   0  0  0  0  0  0  0  0  0  0  0  0
   23.0857  -17.2454  -15.9654 C   0  0  0  0  0  0  0  0  0  0  0  0
   22.6934  -16.4179  -16.9838 C   0  0  0  0  0  0  0  0  0  0  0  0
   30.6455  -20.4088   -9.7097 N   0  0  0  0  0  0  0  0  0  0  0  0
   31.5894  -21.3503  -10.2597 C   0  0  0  0  0  0  0  0  0  0  0  0
   32.4585  -21.9445   -9.5138 N   0  0  0  0  0  0  0  0  0  0  0  0
   31.5945  -21.6550  -11.6463 N   0  0  0  0  0  0  0  0  0  0  0  0
   30.6079  -21.1706  -12.5491 C   0  0  0  0  0  0  0  0  0  0  0  0
   29.1857  -21.2855  -12.0693 C   0  0  0  0  0  0  0  0  0  0  0  0
   28.2308  -20.7538  -13.1151 C   0  0  0  0  0  0  0  0  0  0  0  0
   26.8017  -20.9323  -12.7208 C   0  0  2  0  0  0  0  0  0  0  0  0
   25.9548  -20.4004  -13.7759 N   0  0  0  0  0  0  0  0  0  0  0  0
   26.4480  -20.2752  -11.4556 C   0  0  0  0  0  0  0  0  0  0  0  0
   26.3050  -19.0025  -11.4541 O   0  0  0  0  0  0  0  0  0  0  0  0
   33.1445  -22.5698   -9.9880 C   0  0  0  0  0  0  0  0  0  0  0  0
   24.8409  -20.6141   -6.0501 C   0  0  1  0  0  0  0  0  0  0  0  0
   24.0586  -20.5654   -7.3120 C   0  0  0  0  0  0  0  0  0  0  0  0
   22.8140  -21.4674   -7.1274 C   0  0  0  0  0  0  0  0  0  0  0  0
   24.6987  -20.9874   -8.5627 C   0  0  1  0  0  0  0  0  0  0  0  0
   25.9545  -20.3243   -9.0370 N   0  0  0  0  0  0  0  0  0  0  0  0
   26.2757  -21.0404  -10.2890 C   0  0  0  0  0  0  0  0  0  0  0  0
   27.1355  -20.4331   -8.1721 O   0  0  0  0  0  0  0  0  0  0  0  0
   27.9460  -21.3745   -8.2233 O   0  0  0  0  0  0  0  0  0  0  0  0
  2  1  1  0
  3  2  2  0
  4  3  1  0
  5  4  2  0
  5 11  1  0
  6  5  1  0
  7  9  1  0
  7  8  1  1
  7  6  1  0
  9 10  2  0
 11 12  2  0
 12  2  1  0
 14 13  1  0
 15 14  2  0
 16 14  1  0
 17 16  1  0
 18 17  1  0
 19 18  1  0
 20 19  1  6
 20 22  1  0
 21  9  1  0
 21 20  1  0
 22 29  1  0
 22 23  2  0
 25 24  1  1
 26 25  1  0
 27 25  1  0
 28 27  1  6
 28 30  1  0
 29 28  1  0
 30 31  2  0
 30 32  1  0
M  END
$$$$
