YRL.pdb
     RDKit          3D

 32 32  0  0  1  0  0  0  0  0999 V2000
   20.7525  -22.8834   -6.1879 O   0  0  0  0  0  0  0  0  0  0  0  0
   21.4277  -22.2168   -7.2064 C   0  0  0  0  0  0  0  0  0  0  0  0
   22.5263  -21.4220   -6.9755 C   0  0  0  0  0  0  0  0  0  0  0  0
   23.1945  -20.7631   -7.9788 C   0  0  0  0  0  0  0  0  0  0  0  0
   22.7721  -20.8809   -9.2912 C   0  0  0  0  0  0  0  0  0  0  0  0
   23.4309  -20.2068  -10.4369 C   0  0  0  0  0  0  0  0  0  0  0  0
   24.3615  -21.1626  -11.0985 C   0  0  2  0  0  0  0  0  0  0  0  0
   25.6494  -21.1126  -10.4429 N   0  0  0  0  0  0  0  0  0  0  0  0
   24.4614  -20.9854  -12.5514 C   0  0  0  0  0  0  0  0  0  0  0  0
   25.3681  -20.3213  -13.1177 O   0  0  0  0  0  0  0  0  0  0  0  0
   21.6515  -21.6935   -9.5148 C   0  0  0  0  0  0  0  0  0  0  0  0
   20.9983  -22.3427   -8.5011 C   0  0  0  0  0  0  0  0  0  0  0  0
   28.4202  -23.5995  -17.6727 N   0  0  0  0  0  0  0  0  0  0  0  0
   27.9129  -22.8149  -16.5741 C   0  0  0  0  0  0  0  0  0  0  0  0
   28.7028  -22.1421  -15.8072 N   0  0  0  0  0  0  0  0  0  0  0  0
   26.5214  -22.7577  -16.2979 N   0  0  0  0  0  0  0  0  0  0  0  0
   25.5491  -23.4478  -17.0735 C   0  0  0  0  0  0  0  0  0  0  0  0
   24.1175  -23.0906  -16.7754 C   0  0  0  0  0  0  0  0  0  0  0  0
   23.8957  -23.0000  -15.2818 C   0  0  0  0  0  0  0  0  0  0  0  0
   23.6244  -21.6019  -14.8329 C   0  0  2  0  0  0  0  0  0  0  0  0
   23.4850  -21.5933  -13.3860 N   0  0  0  0  0  0  0  0  0  0  0  0
   22.4178  -21.0108  -15.4267 C   0  0  0  0  0  0  0  0  0  0  0  0
   21.2773  -21.4024  -14.9955 O   0  0  0  0  0  0  0  0  0  0  0  0
   28.2625  -21.5655  -15.0588 C   0  0  0  0  0  0  0  0  0  0  0  0
   20.4843  -16.6175  -16.0313 C   0  0  2  0  0  0  0  0  0  0  0  0
   21.7159  -17.0058  -16.7656 C   0  0  0  0  0  0  0  0  0  0  0  0
   22.1066  -15.8231  -17.6848 C   0  0  0  0  0  0  0  0  0  0  0  0
   21.6915  -18.2031  -17.6127 C   0  0  2  0  0  0  0  0  0  0  0  0
   21.2878  -19.5290  -17.0462 N   0  0  0  0  0  0  0  0  0  0  0  0
   22.5333  -20.0431  -16.4398 C   0  0  0  0  0  0  0  0  0  0  0  0
   20.8265  -20.5490  -17.9955 O   0  0  0  0  0  0  0  0  0  0  0  0
   21.5730  -21.3933  -18.5205 O   0  0  0  0  0  0  0  0  0  0  0  0
  2  1  1  0
  3  2  2  0
  4  3  1  0
  5  4  2  0
  5 11  1  0
  6  5  1  0
  7  9  1  0
  7  8  1  1
  7  6  1  0
  9 10  2  0
 11 12  2  0
 12  2  1  0
 14 13  1  0
 15 14  2  0
 16 14  1  0
 17 16  1  0
 18 17  1  0
 19 18  1  0
 20 19  1  6
 20 22  1  0
 21  9  1  0
 21 20  1  0
 22 29  1  0
 22 23  2  0
 25 24  1  1
 26 25  1  0
 27 25  1  0
 28 27  1  1
 28 30  1  0
 29 28  1  0
 30 31  2  0
 30 32  1  0
M  END
$$$$
