YRL.pdb
     RDKit          3D

 32 32  0  0  1  0  0  0  0  0999 V2000
   29.5247  -20.4282   -7.5618 O   0  0  0  0  0  0  0  0  0  0  0  0
   28.6352  -20.3845   -8.6316 C   0  0  0  0  0  0  0  0  0  0  0  0
   27.3087  -20.0516   -8.4838 C   0  0  0  0  0  0  0  0  0  0  0  0
   26.4287  -20.0078   -9.5379 C   0  0  0  0  0  0  0  0  0  0  0  0
   26.8604  -20.3053  -10.8185 C   0  0  0  0  0  0  0  0  0  0  0  0
   25.9825  -20.2840  -12.0142 C   0  0  0  0  0  0  0  0  0  0  0  0
   25.1721  -21.5326  -12.0493 C   0  0  2  0  0  0  0  0  0  0  0  0
   26.0097  -22.6390  -12.4562 N   0  0  0  0  0  0  0  0  0  0  0  0
   23.9499  -21.4255  -12.8537 C   0  0  0  0  0  0  0  0  0  0  0  0
   23.9155  -21.5736  -14.1030 O   0  0  0  0  0  0  0  0  0  0  0  0
   28.2142  -20.6431  -10.9572 C   0  0  0  0  0  0  0  0  0  0  0  0
   29.0765  -20.6815   -9.8939 C   0  0  0  0  0  0  0  0  0  0  0  0
   17.0858  -24.6788   -9.5875 N   0  0  0  0  0  0  0  0  0  0  0  0
   18.3916  -24.2139   -9.1890 C   0  0  0  0  0  0  0  0  0  0  0  0
   18.7747  -24.2596   -7.9578 N   0  0  0  0  0  0  0  0  0  0  0  0
   19.3023  -23.6872  -10.1423 N   0  0  0  0  0  0  0  0  0  0  0  0
   19.1286  -23.8398  -11.5457 C   0  0  0  0  0  0  0  0  0  0  0  0
   20.2213  -23.2501  -12.3966 C   0  0  0  0  0  0  0  0  0  0  0  0
   20.4185  -21.7876  -12.0643 C   0  0  0  0  0  0  0  0  0  0  0  0
   21.4592  -21.1467  -12.9222 C   0  0  2  0  0  0  0  0  0  0  0  0
   22.7210  -21.1381  -12.2005 N   0  0  0  0  0  0  0  0  0  0  0  0
   21.1349  -19.7709  -13.3219 C   0  0  0  0  0  0  0  0  0  0  0  0
   21.2981  -18.8365  -12.4614 O   0  0  0  0  0  0  0  0  0  0  0  0
   19.7165  -23.8711   -7.7377 C   0  0  0  0  0  0  0  0  0  0  0  0
   20.7142  -16.7652  -18.5870 C   0  0  1  0  0  0  0  0  0  0  0  0
   20.8994  -16.7294  -17.1135 C   0  0  0  0  0  0  0  0  0  0  0  0
   22.2208  -15.9762  -16.8250 C   0  0  0  0  0  0  0  0  0  0  0  0
   20.9696  -17.9945  -16.3743 C   0  0  2  0  0  0  0  0  0  0  0  0
   20.4122  -18.0990  -14.9886 N   0  0  0  0  0  0  0  0  0  0  0  0
   20.6594  -19.5079  -14.6184 C   0  0  0  0  0  0  0  0  0  0  0  0
   18.9720  -17.8654  -14.8281 O   0  0  0  0  0  0  0  0  0  0  0  0
   18.1067  -18.7434  -14.9892 O   0  0  0  0  0  0  0  0  0  0  0  0
  2  1  1  0
  3  2  2  0
  4  3  1  0
  5  4  2  0
  5 11  1  0
  6  5  1  0
  7  9  1  0
  7  8  1  6
  7  6  1  0
  9 10  2  0
 11 12  2  0
 12  2  1  0
 14 13  1  0
 15 14  2  0
 16 14  1  0
 17 16  1  0
 18 17  1  0
 19 18  1  0
 20 19  1  1
 20 22  1  0
 21  9  1  0
 21 20  1  0
 22 29  1  0
 22 23  2  0
 25 24  1  1
 26 25  1  0
 27 25  1  0
 28 27  1  1
 28 30  1  0
 29 28  1  0
 30 31  2  0
 30 32  1  0
M  END
$$$$
