WQE.pdb
     RDKit          3D

 33 34  0  0  1  0  0  0  0  0999 V2000
   21.0508  -12.9467  -19.1081 N   0  0  0  0  0  0  0  0  0  0  0  0
   20.4550  -11.6584  -18.8187 C   0  0  1  0  0  0  0  0  0  0  0  0
   19.5999  -11.6994  -17.5747 C   0  0  0  0  0  0  0  0  0  0  0  0
   18.3414  -12.4483  -17.7751 C   0  0  0  0  0  0  0  0  0  0  0  0
   17.4915  -12.3449  -18.8507 C   0  0  0  0  0  0  0  0  0  0  0  0
   16.4589  -13.1972  -18.6470 N   0  0  0  0  0  0  0  0  0  0  0  0
   16.5924  -13.8520  -17.4916 C   0  0  0  0  0  0  0  0  0  0  0  0
   15.8375  -14.7987  -16.8430 C   0  0  0  0  0  0  0  0  0  0  0  0
   16.2300  -15.3184  -15.6178 C   0  0  0  0  0  0  0  0  0  0  0  0
   17.4045  -14.8503  -15.0753 C   0  0  0  0  0  0  0  0  0  0  0  0
   18.1631  -13.8961  -15.7314 C   0  0  0  0  0  0  0  0  0  0  0  0
   17.7852  -13.3813  -16.9334 C   0  0  0  0  0  0  0  0  0  0  0  0
   21.5900  -10.7246  -18.5152 C   0  0  0  0  0  0  0  0  0  0  0  0
   22.7848  -11.0533  -18.7645 O   0  0  0  0  0  0  0  0  0  0  0  0
   25.0693   -8.3503  -21.2118 N   0  0  0  0  0  0  0  0  0  0  0  0
   25.4105   -7.4899  -20.1013 C   0  0  0  0  0  0  0  0  0  0  0  0
   26.4214   -6.8020  -20.2596 O   0  0  0  0  0  0  0  0  0  0  0  0
   24.5283   -7.5340  -18.9309 C   0  0  0  0  0  0  0  0  0  0  0  0
   23.3957   -8.4748  -18.9459 C   0  0  0  0  0  0  0  0  0  0  0  0
   22.4184   -8.4285  -17.8290 C   0  0  2  0  0  0  0  0  0  0  0  0
   21.3917   -9.4420  -17.9415 N   0  0  0  0  0  0  0  0  0  0  0  0
   21.9379   -7.1048  -17.4098 C   0  0  0  0  0  0  0  0  0  0  0  0
   21.3945   -6.3867  -18.3044 O   0  0  0  0  0  0  0  0  0  0  0  0
   22.0340   -6.5841  -16.1150 N   0  0  0  0  0  0  0  0  0  0  0  0
   21.3707   -5.3501  -15.6710 C   0  0  1  0  0  0  0  0  0  0  0  0
   20.5211   -5.6003  -14.4836 C   0  0  0  0  0  0  0  0  0  0  0  0
   19.2891   -6.3763  -14.8283 C   0  0  0  0  0  0  0  0  0  0  0  0
   18.4503   -6.7563  -13.6798 C   0  0  0  0  0  0  0  0  0  0  0  0
   18.2475   -6.0626  -12.6582 O   0  0  0  0  0  0  0  0  0  0  0  0
   22.4522   -4.3976  -15.3434 C   0  0  0  0  0  0  0  0  0  0  0  0
   23.6603   -4.7860  -15.4295 O   0  0  0  0  0  0  0  0  0  0  0  0
   17.8002   -8.0064  -13.6948 O   0  0  0  0  0  0  0  0  0  0  0  0
   22.1868   -3.0997  -14.9499 O   0  0  0  0  0  0  0  0  0  0  0  0
  2  1  1  1
  3  2  1  0
  4  3  1  0
  4  5  2  0
  6  5  1  0
  7 12  2  0
  7  6  1  0
  8  7  1  0
  9 10  1  0
  9  8  2  0
 10 11  2  0
 11 12  1  0
 12  4  1  0
 13 14  2  0
 13  2  1  0
 15 16  1  0
 16 17  2  0
 18 19  1  0
 18 16  1  0
 20 19  1  6
 20 21  1  0
 21 13  1  0
 22 20  1  0
 23 22  2  0
 24 22  1  0
 25 26  1  1
 25 24  1  0
 26 27  1  0
 27 28  1  0
 28 29  2  0
 28 32  1  0
 30 25  1  0
 31 30  2  0
 33 30  1  0
M  END
$$$$
