WQE.pdb
     RDKit          3D

 33 34  0  0  1  0  0  0  0  0999 V2000
   25.9033  -20.2799  -16.8562 N   0  0  0  0  0  0  0  0  0  0  0  0
   25.8763  -19.3795  -15.7218 C   0  0  1  0  0  0  0  0  0  0  0  0
   25.1690  -18.0853  -16.0460 C   0  0  0  0  0  0  0  0  0  0  0  0
   25.8871  -17.2841  -17.0596 C   0  0  0  0  0  0  0  0  0  0  0  0
   25.3214  -16.4339  -17.9799 C   0  0  0  0  0  0  0  0  0  0  0  0
   26.3215  -15.8981  -18.7195 N   0  0  0  0  0  0  0  0  0  0  0  0
   27.5123  -16.3563  -18.3276 C   0  0  0  0  0  0  0  0  0  0  0  0
   28.8017  -16.1290  -18.7429 C   0  0  0  0  0  0  0  0  0  0  0  0
   29.8770  -16.7612  -18.1353 C   0  0  0  0  0  0  0  0  0  0  0  0
   29.6044  -17.6255  -17.1001 C   0  0  0  0  0  0  0  0  0  0  0  0
   28.3038  -17.8526  -16.6838 C   0  0  0  0  0  0  0  0  0  0  0  0
   27.2436  -17.2364  -17.2745 C   0  0  0  0  0  0  0  0  0  0  0  0
   25.0512  -20.0534  -14.6647 C   0  0  0  0  0  0  0  0  0  0  0  0
   24.1926  -20.9287  -14.9720 O   0  0  0  0  0  0  0  0  0  0  0  0
   26.1648  -22.5537   -9.9859 N   0  0  0  0  0  0  0  0  0  0  0  0
   27.0521  -21.4722  -10.3506 C   0  0  0  0  0  0  0  0  0  0  0  0
   28.2553  -21.7329  -10.2831 O   0  0  0  0  0  0  0  0  0  0  0  0
   26.4282  -20.2076  -10.7525 C   0  0  0  0  0  0  0  0  0  0  0  0
   24.9626  -20.1646  -10.8881 C   0  0  0  0  0  0  0  0  0  0  0  0
   24.3685  -20.3315  -12.2386 C   0  0  2  0  0  0  0  0  0  0  0  0
   25.1845  -19.7529  -13.2843 N   0  0  0  0  0  0  0  0  0  0  0  0
   22.9258  -20.0886  -12.3738 C   0  0  0  0  0  0  0  0  0  0  0  0
   22.5487  -18.8766  -12.3610 O   0  0  0  0  0  0  0  0  0  0  0  0
   21.9498  -21.0811  -12.5133 N   0  0  0  0  0  0  0  0  0  0  0  0
   20.5923  -20.8372  -13.0208 C   0  0  1  0  0  0  0  0  0  0  0  0
   20.6287  -20.2944  -14.3986 C   0  0  0  0  0  0  0  0  0  0  0  0
   19.2590  -19.9908  -14.9187 C   0  0  0  0  0  0  0  0  0  0  0  0
   19.2177  -19.4507  -16.2875 C   0  0  0  0  0  0  0  0  0  0  0  0
   20.2051  -19.2689  -17.0344 O   0  0  0  0  0  0  0  0  0  0  0  0
   19.9038  -22.1447  -12.9966 C   0  0  0  0  0  0  0  0  0  0  0  0
   20.5222  -23.1730  -13.4188 O   0  0  0  0  0  0  0  0  0  0  0  0
   17.9722  -19.0944  -16.8421 O   0  0  0  0  0  0  0  0  0  0  0  0
   18.6112  -22.2801  -12.5267 O   0  0  0  0  0  0  0  0  0  0  0  0
  2  1  1  6
  3  2  1  0
  4  3  1  0
  4  5  2  0
  6  5  1  0
  7 12  2  0
  7  6  1  0
  8  7  1  0
  9 10  1  0
  9  8  2  0
 10 11  2  0
 11 12  1  0
 12  4  1  0
 13 14  2  0
 13  2  1  0
 15 16  1  0
 16 17  2  0
 18 19  1  0
 18 16  1  0
 20 19  1  1
 20 21  1  0
 21 13  1  0
 22 20  1  0
 23 22  2  0
 24 22  1  0
 25 26  1  6
 25 24  1  0
 26 27  1  0
 27 28  1  0
 28 29  2  0
 28 32  1  0
 30 25  1  0
 31 30  2  0
 33 30  1  0
M  END
$$$$
