WQE.pdb
     RDKit          3D

 33 34  0  0  1  0  0  0  0  0999 V2000
   24.4506  -13.3487  -18.0817 N   0  0  0  0  0  0  0  0  0  0  0  0
   23.3164  -13.3284  -17.1808 C   0  0  1  0  0  0  0  0  0  0  0  0
   23.7407  -13.4576  -15.7373 C   0  0  0  0  0  0  0  0  0  0  0  0
   24.2130  -14.8180  -15.4038 C   0  0  0  0  0  0  0  0  0  0  0  0
   25.4306  -15.1493  -14.8582 C   0  0  0  0  0  0  0  0  0  0  0  0
   25.4667  -16.4951  -14.7105 N   0  0  0  0  0  0  0  0  0  0  0  0
   24.3329  -17.0589  -15.1327 C   0  0  0  0  0  0  0  0  0  0  0  0
   23.8818  -18.3549  -15.1951 C   0  0  0  0  0  0  0  0  0  0  0  0
   22.6234  -18.6569  -15.6954 C   0  0  0  0  0  0  0  0  0  0  0  0
   21.8426  -17.6098  -16.1275 C   0  0  0  0  0  0  0  0  0  0  0  0
   22.3001  -16.3047  -16.0634 C   0  0  0  0  0  0  0  0  0  0  0  0
   23.5331  -16.0000  -15.5740 C   0  0  0  0  0  0  0  0  0  0  0  0
   22.6936  -11.9694  -17.3133 C   0  0  0  0  0  0  0  0  0  0  0  0
   23.4064  -10.9468  -17.5231 O   0  0  0  0  0  0  0  0  0  0  0  0
   16.6088  -10.8208  -18.8238 N   0  0  0  0  0  0  0  0  0  0  0  0
   17.1139   -9.4821  -18.6178 C   0  0  0  0  0  0  0  0  0  0  0  0
   16.3044   -8.5760  -18.8276 O   0  0  0  0  0  0  0  0  0  0  0  0
   18.5108   -9.3573  -18.1900 C   0  0  0  0  0  0  0  0  0  0  0  0
   19.2762  -10.5898  -17.9381 C   0  0  0  0  0  0  0  0  0  0  0  0
   20.6472  -10.4736  -17.3801 C   0  0  2  0  0  0  0  0  0  0  0  0
   21.2940  -11.7572  -17.2129 N   0  0  0  0  0  0  0  0  0  0  0  0
   20.8440   -9.5322  -16.2692 C   0  0  0  0  0  0  0  0  0  0  0  0
   20.9055  -10.0316  -15.1038 O   0  0  0  0  0  0  0  0  0  0  0  0
   20.9666   -8.1448  -16.3991 N   0  0  0  0  0  0  0  0  0  0  0  0
   21.1777   -7.2264  -15.2714 C   0  0  1  0  0  0  0  0  0  0  0  0
   21.5086   -5.8639  -15.7494 C   0  0  0  0  0  0  0  0  0  0  0  0
   21.7573   -4.9170  -14.6179 C   0  0  0  0  0  0  0  0  0  0  0  0
   22.1034   -3.5436  -15.0192 C   0  0  0  0  0  0  0  0  0  0  0  0
   22.2373   -3.1345  -16.1942 O   0  0  0  0  0  0  0  0  0  0  0  0
   19.9120   -7.2151  -14.5085 C   0  0  0  0  0  0  0  0  0  0  0  0
   18.8124   -7.3114  -15.1406 O   0  0  0  0  0  0  0  0  0  0  0  0
   22.3104   -2.5731  -14.0187 O   0  0  0  0  0  0  0  0  0  0  0  0
   19.8913   -7.1057  -13.1310 O   0  0  0  0  0  0  0  0  0  0  0  0
  2  1  1  6
  3  2  1  0
  4  3  1  0
  4  5  2  0
  6  5  1  0
  7 12  2  0
  7  6  1  0
  8  7  1  0
  9 10  1  0
  9  8  2  0
 10 11  2  0
 11 12  1  0
 12  4  1  0
 13 14  2  0
 13  2  1  0
 15 16  1  0
 16 17  2  0
 18 19  1  0
 18 16  1  0
 20 19  1  1
 20 21  1  0
 21 13  1  0
 22 20  1  0
 23 22  2  0
 24 22  1  0
 25 26  1  6
 25 24  1  0
 26 27  1  0
 27 28  1  0
 28 29  2  0
 28 32  1  0
 30 25  1  0
 31 30  2  0
 33 30  1  0
M  END
$$$$
