WQE.pdb
     RDKit          3D

 33 34  0  0  1  0  0  0  0  0999 V2000
   27.9340  -20.5235  -12.5949 N   0  0  0  0  0  0  0  0  0  0  0  0
   27.0453  -21.2768  -11.7340 C   0  0  1  0  0  0  0  0  0  0  0  0
   26.7873  -20.5638  -10.4280 C   0  0  0  0  0  0  0  0  0  0  0  0
   28.0059  -20.4337   -9.6016 C   0  0  0  0  0  0  0  0  0  0  0  0
   29.2839  -20.7815   -9.9699 C   0  0  0  0  0  0  0  0  0  0  0  0
   30.1054  -20.5048   -8.9294 N   0  0  0  0  0  0  0  0  0  0  0  0
   29.4271  -19.9936   -7.8998 C   0  0  0  0  0  0  0  0  0  0  0  0
   29.7858  -19.5598   -6.6468 C   0  0  0  0  0  0  0  0  0  0  0  0
   28.8430  -19.0617   -5.7589 C   0  0  0  0  0  0  0  0  0  0  0  0
   27.5339  -19.0180   -6.1797 C   0  0  0  0  0  0  0  0  0  0  0  0
   27.1754  -19.4559   -7.4431 C   0  0  0  0  0  0  0  0  0  0  0  0
   28.0941  -19.9458   -8.3200 C   0  0  0  0  0  0  0  0  0  0  0  0
   25.7239  -21.3432  -12.4422 C   0  0  0  0  0  0  0  0  0  0  0  0
   25.1767  -20.2971  -12.8940 O   0  0  0  0  0  0  0  0  0  0  0  0
   23.6258  -26.6282  -15.2772 N   0  0  0  0  0  0  0  0  0  0  0  0
   22.5342  -25.7204  -15.5493 C   0  0  0  0  0  0  0  0  0  0  0  0
   21.6291  -26.1802  -16.2491 O   0  0  0  0  0  0  0  0  0  0  0  0
   22.6276  -24.3763  -14.9707 C   0  0  0  0  0  0  0  0  0  0  0  0
   23.7720  -24.0713  -14.0958 C   0  0  0  0  0  0  0  0  0  0  0  0
   23.8740  -22.7121  -13.5068 C   0  0  2  0  0  0  0  0  0  0  0  0
   25.0246  -22.5617  -12.6423 N   0  0  0  0  0  0  0  0  0  0  0  0
   22.6361  -22.1034  -13.0008 C   0  0  0  0  0  0  0  0  0  0  0  0
   22.2844  -22.4228  -11.8237 O   0  0  0  0  0  0  0  0  0  0  0  0
   21.8271  -21.2100  -13.7109 N   0  0  0  0  0  0  0  0  0  0  0  0
   20.5731  -20.6438  -13.1945 C   0  0  1  0  0  0  0  0  0  0  0  0
   20.1145  -19.5128  -14.0341 C   0  0  0  0  0  0  0  0  0  0  0  0
   18.8804  -18.8697  -13.4840 C   0  0  0  0  0  0  0  0  0  0  0  0
   18.3546  -17.7482  -14.2795 C   0  0  0  0  0  0  0  0  0  0  0  0
   18.5835  -16.5347  -14.0774 O   0  0  0  0  0  0  0  0  0  0  0  0
   19.5852  -21.7426  -13.2201 C   0  0  0  0  0  0  0  0  0  0  0  0
   19.6586  -22.6139  -14.1439 O   0  0  0  0  0  0  0  0  0  0  0  0
   17.5140  -18.0257  -15.3759 O   0  0  0  0  0  0  0  0  0  0  0  0
   18.5885  -21.8498  -12.2688 O   0  0  0  0  0  0  0  0  0  0  0  0
  2  1  1  6
  3  2  1  0
  4  3  1  0
  4  5  2  0
  6  5  1  0
  7 12  2  0
  7  6  1  0
  8  7  1  0
  9 10  1  0
  9  8  2  0
 10 11  2  0
 11 12  1  0
 12  4  1  0
 13 14  2  0
 13  2  1  0
 15 16  1  0
 16 17  2  0
 18 19  1  0
 18 16  1  0
 20 19  1  1
 20 21  1  0
 21 13  1  0
 22 20  1  0
 23 22  2  0
 24 22  1  0
 25 26  1  6
 25 24  1  0
 26 27  1  0
 27 28  1  0
 28 29  2  0
 28 32  1  0
 30 25  1  0
 31 30  2  0
 33 30  1  0
M  END
$$$$
