WQE.pdb
     RDKit          3D

 33 34  0  0  1  0  0  0  0  0999 V2000
   23.2466  -19.5938  -16.6239 N   0  0  0  0  0  0  0  0  0  0  0  0
   22.0805  -18.7394  -16.7173 C   0  0  1  0  0  0  0  0  0  0  0  0
   21.3962  -18.8641  -18.0576 C   0  0  0  0  0  0  0  0  0  0  0  0
   22.2586  -18.4325  -19.1779 C   0  0  0  0  0  0  0  0  0  0  0  0
   23.0295  -19.2447  -19.9755 C   0  0  0  0  0  0  0  0  0  0  0  0
   23.6635  -18.4588  -20.8780 N   0  0  0  0  0  0  0  0  0  0  0  0
   23.3449  -17.1737  -20.7093 C   0  0  0  0  0  0  0  0  0  0  0  0
   23.7082  -16.0128  -21.3473 C   0  0  0  0  0  0  0  0  0  0  0  0
   23.2063  -14.7827  -20.9471 C   0  0  0  0  0  0  0  0  0  0  0  0
   22.3301  -14.7679  -19.8865 C   0  0  0  0  0  0  0  0  0  0  0  0
   21.9658  -15.9396  -19.2455 C   0  0  0  0  0  0  0  0  0  0  0  0
   22.4536  -17.1502  -19.6319 C   0  0  0  0  0  0  0  0  0  0  0  0
   21.1010  -19.2455  -15.6991 C   0  0  0  0  0  0  0  0  0  0  0  0
   21.0925  -20.4621  -15.3560 O   0  0  0  0  0  0  0  0  0  0  0  0
   16.7467  -16.4792  -12.3325 N   0  0  0  0  0  0  0  0  0  0  0  0
   17.9103  -15.7392  -12.7662 C   0  0  0  0  0  0  0  0  0  0  0  0
   17.7756  -14.5138  -12.7913 O   0  0  0  0  0  0  0  0  0  0  0  0
   19.0997  -16.5195  -13.1218 C   0  0  0  0  0  0  0  0  0  0  0  0
   19.0605  -17.9787  -12.9283 C   0  0  0  0  0  0  0  0  0  0  0  0
   19.1541  -18.8568  -14.1219 C   0  0  2  0  0  0  0  0  0  0  0  0
   20.1452  -18.4035  -15.0738 N   0  0  0  0  0  0  0  0  0  0  0  0
   17.8932  -19.3220  -14.7156 C   0  0  0  0  0  0  0  0  0  0  0  0
   17.9230  -19.6297  -15.9468 O   0  0  0  0  0  0  0  0  0  0  0  0
   16.6784  -19.4489  -14.0337 N   0  0  0  0  0  0  0  0  0  0  0  0
   15.7002  -20.5169  -14.2833 C   0  0  1  0  0  0  0  0  0  0  0  0
   16.3014  -21.8522  -14.0599 C   0  0  0  0  0  0  0  0  0  0  0  0
   15.2939  -22.9506  -14.1914 C   0  0  0  0  0  0  0  0  0  0  0  0
   15.8255  -24.3100  -14.0001 C   0  0  0  0  0  0  0  0  0  0  0  0
   16.9771  -24.5983  -13.6045 O   0  0  0  0  0  0  0  0  0  0  0  0
   14.5881  -20.2843  -13.3381 C   0  0  0  0  0  0  0  0  0  0  0  0
   14.8510  -19.8302  -12.1794 O   0  0  0  0  0  0  0  0  0  0  0  0
   14.9927  -25.4124  -14.2769 O   0  0  0  0  0  0  0  0  0  0  0  0
   13.2742  -20.5436  -13.6795 O   0  0  0  0  0  0  0  0  0  0  0  0
  2  1  1  6
  3  2  1  0
  4  3  1  0
  4  5  2  0
  6  5  1  0
  7 12  2  0
  7  6  1  0
  8  7  1  0
  9 10  1  0
  9  8  2  0
 10 11  2  0
 11 12  1  0
 12  4  1  0
 13 14  2  0
 13  2  1  0
 15 16  1  0
 16 17  2  0
 18 19  1  0
 18 16  1  0
 20 19  1  1
 20 21  1  0
 21 13  1  0
 22 20  1  0
 23 22  2  0
 24 22  1  0
 25 26  1  1
 25 24  1  0
 26 27  1  0
 27 28  1  0
 28 29  2  0
 28 32  1  0
 30 25  1  0
 31 30  2  0
 33 30  1  0
M  END
$$$$
