WQE.pdb
     RDKit          3D

 33 34  0  0  1  0  0  0  0  0999 V2000
   25.7710  -17.9425  -17.9280 N   0  0  0  0  0  0  0  0  0  0  0  0
   25.6617  -17.3985  -16.5899 C   0  0  1  0  0  0  0  0  0  0  0  0
   24.6437  -16.2857  -16.5151 C   0  0  0  0  0  0  0  0  0  0  0  0
   25.1592  -15.0075  -17.0494 C   0  0  0  0  0  0  0  0  0  0  0  0
   24.6886  -14.3335  -18.1513 C   0  0  0  0  0  0  0  0  0  0  0  0
   25.4321  -13.2113  -18.2999 N   0  0  0  0  0  0  0  0  0  0  0  0
   26.3649  -13.1192  -17.3496 C   0  0  0  0  0  0  0  0  0  0  0  0
   27.3434  -12.1984  -17.0644 C   0  0  0  0  0  0  0  0  0  0  0  0
   28.1950  -12.3632  -15.9814 C   0  0  0  0  0  0  0  0  0  0  0  0
   28.0235  -13.4841  -15.2024 C   0  0  0  0  0  0  0  0  0  0  0  0
   27.0364  -14.4104  -15.4923 C   0  0  0  0  0  0  0  0  0  0  0  0
   26.1970  -14.2561  -16.5527 C   0  0  0  0  0  0  0  0  0  0  0  0
   25.1357  -18.5053  -15.7236 C   0  0  0  0  0  0  0  0  0  0  0  0
   24.4211  -19.4270  -16.2113 O   0  0  0  0  0  0  0  0  0  0  0  0
   26.3723  -22.4422  -12.2172 N   0  0  0  0  0  0  0  0  0  0  0  0
   25.4485  -22.0278  -11.1854 C   0  0  0  0  0  0  0  0  0  0  0  0
   25.0363  -22.9310  -10.4542 O   0  0  0  0  0  0  0  0  0  0  0  0
   25.1120  -20.6018  -11.1282 C   0  0  0  0  0  0  0  0  0  0  0  0
   25.6337  -19.7188  -12.1847 C   0  0  0  0  0  0  0  0  0  0  0  0
   24.8637  -19.5896  -13.4477 C   0  0  2  0  0  0  0  0  0  0  0  0
   25.4049  -18.5804  -14.3323 N   0  0  0  0  0  0  0  0  0  0  0  0
   23.3979  -19.6019  -13.3463 C   0  0  0  0  0  0  0  0  0  0  0  0
   22.8481  -18.5423  -12.9145 O   0  0  0  0  0  0  0  0  0  0  0  0
   22.5744  -20.6805  -13.6856 N   0  0  0  0  0  0  0  0  0  0  0  0
   21.1116  -20.6777  -13.5445 C   0  0  1  0  0  0  0  0  0  0  0  0
   20.4552  -21.1188  -14.7971 C   0  0  0  0  0  0  0  0  0  0  0  0
   18.9631  -21.0811  -14.6923 C   0  0  0  0  0  0  0  0  0  0  0  0
   18.2424  -21.4958  -15.9071 C   0  0  0  0  0  0  0  0  0  0  0  0
   18.7628  -21.9591  -16.9465 O   0  0  0  0  0  0  0  0  0  0  0  0
   20.8037  -21.6115  -12.4411 C   0  0  0  0  0  0  0  0  0  0  0  0
   19.6842  -21.5114  -11.8455 O   0  0  0  0  0  0  0  0  0  0  0  0
   16.8388  -21.3753  -15.9412 O   0  0  0  0  0  0  0  0  0  0  0  0
   21.6955  -22.5889  -12.0422 O   0  0  0  0  0  0  0  0  0  0  0  0
  2  1  1  6
  3  2  1  0
  4  3  1  0
  4  5  2  0
  6  5  1  0
  7 12  2  0
  7  6  1  0
  8  7  1  0
  9 10  1  0
  9  8  2  0
 10 11  2  0
 11 12  1  0
 12  4  1  0
 13 14  2  0
 13  2  1  0
 15 16  1  0
 16 17  2  0
 18 19  1  0
 18 16  1  0
 20 19  1  1
 20 21  1  0
 21 13  1  0
 22 20  1  0
 23 22  2  0
 24 22  1  0
 25 26  1  6
 25 24  1  0
 26 27  1  0
 27 28  1  0
 28 29  2  0
 28 32  1  0
 30 25  1  0
 31 30  2  0
 33 30  1  0
M  END
$$$$
