WQE.pdb
     RDKit          3D

 33 34  0  0  1  0  0  0  0  0999 V2000
   25.1465  -17.3421  -18.4499 N   0  0  0  0  0  0  0  0  0  0  0  0
   25.0747  -17.1275  -17.0191 C   0  0  1  0  0  0  0  0  0  0  0  0
   24.2747  -15.8943  -16.6735 C   0  0  0  0  0  0  0  0  0  0  0  0
   24.8974  -14.6530  -17.1799 C   0  0  0  0  0  0  0  0  0  0  0  0
   24.3201  -13.7352  -18.0250 C   0  0  0  0  0  0  0  0  0  0  0  0
   25.2215  -12.7484  -18.2439 N   0  0  0  0  0  0  0  0  0  0  0  0
   26.3588  -12.9764  -17.5836 C   0  0  0  0  0  0  0  0  0  0  0  0
   27.5480  -12.2974  -17.4763 C   0  0  0  0  0  0  0  0  0  0  0  0
   28.5877  -12.7830  -16.6963 C   0  0  0  0  0  0  0  0  0  0  0  0
   28.3840  -13.9711  -16.0332 C   0  0  0  0  0  0  0  0  0  0  0  0
   27.1843  -14.6532  -16.1433 C   0  0  0  0  0  0  0  0  0  0  0  0
   26.1596  -14.1837  -16.9064 C   0  0  0  0  0  0  0  0  0  0  0  0
   24.3144  -18.2912  -16.4532 C   0  0  0  0  0  0  0  0  0  0  0  0
   23.4993  -18.9423  -17.1668 O   0  0  0  0  0  0  0  0  0  0  0  0
   25.7834  -23.1371  -14.4896 N   0  0  0  0  0  0  0  0  0  0  0  0
   24.7374  -23.1887  -13.4930 C   0  0  0  0  0  0  0  0  0  0  0  0
   24.4290  -24.3199  -13.1116 O   0  0  0  0  0  0  0  0  0  0  0  0
   24.1712  -21.9083  -13.0571 C   0  0  0  0  0  0  0  0  0  0  0  0
   24.6960  -20.6717  -13.6602 C   0  0  0  0  0  0  0  0  0  0  0  0
   23.8039  -19.8763  -14.5411 C   0  0  2  0  0  0  0  0  0  0  0  0
   24.4638  -18.7204  -15.1089 N   0  0  0  0  0  0  0  0  0  0  0  0
   22.4327  -19.6370  -14.0706 C   0  0  0  0  0  0  0  0  0  0  0  0
   22.2954  -18.8219  -13.1072 O   0  0  0  0  0  0  0  0  0  0  0  0
   21.2826  -20.2332  -14.5984 N   0  0  0  0  0  0  0  0  0  0  0  0
   19.9234  -19.9930  -14.0938 C   0  0  1  0  0  0  0  0  0  0  0  0
   18.9094  -20.2995  -15.1293 C   0  0  0  0  0  0  0  0  0  0  0  0
   18.8687  -19.2563  -16.2012 C   0  0  0  0  0  0  0  0  0  0  0  0
   17.8195  -19.4464  -17.2162 C   0  0  0  0  0  0  0  0  0  0  0  0
   16.9585  -20.3544  -17.2200 O   0  0  0  0  0  0  0  0  0  0  0  0
   19.7561  -20.8820  -12.9252 C   0  0  0  0  0  0  0  0  0  0  0  0
   20.4035  -21.9763  -12.8876 O   0  0  0  0  0  0  0  0  0  0  0  0
   17.7454  -18.5449  -18.2967 O   0  0  0  0  0  0  0  0  0  0  0  0
   18.9199  -20.5560  -11.8742 O   0  0  0  0  0  0  0  0  0  0  0  0
  2  1  1  6
  3  2  1  0
  4  3  1  0
  4  5  2  0
  6  5  1  0
  7 12  2  0
  7  6  1  0
  8  7  1  0
  9 10  1  0
  9  8  2  0
 10 11  2  0
 11 12  1  0
 12  4  1  0
 13 14  2  0
 13  2  1  0
 15 16  1  0
 16 17  2  0
 18 19  1  0
 18 16  1  0
 20 19  1  1
 20 21  1  0
 21 13  1  0
 22 20  1  0
 23 22  2  0
 24 22  1  0
 25 26  1  6
 25 24  1  0
 26 27  1  0
 27 28  1  0
 28 29  2  0
 28 32  1  0
 30 25  1  0
 31 30  2  0
 33 30  1  0
M  END
$$$$
