WQE.pdb
     RDKit          3D

 33 34  0  0  1  0  0  0  0  0999 V2000
   23.6623  -20.4950  -17.6269 N   0  0  0  0  0  0  0  0  0  0  0  0
   22.9937  -19.5972  -16.7075 C   0  0  1  0  0  0  0  0  0  0  0  0
   21.6300  -19.1880  -17.2105 C   0  0  0  0  0  0  0  0  0  0  0  0
   21.7032  -18.2576  -18.3569 C   0  0  0  0  0  0  0  0  0  0  0  0
   22.1283  -18.5601  -19.6287 C   0  0  0  0  0  0  0  0  0  0  0  0
   22.0419  -17.4327  -20.3742 N   0  0  0  0  0  0  0  0  0  0  0  0
   21.5813  -16.4090  -19.6520 C   0  0  0  0  0  0  0  0  0  0  0  0
   21.3184  -15.0903  -19.9324 C   0  0  0  0  0  0  0  0  0  0  0  0
   20.8311  -14.2295  -18.9593 C   0  0  0  0  0  0  0  0  0  0  0  0
   20.6203  -14.7456  -17.7015 C   0  0  0  0  0  0  0  0  0  0  0  0
   20.8862  -16.0752  -17.4220 C   0  0  0  0  0  0  0  0  0  0  0  0
   21.3644  -16.9260  -18.3708 C   0  0  0  0  0  0  0  0  0  0  0  0
   22.7576  -20.3784  -15.4480 C   0  0  0  0  0  0  0  0  0  0  0  0
   22.5743  -21.6285  -15.4847 O   0  0  0  0  0  0  0  0  0  0  0  0
   25.1545  -21.4189  -10.3341 N   0  0  0  0  0  0  0  0  0  0  0  0
   23.8269  -21.4361   -9.7621 C   0  0  0  0  0  0  0  0  0  0  0  0
   23.7111  -22.0847   -8.7200 O   0  0  0  0  0  0  0  0  0  0  0  0
   22.7856  -20.6915  -10.4770 C   0  0  0  0  0  0  0  0  0  0  0  0
   23.1247  -20.0933  -11.7791 C   0  0  0  0  0  0  0  0  0  0  0  0
   22.2868  -20.4324  -12.9570 C   0  0  2  0  0  0  0  0  0  0  0  0
   22.7270  -19.7704  -14.1661 N   0  0  0  0  0  0  0  0  0  0  0  0
   20.8308  -20.4599  -12.7616 C   0  0  0  0  0  0  0  0  0  0  0  0
   20.2622  -19.3431  -12.5600 O   0  0  0  0  0  0  0  0  0  0  0  0
   20.0355  -21.6106  -12.7807 N   0  0  0  0  0  0  0  0  0  0  0  0
   18.5878  -21.6167  -12.5280 C   0  0  1  0  0  0  0  0  0  0  0  0
   17.8470  -22.1592  -13.6905 C   0  0  0  0  0  0  0  0  0  0  0  0
   17.8484  -21.2119  -14.8487 C   0  0  0  0  0  0  0  0  0  0  0  0
   16.6252  -20.4062  -14.9963 C   0  0  0  0  0  0  0  0  0  0  0  0
   15.6611  -20.3837  -14.1990 O   0  0  0  0  0  0  0  0  0  0  0  0
   18.3822  -22.4692  -11.3384 C   0  0  0  0  0  0  0  0  0  0  0  0
   19.3666  -23.1303  -10.8784 O   0  0  0  0  0  0  0  0  0  0  0  0
   16.4906  -19.5723  -16.1242 O   0  0  0  0  0  0  0  0  0  0  0  0
   17.1535  -22.5648  -10.7130 O   0  0  0  0  0  0  0  0  0  0  0  0
  2  1  1  6
  3  2  1  0
  4  3  1  0
  4  5  2  0
  6  5  1  0
  7 12  2  0
  7  6  1  0
  8  7  1  0
  9 10  1  0
  9  8  2  0
 10 11  2  0
 11 12  1  0
 12  4  1  0
 13 14  2  0
 13  2  1  0
 15 16  1  0
 16 17  2  0
 18 19  1  0
 18 16  1  0
 20 19  1  1
 20 21  1  0
 21 13  1  0
 22 20  1  0
 23 22  2  0
 24 22  1  0
 25 26  1  6
 25 24  1  0
 26 27  1  0
 27 28  1  0
 28 29  2  0
 28 32  1  0
 30 25  1  0
 31 30  2  0
 33 30  1  0
M  END
$$$$
