WQE.pdb
     RDKit          3D

 33 34  0  0  1  0  0  0  0  0999 V2000
   41.9349  -11.0060   -7.0553 N   0  0  0  0  0  0  0  0  0  0  0  0
   41.2623  -10.2811   -8.1139 C   0  0  1  0  0  0  0  0  0  0  0  0
   40.0306   -9.5654   -7.6127 C   0  0  0  0  0  0  0  0  0  0  0  0
   38.8789  -10.4745   -7.4337 C   0  0  0  0  0  0  0  0  0  0  0  0
   38.3187  -10.8578   -6.2382 C   0  0  0  0  0  0  0  0  0  0  0  0
   37.2892  -11.6941   -6.5118 N   0  0  0  0  0  0  0  0  0  0  0  0
   37.1494  -11.8759   -7.8267 C   0  0  0  0  0  0  0  0  0  0  0  0
   36.2812  -12.6098   -8.5977 C   0  0  0  0  0  0  0  0  0  0  0  0
   36.3715  -12.6115   -9.9823 C   0  0  0  0  0  0  0  0  0  0  0  0
   37.3636  -11.8502  -10.5558 C   0  0  0  0  0  0  0  0  0  0  0  0
   38.2371  -11.1116   -9.7761 C   0  0  0  0  0  0  0  0  0  0  0  0
   38.1553  -11.1045   -8.4175 C   0  0  0  0  0  0  0  0  0  0  0  0
   42.2127   -9.2111   -8.5657 C   0  0  0  0  0  0  0  0  0  0  0  0
   43.0871   -8.7462   -7.7801 O   0  0  0  0  0  0  0  0  0  0  0  0
   45.4512  -10.5397  -13.4697 N   0  0  0  0  0  0  0  0  0  0  0  0
   44.2661   -9.8214  -13.0580 C   0  0  0  0  0  0  0  0  0  0  0  0
   43.3793   -9.7365  -13.9104 O   0  0  0  0  0  0  0  0  0  0  0  0
   44.2553   -9.2837  -11.6939 C   0  0  0  0  0  0  0  0  0  0  0  0
   43.8347   -7.8861  -11.4982 C   0  0  0  0  0  0  0  0  0  0  0  0
   42.9966   -7.5547  -10.3182 C   0  0  2  0  0  0  0  0  0  0  0  0
   42.1858   -8.6691   -9.8769 N   0  0  0  0  0  0  0  0  0  0  0  0
   42.3116   -6.2548  -10.3231 C   0  0  0  0  0  0  0  0  0  0  0  0
   43.0108   -5.2440  -10.6405 O   0  0  0  0  0  0  0  0  0  0  0  0
   40.9640   -6.0514  -10.0078 N   0  0  0  0  0  0  0  0  0  0  0  0
   40.3204   -4.7314   -9.9514 C   0  0  1  0  0  0  0  0  0  0  0  0
   38.9603   -4.7772  -10.5365 C   0  0  0  0  0  0  0  0  0  0  0  0
   38.9897   -5.0729  -12.0030 C   0  0  0  0  0  0  0  0  0  0  0  0
   37.6721   -5.1049  -12.6588 C   0  0  0  0  0  0  0  0  0  0  0  0
   36.5765   -4.8365  -12.1172 O   0  0  0  0  0  0  0  0  0  0  0  0
   40.2574   -4.3660   -8.5208 C   0  0  0  0  0  0  0  0  0  0  0  0
   40.1757   -5.2923   -7.6528 O   0  0  0  0  0  0  0  0  0  0  0  0
   37.5966   -5.4655  -14.0189 O   0  0  0  0  0  0  0  0  0  0  0  0
   40.2875   -3.0493   -8.1021 O   0  0  0  0  0  0  0  0  0  0  0  0
  2  1  1  1
  3  2  1  0
  4  3  1  0
  4  5  2  0
  6  5  1  0
  7 12  2  0
  7  6  1  0
  8  7  1  0
  9 10  1  0
  9  8  2  0
 10 11  2  0
 11 12  1  0
 12  4  1  0
 13 14  2  0
 13  2  1  0
 15 16  1  0
 16 17  2  0
 18 19  1  0
 18 16  1  0
 20 19  1  6
 20 21  1  0
 21 13  1  0
 22 20  1  0
 23 22  2  0
 24 22  1  0
 25 26  1  1
 25 24  1  0
 26 27  1  0
 27 28  1  0
 28 29  2  0
 28 32  1  0
 30 25  1  0
 31 30  2  0
 33 30  1  0
M  END
$$$$
