WQE.pdb
     RDKit          3D

 33 34  0  0  1  0  0  0  0  0999 V2000
   23.2350  -19.9309  -10.6733 N   0  0  0  0  0  0  0  0  0  0  0  0
   24.6334  -19.8834  -11.0484 C   0  0  1  0  0  0  0  0  0  0  0  0
   25.3649  -21.1456  -10.6583 C   0  0  0  0  0  0  0  0  0  0  0  0
   26.3246  -20.9279   -9.5553 C   0  0  0  0  0  0  0  0  0  0  0  0
   26.0165  -20.5894   -8.2590 C   0  0  0  0  0  0  0  0  0  0  0  0
   27.1779  -20.4854   -7.5702 N   0  0  0  0  0  0  0  0  0  0  0  0
   28.2291  -20.7392   -8.3525 C   0  0  0  0  0  0  0  0  0  0  0  0
   29.5863  -20.7649   -8.1420 C   0  0  0  0  0  0  0  0  0  0  0  0
   30.4694  -21.0695   -9.1680 C   0  0  0  0  0  0  0  0  0  0  0  0
   29.9356  -21.3453  -10.4056 C   0  0  0  0  0  0  0  0  0  0  0  0
   28.5673  -21.3186  -10.6147 C   0  0  0  0  0  0  0  0  0  0  0  0
   27.6944  -21.0207   -9.6137 C   0  0  0  0  0  0  0  0  0  0  0  0
   24.6689  -19.8261  -12.5476 C   0  0  0  0  0  0  0  0  0  0  0  0
   23.6318  -20.0625  -13.2305 O   0  0  0  0  0  0  0  0  0  0  0  0
   28.5943  -17.1925  -17.0447 N   0  0  0  0  0  0  0  0  0  0  0  0
   29.1029  -18.3675  -16.3734 C   0  0  0  0  0  0  0  0  0  0  0  0
   30.1694  -18.8040  -16.8119 O   0  0  0  0  0  0  0  0  0  0  0  0
   28.3033  -18.8979  -15.2647 C   0  0  0  0  0  0  0  0  0  0  0  0
   27.1388  -18.1201  -14.8097 C   0  0  0  0  0  0  0  0  0  0  0  0
   25.8629  -18.8348  -14.5529 C   0  0  2  0  0  0  0  0  0  0  0  0
   25.8469  -19.5088  -13.2725 N   0  0  0  0  0  0  0  0  0  0  0  0
   25.2872  -19.6042  -15.6644 C   0  0  0  0  0  0  0  0  0  0  0  0
   25.7862  -20.7510  -15.8817 O   0  0  0  0  0  0  0  0  0  0  0  0
   24.2439  -19.1721  -16.4901 N   0  0  0  0  0  0  0  0  0  0  0  0
   23.3396  -20.0743  -17.2169 C   0  0  1  0  0  0  0  0  0  0  0  0
   21.9232  -19.7071  -16.9862 C   0  0  0  0  0  0  0  0  0  0  0  0
   20.9827  -20.6060  -17.7255 C   0  0  0  0  0  0  0  0  0  0  0  0
   19.5631  -20.4522  -17.3680 C   0  0  0  0  0  0  0  0  0  0  0  0
   18.5958  -20.9790  -17.9620 O   0  0  0  0  0  0  0  0  0  0  0  0
   23.6846  -19.9367  -18.6473 C   0  0  0  0  0  0  0  0  0  0  0  0
   24.0669  -18.8038  -19.0812 O   0  0  0  0  0  0  0  0  0  0  0  0
   19.2221  -19.6468  -16.2631 O   0  0  0  0  0  0  0  0  0  0  0  0
   23.6057  -21.0032  -19.5227 O   0  0  0  0  0  0  0  0  0  0  0  0
  2  1  1  6
  3  2  1  0
  4  3  1  0
  4  5  2  0
  6  5  1  0
  7 12  2  0
  7  6  1  0
  8  7  1  0
  9 10  1  0
  9  8  2  0
 10 11  2  0
 11 12  1  0
 12  4  1  0
 13 14  2  0
 13  2  1  0
 15 16  1  0
 16 17  2  0
 18 19  1  0
 18 16  1  0
 20 19  1  6
 20 21  1  0
 21 13  1  0
 22 20  1  0
 23 22  2  0
 24 22  1  0
 25 26  1  6
 25 24  1  0
 26 27  1  0
 27 28  1  0
 28 29  2  0
 28 32  1  0
 30 25  1  0
 31 30  2  0
 33 30  1  0
M  END
$$$$
