WQE.pdb
     RDKit          3D

 33 34  0  0  1  0  0  0  0  0999 V2000
   28.1225  -21.9941  -10.8365 N   0  0  0  0  0  0  0  0  0  0  0  0
   26.9134  -21.4565  -10.2470 C   0  0  1  0  0  0  0  0  0  0  0  0
   27.2021  -20.2877   -9.3355 C   0  0  0  0  0  0  0  0  0  0  0  0
   28.3226  -20.5534   -8.4088 C   0  0  0  0  0  0  0  0  0  0  0  0
   29.5431  -21.0945   -8.7366 C   0  0  0  0  0  0  0  0  0  0  0  0
   30.2807  -21.1714   -7.6033 N   0  0  0  0  0  0  0  0  0  0  0  0
   29.6021  -20.7073   -6.5517 C   0  0  0  0  0  0  0  0  0  0  0  0
   29.8948  -20.5713   -5.2166 C   0  0  0  0  0  0  0  0  0  0  0  0
   28.9718  -20.0412   -4.3265 C   0  0  0  0  0  0  0  0  0  0  0  0
   27.7509  -19.6562   -4.8305 C   0  0  0  0  0  0  0  0  0  0  0  0
   27.4589  -19.7945   -6.1766 C   0  0  0  0  0  0  0  0  0  0  0  0
   28.3587  -20.3135   -7.0562 C   0  0  0  0  0  0  0  0  0  0  0  0
   26.0951  -20.9105  -11.3805 C   0  0  0  0  0  0  0  0  0  0  0  0
   26.5600  -20.0177  -12.1449 O   0  0  0  0  0  0  0  0  0  0  0  0
   25.0427  -24.4340  -14.4786 N   0  0  0  0  0  0  0  0  0  0  0  0
   23.7626  -24.4907  -13.8092 C   0  0  0  0  0  0  0  0  0  0  0  0
   23.3365  -25.6254  -13.5833 O   0  0  0  0  0  0  0  0  0  0  0  0
   23.1270  -23.2107  -13.4812 C   0  0  0  0  0  0  0  0  0  0  0  0
   23.8401  -21.9691  -13.8250 C   0  0  0  0  0  0  0  0  0  0  0  0
   23.9834  -20.9201  -12.7840 C   0  0  2  0  0  0  0  0  0  0  0  0
   24.7763  -21.3567  -11.6550 N   0  0  0  0  0  0  0  0  0  0  0  0
   22.7820  -20.1495  -12.4353 C   0  0  0  0  0  0  0  0  0  0  0  0
   22.2107  -20.4493  -11.3421 O   0  0  0  0  0  0  0  0  0  0  0  0
   22.2282  -19.1239  -13.2087 N   0  0  0  0  0  0  0  0  0  0  0  0
   21.0139  -18.3803  -12.8449 C   0  0  1  0  0  0  0  0  0  0  0  0
   20.6605  -17.3936  -13.8918 C   0  0  0  0  0  0  0  0  0  0  0  0
   19.3574  -16.7155  -13.6070 C   0  0  0  0  0  0  0  0  0  0  0  0
   18.9238  -15.7457  -14.6260 C   0  0  0  0  0  0  0  0  0  0  0  0
   17.8734  -15.0663  -14.5921 O   0  0  0  0  0  0  0  0  0  0  0  0
   19.9431  -19.3884  -12.6999 C   0  0  0  0  0  0  0  0  0  0  0  0
   19.9246  -20.3838  -13.4915 O   0  0  0  0  0  0  0  0  0  0  0  0
   19.7380  -15.5355  -15.7567 O   0  0  0  0  0  0  0  0  0  0  0  0
   18.9660  -19.2802  -11.7286 O   0  0  0  0  0  0  0  0  0  0  0  0
  2  1  1  6
  3  2  1  0
  4  3  1  0
  4  5  2  0
  6  5  1  0
  7 12  2  0
  7  6  1  0
  8  7  1  0
  9 10  1  0
  9  8  2  0
 10 11  2  0
 11 12  1  0
 12  4  1  0
 13 14  2  0
 13  2  1  0
 15 16  1  0
 16 17  2  0
 18 19  1  0
 18 16  1  0
 20 19  1  1
 20 21  1  0
 21 13  1  0
 22 20  1  0
 23 22  2  0
 24 22  1  0
 25 26  1  6
 25 24  1  0
 26 27  1  0
 27 28  1  0
 28 29  2  0
 28 32  1  0
 30 25  1  0
 31 30  2  0
 33 30  1  0
M  END
$$$$
