WQE.pdb
     RDKit          3D

 33 34  0  0  1  0  0  0  0  0999 V2000
   27.8620  -22.2243  -10.9385 N   0  0  0  0  0  0  0  0  0  0  0  0
   26.7778  -21.4553  -10.3627 C   0  0  1  0  0  0  0  0  0  0  0  0
   27.2429  -20.1052   -9.8717 C   0  0  0  0  0  0  0  0  0  0  0  0
   28.2521  -20.2087   -8.7966 C   0  0  0  0  0  0  0  0  0  0  0  0
   29.5491  -20.6439   -8.9325 C   0  0  0  0  0  0  0  0  0  0  0  0
   30.1359  -20.5863   -7.7133 N   0  0  0  0  0  0  0  0  0  0  0  0
   29.2864  -20.1351   -6.7879 C   0  0  0  0  0  0  0  0  0  0  0  0
   29.3884  -19.8989   -5.4387 C   0  0  0  0  0  0  0  0  0  0  0  0
   28.3126  -19.4149   -4.7081 C   0  0  0  0  0  0  0  0  0  0  0  0
   27.1383  -19.1798   -5.3852 C   0  0  0  0  0  0  0  0  0  0  0  0
   27.0386  -19.4189   -6.7452 C   0  0  0  0  0  0  0  0  0  0  0  0
   28.0891  -19.8936   -7.4690 C   0  0  0  0  0  0  0  0  0  0  0  0
   25.8110  -21.1842  -11.4780 C   0  0  0  0  0  0  0  0  0  0  0  0
   26.1746  -20.5574  -12.5137 O   0  0  0  0  0  0  0  0  0  0  0  0
   26.6420  -22.8170  -14.9302 N   0  0  0  0  0  0  0  0  0  0  0  0
   25.1982  -22.8807  -14.9648 C   0  0  0  0  0  0  0  0  0  0  0  0
   24.6748  -22.4146  -15.9792 O   0  0  0  0  0  0  0  0  0  0  0  0
   24.5316  -23.4831  -13.8060 C   0  0  0  0  0  0  0  0  0  0  0  0
   23.3480  -22.8050  -13.2514 C   0  0  0  0  0  0  0  0  0  0  0  0
   23.5349  -21.5116  -12.5465 C   0  0  2  0  0  0  0  0  0  0  0  0
   24.4573  -21.6079  -11.4357 N   0  0  0  0  0  0  0  0  0  0  0  0
   22.3330  -20.7080  -12.2849 C   0  0  0  0  0  0  0  0  0  0  0  0
   21.7851  -20.8561  -11.1494 O   0  0  0  0  0  0  0  0  0  0  0  0
   21.7553  -19.8041  -13.1827 N   0  0  0  0  0  0  0  0  0  0  0  0
   20.5478  -19.0163  -12.8975 C   0  0  1  0  0  0  0  0  0  0  0  0
   20.2542  -18.0738  -14.0019 C   0  0  0  0  0  0  0  0  0  0  0  0
   19.9458  -18.7864  -15.2810 C   0  0  0  0  0  0  0  0  0  0  0  0
   19.6650  -17.9104  -16.4303 C   0  0  0  0  0  0  0  0  0  0  0  0
   20.4806  -17.5867  -17.3224 O   0  0  0  0  0  0  0  0  0  0  0  0
   19.4484  -19.9916  -12.7421 C   0  0  0  0  0  0  0  0  0  0  0  0
   19.5353  -21.1150  -13.3322 O   0  0  0  0  0  0  0  0  0  0  0  0
   18.3724  -17.3679  -16.5737 O   0  0  0  0  0  0  0  0  0  0  0  0
   18.3332  -19.7175  -11.9731 O   0  0  0  0  0  0  0  0  0  0  0  0
  2  1  1  6
  3  2  1  0
  4  3  1  0
  4  5  2  0
  6  5  1  0
  7 12  2  0
  7  6  1  0
  8  7  1  0
  9 10  1  0
  9  8  2  0
 10 11  2  0
 11 12  1  0
 12  4  1  0
 13 14  2  0
 13  2  1  0
 15 16  1  0
 16 17  2  0
 18 19  1  0
 18 16  1  0
 20 19  1  1
 20 21  1  0
 21 13  1  0
 22 20  1  0
 23 22  2  0
 24 22  1  0
 25 26  1  6
 25 24  1  0
 26 27  1  0
 27 28  1  0
 28 29  2  0
 28 32  1  0
 30 25  1  0
 31 30  2  0
 33 30  1  0
M  END
$$$$
