WQE.pdb
     RDKit          3D

 33 34  0  0  1  0  0  0  0  0999 V2000
   27.7171  -22.4920  -13.8423 N   0  0  0  0  0  0  0  0  0  0  0  0
   26.7951  -22.0730  -12.8065 C   0  0  1  0  0  0  0  0  0  0  0  0
   27.1272  -20.6976  -12.2789 C   0  0  0  0  0  0  0  0  0  0  0  0
   28.1079  -20.7349  -11.1735 C   0  0  0  0  0  0  0  0  0  0  0  0
   29.4699  -20.8770  -11.2940 C   0  0  0  0  0  0  0  0  0  0  0  0
   30.0005  -20.8624  -10.0480 N   0  0  0  0  0  0  0  0  0  0  0  0
   29.0522  -20.7178   -9.1198 C   0  0  0  0  0  0  0  0  0  0  0  0
   29.0682  -20.6450   -7.7483 C   0  0  0  0  0  0  0  0  0  0  0  0
   27.8969  -20.4889   -7.0209 C   0  0  0  0  0  0  0  0  0  0  0  0
   26.7173  -20.4096   -7.7243 C   0  0  0  0  0  0  0  0  0  0  0  0
   26.7044  -20.4833   -9.1067 C   0  0  0  0  0  0  0  0  0  0  0  0
   27.8488  -20.6363   -9.8275 C   0  0  0  0  0  0  0  0  0  0  0  0
   25.4486  -21.9566  -13.4588 C   0  0  0  0  0  0  0  0  0  0  0  0
   25.3025  -21.3085  -14.5341 O   0  0  0  0  0  0  0  0  0  0  0  0
   21.2272  -26.4671  -13.8241 N   0  0  0  0  0  0  0  0  0  0  0  0
   20.3874  -25.3520  -14.1995 C   0  0  0  0  0  0  0  0  0  0  0  0
   19.2513  -25.6512  -14.5737 O   0  0  0  0  0  0  0  0  0  0  0  0
   20.9748  -24.0126  -14.0945 C   0  0  0  0  0  0  0  0  0  0  0  0
   22.3454  -23.8910  -13.5702 C   0  0  0  0  0  0  0  0  0  0  0  0
   22.9857  -22.5514  -13.5587 C   0  0  2  0  0  0  0  0  0  0  0  0
   24.2824  -22.5565  -12.9165 N   0  0  0  0  0  0  0  0  0  0  0  0
   22.1343  -21.4014  -13.2246 C   0  0  0  0  0  0  0  0  0  0  0  0
   22.1314  -21.0286  -12.0112 O   0  0  0  0  0  0  0  0  0  0  0  0
   21.3371  -20.6966  -14.1327 N   0  0  0  0  0  0  0  0  0  0  0  0
   20.5337  -19.5169  -13.7822 C   0  0  1  0  0  0  0  0  0  0  0  0
   20.8062  -18.3934  -14.7083 C   0  0  0  0  0  0  0  0  0  0  0  0
   19.6348  -18.0964  -15.5906 C   0  0  0  0  0  0  0  0  0  0  0  0
   19.8361  -16.9921  -16.5430 C   0  0  0  0  0  0  0  0  0  0  0  0
   20.8578  -16.2749  -16.6292 O   0  0  0  0  0  0  0  0  0  0  0  0
   19.1206  -19.9385  -13.8801 C   0  0  0  0  0  0  0  0  0  0  0  0
   18.2223  -19.2031  -13.3605 O   0  0  0  0  0  0  0  0  0  0  0  0
   18.8081  -16.6842  -17.4563 O   0  0  0  0  0  0  0  0  0  0  0  0
   18.7502  -21.1054  -14.5213 O   0  0  0  0  0  0  0  0  0  0  0  0
  2  1  1  6
  3  2  1  0
  4  3  1  0
  4  5  2  0
  6  5  1  0
  7 12  2  0
  7  6  1  0
  8  7  1  0
  9 10  1  0
  9  8  2  0
 10 11  2  0
 11 12  1  0
 12  4  1  0
 13 14  2  0
 13  2  1  0
 15 16  1  0
 16 17  2  0
 18 19  1  0
 18 16  1  0
 20 19  1  1
 20 21  1  0
 21 13  1  0
 22 20  1  0
 23 22  2  0
 24 22  1  0
 25 26  1  6
 25 24  1  0
 26 27  1  0
 27 28  1  0
 28 29  2  0
 28 32  1  0
 30 25  1  0
 31 30  2  0
 33 30  1  0
M  END
$$$$
