TLG.pdb
     RDKit          3D

 20 19  0  0  1  0  0  0  0  0999 V2000
   24.7889  -19.2774  -13.8780 C   0  0  0  0  0  0  0  0  0  0  0  0
   24.5898  -19.9403  -12.5505 C   0  0  1  0  0  0  0  0  0  0  0  0
   23.7550  -21.0431  -12.7435 O   0  0  0  0  0  0  0  0  0  0  0  0
   25.8826  -20.4601  -11.9738 C   0  0  2  0  0  0  0  0  0  0  0  0
   26.4560  -21.4412  -12.8530 N   0  0  0  0  0  0  0  0  0  0  0  0
   25.7571  -21.0066  -10.6269 C   0  0  0  0  0  0  0  0  0  0  0  0
   25.7340  -22.2442  -10.4502 O   0  0  0  0  0  0  0  0  0  0  0  0
   28.1154  -20.8236   -6.5385 C   0  0  0  0  0  0  0  0  0  0  0  0
   27.4817  -19.5482   -7.0748 C   0  0  2  0  0  0  0  0  0  0  0  0
   27.9241  -18.3855   -6.2255 C   0  0  0  0  0  0  0  0  0  0  0  0
   25.9947  -19.6921   -7.1371 C   0  0  0  0  0  0  0  0  0  0  0  0
   25.4777  -20.6650   -8.1394 C   0  0  2  0  0  0  0  0  0  0  0  0
   25.6594  -20.1597   -9.4979 N   0  0  0  0  0  0  0  0  0  0  0  0
   24.0192  -20.8840   -7.9588 C   0  0  0  0  0  0  0  0  0  0  0  0
   23.1377  -20.0650   -8.3698 O   0  0  0  0  0  0  0  0  0  0  0  0
   23.5136  -22.0438   -7.3037 N   0  0  0  0  0  0  0  0  0  0  0  0
   22.0890  -22.2563   -7.1985 C   0  0  0  0  0  0  0  0  0  0  0  0
   21.6156  -22.0164   -5.8110 C   0  0  0  0  0  0  0  0  0  0  0  0
   22.4100  -21.5957   -4.9575 O   0  0  0  0  0  0  0  0  0  0  0  0
   20.3027  -22.2474   -5.4268 O   0  0  0  0  0  0  0  0  0  0  0  0
  2  3  1  0
  2  1  1  6
  4  2  1  0
  4  5  1  6
  6  4  1  0
  6  7  2  0
  9 11  1  0
  9  8  1  1
 10  9  1  0
 12 11  1  1
 12 13  1  0
 13  6  1  0
 14 12  1  0
 15 14  2  0
 16 14  1  0
 17 16  1  0
 18 20  1  0
 18 17  1  0
 19 18  2  0
M  END
$$$$
