TLG.pdb
     RDKit          3D

 20 19  0  0  1  0  0  0  0  0999 V2000
   28.0908  -12.7684  -16.7965 C   0  0  0  0  0  0  0  0  0  0  0  0
   26.7029  -12.2393  -16.9838 C   0  0  1  0  0  0  0  0  0  0  0  0
   25.8539  -12.9553  -16.1372 O   0  0  0  0  0  0  0  0  0  0  0  0
   26.5903  -10.7862  -16.5969 C   0  0  2  0  0  0  0  0  0  0  0  0
   26.9877  -10.6078  -15.2278 N   0  0  0  0  0  0  0  0  0  0  0  0
   25.2663  -10.2129  -16.8131 C   0  0  0  0  0  0  0  0  0  0  0  0
   24.7748  -10.1811  -17.9623 O   0  0  0  0  0  0  0  0  0  0  0  0
   19.7028  -10.1992  -14.9463 C   0  0  0  0  0  0  0  0  0  0  0  0
   20.7295   -9.3491  -15.6805 C   0  0  2  0  0  0  0  0  0  0  0  0
   20.3656   -9.2920  -17.1410 C   0  0  0  0  0  0  0  0  0  0  0  0
   22.1081   -9.8775  -15.4434 C   0  0  0  0  0  0  0  0  0  0  0  0
   23.2250   -9.0181  -15.9252 C   0  0  2  0  0  0  0  0  0  0  0  0
   24.5120   -9.6836  -15.7394 N   0  0  0  0  0  0  0  0  0  0  0  0
   23.2865   -7.7504  -15.1526 C   0  0  0  0  0  0  0  0  0  0  0  0
   23.5800   -7.7038  -13.9162 O   0  0  0  0  0  0  0  0  0  0  0  0
   23.0160   -6.4909  -15.7613 N   0  0  0  0  0  0  0  0  0  0  0  0
   23.1227   -5.2736  -14.9915 C   0  0  0  0  0  0  0  0  0  0  0  0
   21.8361   -4.9516  -14.3226 C   0  0  0  0  0  0  0  0  0  0  0  0
   20.8603   -5.6997  -14.4804 O   0  0  0  0  0  0  0  0  0  0  0  0
   21.6803   -3.8325  -13.5176 O   0  0  0  0  0  0  0  0  0  0  0  0
  2  3  1  0
  2  1  1  1
  4  2  1  0
  4  5  1  1
  6  4  1  0
  6  7  2  0
  9 11  1  0
  9  8  1  1
 10  9  1  0
 12 11  1  1
 12 13  1  0
 13  6  1  0
 14 12  1  0
 15 14  2  0
 16 14  1  0
 17 16  1  0
 18 20  1  0
 18 17  1  0
 19 18  2  0
M  END
$$$$
