TLG.pdb
     RDKit          3D

 20 19  0  0  1  0  0  0  0  0999 V2000
   16.2237   -9.7401  -18.3921 C   0  0  0  0  0  0  0  0  0  0  0  0
   17.0072   -9.0309  -17.3316 C   0  0  1  0  0  0  0  0  0  0  0  0
   16.0989   -8.4098  -16.4715 O   0  0  0  0  0  0  0  0  0  0  0  0
   17.8268   -9.9823  -16.4968 C   0  0  2  0  0  0  0  0  0  0  0  0
   16.9733  -10.9627  -15.8847 N   0  0  0  0  0  0  0  0  0  0  0  0
   18.6478   -9.3297  -15.4826 C   0  0  0  0  0  0  0  0  0  0  0  0
   18.2768   -9.3126  -14.2887 O   0  0  0  0  0  0  0  0  0  0  0  0
   22.2188  -10.3337  -13.2047 C   0  0  0  0  0  0  0  0  0  0  0  0
   22.3865  -10.0927  -14.6979 C   0  0  2  0  0  0  0  0  0  0  0  0
   23.7425  -10.5893  -15.1261 C   0  0  0  0  0  0  0  0  0  0  0  0
   22.1658   -8.6493  -15.0202 C   0  0  0  0  0  0  0  0  0  0  0  0
   20.7787   -8.1442  -14.8219 C   0  0  2  0  0  0  0  0  0  0  0  0
   19.8720   -8.7059  -15.8201 N   0  0  0  0  0  0  0  0  0  0  0  0
   20.7265   -6.6681  -14.9831 C   0  0  0  0  0  0  0  0  0  0  0  0
   20.6598   -6.0949  -16.1161 O   0  0  0  0  0  0  0  0  0  0  0  0
   20.7485   -5.7928  -13.8590 N   0  0  0  0  0  0  0  0  0  0  0  0
   20.5706   -4.3712  -14.0411 C   0  0  0  0  0  0  0  0  0  0  0  0
   21.8306   -3.7308  -14.4980 C   0  0  0  0  0  0  0  0  0  0  0  0
   22.8570   -4.4156  -14.6170 O   0  0  0  0  0  0  0  0  0  0  0  0
   21.9061   -2.3790  -14.8009 O   0  0  0  0  0  0  0  0  0  0  0  0
  2  3  1  0
  2  1  1  6
  4  2  1  0
  4  5  1  1
  6  4  1  0
  6  7  2  0
  9 11  1  0
  9  8  1  1
 10  9  1  0
 12 11  1  6
 12 13  1  0
 13  6  1  0
 14 12  1  0
 15 14  2  0
 16 14  1  0
 17 16  1  0
 18 20  1  0
 18 17  1  0
 19 18  2  0
M  END
$$$$
