TLG.pdb
     RDKit          3D

 20 19  0  0  1  0  0  0  0  0999 V2000
   19.8184   -9.5513  -18.9410 C   0  0  0  0  0  0  0  0  0  0  0  0
   20.0963  -11.0102  -19.1298 C   0  0  1  0  0  0  0  0  0  0  0  0
   19.8804  -11.3165  -20.4752 O   0  0  0  0  0  0  0  0  0  0  0  0
   21.5299  -11.3615  -18.8211 C   0  0  2  0  0  0  0  0  0  0  0  0
   21.8164  -12.6985  -19.2623 N   0  0  0  0  0  0  0  0  0  0  0  0
   21.8913  -11.2094  -17.4158 C   0  0  0  0  0  0  0  0  0  0  0  0
   21.5168  -12.0557  -16.5750 O   0  0  0  0  0  0  0  0  0  0  0  0
   25.2204  -11.8973  -14.8226 C   0  0  0  0  0  0  0  0  0  0  0  0
   25.4096  -10.7327  -15.7838 C   0  0  2  0  0  0  0  0  0  0  0  0
   26.8577  -10.3186  -15.7745 C   0  0  0  0  0  0  0  0  0  0  0  0
   24.4810   -9.6138  -15.4350 C   0  0  0  0  0  0  0  0  0  0  0  0
   23.0276   -9.9091  -15.5717 C   0  0  2  0  0  0  0  0  0  0  0  0
   22.6667  -10.1122  -16.9726 N   0  0  0  0  0  0  0  0  0  0  0  0
   22.2092   -8.7695  -15.0828 C   0  0  0  0  0  0  0  0  0  0  0  0
   22.2542   -8.3452  -13.8850 O   0  0  0  0  0  0  0  0  0  0  0  0
   21.3104   -8.0729  -15.9414 N   0  0  0  0  0  0  0  0  0  0  0  0
   20.5035   -6.9918  -15.4259 C   0  0  0  0  0  0  0  0  0  0  0  0
   21.1823   -5.6839  -15.6135 C   0  0  0  0  0  0  0  0  0  0  0  0
   22.3098   -5.6477  -16.1273 O   0  0  0  0  0  0  0  0  0  0  0  0
   20.5975   -4.4852  -15.2316 O   0  0  0  0  0  0  0  0  0  0  0  0
  2  3  1  0
  2  1  1  6
  4  2  1  0
  4  5  1  1
  6  4  1  0
  6  7  2  0
  9 11  1  0
  9  8  1  1
 10  9  1  0
 12 11  1  6
 12 13  1  0
 13  6  1  0
 14 12  1  0
 15 14  2  0
 16 14  1  0
 17 16  1  0
 18 20  1  0
 18 17  1  0
 19 18  2  0
M  END
$$$$
