TLG.pdb
     RDKit          3D

 20 19  0  0  1  0  0  0  0  0999 V2000
   20.2927   -8.4638  -20.9291 C   0  0  0  0  0  0  0  0  0  0  0  0
   19.2854   -9.5372  -20.6564 C   0  0  1  0  0  0  0  0  0  0  0  0
   19.0348  -10.2043  -21.8575 O   0  0  0  0  0  0  0  0  0  0  0  0
   19.7981  -10.5645  -19.6788 C   0  0  2  0  0  0  0  0  0  0  0  0
   18.8644  -11.6509  -19.5693 N   0  0  0  0  0  0  0  0  0  0  0  0
   20.1012  -10.0291  -18.3559 C   0  0  0  0  0  0  0  0  0  0  0  0
   19.1772   -9.7837  -17.5501 O   0  0  0  0  0  0  0  0  0  0  0  0
   24.6535  -10.2727  -14.2979 C   0  0  0  0  0  0  0  0  0  0  0  0
   23.3960   -9.5220  -14.7115 C   0  0  2  0  0  0  0  0  0  0  0  0
   22.3616   -9.6611  -13.6255 C   0  0  0  0  0  0  0  0  0  0  0  0
   22.9140  -10.0069  -16.0413 C   0  0  0  0  0  0  0  0  0  0  0  0
   21.7804   -9.2471  -16.6379 C   0  0  2  0  0  0  0  0  0  0  0  0
   21.4342   -9.7763  -17.9548 N   0  0  0  0  0  0  0  0  0  0  0  0
   22.1471   -7.8209  -16.8360 C   0  0  0  0  0  0  0  0  0  0  0  0
   23.0129   -7.4376  -17.6847 O   0  0  0  0  0  0  0  0  0  0  0  0
   21.5404   -6.7811  -16.0740 N   0  0  0  0  0  0  0  0  0  0  0  0
   21.8987   -5.4023  -16.3111 C   0  0  0  0  0  0  0  0  0  0  0  0
   21.0956   -4.4888  -15.4583 C   0  0  0  0  0  0  0  0  0  0  0  0
   19.8617   -4.4693  -15.5752 O   0  0  0  0  0  0  0  0  0  0  0  0
   21.6786   -3.6453  -14.5237 O   0  0  0  0  0  0  0  0  0  0  0  0
  2  3  1  0
  2  1  1  6
  4  2  1  0
  4  5  1  1
  6  4  1  0
  6  7  2  0
  9 11  1  0
  9  8  1  1
 10  9  1  0
 12 11  1  6
 12 13  1  0
 13  6  1  0
 14 12  1  0
 15 14  2  0
 16 14  1  0
 17 16  1  0
 18 20  1  0
 18 17  1  0
 19 18  2  0
M  END
$$$$
