TLG.pdb
     RDKit          3D

 20 19  0  0  1  0  0  0  0  0999 V2000
   16.4759  -10.3758  -18.4951 C   0  0  0  0  0  0  0  0  0  0  0  0
   17.3511   -9.5489  -17.6056 C   0  0  1  0  0  0  0  0  0  0  0  0
   16.5349   -8.6443  -16.9229 O   0  0  0  0  0  0  0  0  0  0  0  0
   18.0546  -10.3824  -16.5643 C   0  0  2  0  0  0  0  0  0  0  0  0
   17.0977  -11.1548  -15.8213 N   0  0  0  0  0  0  0  0  0  0  0  0
   18.8938   -9.6128  -15.6522 C   0  0  0  0  0  0  0  0  0  0  0  0
   18.5375   -9.4373  -14.4666 O   0  0  0  0  0  0  0  0  0  0  0  0
   22.3631  -10.1502  -13.1857 C   0  0  0  0  0  0  0  0  0  0  0  0
   22.6630  -10.1986  -14.6768 C   0  0  2  0  0  0  0  0  0  0  0  0
   24.0737  -10.6868  -14.8783 C   0  0  0  0  0  0  0  0  0  0  0  0
   22.4135   -8.8633  -15.3016 C   0  0  0  0  0  0  0  0  0  0  0  0
   21.0245   -8.3393  -15.1816 C   0  0  2  0  0  0  0  0  0  0  0  0
   20.1196   -9.0511  -16.0808 N   0  0  0  0  0  0  0  0  0  0  0  0
   20.9660   -6.9056  -15.5672 C   0  0  0  0  0  0  0  0  0  0  0  0
   21.6920   -6.0112  -15.0288 O   0  0  0  0  0  0  0  0  0  0  0  0
   20.0784   -6.4401  -16.5799 N   0  0  0  0  0  0  0  0  0  0  0  0
   19.9855   -5.0290  -16.8727 C   0  0  0  0  0  0  0  0  0  0  0  0
   18.9474   -4.3778  -16.0331 C   0  0  0  0  0  0  0  0  0  0  0  0
   18.3386   -5.0460  -15.1848 O   0  0  0  0  0  0  0  0  0  0  0  0
   18.6275   -3.0340  -16.1616 O   0  0  0  0  0  0  0  0  0  0  0  0
  2  3  1  0
  2  1  1  6
  4  2  1  0
  4  5  1  1
  6  4  1  0
  6  7  2  0
  9 11  1  0
  9  8  1  1
 10  9  1  0
 12 11  1  6
 12 13  1  0
 13  6  1  0
 14 12  1  0
 15 14  2  0
 16 14  1  0
 17 16  1  0
 18 20  1  0
 18 17  1  0
 19 18  2  0
M  END
$$$$
