TLG.pdb
     RDKit          3D

 20 19  0  0  1  0  0  0  0  0999 V2000
   23.0667  -22.5680  -16.0583 C   0  0  0  0  0  0  0  0  0  0  0  0
   21.9257  -21.7743  -15.5021 C   0  0  1  0  0  0  0  0  0  0  0  0
   20.7391  -22.3966  -15.8957 O   0  0  0  0  0  0  0  0  0  0  0  0
   21.9318  -21.7478  -13.9944 C   0  0  2  0  0  0  0  0  0  0  0  0
   20.6590  -21.2971  -13.5034 N   0  0  0  0  0  0  0  0  0  0  0  0
   23.0044  -20.9450  -13.4168 C   0  0  0  0  0  0  0  0  0  0  0  0
   22.8965  -19.7007  -13.3576 O   0  0  0  0  0  0  0  0  0  0  0  0
   24.5842  -19.3246   -9.9646 C   0  0  0  0  0  0  0  0  0  0  0  0
   24.8152  -20.8287   -9.9545 C   0  0  2  0  0  0  0  0  0  0  0  0
   25.3312  -21.2372   -8.5996 C   0  0  0  0  0  0  0  0  0  0  0  0
   25.7302  -21.2223  -11.0697 C   0  0  0  0  0  0  0  0  0  0  0  0
   25.3245  -20.7754  -12.4313 C   0  0  2  0  0  0  0  0  0  0  0  0
   24.1819  -21.5470  -12.9141 N   0  0  0  0  0  0  0  0  0  0  0  0
   26.4247  -20.9896  -13.4068 C   0  0  0  0  0  0  0  0  0  0  0  0
   27.5407  -20.3840  -13.3393 O   0  0  0  0  0  0  0  0  0  0  0  0
   26.2921  -21.9012  -14.4937 N   0  0  0  0  0  0  0  0  0  0  0  0
   27.4285  -22.2024  -15.3325 C   0  0  0  0  0  0  0  0  0  0  0  0
   27.3536  -21.4610  -16.6175 C   0  0  0  0  0  0  0  0  0  0  0  0
   26.4796  -20.5962  -16.7751 O   0  0  0  0  0  0  0  0  0  0  0  0
   28.2342  -21.7007  -17.6625 O   0  0  0  0  0  0  0  0  0  0  0  0
  2  3  1  0
  2  1  1  1
  4  2  1  0
  4  5  1  6
  6  4  1  0
  6  7  2  0
  9 11  1  0
  9  8  1  1
 10  9  1  0
 12 11  1  1
 12 13  1  0
 13  6  1  0
 14 12  1  0
 15 14  2  0
 16 14  1  0
 17 16  1  0
 18 20  1  0
 18 17  1  0
 19 18  2  0
M  END
$$$$
