TLG.pdb
     RDKit          3D

 20 19  0  0  1  0  0  0  0  0999 V2000
   19.9745   -6.3594  -20.3489 C   0  0  0  0  0  0  0  0  0  0  0  0
   21.4658   -6.4810  -20.4001 C   0  0  1  0  0  0  0  0  0  0  0  0
   22.0057   -5.4639  -19.6099 O   0  0  0  0  0  0  0  0  0  0  0  0
   21.9505   -7.7894  -19.8285 C   0  0  2  0  0  0  0  0  0  0  0  0
   21.5458   -8.8778  -20.6745 N   0  0  0  0  0  0  0  0  0  0  0  0
   21.5215   -8.0354  -18.4559 C   0  0  0  0  0  0  0  0  0  0  0  0
   20.3540   -8.4161  -18.2207 O   0  0  0  0  0  0  0  0  0  0  0  0
   23.1833  -10.5778  -13.3756 C   0  0  0  0  0  0  0  0  0  0  0  0
   22.2889   -9.4889  -13.9503 C   0  0  2  0  0  0  0  0  0  0  0  0
   20.8671   -9.9852  -13.9783 C   0  0  0  0  0  0  0  0  0  0  0  0
   22.7847   -9.0641  -15.2955 C   0  0  0  0  0  0  0  0  0  0  0  0
   21.9922   -8.0011  -15.9740 C   0  0  2  0  0  0  0  0  0  0  0  0
   22.4059   -7.8517  -17.3670 N   0  0  0  0  0  0  0  0  0  0  0  0
   22.2097   -6.6836  -15.3224 C   0  0  0  0  0  0  0  0  0  0  0  0
   23.3411   -6.1043  -15.2870 O   0  0  0  0  0  0  0  0  0  0  0  0
   21.1459   -5.9795  -14.6879 N   0  0  0  0  0  0  0  0  0  0  0  0
   21.3940   -4.7068  -14.0519 C   0  0  0  0  0  0  0  0  0  0  0  0
   21.2435   -3.5895  -15.0191 C   0  0  0  0  0  0  0  0  0  0  0  0
   21.9385   -3.5706  -16.0454 O   0  0  0  0  0  0  0  0  0  0  0  0
   20.3445   -2.5522  -14.8175 O   0  0  0  0  0  0  0  0  0  0  0  0
  2  3  1  0
  2  1  1  1
  4  2  1  0
  4  5  1  6
  6  4  1  0
  6  7  2  0
  9 11  1  0
  9  8  1  6
 10  9  1  0
 12 11  1  1
 12 13  1  0
 13  6  1  0
 14 12  1  0
 15 14  2  0
 16 14  1  0
 17 16  1  0
 18 20  1  0
 18 17  1  0
 19 18  2  0
M  END
$$$$
