TLG.pdb
     RDKit          3D

 20 19  0  0  1  0  0  0  0  0999 V2000
   27.5115  -22.7749  -18.1230 C   0  0  0  0  0  0  0  0  0  0  0  0
   26.5131  -22.4938  -17.0435 C   0  0  1  0  0  0  0  0  0  0  0  0
   25.2402  -22.7387  -17.5632 O   0  0  0  0  0  0  0  0  0  0  0  0
   26.6880  -23.4048  -15.8546 C   0  0  2  0  0  0  0  0  0  0  0  0
   26.5217  -24.7749  -16.2541 N   0  0  0  0  0  0  0  0  0  0  0  0
   25.8048  -23.0989  -14.7344 C   0  0  0  0  0  0  0  0  0  0  0  0
   24.8759  -23.8803  -14.4343 O   0  0  0  0  0  0  0  0  0  0  0  0
   26.0396  -19.5598   -9.6790 C   0  0  0  0  0  0  0  0  0  0  0  0
   25.1787  -20.4623  -10.5509 C   0  0  2  0  0  0  0  0  0  0  0  0
   24.7007  -21.6296   -9.7277 C   0  0  0  0  0  0  0  0  0  0  0  0
   25.9336  -20.8804  -11.7720 C   0  0  0  0  0  0  0  0  0  0  0  0
   25.1448  -21.6045  -12.8072 C   0  0  2  0  0  0  0  0  0  0  0  0
   25.9746  -21.9227  -13.9666 N   0  0  0  0  0  0  0  0  0  0  0  0
   24.0261  -20.7619  -13.3036 C   0  0  0  0  0  0  0  0  0  0  0  0
   24.1938  -19.5950  -13.7801 O   0  0  0  0  0  0  0  0  0  0  0  0
   22.6769  -21.2189  -13.2744 N   0  0  0  0  0  0  0  0  0  0  0  0
   21.5963  -20.3150  -13.5920 C   0  0  0  0  0  0  0  0  0  0  0  0
   20.2778  -20.9556  -13.3515 C   0  0  0  0  0  0  0  0  0  0  0  0
   20.2236  -22.0360  -12.7461 O   0  0  0  0  0  0  0  0  0  0  0  0
   19.0886  -20.3860  -13.7829 O   0  0  0  0  0  0  0  0  0  0  0  0
  2  3  1  0
  2  1  1  6
  4  2  1  0
  4  5  1  6
  6  4  1  0
  6  7  2  0
  9 11  1  0
  9  8  1  1
 10  9  1  0
 12 11  1  1
 12 13  1  0
 13  6  1  0
 14 12  1  0
 15 14  2  0
 16 14  1  0
 17 16  1  0
 18 20  1  0
 18 17  1  0
 19 18  2  0
M  END
$$$$
