TLG.pdb
     RDKit          3D

 20 19  0  0  1  0  0  0  0  0999 V2000
   13.5682  -20.5691    3.4354 C   0  0  0  0  0  0  0  0  0  0  0  0
   14.1493  -21.5472    2.4623 C   0  0  1  0  0  0  0  0  0  0  0  0
   13.0931  -22.1292    1.7580 O   0  0  0  0  0  0  0  0  0  0  0  0
   15.0423  -20.8790    1.4475 C   0  0  2  0  0  0  0  0  0  0  0  0
   15.4128  -21.8159    0.4232 N   0  0  0  0  0  0  0  0  0  0  0  0
   16.2352  -20.2623    2.0177 C   0  0  0  0  0  0  0  0  0  0  0  0
   17.2302  -20.9635    2.3033 O   0  0  0  0  0  0  0  0  0  0  0  0
   18.7836  -14.6469    2.2320 C   0  0  0  0  0  0  0  0  0  0  0  0
   18.8754  -16.1089    2.6440 C   0  0  2  0  0  0  0  0  0  0  0  0
   20.1241  -16.7084    2.0523 C   0  0  0  0  0  0  0  0  0  0  0  0
   17.6331  -16.8405    2.2473 C   0  0  0  0  0  0  0  0  0  0  0  0
   17.4783  -18.2107    2.8104 C   0  0  2  0  0  0  0  0  0  0  0  0
   16.2965  -18.8697    2.2599 N   0  0  0  0  0  0  0  0  0  0  0  0
   17.2882  -18.1578    4.2830 C   0  0  0  0  0  0  0  0  0  0  0  0
   16.2570  -17.6566    4.8329 O   0  0  0  0  0  0  0  0  0  0  0  0
   18.2663  -18.6740    5.1813 N   0  0  0  0  0  0  0  0  0  0  0  0
   18.0804  -18.5497    6.6081 C   0  0  0  0  0  0  0  0  0  0  0  0
   17.3851  -19.7404    7.1606 C   0  0  0  0  0  0  0  0  0  0  0  0
   17.0301  -20.6506    6.3976 O   0  0  0  0  0  0  0  0  0  0  0  0
   17.1134  -19.8768    8.5142 O   0  0  0  0  0  0  0  0  0  0  0  0
  2  3  1  0
  2  1  1  1
  4  2  1  0
  4  5  1  6
  6  4  1  0
  6  7  2  0
  9 11  1  0
  9  8  1  6
 10  9  1  0
 12 11  1  6
 12 13  1  0
 13  6  1  0
 14 12  1  0
 15 14  2  0
 16 14  1  0
 17 16  1  0
 18 20  1  0
 18 17  1  0
 19 18  2  0
M  END
$$$$
