TLG.pdb
     RDKit          3D

 20 19  0  0  1  0  0  0  0  0999 V2000
   22.8402   -7.3041  -21.2208 C   0  0  0  0  0  0  0  0  0  0  0  0
   22.3630   -8.6180  -21.7568 C   0  0  1  0  0  0  0  0  0  0  0  0
   23.0440   -8.8662  -22.9506 O   0  0  0  0  0  0  0  0  0  0  0  0
   22.6752   -9.7609  -20.8239 C   0  0  2  0  0  0  0  0  0  0  0  0
   22.2660  -11.0054  -21.4138 N   0  0  0  0  0  0  0  0  0  0  0  0
   22.0919   -9.6210  -19.4940 C   0  0  0  0  0  0  0  0  0  0  0  0
   20.8598   -9.7568  -19.3304 O   0  0  0  0  0  0  0  0  0  0  0  0
   23.5158  -10.8091  -13.7431 C   0  0  0  0  0  0  0  0  0  0  0  0
   22.5978   -9.9886  -14.6375 C   0  0  2  0  0  0  0  0  0  0  0  0
   21.1745  -10.4291  -14.4163 C   0  0  0  0  0  0  0  0  0  0  0  0
   23.0271  -10.0995  -16.0655 C   0  0  0  0  0  0  0  0  0  0  0  0
   22.3515   -9.1776  -17.0204 C   0  0  2  0  0  0  0  0  0  0  0  0
   22.8966   -9.3311  -18.3670 N   0  0  0  0  0  0  0  0  0  0  0  0
   22.5722   -7.7605  -16.6316 C   0  0  0  0  0  0  0  0  0  0  0  0
   23.7219   -7.2181  -16.6062 O   0  0  0  0  0  0  0  0  0  0  0  0
   21.4907   -6.9115  -16.2580 N   0  0  0  0  0  0  0  0  0  0  0  0
   21.7337   -5.5261  -15.9307 C   0  0  0  0  0  0  0  0  0  0  0  0
   21.9410   -5.3521  -14.4701 C   0  0  0  0  0  0  0  0  0  0  0  0
   22.1706   -4.2222  -14.0148 O   0  0  0  0  0  0  0  0  0  0  0  0
   21.8872   -6.4174  -13.5830 O   0  0  0  0  0  0  0  0  0  0  0  0
  2  3  1  0
  2  1  1  1
  4  2  1  0
  4  5  1  6
  6  4  1  0
  6  7  2  0
  9 11  1  0
  9  8  1  1
 10  9  1  0
 12 11  1  1
 12 13  1  0
 13  6  1  0
 14 12  1  0
 15 14  2  0
 16 14  1  0
 17 16  1  0
 18 20  1  0
 18 17  1  0
 19 18  2  0
M  END
$$$$
