TLG.pdb
     RDKit          3D

 20 19  0  0  1  0  0  0  0  0999 V2000
   19.8939   -7.7275  -20.2279 C   0  0  0  0  0  0  0  0  0  0  0  0
   19.5944   -9.1932  -20.1709 C   0  0  1  0  0  0  0  0  0  0  0  0
   19.7637   -9.7150  -21.4552 O   0  0  0  0  0  0  0  0  0  0  0  0
   20.5447   -9.9339  -19.2641 C   0  0  2  0  0  0  0  0  0  0  0  0
   20.3171  -11.3492  -19.3609 N   0  0  0  0  0  0  0  0  0  0  0  0
   20.4879   -9.5116  -17.8687 C   0  0  0  0  0  0  0  0  0  0  0  0
   19.5402   -9.8765  -17.1394 O   0  0  0  0  0  0  0  0  0  0  0  0
   21.7346  -10.2434  -13.6861 C   0  0  0  0  0  0  0  0  0  0  0  0
   22.7810   -9.9251  -14.7442 C   0  0  2  0  0  0  0  0  0  0  0  0
   24.1461  -10.2551  -14.1996 C   0  0  0  0  0  0  0  0  0  0  0  0
   22.6582   -8.5020  -15.1863 C   0  0  0  0  0  0  0  0  0  0  0  0
   21.4246   -8.1628  -15.9488 C   0  0  2  0  0  0  0  0  0  0  0  0
   21.4930   -8.6871  -17.3105 N   0  0  0  0  0  0  0  0  0  0  0  0
   21.2657   -6.6903  -16.0677 C   0  0  0  0  0  0  0  0  0  0  0  0
   22.1430   -5.9374  -16.5972 O   0  0  0  0  0  0  0  0  0  0  0  0
   20.1017   -6.0235  -15.5876 N   0  0  0  0  0  0  0  0  0  0  0  0
   19.9917   -4.5872  -15.6916 C   0  0  0  0  0  0  0  0  0  0  0  0
   18.6267   -4.1295  -15.3259 C   0  0  0  0  0  0  0  0  0  0  0  0
   17.7244   -4.9638  -15.1636 O   0  0  0  0  0  0  0  0  0  0  0  0
   18.3167   -2.7879  -15.1564 O   0  0  0  0  0  0  0  0  0  0  0  0
  2  3  1  0
  2  1  1  6
  4  2  1  0
  4  5  1  1
  6  4  1  0
  6  7  2  0
  9 11  1  0
  9  8  1  1
 10  9  1  0
 12 11  1  1
 12 13  1  0
 13  6  1  0
 14 12  1  0
 15 14  2  0
 16 14  1  0
 17 16  1  0
 18 20  1  0
 18 17  1  0
 19 18  2  0
M  END
$$$$
