TLG.pdb
     RDKit          3D

 20 19  0  0  1  0  0  0  0  0999 V2000
   25.2995  -10.5582  -15.1916 C   0  0  0  0  0  0  0  0  0  0  0  0
   24.8465  -11.5854  -16.1820 C   0  0  1  0  0  0  0  0  0  0  0  0
   25.4784  -12.7906  -15.8681 O   0  0  0  0  0  0  0  0  0  0  0  0
   23.3609  -11.8326  -16.1071 C   0  0  2  0  0  0  0  0  0  0  0  0
   22.9887  -12.8816  -17.0156 N   0  0  0  0  0  0  0  0  0  0  0  0
   22.5464  -10.6469  -16.3503 C   0  0  0  0  0  0  0  0  0  0  0  0
   22.3639  -10.2380  -17.5177 O   0  0  0  0  0  0  0  0  0  0  0  0
   18.6212   -8.9672  -17.3166 C   0  0  0  0  0  0  0  0  0  0  0  0
   18.9168   -9.7799  -16.0644 C   0  0  2  0  0  0  0  0  0  0  0  0
   17.6181  -10.2685  -15.4783 C   0  0  0  0  0  0  0  0  0  0  0  0
   19.7251   -8.9733  -15.0991 C   0  0  0  0  0  0  0  0  0  0  0  0
   21.1443   -8.7331  -15.4818 C   0  0  2  0  0  0  0  0  0  0  0  0
   21.9483   -9.9364  -15.2830 N   0  0  0  0  0  0  0  0  0  0  0  0
   21.7479   -7.6735  -14.6329 C   0  0  0  0  0  0  0  0  0  0  0  0
   22.0050   -7.8351  -13.3982 O   0  0  0  0  0  0  0  0  0  0  0  0
   22.0798   -6.3924  -15.1608 N   0  0  0  0  0  0  0  0  0  0  0  0
   22.6076   -5.3640  -14.2950 C   0  0  0  0  0  0  0  0  0  0  0  0
   21.5275   -4.4621  -13.8191 C   0  0  0  0  0  0  0  0  0  0  0  0
   20.3451   -4.7386  -14.0683 O   0  0  0  0  0  0  0  0  0  0  0  0
   21.7922   -3.3073  -13.0973 O   0  0  0  0  0  0  0  0  0  0  0  0
  2  3  1  0
  2  1  1  1
  4  2  1  0
  4  5  1  6
  6  4  1  0
  6  7  2  0
  9 11  1  0
  9  8  1  6
 10  9  1  0
 12 11  1  1
 12 13  1  0
 13  6  1  0
 14 12  1  0
 15 14  2  0
 16 14  1  0
 17 16  1  0
 18 20  1  0
 18 17  1  0
 19 18  2  0
M  END
$$$$
