TLG.pdb
     RDKit          3D

 20 19  0  0  1  0  0  0  0  0999 V2000
   19.8059  -12.9458  -19.0924 C   0  0  0  0  0  0  0  0  0  0  0  0
   20.4333  -11.9364  -18.1821 C   0  0  1  0  0  0  0  0  0  0  0  0
   19.4112  -11.3199  -17.4572 O   0  0  0  0  0  0  0  0  0  0  0  0
   21.3636  -12.5731  -17.1806 C   0  0  2  0  0  0  0  0  0  0  0  0
   20.6847  -13.6250  -16.4755 N   0  0  0  0  0  0  0  0  0  0  0  0
   21.9522  -11.6333  -16.2325 C   0  0  0  0  0  0  0  0  0  0  0  0
   21.6773  -11.7127  -15.0154 O   0  0  0  0  0  0  0  0  0  0  0  0
   25.9421  -10.9137  -14.4639 C   0  0  0  0  0  0  0  0  0  0  0  0
   25.8220  -10.5591  -15.9389 C   0  0  2  0  0  0  0  0  0  0  0  0
   27.1961  -10.2849  -16.4915 C   0  0  0  0  0  0  0  0  0  0  0  0
   24.8799   -9.4127  -16.1237 C   0  0  0  0  0  0  0  0  0  0  0  0
   23.4629   -9.6685  -15.7428 C   0  0  2  0  0  0  0  0  0  0  0  0
   22.8398  -10.6184  -16.6612 N   0  0  0  0  0  0  0  0  0  0  0  0
   22.6628   -8.4186  -15.8166 C   0  0  0  0  0  0  0  0  0  0  0  0
   22.9331   -7.3794  -15.1357 O   0  0  0  0  0  0  0  0  0  0  0  0
   21.5262   -8.3087  -16.6689 N   0  0  0  0  0  0  0  0  0  0  0  0
   20.8200   -7.0540  -16.7804 C   0  0  0  0  0  0  0  0  0  0  0  0
   19.6579   -7.0126  -15.8561 C   0  0  0  0  0  0  0  0  0  0  0  0
   19.4416   -7.9721  -15.1016 O   0  0  0  0  0  0  0  0  0  0  0  0
   18.7931   -5.9291  -15.8025 O   0  0  0  0  0  0  0  0  0  0  0  0
  2  3  1  0
  2  1  1  6
  4  2  1  0
  4  5  1  1
  6  4  1  0
  6  7  2  0
  9 11  1  0
  9  8  1  1
 10  9  1  0
 12 11  1  6
 12 13  1  0
 13  6  1  0
 14 12  1  0
 15 14  2  0
 16 14  1  0
 17 16  1  0
 18 20  1  0
 18 17  1  0
 19 18  2  0
M  END
$$$$
