TLG.pdb
     RDKit          3D

 20 19  0  0  1  0  0  0  0  0999 V2000
   18.1825  -12.4019  -16.1068 C   0  0  0  0  0  0  0  0  0  0  0  0
   19.1106  -12.5126  -17.2763 C   0  0  1  0  0  0  0  0  0  0  0  0
   18.3538  -12.8831  -18.3900 O   0  0  0  0  0  0  0  0  0  0  0  0
   19.7693  -11.1972  -17.6072 C   0  0  2  0  0  0  0  0  0  0  0  0
   20.3173  -11.2397  -18.9347 N   0  0  0  0  0  0  0  0  0  0  0  0
   20.7957  -10.7882  -16.6544 C   0  0  0  0  0  0  0  0  0  0  0  0
   20.5147  -10.6635  -15.4425 O   0  0  0  0  0  0  0  0  0  0  0  0
   26.9632  -10.1769  -16.4903 C   0  0  0  0  0  0  0  0  0  0  0  0
   25.6425   -9.9308  -15.7754 C   0  0  2  0  0  0  0  0  0  0  0  0
   25.7038  -10.5502  -14.4038 C   0  0  0  0  0  0  0  0  0  0  0  0
   24.5028  -10.4438  -16.5963 C   0  0  0  0  0  0  0  0  0  0  0  0
   23.1462   -9.9947  -16.1766 C   0  0  2  0  0  0  0  0  0  0  0  0
   22.1215  -10.5250  -17.0725 N   0  0  0  0  0  0  0  0  0  0  0  0
   23.0383   -8.5140  -16.2367 C   0  0  0  0  0  0  0  0  0  0  0  0
   23.1831   -7.8499  -17.3114 O   0  0  0  0  0  0  0  0  0  0  0  0
   22.7618   -7.7375  -15.0745 N   0  0  0  0  0  0  0  0  0  0  0  0
   22.7288   -6.2959  -15.1544 C   0  0  0  0  0  0  0  0  0  0  0  0
   22.2784   -5.7013  -13.8698 C   0  0  0  0  0  0  0  0  0  0  0  0
   22.3286   -4.4726  -13.7132 O   0  0  0  0  0  0  0  0  0  0  0  0
   21.7973   -6.4759  -12.8242 O   0  0  0  0  0  0  0  0  0  0  0  0
  2  3  1  0
  2  1  1  1
  4  2  1  0
  4  5  1  6
  6  4  1  0
  6  7  2  0
  9 11  1  0
  9  8  1  6
 10  9  1  0
 12 11  1  6
 12 13  1  0
 13  6  1  0
 14 12  1  0
 15 14  2  0
 16 14  1  0
 17 16  1  0
 18 20  1  0
 18 17  1  0
 19 18  2  0
M  END
$$$$
