FET.pdb
     RDKit          3D

 28 28  0  0  1  0  0  0  0  0999 V2000
   24.4211  -12.7060  -17.2988 N   0  0  0  0  0  0  0  0  0  0  0  0
   24.6630  -11.4466  -16.6690 C   0  0  1  0  0  0  0  0  0  0  0  0
   25.9491  -10.8572  -17.1450 C   0  0  0  0  0  0  0  0  0  0  0  0
   27.0357  -11.8126  -16.7766 C   0  0  0  0  0  0  0  0  0  0  0  0
   27.9188  -12.3260  -17.7020 C   0  0  0  0  0  0  0  0  0  0  0  0
   28.9210  -13.2132  -17.3525 C   0  0  0  0  0  0  0  0  0  0  0  0
   29.0751  -13.6243  -16.0372 C   0  0  0  0  0  0  0  0  0  0  0  0
   28.1953  -13.1149  -15.1061 C   0  0  0  0  0  0  0  0  0  0  0  0
   27.1895  -12.2234  -15.4613 C   0  0  0  0  0  0  0  0  0  0  0  0
   23.5024  -10.5323  -16.7342 C   0  0  0  0  0  0  0  0  0  0  0  0
   22.7227  -10.6235  -17.7175 O   0  0  0  0  0  0  0  0  0  0  0  0
   23.2245   -9.5562  -15.7410 N   0  0  0  0  0  0  0  0  0  0  0  0
   22.1064   -8.6459  -15.7724 C   0  0  1  0  0  0  0  0  0  0  0  0
   20.8860   -9.1201  -15.0845 C   0  0  0  0  0  0  0  0  0  0  0  0
   19.7122   -8.2169  -15.0612 C   0  0  0  0  0  0  0  0  0  0  0  0
   18.5590   -8.6262  -14.2819 C   0  0  0  0  0  0  0  0  0  0  0  0
   17.5193   -7.9314  -14.2797 O   0  0  0  0  0  0  0  0  0  0  0  0
   22.5228   -7.2561  -15.4662 C   0  0  0  0  0  0  0  0  0  0  0  0
   23.3358   -7.0888  -14.5313 O   0  0  0  0  0  0  0  0  0  0  0  0
   18.5549   -9.7801  -13.5197 O   0  0  0  0  0  0  0  0  0  0  0  0
   23.8109   -4.7208  -18.0617 C   0  0  0  0  0  0  0  0  0  0  0  0
   22.6399   -4.0556  -17.3249 C   0  0  1  0  0  0  0  0  0  0  0  0
   21.5566   -4.1823  -18.2046 O   0  0  0  0  0  0  0  0  0  0  0  0
   22.4249   -4.7738  -16.0471 C   0  0  2  0  0  0  0  0  0  0  0  0
   22.0481   -6.1390  -16.1743 N   0  0  0  0  0  0  0  0  0  0  0  0
   21.5374   -4.0027  -15.1358 C   0  0  0  0  0  0  0  0  0  0  0  0
   21.8395   -2.7195  -14.7158 O   0  0  0  0  0  0  0  0  0  0  0  0
   20.4714   -4.5026  -14.7194 O   0  0  0  0  0  0  0  0  0  0  0  0
  2  3  1  0
  2  1  1  6
  3  4  1  0
  4  9  2  0
  5  4  1  0
  5  6  2  0
  6  7  1  0
  7  8  2  0
  9  8  1  0
 10 12  1  0
 10  2  1  0
 11 10  2  0
 13 12  1  0
 13 14  1  1
 14 15  1  0
 15 16  1  0
 16 20  1  0
 17 16  2  0
 18 19  2  0
 18 13  1  0
 22 21  1  6
 22 24  1  0
 23 22  1  0
 24 26  1  0
 24 25  1  6
 25 18  1  0
 26 27  1  0
 28 26  2  0
M  END
$$$$
