FET.pdb
     RDKit          3D

 28 28  0  0  1  0  0  0  0  0999 V2000
   27.0750  -17.3622  -17.1109 N   0  0  0  0  0  0  0  0  0  0  0  0
   26.1777  -17.1237  -16.0249 C   0  0  1  0  0  0  0  0  0  0  0  0
   25.3576  -15.9023  -16.2769 C   0  0  0  0  0  0  0  0  0  0  0  0
   26.3011  -14.7489  -16.3715 C   0  0  0  0  0  0  0  0  0  0  0  0
   26.8656  -14.1580  -15.2615 C   0  0  0  0  0  0  0  0  0  0  0  0
   27.7367  -13.0876  -15.3581 C   0  0  0  0  0  0  0  0  0  0  0  0
   28.0782  -12.5626  -16.5953 C   0  0  0  0  0  0  0  0  0  0  0  0
   27.5173  -13.1486  -17.7099 C   0  0  0  0  0  0  0  0  0  0  0  0
   26.6424  -14.2242  -17.6087 C   0  0  0  0  0  0  0  0  0  0  0  0
   25.4004  -18.3216  -15.6401 C   0  0  0  0  0  0  0  0  0  0  0  0
   25.0549  -19.1269  -16.5431 O   0  0  0  0  0  0  0  0  0  0  0  0
   25.0248  -18.6079  -14.3009 N   0  0  0  0  0  0  0  0  0  0  0  0
   24.2245  -19.7366  -13.8945 C   0  0  1  0  0  0  0  0  0  0  0  0
   24.6616  -20.4058  -12.6501 C   0  0  0  0  0  0  0  0  0  0  0  0
   23.8616  -21.5552  -12.1673 C   0  0  0  0  0  0  0  0  0  0  0  0
   23.9263  -22.7904  -12.9252 C   0  0  0  0  0  0  0  0  0  0  0  0
   24.6929  -22.8889  -13.9083 O   0  0  0  0  0  0  0  0  0  0  0  0
   22.7743  -19.4450  -13.9969 C   0  0  0  0  0  0  0  0  0  0  0  0
   22.3390  -18.4514  -13.3755 O   0  0  0  0  0  0  0  0  0  0  0  0
   23.1586  -23.8949  -12.6039 O   0  0  0  0  0  0  0  0  0  0  0  0
   20.7987  -18.4211  -16.6727 C   0  0  0  0  0  0  0  0  0  0  0  0
   20.0307  -19.6857  -16.2633 C   0  0  1  0  0  0  0  0  0  0  0  0
   20.3647  -20.6298  -17.2434 O   0  0  0  0  0  0  0  0  0  0  0  0
   20.4793  -20.0855  -14.9091 C   0  0  2  0  0  0  0  0  0  0  0  0
   21.8855  -20.2279  -14.7531 N   0  0  0  0  0  0  0  0  0  0  0  0
   19.7119  -21.2574  -14.4089 C   0  0  0  0  0  0  0  0  0  0  0  0
   18.3410  -21.2232  -14.2248 O   0  0  0  0  0  0  0  0  0  0  0  0
   20.2967  -22.3274  -14.1393 O   0  0  0  0  0  0  0  0  0  0  0  0
  2  3  1  0
  2  1  1  6
  3  4  1  0
  4  9  2  0
  5  4  1  0
  5  6  2  0
  6  7  1  0
  7  8  2  0
  9  8  1  0
 10 12  1  0
 10  2  1  0
 11 10  2  0
 13 12  1  0
 13 14  1  1
 14 15  1  0
 15 16  1  0
 16 20  1  0
 17 16  2  0
 18 19  2  0
 18 13  1  0
 22 21  1  6
 22 24  1  0
 23 22  1  0
 24 26  1  0
 24 25  1  6
 25 18  1  0
 26 27  1  0
 28 26  2  0
M  END
$$$$
