FET.pdb
     RDKit          3D

 28 28  0  0  1  0  0  0  0  0999 V2000
   28.8711  -20.8322   -8.4622 N   0  0  0  0  0  0  0  0  0  0  0  0
   27.4645  -20.5821   -8.4812 C   0  0  1  0  0  0  0  0  0  0  0  0
   27.1270  -19.4028   -7.6307 C   0  0  0  0  0  0  0  0  0  0  0  0
   27.7869  -19.6096   -6.3074 C   0  0  0  0  0  0  0  0  0  0  0  0
   29.0652  -19.1698   -6.0380 C   0  0  0  0  0  0  0  0  0  0  0  0
   29.6703  -19.3683   -4.8099 C   0  0  0  0  0  0  0  0  0  0  0  0
   29.0013  -20.0275   -3.7897 C   0  0  0  0  0  0  0  0  0  0  0  0
   27.7224  -20.4701   -4.0521 C   0  0  0  0  0  0  0  0  0  0  0  0
   27.1177  -20.2687   -5.2875 C   0  0  0  0  0  0  0  0  0  0  0  0
   26.9005  -20.5402   -9.8478 C   0  0  0  0  0  0  0  0  0  0  0  0
   27.6653  -20.2456  -10.8025 O   0  0  0  0  0  0  0  0  0  0  0  0
   25.5377  -20.8167  -10.1355 N   0  0  0  0  0  0  0  0  0  0  0  0
   24.9939  -20.9812  -11.4610 C   0  0  1  0  0  0  0  0  0  0  0  0
   25.6915  -21.9695  -12.3120 C   0  0  0  0  0  0  0  0  0  0  0  0
   25.2649  -22.0857  -13.7257 C   0  0  0  0  0  0  0  0  0  0  0  0
   25.9214  -21.2372  -14.7023 C   0  0  0  0  0  0  0  0  0  0  0  0
   27.1677  -21.1362  -14.7150 O   0  0  0  0  0  0  0  0  0  0  0  0
   23.5144  -21.0776  -11.4380 C   0  0  0  0  0  0  0  0  0  0  0  0
   23.0001  -21.8862  -10.6351 O   0  0  0  0  0  0  0  0  0  0  0  0
   25.2147  -20.5141  -15.6458 O   0  0  0  0  0  0  0  0  0  0  0  0
   21.0124  -17.9917  -11.4469 C   0  0  0  0  0  0  0  0  0  0  0  0
   20.6799  -18.9341  -12.6123 C   0  0  1  0  0  0  0  0  0  0  0  0
   21.2643  -18.3256  -13.7312 O   0  0  0  0  0  0  0  0  0  0  0  0
   21.2617  -20.2641  -12.3168 C   0  0  2  0  0  0  0  0  0  0  0  0
   22.6821  -20.3081  -12.2684 N   0  0  0  0  0  0  0  0  0  0  0  0
   20.6713  -21.3178  -13.1850 C   0  0  0  0  0  0  0  0  0  0  0  0
   19.3205  -21.6168  -13.1753 O   0  0  0  0  0  0  0  0  0  0  0  0
   21.3944  -21.9724  -13.9649 O   0  0  0  0  0  0  0  0  0  0  0  0
  2  3  1  0
  2  1  1  6
  3  4  1  0
  4  9  2  0
  5  4  1  0
  5  6  2  0
  6  7  1  0
  7  8  2  0
  9  8  1  0
 10 12  1  0
 10  2  1  0
 11 10  2  0
 13 12  1  0
 13 14  1  1
 14 15  1  0
 15 16  1  0
 16 20  1  0
 17 16  2  0
 18 19  2  0
 18 13  1  0
 22 21  1  1
 22 24  1  0
 23 22  1  0
 24 26  1  0
 24 25  1  6
 25 18  1  0
 26 27  1  0
 28 26  2  0
M  END
$$$$
