FET.pdb
     RDKit          3D

 28 28  0  0  1  0  0  0  0  0999 V2000
   25.1757  -10.9706  -17.9511 N   0  0  0  0  0  0  0  0  0  0  0  0
   24.8292  -10.5613  -16.6269 C   0  0  1  0  0  0  0  0  0  0  0  0
   26.0357  -10.0821  -15.8902 C   0  0  0  0  0  0  0  0  0  0  0  0
   27.0311  -11.1950  -15.9021 C   0  0  0  0  0  0  0  0  0  0  0  0
   28.2252  -11.1164  -16.5859 C   0  0  0  0  0  0  0  0  0  0  0  0
   29.1406  -12.1535  -16.5940 C   0  0  0  0  0  0  0  0  0  0  0  0
   28.8849  -13.3284  -15.9031 C   0  0  0  0  0  0  0  0  0  0  0  0
   27.6924  -13.4141  -15.2168 C   0  0  0  0  0  0  0  0  0  0  0  0
   26.7751  -12.3695  -15.2110 C   0  0  0  0  0  0  0  0  0  0  0  0
   23.6742   -9.6385  -16.5878 C   0  0  0  0  0  0  0  0  0  0  0  0
   23.4777   -8.8828  -17.5745 O   0  0  0  0  0  0  0  0  0  0  0  0
   22.7754   -9.5635  -15.4909 N   0  0  0  0  0  0  0  0  0  0  0  0
   21.6296   -8.6903  -15.4247 C   0  0  1  0  0  0  0  0  0  0  0  0
   20.3754   -9.3270  -14.9673 C   0  0  0  0  0  0  0  0  0  0  0  0
   19.8999  -10.5214  -15.7031 C   0  0  0  0  0  0  0  0  0  0  0  0
   18.6648  -11.1409  -15.2611 C   0  0  0  0  0  0  0  0  0  0  0  0
   18.2234  -12.1555  -15.8437 O   0  0  0  0  0  0  0  0  0  0  0  0
   21.9654   -7.3932  -14.7894 C   0  0  0  0  0  0  0  0  0  0  0  0
   22.3629   -7.4155  -13.6043 O   0  0  0  0  0  0  0  0  0  0  0  0
   17.9316  -10.6487  -14.1969 O   0  0  0  0  0  0  0  0  0  0  0  0
   24.1202   -4.7119  -16.5546 C   0  0  0  0  0  0  0  0  0  0  0  0
   22.8656   -4.0001  -16.0293 C   0  0  1  0  0  0  0  0  0  0  0  0
   22.0613   -3.8274  -17.1637 O   0  0  0  0  0  0  0  0  0  0  0  0
   22.2324   -4.8653  -15.0069 C   0  0  2  0  0  0  0  0  0  0  0  0
   21.8573   -6.1611  -15.4564 N   0  0  0  0  0  0  0  0  0  0  0  0
   21.1380   -4.1511  -14.2964 C   0  0  0  0  0  0  0  0  0  0  0  0
   21.3487   -2.9734  -13.6016 O   0  0  0  0  0  0  0  0  0  0  0  0
   19.9741   -4.6037  -14.3113 O   0  0  0  0  0  0  0  0  0  0  0  0
  2  3  1  0
  2  1  1  6
  3  4  1  0
  4  9  2  0
  5  4  1  0
  5  6  2  0
  6  7  1  0
  7  8  2  0
  9  8  1  0
 10 12  1  0
 10  2  1  0
 11 10  2  0
 13 12  1  0
 13 14  1  1
 14 15  1  0
 15 16  1  0
 16 20  1  0
 17 16  2  0
 18 19  2  0
 18 13  1  0
 22 21  1  6
 22 24  1  0
 23 22  1  0
 24 26  1  0
 24 25  1  6
 25 18  1  0
 26 27  1  0
 28 26  2  0
M  END
$$$$
