FET.pdb
     RDKit          3D

 28 28  0  0  1  0  0  0  0  0999 V2000
   25.4483  -10.7674  -18.1698 N   0  0  0  0  0  0  0  0  0  0  0  0
   24.9162  -10.5481  -16.8621 C   0  0  1  0  0  0  0  0  0  0  0  0
   26.0156  -10.3648  -15.8693 C   0  0  0  0  0  0  0  0  0  0  0  0
   26.8341  -11.6135  -15.8813 C   0  0  0  0  0  0  0  0  0  0  0  0
   28.0980  -11.6680  -16.4283 C   0  0  0  0  0  0  0  0  0  0  0  0
   28.8484  -12.8301  -16.4378 C   0  0  0  0  0  0  0  0  0  0  0  0
   28.3472  -14.0006  -15.8885 C   0  0  0  0  0  0  0  0  0  0  0  0
   27.0836  -13.9535  -15.3397 C   0  0  0  0  0  0  0  0  0  0  0  0
   26.3326  -12.7836  -15.3319 C   0  0  0  0  0  0  0  0  0  0  0  0
   23.8718   -9.5016  -16.8281 C   0  0  0  0  0  0  0  0  0  0  0  0
   23.8974   -8.6011  -17.7066 O   0  0  0  0  0  0  0  0  0  0  0  0
   22.8408   -9.4632  -15.8524 N   0  0  0  0  0  0  0  0  0  0  0  0
   21.7269   -8.5473  -15.8684 C   0  0  1  0  0  0  0  0  0  0  0  0
   20.4182   -9.1377  -15.5133 C   0  0  0  0  0  0  0  0  0  0  0  0
   20.1162  -10.4983  -16.0151 C   0  0  0  0  0  0  0  0  0  0  0  0
   19.4570  -11.4219  -15.1112 C   0  0  0  0  0  0  0  0  0  0  0  0
   19.7306  -12.6416  -15.1444 O   0  0  0  0  0  0  0  0  0  0  0  0
   22.0613   -7.2666  -15.2001 C   0  0  0  0  0  0  0  0  0  0  0  0
   22.4501   -7.3180  -14.0130 O   0  0  0  0  0  0  0  0  0  0  0  0
   18.5137  -11.0061  -14.1894 O   0  0  0  0  0  0  0  0  0  0  0  0
   24.3714   -4.6573  -16.7242 C   0  0  0  0  0  0  0  0  0  0  0  0
   23.0981   -3.9002  -16.3217 C   0  0  1  0  0  0  0  0  0  0  0  0
   22.4092   -3.7098  -17.5270 O   0  0  0  0  0  0  0  0  0  0  0  0
   22.3436   -4.7359  -15.3588 C   0  0  2  0  0  0  0  0  0  0  0  0
   21.9608   -6.0187  -15.8383 N   0  0  0  0  0  0  0  0  0  0  0  0
   21.2183   -3.9775  -14.7498 C   0  0  0  0  0  0  0  0  0  0  0  0
   21.4119   -2.8098  -14.0334 O   0  0  0  0  0  0  0  0  0  0  0  0
   20.0432   -4.3814  -14.8746 O   0  0  0  0  0  0  0  0  0  0  0  0
  2  3  1  0
  2  1  1  6
  3  4  1  0
  4  9  2  0
  5  4  1  0
  5  6  2  0
  6  7  1  0
  7  8  2  0
  9  8  1  0
 10 12  1  0
 10  2  1  0
 11 10  2  0
 13 12  1  0
 13 14  1  1
 14 15  1  0
 15 16  1  0
 16 20  1  0
 17 16  2  0
 18 19  2  0
 18 13  1  0
 22 21  1  6
 22 24  1  0
 23 22  1  0
 24 26  1  0
 24 25  1  6
 25 18  1  0
 26 27  1  0
 28 26  2  0
M  END
$$$$
