NWT.pdb
     RDKit          3D

 30 31  0  0  1  0  0  0  0  0999 V2000
   29.8148  -19.4490  -15.5230 N   0  0  0  0  0  0  0  0  0  0  0  0
   29.3512  -20.7452  -15.7176 C   0  0  0  0  0  0  0  0  0  0  0  0
   29.7311  -21.3907  -16.7513 O   0  0  0  0  0  0  0  0  0  0  0  0
   28.4284  -21.4284  -14.7703 C   0  0  0  0  0  0  0  0  0  0  0  0
   28.0614  -20.3639  -13.6809 C   0  0  2  0  0  0  0  0  0  0  0  0
   29.2528  -20.1254  -12.9461 N   0  0  0  0  0  0  0  0  0  0  0  0
   26.9398  -20.9600  -12.8677 C   0  0  0  0  0  0  0  0  0  0  0  0
   25.9951  -21.4686  -13.4526 O   0  0  0  0  0  0  0  0  0  0  0  0
   26.9949  -20.9128  -11.4376 N   0  0  0  0  0  0  0  0  0  0  0  0
   26.1059  -21.3467  -10.4780 C   0  0  1  0  0  0  0  0  0  0  0  0
   26.3791  -21.5239   -9.0254 C   0  0  0  0  0  0  0  0  0  0  0  0
   26.9384  -20.4499   -8.2270 C   0  0  0  0  0  0  0  0  0  0  0  0
   26.7679  -19.0608   -8.4324 C   0  0  0  0  0  0  0  0  0  0  0  0
   27.3426  -18.3866   -7.4394 N   0  0  0  0  0  0  0  0  0  0  0  0
   27.8946  -19.2967   -6.5769 C   0  0  0  0  0  0  0  0  0  0  0  0
   28.6385  -19.1210   -5.4140 C   0  0  0  0  0  0  0  0  0  0  0  0
   29.1203  -20.2183   -4.7684 C   0  0  0  0  0  0  0  0  0  0  0  0
   28.8954  -21.4818   -5.2180 C   0  0  0  0  0  0  0  0  0  0  0  0
   28.1494  -21.6659   -6.3796 C   0  0  0  0  0  0  0  0  0  0  0  0
   27.6463  -20.5422   -7.0626 C   0  0  0  0  0  0  0  0  0  0  0  0
   24.7845  -20.5774  -10.5349 C   0  0  0  0  0  0  0  0  0  0  0  0
   24.8801  -19.3625  -10.2506 O   0  0  0  0  0  0  0  0  0  0  0  0
   23.2233  -19.6433  -13.3626 C   0  0  0  0  0  0  0  0  0  0  0  0
   22.0797  -20.4022  -12.6509 C   0  0  1  0  0  0  0  0  0  0  0  0
   22.0247  -21.6917  -13.1590 O   0  0  0  0  0  0  0  0  0  0  0  0
   22.3733  -20.3372  -11.1866 C   0  0  2  0  0  0  0  0  0  0  0  0
   23.5668  -21.1477  -10.8783 N   0  0  0  0  0  0  0  0  0  0  0  0
   21.2058  -20.9483  -10.4608 C   0  0  0  0  0  0  0  0  0  0  0  0
   20.0989  -20.3311  -10.3989 O   0  0  0  0  0  0  0  0  0  0  0  0
   21.3044  -22.1790   -9.8524 O   0  0  0  0  0  0  0  0  0  0  0  0
  2  1  1  0
  2  3  2  0
  4  2  1  0
  5  7  1  0
  5  4  1  0
  5  6  1  1
  7  8  2  0
  9 10  1  0
  9  7  1  0
 10 21  1  0
 11 12  1  0
 10 11  1  1
 12 13  2  0
 14 13  1  0
 15 14  1  0
 16 15  2  0
 17 16  1  0
 18 19  1  0
 18 17  2  0
 19 20  2  0
 20 15  1  0
 20 12  1  0
 21 22  2  0
 24 23  1  6
 24 25  1  0
 24 26  1  0
 26 28  1  0
 26 27  1  6
 27 21  1  0
 28 29  2  0
 28 30  1  0
M  END
$$$$
