NWT.pdb
     RDKit          3D

 30 31  0  0  1  0  0  0  0  0999 V2000
   29.1619  -18.6508  -16.3954 N   0  0  0  0  0  0  0  0  0  0  0  0
   28.6862  -18.4089  -15.1117 C   0  0  0  0  0  0  0  0  0  0  0  0
   29.1450  -17.4130  -14.4581 O   0  0  0  0  0  0  0  0  0  0  0  0
   27.6549  -19.2576  -14.4545 C   0  0  0  0  0  0  0  0  0  0  0  0
   28.4412  -20.3342  -13.6316 C   0  0  2  0  0  0  0  0  0  0  0  0
   29.1605  -21.1076  -14.5808 N   0  0  0  0  0  0  0  0  0  0  0  0
   27.4080  -21.1105  -12.8541 C   0  0  0  0  0  0  0  0  0  0  0  0
   26.6259  -21.8238  -13.4647 O   0  0  0  0  0  0  0  0  0  0  0  0
   27.3545  -20.9932  -11.4281 N   0  0  0  0  0  0  0  0  0  0  0  0
   26.4209  -21.4310  -10.5135 C   0  0  1  0  0  0  0  0  0  0  0  0
   26.6229  -21.6077   -9.0493 C   0  0  0  0  0  0  0  0  0  0  0  0
   26.8602  -20.4723   -8.1786 C   0  0  0  0  0  0  0  0  0  0  0  0
   26.3609  -19.1587   -8.3398 C   0  0  0  0  0  0  0  0  0  0  0  0
   26.7029  -18.4166   -7.2896 N   0  0  0  0  0  0  0  0  0  0  0  0
   27.4217  -19.2069   -6.4319 C   0  0  0  0  0  0  0  0  0  0  0  0
   28.0431  -18.9146   -5.2215 C   0  0  0  0  0  0  0  0  0  0  0  0
   28.7506  -19.8922   -4.5916 C   0  0  0  0  0  0  0  0  0  0  0  0
   28.8673  -21.1472   -5.1021 C   0  0  0  0  0  0  0  0  0  0  0  0
   28.2460  -21.4481   -6.3116 C   0  0  0  0  0  0  0  0  0  0  0  0
   27.5130  -20.4483   -6.9791 C   0  0  0  0  0  0  0  0  0  0  0  0
   25.1009  -20.6670  -10.6353 C   0  0  0  0  0  0  0  0  0  0  0  0
   25.1913  -19.4386  -10.4143 O   0  0  0  0  0  0  0  0  0  0  0  0
   22.5546  -22.1898  -13.2672 C   0  0  0  0  0  0  0  0  0  0  0  0
   22.7207  -20.6727  -13.0203 C   0  0  1  0  0  0  0  0  0  0  0  0
   21.6727  -20.0088  -13.6407 O   0  0  0  0  0  0  0  0  0  0  0  0
   22.7666  -20.4859  -11.5378 C   0  0  2  0  0  0  0  0  0  0  0  0
   23.8896  -21.2558  -10.9701 N   0  0  0  0  0  0  0  0  0  0  0  0
   21.4927  -21.0485  -10.9687 C   0  0  0  0  0  0  0  0  0  0  0  0
   21.5135  -22.1281  -10.3024 O   0  0  0  0  0  0  0  0  0  0  0  0
   20.2845  -20.4149  -11.1516 O   0  0  0  0  0  0  0  0  0  0  0  0
  2  1  1  0
  2  3  2  0
  4  2  1  0
  5  7  1  0
  5  4  1  0
  5  6  1  6
  7  8  2  0
  9 10  1  0
  9  7  1  0
 10 21  1  0
 11 12  1  0
 10 11  1  1
 12 13  2  0
 14 13  1  0
 15 14  1  0
 16 15  2  0
 17 16  1  0
 18 19  1  0
 18 17  2  0
 19 20  2  0
 20 15  1  0
 20 12  1  0
 21 22  2  0
 24 23  1  1
 24 25  1  0
 24 26  1  0
 26 28  1  0
 26 27  1  1
 27 21  1  0
 28 29  2  0
 28 30  1  0
M  END
$$$$
