NWT.pdb
     RDKit          3D

 30 31  0  0  1  0  0  0  0  0999 V2000
   27.5776  -13.4817  -22.2347 N   0  0  0  0  0  0  0  0  0  0  0  0
   26.4243  -13.1260  -22.9249 C   0  0  0  0  0  0  0  0  0  0  0  0
   26.5241  -12.7203  -24.1311 O   0  0  0  0  0  0  0  0  0  0  0  0
   25.0639  -13.1988  -22.3251 C   0  0  0  0  0  0  0  0  0  0  0  0
   25.2740  -13.5948  -20.8238 C   0  0  2  0  0  0  0  0  0  0  0  0
   25.6265  -14.9704  -20.8250 N   0  0  0  0  0  0  0  0  0  0  0  0
   23.9762  -13.2876  -20.1195 C   0  0  0  0  0  0  0  0  0  0  0  0
   22.9361  -13.3262  -20.7598 O   0  0  0  0  0  0  0  0  0  0  0  0
   23.9845  -12.9500  -18.7281 N   0  0  0  0  0  0  0  0  0  0  0  0
   22.9565  -12.7962  -17.8230 C   0  0  1  0  0  0  0  0  0  0  0  0
   22.8937  -13.3516  -16.4433 C   0  0  0  0  0  0  0  0  0  0  0  0
   23.2523  -14.7298  -16.1683 C   0  0  0  0  0  0  0  0  0  0  0  0
   22.4977  -15.8835  -16.4848 C   0  0  0  0  0  0  0  0  0  0  0  0
   23.1937  -16.9742  -16.1737 N   0  0  0  0  0  0  0  0  0  0  0  0
   24.3961  -16.5723  -15.6543 C   0  0  0  0  0  0  0  0  0  0  0  0
   25.4614  -17.3049  -15.1396 C   0  0  0  0  0  0  0  0  0  0  0  0
   26.5330  -16.6386  -14.6289 C   0  0  0  0  0  0  0  0  0  0  0  0
   26.6009  -15.2806  -14.6088 C   0  0  0  0  0  0  0  0  0  0  0  0
   25.5399  -14.5405  -15.1246 C   0  0  0  0  0  0  0  0  0  0  0  0
   24.4216  -15.2128  -15.6536 C   0  0  0  0  0  0  0  0  0  0  0  0
   22.5435  -11.3307  -17.6722 C   0  0  0  0  0  0  0  0  0  0  0  0
   23.3765  -10.6174  -17.0695 O   0  0  0  0  0  0  0  0  0  0  0  0
   21.4971   -8.9393  -20.4493 C   0  0  0  0  0  0  0  0  0  0  0  0
   20.3948   -8.9239  -19.3653 C   0  0  1  0  0  0  0  0  0  0  0  0
   19.3570   -9.7446  -19.7819 O   0  0  0  0  0  0  0  0  0  0  0  0
   21.0443   -9.3630  -18.0925 C   0  0  2  0  0  0  0  0  0  0  0  0
   21.3560  -10.8033  -18.1598 N   0  0  0  0  0  0  0  0  0  0  0  0
   20.0501   -9.1618  -16.9814 C   0  0  0  0  0  0  0  0  0  0  0  0
   19.7684   -7.9910  -16.5814 O   0  0  0  0  0  0  0  0  0  0  0  0
   19.4256  -10.2287  -16.3764 O   0  0  0  0  0  0  0  0  0  0  0  0
  2  1  1  0
  2  3  2  0
  4  2  1  0
  5  7  1  0
  5  4  1  0
  5  6  1  6
  7  8  2  0
  9 10  1  0
  9  7  1  0
 10 21  1  0
 11 12  1  0
 10 11  1  1
 12 13  2  0
 14 13  1  0
 15 14  1  0
 16 15  2  0
 17 16  1  0
 18 19  1  0
 18 17  2  0
 19 20  2  0
 20 15  1  0
 20 12  1  0
 21 22  2  0
 24 23  1  6
 24 25  1  0
 24 26  1  0
 26 28  1  0
 26 27  1  6
 27 21  1  0
 28 29  2  0
 28 30  1  0
M  END
$$$$
