NWT.pdb
     RDKit          3D

 30 31  0  0  1  0  0  0  0  0999 V2000
   23.6333  -23.9864  -14.2901 N   0  0  0  0  0  0  0  0  0  0  0  0
   23.1530  -24.2639  -15.5649 C   0  0  0  0  0  0  0  0  0  0  0  0
   21.9350  -23.9986  -15.8397 O   0  0  0  0  0  0  0  0  0  0  0  0
   23.9960  -24.8566  -16.6391 C   0  0  0  0  0  0  0  0  0  0  0  0
   25.3369  -25.2834  -15.9504 C   0  0  2  0  0  0  0  0  0  0  0  0
   25.9516  -24.0826  -15.5070 N   0  0  0  0  0  0  0  0  0  0  0  0
   26.1264  -26.0367  -16.9916 C   0  0  0  0  0  0  0  0  0  0  0  0
   26.7409  -25.4026  -17.8363 O   0  0  0  0  0  0  0  0  0  0  0  0
   26.1356  -27.4684  -16.9793 N   0  0  0  0  0  0  0  0  0  0  0  0
   27.0499  -28.3767  -17.4678 C   0  0  1  0  0  0  0  0  0  0  0  0
   28.2929  -28.8404  -16.7927 C   0  0  0  0  0  0  0  0  0  0  0  0
   29.5480  -28.1315  -16.9540 C   0  0  0  0  0  0  0  0  0  0  0  0
   29.9175  -26.9088  -16.3463 C   0  0  0  0  0  0  0  0  0  0  0  0
   31.1816  -26.6221  -16.6476 N   0  0  0  0  0  0  0  0  0  0  0  0
   31.6626  -27.6268  -17.4452 C   0  0  0  0  0  0  0  0  0  0  0  0
   32.8977  -27.7917  -18.0646 C   0  0  0  0  0  0  0  0  0  0  0  0
   33.0949  -28.8775  -18.8617 C   0  0  0  0  0  0  0  0  0  0  0  0
   32.1275  -29.8101  -19.0700 C   0  0  0  0  0  0  0  0  0  0  0  0
   30.8896  -29.6534  -18.4514 C   0  0  0  0  0  0  0  0  0  0  0  0
   30.6665  -28.5345  -17.6264 C   0  0  0  0  0  0  0  0  0  0  0  0
   26.3740  -29.6573  -17.9619 C   0  0  0  0  0  0  0  0  0  0  0  0
   25.6308  -30.2086  -17.1194 O   0  0  0  0  0  0  0  0  0  0  0  0
   25.0764  -32.7046  -21.6066 C   0  0  0  0  0  0  0  0  0  0  0  0
   26.0274  -31.5682  -21.1657 C   0  0  1  0  0  0  0  0  0  0  0  0
   25.7495  -30.4422  -21.9265 O   0  0  0  0  0  0  0  0  0  0  0  0
   25.8123  -31.3793  -19.6985 C   0  0  2  0  0  0  0  0  0  0  0  0
   26.5427  -30.1845  -19.2346 N   0  0  0  0  0  0  0  0  0  0  0  0
   26.3966  -32.5740  -18.9954 C   0  0  0  0  0  0  0  0  0  0  0  0
   27.6537  -32.6851  -18.8634 O   0  0  0  0  0  0  0  0  0  0  0  0
   25.5938  -33.5667  -18.4810 O   0  0  0  0  0  0  0  0  0  0  0  0
  2  1  1  0
  2  3  2  0
  4  2  1  0
  5  7  1  0
  5  4  1  0
  5  6  1  6
  7  8  2  0
  9 10  1  0
  9  7  1  0
 10 21  1  0
 11 12  1  0
 10 11  1  1
 12 13  2  0
 14 13  1  0
 15 14  1  0
 16 15  2  0
 17 16  1  0
 18 19  1  0
 18 17  2  0
 19 20  2  0
 20 15  1  0
 20 12  1  0
 21 22  2  0
 24 23  1  6
 24 25  1  0
 24 26  1  0
 26 28  1  0
 26 27  1  1
 27 21  1  0
 28 29  2  0
 28 30  1  0
M  END
$$$$
