NWT.pdb
     RDKit          3D

 30 31  0  0  1  0  0  0  0  0999 V2000
   30.5881  -21.8385  -10.6212 N   0  0  0  0  0  0  0  0  0  0  0  0
   29.5208  -21.1487  -10.0572 C   0  0  0  0  0  0  0  0  0  0  0  0
   29.3288  -21.2264   -8.7977 O   0  0  0  0  0  0  0  0  0  0  0  0
   28.5831  -20.3112  -10.8542 C   0  0  0  0  0  0  0  0  0  0  0  0
   27.1776  -20.9910  -10.7222 C   0  0  2  0  0  0  0  0  0  0  0  0
   27.3228  -22.3014  -11.2494 N   0  0  0  0  0  0  0  0  0  0  0  0
   26.2124  -20.1187  -11.4851 C   0  0  0  0  0  0  0  0  0  0  0  0
   26.1271  -18.9364  -11.1883 O   0  0  0  0  0  0  0  0  0  0  0  0
   25.4127  -20.6863  -12.5285 N   0  0  0  0  0  0  0  0  0  0  0  0
   24.5921  -20.0993  -13.4674 C   0  0  1  0  0  0  0  0  0  0  0  0
   24.9197  -19.8330  -14.8949 C   0  0  0  0  0  0  0  0  0  0  0  0
   26.1268  -19.1227  -15.2716 C   0  0  0  0  0  0  0  0  0  0  0  0
   27.4119  -19.2676  -14.6986 C   0  0  0  0  0  0  0  0  0  0  0  0
   28.2898  -18.5293  -15.3730 N   0  0  0  0  0  0  0  0  0  0  0  0
   27.6171  -17.8930  -16.3827 C   0  0  0  0  0  0  0  0  0  0  0  0
   28.0522  -16.9817  -17.3402 C   0  0  0  0  0  0  0  0  0  0  0  0
   27.1450  -16.4537  -18.2070 C   0  0  0  0  0  0  0  0  0  0  0  0
   25.8279  -16.7901  -18.1730 C   0  0  0  0  0  0  0  0  0  0  0  0
   25.3853  -17.7035  -17.2194 C   0  0  0  0  0  0  0  0  0  0  0  0
   26.3088  -18.2571  -16.3123 C   0  0  0  0  0  0  0  0  0  0  0  0
   23.2069  -20.7483  -13.5001 C   0  0  0  0  0  0  0  0  0  0  0  0
   23.2217  -21.9949  -13.6094 O   0  0  0  0  0  0  0  0  0  0  0  0
   18.3734  -20.5688  -12.6249 C   0  0  0  0  0  0  0  0  0  0  0  0
   19.7420  -19.8517  -12.5693 C   0  0  1  0  0  0  0  0  0  0  0  0
   20.0815  -19.6549  -11.2388 O   0  0  0  0  0  0  0  0  0  0  0  0
   20.7043  -20.7136  -13.3215 C   0  0  2  0  0  0  0  0  0  0  0  0
   22.0152  -20.0429  -13.4091 N   0  0  0  0  0  0  0  0  0  0  0  0
   20.1764  -20.8703  -14.7215 C   0  0  0  0  0  0  0  0  0  0  0  0
   20.5028  -20.0394  -15.6233 O   0  0  0  0  0  0  0  0  0  0  0  0
   19.3362  -21.9069  -15.0591 O   0  0  0  0  0  0  0  0  0  0  0  0
  2  1  1  0
  2  3  2  0
  4  2  1  0
  5  7  1  0
  5  4  1  0
  5  6  1  6
  7  8  2  0
  9 10  1  0
  9  7  1  0
 10 21  1  0
 11 12  1  0
 10 11  1  6
 12 13  2  0
 14 13  1  0
 15 14  1  0
 16 15  2  0
 17 16  1  0
 18 19  1  0
 18 17  2  0
 19 20  2  0
 20 15  1  0
 20 12  1  0
 21 22  2  0
 24 23  1  1
 24 25  1  0
 24 26  1  0
 26 28  1  0
 26 27  1  6
 27 21  1  0
 28 29  2  0
 28 30  1  0
M  END
$$$$
