NWT.pdb
     RDKit          3D

 30 31  0  0  1  0  0  0  0  0999 V2000
   29.0968  -18.4596  -16.2266 N   0  0  0  0  0  0  0  0  0  0  0  0
   28.7345  -18.4809  -14.8846 C   0  0  0  0  0  0  0  0  0  0  0  0
   29.2707  -17.6430  -14.0845 O   0  0  0  0  0  0  0  0  0  0  0  0
   27.7395  -19.4374  -14.3271 C   0  0  0  0  0  0  0  0  0  0  0  0
   28.5400  -20.3853  -13.3703 C   0  0  2  0  0  0  0  0  0  0  0  0
   29.4491  -21.1001  -14.1943 N   0  0  0  0  0  0  0  0  0  0  0  0
   27.5167  -21.2511  -12.6791 C   0  0  0  0  0  0  0  0  0  0  0  0
   27.1314  -22.2669  -13.2385 O   0  0  0  0  0  0  0  0  0  0  0  0
   27.0112  -20.8680  -11.3954 N   0  0  0  0  0  0  0  0  0  0  0  0
   25.9267  -21.3178  -10.6733 C   0  0  1  0  0  0  0  0  0  0  0  0
   25.8099  -21.3864   -9.1909 C   0  0  0  0  0  0  0  0  0  0  0  0
   26.5047  -20.4435   -8.3355 C   0  0  0  0  0  0  0  0  0  0  0  0
   26.4401  -19.0318   -8.3981 C   0  0  0  0  0  0  0  0  0  0  0  0
   27.1281  -18.5059   -7.3878 N   0  0  0  0  0  0  0  0  0  0  0  0
   27.6522  -19.5369   -6.6535 C   0  0  0  0  0  0  0  0  0  0  0  0
   28.4767  -19.5355   -5.5325 C   0  0  0  0  0  0  0  0  0  0  0  0
   28.9021  -20.7255   -5.0264 C   0  0  0  0  0  0  0  0  0  0  0  0
   28.5447  -21.9170   -5.5758 C   0  0  0  0  0  0  0  0  0  0  0  0
   27.7175  -21.9267   -6.6962 C   0  0  0  0  0  0  0  0  0  0  0  0
   27.2709  -20.7052   -7.2355 C   0  0  0  0  0  0  0  0  0  0  0  0
   24.6225  -20.6660  -11.1372 C   0  0  0  0  0  0  0  0  0  0  0  0
   24.6484  -19.4151  -11.1604 O   0  0  0  0  0  0  0  0  0  0  0  0
   20.7039  -20.7501  -13.9664 C   0  0  0  0  0  0  0  0  0  0  0  0
   21.9717  -21.4402  -13.4126 C   0  0  1  0  0  0  0  0  0  0  0  0
   22.9594  -21.3913  -14.3853 O   0  0  0  0  0  0  0  0  0  0  0  0
   22.3268  -20.7255  -12.1486 C   0  0  2  0  0  0  0  0  0  0  0  0
   23.4909  -21.3745  -11.5160 N   0  0  0  0  0  0  0  0  0  0  0  0
   21.1611  -20.8595  -11.2072 C   0  0  0  0  0  0  0  0  0  0  0  0
   20.9727  -21.9434  -10.5749 O   0  0  0  0  0  0  0  0  0  0  0  0
   20.2783  -19.8226  -11.0072 O   0  0  0  0  0  0  0  0  0  0  0  0
  2  1  1  0
  2  3  2  0
  4  2  1  0
  5  7  1  0
  5  4  1  0
  5  6  1  6
  7  8  2  0
  9 10  1  0
  9  7  1  0
 10 21  1  0
 11 12  1  0
 10 11  1  1
 12 13  2  0
 14 13  1  0
 15 14  1  0
 16 15  2  0
 17 16  1  0
 18 19  1  0
 18 17  2  0
 19 20  2  0
 20 15  1  0
 20 12  1  0
 21 22  2  0
 24 23  1  6
 24 25  1  0
 24 26  1  0
 26 28  1  0
 26 27  1  1
 27 21  1  0
 28 29  2  0
 28 30  1  0
M  END
$$$$
