NWT.pdb
     RDKit          3D

 30 31  0  0  1  0  0  0  0  0999 V2000
   29.9776  -20.0949  -16.6382 N   0  0  0  0  0  0  0  0  0  0  0  0
   28.6777  -19.6080  -16.5608 C   0  0  0  0  0  0  0  0  0  0  0  0
   28.3086  -18.6947  -17.3727 O   0  0  0  0  0  0  0  0  0  0  0  0
   27.6818  -20.1053  -15.5726 C   0  0  0  0  0  0  0  0  0  0  0  0
   28.3913  -21.2611  -14.7880 C   0  0  2  0  0  0  0  0  0  0  0  0
   28.4655  -22.3588  -15.6857 N   0  0  0  0  0  0  0  0  0  0  0  0
   27.5514  -21.5181  -13.5620 C   0  0  0  0  0  0  0  0  0  0  0  0
   26.4659  -22.0631  -13.6962 O   0  0  0  0  0  0  0  0  0  0  0  0
   28.0304  -21.1150  -12.2742 N   0  0  0  0  0  0  0  0  0  0  0  0
   27.4251  -21.1194  -11.0360 C   0  0  1  0  0  0  0  0  0  0  0  0
   28.0514  -20.7506   -9.7369 C   0  0  0  0  0  0  0  0  0  0  0  0
   27.2474  -20.5081   -8.5543 C   0  0  0  0  0  0  0  0  0  0  0  0
   25.8376  -20.5704   -8.4577 C   0  0  0  0  0  0  0  0  0  0  0  0
   25.4662  -20.3910   -7.1925 N   0  0  0  0  0  0  0  0  0  0  0  0
   26.5985  -20.2083   -6.4432 C   0  0  0  0  0  0  0  0  0  0  0  0
   26.7658  -19.9414   -5.0878 C   0  0  0  0  0  0  0  0  0  0  0  0
   28.0238  -19.7470   -4.6053 C   0  0  0  0  0  0  0  0  0  0  0  0
   29.1242  -19.8097   -5.4017 C   0  0  0  0  0  0  0  0  0  0  0  0
   28.9651  -20.0791   -6.7588 C   0  0  0  0  0  0  0  0  0  0  0  0
   27.6710  -20.2792   -7.2761 C   0  0  0  0  0  0  0  0  0  0  0  0
   26.0899  -20.3724  -11.0509 C   0  0  0  0  0  0  0  0  0  0  0  0
   26.1888  -19.1325  -10.9125 O   0  0  0  0  0  0  0  0  0  0  0  0
   23.2268  -22.0940  -13.1770 C   0  0  0  0  0  0  0  0  0  0  0  0
   23.3572  -20.5568  -13.0762 C   0  0  1  0  0  0  0  0  0  0  0  0
   22.1838  -19.9843  -13.5446 O   0  0  0  0  0  0  0  0  0  0  0  0
   23.6550  -20.2486  -11.6440 C   0  0  2  0  0  0  0  0  0  0  0  0
   24.8563  -20.9875  -11.2116 N   0  0  0  0  0  0  0  0  0  0  0  0
   22.4951  -20.7407  -10.8220 C   0  0  0  0  0  0  0  0  0  0  0  0
   22.6417  -21.7274  -10.0379 O   0  0  0  0  0  0  0  0  0  0  0  0
   21.2584  -20.1408  -10.8958 O   0  0  0  0  0  0  0  0  0  0  0  0
  2  1  1  0
  2  3  2  0
  4  2  1  0
  5  7  1  0
  5  4  1  0
  5  6  1  6
  7  8  2  0
  9 10  1  0
  9  7  1  0
 10 21  1  0
 11 12  1  0
 10 11  1  1
 12 13  2  0
 14 13  1  0
 15 14  1  0
 16 15  2  0
 17 16  1  0
 18 19  1  0
 18 17  2  0
 19 20  2  0
 20 15  1  0
 20 12  1  0
 21 22  2  0
 24 23  1  1
 24 25  1  0
 24 26  1  0
 26 28  1  0
 26 27  1  1
 27 21  1  0
 28 29  2  0
 28 30  1  0
M  END
$$$$
