NWT.pdb
     RDKit          3D

 30 31  0  0  1  0  0  0  0  0999 V2000
   29.3690  -18.5299  -15.5687 N   0  0  0  0  0  0  0  0  0  0  0  0
   27.9963  -18.3483  -15.6928 C   0  0  0  0  0  0  0  0  0  0  0  0
   27.5596  -17.4393  -16.4755 O   0  0  0  0  0  0  0  0  0  0  0  0
   26.9984  -19.1710  -14.9558 C   0  0  0  0  0  0  0  0  0  0  0  0
   27.8253  -20.1962  -14.1074 C   0  0  2  0  0  0  0  0  0  0  0  0
   28.4431  -21.0712  -15.0396 N   0  0  0  0  0  0  0  0  0  0  0  0
   26.8430  -20.8691  -13.1817 C   0  0  0  0  0  0  0  0  0  0  0  0
   26.1230  -21.7499  -13.6279 O   0  0  0  0  0  0  0  0  0  0  0  0
   26.7642  -20.4629  -11.8110 N   0  0  0  0  0  0  0  0  0  0  0  0
   25.9251  -20.8585  -10.7916 C   0  0  1  0  0  0  0  0  0  0  0  0
   26.1467  -20.6703   -9.3317 C   0  0  0  0  0  0  0  0  0  0  0  0
   27.4510  -20.8817   -8.7336 C   0  0  0  0  0  0  0  0  0  0  0  0
   28.5436  -21.5776   -9.3017 C   0  0  0  0  0  0  0  0  0  0  0  0
   29.6047  -21.4738   -8.5054 N   0  0  0  0  0  0  0  0  0  0  0  0
   29.2424  -20.7248   -7.4169 C   0  0  0  0  0  0  0  0  0  0  0  0
   29.9557  -20.3586   -6.2796 C   0  0  0  0  0  0  0  0  0  0  0  0
   29.3248  -19.6429   -5.3086 C   0  0  0  0  0  0  0  0  0  0  0  0
   28.0217  -19.2686   -5.4138 C   0  0  0  0  0  0  0  0  0  0  0  0
   27.3019  -19.6290   -6.5504 C   0  0  0  0  0  0  0  0  0  0  0  0
   27.9372  -20.3725   -7.5632 C   0  0  0  0  0  0  0  0  0  0  0  0
   24.4842  -20.4019  -11.0290 C   0  0  0  0  0  0  0  0  0  0  0  0
   24.2672  -19.2030  -10.7433 O   0  0  0  0  0  0  0  0  0  0  0  0
   22.4060  -22.5247  -13.7378 C   0  0  0  0  0  0  0  0  0  0  0  0
   22.2521  -20.9915  -13.6119 C   0  0  1  0  0  0  0  0  0  0  0  0
   21.0894  -20.6111  -14.2656 O   0  0  0  0  0  0  0  0  0  0  0  0
   22.2565  -20.6826  -12.1492 C   0  0  2  0  0  0  0  0  0  0  0  0
   23.4808  -21.2212  -11.5270 N   0  0  0  0  0  0  0  0  0  0  0  0
   21.0808  -21.3892  -11.5314 C   0  0  0  0  0  0  0  0  0  0  0  0
   21.2635  -22.3965  -10.7818 O   0  0  0  0  0  0  0  0  0  0  0  0
   19.7905  -20.9671  -11.7584 O   0  0  0  0  0  0  0  0  0  0  0  0
  2  1  1  0
  2  3  2  0
  4  2  1  0
  5  7  1  0
  5  4  1  0
  5  6  1  6
  7  8  2  0
  9 10  1  0
  9  7  1  0
 10 21  1  0
 11 12  1  0
 10 11  1  1
 12 13  2  0
 14 13  1  0
 15 14  1  0
 16 15  2  0
 17 16  1  0
 18 19  1  0
 18 17  2  0
 19 20  2  0
 20 15  1  0
 20 12  1  0
 21 22  2  0
 24 23  1  1
 24 25  1  0
 24 26  1  0
 26 28  1  0
 26 27  1  1
 27 21  1  0
 28 29  2  0
 28 30  1  0
M  END
$$$$
