NWT.pdb
     RDKit          3D

 30 31  0  0  1  0  0  0  0  0999 V2000
   28.8084  -20.1861  -16.9345 N   0  0  0  0  0  0  0  0  0  0  0  0
   29.0132  -21.4175  -16.3225 C   0  0  0  0  0  0  0  0  0  0  0  0
   29.8580  -22.2289  -16.8298 O   0  0  0  0  0  0  0  0  0  0  0  0
   28.2939  -21.8415  -15.0901 C   0  0  0  0  0  0  0  0  0  0  0  0
   27.2218  -20.7332  -14.8124 C   0  0  2  0  0  0  0  0  0  0  0  0
   27.9415  -19.5894  -14.3764 N   0  0  0  0  0  0  0  0  0  0  0  0
   26.2803  -21.3040  -13.7817 C   0  0  0  0  0  0  0  0  0  0  0  0
   25.6239  -22.2939  -14.0688 O   0  0  0  0  0  0  0  0  0  0  0  0
   26.1650  -20.6776  -12.4993 N   0  0  0  0  0  0  0  0  0  0  0  0
   25.3638  -20.9648  -11.4152 C   0  0  1  0  0  0  0  0  0  0  0  0
   25.6514  -20.6549   -9.9879 C   0  0  0  0  0  0  0  0  0  0  0  0
   26.9878  -20.7918   -9.4411 C   0  0  0  0  0  0  0  0  0  0  0  0
   28.0838  -21.4615  -10.0336 C   0  0  0  0  0  0  0  0  0  0  0  0
   29.1724  -21.2868   -9.2885 N   0  0  0  0  0  0  0  0  0  0  0  0
   28.8253  -20.5163   -8.2102 C   0  0  0  0  0  0  0  0  0  0  0  0
   29.5701  -20.0821   -7.1178 C   0  0  0  0  0  0  0  0  0  0  0  0
   28.9512  -19.3598   -6.1440 C   0  0  0  0  0  0  0  0  0  0  0  0
   27.6301  -19.0431   -6.2041 C   0  0  0  0  0  0  0  0  0  0  0  0
   26.8786  -19.4718   -7.2955 C   0  0  0  0  0  0  0  0  0  0  0  0
   27.5013  -20.2231   -8.3105 C   0  0  0  0  0  0  0  0  0  0  0  0
   23.9223  -20.4999  -11.6320 C   0  0  0  0  0  0  0  0  0  0  0  0
   23.7272  -19.2877  -11.3895 O   0  0  0  0  0  0  0  0  0  0  0  0
   21.6539  -22.6242  -14.1997 C   0  0  0  0  0  0  0  0  0  0  0  0
   21.5066  -21.0925  -14.0499 C   0  0  1  0  0  0  0  0  0  0  0  0
   20.2965  -20.7103  -14.6099 O   0  0  0  0  0  0  0  0  0  0  0  0
   21.6218  -20.7953  -12.5893 C   0  0  2  0  0  0  0  0  0  0  0  0
   22.8962  -21.3257  -12.0690 N   0  0  0  0  0  0  0  0  0  0  0  0
   20.5049  -21.5193  -11.8881 C   0  0  0  0  0  0  0  0  0  0  0  0
   20.7565  -22.5259  -11.1577 O   0  0  0  0  0  0  0  0  0  0  0  0
   19.1958  -21.1143  -12.0170 O   0  0  0  0  0  0  0  0  0  0  0  0
  2  1  1  0
  2  3  2  0
  4  2  1  0
  5  7  1  0
  5  4  1  0
  5  6  1  1
  7  8  2  0
  9 10  1  0
  9  7  1  0
 10 21  1  0
 11 12  1  0
 10 11  1  1
 12 13  2  0
 14 13  1  0
 15 14  1  0
 16 15  2  0
 17 16  1  0
 18 19  1  0
 18 17  2  0
 19 20  2  0
 20 15  1  0
 20 12  1  0
 21 22  2  0
 24 23  1  1
 24 25  1  0
 24 26  1  0
 26 28  1  0
 26 27  1  1
 27 21  1  0
 28 29  2  0
 28 30  1  0
M  END
$$$$
