NWT.pdb
     RDKit          3D

 30 31  0  0  1  0  0  0  0  0999 V2000
   26.9439  -19.5419  -20.1708 N   0  0  0  0  0  0  0  0  0  0  0  0
   27.0353  -19.4215  -18.7887 C   0  0  0  0  0  0  0  0  0  0  0  0
   27.9180  -18.6453  -18.2911 O   0  0  0  0  0  0  0  0  0  0  0  0
   26.1441  -20.1555  -17.8490 C   0  0  0  0  0  0  0  0  0  0  0  0
   27.0905  -20.9722  -16.9045 C   0  0  2  0  0  0  0  0  0  0  0  0
   27.5230  -22.0963  -17.6566 N   0  0  0  0  0  0  0  0  0  0  0  0
   26.2744  -21.3187  -15.6845 C   0  0  0  0  0  0  0  0  0  0  0  0
   25.2752  -22.0086  -15.8218 O   0  0  0  0  0  0  0  0  0  0  0  0
   26.6743  -20.8310  -14.3990 N   0  0  0  0  0  0  0  0  0  0  0  0
   26.0970  -20.9661  -13.1548 C   0  0  1  0  0  0  0  0  0  0  0  0
   26.7636  -20.7732  -11.8378 C   0  0  0  0  0  0  0  0  0  0  0  0
   26.0431  -20.9620  -10.5932 C   0  0  0  0  0  0  0  0  0  0  0  0
   25.0133  -21.8985  -10.3412 C   0  0  0  0  0  0  0  0  0  0  0  0
   24.6665  -21.8493   -9.0574 N   0  0  0  0  0  0  0  0  0  0  0  0
   25.4418  -20.8982   -8.4480 C   0  0  0  0  0  0  0  0  0  0  0  0
   25.4526  -20.4277   -7.1385 C   0  0  0  0  0  0  0  0  0  0  0  0
   26.3051  -19.4192   -6.8081 C   0  0  0  0  0  0  0  0  0  0  0  0
   27.1512  -18.8584   -7.7131 C   0  0  0  0  0  0  0  0  0  0  0  0
   27.1482  -19.3258   -9.0250 C   0  0  0  0  0  0  0  0  0  0  0  0
   26.2704  -20.3659   -9.3856 C   0  0  0  0  0  0  0  0  0  0  0  0
   24.7861  -20.1847  -13.0461 C   0  0  0  0  0  0  0  0  0  0  0  0
   24.9262  -18.9418  -13.0039 O   0  0  0  0  0  0  0  0  0  0  0  0
   21.3875  -21.6175  -14.5414 C   0  0  0  0  0  0  0  0  0  0  0  0
   21.5732  -20.1047  -14.2818 C   0  0  1  0  0  0  0  0  0  0  0  0
   20.3258  -19.4984  -14.3037 O   0  0  0  0  0  0  0  0  0  0  0  0
   22.2861  -19.9825  -12.9735 C   0  0  2  0  0  0  0  0  0  0  0  0
   23.5304  -20.7742  -13.0048 N   0  0  0  0  0  0  0  0  0  0  0  0
   21.3959  -20.5717  -11.9134 C   0  0  0  0  0  0  0  0  0  0  0  0
   21.7186  -21.6565  -11.3398 O   0  0  0  0  0  0  0  0  0  0  0  0
   20.2221  -19.9574  -11.5403 O   0  0  0  0  0  0  0  0  0  0  0  0
  2  1  1  0
  2  3  2  0
  4  2  1  0
  5  7  1  0
  5  4  1  0
  5  6  1  6
  7  8  2  0
  9 10  1  0
  9  7  1  0
 10 21  1  0
 11 12  1  0
 10 11  1  1
 12 13  2  0
 14 13  1  0
 15 14  1  0
 16 15  2  0
 17 16  1  0
 18 19  1  0
 18 17  2  0
 19 20  2  0
 20 15  1  0
 20 12  1  0
 21 22  2  0
 24 23  1  1
 24 25  1  0
 24 26  1  0
 26 28  1  0
 26 27  1  6
 27 21  1  0
 28 29  2  0
 28 30  1  0
M  END
$$$$
