NWT.pdb
     RDKit          3D

 30 31  0  0  1  0  0  0  0  0999 V2000
   30.2217  -18.6092  -14.7456 N   0  0  0  0  0  0  0  0  0  0  0  0
   28.8585  -18.3369  -14.7287 C   0  0  0  0  0  0  0  0  0  0  0  0
   28.4249  -17.3051  -15.3427 O   0  0  0  0  0  0  0  0  0  0  0  0
   27.8670  -19.1981  -14.0280 C   0  0  0  0  0  0  0  0  0  0  0  0
   28.6961  -20.3211  -13.3165 C   0  0  2  0  0  0  0  0  0  0  0  0
   29.3935  -21.0076  -14.3455 N   0  0  0  0  0  0  0  0  0  0  0  0
   27.7011  -21.1715  -12.5673 C   0  0  0  0  0  0  0  0  0  0  0  0
   27.1493  -22.0886  -13.1571 O   0  0  0  0  0  0  0  0  0  0  0  0
   27.4148  -20.8878  -11.1934 N   0  0  0  0  0  0  0  0  0  0  0  0
   26.4211  -21.3490  -10.3570 C   0  0  1  0  0  0  0  0  0  0  0  0
   26.4771  -21.4392   -8.8722 C   0  0  0  0  0  0  0  0  0  0  0  0
   27.0180  -20.3579   -8.0710 C   0  0  0  0  0  0  0  0  0  0  0  0
   26.8527  -18.9708   -8.2931 C   0  0  0  0  0  0  0  0  0  0  0  0
   27.4043  -18.2873   -7.2935 N   0  0  0  0  0  0  0  0  0  0  0  0
   27.9362  -19.1893   -6.4100 C   0  0  0  0  0  0  0  0  0  0  0  0
   28.6531  -19.0029   -5.2320 C   0  0  0  0  0  0  0  0  0  0  0  0
   29.1196  -20.0942   -4.5653 C   0  0  0  0  0  0  0  0  0  0  0  0
   28.9049  -21.3618   -5.0082 C   0  0  0  0  0  0  0  0  0  0  0  0
   28.1859  -21.5566   -6.1850 C   0  0  0  0  0  0  0  0  0  0  0  0
   27.6989  -20.4393   -6.8898 C   0  0  0  0  0  0  0  0  0  0  0  0
   25.0723  -20.6920  -10.6568 C   0  0  0  0  0  0  0  0  0  0  0  0
   25.0486  -19.4535  -10.4786 O   0  0  0  0  0  0  0  0  0  0  0  0
   21.5241  -20.7301  -13.8997 C   0  0  0  0  0  0  0  0  0  0  0  0
   22.7081  -21.4238  -13.1873 C   0  0  1  0  0  0  0  0  0  0  0  0
   23.8211  -21.3509  -14.0119 O   0  0  0  0  0  0  0  0  0  0  0  0
   22.8780  -20.7315  -11.8734 C   0  0  2  0  0  0  0  0  0  0  0  0
   23.9525  -21.3819  -11.0995 N   0  0  0  0  0  0  0  0  0  0  0  0
   21.5962  -20.8959  -11.1032 C   0  0  0  0  0  0  0  0  0  0  0  0
   21.4373  -21.8920  -10.3335 O   0  0  0  0  0  0  0  0  0  0  0  0
   20.5734  -19.9810  -11.2100 O   0  0  0  0  0  0  0  0  0  0  0  0
  2  1  1  0
  2  3  2  0
  4  2  1  0
  5  7  1  0
  5  4  1  0
  5  6  1  6
  7  8  2  0
  9 10  1  0
  9  7  1  0
 10 21  1  0
 11 12  1  0
 10 11  1  1
 12 13  2  0
 14 13  1  0
 15 14  1  0
 16 15  2  0
 17 16  1  0
 18 19  1  0
 18 17  2  0
 19 20  2  0
 20 15  1  0
 20 12  1  0
 21 22  2  0
 24 23  1  6
 24 25  1  0
 24 26  1  0
 26 28  1  0
 26 27  1  1
 27 21  1  0
 28 29  2  0
 28 30  1  0
M  END
$$$$
