NIK.pdb
     RDKit          3D

 26 25  0  0  1  0  0  0  0  0999 V2000
   18.7469  -19.9220  -15.7076 N   0  0  0  0  0  0  0  0  0  0  0  0
   19.7466  -19.3386  -16.5318 C   0  0  0  0  0  0  0  0  0  0  0  0
   19.9197  -19.8382  -17.6714 O   0  0  0  0  0  0  0  0  0  0  0  0
   20.5196  -18.1930  -16.0164 C   0  0  0  0  0  0  0  0  0  0  0  0
   21.9828  -18.5270  -15.8289 C   0  0  2  0  0  0  0  0  0  0  0  0
   22.1874  -19.5912  -14.8829 N   0  0  0  0  0  0  0  0  0  0  0  0
   22.6753  -17.2872  -15.4073 C   0  0  0  0  0  0  0  0  0  0  0  0
   22.5286  -16.8698  -14.2329 O   0  0  0  0  0  0  0  0  0  0  0  0
   27.4468  -17.3964  -16.3735 C   0  0  0  0  0  0  0  0  0  0  0  0
   26.2820  -16.8225  -15.7021 C   0  0  0  0  0  0  0  0  0  0  0  0
   25.6788  -15.5645  -16.1047 C   0  0  2  0  0  0  0  0  0  0  0  0
   26.5487  -14.3458  -15.8054 C   0  0  0  0  0  0  0  0  0  0  0  0
   24.2536  -15.3376  -15.8187 C   0  0  2  0  0  0  0  0  0  0  0  0
   23.4985  -16.5554  -16.2867 N   0  0  0  0  0  0  0  0  0  0  0  0
   23.5479  -14.1637  -16.3132 C   0  0  0  0  0  0  0  0  0  0  0  0
   23.9840  -12.9717  -16.0050 O   0  0  0  0  0  0  0  0  0  0  0  0
   22.4013  -14.0965  -17.1365 N   0  0  0  0  0  0  0  0  0  0  0  0
   21.8287  -12.8202  -17.5731 C   0  0  1  0  0  0  0  0  0  0  0  0
   21.0465  -13.0656  -18.8362 C   0  0  0  0  0  0  0  0  0  0  0  0
   21.9037  -13.4601  -19.9804 C   0  0  0  0  0  0  0  0  0  0  0  0
   21.0549  -13.6756  -21.2540 C   0  0  0  0  0  0  0  0  0  0  0  0
   22.0453  -14.1573  -22.3183 C   0  0  0  0  0  0  0  0  0  0  0  0
   21.3403  -14.3765  -23.5658 N   0  0  0  0  0  0  0  0  0  0  0  0
   20.9448  -12.3014  -16.5313 C   0  0  0  0  0  0  0  0  0  0  0  0
   20.5801  -10.9811  -16.3408 O   0  0  0  0  0  0  0  0  0  0  0  0
   20.4399  -13.1137  -15.6948 O   0  0  0  0  0  0  0  0  0  0  0  0
  1  2  1  0
  2  3  2  0
  4  5  1  0
  4  2  1  0
  5  7  1  0
  5  6  1  1
  7 14  1  0
  7  8  2  0
 10 11  1  0
 10  9  1  0
 11 13  1  0
 11 12  1  1
 13 15  1  0
 13 14  1  6
 15 16  2  0
 17 18  1  0
 17 15  1  0
 18 24  1  0
 18 19  1  6
 20 19  1  0
 21 20  1  0
 22 21  1  0
 23 22  1  0
 24 25  1  0
 26 24  2  0
M  END
$$$$
