NIK.pdb
     RDKit          3D

 26 25  0  0  1  0  0  0  0  0999 V2000
   20.5382  -21.4922  -17.5757 N   0  0  0  0  0  0  0  0  0  0  0  0
   21.4371  -20.4968  -18.0448 C   0  0  0  0  0  0  0  0  0  0  0  0
   22.0064  -20.7049  -19.1453 O   0  0  0  0  0  0  0  0  0  0  0  0
   21.6540  -19.2872  -17.2291 C   0  0  0  0  0  0  0  0  0  0  0  0
   23.1068  -19.1052  -16.8493 C   0  0  2  0  0  0  0  0  0  0  0  0
   23.5839  -20.1495  -15.9828 N   0  0  0  0  0  0  0  0  0  0  0  0
   23.2411  -17.7726  -16.2162 C   0  0  0  0  0  0  0  0  0  0  0  0
   22.7618  -17.5844  -15.0717 O   0  0  0  0  0  0  0  0  0  0  0  0
   27.8609  -16.2089  -15.5591 C   0  0  0  0  0  0  0  0  0  0  0  0
   26.4017  -16.2058  -15.4706 C   0  0  0  0  0  0  0  0  0  0  0  0
   25.5760  -15.1773  -16.0780 C   0  0  2  0  0  0  0  0  0  0  0  0
   25.9504  -13.7604  -15.6496 C   0  0  0  0  0  0  0  0  0  0  0  0
   24.1222  -15.3891  -16.1559 C   0  0  2  0  0  0  0  0  0  0  0  0
   23.8930  -16.7019  -16.8604 N   0  0  0  0  0  0  0  0  0  0  0  0
   23.2332  -14.4046  -16.7568 C   0  0  0  0  0  0  0  0  0  0  0  0
   23.4780  -13.9657  -17.9625 O   0  0  0  0  0  0  0  0  0  0  0  0
   22.0652  -13.8168  -16.2212 N   0  0  0  0  0  0  0  0  0  0  0  0
   21.3440  -12.7451  -16.9132 C   0  0  1  0  0  0  0  0  0  0  0  0
   19.9182  -12.7515  -16.4287 C   0  0  0  0  0  0  0  0  0  0  0  0
   18.9835  -12.0905  -17.3717 C   0  0  0  0  0  0  0  0  0  0  0  0
   17.5523  -12.0513  -16.7895 C   0  0  0  0  0  0  0  0  0  0  0  0
   16.7095  -11.3324  -17.8472 C   0  0  0  0  0  0  0  0  0  0  0  0
   15.3055  -11.4595  -17.5098 N   0  0  0  0  0  0  0  0  0  0  0  0
   21.9696  -11.4604  -16.6067 C   0  0  0  0  0  0  0  0  0  0  0  0
   22.2506  -10.4450  -17.5025 O   0  0  0  0  0  0  0  0  0  0  0  0
   22.3055  -11.2126  -15.4066 O   0  0  0  0  0  0  0  0  0  0  0  0
  1  2  1  0
  2  3  2  0
  4  5  1  0
  4  2  1  0
  5  7  1  0
  5  6  1  1
  7 14  1  0
  7  8  2  0
 10 11  1  0
 10  9  1  0
 11 13  1  0
 11 12  1  1
 13 15  1  0
 13 14  1  6
 15 16  2  0
 17 18  1  0
 17 15  1  0
 18 24  1  0
 18 19  1  1
 20 19  1  0
 21 20  1  0
 22 21  1  0
 23 22  1  0
 24 25  1  0
 26 24  2  0
M  END
$$$$
