NIK.pdb
     RDKit          3D

 26 25  0  0  1  0  0  0  0  0999 V2000
   28.4403  -17.2618  -15.7403 N   0  0  0  0  0  0  0  0  0  0  0  0
   27.4694  -17.9064  -16.5531 C   0  0  0  0  0  0  0  0  0  0  0  0
   27.0253  -17.2675  -17.5395 O   0  0  0  0  0  0  0  0  0  0  0  0
   27.0376  -19.2730  -16.2040 C   0  0  0  0  0  0  0  0  0  0  0  0
   27.7394  -19.7982  -14.9714 C   0  0  2  0  0  0  0  0  0  0  0  0
   28.8671  -20.6313  -15.2934 N   0  0  0  0  0  0  0  0  0  0  0  0
   26.7376  -20.5316  -14.1633 C   0  0  0  0  0  0  0  0  0  0  0  0
   26.4448  -21.7126  -14.4707 O   0  0  0  0  0  0  0  0  0  0  0  0
   27.2437  -21.8449   -9.7359 C   0  0  0  0  0  0  0  0  0  0  0  0
   26.7655  -20.5819  -10.2955 C   0  0  0  0  0  0  0  0  0  0  0  0
   25.4147  -20.4017  -10.7970 C   0  0  2  0  0  0  0  0  0  0  0  0
   24.3352  -20.9008   -9.8394 C   0  0  0  0  0  0  0  0  0  0  0  0
   25.1309  -20.7276  -12.2033 C   0  0  2  0  0  0  0  0  0  0  0  0
   26.0976  -19.9436  -13.0537 N   0  0  0  0  0  0  0  0  0  0  0  0
   23.8031  -20.5619  -12.7778 C   0  0  0  0  0  0  0  0  0  0  0  0
   23.2448  -19.3810  -12.7814 O   0  0  0  0  0  0  0  0  0  0  0  0
   22.9692  -21.5285  -13.3837 N   0  0  0  0  0  0  0  0  0  0  0  0
   21.5947  -21.2263  -13.7925 C   0  0  1  0  0  0  0  0  0  0  0  0
   21.1055  -22.3553  -14.6605 C   0  0  0  0  0  0  0  0  0  0  0  0
   19.7057  -22.1710  -15.1152 C   0  0  0  0  0  0  0  0  0  0  0  0
   19.2085  -23.4178  -15.8815 C   0  0  0  0  0  0  0  0  0  0  0  0
   17.7970  -23.0596  -16.3558 C   0  0  0  0  0  0  0  0  0  0  0  0
   17.2045  -24.2091  -17.0105 N   0  0  0  0  0  0  0  0  0  0  0  0
   20.7494  -21.1061  -12.6064 C   0  0  0  0  0  0  0  0  0  0  0  0
   19.7452  -20.1780  -12.3996 O   0  0  0  0  0  0  0  0  0  0  0  0
   20.9236  -21.9175  -11.6443 O   0  0  0  0  0  0  0  0  0  0  0  0
  1  2  1  0
  2  3  2  0
  4  5  1  0
  4  2  1  0
  5  7  1  0
  5  6  1  6
  7 14  1  0
  7  8  2  0
 10 11  1  0
 10  9  1  0
 11 13  1  0
 11 12  1  1
 13 15  1  0
 13 14  1  6
 15 16  2  0
 17 18  1  0
 17 15  1  0
 18 24  1  0
 18 19  1  6
 20 19  1  0
 21 20  1  0
 22 21  1  0
 23 22  1  0
 24 25  1  0
 26 24  2  0
M  END
$$$$
