NIK.pdb
     RDKit          3D

 26 25  0  0  1  0  0  0  0  0999 V2000
   16.5733  -16.0536  -15.1802 N   0  0  0  0  0  0  0  0  0  0  0  0
   17.1876  -15.1479  -16.0863 C   0  0  0  0  0  0  0  0  0  0  0  0
   17.9885  -15.6264  -16.9277 O   0  0  0  0  0  0  0  0  0  0  0  0
   16.8596  -13.7126  -15.9956 C   0  0  0  0  0  0  0  0  0  0  0  0
   15.8608  -13.4214  -14.8977 C   0  0  2  0  0  0  0  0  0  0  0  0
   14.5366  -13.8798  -15.2229 N   0  0  0  0  0  0  0  0  0  0  0  0
   15.8823  -11.9614  -14.6478 C   0  0  0  0  0  0  0  0  0  0  0  0
   15.2383  -11.1978  -15.4075 O   0  0  0  0  0  0  0  0  0  0  0  0
   13.9263   -9.9403  -10.4642 C   0  0  0  0  0  0  0  0  0  0  0  0
   14.5826  -10.0364  -11.7668 C   0  0  0  0  0  0  0  0  0  0  0  0
   15.9868   -9.7264  -11.9683 C   0  0  2  0  0  0  0  0  0  0  0  0
   16.4269   -8.4239  -11.3040 C   0  0  0  0  0  0  0  0  0  0  0  0
   16.5701   -9.9152  -13.3057 C   0  0  2  0  0  0  0  0  0  0  0  0
   16.6068  -11.3972  -13.5785 N   0  0  0  0  0  0  0  0  0  0  0  0
   17.8725   -9.3688  -13.6603 C   0  0  0  0  0  0  0  0  0  0  0  0
   18.9333   -9.7504  -13.0005 O   0  0  0  0  0  0  0  0  0  0  0  0
   18.2021   -8.4429  -14.6757 N   0  0  0  0  0  0  0  0  0  0  0  0
   19.5698   -7.9545  -14.8714 C   0  0  1  0  0  0  0  0  0  0  0  0
   19.7010   -7.4884  -16.2973 C   0  0  0  0  0  0  0  0  0  0  0  0
   21.0448   -6.9419  -16.6062 C   0  0  0  0  0  0  0  0  0  0  0  0
   21.1626   -6.5891  -18.1064 C   0  0  0  0  0  0  0  0  0  0  0  0
   22.5902   -6.0634  -18.2830 C   0  0  0  0  0  0  0  0  0  0  0  0
   22.8621   -5.8774  -19.6946 N   0  0  0  0  0  0  0  0  0  0  0  0
   19.8254   -6.8432  -13.9574 C   0  0  0  0  0  0  0  0  0  0  0  0
   18.9301   -5.8559  -13.5883 O   0  0  0  0  0  0  0  0  0  0  0  0
   20.9753   -6.7370  -13.4274 O   0  0  0  0  0  0  0  0  0  0  0  0
  1  2  1  0
  2  3  2  0
  4  5  1  0
  4  2  1  0
  5  7  1  0
  5  6  1  6
  7 14  1  0
  7  8  2  0
 10 11  1  0
 10  9  1  0
 11 13  1  0
 11 12  1  6
 13 15  1  0
 13 14  1  1
 15 16  2  0
 17 18  1  0
 17 15  1  0
 18 24  1  0
 18 19  1  6
 20 19  1  0
 21 20  1  0
 22 21  1  0
 23 22  1  0
 24 25  1  0
 26 24  2  0
M  END
$$$$
