NIK.pdb
     RDKit          3D

 26 25  0  0  1  0  0  0  0  0999 V2000
   29.2374  -19.0179  -17.1299 N   0  0  0  0  0  0  0  0  0  0  0  0
   27.8634  -18.6688  -17.0351 C   0  0  0  0  0  0  0  0  0  0  0  0
   27.4556  -17.7259  -17.7584 O   0  0  0  0  0  0  0  0  0  0  0  0
   26.9971  -19.4191  -16.1064 C   0  0  0  0  0  0  0  0  0  0  0  0
   27.7761  -20.4103  -15.2707 C   0  0  2  0  0  0  0  0  0  0  0  0
   28.3590  -21.4598  -16.0631 N   0  0  0  0  0  0  0  0  0  0  0  0
   26.8551  -20.9537  -14.2455 C   0  0  0  0  0  0  0  0  0  0  0  0
   26.2773  -22.0477  -14.4557 O   0  0  0  0  0  0  0  0  0  0  0  0
   28.3087  -20.5059   -9.1635 C   0  0  0  0  0  0  0  0  0  0  0  0
   27.5916  -20.9548  -10.3556 C   0  0  0  0  0  0  0  0  0  0  0  0
   26.2409  -20.5262  -10.6726 C   0  0  2  0  0  0  0  0  0  0  0  0
   25.2478  -20.7411   -9.5329 C   0  0  0  0  0  0  0  0  0  0  0  0
   25.6823  -20.8597  -11.9922 C   0  0  2  0  0  0  0  0  0  0  0  0
   26.6040  -20.2787  -13.0339 N   0  0  0  0  0  0  0  0  0  0  0  0
   24.3192  -20.5050  -12.3618 C   0  0  0  0  0  0  0  0  0  0  0  0
   23.9905  -19.2466  -12.4825 O   0  0  0  0  0  0  0  0  0  0  0  0
   23.2244  -21.3532  -12.6427 N   0  0  0  0  0  0  0  0  0  0  0  0
   21.9051  -20.8289  -13.0058 C   0  0  1  0  0  0  0  0  0  0  0  0
   21.2649  -21.7962  -13.9660 C   0  0  0  0  0  0  0  0  0  0  0  0
   19.9534  -21.3251  -14.4739 C   0  0  0  0  0  0  0  0  0  0  0  0
   19.3504  -22.3448  -15.4667 C   0  0  0  0  0  0  0  0  0  0  0  0
   18.0838  -21.6754  -16.0081 C   0  0  0  0  0  0  0  0  0  0  0  0
   17.4327  -22.5680  -16.9463 N   0  0  0  0  0  0  0  0  0  0  0  0
   21.0839  -20.7019  -11.8035 C   0  0  0  0  0  0  0  0  0  0  0  0
   20.0689  -19.7870  -11.5905 O   0  0  0  0  0  0  0  0  0  0  0  0
   21.2928  -21.4933  -10.8317 O   0  0  0  0  0  0  0  0  0  0  0  0
  1  2  1  0
  2  3  2  0
  4  5  1  0
  4  2  1  0
  5  7  1  0
  5  6  1  6
  7 14  1  0
  7  8  2  0
 10 11  1  0
 10  9  1  0
 11 13  1  0
 11 12  1  1
 13 15  1  0
 13 14  1  6
 15 16  2  0
 17 18  1  0
 17 15  1  0
 18 24  1  0
 18 19  1  6
 20 19  1  0
 21 20  1  0
 22 21  1  0
 23 22  1  0
 24 25  1  0
 26 24  2  0
M  END
$$$$
