NIK.pdb
     RDKit          3D

 26 25  0  0  1  0  0  0  0  0999 V2000
   19.0932  -24.2895   -7.8662 N   0  0  0  0  0  0  0  0  0  0  0  0
   18.9579  -24.0288   -9.2564 C   0  0  0  0  0  0  0  0  0  0  0  0
   18.1842  -24.7715   -9.9108 O   0  0  0  0  0  0  0  0  0  0  0  0
   19.7206  -22.9161   -9.8531 C   0  0  0  0  0  0  0  0  0  0  0  0
   20.5716  -22.1929   -8.8330 C   0  0  2  0  0  0  0  0  0  0  0  0
   19.7846  -21.4290   -7.9023 N   0  0  0  0  0  0  0  0  0  0  0  0
   21.5228  -21.3313   -9.5728 C   0  0  0  0  0  0  0  0  0  0  0  0
   21.1802  -20.1657   -9.8875 O   0  0  0  0  0  0  0  0  0  0  0  0
   26.2671  -20.4866   -7.5914 C   0  0  0  0  0  0  0  0  0  0  0  0
   25.0661  -20.4800   -8.4249 C   0  0  0  0  0  0  0  0  0  0  0  0
   25.0567  -20.9464   -9.8000 C   0  0  2  0  0  0  0  0  0  0  0  0
   26.2880  -20.5230  -10.5977 C   0  0  0  0  0  0  0  0  0  0  0  0
   23.8091  -20.8487  -10.5735 C   0  0  2  0  0  0  0  0  0  0  0  0
   22.8083  -21.7796   -9.9378 N   0  0  0  0  0  0  0  0  0  0  0  0
   23.7759  -21.0800  -12.0109 C   0  0  0  0  0  0  0  0  0  0  0  0
   24.0155  -22.2763  -12.4773 O   0  0  0  0  0  0  0  0  0  0  0  0
   23.4960  -20.1669  -13.0524 N   0  0  0  0  0  0  0  0  0  0  0  0
   23.5079  -20.5652  -14.4626 C   0  0  1  0  0  0  0  0  0  0  0  0
   22.9409  -19.4307  -15.2744 C   0  0  0  0  0  0  0  0  0  0  0  0
   22.8569  -19.7406  -16.7224 C   0  0  0  0  0  0  0  0  0  0  0  0
   22.2452  -18.5553  -17.5032 C   0  0  0  0  0  0  0  0  0  0  0  0
   22.1402  -19.0417  -18.9517 C   0  0  0  0  0  0  0  0  0  0  0  0
   21.5511  -17.9980  -19.7670 N   0  0  0  0  0  0  0  0  0  0  0  0
   24.8816  -20.8395  -14.8794 C   0  0  0  0  0  0  0  0  0  0  0  0
   26.0216  -20.1897  -14.4427 O   0  0  0  0  0  0  0  0  0  0  0  0
   25.0925  -21.7606  -15.7288 O   0  0  0  0  0  0  0  0  0  0  0  0
  1  2  1  0
  2  3  2  0
  4  5  1  0
  4  2  1  0
  5  7  1  0
  5  6  1  1
  7 14  1  0
  7  8  2  0
 10 11  1  0
 10  9  1  0
 11 13  1  0
 11 12  1  6
 13 15  1  0
 13 14  1  1
 15 16  2  0
 17 18  1  0
 17 15  1  0
 18 24  1  0
 18 19  1  6
 20 19  1  0
 21 20  1  0
 22 21  1  0
 23 22  1  0
 24 25  1  0
 26 24  2  0
M  END
$$$$
