NIK.pdb
     RDKit          3D

 26 25  0  0  1  0  0  0  0  0999 V2000
   28.4700  -18.9122  -15.2260 N   0  0  0  0  0  0  0  0  0  0  0  0
   27.0521  -18.9844  -15.2836 C   0  0  0  0  0  0  0  0  0  0  0  0
   26.4785  -18.3540  -16.2066 O   0  0  0  0  0  0  0  0  0  0  0  0
   26.3350  -19.7836  -14.2723 C   0  0  0  0  0  0  0  0  0  0  0  0
   27.2748  -20.4173  -13.2709 C   0  0  2  0  0  0  0  0  0  0  0  0
   28.1275  -21.4099  -13.8683 N   0  0  0  0  0  0  0  0  0  0  0  0
   26.4495  -20.9951  -12.1848 C   0  0  0  0  0  0  0  0  0  0  0  0
   25.9808  -22.1517  -12.3174 O   0  0  0  0  0  0  0  0  0  0  0  0
   27.9114  -19.9140   -7.2207 C   0  0  0  0  0  0  0  0  0  0  0  0
   27.2268  -20.6126   -8.3071 C   0  0  0  0  0  0  0  0  0  0  0  0
   25.8265  -20.3976   -8.6255 C   0  0  2  0  0  0  0  0  0  0  0  0
   24.8833  -20.6851   -7.4597 C   0  0  0  0  0  0  0  0  0  0  0  0
   25.3101  -20.8810   -9.9155 C   0  0  2  0  0  0  0  0  0  0  0  0
   26.1708  -20.2847  -10.9998 N   0  0  0  0  0  0  0  0  0  0  0  0
   23.9190  -20.6960  -10.3045 C   0  0  0  0  0  0  0  0  0  0  0  0
   23.4802  -19.4967  -10.5789 O   0  0  0  0  0  0  0  0  0  0  0  0
   22.9017  -21.6649  -10.4568 N   0  0  0  0  0  0  0  0  0  0  0  0
   21.5248  -21.3018  -10.8026 C   0  0  1  0  0  0  0  0  0  0  0  0
   21.2929  -21.6654  -12.2454 C   0  0  0  0  0  0  0  0  0  0  0  0
   19.9225  -21.3409  -12.7110 C   0  0  0  0  0  0  0  0  0  0  0  0
   19.7121  -21.8103  -14.1685 C   0  0  0  0  0  0  0  0  0  0  0  0
   18.3763  -21.1965  -14.5978 C   0  0  0  0  0  0  0  0  0  0  0  0
   18.0592  -21.6304  -15.9440 N   0  0  0  0  0  0  0  0  0  0  0  0
   20.5973  -22.0389   -9.9468 C   0  0  0  0  0  0  0  0  0  0  0  0
   20.2205  -23.3622  -10.0859 O   0  0  0  0  0  0  0  0  0  0  0  0
   20.0602  -21.4383   -8.9643 O   0  0  0  0  0  0  0  0  0  0  0  0
  1  2  1  0
  2  3  2  0
  4  5  1  0
  4  2  1  0
  5  7  1  0
  5  6  1  6
  7 14  1  0
  7  8  2  0
 10 11  1  0
 10  9  1  0
 11 13  1  0
 11 12  1  1
 13 15  1  0
 13 14  1  6
 15 16  2  0
 17 18  1  0
 17 15  1  0
 18 24  1  0
 18 19  1  6
 20 19  1  0
 21 20  1  0
 22 21  1  0
 23 22  1  0
 24 25  1  0
 26 24  2  0
M  END
$$$$
