NIK.pdb
     RDKit          3D

 26 25  0  0  1  0  0  0  0  0999 V2000
   21.2720  -15.0691  -20.1623 N   0  0  0  0  0  0  0  0  0  0  0  0
   20.5604  -13.8449  -20.0457 C   0  0  0  0  0  0  0  0  0  0  0  0
   19.6107  -13.6503  -20.8449 O   0  0  0  0  0  0  0  0  0  0  0  0
   20.9656  -12.8779  -19.0082 C   0  0  0  0  0  0  0  0  0  0  0  0
   22.1461  -13.3670  -18.1989 C   0  0  2  0  0  0  0  0  0  0  0  0
   21.8641  -14.5919  -17.4994 N   0  0  0  0  0  0  0  0  0  0  0  0
   22.5273  -12.2841  -17.2626 C   0  0  0  0  0  0  0  0  0  0  0  0
   21.9023  -12.1573  -16.1817 O   0  0  0  0  0  0  0  0  0  0  0  0
   26.5653  -12.0196  -15.0599 C   0  0  0  0  0  0  0  0  0  0  0  0
   26.2306  -11.4938  -16.3823 C   0  0  0  0  0  0  0  0  0  0  0  0
   25.4698  -10.2725  -16.5771 C   0  0  2  0  0  0  0  0  0  0  0  0
   26.0276   -9.0757  -15.8102 C   0  0  0  0  0  0  0  0  0  0  0  0
   24.0004  -10.3399  -16.5476 C   0  0  2  0  0  0  0  0  0  0  0  0
   23.5750  -11.3853  -17.5468 N   0  0  0  0  0  0  0  0  0  0  0  0
   23.1725   -9.1613  -16.7623 C   0  0  0  0  0  0  0  0  0  0  0  0
   23.2219   -8.5390  -17.9097 O   0  0  0  0  0  0  0  0  0  0  0  0
   22.2543   -8.5469  -15.8814 N   0  0  0  0  0  0  0  0  0  0  0  0
   21.4656   -7.3747  -16.2704 C   0  0  1  0  0  0  0  0  0  0  0  0
   20.0086   -7.7504  -16.2125 C   0  0  0  0  0  0  0  0  0  0  0  0
   19.1055   -6.6167  -16.5275 C   0  0  0  0  0  0  0  0  0  0  0  0
   17.6268   -7.0645  -16.4860 C   0  0  0  0  0  0  0  0  0  0  0  0
   16.8248   -5.8388  -16.9335 C   0  0  0  0  0  0  0  0  0  0  0  0
   15.4300   -6.2052  -17.0799 N   0  0  0  0  0  0  0  0  0  0  0  0
   21.7353   -6.2771  -15.3439 C   0  0  0  0  0  0  0  0  0  0  0  0
   21.5481   -4.9284  -15.5858 O   0  0  0  0  0  0  0  0  0  0  0  0
   22.1897   -6.5474  -14.1886 O   0  0  0  0  0  0  0  0  0  0  0  0
  1  2  1  0
  2  3  2  0
  4  5  1  0
  4  2  1  0
  5  7  1  0
  5  6  1  1
  7 14  1  0
  7  8  2  0
 10 11  1  0
 10  9  1  0
 11 13  1  0
 11 12  1  1
 13 15  1  0
 13 14  1  6
 15 16  2  0
 17 18  1  0
 17 15  1  0
 18 24  1  0
 18 19  1  1
 20 19  1  0
 21 20  1  0
 22 21  1  0
 23 22  1  0
 24 25  1  0
 26 24  2  0
M  END
$$$$
