NIK.pdb
     RDKit          3D

 26 25  0  0  1  0  0  0  0  0999 V2000
   29.7091  -19.5801  -16.6161 N   0  0  0  0  0  0  0  0  0  0  0  0
   28.3652  -19.3753  -17.0294 C   0  0  0  0  0  0  0  0  0  0  0  0
   28.1742  -18.6402  -18.0302 O   0  0  0  0  0  0  0  0  0  0  0  0
   27.2776  -20.0259  -16.2747 C   0  0  0  0  0  0  0  0  0  0  0  0
   27.7999  -20.9037  -15.1591 C   0  0  2  0  0  0  0  0  0  0  0  0
   28.5425  -22.0337  -15.6500 N   0  0  0  0  0  0  0  0  0  0  0  0
   26.6391  -21.3312  -14.3442 C   0  0  0  0  0  0  0  0  0  0  0  0
   26.0024  -22.3614  -14.6734 O   0  0  0  0  0  0  0  0  0  0  0  0
   27.2395  -20.9381   -9.1224 C   0  0  0  0  0  0  0  0  0  0  0  0
   26.6650  -21.3756  -10.3934 C   0  0  0  0  0  0  0  0  0  0  0  0
   25.4422  -20.8163  -10.9414 C   0  0  2  0  0  0  0  0  0  0  0  0
   24.2483  -20.9113   -9.9943 C   0  0  0  0  0  0  0  0  0  0  0  0
   25.0917  -21.1112  -12.3395 C   0  0  2  0  0  0  0  0  0  0  0  0
   26.2225  -20.6149  -13.2040 N   0  0  0  0  0  0  0  0  0  0  0  0
   23.8457  -20.6475  -12.9337 C   0  0  0  0  0  0  0  0  0  0  0  0
   23.6086  -19.3656  -13.0166 O   0  0  0  0  0  0  0  0  0  0  0  0
   22.7867  -21.4045  -13.4836 N   0  0  0  0  0  0  0  0  0  0  0  0
   21.5535  -20.7807  -13.9708 C   0  0  1  0  0  0  0  0  0  0  0  0
   21.0260  -21.6131  -15.1094 C   0  0  0  0  0  0  0  0  0  0  0  0
   19.6833  -21.1814  -15.5684 C   0  0  0  0  0  0  0  0  0  0  0  0
   19.0985  -22.1910  -16.5821 C   0  0  0  0  0  0  0  0  0  0  0  0
   17.8377  -21.5192  -17.1341 C   0  0  0  0  0  0  0  0  0  0  0  0
   16.7980  -22.5150  -17.3030 N   0  0  0  0  0  0  0  0  0  0  0  0
   20.5713  -20.7342  -12.8896 C   0  0  0  0  0  0  0  0  0  0  0  0
   19.5545  -19.8092  -12.7379 O   0  0  0  0  0  0  0  0  0  0  0  0
   20.6233  -21.6151  -11.9755 O   0  0  0  0  0  0  0  0  0  0  0  0
  1  2  1  0
  2  3  2  0
  4  5  1  0
  4  2  1  0
  5  7  1  0
  5  6  1  6
  7 14  1  0
  7  8  2  0
 10 11  1  0
 10  9  1  0
 11 13  1  0
 11 12  1  1
 13 15  1  0
 13 14  1  6
 15 16  2  0
 17 18  1  0
 17 15  1  0
 18 24  1  0
 18 19  1  6
 20 19  1  0
 21 20  1  0
 22 21  1  0
 23 22  1  0
 24 25  1  0
 26 24  2  0
M  END
$$$$
