NIK.pdb
     RDKit          3D

 26 25  0  0  1  0  0  0  0  0999 V2000
   15.0916  -11.6345    5.1778 N   0  0  0  0  0  0  0  0  0  0  0  0
   15.2916  -12.9851    5.5711 C   0  0  0  0  0  0  0  0  0  0  0  0
   14.2819  -13.7317    5.6080 O   0  0  0  0  0  0  0  0  0  0  0  0
   16.6540  -13.4368    5.9112 C   0  0  0  0  0  0  0  0  0  0  0  0
   17.6980  -12.3839    5.6127 C   0  0  2  0  0  0  0  0  0  0  0  0
   17.8628  -12.1571    4.2018 N   0  0  0  0  0  0  0  0  0  0  0  0
   18.9661  -12.8185    6.2431 C   0  0  0  0  0  0  0  0  0  0  0  0
   19.6739  -13.6816    5.6695 O   0  0  0  0  0  0  0  0  0  0  0  0
   22.3813   -9.2899    8.4401 C   0  0  0  0  0  0  0  0  0  0  0  0
   21.7545  -10.4976    7.9058 C   0  0  0  0  0  0  0  0  0  0  0  0
   21.3244  -11.6015    8.7454 C   0  0  2  0  0  0  0  0  0  0  0  0
   22.3408  -11.9861    9.8180 C   0  0  0  0  0  0  0  0  0  0  0  0
   20.6872  -12.7671    8.1131 C   0  0  2  0  0  0  0  0  0  0  0  0
   19.4073  -12.2920    7.4738 N   0  0  0  0  0  0  0  0  0  0  0  0
   20.3829  -13.9777    8.8630 C   0  0  0  0  0  0  0  0  0  0  0  0
   19.1622  -14.1909    9.2759 O   0  0  0  0  0  0  0  0  0  0  0  0
   21.2440  -15.0361    9.2308 N   0  0  0  0  0  0  0  0  0  0  0  0
   20.7424  -16.2798    9.8215 C   0  0  1  0  0  0  0  0  0  0  0  0
   19.8791  -16.9692    8.7983 C   0  0  0  0  0  0  0  0  0  0  0  0
   18.6681  -17.5909    9.3873 C   0  0  0  0  0  0  0  0  0  0  0  0
   17.8279  -18.2961    8.2984 C   0  0  0  0  0  0  0  0  0  0  0  0
   16.6445  -18.9178    9.0460 C   0  0  0  0  0  0  0  0  0  0  0  0
   15.8216  -19.6588    8.1106 N   0  0  0  0  0  0  0  0  0  0  0  0
   21.8700  -17.1368   10.1822 C   0  0  0  0  0  0  0  0  0  0  0  0
   21.9863  -17.9107   11.3224 O   0  0  0  0  0  0  0  0  0  0  0  0
   22.8651  -17.2048    9.3951 O   0  0  0  0  0  0  0  0  0  0  0  0
  1  2  1  0
  2  3  2  0
  4  5  1  0
  4  2  1  0
  5  7  1  0
  5  6  1  6
  7 14  1  0
  7  8  2  0
 10 11  1  0
 10  9  1  0
 11 13  1  0
 11 12  1  6
 13 15  1  0
 13 14  1  1
 15 16  2  0
 17 18  1  0
 17 15  1  0
 18 24  1  0
 18 19  1  6
 20 19  1  0
 21 20  1  0
 22 21  1  0
 23 22  1  0
 24 25  1  0
 26 24  2  0
M  END
$$$$
