NIK.pdb
     RDKit          3D

 26 25  0  0  1  0  0  0  0  0999 V2000
   29.2595  -18.5265  -16.1562 N   0  0  0  0  0  0  0  0  0  0  0  0
   27.8617  -18.3495  -16.3392 C   0  0  0  0  0  0  0  0  0  0  0  0
   27.4931  -17.4894  -17.1776 O   0  0  0  0  0  0  0  0  0  0  0  0
   26.9269  -19.1716  -15.5479 C   0  0  0  0  0  0  0  0  0  0  0  0
   27.6420  -20.2169  -14.7211 C   0  0  2  0  0  0  0  0  0  0  0  0
   28.2854  -21.2150  -15.5330 N   0  0  0  0  0  0  0  0  0  0  0  0
   26.6469  -20.8224  -13.8059 C   0  0  0  0  0  0  0  0  0  0  0  0
   25.9539  -21.7900  -14.2040 O   0  0  0  0  0  0  0  0  0  0  0  0
   27.5511  -20.5365   -8.4567 C   0  0  0  0  0  0  0  0  0  0  0  0
   27.0062  -20.9948   -9.7333 C   0  0  0  0  0  0  0  0  0  0  0  0
   25.7013  -20.5904  -10.2256 C   0  0  2  0  0  0  0  0  0  0  0  0
   24.5636  -20.8759   -9.2481 C   0  0  0  0  0  0  0  0  0  0  0  0
   25.3471  -20.8872  -11.6224 C   0  0  2  0  0  0  0  0  0  0  0  0
   26.4507  -20.3450  -12.4943 N   0  0  0  0  0  0  0  0  0  0  0  0
   24.0794  -20.4635  -12.2005 C   0  0  0  0  0  0  0  0  0  0  0  0
   23.8572  -19.1928  -12.4061 O   0  0  0  0  0  0  0  0  0  0  0  0
   22.9831  -21.2526  -12.6152 N   0  0  0  0  0  0  0  0  0  0  0  0
   21.7677  -20.6621  -13.1823 C   0  0  1  0  0  0  0  0  0  0  0  0
   21.4482  -21.3874  -14.4627 C   0  0  0  0  0  0  0  0  0  0  0  0
   20.2132  -20.8906  -15.1167 C   0  0  0  0  0  0  0  0  0  0  0  0
   19.9394  -21.6593  -16.4293 C   0  0  0  0  0  0  0  0  0  0  0  0
   18.7266  -20.9640  -17.0548 C   0  0  0  0  0  0  0  0  0  0  0  0
   18.4330  -21.5725  -18.3373 N   0  0  0  0  0  0  0  0  0  0  0  0
   20.6653  -20.8128  -12.2348 C   0  0  0  0  0  0  0  0  0  0  0  0
   19.5923  -19.9552  -12.0744 O   0  0  0  0  0  0  0  0  0  0  0  0
   20.6550  -21.8205  -11.4611 O   0  0  0  0  0  0  0  0  0  0  0  0
  1  2  1  0
  2  3  2  0
  4  5  1  0
  4  2  1  0
  5  7  1  0
  5  6  1  6
  7 14  1  0
  7  8  2  0
 10 11  1  0
 10  9  1  0
 11 13  1  0
 11 12  1  1
 13 15  1  0
 13 14  1  6
 15 16  2  0
 17 18  1  0
 17 15  1  0
 18 24  1  0
 18 19  1  6
 20 19  1  0
 21 20  1  0
 22 21  1  0
 23 22  1  0
 24 25  1  0
 26 24  2  0
M  END
$$$$
