NIK.pdb
     RDKit          3D

 26 25  0  0  1  0  0  0  0  0999 V2000
   21.1710  -26.4395  -14.6355 N   0  0  0  0  0  0  0  0  0  0  0  0
   20.6503  -25.4509  -15.5131 C   0  0  0  0  0  0  0  0  0  0  0  0
   20.1528  -25.8450  -16.5973 O   0  0  0  0  0  0  0  0  0  0  0  0
   20.7185  -24.0325  -15.1138 C   0  0  0  0  0  0  0  0  0  0  0  0
   21.3009  -23.8545  -13.7294 C   0  0  2  0  0  0  0  0  0  0  0  0
   20.3216  -24.0411  -12.6923 N   0  0  0  0  0  0  0  0  0  0  0  0
   21.9044  -22.5030  -13.6673 C   0  0  0  0  0  0  0  0  0  0  0  0
   21.1562  -21.4980  -13.5950 O   0  0  0  0  0  0  0  0  0  0  0  0
   25.9365  -21.7581  -10.3519 C   0  0  0  0  0  0  0  0  0  0  0  0
   24.8436  -21.5418  -11.2984 C   0  0  0  0  0  0  0  0  0  0  0  0
   25.0527  -21.0381  -12.6442 C   0  0  2  0  0  0  0  0  0  0  0  0
   25.9748  -19.8226  -12.7058 C   0  0  0  0  0  0  0  0  0  0  0  0
   23.8972  -20.9294  -13.5483 C   0  0  2  0  0  0  0  0  0  0  0  0
   23.3000  -22.3065  -13.6872 N   0  0  0  0  0  0  0  0  0  0  0  0
   24.0175  -20.3637  -14.8847 C   0  0  0  0  0  0  0  0  0  0  0  0
   24.6086  -21.0511  -15.8251 O   0  0  0  0  0  0  0  0  0  0  0  0
   23.5587  -19.1175  -15.3676 N   0  0  0  0  0  0  0  0  0  0  0  0
   23.6221  -18.7603  -16.7874 C   0  0  1  0  0  0  0  0  0  0  0  0
   22.8246  -19.7761  -17.5618 C   0  0  0  0  0  0  0  0  0  0  0  0
   21.3636  -19.6614  -17.3332 C   0  0  0  0  0  0  0  0  0  0  0  0
   20.5949  -20.7267  -18.1475 C   0  0  0  0  0  0  0  0  0  0  0  0
   19.1139  -20.4465  -17.8757 C   0  0  0  0  0  0  0  0  0  0  0  0
   18.3017  -21.3600  -18.6549 N   0  0  0  0  0  0  0  0  0  0  0  0
   23.0540  -17.4276  -16.9800 C   0  0  0  0  0  0  0  0  0  0  0  0
   23.0337  -16.7015  -18.1568 O   0  0  0  0  0  0  0  0  0  0  0  0
   22.5154  -16.8415  -15.9897 O   0  0  0  0  0  0  0  0  0  0  0  0
  1  2  1  0
  2  3  2  0
  4  5  1  0
  4  2  1  0
  5  7  1  0
  5  6  1  1
  7 14  1  0
  7  8  2  0
 10 11  1  0
 10  9  1  0
 11 13  1  0
 11 12  1  1
 13 15  1  0
 13 14  1  6
 15 16  2  0
 17 18  1  0
 17 15  1  0
 18 24  1  0
 18 19  1  6
 20 19  1  0
 21 20  1  0
 22 21  1  0
 23 22  1  0
 24 25  1  0
 26 24  2  0
M  END
$$$$
