NIK.pdb
     RDKit          3D

 26 25  0  0  1  0  0  0  0  0999 V2000
   28.5094  -21.8116  -19.0408 N   0  0  0  0  0  0  0  0  0  0  0  0
   27.1910  -22.3037  -18.8450 C   0  0  0  0  0  0  0  0  0  0  0  0
   26.7343  -23.0924  -19.7098 O   0  0  0  0  0  0  0  0  0  0  0  0
   26.4353  -21.8709  -17.6544 C   0  0  0  0  0  0  0  0  0  0  0  0
   27.2267  -20.9147  -16.7900 C   0  0  2  0  0  0  0  0  0  0  0  0
   28.1866  -21.5904  -15.9586 N   0  0  0  0  0  0  0  0  0  0  0  0
   26.2599  -20.1382  -15.9795 C   0  0  0  0  0  0  0  0  0  0  0  0
   26.0092  -20.5027  -14.8051 O   0  0  0  0  0  0  0  0  0  0  0  0
   27.2587  -15.2383  -15.5072 C   0  0  0  0  0  0  0  0  0  0  0  0
   26.5838  -16.5102  -15.2550 C   0  0  0  0  0  0  0  0  0  0  0  0
   25.2160  -16.7734  -15.6655 C   0  0  2  0  0  0  0  0  0  0  0  0
   24.2117  -15.7520  -15.1367 C   0  0  0  0  0  0  0  0  0  0  0  0
   24.7129  -18.1549  -15.6124 C   0  0  2  0  0  0  0  0  0  0  0  0
   25.6075  -18.9963  -16.4865 N   0  0  0  0  0  0  0  0  0  0  0  0
   23.3340  -18.4840  -15.9457 C   0  0  0  0  0  0  0  0  0  0  0  0
   22.9172  -18.3450  -17.1758 O   0  0  0  0  0  0  0  0  0  0  0  0
   22.3086  -18.9736  -15.1058 N   0  0  0  0  0  0  0  0  0  0  0  0
   20.9742  -19.3022  -15.6148 C   0  0  1  0  0  0  0  0  0  0  0  0
   20.2395  -20.0649  -14.5443 C   0  0  0  0  0  0  0  0  0  0  0  0
   18.8074  -20.2791  -14.8656 C   0  0  0  0  0  0  0  0  0  0  0  0
   18.0994  -21.0524  -13.7301 C   0  0  0  0  0  0  0  0  0  0  0  0
   16.7670  -21.5122  -14.3291 C   0  0  0  0  0  0  0  0  0  0  0  0
   16.8316  -22.9328  -14.6097 N   0  0  0  0  0  0  0  0  0  0  0  0
   20.2565  -18.0691  -15.9311 C   0  0  0  0  0  0  0  0  0  0  0  0
   19.3025  -17.8997  -16.9179 O   0  0  0  0  0  0  0  0  0  0  0  0
   20.5062  -17.0232  -15.2542 O   0  0  0  0  0  0  0  0  0  0  0  0
  1  2  1  0
  2  3  2  0
  4  5  1  0
  4  2  1  0
  5  7  1  0
  5  6  1  1
  7 14  1  0
  7  8  2  0
 10 11  1  0
 10  9  1  0
 11 13  1  0
 11 12  1  1
 13 15  1  0
 13 14  1  6
 15 16  2  0
 17 18  1  0
 17 15  1  0
 18 24  1  0
 18 19  1  1
 20 19  1  0
 21 20  1  0
 22 21  1  0
 23 22  1  0
 24 25  1  0
 26 24  2  0
M  END
$$$$
