NIK.pdb
     RDKit          3D

 26 25  0  0  1  0  0  0  0  0999 V2000
   24.6109  -35.8906   -6.8492 N   0  0  0  0  0  0  0  0  0  0  0  0
   24.7051  -36.7578   -5.7277 C   0  0  0  0  0  0  0  0  0  0  0  0
   24.1959  -37.9012   -5.8370 O   0  0  0  0  0  0  0  0  0  0  0  0
   25.3857  -36.2802   -4.5093 C   0  0  0  0  0  0  0  0  0  0  0  0
   25.9733  -34.8977   -4.6859 C   0  0  2  0  0  0  0  0  0  0  0  0
   27.1809  -34.9089   -5.4675 N   0  0  0  0  0  0  0  0  0  0  0  0
   26.2072  -34.3342   -3.3360 C   0  0  0  0  0  0  0  0  0  0  0  0
   27.2782  -34.5968   -2.7370 O   0  0  0  0  0  0  0  0  0  0  0  0
   24.9158  -29.2297   -2.6142 C   0  0  0  0  0  0  0  0  0  0  0  0
   25.4156  -30.5974   -2.4850 C   0  0  0  0  0  0  0  0  0  0  0  0
   25.0025  -31.4914   -1.4180 C   0  0  2  0  0  0  0  0  0  0  0  0
   24.9511  -30.8233   -0.0459 C   0  0  0  0  0  0  0  0  0  0  0  0
   25.5633  -32.8508   -1.3747 C   0  0  2  0  0  0  0  0  0  0  0  0
   25.2608  -33.5076   -2.6974 N   0  0  0  0  0  0  0  0  0  0  0  0
   25.2114  -33.7943   -0.3228 C   0  0  0  0  0  0  0  0  0  0  0  0
   24.0783  -34.4408   -0.3890 O   0  0  0  0  0  0  0  0  0  0  0  0
   25.9475  -34.1600    0.8267 N   0  0  0  0  0  0  0  0  0  0  0  0
   25.4337  -35.1182    1.8092 C   0  0  1  0  0  0  0  0  0  0  0  0
   26.5182  -36.1233    2.0944 C   0  0  0  0  0  0  0  0  0  0  0  0
   26.1237  -37.1274    3.1123 C   0  0  0  0  0  0  0  0  0  0  0  0
   27.2695  -38.1335    3.3642 C   0  0  0  0  0  0  0  0  0  0  0  0
   26.6970  -39.1524    4.3541 C   0  0  0  0  0  0  0  0  0  0  0  0
   27.6742  -40.1976    4.5860 N   0  0  0  0  0  0  0  0  0  0  0  0
   25.0732  -34.4111    3.0364 C   0  0  0  0  0  0  0  0  0  0  0  0
   24.2605  -34.8820    4.0515 O   0  0  0  0  0  0  0  0  0  0  0  0
   25.5317  -33.2418    3.2278 O   0  0  0  0  0  0  0  0  0  0  0  0
  1  2  1  0
  2  3  2  0
  4  5  1  0
  4  2  1  0
  5  7  1  0
  5  6  1  1
  7 14  1  0
  7  8  2  0
 10 11  1  0
 10  9  1  0
 11 13  1  0
 11 12  1  1
 13 15  1  0
 13 14  1  6
 15 16  2  0
 17 18  1  0
 17 15  1  0
 18 24  1  0
 18 19  1  1
 20 19  1  0
 21 20  1  0
 22 21  1  0
 23 22  1  0
 24 25  1  0
 26 24  2  0
M  END
$$$$
