NIK.pdb
     RDKit          3D

 26 25  0  0  1  0  0  0  0  0999 V2000
   22.8818  -16.0492  -20.4442 N   0  0  0  0  0  0  0  0  0  0  0  0
   21.9748  -14.9645  -20.3043 C   0  0  0  0  0  0  0  0  0  0  0  0
   21.0891  -14.8346  -21.1857 O   0  0  0  0  0  0  0  0  0  0  0  0
   22.1159  -14.0586  -19.1487 C   0  0  0  0  0  0  0  0  0  0  0  0
   23.3038  -14.4151  -18.2830 C   0  0  2  0  0  0  0  0  0  0  0  0
   23.2126  -15.7459  -17.7446 N   0  0  0  0  0  0  0  0  0  0  0  0
   23.3949  -13.4008  -17.2071 C   0  0  0  0  0  0  0  0  0  0  0  0
   22.7408  -13.5661  -16.1490 O   0  0  0  0  0  0  0  0  0  0  0  0
   28.0341  -12.2853  -15.4392 C   0  0  0  0  0  0  0  0  0  0  0  0
   26.5827  -12.3135  -15.6113 C   0  0  0  0  0  0  0  0  0  0  0  0
   25.8032  -11.1330  -15.9389 C   0  0  2  0  0  0  0  0  0  0  0  0
   26.1371   -9.9203  -15.0733 C   0  0  0  0  0  0  0  0  0  0  0  0
   24.3609  -11.2820  -16.1878 C   0  0  2  0  0  0  0  0  0  0  0  0
   24.1966  -12.2484  -17.3330 N   0  0  0  0  0  0  0  0  0  0  0  0
   23.5040  -10.1346  -16.4522 C   0  0  0  0  0  0  0  0  0  0  0  0
   23.7238   -9.3950  -17.5061 O   0  0  0  0  0  0  0  0  0  0  0  0
   22.3929   -9.6659  -15.7157 N   0  0  0  0  0  0  0  0  0  0  0  0
   21.6123   -8.5002  -16.1392 C   0  0  1  0  0  0  0  0  0  0  0  0
   20.1541   -8.8121  -15.9302 C   0  0  0  0  0  0  0  0  0  0  0  0
   19.2621   -7.6888  -16.3077 C   0  0  0  0  0  0  0  0  0  0  0  0
   17.7788   -8.0735  -16.1057 C   0  0  0  0  0  0  0  0  0  0  0  0
   16.9792   -6.9301  -16.7374 C   0  0  0  0  0  0  0  0  0  0  0  0
   15.5635   -7.1633  -16.5312 N   0  0  0  0  0  0  0  0  0  0  0  0
   21.9949   -7.3404  -15.3366 C   0  0  0  0  0  0  0  0  0  0  0  0
   21.9253   -6.0132  -15.7190 O   0  0  0  0  0  0  0  0  0  0  0  0
   22.4426   -7.5279  -14.1624 O   0  0  0  0  0  0  0  0  0  0  0  0
  1  2  1  0
  2  3  2  0
  4  5  1  0
  4  2  1  0
  5  7  1  0
  5  6  1  1
  7 14  1  0
  7  8  2  0
 10 11  1  0
 10  9  1  0
 11 13  1  0
 11 12  1  1
 13 15  1  0
 13 14  1  6
 15 16  2  0
 17 18  1  0
 17 15  1  0
 18 24  1  0
 18 19  1  1
 20 19  1  0
 21 20  1  0
 22 21  1  0
 23 22  1  0
 24 25  1  0
 26 24  2  0
M  END
$$$$
