NIK.pdb
     RDKit          3D

 26 25  0  0  1  0  0  0  0  0999 V2000
   28.9757  -18.7128  -16.3373 N   0  0  0  0  0  0  0  0  0  0  0  0
   27.5874  -18.4784  -16.5283 C   0  0  0  0  0  0  0  0  0  0  0  0
   27.2592  -17.6081  -17.3729 O   0  0  0  0  0  0  0  0  0  0  0  0
   26.6152  -19.2566  -15.7378 C   0  0  0  0  0  0  0  0  0  0  0  0
   27.2897  -20.2373  -14.8045 C   0  0  2  0  0  0  0  0  0  0  0  0
   28.0230  -21.2536  -15.5108 N   0  0  0  0  0  0  0  0  0  0  0  0
   26.2412  -20.8277  -13.9406 C   0  0  0  0  0  0  0  0  0  0  0  0
   25.6728  -21.8873  -14.3000 O   0  0  0  0  0  0  0  0  0  0  0  0
   27.1497  -20.5745   -8.7178 C   0  0  0  0  0  0  0  0  0  0  0  0
   26.5913  -20.9710  -10.0093 C   0  0  0  0  0  0  0  0  0  0  0  0
   25.2466  -20.6194  -10.4296 C   0  0  2  0  0  0  0  0  0  0  0  0
   24.1708  -20.9926   -9.4124 C   0  0  0  0  0  0  0  0  0  0  0  0
   24.8437  -20.8912  -11.8182 C   0  0  2  0  0  0  0  0  0  0  0  0
   25.8577  -20.2355  -12.7204 N   0  0  0  0  0  0  0  0  0  0  0  0
   23.5200  -20.5442  -12.3164 C   0  0  0  0  0  0  0  0  0  0  0  0
   23.1772  -19.2877  -12.4151 O   0  0  0  0  0  0  0  0  0  0  0  0
   22.4816  -21.3980  -12.7517 N   0  0  0  0  0  0  0  0  0  0  0  0
   21.2135  -20.8803  -13.2728 C   0  0  1  0  0  0  0  0  0  0  0  0
   20.7713  -21.7739  -14.4013 C   0  0  0  0  0  0  0  0  0  0  0  0
   19.5045  -21.3277  -15.0305 C   0  0  0  0  0  0  0  0  0  0  0  0
   19.0753  -22.3013  -16.1516 C   0  0  0  0  0  0  0  0  0  0  0  0
   17.8404  -21.6580  -16.7894 C   0  0  0  0  0  0  0  0  0  0  0  0
   17.3481  -22.5131  -17.8512 N   0  0  0  0  0  0  0  0  0  0  0  0
   20.2113  -20.8863  -12.2092 C   0  0  0  0  0  0  0  0  0  0  0  0
   20.1771  -21.7283  -11.1126 O   0  0  0  0  0  0  0  0  0  0  0  0
   19.2573  -20.0488  -12.2607 O   0  0  0  0  0  0  0  0  0  0  0  0
  1  2  1  0
  2  3  2  0
  4  5  1  0
  4  2  1  0
  5  7  1  0
  5  6  1  6
  7 14  1  0
  7  8  2  0
 10 11  1  0
 10  9  1  0
 11 13  1  0
 11 12  1  1
 13 15  1  0
 13 14  1  6
 15 16  2  0
 17 18  1  0
 17 15  1  0
 18 24  1  0
 18 19  1  6
 20 19  1  0
 21 20  1  0
 22 21  1  0
 23 22  1  0
 24 25  1  0
 26 24  2  0
M  END
$$$$
