NIK.pdb
     RDKit          3D

 26 25  0  0  1  0  0  0  0  0999 V2000
   28.3120  -19.2932  -18.3040 N   0  0  0  0  0  0  0  0  0  0  0  0
   28.1441  -19.0658  -16.9116 C   0  0  0  0  0  0  0  0  0  0  0  0
   28.9173  -18.2410  -16.3635 O   0  0  0  0  0  0  0  0  0  0  0  0
   27.0866  -19.7979  -16.1896 C   0  0  0  0  0  0  0  0  0  0  0  0
   27.6229  -20.5387  -14.9848 C   0  0  2  0  0  0  0  0  0  0  0  0
   28.5445  -21.5824  -15.3460 N   0  0  0  0  0  0  0  0  0  0  0  0
   26.4630  -21.0757  -14.2359 C   0  0  0  0  0  0  0  0  0  0  0  0
   25.8940  -22.1161  -14.6466 O   0  0  0  0  0  0  0  0  0  0  0  0
   27.0481  -20.9359   -9.0072 C   0  0  0  0  0  0  0  0  0  0  0  0
   26.5262  -21.3132  -10.3195 C   0  0  0  0  0  0  0  0  0  0  0  0
   25.2409  -20.8581  -10.8187 C   0  0  2  0  0  0  0  0  0  0  0  0
   24.0799  -21.1440   -9.8690 C   0  0  0  0  0  0  0  0  0  0  0  0
   24.9020  -21.0998  -12.2298 C   0  0  2  0  0  0  0  0  0  0  0  0
   25.9736  -20.4531  -13.0699 N   0  0  0  0  0  0  0  0  0  0  0  0
   23.6126  -20.7162  -12.7873 C   0  0  0  0  0  0  0  0  0  0  0  0
   23.2763  -19.4546  -12.8256 O   0  0  0  0  0  0  0  0  0  0  0  0
   22.6041  -21.5359  -13.3422 N   0  0  0  0  0  0  0  0  0  0  0  0
   21.3492  -20.9849  -13.8608 C   0  0  1  0  0  0  0  0  0  0  0  0
   20.8384  -21.9115  -14.9323 C   0  0  0  0  0  0  0  0  0  0  0  0
   19.4952  -21.5316  -15.4339 C   0  0  0  0  0  0  0  0  0  0  0  0
   19.5961  -20.8701  -16.8271 C   0  0  0  0  0  0  0  0  0  0  0  0
   18.1672  -20.4382  -17.1695 C   0  0  0  0  0  0  0  0  0  0  0  0
   18.1628  -19.7705  -18.4561 N   0  0  0  0  0  0  0  0  0  0  0  0
   20.3741  -20.8901  -12.7763 C   0  0  0  0  0  0  0  0  0  0  0  0
   19.3798  -19.9385  -12.6417 O   0  0  0  0  0  0  0  0  0  0  0  0
   20.4106  -21.7502  -11.8418 O   0  0  0  0  0  0  0  0  0  0  0  0
  1  2  1  0
  2  3  2  0
  4  5  1  0
  4  2  1  0
  5  7  1  0
  5  6  1  6
  7 14  1  0
  7  8  2  0
 10 11  1  0
 10  9  1  0
 11 13  1  0
 11 12  1  1
 13 15  1  0
 13 14  1  6
 15 16  2  0
 17 18  1  0
 17 15  1  0
 18 24  1  0
 18 19  1  6
 20 19  1  0
 21 20  1  0
 22 21  1  0
 23 22  1  0
 24 25  1  0
 26 24  2  0
M  END
$$$$
