AIL.pdb
     RDKit          3D

 22 21  0  0  1  0  0  0  0  0999 V2000
   20.6753  -11.8773  -20.4911 C   0  0  0  0  0  0  0  0  0  0  0  0
   21.5553  -12.8054  -19.7088 C   0  0  2  0  0  0  0  0  0  0  0  0
   21.0651  -14.1630  -19.6775 N   0  0  0  0  0  0  0  0  0  0  0  0
   21.7109  -12.2396  -18.3365 C   0  0  0  0  0  0  0  0  0  0  0  0
   20.7608  -12.4483  -17.5363 O   0  0  0  0  0  0  0  0  0  0  0  0
   26.2324  -12.4990  -15.4749 C   0  0  0  0  0  0  0  0  0  0  0  0
   24.8125  -12.5242  -16.0178 C   0  0  0  0  0  0  0  0  0  0  0  0
   24.3192  -11.1006  -16.0242 C   0  0  2  0  0  0  0  0  0  0  0  0
   24.4158  -10.5086  -14.6580 C   0  0  0  0  0  0  0  0  0  0  0  0
   22.9371  -10.9737  -16.6248 C   0  0  2  0  0  0  0  0  0  0  0  0
   22.8648  -11.5074  -17.9542 N   0  0  0  0  0  0  0  0  0  0  0  0
   22.5812   -9.5282  -16.6888 C   0  0  0  0  0  0  0  0  0  0  0  0
   23.2458   -8.7205  -17.3844 O   0  0  0  0  0  0  0  0  0  0  0  0
   17.7819   -8.1476  -17.7586 C   0  0  0  0  0  0  0  0  0  0  0  0
   19.3067   -8.0416  -17.6245 C   0  0  1  0  0  0  0  0  0  0  0  0
   19.7357   -6.9757  -18.6087 C   0  0  0  0  0  0  0  0  0  0  0  0
   19.5691   -7.6261  -16.2087 C   0  0  0  0  0  0  0  0  0  0  0  0
   21.0541   -7.6652  -15.9059 C   0  0  2  0  0  0  0  0  0  0  0  0
   21.4824   -9.0547  -15.9592 N   0  0  0  0  0  0  0  0  0  0  0  0
   21.3668   -7.0453  -14.6068 C   0  0  0  0  0  0  0  0  0  0  0  0
   21.5091   -7.7459  -13.5847 O   0  0  0  0  0  0  0  0  0  0  0  0
   21.5051   -5.6781  -14.5119 O   0  0  0  0  0  0  0  0  0  0  0  0
  2  1  1  6
  2  3  1  0
  4  2  1  0
  4  5  2  0
  6  7  1  0
  7  8  1  0
  8 10  1  0
  8  9  1  1
 10 11  1  6
 10 12  1  0
 11  4  1  0
 12 19  1  0
 13 12  2  0
 15 14  1  1
 15 16  1  0
 17 15  1  0
 18 17  1  1
 19 18  1  0
 20 22  1  0
 20 18  1  0
 21 20  2  0
M  END
$$$$
