AIL.pdb
     RDKit          3D

 22 21  0  0  1  0  0  0  0  0999 V2000
   21.0440  -12.0923    6.2058 C   0  0  0  0  0  0  0  0  0  0  0  0
   19.5893  -11.9601    5.8678 C   0  0  2  0  0  0  0  0  0  0  0  0
   18.9007  -10.9908    6.6869 N   0  0  0  0  0  0  0  0  0  0  0  0
   18.9708  -13.3144    5.9722 C   0  0  0  0  0  0  0  0  0  0  0  0
   18.3373  -13.5578    7.0332 O   0  0  0  0  0  0  0  0  0  0  0  0
   16.8705  -15.7716    1.6326 C   0  0  0  0  0  0  0  0  0  0  0  0
   17.0913  -15.1682    3.0105 C   0  0  0  0  0  0  0  0  0  0  0  0
   17.9756  -16.1218    3.7713 C   0  0  2  0  0  0  0  0  0  0  0  0
   17.3067  -17.4470    3.9212 C   0  0  0  0  0  0  0  0  0  0  0  0
   18.4432  -15.5455    5.0889 C   0  0  2  0  0  0  0  0  0  0  0  0
   19.0898  -14.2745    4.9339 N   0  0  0  0  0  0  0  0  0  0  0  0
   19.4232  -16.4897    5.6958 C   0  0  0  0  0  0  0  0  0  0  0  0
   20.4085  -16.9185    5.0452 O   0  0  0  0  0  0  0  0  0  0  0  0
   21.4964  -15.5978   10.4035 C   0  0  0  0  0  0  0  0  0  0  0  0
   21.3767  -16.1749    8.9868 C   0  0  1  0  0  0  0  0  0  0  0  0
   22.7630  -16.6542    8.6165 C   0  0  0  0  0  0  0  0  0  0  0  0
   20.4053  -17.3118    9.0845 C   0  0  0  0  0  0  0  0  0  0  0  0
   20.0956  -17.8709    7.7098 C   0  0  2  0  0  0  0  0  0  0  0  0
   19.2462  -16.9114    7.0205 N   0  0  0  0  0  0  0  0  0  0  0  0
   19.4686  -19.2016    7.7858 C   0  0  0  0  0  0  0  0  0  0  0  0
   18.2276  -19.3236    7.7531 O   0  0  0  0  0  0  0  0  0  0  0  0
   20.2544  -20.3277    7.8944 O   0  0  0  0  0  0  0  0  0  0  0  0
  2  1  1  1
  2  3  1  0
  4  2  1  0
  4  5  2  0
  6  7  1  0
  7  8  1  0
  8 10  1  0
  8  9  1  1
 10 11  1  6
 10 12  1  0
 11  4  1  0
 12 19  1  0
 13 12  2  0
 15 14  1  1
 15 16  1  0
 17 15  1  0
 18 17  1  1
 19 18  1  0
 20 22  1  0
 20 18  1  0
 21 20  2  0
M  END
$$$$
