AIL.pdb
     RDKit          3D

 22 21  0  0  1  0  0  0  0  0999 V2000
   11.9469  -12.6239  -12.9529 C   0  0  0  0  0  0  0  0  0  0  0  0
   13.1493  -12.8676  -13.8145 C   0  0  2  0  0  0  0  0  0  0  0  0
   13.4013  -14.2685  -14.0566 N   0  0  0  0  0  0  0  0  0  0  0  0
   14.3168  -12.1970  -13.1703 C   0  0  0  0  0  0  0  0  0  0  0  0
   14.8228  -12.7882  -12.1799 O   0  0  0  0  0  0  0  0  0  0  0  0
   19.3647   -9.2886  -14.3235 C   0  0  0  0  0  0  0  0  0  0  0  0
   18.2905   -9.4806  -13.2649 C   0  0  0  0  0  0  0  0  0  0  0  0
   17.1184  -10.1414  -13.9430 C   0  0  2  0  0  0  0  0  0  0  0  0
   16.7166   -9.3729  -15.1571 C   0  0  0  0  0  0  0  0  0  0  0  0
   15.9676  -10.3861  -12.9930 C   0  0  2  0  0  0  0  0  0  0  0  0
   14.8283  -10.9621  -13.6470 N   0  0  0  0  0  0  0  0  0  0  0  0
   15.5517   -9.0797  -12.4092 C   0  0  0  0  0  0  0  0  0  0  0  0
   14.7878   -8.2989  -13.0293 O   0  0  0  0  0  0  0  0  0  0  0  0
   13.1869   -6.9878   -7.6862 C   0  0  0  0  0  0  0  0  0  0  0  0
   14.4102   -6.5864   -8.5209 C   0  0  1  0  0  0  0  0  0  0  0  0
   15.4569   -6.1301   -7.5284 C   0  0  0  0  0  0  0  0  0  0  0  0
   14.8388   -7.8249   -9.2478 C   0  0  0  0  0  0  0  0  0  0  0  0
   15.6821   -7.4710  -10.4570 C   0  0  2  0  0  0  0  0  0  0  0  0
   16.0203   -8.7097  -11.1413 N   0  0  0  0  0  0  0  0  0  0  0  0
   16.8840   -6.7056  -10.0842 C   0  0  0  0  0  0  0  0  0  0  0  0
   17.9110   -7.2886   -9.6825 O   0  0  0  0  0  0  0  0  0  0  0  0
   16.8815   -5.3313  -10.1774 O   0  0  0  0  0  0  0  0  0  0  0  0
  2  1  1  1
  2  3  1  0
  4  2  1  0
  4  5  2  0
  6  7  1  0
  7  8  1  0
  8 10  1  0
  8  9  1  6
 10 11  1  6
 10 12  1  0
 11  4  1  0
 12 19  1  0
 13 12  2  0
 15 14  1  1
 15 16  1  0
 17 15  1  0
 18 17  1  1
 19 18  1  0
 20 22  1  0
 20 18  1  0
 21 20  2  0
M  END
$$$$
