AIL.pdb
     RDKit          3D

 22 21  0  0  1  0  0  0  0  0999 V2000
   22.0257  -18.4539  -15.4757 C   0  0  0  0  0  0  0  0  0  0  0  0
   22.7691  -19.4286  -16.3388 C   0  0  2  0  0  0  0  0  0  0  0  0
   21.9016  -20.3492  -17.0347 N   0  0  0  0  0  0  0  0  0  0  0  0
   23.7575  -20.1412  -15.4769 C   0  0  0  0  0  0  0  0  0  0  0  0
   23.3529  -21.1954  -14.9189 O   0  0  0  0  0  0  0  0  0  0  0  0
   29.2079  -20.2539  -16.3537 C   0  0  0  0  0  0  0  0  0  0  0  0
   27.7597  -20.6388  -16.0971 C   0  0  0  0  0  0  0  0  0  0  0  0
   27.4110  -20.1433  -14.7176 C   0  0  2  0  0  0  0  0  0  0  0  0
   28.3257  -20.7412  -13.7017 C   0  0  0  0  0  0  0  0  0  0  0  0
   25.9495  -20.3459  -14.3862 C   0  0  2  0  0  0  0  0  0  0  0  0
   25.0796  -19.6580  -15.2959 N   0  0  0  0  0  0  0  0  0  0  0  0
   25.6978  -19.8139  -13.0173 C   0  0  0  0  0  0  0  0  0  0  0  0
   25.9109  -18.6089  -12.7337 O   0  0  0  0  0  0  0  0  0  0  0  0
   21.3232  -21.2858  -10.7354 C   0  0  0  0  0  0  0  0  0  0  0  0
   22.5805  -20.5367  -11.1963 C   0  0  1  0  0  0  0  0  0  0  0  0
   22.2280  -19.0664  -11.1465 C   0  0  0  0  0  0  0  0  0  0  0  0
   23.6531  -20.8829  -10.2085 C   0  0  0  0  0  0  0  0  0  0  0  0
   24.9837  -20.2946  -10.6351 C   0  0  2  0  0  0  0  0  0  0  0  0
   25.2130  -20.6724  -12.0213 N   0  0  0  0  0  0  0  0  0  0  0  0
   26.0842  -20.7317   -9.7592 C   0  0  0  0  0  0  0  0  0  0  0  0
   26.2124  -20.2574   -8.6127 O   0  0  0  0  0  0  0  0  0  0  0  0
   26.9852  -21.6740  -10.2038 O   0  0  0  0  0  0  0  0  0  0  0  0
  2  1  1  1
  2  3  1  0
  4  2  1  0
  4  5  2  0
  6  7  1  0
  7  8  1  0
  8 10  1  0
  8  9  1  1
 10 11  1  6
 10 12  1  0
 11  4  1  0
 12 19  1  0
 13 12  2  0
 15 14  1  1
 15 16  1  0
 17 15  1  0
 18 17  1  1
 19 18  1  0
 20 22  1  0
 20 18  1  0
 21 20  2  0
M  END
$$$$
