AIL.pdb
     RDKit          3D

 22 21  0  0  1  0  0  0  0  0999 V2000
   30.1770  -20.2725  -11.5395 C   0  0  0  0  0  0  0  0  0  0  0  0
   30.5549  -21.0919  -10.3422 C   0  0  2  0  0  0  0  0  0  0  0  0
   31.2040  -22.3351  -10.6853 N   0  0  0  0  0  0  0  0  0  0  0  0
   29.3208  -21.3150   -9.5329 C   0  0  0  0  0  0  0  0  0  0  0  0
   28.7522  -22.4293   -9.6789 O   0  0  0  0  0  0  0  0  0  0  0  0
   28.5739  -19.4050   -4.4728 C   0  0  0  0  0  0  0  0  0  0  0  0
   28.7404  -20.1805   -5.7698 C   0  0  0  0  0  0  0  0  0  0  0  0
   27.5234  -19.8958   -6.6114 C   0  0  2  0  0  0  0  0  0  0  0  0
   26.2785  -20.2144   -5.8532 C   0  0  0  0  0  0  0  0  0  0  0  0
   27.5837  -20.5792   -7.9591 C   0  0  2  0  0  0  0  0  0  0  0  0
   28.8161  -20.3268   -8.6483 N   0  0  0  0  0  0  0  0  0  0  0  0
   26.4700  -20.0597   -8.8018 C   0  0  0  0  0  0  0  0  0  0  0  0
   26.2160  -18.8312   -8.8667 O   0  0  0  0  0  0  0  0  0  0  0  0
   26.2056  -22.4230  -13.4012 C   0  0  0  0  0  0  0  0  0  0  0  0
   26.1502  -21.3778  -12.2793 C   0  0  1  0  0  0  0  0  0  0  0  0
   26.3924  -20.0416  -12.9461 C   0  0  0  0  0  0  0  0  0  0  0  0
   24.7709  -21.4660  -11.7001 C   0  0  0  0  0  0  0  0  0  0  0  0
   24.6444  -20.5742  -10.4806 C   0  0  2  0  0  0  0  0  0  0  0  0
   25.6862  -20.9570   -9.5398 N   0  0  0  0  0  0  0  0  0  0  0  0
   23.3037  -20.6562   -9.8761 C   0  0  0  0  0  0  0  0  0  0  0  0
   22.3131  -20.1669  -10.4550 O   0  0  0  0  0  0  0  0  0  0  0  0
   23.1342  -21.2784   -8.6589 O   0  0  0  0  0  0  0  0  0  0  0  0
  2  1  1  6
  2  3  1  0
  4  2  1  0
  4  5  2  0
  6  7  1  0
  7  8  1  0
  8 10  1  0
  8  9  1  1
 10 11  1  6
 10 12  1  0
 11  4  1  0
 12 19  1  0
 13 12  2  0
 15 14  1  6
 15 16  1  0
 17 15  1  0
 18 17  1  6
 19 18  1  0
 20 22  1  0
 20 18  1  0
 21 20  2  0
M  END
$$$$
