AIL.pdb
     RDKit          3D

 22 21  0  0  1  0  0  0  0  0999 V2000
   28.6924  -17.9404  -14.6006 C   0  0  0  0  0  0  0  0  0  0  0  0
   27.4495  -18.6043  -15.1125 C   0  0  2  0  0  0  0  0  0  0  0  0
   26.8204  -17.8798  -16.1913 N   0  0  0  0  0  0  0  0  0  0  0  0
   26.5237  -18.7940  -13.9573 C   0  0  0  0  0  0  0  0  0  0  0  0
   25.9020  -17.7705  -13.5670 O   0  0  0  0  0  0  0  0  0  0  0  0
   22.5114  -21.5539  -14.6217 C   0  0  0  0  0  0  0  0  0  0  0  0
   23.5838  -20.5678  -14.1869 C   0  0  0  0  0  0  0  0  0  0  0  0
   24.1761  -21.0985  -12.9072 C   0  0  2  0  0  0  0  0  0  0  0  0
   23.1046  -21.3417  -11.8977 C   0  0  0  0  0  0  0  0  0  0  0  0
   25.2914  -20.2221  -12.3830 C   0  0  2  0  0  0  0  0  0  0  0  0
   26.3531  -20.0571  -13.3332 N   0  0  0  0  0  0  0  0  0  0  0  0
   25.8603  -20.8614  -11.1632 C   0  0  0  0  0  0  0  0  0  0  0  0
   26.4850  -21.9495  -11.2249 O   0  0  0  0  0  0  0  0  0  0  0  0
   28.0956  -18.3985   -7.0013 C   0  0  0  0  0  0  0  0  0  0  0  0
   27.6712  -19.4318   -8.0531 C   0  0  1  0  0  0  0  0  0  0  0  0
   28.7165  -20.5245   -8.0055 C   0  0  0  0  0  0  0  0  0  0  0  0
   26.3264  -19.9326   -7.6213 C   0  0  0  0  0  0  0  0  0  0  0  0
   25.7717  -20.9168   -8.6324 C   0  0  2  0  0  0  0  0  0  0  0  0
   25.6977  -20.2394   -9.9179 N   0  0  0  0  0  0  0  0  0  0  0  0
   24.4628  -21.4510   -8.2188 C   0  0  0  0  0  0  0  0  0  0  0  0
   23.4123  -21.0524   -8.7606 O   0  0  0  0  0  0  0  0  0  0  0  0
   24.3901  -22.4009   -7.2239 O   0  0  0  0  0  0  0  0  0  0  0  0
  2  1  1  1
  2  3  1  0
  4  2  1  0
  4  5  2  0
  6  7  1  0
  7  8  1  0
  8 10  1  0
  8  9  1  1
 10 11  1  6
 10 12  1  0
 11  4  1  0
 12 19  1  0
 13 12  2  0
 15 14  1  1
 15 16  1  0
 17 15  1  0
 18 17  1  1
 19 18  1  0
 20 22  1  0
 20 18  1  0
 21 20  2  0
M  END
$$$$
