AIL.pdb
     RDKit          3D

 22 21  0  0  1  0  0  0  0  0999 V2000
   27.6523  -18.6531  -14.9778 C   0  0  0  0  0  0  0  0  0  0  0  0
   28.1605  -19.8882  -14.2966 C   0  0  2  0  0  0  0  0  0  0  0  0
   28.8277  -20.8001  -15.1955 N   0  0  0  0  0  0  0  0  0  0  0  0
   27.0077  -20.5356  -13.6041 C   0  0  0  0  0  0  0  0  0  0  0  0
   26.5171  -21.5499  -14.1672 O   0  0  0  0  0  0  0  0  0  0  0  0
   26.5439  -20.2944   -8.2099 C   0  0  0  0  0  0  0  0  0  0  0  0
   26.5332  -20.9552   -9.5791 C   0  0  0  0  0  0  0  0  0  0  0  0
   25.2931  -20.4764  -10.2884 C   0  0  2  0  0  0  0  0  0  0  0  0
   24.0745  -21.0776   -9.6724 C   0  0  0  0  0  0  0  0  0  0  0  0
   25.3658  -20.6934  -11.7833 C   0  0  2  0  0  0  0  0  0  0  0  0
   26.4928  -20.0363  -12.3796 N   0  0  0  0  0  0  0  0  0  0  0  0
   24.1290  -20.1382  -12.4014 C   0  0  0  0  0  0  0  0  0  0  0  0
   23.8599  -18.9127  -12.3407 O   0  0  0  0  0  0  0  0  0  0  0  0
   21.1825  -19.3045  -16.4421 C   0  0  0  0  0  0  0  0  0  0  0  0
   20.9791  -20.7685  -16.0304 C   0  0  1  0  0  0  0  0  0  0  0  0
   20.9158  -21.5564  -17.3203 C   0  0  0  0  0  0  0  0  0  0  0  0
   22.1798  -21.1387  -15.2137 C   0  0  0  0  0  0  0  0  0  0  0  0
   22.0703  -20.5700  -13.8126 C   0  0  2  0  0  0  0  0  0  0  0  0
   23.2436  -20.9976  -13.0660 N   0  0  0  0  0  0  0  0  0  0  0  0
   20.8203  -20.9789  -13.1494 C   0  0  0  0  0  0  0  0  0  0  0  0
   20.7283  -22.0926  -12.5951 O   0  0  0  0  0  0  0  0  0  0  0  0
   19.7372  -20.1280  -13.1369 O   0  0  0  0  0  0  0  0  0  0  0  0
  2  1  1  6
  2  3  1  0
  4  2  1  0
  4  5  2  0
  6  7  1  0
  7  8  1  0
  8 10  1  0
  8  9  1  1
 10 11  1  6
 10 12  1  0
 11  4  1  0
 12 19  1  0
 13 12  2  0
 15 14  1  6
 15 16  1  0
 17 15  1  0
 18 17  1  6
 19 18  1  0
 20 22  1  0
 20 18  1  0
 21 20  2  0
M  END
$$$$
