AIL.pdb
     RDKit          3D

 22 21  0  0  1  0  0  0  0  0999 V2000
   23.3951  -17.8849  -15.7708 C   0  0  0  0  0  0  0  0  0  0  0  0
   24.6375  -18.4882  -16.3542 C   0  0  2  0  0  0  0  0  0  0  0  0
   24.4317  -19.0592  -17.6642 N   0  0  0  0  0  0  0  0  0  0  0  0
   25.1545  -19.4976  -15.3838 C   0  0  0  0  0  0  0  0  0  0  0  0
   24.6150  -20.6351  -15.4219 O   0  0  0  0  0  0  0  0  0  0  0  0
   30.4019  -19.9907  -14.2084 C   0  0  0  0  0  0  0  0  0  0  0  0
   28.9468  -20.2085  -14.5915 C   0  0  0  0  0  0  0  0  0  0  0  0
   28.1423  -20.1390  -13.3194 C   0  0  2  0  0  0  0  0  0  0  0  0
   28.6188  -21.1625  -12.3440 C   0  0  0  0  0  0  0  0  0  0  0  0
   26.6539  -20.2170  -13.5755 C   0  0  2  0  0  0  0  0  0  0  0  0
   26.1959  -19.1929  -14.4692 N   0  0  0  0  0  0  0  0  0  0  0  0
   25.9423  -20.0474  -12.2774 C   0  0  0  0  0  0  0  0  0  0  0  0
   25.8910  -18.9333  -11.6994 O   0  0  0  0  0  0  0  0  0  0  0  0
   26.7074  -19.5943   -7.9116 C   0  0  0  0  0  0  0  0  0  0  0  0
   26.2072  -20.6734   -8.8810 C   0  0  1  0  0  0  0  0  0  0  0  0
   25.8565  -21.8695   -8.0237 C   0  0  0  0  0  0  0  0  0  0  0  0
   24.9964  -20.0980   -9.5509 C   0  0  0  0  0  0  0  0  0  0  0  0
   24.4143  -21.0848  -10.5438 C   0  0  2  0  0  0  0  0  0  0  0  0
   25.3151  -21.1516  -11.6845 N   0  0  0  0  0  0  0  0  0  0  0  0
   23.0464  -20.7166  -10.9472 C   0  0  0  0  0  0  0  0  0  0  0  0
   22.1156  -20.7173  -10.1168 O   0  0  0  0  0  0  0  0  0  0  0  0
   22.7845  -20.3667  -12.2535 O   0  0  0  0  0  0  0  0  0  0  0  0
  2  1  1  1
  2  3  1  0
  4  2  1  0
  4  5  2  0
  6  7  1  0
  7  8  1  0
  8 10  1  0
  8  9  1  1
 10 11  1  6
 10 12  1  0
 11  4  1  0
 12 19  1  0
 13 12  2  0
 15 14  1  1
 15 16  1  0
 17 15  1  0
 18 17  1  1
 19 18  1  0
 20 22  1  0
 20 18  1  0
 21 20  2  0
M  END
$$$$
