AIL.pdb
     RDKit          3D

 22 21  0  0  1  0  0  0  0  0999 V2000
   21.4600  -19.1422  -10.9862 C   0  0  0  0  0  0  0  0  0  0  0  0
   22.1044  -20.2490  -11.7656 C   0  0  2  0  0  0  0  0  0  0  0  0
   21.1987  -21.3305  -12.0729 N   0  0  0  0  0  0  0  0  0  0  0  0
   23.2910  -20.7213  -10.9932 C   0  0  0  0  0  0  0  0  0  0  0  0
   23.0667  -21.5706  -10.0905 O   0  0  0  0  0  0  0  0  0  0  0  0
   28.1030  -21.6352  -13.4070 C   0  0  0  0  0  0  0  0  0  0  0  0
   26.8035  -21.7308  -12.6236 C   0  0  0  0  0  0  0  0  0  0  0  0
   26.9640  -20.8676  -11.3991 C   0  0  2  0  0  0  0  0  0  0  0  0
   28.1676  -21.2834  -10.6216 C   0  0  0  0  0  0  0  0  0  0  0  0
   25.7071  -20.8215  -10.5595 C   0  0  2  0  0  0  0  0  0  0  0  0
   24.5990  -20.2403  -11.2608 N   0  0  0  0  0  0  0  0  0  0  0  0
   25.9759  -19.9894   -9.3529 C   0  0  0  0  0  0  0  0  0  0  0  0
   25.8324  -18.7417   -9.3727 O   0  0  0  0  0  0  0  0  0  0  0  0
   27.9325  -21.4617   -3.6880 C   0  0  0  0  0  0  0  0  0  0  0  0
   27.6974  -20.3214   -4.6874 C   0  0  1  0  0  0  0  0  0  0  0  0
   29.0686  -19.7810   -5.0289 C   0  0  0  0  0  0  0  0  0  0  0  0
   27.0357  -20.9456   -5.8783 C   0  0  0  0  0  0  0  0  0  0  0  0
   26.7686  -19.9056   -6.9486 C   0  0  2  0  0  0  0  0  0  0  0  0
   26.3981  -20.6075   -8.1681 N   0  0  0  0  0  0  0  0  0  0  0  0
   27.9276  -19.0207   -7.1567 C   0  0  0  0  0  0  0  0  0  0  0  0
   28.8715  -19.3703   -7.8934 O   0  0  0  0  0  0  0  0  0  0  0  0
   27.9766  -17.7927   -6.5347 O   0  0  0  0  0  0  0  0  0  0  0  0
  2  1  1  1
  2  3  1  0
  4  2  1  0
  4  5  2  0
  6  7  1  0
  7  8  1  0
  8 10  1  0
  8  9  1  1
 10 11  1  6
 10 12  1  0
 11  4  1  0
 12 19  1  0
 13 12  2  0
 15 14  1  1
 15 16  1  0
 17 15  1  0
 18 17  1  1
 19 18  1  0
 20 22  1  0
 20 18  1  0
 21 20  2  0
M  END
$$$$
