AIL.pdb
     RDKit          3D

 22 21  0  0  1  0  0  0  0  0999 V2000
   23.1073  -23.1901  -17.6939 C   0  0  0  0  0  0  0  0  0  0  0  0
   24.3069  -22.4356  -18.1829 C   0  0  2  0  0  0  0  0  0  0  0  0
   25.1315  -23.2019  -19.0869 N   0  0  0  0  0  0  0  0  0  0  0  0
   25.0740  -21.9731  -16.9890 C   0  0  0  0  0  0  0  0  0  0  0  0
   25.8803  -22.8016  -16.4890 O   0  0  0  0  0  0  0  0  0  0  0  0
   27.3545  -17.1110  -16.7166 C   0  0  0  0  0  0  0  0  0  0  0  0
   27.0610  -18.6017  -16.6604 C   0  0  0  0  0  0  0  0  0  0  0  0
   26.1839  -18.8318  -15.4570 C   0  0  2  0  0  0  0  0  0  0  0  0
   26.8546  -18.3359  -14.2200 C   0  0  0  0  0  0  0  0  0  0  0  0
   25.7281  -20.2693  -15.3442 C   0  0  2  0  0  0  0  0  0  0  0  0
   24.9044  -20.6725  -16.4471 N   0  0  0  0  0  0  0  0  0  0  0  0
   24.9286  -20.4142  -14.0952 C   0  0  0  0  0  0  0  0  0  0  0  0
   23.7108  -20.1084  -14.0581 O   0  0  0  0  0  0  0  0  0  0  0  0
   26.6456  -21.0830   -8.2477 C   0  0  0  0  0  0  0  0  0  0  0  0
   25.4466  -21.0072   -9.2022 C   0  0  1  0  0  0  0  0  0  0  0  0
   24.7886  -19.6714   -8.9348 C   0  0  0  0  0  0  0  0  0  0  0  0
   26.0156  -21.0770  -10.5868 C   0  0  0  0  0  0  0  0  0  0  0  0
   24.9150  -20.9696  -11.6239 C   0  0  2  0  0  0  0  0  0  0  0  0
   25.5439  -20.9017  -12.9343 N   0  0  0  0  0  0  0  0  0  0  0  0
   24.0379  -19.8124  -11.3769 C   0  0  0  0  0  0  0  0  0  0  0  0
   24.4585  -18.6490  -11.5362 O   0  0  0  0  0  0  0  0  0  0  0  0
   22.7381  -20.0092  -10.9654 O   0  0  0  0  0  0  0  0  0  0  0  0
  2  1  1  1
  2  3  1  0
  4  2  1  0
  4  5  2  0
  6  7  1  0
  7  8  1  0
  8 10  1  0
  8  9  1  1
 10 11  1  6
 10 12  1  0
 11  4  1  0
 12 19  1  0
 13 12  2  0
 15 14  1  1
 15 16  1  0
 17 15  1  0
 18 17  1  1
 19 18  1  0
 20 22  1  0
 20 18  1  0
 21 20  2  0
M  END
$$$$
