AIL.pdb
     RDKit          3D

 22 21  0  0  1  0  0  0  0  0999 V2000
   27.7968  -23.1028  -17.2606 C   0  0  0  0  0  0  0  0  0  0  0  0
   27.4292  -23.8612  -16.0207 C   0  0  2  0  0  0  0  0  0  0  0  0
   27.3743  -25.2897  -16.2227 N   0  0  0  0  0  0  0  0  0  0  0  0
   26.1302  -23.3208  -15.5226 C   0  0  0  0  0  0  0  0  0  0  0  0
   25.0948  -23.9467  -15.8729 O   0  0  0  0  0  0  0  0  0  0  0  0
   25.6921  -21.2378  -10.5644 C   0  0  0  0  0  0  0  0  0  0  0  0
   25.4131  -22.0540  -11.8164 C   0  0  0  0  0  0  0  0  0  0  0  0
   24.8634  -21.1029  -12.8476 C   0  0  2  0  0  0  0  0  0  0  0  0
   23.5609  -20.5352  -12.3923 C   0  0  0  0  0  0  0  0  0  0  0  0
   24.7854  -21.7278  -14.2225 C   0  0  2  0  0  0  0  0  0  0  0  0
   26.0649  -22.1661  -14.7001 N   0  0  0  0  0  0  0  0  0  0  0  0
   24.2629  -20.7083  -15.1753 C   0  0  0  0  0  0  0  0  0  0  0  0
   24.9534  -19.7159  -15.5161 O   0  0  0  0  0  0  0  0  0  0  0  0
   21.9089  -21.5144  -19.9436 C   0  0  0  0  0  0  0  0  0  0  0  0
   21.9682  -21.5303  -18.4104 C   0  0  1  0  0  0  0  0  0  0  0  0
   22.7812  -22.7512  -18.0402 C   0  0  0  0  0  0  0  0  0  0  0  0
   22.6596  -20.2623  -18.0105 C   0  0  0  0  0  0  0  0  0  0  0  0
   22.3182  -19.8948  -16.5798 C   0  0  2  0  0  0  0  0  0  0  0  0
   22.9739  -20.8553  -15.7053 N   0  0  0  0  0  0  0  0  0  0  0  0
   20.8631  -19.8539  -16.3548 C   0  0  0  0  0  0  0  0  0  0  0  0
   20.1529  -19.0068  -16.9327 O   0  0  0  0  0  0  0  0  0  0  0  0
   20.2732  -20.7575  -15.4987 O   0  0  0  0  0  0  0  0  0  0  0  0
  2  1  1  6
  2  3  1  0
  4  2  1  0
  4  5  2  0
  6  7  1  0
  7  8  1  0
  8 10  1  0
  8  9  1  1
 10 11  1  6
 10 12  1  0
 11  4  1  0
 12 19  1  0
 13 12  2  0
 15 14  1  6
 15 16  1  0
 17 15  1  0
 18 17  1  6
 19 18  1  0
 20 22  1  0
 20 18  1  0
 21 20  2  0
M  END
$$$$
