AIL.pdb
     RDKit          3D

 22 21  0  0  1  0  0  0  0  0999 V2000
   19.4263  -30.2992  -10.1289 C   0  0  0  0  0  0  0  0  0  0  0  0
   20.0212  -29.1683  -10.9131 C   0  0  2  0  0  0  0  0  0  0  0  0
   21.4045  -29.3855  -11.2649 N   0  0  0  0  0  0  0  0  0  0  0  0
   19.8400  -27.9170  -10.1200 C   0  0  0  0  0  0  0  0  0  0  0  0
   20.8146  -27.5645   -9.4043 O   0  0  0  0  0  0  0  0  0  0  0  0
   18.7130  -24.2936  -12.7562 C   0  0  0  0  0  0  0  0  0  0  0  0
   19.3853  -24.5400  -11.4150 C   0  0  0  0  0  0  0  0  0  0  0  0
   18.2872  -24.7521  -10.4054 C   0  0  2  0  0  0  0  0  0  0  0  0
   17.9957  -23.4830   -9.6770 C   0  0  0  0  0  0  0  0  0  0  0  0
   18.5752  -25.9111   -9.4777 C   0  0  2  0  0  0  0  0  0  0  0  0
   18.6368  -27.1662  -10.1693 N   0  0  0  0  0  0  0  0  0  0  0  0
   17.4796  -25.9934   -8.4711 C   0  0  0  0  0  0  0  0  0  0  0  0
   16.3145  -26.3313   -8.7974 O   0  0  0  0  0  0  0  0  0  0  0  0
   18.9639  -26.8068   -3.1943 C   0  0  0  0  0  0  0  0  0  0  0  0
   18.3431  -26.8842   -4.5954 C   0  0  1  0  0  0  0  0  0  0  0  0
   17.5025  -28.1419   -4.6068 C   0  0  0  0  0  0  0  0  0  0  0  0
   17.5007  -25.6535   -4.7426 C   0  0  0  0  0  0  0  0  0  0  0  0
   16.7589  -25.6676   -6.0647 C   0  0  2  0  0  0  0  0  0  0  0  0
   17.7496  -25.6882   -7.1302 N   0  0  0  0  0  0  0  0  0  0  0  0
   15.8411  -24.5227   -6.1925 C   0  0  0  0  0  0  0  0  0  0  0  0
   16.2066  -23.4738   -6.7602 O   0  0  0  0  0  0  0  0  0  0  0  0
   14.5643  -24.6036   -5.6821 O   0  0  0  0  0  0  0  0  0  0  0  0
  2  1  1  1
  2  3  1  0
  4  2  1  0
  4  5  2  0
  6  7  1  0
  7  8  1  0
  8 10  1  0
  8  9  1  1
 10 11  1  6
 10 12  1  0
 11  4  1  0
 12 19  1  0
 13 12  2  0
 15 14  1  1
 15 16  1  0
 17 15  1  0
 18 17  1  1
 19 18  1  0
 20 22  1  0
 20 18  1  0
 21 20  2  0
M  END
$$$$
