SWS.pdb
     RDKit          3D

 27 28  0  0  1  0  0  0  0  0999 V2000
   26.5163  -17.2973  -17.6287 O   0  0  0  0  0  0  0  0  0  0  0  0
   27.7014  -17.1081  -16.9022 C   0  0  0  0  0  0  0  0  0  0  0  0
   28.3361  -18.4627  -16.7220 C   0  0  2  0  0  0  0  0  0  0  0  0
   28.6916  -19.0947  -17.9517 N   0  0  0  0  0  0  0  0  0  0  0  0
   27.5213  -19.3606  -15.8708 C   0  0  0  0  0  0  0  0  0  0  0  0
   26.9504  -20.3611  -16.4100 O   0  0  0  0  0  0  0  0  0  0  0  0
   27.3323  -19.1808  -14.4887 N   0  0  0  0  0  0  0  0  0  0  0  0
   26.4991  -20.0902  -13.6622 C   0  0  1  0  0  0  0  0  0  0  0  0
   27.0118  -19.9223  -12.2869 C   0  0  0  0  0  0  0  0  0  0  0  0
   26.3057  -20.6010  -11.1941 C   0  0  0  0  0  0  0  0  0  0  0  0
   25.5449  -21.7520  -11.2552 C   0  0  0  0  0  0  0  0  0  0  0  0
   25.0583  -22.0480  -10.0371 N   0  0  0  0  0  0  0  0  0  0  0  0
   25.4796  -21.1171   -9.1629 C   0  0  0  0  0  0  0  0  0  0  0  0
   25.2675  -20.9865   -7.8059 C   0  0  0  0  0  0  0  0  0  0  0  0
   25.8452  -19.9278   -7.1425 C   0  0  0  0  0  0  0  0  0  0  0  0
   26.6334  -18.9926   -7.8100 C   0  0  0  0  0  0  0  0  0  0  0  0
   26.8127  -19.1716   -9.1722 C   0  0  0  0  0  0  0  0  0  0  0  0
   26.2520  -20.2178   -9.8717 C   0  0  0  0  0  0  0  0  0  0  0  0
   25.0865  -19.8849  -13.9186 C   0  0  0  0  0  0  0  0  0  0  0  0
   24.6107  -18.7068  -14.0659 O   0  0  0  0  0  0  0  0  0  0  0  0
   20.7544  -21.8370  -14.9455 O   0  0  0  0  0  0  0  0  0  0  0  0
   22.1079  -21.9724  -14.7611 C   0  0  0  0  0  0  0  0  0  0  0  0
   22.7444  -20.6462  -14.2623 C   0  0  2  0  0  0  0  0  0  0  0  0
   24.1533  -20.9513  -14.0312 N   0  0  0  0  0  0  0  0  0  0  0  0
   22.0450  -20.1884  -13.0554 C   0  0  0  0  0  0  0  0  0  0  0  0
   20.9790  -19.2864  -13.1346 O   0  0  0  0  0  0  0  0  0  0  0  0
   22.3503  -20.5666  -11.9028 O   0  0  0  0  0  0  0  0  0  0  0  0
  2  1  1  0
  3  2  1  0
  3  4  1  6
  5  3  1  0
  6  5  2  0
  7  5  1  0
  8  7  1  0
  9 10  1  0
  8  9  1  1
 10 18  1  0
 11 12  1  0
 11 10  2  0
 12 13  1  0
 13 18  2  0
 13 14  1  0
 14 15  2  0
 15 16  1  0
 17 16  2  0
 18 17  1  0
 19 24  1  0
 19  8  1  0
 20 19  2  0
 22 21  1  0
 23 24  1  0
 23 22  1  1
 25 23  1  0
 26 25  1  0
 27 25  2  0
M  END
$$$$
