SWS.pdb
     RDKit          3D

 27 28  0  0  1  0  0  0  0  0999 V2000
   16.8236  -11.6981  -16.2028 O   0  0  0  0  0  0  0  0  0  0  0  0
   17.7528  -10.8522  -15.5790 C   0  0  0  0  0  0  0  0  0  0  0  0
   19.1249  -11.3992  -15.8763 C   0  0  2  0  0  0  0  0  0  0  0  0
   19.3149  -12.7403  -15.4252 N   0  0  0  0  0  0  0  0  0  0  0  0
   20.2059  -10.5096  -15.3916 C   0  0  0  0  0  0  0  0  0  0  0  0
   20.4155  -10.4296  -14.1397 O   0  0  0  0  0  0  0  0  0  0  0  0
   21.0277   -9.7366  -16.2314 N   0  0  0  0  0  0  0  0  0  0  0  0
   22.0746   -8.8191  -15.7153 C   0  0  1  0  0  0  0  0  0  0  0  0
   23.2937   -9.1802  -16.4676 C   0  0  0  0  0  0  0  0  0  0  0  0
   24.0901  -10.3188  -15.9956 C   0  0  0  0  0  0  0  0  0  0  0  0
   23.6452  -11.4811  -15.3969 C   0  0  0  0  0  0  0  0  0  0  0  0
   24.6886  -12.2769  -15.1035 N   0  0  0  0  0  0  0  0  0  0  0  0
   25.8223  -11.6691  -15.4950 C   0  0  0  0  0  0  0  0  0  0  0  0
   27.1386  -12.0776  -15.4300 C   0  0  0  0  0  0  0  0  0  0  0  0
   28.1163  -11.2495  -15.9328 C   0  0  0  0  0  0  0  0  0  0  0  0
   27.8049  -10.0162  -16.5013 C   0  0  0  0  0  0  0  0  0  0  0  0
   26.4676   -9.6556  -16.5400 C   0  0  0  0  0  0  0  0  0  0  0  0
   25.4601  -10.4563  -16.0478 C   0  0  0  0  0  0  0  0  0  0  0  0
   21.6186   -7.4424  -15.7295 C   0  0  0  0  0  0  0  0  0  0  0  0
   21.0224   -6.9591  -16.7527 O   0  0  0  0  0  0  0  0  0  0  0  0
   21.0791   -3.2521  -13.3038 O   0  0  0  0  0  0  0  0  0  0  0  0
   21.5206   -4.5514  -13.3390 C   0  0  0  0  0  0  0  0  0  0  0  0
   21.3086   -5.1810  -14.7430 C   0  0  2  0  0  0  0  0  0  0  0  0
   21.7885   -6.5554  -14.6318 N   0  0  0  0  0  0  0  0  0  0  0  0
   22.0322   -4.3942  -15.7493 C   0  0  0  0  0  0  0  0  0  0  0  0
   21.3748   -3.4390  -16.5313 O   0  0  0  0  0  0  0  0  0  0  0  0
   23.2569   -4.5240  -15.9684 O   0  0  0  0  0  0  0  0  0  0  0  0
  2  1  1  0
  3  2  1  0
  3  4  1  1
  5  3  1  0
  6  5  2  0
  7  5  1  0
  8  7  1  0
  9 10  1  0
  8  9  1  6
 10 18  1  0
 11 12  1  0
 11 10  2  0
 12 13  1  0
 13 18  2  0
 13 14  1  0
 14 15  2  0
 15 16  1  0
 17 16  2  0
 18 17  1  0
 19 24  1  0
 19  8  1  0
 20 19  2  0
 22 21  1  0
 23 24  1  0
 23 22  1  1
 25 23  1  0
 26 25  1  0
 27 25  2  0
M  END
$$$$
