SWS.pdb
     RDKit          3D

 27 28  0  0  1  0  0  0  0  0999 V2000
   26.9628  -18.8203  -15.4940 O   0  0  0  0  0  0  0  0  0  0  0  0
   28.2534  -18.9274  -14.9545 C   0  0  0  0  0  0  0  0  0  0  0  0
   28.4529  -20.3665  -14.5554 C   0  0  2  0  0  0  0  0  0  0  0  0
   28.3365  -21.2823  -15.6444 N   0  0  0  0  0  0  0  0  0  0  0  0
   27.5861  -20.7647  -13.4219 C   0  0  0  0  0  0  0  0  0  0  0  0
   26.6851  -21.6401  -13.6204 O   0  0  0  0  0  0  0  0  0  0  0  0
   27.6918  -20.2344  -12.1235 N   0  0  0  0  0  0  0  0  0  0  0  0
   26.8071  -20.6507  -11.0063 C   0  0  1  0  0  0  0  0  0  0  0  0
   27.4429  -20.0911   -9.7959 C   0  0  0  0  0  0  0  0  0  0  0  0
   26.8451  -20.3982   -8.4914 C   0  0  0  0  0  0  0  0  0  0  0  0
   25.6283  -20.9971   -8.2305 C   0  0  0  0  0  0  0  0  0  0  0  0
   25.4384  -21.0958   -6.9030 N   0  0  0  0  0  0  0  0  0  0  0  0
   26.5051  -20.5749   -6.2715 C   0  0  0  0  0  0  0  0  0  0  0  0
   26.7941  -20.4566   -4.9276 C   0  0  0  0  0  0  0  0  0  0  0  0
   27.9910  -19.8892   -4.5533 C   0  0  0  0  0  0  0  0  0  0  0  0
   28.9089  -19.4352   -5.4980 C   0  0  0  0  0  0  0  0  0  0  0  0
   28.5675  -19.5781   -6.8333 C   0  0  0  0  0  0  0  0  0  0  0  0
   27.3801  -20.1405   -7.2480 C   0  0  0  0  0  0  0  0  0  0  0  0
   25.4210  -20.3298  -11.2876 C   0  0  0  0  0  0  0  0  0  0  0  0
   25.0758  -19.1428  -11.6163 O   0  0  0  0  0  0  0  0  0  0  0  0
   23.2807  -22.2742  -13.5748 O   0  0  0  0  0  0  0  0  0  0  0  0
   22.4765  -22.0539  -12.4844 C   0  0  0  0  0  0  0  0  0  0  0  0
   23.0202  -20.8923  -11.6082 C   0  0  2  0  0  0  0  0  0  0  0  0
   24.3733  -21.2887  -11.2292 N   0  0  0  0  0  0  0  0  0  0  0  0
   22.1324  -20.6875  -10.4570 C   0  0  0  0  0  0  0  0  0  0  0  0
   20.7973  -20.3090  -10.6308 O   0  0  0  0  0  0  0  0  0  0  0  0
   22.5041  -20.8344   -9.2717 O   0  0  0  0  0  0  0  0  0  0  0  0
  2  1  1  0
  3  2  1  0
  3  4  1  6
  5  3  1  0
  6  5  2  0
  7  5  1  0
  8  7  1  0
  9 10  1  0
  8  9  1  1
 10 18  1  0
 11 12  1  0
 11 10  2  0
 12 13  1  0
 13 18  2  0
 13 14  1  0
 14 15  2  0
 15 16  1  0
 17 16  2  0
 18 17  1  0
 19 24  1  0
 19  8  1  0
 20 19  2  0
 22 21  1  0
 23 24  1  0
 23 22  1  6
 25 23  1  0
 26 25  1  0
 27 25  2  0
M  END
$$$$
