SWS.pdb
     RDKit          3D

 27 28  0  0  1  0  0  0  0  0999 V2000
   26.6515  -21.0770  -17.6493 O   0  0  0  0  0  0  0  0  0  0  0  0
   27.9118  -20.6168  -17.2392 C   0  0  0  0  0  0  0  0  0  0  0  0
   28.4320  -21.5919  -16.2152 C   0  0  2  0  0  0  0  0  0  0  0  0
   28.7527  -22.8728  -16.7580 N   0  0  0  0  0  0  0  0  0  0  0  0
   27.5351  -21.7132  -15.0424 C   0  0  0  0  0  0  0  0  0  0  0  0
   26.9611  -22.8271  -14.8253 O   0  0  0  0  0  0  0  0  0  0  0  0
   27.2705  -20.6673  -14.1399 N   0  0  0  0  0  0  0  0  0  0  0  0
   26.3014  -20.7908  -13.0219 C   0  0  1  0  0  0  0  0  0  0  0  0
   26.8697  -19.9610  -11.9397 C   0  0  0  0  0  0  0  0  0  0  0  0
   27.8063  -20.5893  -11.0009 C   0  0  0  0  0  0  0  0  0  0  0  0
   28.9830  -21.2537  -11.2862 C   0  0  0  0  0  0  0  0  0  0  0  0
   29.5516  -21.6927  -10.1495 N   0  0  0  0  0  0  0  0  0  0  0  0
   28.7778  -21.3342   -9.1099 C   0  0  0  0  0  0  0  0  0  0  0  0
   28.9337  -21.5323   -7.7534 C   0  0  0  0  0  0  0  0  0  0  0  0
   27.9805  -21.0323   -6.8955 C   0  0  0  0  0  0  0  0  0  0  0  0
   26.8697  -20.3358   -7.3670 C   0  0  0  0  0  0  0  0  0  0  0  0
   26.7628  -20.1663   -8.7380 C   0  0  0  0  0  0  0  0  0  0  0  0
   27.6952  -20.6512   -9.6289 C   0  0  0  0  0  0  0  0  0  0  0  0
   24.9468  -20.5330  -13.4713 C   0  0  0  0  0  0  0  0  0  0  0  0
   24.6847  -19.5343  -14.2262 O   0  0  0  0  0  0  0  0  0  0  0  0
   22.0365  -23.3706  -13.4540 O   0  0  0  0  0  0  0  0  0  0  0  0
   21.9638  -22.2857  -14.2919 C   0  0  0  0  0  0  0  0  0  0  0  0
   22.5089  -21.0044  -13.6037 C   0  0  2  0  0  0  0  0  0  0  0  0
   23.8416  -21.3559  -13.1222 N   0  0  0  0  0  0  0  0  0  0  0  0
   21.5943  -20.5953  -12.5307 C   0  0  0  0  0  0  0  0  0  0  0  0
   20.2747  -20.2229  -12.8070 O   0  0  0  0  0  0  0  0  0  0  0  0
   21.9281  -20.5535  -11.3260 O   0  0  0  0  0  0  0  0  0  0  0  0
  2  1  1  0
  3  2  1  0
  3  4  1  6
  5  3  1  0
  6  5  2  0
  7  5  1  0
  8  7  1  0
  9 10  1  0
  8  9  1  1
 10 18  1  0
 11 12  1  0
 11 10  2  0
 12 13  1  0
 13 18  2  0
 13 14  1  0
 14 15  2  0
 15 16  1  0
 17 16  2  0
 18 17  1  0
 19 24  1  0
 19  8  1  0
 20 19  2  0
 22 21  1  0
 23 24  1  0
 23 22  1  1
 25 23  1  0
 26 25  1  0
 27 25  2  0
M  END
$$$$
