SWS.pdb
     RDKit          3D

 27 28  0  0  1  0  0  0  0  0999 V2000
   26.6741  -18.8938  -15.5420 O   0  0  0  0  0  0  0  0  0  0  0  0
   27.9055  -18.8608  -14.8706 C   0  0  0  0  0  0  0  0  0  0  0  0
   28.1836  -20.2575  -14.3784 C   0  0  2  0  0  0  0  0  0  0  0  0
   28.5378  -21.1692  -15.4183 N   0  0  0  0  0  0  0  0  0  0  0  0
   27.0828  -20.7932  -13.5442 C   0  0  0  0  0  0  0  0  0  0  0  0
   26.4735  -21.8388  -13.9354 O   0  0  0  0  0  0  0  0  0  0  0  0
   26.6586  -20.2176  -12.3331 N   0  0  0  0  0  0  0  0  0  0  0  0
   25.5839  -20.8035  -11.4928 C   0  0  1  0  0  0  0  0  0  0  0  0
   25.8894  -20.3474  -10.1213 C   0  0  0  0  0  0  0  0  0  0  0  0
   27.1644  -20.7562   -9.5206 C   0  0  0  0  0  0  0  0  0  0  0  0
   28.1024  -21.6350  -10.0259 C   0  0  0  0  0  0  0  0  0  0  0  0
   29.1335  -21.7505   -9.1705 N   0  0  0  0  0  0  0  0  0  0  0  0
   28.9029  -20.9654   -8.1034 C   0  0  0  0  0  0  0  0  0  0  0  0
   29.6588  -20.7258   -6.9744 C   0  0  0  0  0  0  0  0  0  0  0  0
   29.1827  -19.8433   -6.0316 C   0  0  0  0  0  0  0  0  0  0  0  0
   27.9614  -19.1926   -6.1940 C   0  0  0  0  0  0  0  0  0  0  0  0
   27.2433  -19.4706   -7.3459 C   0  0  0  0  0  0  0  0  0  0  0  0
   27.6857  -20.3470   -8.3126 C   0  0  0  0  0  0  0  0  0  0  0  0
   24.2738  -20.5304  -12.0518 C   0  0  0  0  0  0  0  0  0  0  0  0
   23.8727  -19.3286  -12.2273 O   0  0  0  0  0  0  0  0  0  0  0  0
   21.6812  -23.5508  -13.3292 O   0  0  0  0  0  0  0  0  0  0  0  0
   21.7630  -22.3728  -14.0292 C   0  0  0  0  0  0  0  0  0  0  0  0
   22.1122  -21.1837  -13.0929 C   0  0  2  0  0  0  0  0  0  0  0  0
   23.3669  -21.5524  -12.4439 N   0  0  0  0  0  0  0  0  0  0  0  0
   21.0124  -20.9641  -12.1456 C   0  0  0  0  0  0  0  0  0  0  0  0
   21.1871  -21.1696  -10.7732 O   0  0  0  0  0  0  0  0  0  0  0  0
   19.8723  -20.5876  -12.4963 O   0  0  0  0  0  0  0  0  0  0  0  0
  2  1  1  0
  3  2  1  0
  3  4  1  6
  5  3  1  0
  6  5  2  0
  7  5  1  0
  8  7  1  0
  9 10  1  0
  8  9  1  1
 10 18  1  0
 11 12  1  0
 11 10  2  0
 12 13  1  0
 13 18  2  0
 13 14  1  0
 14 15  2  0
 15 16  1  0
 17 16  2  0
 18 17  1  0
 19 24  1  0
 19  8  1  0
 20 19  2  0
 22 21  1  0
 23 24  1  0
 23 22  1  6
 25 23  1  0
 26 25  1  0
 27 25  2  0
M  END
$$$$
