SWS.pdb
     RDKit          3D

 27 28  0  0  1  0  0  0  0  0999 V2000
   27.5712  -19.7058  -16.6236 O   0  0  0  0  0  0  0  0  0  0  0  0
   26.9640  -19.6276  -15.3613 C   0  0  0  0  0  0  0  0  0  0  0  0
   27.5756  -20.7051  -14.5039 C   0  0  2  0  0  0  0  0  0  0  0  0
   28.0666  -21.8186  -15.2502 N   0  0  0  0  0  0  0  0  0  0  0  0
   26.6714  -21.1430  -13.4151 C   0  0  0  0  0  0  0  0  0  0  0  0
   26.1910  -22.3199  -13.4566 O   0  0  0  0  0  0  0  0  0  0  0  0
   26.3020  -20.3364  -12.3237 N   0  0  0  0  0  0  0  0  0  0  0  0
   25.2535  -20.7278  -11.3482 C   0  0  1  0  0  0  0  0  0  0  0  0
   25.6910  -20.1331  -10.0686 C   0  0  0  0  0  0  0  0  0  0  0  0
   27.0042  -20.5159   -9.5371 C   0  0  0  0  0  0  0  0  0  0  0  0
   27.9905  -21.2595  -10.1548 C   0  0  0  0  0  0  0  0  0  0  0  0
   29.0454  -21.3991   -9.3327 N   0  0  0  0  0  0  0  0  0  0  0  0
   28.7832  -20.7627   -8.1775 C   0  0  0  0  0  0  0  0  0  0  0  0
   29.5446  -20.6025   -7.0381 C   0  0  0  0  0  0  0  0  0  0  0  0
   29.0280  -19.8729   -5.9916 C   0  0  0  0  0  0  0  0  0  0  0  0
   27.7608  -19.2978   -6.0600 C   0  0  0  0  0  0  0  0  0  0  0  0
   27.0394  -19.4906   -7.2271 C   0  0  0  0  0  0  0  0  0  0  0  0
   27.5213  -20.2138   -8.2962 C   0  0  0  0  0  0  0  0  0  0  0  0
   23.9283  -20.4218  -11.8519 C   0  0  0  0  0  0  0  0  0  0  0  0
   23.7738  -19.6971  -12.8945 O   0  0  0  0  0  0  0  0  0  0  0  0
   20.5337  -18.9186  -13.3429 O   0  0  0  0  0  0  0  0  0  0  0  0
   21.6777  -19.3013  -12.6877 C   0  0  0  0  0  0  0  0  0  0  0  0
   21.4479  -20.5966  -11.8618 C   0  0  2  0  0  0  0  0  0  0  0  0
   22.7356  -20.9004  -11.2445 N   0  0  0  0  0  0  0  0  0  0  0  0
   20.9628  -21.6638  -12.7457 C   0  0  0  0  0  0  0  0  0  0  0  0
   21.8423  -22.3865  -13.5583 O   0  0  0  0  0  0  0  0  0  0  0  0
   19.7578  -21.9890  -12.8280 O   0  0  0  0  0  0  0  0  0  0  0  0
  2  1  1  0
  3  2  1  0
  3  4  1  6
  5  3  1  0
  6  5  2  0
  7  5  1  0
  8  7  1  0
  9 10  1  0
  8  9  1  1
 10 18  1  0
 11 12  1  0
 11 10  2  0
 12 13  1  0
 13 18  2  0
 13 14  1  0
 14 15  2  0
 15 16  1  0
 17 16  2  0
 18 17  1  0
 19 24  1  0
 19  8  1  0
 20 19  2  0
 22 21  1  0
 23 24  1  0
 23 22  1  6
 25 23  1  0
 26 25  1  0
 27 25  2  0
M  END
$$$$
