SWS.pdb
     RDKit          3D

 27 28  0  0  1  0  0  0  0  0999 V2000
   27.0306  -18.7710  -15.6142 O   0  0  0  0  0  0  0  0  0  0  0  0
   28.0138  -18.6292  -14.6235 C   0  0  0  0  0  0  0  0  0  0  0  0
   28.3939  -20.0147  -14.1697 C   0  0  2  0  0  0  0  0  0  0  0  0
   28.8692  -20.8508  -15.2248 N   0  0  0  0  0  0  0  0  0  0  0  0
   27.3116  -20.6762  -13.4043 C   0  0  0  0  0  0  0  0  0  0  0  0
   26.8030  -21.7464  -13.8666 O   0  0  0  0  0  0  0  0  0  0  0  0
   26.8000  -20.1961  -12.1853 N   0  0  0  0  0  0  0  0  0  0  0  0
   25.7276  -20.8910  -11.4295 C   0  0  1  0  0  0  0  0  0  0  0  0
   25.9389  -20.4893  -10.0236 C   0  0  0  0  0  0  0  0  0  0  0  0
   27.2034  -20.8593   -9.3775 C   0  0  0  0  0  0  0  0  0  0  0  0
   28.2098  -21.6658   -9.8717 C   0  0  0  0  0  0  0  0  0  0  0  0
   29.2033  -21.7670   -8.9712 N   0  0  0  0  0  0  0  0  0  0  0  0
   28.8805  -21.0433   -7.8848 C   0  0  0  0  0  0  0  0  0  0  0  0
   29.5676  -20.8166   -6.7101 C   0  0  0  0  0  0  0  0  0  0  0  0
   29.0008  -20.0026   -5.7558 C   0  0  0  0  0  0  0  0  0  0  0  0
   27.7559  -19.4081   -5.9517 C   0  0  0  0  0  0  0  0  0  0  0  0
   27.1097  -19.6702   -7.1490 C   0  0  0  0  0  0  0  0  0  0  0  0
   27.6437  -20.4787   -8.1286 C   0  0  0  0  0  0  0  0  0  0  0  0
   24.4300  -20.6711  -12.0387 C   0  0  0  0  0  0  0  0  0  0  0  0
   24.0775  -19.5053  -12.4295 O   0  0  0  0  0  0  0  0  0  0  0  0
   22.7851  -22.7120  -14.7835 O   0  0  0  0  0  0  0  0  0  0  0  0
   21.8564  -22.5861  -13.7804 C   0  0  0  0  0  0  0  0  0  0  0  0
   22.1915  -21.3893  -12.8488 C   0  0  2  0  0  0  0  0  0  0  0  0
   23.4832  -21.7104  -12.2490 N   0  0  0  0  0  0  0  0  0  0  0  0
   21.1194  -21.2205  -11.8601 C   0  0  0  0  0  0  0  0  0  0  0  0
   19.8163  -20.8985  -12.2532 O   0  0  0  0  0  0  0  0  0  0  0  0
   21.2975  -21.3503  -10.6289 O   0  0  0  0  0  0  0  0  0  0  0  0
  2  1  1  0
  3  2  1  0
  3  4  1  6
  5  3  1  0
  6  5  2  0
  7  5  1  0
  8  7  1  0
  9 10  1  0
  8  9  1  1
 10 18  1  0
 11 12  1  0
 11 10  2  0
 12 13  1  0
 13 18  2  0
 13 14  1  0
 14 15  2  0
 15 16  1  0
 17 16  2  0
 18 17  1  0
 19 24  1  0
 19  8  1  0
 20 19  2  0
 22 21  1  0
 23 24  1  0
 23 22  1  6
 25 23  1  0
 26 25  1  0
 27 25  2  0
M  END
$$$$
