SWS.pdb
     RDKit          3D

 27 28  0  0  1  0  0  0  0  0999 V2000
   27.0782  -19.0332  -15.6281 O   0  0  0  0  0  0  0  0  0  0  0  0
   28.3684  -19.0696  -15.0783 C   0  0  0  0  0  0  0  0  0  0  0  0
   28.6225  -20.4848  -14.6281 C   0  0  2  0  0  0  0  0  0  0  0  0
   28.5445  -21.4425  -15.6840 N   0  0  0  0  0  0  0  0  0  0  0  0
   27.7690  -20.8759  -13.4821 C   0  0  0  0  0  0  0  0  0  0  0  0
   26.8526  -21.7377  -13.6694 O   0  0  0  0  0  0  0  0  0  0  0  0
   27.9034  -20.3529  -12.1835 N   0  0  0  0  0  0  0  0  0  0  0  0
   26.9821  -20.7017  -11.0726 C   0  0  1  0  0  0  0  0  0  0  0  0
   27.5699  -20.0557   -9.8811 C   0  0  0  0  0  0  0  0  0  0  0  0
   26.9286  -20.2813   -8.5806 C   0  0  0  0  0  0  0  0  0  0  0  0
   25.6079  -20.5925   -8.3234 C   0  0  0  0  0  0  0  0  0  0  0  0
   25.4121  -20.7119   -6.9984 N   0  0  0  0  0  0  0  0  0  0  0  0
   26.5768  -20.4870   -6.3651 C   0  0  0  0  0  0  0  0  0  0  0  0
   26.8975  -20.5082   -5.0234 C   0  0  0  0  0  0  0  0  0  0  0  0
   28.1972  -20.2554   -4.6473 C   0  0  0  0  0  0  0  0  0  0  0  0
   29.1873  -19.9803   -5.5882 C   0  0  0  0  0  0  0  0  0  0  0  0
   28.8099  -19.9711   -6.9214 C   0  0  0  0  0  0  0  0  0  0  0  0
   27.5202  -20.2193   -7.3377 C   0  0  0  0  0  0  0  0  0  0  0  0
   25.6048  -20.4140  -11.4239 C   0  0  0  0  0  0  0  0  0  0  0  0
   25.2790  -19.2866  -11.9328 O   0  0  0  0  0  0  0  0  0  0  0  0
   21.4607  -22.0608  -13.0158 O   0  0  0  0  0  0  0  0  0  0  0  0
   22.7418  -22.2310  -12.5530 C   0  0  0  0  0  0  0  0  0  0  0  0
   23.2078  -21.0055  -11.7202 C   0  0  2  0  0  0  0  0  0  0  0  0
   24.5450  -21.3436  -11.2416 N   0  0  0  0  0  0  0  0  0  0  0  0
   22.2504  -20.7549  -10.6358 C   0  0  0  0  0  0  0  0  0  0  0  0
   21.0691  -20.0415  -10.8636 O   0  0  0  0  0  0  0  0  0  0  0  0
   22.4249  -21.1539   -9.4632 O   0  0  0  0  0  0  0  0  0  0  0  0
  2  1  1  0
  3  2  1  0
  3  4  1  6
  5  3  1  0
  6  5  2  0
  7  5  1  0
  8  7  1  0
  9 10  1  0
  8  9  1  1
 10 18  1  0
 11 12  1  0
 11 10  2  0
 12 13  1  0
 13 18  2  0
 13 14  1  0
 14 15  2  0
 15 16  1  0
 17 16  2  0
 18 17  1  0
 19 24  1  0
 19  8  1  0
 20 19  2  0
 22 21  1  0
 23 24  1  0
 23 22  1  1
 25 23  1  0
 26 25  1  0
 27 25  2  0
M  END
$$$$
