SWS.pdb
     RDKit          3D

 27 28  0  0  1  0  0  0  0  0999 V2000
   16.6411  -12.4626  -14.3391 O   0  0  0  0  0  0  0  0  0  0  0  0
   17.4932  -11.3533  -14.4466 C   0  0  0  0  0  0  0  0  0  0  0  0
   18.1696  -11.4380  -15.7902 C   0  0  2  0  0  0  0  0  0  0  0  0
   18.9990  -12.5902  -15.9402 N   0  0  0  0  0  0  0  0  0  0  0  0
   18.9035  -10.1977  -16.1334 C   0  0  0  0  0  0  0  0  0  0  0  0
   20.1328  -10.1090  -15.8196 O   0  0  0  0  0  0  0  0  0  0  0  0
   18.3272   -9.0961  -16.7911 N   0  0  0  0  0  0  0  0  0  0  0  0
   19.0992   -7.8847  -17.1664 C   0  0  1  0  0  0  0  0  0  0  0  0
   18.3412   -7.2887  -18.2857 C   0  0  0  0  0  0  0  0  0  0  0  0
   18.7994   -6.0054  -18.8301 C   0  0  0  0  0  0  0  0  0  0  0  0
   20.0762   -5.4791  -18.8142 C   0  0  0  0  0  0  0  0  0  0  0  0
   20.0852   -4.2733  -19.4092 N   0  0  0  0  0  0  0  0  0  0  0  0
   18.8389   -3.9837  -19.8230 C   0  0  0  0  0  0  0  0  0  0  0  0
   18.3387   -2.8863  -20.4932 C   0  0  0  0  0  0  0  0  0  0  0  0
   17.0010   -2.8586  -20.8161 C   0  0  0  0  0  0  0  0  0  0  0  0
   16.1489   -3.9089  -20.4814 C   0  0  0  0  0  0  0  0  0  0  0  0
   16.7038   -4.9855  -19.8084 C   0  0  0  0  0  0  0  0  0  0  0  0
   18.0372   -5.0509  -19.4678 C   0  0  0  0  0  0  0  0  0  0  0  0
   19.3961   -7.0711  -16.0031 C   0  0  0  0  0  0  0  0  0  0  0  0
   18.5030   -6.8433  -15.1162 O   0  0  0  0  0  0  0  0  0  0  0  0
   22.6995   -4.9710  -13.1671 O   0  0  0  0  0  0  0  0  0  0  0  0
   22.3931   -5.6626  -14.3127 C   0  0  0  0  0  0  0  0  0  0  0  0
   20.8646   -5.6482  -14.5882 C   0  0  2  0  0  0  0  0  0  0  0  0
   20.6715   -6.4902  -15.7651 N   0  0  0  0  0  0  0  0  0  0  0  0
   20.4133   -4.2650  -14.7849 C   0  0  0  0  0  0  0  0  0  0  0  0
   19.5408   -3.6526  -13.8795 O   0  0  0  0  0  0  0  0  0  0  0  0
   20.7714   -3.5597  -15.7539 O   0  0  0  0  0  0  0  0  0  0  0  0
  2  1  1  0
  3  2  1  0
  3  4  1  1
  5  3  1  0
  6  5  2  0
  7  5  1  0
  8  7  1  0
  9 10  1  0
  8  9  1  6
 10 18  1  0
 11 12  1  0
 11 10  2  0
 12 13  1  0
 13 18  2  0
 13 14  1  0
 14 15  2  0
 15 16  1  0
 17 16  2  0
 18 17  1  0
 19 24  1  0
 19  8  1  0
 20 19  2  0
 22 21  1  0
 23 24  1  0
 23 22  1  6
 25 23  1  0
 26 25  1  0
 27 25  2  0
M  END
$$$$
