SWS.pdb
     RDKit          3D

 27 28  0  0  1  0  0  0  0  0999 V2000
   28.7653  -19.4429  -13.4143 O   0  0  0  0  0  0  0  0  0  0  0  0
   29.3745  -19.1391  -12.1876 C   0  0  0  0  0  0  0  0  0  0  0  0
   29.5614  -20.4383  -11.4477 C   0  0  2  0  0  0  0  0  0  0  0  0
   30.4354  -21.3521  -12.1104 N   0  0  0  0  0  0  0  0  0  0  0  0
   28.2731  -21.0816  -11.0996 C   0  0  0  0  0  0  0  0  0  0  0  0
   27.9291  -22.1358  -11.7224 O   0  0  0  0  0  0  0  0  0  0  0  0
   27.3917  -20.6007  -10.1147 N   0  0  0  0  0  0  0  0  0  0  0  0
   26.0516  -21.1919   -9.8715 C   0  0  1  0  0  0  0  0  0  0  0  0
   25.8524  -21.0817   -8.4118 C   0  0  0  0  0  0  0  0  0  0  0  0
   26.6225  -20.0696   -7.6796 C   0  0  0  0  0  0  0  0  0  0  0  0
   26.7651  -18.7280   -7.9745 C   0  0  0  0  0  0  0  0  0  0  0  0
   27.5594  -18.1378   -7.0641 N   0  0  0  0  0  0  0  0  0  0  0  0
   27.9501  -19.0592   -6.1660 C   0  0  0  0  0  0  0  0  0  0  0  0
   28.7466  -18.9510   -5.0446 C   0  0  0  0  0  0  0  0  0  0  0  0
   28.9711  -20.0725   -4.2789 C   0  0  0  0  0  0  0  0  0  0  0  0
   28.4142  -21.3054   -4.6121 C   0  0  0  0  0  0  0  0  0  0  0  0
   27.6231  -21.3573   -5.7485 C   0  0  0  0  0  0  0  0  0  0  0  0
   27.3745  -20.2577   -6.5405 C   0  0  0  0  0  0  0  0  0  0  0  0
   25.0588  -20.6251  -10.7639 C   0  0  0  0  0  0  0  0  0  0  0  0
   25.0979  -19.3885  -11.0885 O   0  0  0  0  0  0  0  0  0  0  0  0
   23.5981  -22.0955  -14.1662 O   0  0  0  0  0  0  0  0  0  0  0  0
   22.6166  -21.8344  -13.2426 C   0  0  0  0  0  0  0  0  0  0  0  0
   23.0624  -20.7329  -12.2423 C   0  0  2  0  0  0  0  0  0  0  0  0
   24.0025  -21.3853  -11.3356 N   0  0  0  0  0  0  0  0  0  0  0  0
   21.8849  -20.1832  -11.5592 C   0  0  0  0  0  0  0  0  0  0  0  0
   20.9289  -19.4347  -12.2534 O   0  0  0  0  0  0  0  0  0  0  0  0
   21.6648  -20.3446  -10.3384 O   0  0  0  0  0  0  0  0  0  0  0  0
  2  1  1  0
  3  2  1  0
  3  4  1  6
  5  3  1  0
  6  5  2  0
  7  5  1  0
  8  7  1  0
  9 10  1  0
  8  9  1  1
 10 18  1  0
 11 12  1  0
 11 10  2  0
 12 13  1  0
 13 18  2  0
 13 14  1  0
 14 15  2  0
 15 16  1  0
 17 16  2  0
 18 17  1  0
 19 24  1  0
 19  8  1  0
 20 19  2  0
 22 21  1  0
 23 24  1  0
 23 22  1  6
 25 23  1  0
 26 25  1  0
 27 25  2  0
M  END
$$$$
