SWS.pdb
     RDKit          3D

 27 28  0  0  1  0  0  0  0  0999 V2000
   27.4190  -22.4108  -18.5444 O   0  0  0  0  0  0  0  0  0  0  0  0
   27.0820  -21.6545  -17.4120 C   0  0  0  0  0  0  0  0  0  0  0  0
   27.7173  -22.3249  -16.2216 C   0  0  2  0  0  0  0  0  0  0  0  0
   28.1188  -23.6719  -16.4719 N   0  0  0  0  0  0  0  0  0  0  0  0
   26.8782  -22.2304  -15.0043 C   0  0  0  0  0  0  0  0  0  0  0  0
   26.2559  -23.2670  -14.6097 O   0  0  0  0  0  0  0  0  0  0  0  0
   26.7196  -21.0575  -14.2444 N   0  0  0  0  0  0  0  0  0  0  0  0
   25.7800  -20.9577  -13.0993 C   0  0  1  0  0  0  0  0  0  0  0  0
   26.4255  -20.0120  -12.1658 C   0  0  0  0  0  0  0  0  0  0  0  0
   27.5003  -20.5131  -11.3014 C   0  0  0  0  0  0  0  0  0  0  0  0
   28.7356  -21.0053  -11.6746 C   0  0  0  0  0  0  0  0  0  0  0  0
   29.4339  -21.3717  -10.5854 N   0  0  0  0  0  0  0  0  0  0  0  0
   28.6893  -21.1334   -9.4914 C   0  0  0  0  0  0  0  0  0  0  0  0
   28.9613  -21.3204   -8.1517 C   0  0  0  0  0  0  0  0  0  0  0  0
   28.0079  -20.9652   -7.2248 C   0  0  0  0  0  0  0  0  0  0  0  0
   26.7828  -20.4250   -7.6103 C   0  0  0  0  0  0  0  0  0  0  0  0
   26.5621  -20.2595   -8.9681 C   0  0  0  0  0  0  0  0  0  0  0  0
   27.4908  -20.6023   -9.9264 C   0  0  0  0  0  0  0  0  0  0  0  0
   24.4283  -20.6904  -13.5519 C   0  0  0  0  0  0  0  0  0  0  0  0
   24.1735  -19.6841  -14.2993 O   0  0  0  0  0  0  0  0  0  0  0  0
   21.1208  -23.2744  -12.9221 O   0  0  0  0  0  0  0  0  0  0  0  0
   21.3099  -22.5215  -14.0543 C   0  0  0  0  0  0  0  0  0  0  0  0
   21.9938  -21.1669  -13.7229 C   0  0  2  0  0  0  0  0  0  0  0  0
   23.3182  -21.5116  -13.2143 N   0  0  0  0  0  0  0  0  0  0  0  0
   21.1756  -20.4268  -12.7543 C   0  0  0  0  0  0  0  0  0  0  0  0
   19.9116  -19.9373  -13.0988 O   0  0  0  0  0  0  0  0  0  0  0  0
   21.5476  -20.1906  -11.5836 O   0  0  0  0  0  0  0  0  0  0  0  0
  2  1  1  0
  3  2  1  0
  3  4  1  6
  5  3  1  0
  6  5  2  0
  7  5  1  0
  8  7  1  0
  9 10  1  0
  8  9  1  1
 10 18  1  0
 11 12  1  0
 11 10  2  0
 12 13  1  0
 13 18  2  0
 13 14  1  0
 14 15  2  0
 15 16  1  0
 17 16  2  0
 18 17  1  0
 19 24  1  0
 19  8  1  0
 20 19  2  0
 22 21  1  0
 23 24  1  0
 23 22  1  1
 25 23  1  0
 26 25  1  0
 27 25  2  0
M  END
$$$$
