SWS.pdb
     RDKit          3D

 27 28  0  0  1  0  0  0  0  0999 V2000
   14.6658   -9.3289  -15.4822 O   0  0  0  0  0  0  0  0  0  0  0  0
   14.9234   -7.9504  -15.5214 C   0  0  0  0  0  0  0  0  0  0  0  0
   15.4483   -7.6329  -16.8976 C   0  0  2  0  0  0  0  0  0  0  0  0
   15.2460   -8.6840  -17.8423 N   0  0  0  0  0  0  0  0  0  0  0  0
   16.8628   -7.1929  -16.8761 C   0  0  0  0  0  0  0  0  0  0  0  0
   17.7365   -7.9179  -17.4494 O   0  0  0  0  0  0  0  0  0  0  0  0
   17.3128   -6.0130  -16.2568 N   0  0  0  0  0  0  0  0  0  0  0  0
   18.7356   -5.5887  -16.2644 C   0  0  1  0  0  0  0  0  0  0  0  0
   18.6866   -4.1122  -16.2516 C   0  0  0  0  0  0  0  0  0  0  0  0
   19.9479   -3.3761  -16.1080 C   0  0  0  0  0  0  0  0  0  0  0  0
   21.1781   -3.6758  -16.6597 C   0  0  0  0  0  0  0  0  0  0  0  0
   22.0873   -2.7592  -16.2840 N   0  0  0  0  0  0  0  0  0  0  0  0
   21.4884   -1.8522  -15.4922 C   0  0  0  0  0  0  0  0  0  0  0  0
   21.9827   -0.7224  -14.8736 C   0  0  0  0  0  0  0  0  0  0  0  0
   21.1274    0.0513  -14.1224 C   0  0  0  0  0  0  0  0  0  0  0  0
   19.7826   -0.2823  -13.9754 C   0  0  0  0  0  0  0  0  0  0  0  0
   19.3397   -1.4274  -14.6176 C   0  0  0  0  0  0  0  0  0  0  0  0
   20.1641   -2.2275  -15.3782 C   0  0  0  0  0  0  0  0  0  0  0  0
   19.4938   -6.2783  -15.2383 C   0  0  0  0  0  0  0  0  0  0  0  0
   18.9952   -6.4800  -14.0778 O   0  0  0  0  0  0  0  0  0  0  0  0
   22.4209   -9.2675  -15.5583 O   0  0  0  0  0  0  0  0  0  0  0  0
   22.7642   -8.0804  -14.9605 C   0  0  0  0  0  0  0  0  0  0  0  0
   21.5253   -7.3877  -14.3298 C   0  0  2  0  0  0  0  0  0  0  0  0
   20.8092   -6.7759  -15.4453 N   0  0  0  0  0  0  0  0  0  0  0  0
   21.9655   -6.4161  -13.3210 C   0  0  0  0  0  0  0  0  0  0  0  0
   21.9579   -6.7331  -11.9588 O   0  0  0  0  0  0  0  0  0  0  0  0
   22.3669   -5.2666  -13.6076 O   0  0  0  0  0  0  0  0  0  0  0  0
  2  1  1  0
  3  2  1  0
  3  4  1  6
  5  3  1  0
  6  5  2  0
  7  5  1  0
  8  7  1  0
  9 10  1  0
  8  9  1  1
 10 18  1  0
 11 12  1  0
 11 10  2  0
 12 13  1  0
 13 18  2  0
 13 14  1  0
 14 15  2  0
 15 16  1  0
 17 16  2  0
 18 17  1  0
 19 24  1  0
 19  8  1  0
 20 19  2  0
 22 21  1  0
 23 24  1  0
 23 22  1  6
 25 23  1  0
 26 25  1  0
 27 25  2  0
M  END
$$$$
