KHM.pdb
     RDKit          3D

 28 28  0  0  1  0  0  0  0  0999 V2000
    7.1891  -16.6176   19.7097 N   0  0  0  0  0  0  0  0  0  0  0  0
    8.2605  -15.8516   20.2817 C   0  0  1  0  0  0  0  0  0  0  0  0
    7.8666  -14.4266   20.4769 C   0  0  0  0  0  0  0  0  0  0  0  0
    7.4249  -13.6536   19.3028 C   0  0  0  0  0  0  0  0  0  0  0  0
    8.4296  -13.6332   18.1982 C   0  0  0  0  0  0  0  0  0  0  0  0
    7.9408  -12.8500   17.0218 C   0  0  0  0  0  0  0  0  0  0  0  0
    8.8788  -12.8971   15.9071 N   0  0  0  0  0  0  0  0  0  0  0  0
    8.6438  -16.3643   21.6493 C   0  0  0  0  0  0  0  0  0  0  0  0
    7.8293  -16.4561   22.5749 O   0  0  0  0  0  0  0  0  0  0  0  0
    9.9740  -16.7400   21.8448 N   0  0  0  0  0  0  0  0  0  0  0  0
   10.4709  -17.2405   23.1395 C   0  0  1  0  0  0  0  0  0  0  0  0
   11.8332  -17.7981   22.8771 C   0  0  0  0  0  0  0  0  0  0  0  0
   11.8342  -19.1255   22.2553 C   0  0  0  0  0  0  0  0  0  0  0  0
   10.8433  -20.0793   22.4881 C   0  0  0  0  0  0  0  0  0  0  0  0
   11.1927  -21.1629   21.7410 N   0  0  0  0  0  0  0  0  0  0  0  0
   12.3228  -20.9260   21.0770 C   0  0  0  0  0  0  0  0  0  0  0  0
   12.7107  -19.6751   21.3970 N   0  0  0  0  0  0  0  0  0  0  0  0
   10.4423  -16.1341   24.1045 C   0  0  0  0  0  0  0  0  0  0  0  0
   11.1267  -15.1050   23.8422 O   0  0  0  0  0  0  0  0  0  0  0  0
    6.1257  -11.2834   27.9425 C   0  0  0  0  0  0  0  0  0  0  0  0
    6.3635  -12.6579   26.8094 S   0  0  0  0  0  0  0  0  0  0  0  0
    8.0498  -13.3224   27.0871 C   0  0  0  0  0  0  0  0  0  0  0  0
    8.2579  -14.3997   26.0652 C   0  0  0  0  0  0  0  0  0  0  0  0
    9.6428  -14.9735   26.2097 C   0  0  2  0  0  0  0  0  0  0  0  0
    9.7018  -16.1524   25.2979 N   0  0  0  0  0  0  0  0  0  0  0  0
    9.8064  -15.5162   27.5672 C   0  0  0  0  0  0  0  0  0  0  0  0
    9.7795  -14.7322   28.5485 O   0  0  0  0  0  0  0  0  0  0  0  0
    9.9894  -16.8492   27.8704 O   0  0  0  0  0  0  0  0  0  0  0  0
  2  1  1  1
  2  3  1  0
  3  4  1  0
  5  4  1  0
  5  6  1  0
  7  6  1  0
  8  9  2  0
  8  2  1  0
 10  8  1  0
 11 10  1  0
 11 12  1  6
 12 13  1  0
 13 17  1  0
 13 14  2  0
 14 15  1  0
 16 15  1  0
 17 16  2  0
 18 25  1  0
 18 11  1  0
 19 18  2  0
 20 21  1  0
 21 22  1  0
 23 22  1  0
 24 23  1  1
 24 25  1  0
 26 28  1  0
 26 24  1  0
 27 26  2  0
M  END
$$$$
