KHM.pdb
     RDKit          3D

 28 28  0  0  1  0  0  0  0  0999 V2000
    4.8037  -19.5736   20.1125 N   0  0  0  0  0  0  0  0  0  0  0  0
    4.8081  -18.4779   21.0406 C   0  0  1  0  0  0  0  0  0  0  0  0
    3.7021  -18.6015   22.0333 C   0  0  0  0  0  0  0  0  0  0  0  0
    2.5176  -19.3984   21.6686 C   0  0  0  0  0  0  0  0  0  0  0  0
    1.4708  -19.4199   22.7334 C   0  0  0  0  0  0  0  0  0  0  0  0
    0.2249  -20.1042   22.2689 C   0  0  0  0  0  0  0  0  0  0  0  0
   -0.7761  -20.1907   23.3249 N   0  0  0  0  0  0  0  0  0  0  0  0
    6.0836  -18.4363   21.8476 C   0  0  0  0  0  0  0  0  0  0  0  0
    6.2712  -19.1648   22.8287 O   0  0  0  0  0  0  0  0  0  0  0  0
    7.0681  -17.5313   21.4467 N   0  0  0  0  0  0  0  0  0  0  0  0
    8.3572  -17.4040   22.1505 C   0  0  1  0  0  0  0  0  0  0  0  0
    9.3869  -17.1551   21.0953 C   0  0  0  0  0  0  0  0  0  0  0  0
   10.7495  -16.9845   21.6078 C   0  0  0  0  0  0  0  0  0  0  0  0
   11.2443  -15.7659   22.0727 C   0  0  0  0  0  0  0  0  0  0  0  0
   12.5271  -16.0124   22.4576 N   0  0  0  0  0  0  0  0  0  0  0  0
   12.8360  -17.2923   22.2564 C   0  0  0  0  0  0  0  0  0  0  0  0
   11.7417  -17.8825   21.7353 N   0  0  0  0  0  0  0  0  0  0  0  0
    8.2361  -16.3321   23.1468 C   0  0  0  0  0  0  0  0  0  0  0  0
    7.5763  -15.3029   22.8281 O   0  0  0  0  0  0  0  0  0  0  0  0
    5.6124  -11.4192   26.6077 C   0  0  0  0  0  0  0  0  0  0  0  0
    5.5487  -13.2152   26.6222 S   0  0  0  0  0  0  0  0  0  0  0  0
    7.2740  -13.8326   26.6886 C   0  0  0  0  0  0  0  0  0  0  0  0
    7.3621  -14.9602   25.7043 C   0  0  0  0  0  0  0  0  0  0  0  0
    8.8037  -15.2057   25.3438 C   0  0  2  0  0  0  0  0  0  0  0  0
    8.8087  -16.3832   24.4283 N   0  0  0  0  0  0  0  0  0  0  0  0
    9.5397  -15.6351   26.5429 C   0  0  0  0  0  0  0  0  0  0  0  0
    9.9024  -16.8337   26.6434 O   0  0  0  0  0  0  0  0  0  0  0  0
    9.8810  -14.8156   27.5984 O   0  0  0  0  0  0  0  0  0  0  0  0
  2  1  1  6
  2  3  1  0
  3  4  1  0
  5  4  1  0
  5  6  1  0
  7  6  1  0
  8  9  2  0
  8  2  1  0
 10  8  1  0
 11 10  1  0
 11 12  1  6
 12 13  1  0
 13 17  1  0
 13 14  2  0
 14 15  1  0
 16 15  1  0
 17 16  2  0
 18 25  1  0
 18 11  1  0
 19 18  2  0
 20 21  1  0
 21 22  1  0
 23 22  1  0
 24 23  1  1
 24 25  1  0
 26 28  1  0
 26 24  1  0
 27 26  2  0
M  END
$$$$
