KHM.pdb
     RDKit          3D

 28 28  0  0  1  0  0  0  0  0999 V2000
   12.0151  -19.9460   18.4608 N   0  0  0  0  0  0  0  0  0  0  0  0
   11.9436  -18.7808   19.2969 C   0  0  1  0  0  0  0  0  0  0  0  0
   10.5402  -18.2957   19.4352 C   0  0  0  0  0  0  0  0  0  0  0  0
    9.6066  -18.5208   18.3177 C   0  0  0  0  0  0  0  0  0  0  0  0
    8.2195  -18.0475   18.6037 C   0  0  0  0  0  0  0  0  0  0  0  0
    7.3439  -18.1413   17.3952 C   0  0  0  0  0  0  0  0  0  0  0  0
    6.0198  -17.5815   17.6359 N   0  0  0  0  0  0  0  0  0  0  0  0
   12.4193  -19.0719   20.7001 C   0  0  0  0  0  0  0  0  0  0  0  0
   12.3934  -20.2083   21.1863 O   0  0  0  0  0  0  0  0  0  0  0  0
   12.8998  -17.9977   21.4512 N   0  0  0  0  0  0  0  0  0  0  0  0
   13.5387  -18.1778   22.7675 C   0  0  1  0  0  0  0  0  0  0  0  0
   14.9913  -18.4095   22.4990 C   0  0  0  0  0  0  0  0  0  0  0  0
   15.3330  -19.7980   22.1765 C   0  0  0  0  0  0  0  0  0  0  0  0
   14.8792  -20.8889   22.9181 C   0  0  0  0  0  0  0  0  0  0  0  0
   15.4038  -21.9897   22.3120 N   0  0  0  0  0  0  0  0  0  0  0  0
   16.1399  -21.6358   21.2599 C   0  0  0  0  0  0  0  0  0  0  0  0
   16.0922  -20.2907   21.1826 N   0  0  0  0  0  0  0  0  0  0  0  0
   13.2532  -16.9926   23.5860 C   0  0  0  0  0  0  0  0  0  0  0  0
   13.8551  -15.9194   23.2996 O   0  0  0  0  0  0  0  0  0  0  0  0
    8.0490  -13.4659   28.2076 C   0  0  0  0  0  0  0  0  0  0  0  0
    8.5165  -14.8757   27.1958 S   0  0  0  0  0  0  0  0  0  0  0  0
   10.2842  -14.6788   26.7499 C   0  0  0  0  0  0  0  0  0  0  0  0
   10.6091  -15.7862   25.7928 C   0  0  0  0  0  0  0  0  0  0  0  0
   12.0749  -15.7441   25.4490 C   0  0  2  0  0  0  0  0  0  0  0  0
   12.3537  -16.9818   24.6647 N   0  0  0  0  0  0  0  0  0  0  0  0
   12.8684  -15.8706   26.6812 C   0  0  0  0  0  0  0  0  0  0  0  0
   12.8871  -14.9173   27.4992 O   0  0  0  0  0  0  0  0  0  0  0  0
   13.6146  -16.9760   27.0325 O   0  0  0  0  0  0  0  0  0  0  0  0
  2  1  1  6
  2  3  1  0
  3  4  1  0
  5  4  1  0
  5  6  1  0
  7  6  1  0
  8  9  2  0
  8  2  1  0
 10  8  1  0
 11 10  1  0
 11 12  1  6
 12 13  1  0
 13 17  1  0
 13 14  2  0
 14 15  1  0
 16 15  1  0
 17 16  2  0
 18 25  1  0
 18 11  1  0
 19 18  2  0
 20 21  1  0
 21 22  1  0
 23 22  1  0
 24 23  1  1
 24 25  1  0
 26 28  1  0
 26 24  1  0
 27 26  2  0
M  END
$$$$
