KHM.pdb
     RDKit          3D

 28 28  0  0  1  0  0  0  0  0999 V2000
    9.2974  -19.1719   19.6946 N   0  0  0  0  0  0  0  0  0  0  0  0
    8.3269  -18.3204   20.3230 C   0  0  1  0  0  0  0  0  0  0  0  0
    7.7318  -18.9695   21.5265 C   0  0  0  0  0  0  0  0  0  0  0  0
    8.6035  -19.7925   22.3832 C   0  0  0  0  0  0  0  0  0  0  0  0
    7.8863  -20.4000   23.5436 C   0  0  0  0  0  0  0  0  0  0  0  0
    8.8270  -21.1104   24.4637 C   0  0  0  0  0  0  0  0  0  0  0  0
    8.1520  -21.6095   25.6552 N   0  0  0  0  0  0  0  0  0  0  0  0
    8.9481  -17.0344   20.8130 C   0  0  0  0  0  0  0  0  0  0  0  0
   10.1625  -16.9196   21.0145 O   0  0  0  0  0  0  0  0  0  0  0  0
    8.0939  -15.9535   21.0382 N   0  0  0  0  0  0  0  0  0  0  0  0
    8.5954  -14.5924   21.3019 C   0  0  1  0  0  0  0  0  0  0  0  0
    7.6868  -13.6618   20.5643 C   0  0  0  0  0  0  0  0  0  0  0  0
    7.8554  -13.6791   19.1083 C   0  0  0  0  0  0  0  0  0  0  0  0
    8.4814  -12.6538   18.3991 C   0  0  0  0  0  0  0  0  0  0  0  0
    8.4418  -13.0333   17.0918 N   0  0  0  0  0  0  0  0  0  0  0  0
    7.8365  -14.2132   16.9674 C   0  0  0  0  0  0  0  0  0  0  0  0
    7.4795  -14.6034   18.2075 N   0  0  0  0  0  0  0  0  0  0  0  0
    8.6282  -14.3854   22.7553 C   0  0  0  0  0  0  0  0  0  0  0  0
    8.7526  -13.2019   23.1795 O   0  0  0  0  0  0  0  0  0  0  0  0
    7.7692  -11.5474   27.9623 C   0  0  0  0  0  0  0  0  0  0  0  0
    6.5139  -12.2831   26.9075 S   0  0  0  0  0  0  0  0  0  0  0  0
    6.8819  -14.0743   26.7708 C   0  0  0  0  0  0  0  0  0  0  0  0
    7.1239  -14.3507   25.3171 C   0  0  0  0  0  0  0  0  0  0  0  0
    8.3895  -15.1514   25.1582 C   0  0  2  0  0  0  0  0  0  0  0  0
    8.5300  -15.4218   23.6982 N   0  0  0  0  0  0  0  0  0  0  0  0
    8.2151  -16.4692   25.7885 C   0  0  0  0  0  0  0  0  0  0  0  0
    8.0674  -16.5384   27.0341 O   0  0  0  0  0  0  0  0  0  0  0  0
    8.1955  -17.6726   25.1152 O   0  0  0  0  0  0  0  0  0  0  0  0
  2  1  1  1
  2  3  1  0
  3  4  1  0
  5  4  1  0
  5  6  1  0
  7  6  1  0
  8  9  2  0
  8  2  1  0
 10  8  1  0
 11 10  1  0
 11 12  1  6
 12 13  1  0
 13 17  1  0
 13 14  2  0
 14 15  1  0
 16 15  1  0
 17 16  2  0
 18 25  1  0
 18 11  1  0
 19 18  2  0
 20 21  1  0
 21 22  1  0
 23 22  1  0
 24 23  1  6
 24 25  1  0
 26 28  1  0
 26 24  1  0
 27 26  2  0
M  END
$$$$
