KHM.pdb
     RDKit          3D

 28 28  0  0  1  0  0  0  0  0999 V2000
    6.7866  -16.1294   19.8547 N   0  0  0  0  0  0  0  0  0  0  0  0
    7.8973  -15.5107   20.5221 C   0  0  1  0  0  0  0  0  0  0  0  0
    7.6846  -14.0439   20.6867 C   0  0  0  0  0  0  0  0  0  0  0  0
    7.7864  -13.1820   19.4960 C   0  0  0  0  0  0  0  0  0  0  0  0
    8.0811  -13.9395   18.2433 C   0  0  0  0  0  0  0  0  0  0  0  0
    8.1727  -13.0323   17.0581 C   0  0  0  0  0  0  0  0  0  0  0  0
    9.3696  -13.2879   16.2664 N   0  0  0  0  0  0  0  0  0  0  0  0
    8.0855  -16.0590   21.9163 C   0  0  0  0  0  0  0  0  0  0  0  0
    7.1432  -16.2076   22.7028 O   0  0  0  0  0  0  0  0  0  0  0  0
    9.3827  -16.4011   22.3023 N   0  0  0  0  0  0  0  0  0  0  0  0
    9.6766  -17.0550   23.5905 C   0  0  1  0  0  0  0  0  0  0  0  0
   10.8534  -17.9451   23.3487 C   0  0  0  0  0  0  0  0  0  0  0  0
   11.3328  -18.6514   24.5404 C   0  0  0  0  0  0  0  0  0  0  0  0
   10.4805  -19.1818   25.5090 C   0  0  0  0  0  0  0  0  0  0  0  0
   11.2929  -19.7509   26.4421 N   0  0  0  0  0  0  0  0  0  0  0  0
   12.5716  -19.5991   26.1012 C   0  0  0  0  0  0  0  0  0  0  0  0
   12.5888  -18.9242   24.9343 N   0  0  0  0  0  0  0  0  0  0  0  0
    9.9009  -16.0109   24.5984 C   0  0  0  0  0  0  0  0  0  0  0  0
   10.7287  -15.0963   24.3257 O   0  0  0  0  0  0  0  0  0  0  0  0
    6.8415  -11.1762   27.3964 C   0  0  0  0  0  0  0  0  0  0  0  0
    6.3073  -12.7455   26.7023 S   0  0  0  0  0  0  0  0  0  0  0  0
    7.8015  -13.6318   26.1156 C   0  0  0  0  0  0  0  0  0  0  0  0
    8.4160  -14.2774   27.3213 C   0  0  0  0  0  0  0  0  0  0  0  0
    9.6627  -15.0197   26.9176 C   0  0  2  0  0  0  0  0  0  0  0  0
    9.2519  -15.9693   25.8433 N   0  0  0  0  0  0  0  0  0  0  0  0
   10.1131  -15.8612   28.0370 C   0  0  0  0  0  0  0  0  0  0  0  0
    9.8347  -17.0862   28.0339 O   0  0  0  0  0  0  0  0  0  0  0  0
   10.8382  -15.4144   29.1218 O   0  0  0  0  0  0  0  0  0  0  0  0
  2  1  1  1
  2  3  1  0
  3  4  1  0
  5  4  1  0
  5  6  1  0
  7  6  1  0
  8  9  2  0
  8  2  1  0
 10  8  1  0
 11 10  1  0
 11 12  1  6
 12 13  1  0
 13 17  1  0
 13 14  2  0
 14 15  1  0
 16 15  1  0
 17 16  2  0
 18 25  1  0
 18 11  1  0
 19 18  2  0
 20 21  1  0
 21 22  1  0
 23 22  1  0
 24 23  1  1
 24 25  1  0
 26 28  1  0
 26 24  1  0
 27 26  2  0
M  END
$$$$
