KHM.pdb
     RDKit          3D

 28 28  0  0  1  0  0  0  0  0999 V2000
    7.2832  -17.5325   19.1787 N   0  0  0  0  0  0  0  0  0  0  0  0
    8.5078  -17.0697   19.7687 C   0  0  1  0  0  0  0  0  0  0  0  0
    8.5592  -15.5801   19.8175 C   0  0  0  0  0  0  0  0  0  0  0  0
    8.4953  -14.8338   18.5486 C   0  0  0  0  0  0  0  0  0  0  0  0
    8.5345  -13.3525   18.7331 C   0  0  0  0  0  0  0  0  0  0  0  0
    8.3935  -12.6300   17.4315 C   0  0  0  0  0  0  0  0  0  0  0  0
    8.4231  -11.1830   17.6045 N   0  0  0  0  0  0  0  0  0  0  0  0
    8.6479  -17.5340   21.1986 C   0  0  0  0  0  0  0  0  0  0  0  0
    7.6731  -17.8426   21.8937 O   0  0  0  0  0  0  0  0  0  0  0  0
    9.9380  -17.6065   21.7270 N   0  0  0  0  0  0  0  0  0  0  0  0
   10.2083  -18.1189   23.0826 C   0  0  1  0  0  0  0  0  0  0  0  0
   11.5124  -18.8458   23.0025 C   0  0  0  0  0  0  0  0  0  0  0  0
   11.9090  -19.5157   24.2446 C   0  0  0  0  0  0  0  0  0  0  0  0
   11.1354  -19.4944   25.4051 C   0  0  0  0  0  0  0  0  0  0  0  0
   11.8314  -20.2186   26.3247 N   0  0  0  0  0  0  0  0  0  0  0  0
   12.9672  -20.6723   25.7974 C   0  0  0  0  0  0  0  0  0  0  0  0
   13.0085  -20.2377   24.5219 N   0  0  0  0  0  0  0  0  0  0  0  0
   10.2005  -16.9849   24.0155 C   0  0  0  0  0  0  0  0  0  0  0  0
   11.0199  -16.0458   23.8087 O   0  0  0  0  0  0  0  0  0  0  0  0
    6.0085  -11.6024   26.7076 C   0  0  0  0  0  0  0  0  0  0  0  0
    6.1296  -13.3673   26.3906 S   0  0  0  0  0  0  0  0  0  0  0  0
    7.8939  -13.8411   26.5479 C   0  0  0  0  0  0  0  0  0  0  0  0
    7.9624  -15.3191   26.3051 C   0  0  0  0  0  0  0  0  0  0  0  0
    9.3917  -15.7258   26.0596 C   0  0  2  0  0  0  0  0  0  0  0  0
    9.3391  -16.8832   25.1203 N   0  0  0  0  0  0  0  0  0  0  0  0
    9.9689  -16.2545   27.3052 C   0  0  0  0  0  0  0  0  0  0  0  0
   10.3136  -15.4536   28.2096 O   0  0  0  0  0  0  0  0  0  0  0  0
   10.1695  -17.5910   27.5801 O   0  0  0  0  0  0  0  0  0  0  0  0
  2  1  1  1
  2  3  1  0
  3  4  1  0
  5  4  1  0
  5  6  1  0
  7  6  1  0
  8  9  2  0
  8  2  1  0
 10  8  1  0
 11 10  1  0
 11 12  1  6
 12 13  1  0
 13 17  1  0
 13 14  2  0
 14 15  1  0
 16 15  1  0
 17 16  2  0
 18 25  1  0
 18 11  1  0
 19 18  2  0
 20 21  1  0
 21 22  1  0
 23 22  1  0
 24 23  1  1
 24 25  1  0
 26 28  1  0
 26 24  1  0
 27 26  2  0
M  END
$$$$
