KHM.pdb
     RDKit          3D

 28 28  0  0  1  0  0  0  0  0999 V2000
    7.6961  -18.5580   18.4790 N   0  0  0  0  0  0  0  0  0  0  0  0
    8.1932  -17.5677   19.3923 C   0  0  1  0  0  0  0  0  0  0  0  0
    7.8566  -16.1886   18.9354 C   0  0  0  0  0  0  0  0  0  0  0  0
    8.4279  -15.7117   17.6637 C   0  0  0  0  0  0  0  0  0  0  0  0
    8.0051  -14.3236   17.3112 C   0  0  0  0  0  0  0  0  0  0  0  0
    8.6468  -13.8560   16.0439 C   0  0  0  0  0  0  0  0  0  0  0  0
    8.2652  -12.4892   15.7111 N   0  0  0  0  0  0  0  0  0  0  0  0
    7.5731  -17.7111   20.7615 C   0  0  0  0  0  0  0  0  0  0  0  0
    6.3494  -17.7467   20.9345 O   0  0  0  0  0  0  0  0  0  0  0  0
    8.4393  -17.8041   21.8524 N   0  0  0  0  0  0  0  0  0  0  0  0
    7.9527  -17.9301   23.2383 C   0  0  1  0  0  0  0  0  0  0  0  0
    8.4496  -19.2490   23.7375 C   0  0  0  0  0  0  0  0  0  0  0  0
    8.1696  -19.5045   25.1535 C   0  0  0  0  0  0  0  0  0  0  0  0
    6.8792  -19.5498   25.6814 C   0  0  0  0  0  0  0  0  0  0  0  0
    7.0338  -19.8075   27.0096 N   0  0  0  0  0  0  0  0  0  0  0  0
    8.3254  -19.9198   27.3150 C   0  0  0  0  0  0  0  0  0  0  0  0
    9.0161  -19.7330   26.1725 N   0  0  0  0  0  0  0  0  0  0  0  0
    8.4306  -16.7713   24.0032 C   0  0  0  0  0  0  0  0  0  0  0  0
    9.6292  -16.4083   23.8363 O   0  0  0  0  0  0  0  0  0  0  0  0
    6.5862  -11.0166   25.3392 C   0  0  0  0  0  0  0  0  0  0  0  0
    6.3136  -11.6775   26.9880 S   0  0  0  0  0  0  0  0  0  0  0  0
    7.4348  -13.1122   27.2048 C   0  0  0  0  0  0  0  0  0  0  0  0
    6.9808  -14.1596   26.2326 C   0  0  0  0  0  0  0  0  0  0  0  0
    8.1765  -14.8921   25.6831 C   0  0  2  0  0  0  0  0  0  0  0  0
    7.6368  -16.0453   24.9063 N   0  0  0  0  0  0  0  0  0  0  0  0
    8.9371  -15.4858   26.7936 C   0  0  0  0  0  0  0  0  0  0  0  0
    8.7295  -16.6844   27.1073 O   0  0  0  0  0  0  0  0  0  0  0  0
    9.8891  -14.8268   27.5429 O   0  0  0  0  0  0  0  0  0  0  0  0
  2  1  1  6
  2  3  1  0
  3  4  1  0
  5  4  1  0
  5  6  1  0
  7  6  1  0
  8  9  2  0
  8  2  1  0
 10  8  1  0
 11 10  1  0
 11 12  1  1
 12 13  1  0
 13 17  1  0
 13 14  2  0
 14 15  1  0
 16 15  1  0
 17 16  2  0
 18 25  1  0
 18 11  1  0
 19 18  2  0
 20 21  1  0
 21 22  1  0
 23 22  1  0
 24 23  1  1
 24 25  1  0
 26 28  1  0
 26 24  1  0
 27 26  2  0
M  END
$$$$
