KHM.pdb
     RDKit          3D

 28 28  0  0  1  0  0  0  0  0999 V2000
    7.3657  -17.3449   19.3064 N   0  0  0  0  0  0  0  0  0  0  0  0
    8.6924  -17.1217   19.8083 C   0  0  1  0  0  0  0  0  0  0  0  0
    9.1251  -15.7108   19.5935 C   0  0  0  0  0  0  0  0  0  0  0  0
    8.1420  -14.6347   19.8095 C   0  0  0  0  0  0  0  0  0  0  0  0
    8.6683  -13.2787   19.4720 C   0  0  0  0  0  0  0  0  0  0  0  0
    7.6366  -12.2173   19.6847 C   0  0  0  0  0  0  0  0  0  0  0  0
    8.1171  -10.9010   19.2835 N   0  0  0  0  0  0  0  0  0  0  0  0
    8.7713  -17.3548   21.2980 C   0  0  0  0  0  0  0  0  0  0  0  0
    7.8070  -17.1706   22.0496 O   0  0  0  0  0  0  0  0  0  0  0  0
    9.9911  -17.7936   21.8158 N   0  0  0  0  0  0  0  0  0  0  0  0
   10.1728  -18.1166   23.2428 C   0  0  1  0  0  0  0  0  0  0  0  0
   11.4628  -18.8661   23.3409 C   0  0  0  0  0  0  0  0  0  0  0  0
   11.3611  -20.2912   23.0130 C   0  0  0  0  0  0  0  0  0  0  0  0
   10.1509  -20.9272   22.7357 C   0  0  0  0  0  0  0  0  0  0  0  0
   10.4679  -22.2271   22.4822 N   0  0  0  0  0  0  0  0  0  0  0  0
   11.7823  -22.4150   22.5880 C   0  0  0  0  0  0  0  0  0  0  0  0
   12.3237  -21.2242   22.9137 N   0  0  0  0  0  0  0  0  0  0  0  0
   10.1375  -16.8641   24.0083 C   0  0  0  0  0  0  0  0  0  0  0  0
   10.2292  -15.7789   23.3679 O   0  0  0  0  0  0  0  0  0  0  0  0
    5.8602  -11.9727   27.1208 C   0  0  0  0  0  0  0  0  0  0  0  0
    6.3099  -13.4313   26.1721 S   0  0  0  0  0  0  0  0  0  0  0  0
    8.0157  -13.9028   26.6518 C   0  0  0  0  0  0  0  0  0  0  0  0
    8.3889  -15.0793   25.8004 C   0  0  0  0  0  0  0  0  0  0  0  0
    9.7953  -15.5112   26.1227 C   0  0  2  0  0  0  0  0  0  0  0  0
   10.0087  -16.8014   25.4056 N   0  0  0  0  0  0  0  0  0  0  0  0
    9.8898  -15.8353   27.5545 C   0  0  0  0  0  0  0  0  0  0  0  0
   10.0628  -14.9071   28.3832 O   0  0  0  0  0  0  0  0  0  0  0  0
    9.7999  -17.1044   28.0867 O   0  0  0  0  0  0  0  0  0  0  0  0
  2  1  1  1
  2  3  1  0
  3  4  1  0
  5  4  1  0
  5  6  1  0
  7  6  1  0
  8  9  2  0
  8  2  1  0
 10  8  1  0
 11 10  1  0
 11 12  1  6
 12 13  1  0
 13 17  1  0
 13 14  2  0
 14 15  1  0
 16 15  1  0
 17 16  2  0
 18 25  1  0
 18 11  1  0
 19 18  2  0
 20 21  1  0
 21 22  1  0
 23 22  1  0
 24 23  1  1
 24 25  1  0
 26 28  1  0
 26 24  1  0
 27 26  2  0
M  END
$$$$
