KHM.pdb
     RDKit          3D

 28 28  0  0  1  0  0  0  0  0999 V2000
   11.3040  -16.5443   18.3858 N   0  0  0  0  0  0  0  0  0  0  0  0
   10.7699  -17.2374   19.5243 C   0  0  1  0  0  0  0  0  0  0  0  0
   11.6911  -18.3153   19.9864 C   0  0  0  0  0  0  0  0  0  0  0  0
   12.0664  -19.3742   19.0329 C   0  0  0  0  0  0  0  0  0  0  0  0
   11.4010  -20.6816   19.3117 C   0  0  0  0  0  0  0  0  0  0  0  0
   11.7754  -21.7182   18.3011 C   0  0  0  0  0  0  0  0  0  0  0  0
   11.1331  -22.9989   18.5694 N   0  0  0  0  0  0  0  0  0  0  0  0
   10.5910  -16.3138   20.7054 C   0  0  0  0  0  0  0  0  0  0  0  0
   11.4619  -15.5091   21.0553 O   0  0  0  0  0  0  0  0  0  0  0  0
    9.3876  -16.3957   21.4083 N   0  0  0  0  0  0  0  0  0  0  0  0
    9.0703  -15.5022   22.5372 C   0  0  1  0  0  0  0  0  0  0  0  0
    7.5795  -15.4835   22.6493 C   0  0  0  0  0  0  0  0  0  0  0  0
    7.0672  -14.6956   23.7743 C   0  0  0  0  0  0  0  0  0  0  0  0
    7.0063  -13.3020   23.7665 C   0  0  0  0  0  0  0  0  0  0  0  0
    6.4795  -12.9500   24.9719 N   0  0  0  0  0  0  0  0  0  0  0  0
    6.2205  -14.0339   25.7015 C   0  0  0  0  0  0  0  0  0  0  0  0
    6.5831  -15.1006   24.9612 N   0  0  0  0  0  0  0  0  0  0  0  0
    9.7637  -16.0020   23.7313 C   0  0  0  0  0  0  0  0  0  0  0  0
   10.1132  -17.2160   23.7452 O   0  0  0  0  0  0  0  0  0  0  0  0
   10.4469  -14.2170   31.1346 C   0  0  0  0  0  0  0  0  0  0  0  0
   10.7894  -13.6436   29.4661 S   0  0  0  0  0  0  0  0  0  0  0  0
   10.7110  -15.0971   28.3511 C   0  0  0  0  0  0  0  0  0  0  0  0
   11.0017  -14.5919   26.9697 C   0  0  0  0  0  0  0  0  0  0  0  0
   10.8908  -15.7243   25.9830 C   0  0  2  0  0  0  0  0  0  0  0  0
   10.0599  -15.2130   24.8549 N   0  0  0  0  0  0  0  0  0  0  0  0
   10.1117  -16.8187   26.5825 C   0  0  0  0  0  0  0  0  0  0  0  0
   10.6384  -17.5293   27.4746 O   0  0  0  0  0  0  0  0  0  0  0  0
    8.8144  -17.1439   26.2460 O   0  0  0  0  0  0  0  0  0  0  0  0
  2  1  1  6
  2  3  1  0
  3  4  1  0
  5  4  1  0
  5  6  1  0
  7  6  1  0
  8  9  2  0
  8  2  1  0
 10  8  1  0
 11 10  1  0
 11 12  1  1
 12 13  1  0
 13 17  1  0
 13 14  2  0
 14 15  1  0
 16 15  1  0
 17 16  2  0
 18 25  1  0
 18 11  1  0
 19 18  2  0
 20 21  1  0
 21 22  1  0
 23 22  1  0
 24 23  1  1
 24 25  1  0
 26 28  1  0
 26 24  1  0
 27 26  2  0
M  END
$$$$
