KHM.pdb
     RDKit          3D

 28 28  0  0  1  0  0  0  0  0999 V2000
    6.2081  -20.3897   21.6294 N   0  0  0  0  0  0  0  0  0  0  0  0
    7.6154  -20.4801   21.8999 C   0  0  1  0  0  0  0  0  0  0  0  0
    8.2911  -21.4186   20.9582 C   0  0  0  0  0  0  0  0  0  0  0  0
    7.6219  -22.6908   20.6346 C   0  0  0  0  0  0  0  0  0  0  0  0
    8.2812  -23.8784   21.2549 C   0  0  0  0  0  0  0  0  0  0  0  0
    7.6842  -25.1594   20.7662 C   0  0  0  0  0  0  0  0  0  0  0  0
    8.3600  -26.3242   21.3240 N   0  0  0  0  0  0  0  0  0  0  0  0
    8.3042  -19.1486   21.7198 C   0  0  0  0  0  0  0  0  0  0  0  0
    9.5353  -19.0359   21.7047 O   0  0  0  0  0  0  0  0  0  0  0  0
    7.4942  -18.0218   21.5679 N   0  0  0  0  0  0  0  0  0  0  0  0
    8.0498  -16.6650   21.4136 C   0  0  1  0  0  0  0  0  0  0  0  0
    7.1611  -15.9573   20.4414 C   0  0  0  0  0  0  0  0  0  0  0  0
    7.6113  -14.6098   20.0802 C   0  0  0  0  0  0  0  0  0  0  0  0
    6.9865  -13.4481   20.5339 C   0  0  0  0  0  0  0  0  0  0  0  0
    7.6879  -12.4161   19.9885 N   0  0  0  0  0  0  0  0  0  0  0  0
    8.6886  -12.8771   19.2402 C   0  0  0  0  0  0  0  0  0  0  0  0
    8.6358  -14.2229   19.3008 N   0  0  0  0  0  0  0  0  0  0  0  0
    8.1189  -16.0401   22.7406 C   0  0  0  0  0  0  0  0  0  0  0  0
    7.1591  -16.2406   23.5373 O   0  0  0  0  0  0  0  0  0  0  0  0
    5.8311  -11.7177   27.6351 C   0  0  0  0  0  0  0  0  0  0  0  0
    5.9805  -12.5922   26.0722 S   0  0  0  0  0  0  0  0  0  0  0  0
    7.6690  -13.3025   25.9913 C   0  0  0  0  0  0  0  0  0  0  0  0
    7.8005  -13.9382   24.6397 C   0  0  0  0  0  0  0  0  0  0  0  0
    9.1696  -14.5499   24.4993 C   0  0  2  0  0  0  0  0  0  0  0  0
    9.1850  -15.2353   23.1747 N   0  0  0  0  0  0  0  0  0  0  0  0
    9.3311  -15.6179   25.4981 C   0  0  0  0  0  0  0  0  0  0  0  0
    8.3162  -16.0625   26.0900 O   0  0  0  0  0  0  0  0  0  0  0  0
   10.5323  -16.1954   25.8526 O   0  0  0  0  0  0  0  0  0  0  0  0
  2  1  1  6
  2  3  1  0
  3  4  1  0
  5  4  1  0
  5  6  1  0
  7  6  1  0
  8  9  2  0
  8  2  1  0
 10  8  1  0
 11 10  1  0
 11 12  1  6
 12 13  1  0
 13 17  1  0
 13 14  2  0
 14 15  1  0
 16 15  1  0
 17 16  2  0
 18 25  1  0
 18 11  1  0
 19 18  2  0
 20 21  1  0
 21 22  1  0
 23 22  1  0
 24 23  1  1
 24 25  1  0
 26 28  1  0
 26 24  1  0
 27 26  2  0
M  END
$$$$
