KHM.pdb
     RDKit          3D

 28 28  0  0  1  0  0  0  0  0999 V2000
    8.9916  -18.8228   19.6681 N   0  0  0  0  0  0  0  0  0  0  0  0
   10.2604  -18.1660   19.5240 C   0  0  1  0  0  0  0  0  0  0  0  0
   10.5270  -17.8038   18.1021 C   0  0  0  0  0  0  0  0  0  0  0  0
    9.7788  -18.5084   17.0463 C   0  0  0  0  0  0  0  0  0  0  0  0
   10.1400  -18.0602   15.6684 C   0  0  0  0  0  0  0  0  0  0  0  0
    9.3115  -18.7464   14.6297 C   0  0  0  0  0  0  0  0  0  0  0  0
    9.6119  -18.2656   13.2869 N   0  0  0  0  0  0  0  0  0  0  0  0
   10.3072  -16.8689   20.2955 C   0  0  0  0  0  0  0  0  0  0  0  0
   11.2731  -16.0991   20.2398 O   0  0  0  0  0  0  0  0  0  0  0  0
    9.2048  -16.5554   21.0926 N   0  0  0  0  0  0  0  0  0  0  0  0
    9.1474  -15.3336   21.9155 C   0  0  1  0  0  0  0  0  0  0  0  0
    7.8802  -14.6350   21.5388 C   0  0  0  0  0  0  0  0  0  0  0  0
    7.8587  -14.1183   20.1672 C   0  0  0  0  0  0  0  0  0  0  0  0
    8.3567  -12.8637   19.8152 C   0  0  0  0  0  0  0  0  0  0  0  0
    8.1590  -12.7529   18.4724 N   0  0  0  0  0  0  0  0  0  0  0  0
    7.5778  -13.8522   17.9949 C   0  0  0  0  0  0  0  0  0  0  0  0
    7.3965  -14.6851   19.0393 N   0  0  0  0  0  0  0  0  0  0  0  0
    9.2298  -15.7237   23.3287 C   0  0  0  0  0  0  0  0  0  0  0  0
    8.2773  -16.3999   23.8101 O   0  0  0  0  0  0  0  0  0  0  0  0
    9.7658  -14.0443   30.0105 C   0  0  0  0  0  0  0  0  0  0  0  0
    9.3863  -13.5794   28.3165 S   0  0  0  0  0  0  0  0  0  0  0  0
    8.6295  -15.0345   27.4965 C   0  0  0  0  0  0  0  0  0  0  0  0
    8.8713  -14.8695   26.0259 C   0  0  0  0  0  0  0  0  0  0  0  0
   10.1956  -15.4857   25.6586 C   0  0  2  0  0  0  0  0  0  0  0  0
   10.3009  -15.3905   24.1739 N   0  0  0  0  0  0  0  0  0  0  0  0
   10.1640  -16.9251   25.9604 C   0  0  0  0  0  0  0  0  0  0  0  0
    9.2491  -17.6342   25.4720 O   0  0  0  0  0  0  0  0  0  0  0  0
   11.0773  -17.5882   26.7530 O   0  0  0  0  0  0  0  0  0  0  0  0
  2  1  1  6
  2  3  1  0
  3  4  1  0
  5  4  1  0
  5  6  1  0
  7  6  1  0
  8  9  2  0
  8  2  1  0
 10  8  1  0
 11 10  1  0
 11 12  1  1
 12 13  1  0
 13 17  1  0
 13 14  2  0
 14 15  1  0
 16 15  1  0
 17 16  2  0
 18 25  1  0
 18 11  1  0
 19 18  2  0
 20 21  1  0
 21 22  1  0
 23 22  1  0
 24 23  1  6
 24 25  1  0
 26 28  1  0
 26 24  1  0
 27 26  2  0
M  END
$$$$
