NHG.pdb
     RDKit          3D

 23 23  0  0  1  0  0  0  0  0999 V2000
   13.5248  -16.9881   15.7107 N   0  0  0  0  0  0  0  0  0  0  0  0
   13.1906  -15.6100   15.6776 C   0  0  0  0  0  0  0  0  0  0  0  0
   13.2185  -14.9965   14.5788 O   0  0  0  0  0  0  0  0  0  0  0  0
   12.8025  -14.8270   16.8748 C   0  0  0  0  0  0  0  0  0  0  0  0
   12.8118  -15.7331   18.1130 C   0  0  2  0  0  0  0  0  0  0  0  0
   12.1677  -16.9653   17.7097 N   0  0  0  0  0  0  0  0  0  0  0  0
   12.0137  -15.0687   19.1748 C   0  0  0  0  0  0  0  0  0  0  0  0
   12.3956  -13.9281   19.6029 O   0  0  0  0  0  0  0  0  0  0  0  0
   10.8456  -15.6532   19.7294 N   0  0  0  0  0  0  0  0  0  0  0  0
   10.1707  -15.0322   20.8400 C   0  0  1  0  0  0  0  0  0  0  0  0
    8.7046  -14.9323   20.4855 C   0  0  0  0  0  0  0  0  0  0  0  0
    8.5131  -14.2747   19.1720 C   0  0  0  0  0  0  0  0  0  0  0  0
    8.4481  -12.9336   18.8767 C   0  0  0  0  0  0  0  0  0  0  0  0
    8.2645  -12.7591   17.5563 N   0  0  0  0  0  0  0  0  0  0  0  0
    8.2126  -13.9842   17.0117 C   0  0  0  0  0  0  0  0  0  0  0  0
    8.3637  -14.9028   17.9939 N   0  0  0  0  0  0  0  0  0  0  0  0
   10.3613  -15.7943   22.1013 C   0  0  0  0  0  0  0  0  0  0  0  0
   10.2731  -17.0472   22.0952 O   0  0  0  0  0  0  0  0  0  0  0  0
   10.6434  -15.1676   23.3367 N   0  0  0  0  0  0  0  0  0  0  0  0
   10.7201  -15.9318   24.5712 C   0  0  0  0  0  0  0  0  0  0  0  0
   12.0836  -16.4313   24.8261 C   0  0  0  0  0  0  0  0  0  0  0  0
   12.3942  -17.0461   26.0184 O   0  0  0  0  0  0  0  0  0  0  0  0
   12.9646  -16.2964   23.9545 O   0  0  0  0  0  0  0  0  0  0  0  0
  2  1  1  0
  2  3  2  0
  4  5  1  0
  4  2  1  0
  5  7  1  0
  5  6  1  6
  7  8  2  0
  9  7  1  0
  9 10  1  0
 10 17  1  0
 10 11  1  6
 12 11  1  0
 12 16  1  0
 13 14  1  0
 13 12  2  0
 14 15  1  0
 15 16  2  0
 17 19  1  0
 18 17  2  0
 19 20  1  0
 20 21  1  0
 21 23  2  0
 21 22  1  0
M  END
$$$$
