NHG.pdb
     RDKit          3D

 23 23  0  0  1  0  0  0  0  0999 V2000
   17.8489  -12.7200   17.5215 N   0  0  0  0  0  0  0  0  0  0  0  0
   16.8432  -13.0536   16.5784 C   0  0  0  0  0  0  0  0  0  0  0  0
   17.0991  -12.9649   15.3490 O   0  0  0  0  0  0  0  0  0  0  0  0
   15.4828  -13.5091   16.9506 C   0  0  0  0  0  0  0  0  0  0  0  0
   15.2957  -13.3981   18.4694 C   0  0  2  0  0  0  0  0  0  0  0  0
   16.4764  -13.9917   19.0606 N   0  0  0  0  0  0  0  0  0  0  0  0
   14.0925  -14.1846   18.8430 C   0  0  0  0  0  0  0  0  0  0  0  0
   12.9513  -13.7892   18.4292 O   0  0  0  0  0  0  0  0  0  0  0  0
   14.1645  -15.3560   19.6407 N   0  0  0  0  0  0  0  0  0  0  0  0
   12.9655  -16.0487   20.0370 C   0  0  1  0  0  0  0  0  0  0  0  0
   13.0615  -17.4638   19.5139 C   0  0  0  0  0  0  0  0  0  0  0  0
   13.1274  -17.4862   18.0342 C   0  0  0  0  0  0  0  0  0  0  0  0
   12.1510  -17.1706   17.1194 C   0  0  0  0  0  0  0  0  0  0  0  0
   12.6214  -17.3239   15.8693 N   0  0  0  0  0  0  0  0  0  0  0  0
   13.8930  -17.7358   15.9865 C   0  0  0  0  0  0  0  0  0  0  0  0
   14.1983  -17.8337   17.3012 N   0  0  0  0  0  0  0  0  0  0  0  0
   12.7810  -16.0390   21.5114 C   0  0  0  0  0  0  0  0  0  0  0  0
   11.8543  -16.7093   22.0308 O   0  0  0  0  0  0  0  0  0  0  0  0
   13.6137  -15.2972   22.3801 N   0  0  0  0  0  0  0  0  0  0  0  0
   13.4191  -15.3264   23.8207 C   0  0  0  0  0  0  0  0  0  0  0  0
   14.4290  -16.1614   24.4963 C   0  0  0  0  0  0  0  0  0  0  0  0
   14.4856  -16.2199   25.8708 O   0  0  0  0  0  0  0  0  0  0  0  0
   15.2401  -16.8215   23.8175 O   0  0  0  0  0  0  0  0  0  0  0  0
  2  1  1  0
  2  3  2  0
  4  5  1  0
  4  2  1  0
  5  7  1  0
  5  6  1  1
  7  8  2  0
  9  7  1  0
  9 10  1  0
 10 17  1  0
 10 11  1  1
 12 11  1  0
 12 16  1  0
 13 14  1  0
 13 12  2  0
 14 15  1  0
 15 16  2  0
 17 19  1  0
 18 17  2  0
 19 20  1  0
 20 21  1  0
 21 23  2  0
 21 22  1  0
M  END
$$$$
