NHG.pdb
     RDKit          3D

 23 23  0  0  1  0  0  0  0  0999 V2000
   13.1984  -17.3352   16.7623 N   0  0  0  0  0  0  0  0  0  0  0  0
   12.8771  -15.9652   16.5833 C   0  0  0  0  0  0  0  0  0  0  0  0
   13.1131  -15.4178   15.4746 O   0  0  0  0  0  0  0  0  0  0  0  0
   12.2694  -15.1169   17.6359 C   0  0  0  0  0  0  0  0  0  0  0  0
   12.2857  -15.8622   18.9769 C   0  0  2  0  0  0  0  0  0  0  0  0
   11.5489  -17.0893   18.7595 N   0  0  0  0  0  0  0  0  0  0  0  0
   11.5831  -15.0207   19.9791 C   0  0  0  0  0  0  0  0  0  0  0  0
   12.0725  -13.8774   20.2677 O   0  0  0  0  0  0  0  0  0  0  0  0
   10.3915  -15.4396   20.6257 N   0  0  0  0  0  0  0  0  0  0  0  0
    9.7978  -14.6354   21.6626 C   0  0  1  0  0  0  0  0  0  0  0  0
    8.3176  -14.5355   21.3722 C   0  0  0  0  0  0  0  0  0  0  0  0
    8.0706  -13.9280   20.0439 C   0  0  0  0  0  0  0  0  0  0  0  0
    7.5215  -14.4980   18.9199 C   0  0  0  0  0  0  0  0  0  0  0  0
    7.4745  -13.5991   17.9212 N   0  0  0  0  0  0  0  0  0  0  0  0
    7.9918  -12.4602   18.4066 C   0  0  0  0  0  0  0  0  0  0  0  0
    8.3530  -12.6617   19.6950 N   0  0  0  0  0  0  0  0  0  0  0  0
   10.0364  -15.2073   23.0132 C   0  0  0  0  0  0  0  0  0  0  0  0
    9.4665  -14.7071   24.0146 O   0  0  0  0  0  0  0  0  0  0  0  0
   10.8917  -16.3109   23.2347 N   0  0  0  0  0  0  0  0  0  0  0  0
   11.0158  -16.9183   24.5498 C   0  0  0  0  0  0  0  0  0  0  0  0
   11.9220  -18.0812   24.5363 C   0  0  0  0  0  0  0  0  0  0  0  0
   12.0797  -18.8611   25.6600 O   0  0  0  0  0  0  0  0  0  0  0  0
   12.5521  -18.3621   23.4979 O   0  0  0  0  0  0  0  0  0  0  0  0
  2  1  1  0
  2  3  2  0
  4  5  1  0
  4  2  1  0
  5  7  1  0
  5  6  1  6
  7  8  2  0
  9  7  1  0
  9 10  1  0
 10 17  1  0
 10 11  1  6
 12 11  1  0
 12 16  1  0
 13 14  1  0
 13 12  2  0
 14 15  1  0
 15 16  2  0
 17 19  1  0
 18 17  2  0
 19 20  1  0
 20 21  1  0
 21 23  2  0
 21 22  1  0
M  END
$$$$
