NHG.pdb
     RDKit          3D

 23 23  0  0  1  0  0  0  0  0999 V2000
    9.6376  -15.9737   14.1942 N   0  0  0  0  0  0  0  0  0  0  0  0
    9.0325  -17.0119   14.9479 C   0  0  0  0  0  0  0  0  0  0  0  0
    8.9043  -18.1527   14.4312 O   0  0  0  0  0  0  0  0  0  0  0  0
    8.5303  -16.8407   16.3318 C   0  0  0  0  0  0  0  0  0  0  0  0
    9.6234  -17.2362   17.3333 C   0  0  2  0  0  0  0  0  0  0  0  0
    9.7920  -18.6674   17.1942 N   0  0  0  0  0  0  0  0  0  0  0  0
    9.1345  -16.9145   18.6983 C   0  0  0  0  0  0  0  0  0  0  0  0
    8.2711  -15.9839   18.8345 O   0  0  0  0  0  0  0  0  0  0  0  0
    9.5905  -17.6013   19.8533 N   0  0  0  0  0  0  0  0  0  0  0  0
    9.1091  -17.2375   21.1612 C   0  0  1  0  0  0  0  0  0  0  0  0
    8.6320  -18.5010   21.8401 C   0  0  0  0  0  0  0  0  0  0  0  0
    7.4821  -19.0962   21.1204 C   0  0  0  0  0  0  0  0  0  0  0  0
    6.1401  -18.8385   21.2698 C   0  0  0  0  0  0  0  0  0  0  0  0
    5.4260  -19.5965   20.4194 N   0  0  0  0  0  0  0  0  0  0  0  0
    6.3094  -20.3348   19.7304 C   0  0  0  0  0  0  0  0  0  0  0  0
    7.5568  -20.0298   20.1572 N   0  0  0  0  0  0  0  0  0  0  0  0
   10.1574  -16.5633   21.9703 C   0  0  0  0  0  0  0  0  0  0  0  0
    9.8804  -16.1261   23.1148 O   0  0  0  0  0  0  0  0  0  0  0  0
   11.4812  -16.3843   21.5079 N   0  0  0  0  0  0  0  0  0  0  0  0
   12.4843  -15.7229   22.3267 C   0  0  0  0  0  0  0  0  0  0  0  0
   13.2991  -16.6884   23.0868 C   0  0  0  0  0  0  0  0  0  0  0  0
   14.3978  -16.2690   23.8030 O   0  0  0  0  0  0  0  0  0  0  0  0
   12.9912  -17.8965   23.0818 O   0  0  0  0  0  0  0  0  0  0  0  0
  2  1  1  0
  2  3  2  0
  4  5  1  0
  4  2  1  0
  5  7  1  0
  5  6  1  1
  7  8  2  0
  9  7  1  0
  9 10  1  0
 10 17  1  0
 10 11  1  1
 12 11  1  0
 12 16  1  0
 13 14  1  0
 13 12  2  0
 14 15  1  0
 15 16  2  0
 17 19  1  0
 18 17  2  0
 19 20  1  0
 20 21  1  0
 21 23  2  0
 21 22  1  0
M  END
$$$$
