NHG.pdb
     RDKit          3D

 23 23  0  0  1  0  0  0  0  0999 V2000
   15.8951  -18.3531   18.4930 N   0  0  0  0  0  0  0  0  0  0  0  0
   14.6592  -18.9372   18.8720 C   0  0  0  0  0  0  0  0  0  0  0  0
   14.3419  -20.0624   18.4053 O   0  0  0  0  0  0  0  0  0  0  0  0
   13.6961  -18.2987   19.8002 C   0  0  0  0  0  0  0  0  0  0  0  0
   13.9072  -18.8397   21.2203 C   0  0  2  0  0  0  0  0  0  0  0  0
   13.4147  -20.2010   21.2053 N   0  0  0  0  0  0  0  0  0  0  0  0
   13.0933  -18.0171   22.1513 C   0  0  0  0  0  0  0  0  0  0  0  0
   13.4162  -16.7947   22.3283 O   0  0  0  0  0  0  0  0  0  0  0  0
   11.9731  -18.5384   22.8493 N   0  0  0  0  0  0  0  0  0  0  0  0
   11.1697  -17.6865   23.6879 C   0  0  1  0  0  0  0  0  0  0  0  0
    9.7606  -17.7046   23.1408 C   0  0  0  0  0  0  0  0  0  0  0  0
    9.7236  -17.2344   21.7365 C   0  0  0  0  0  0  0  0  0  0  0  0
    9.8295  -15.9532   21.2495 C   0  0  0  0  0  0  0  0  0  0  0  0
    9.7457  -15.9599   19.9077 N   0  0  0  0  0  0  0  0  0  0  0  0
    9.5869  -17.2406   19.5404 C   0  0  0  0  0  0  0  0  0  0  0  0
    9.5737  -18.0127   20.6517 N   0  0  0  0  0  0  0  0  0  0  0  0
   11.1936  -18.1240   25.1078 C   0  0  0  0  0  0  0  0  0  0  0  0
   10.5538  -17.4764   25.9733 O   0  0  0  0  0  0  0  0  0  0  0  0
   11.9159  -19.2577   25.5453 N   0  0  0  0  0  0  0  0  0  0  0  0
   11.8648  -19.6977   26.9301 C   0  0  0  0  0  0  0  0  0  0  0  0
   13.0678  -19.2945   27.6811 C   0  0  0  0  0  0  0  0  0  0  0  0
   13.2492  -19.6981   28.9850 O   0  0  0  0  0  0  0  0  0  0  0  0
   13.9299  -18.5813   27.1312 O   0  0  0  0  0  0  0  0  0  0  0  0
  2  1  1  0
  2  3  2  0
  4  5  1  0
  4  2  1  0
  5  7  1  0
  5  6  1  6
  7  8  2  0
  9  7  1  0
  9 10  1  0
 10 17  1  0
 10 11  1  6
 12 11  1  0
 12 16  1  0
 13 14  1  0
 13 12  2  0
 14 15  1  0
 15 16  2  0
 17 19  1  0
 18 17  2  0
 19 20  1  0
 20 21  1  0
 21 23  2  0
 21 22  1  0
M  END
$$$$
