NHG.pdb
     RDKit          3D

 23 23  0  0  1  0  0  0  0  0999 V2000
   13.8869  -16.9472   16.4924 N   0  0  0  0  0  0  0  0  0  0  0  0
   13.4706  -15.6052   16.2981 C   0  0  0  0  0  0  0  0  0  0  0  0
   13.7600  -15.0211   15.2212 O   0  0  0  0  0  0  0  0  0  0  0  0
   12.7015  -14.8278   17.2986 C   0  0  0  0  0  0  0  0  0  0  0  0
   12.6400  -15.6020   18.6219 C   0  0  2  0  0  0  0  0  0  0  0  0
   11.9750  -16.8524   18.3211 N   0  0  0  0  0  0  0  0  0  0  0  0
   11.8240  -14.8122   19.5791 C   0  0  0  0  0  0  0  0  0  0  0  0
   12.2691  -13.6830   19.9748 O   0  0  0  0  0  0  0  0  0  0  0  0
   10.5715  -15.2652   20.0686 N   0  0  0  0  0  0  0  0  0  0  0  0
    9.8328  -14.4849   21.0277 C   0  0  1  0  0  0  0  0  0  0  0  0
    8.3816  -14.4955   20.6045 C   0  0  0  0  0  0  0  0  0  0  0  0
    8.2328  -14.0958   19.1858 C   0  0  0  0  0  0  0  0  0  0  0  0
    8.1909  -12.8340   18.6418 C   0  0  0  0  0  0  0  0  0  0  0  0
    8.0447  -12.9102   17.3075 N   0  0  0  0  0  0  0  0  0  0  0  0
    7.9937  -14.2156   17.0018 C   0  0  0  0  0  0  0  0  0  0  0  0
    8.1080  -14.9337   18.1431 N   0  0  0  0  0  0  0  0  0  0  0  0
    9.9871  -15.0120   22.4083 C   0  0  0  0  0  0  0  0  0  0  0  0
    9.2783  -14.5513   23.3374 O   0  0  0  0  0  0  0  0  0  0  0  0
   10.9119  -16.0291   22.7383 N   0  0  0  0  0  0  0  0  0  0  0  0
   11.0925  -16.4691   24.1122 C   0  0  0  0  0  0  0  0  0  0  0  0
   12.4108  -17.0952   24.3215 C   0  0  0  0  0  0  0  0  0  0  0  0
   12.6183  -17.9591   25.3734 O   0  0  0  0  0  0  0  0  0  0  0  0
   13.3474  -16.8408   23.5390 O   0  0  0  0  0  0  0  0  0  0  0  0
  2  1  1  0
  2  3  2  0
  4  5  1  0
  4  2  1  0
  5  7  1  0
  5  6  1  6
  7  8  2  0
  9  7  1  0
  9 10  1  0
 10 17  1  0
 10 11  1  6
 12 11  1  0
 12 16  1  0
 13 14  1  0
 13 12  2  0
 14 15  1  0
 15 16  2  0
 17 19  1  0
 18 17  2  0
 19 20  1  0
 20 21  1  0
 21 23  2  0
 21 22  1  0
M  END
$$$$
