NHG.pdb
     RDKit          3D

 23 23  0  0  1  0  0  0  0  0999 V2000
   10.4803  -16.0847   14.0408 N   0  0  0  0  0  0  0  0  0  0  0  0
   11.5946  -15.8105   14.8746 C   0  0  0  0  0  0  0  0  0  0  0  0
   12.6948  -16.3738   14.6359 O   0  0  0  0  0  0  0  0  0  0  0  0
   11.5501  -14.8860   16.0322 C   0  0  0  0  0  0  0  0  0  0  0  0
   12.1296  -15.5790   17.2725 C   0  0  2  0  0  0  0  0  0  0  0  0
   11.5483  -16.9047   17.2960 N   0  0  0  0  0  0  0  0  0  0  0  0
   11.6967  -14.8150   18.4703 C   0  0  0  0  0  0  0  0  0  0  0  0
   12.1820  -13.6495   18.6599 O   0  0  0  0  0  0  0  0  0  0  0  0
   10.7662  -15.3315   19.4090 N   0  0  0  0  0  0  0  0  0  0  0  0
   10.4260  -14.5839   20.5922 C   0  0  1  0  0  0  0  0  0  0  0  0
    8.9192  -14.5822   20.7139 C   0  0  0  0  0  0  0  0  0  0  0  0
    8.2835  -14.0035   19.5075 C   0  0  0  0  0  0  0  0  0  0  0  0
    8.0079  -12.6875   19.2211 C   0  0  0  0  0  0  0  0  0  0  0  0
    7.4230  -12.5893   18.0146 N   0  0  0  0  0  0  0  0  0  0  0  0
    7.3260  -13.8380   17.5334 C   0  0  0  0  0  0  0  0  0  0  0  0
    7.8488  -14.6949   18.4408 N   0  0  0  0  0  0  0  0  0  0  0  0
   11.0564  -15.1560   21.8101 C   0  0  0  0  0  0  0  0  0  0  0  0
   10.7473  -14.7106   22.9432 O   0  0  0  0  0  0  0  0  0  0  0  0
   12.0081  -16.2000   21.7585 N   0  0  0  0  0  0  0  0  0  0  0  0
   12.5427  -16.7955   22.9724 C   0  0  0  0  0  0  0  0  0  0  0  0
   12.2748  -18.2437   23.0399 C   0  0  0  0  0  0  0  0  0  0  0  0
   12.8266  -19.0136   24.0393 O   0  0  0  0  0  0  0  0  0  0  0  0
   11.5418  -18.7775   22.1844 O   0  0  0  0  0  0  0  0  0  0  0  0
  2  1  1  0
  2  3  2  0
  4  5  1  0
  4  2  1  0
  5  7  1  0
  5  6  1  1
  7  8  2  0
  9  7  1  0
  9 10  1  0
 10 17  1  0
 10 11  1  1
 12 11  1  0
 12 16  1  0
 13 14  1  0
 13 12  2  0
 14 15  1  0
 15 16  2  0
 17 19  1  0
 18 17  2  0
 19 20  1  0
 20 21  1  0
 21 23  2  0
 21 22  1  0
M  END
$$$$
