NHG.pdb
     RDKit          3D

 23 23  0  0  1  0  0  0  0  0999 V2000
   13.8672  -17.7986   16.6777 N   0  0  0  0  0  0  0  0  0  0  0  0
   12.4880  -17.4679   16.7007 C   0  0  0  0  0  0  0  0  0  0  0  0
   11.6821  -18.1420   16.0074 O   0  0  0  0  0  0  0  0  0  0  0  0
   11.9197  -16.3587   17.5030 C   0  0  0  0  0  0  0  0  0  0  0  0
   11.5108  -16.8765   18.8882 C   0  0  2  0  0  0  0  0  0  0  0  0
   10.4680  -17.8537   18.6562 N   0  0  0  0  0  0  0  0  0  0  0  0
   10.9687  -15.7325   19.6650 C   0  0  0  0  0  0  0  0  0  0  0  0
   11.7587  -14.7818   19.9843 O   0  0  0  0  0  0  0  0  0  0  0  0
    9.6091  -15.6577   20.0642 N   0  0  0  0  0  0  0  0  0  0  0  0
    9.1260  -14.5275   20.8151 C   0  0  1  0  0  0  0  0  0  0  0  0
    7.7335  -14.2111   20.3192 C   0  0  0  0  0  0  0  0  0  0  0  0
    7.7230  -13.9851   18.8552 C   0  0  0  0  0  0  0  0  0  0  0  0
    7.9636  -12.8259   18.1565 C   0  0  0  0  0  0  0  0  0  0  0  0
    7.8539  -13.0507   16.8356 N   0  0  0  0  0  0  0  0  0  0  0  0
    7.5446  -14.3484   16.6924 C   0  0  0  0  0  0  0  0  0  0  0  0
    7.4656  -14.9139   17.9192 N   0  0  0  0  0  0  0  0  0  0  0  0
    9.1213  -14.7939   22.2769 C   0  0  0  0  0  0  0  0  0  0  0  0
    8.6297  -13.9490   23.0658 O   0  0  0  0  0  0  0  0  0  0  0  0
    9.6539  -15.9766   22.8391 N   0  0  0  0  0  0  0  0  0  0  0  0
    9.5463  -16.2511   24.2628 C   0  0  0  0  0  0  0  0  0  0  0  0
   10.8437  -16.1149   24.9497 C   0  0  0  0  0  0  0  0  0  0  0  0
   10.9474  -16.3384   26.3044 O   0  0  0  0  0  0  0  0  0  0  0  0
   11.8575  -15.7943   24.2987 O   0  0  0  0  0  0  0  0  0  0  0  0
  2  1  1  0
  2  3  2  0
  4  5  1  0
  4  2  1  0
  5  7  1  0
  5  6  1  6
  7  8  2  0
  9  7  1  0
  9 10  1  0
 10 17  1  0
 10 11  1  6
 12 11  1  0
 12 16  1  0
 13 14  1  0
 13 12  2  0
 14 15  1  0
 15 16  2  0
 17 19  1  0
 18 17  2  0
 19 20  1  0
 20 21  1  0
 21 23  2  0
 21 22  1  0
M  END
$$$$
