NHG.pdb
     RDKit          3D

 23 23  0  0  1  0  0  0  0  0999 V2000
   11.5370  -16.7317   14.2774 N   0  0  0  0  0  0  0  0  0  0  0  0
   11.7334  -16.8720   15.6752 C   0  0  0  0  0  0  0  0  0  0  0  0
   11.8042  -18.0258   16.1737 O   0  0  0  0  0  0  0  0  0  0  0  0
   11.8637  -15.7277   16.6082 C   0  0  0  0  0  0  0  0  0  0  0  0
   11.9772  -16.2429   18.0489 C   0  0  2  0  0  0  0  0  0  0  0  0
   11.2287  -17.4815   18.0891 N   0  0  0  0  0  0  0  0  0  0  0  0
   11.3469  -15.2412   18.9463 C   0  0  0  0  0  0  0  0  0  0  0  0
   11.9365  -14.1227   19.1232 O   0  0  0  0  0  0  0  0  0  0  0  0
   10.1171  -15.4810   19.6125 N   0  0  0  0  0  0  0  0  0  0  0  0
    9.5877  -14.5188   20.5444 C   0  0  1  0  0  0  0  0  0  0  0  0
    8.1187  -14.3429   20.2342 C   0  0  0  0  0  0  0  0  0  0  0  0
    7.9129  -13.9259   18.8278 C   0  0  0  0  0  0  0  0  0  0  0  0
    7.9734  -12.6661   18.2807 C   0  0  0  0  0  0  0  0  0  0  0  0
    7.7229  -12.7224   16.9610 N   0  0  0  0  0  0  0  0  0  0  0  0
    7.5035  -14.0131   16.6677 C   0  0  0  0  0  0  0  0  0  0  0  0
    7.6192  -14.7420   17.8018 N   0  0  0  0  0  0  0  0  0  0  0  0
    9.7854  -14.9452   21.9541 C   0  0  0  0  0  0  0  0  0  0  0  0
    9.2927  -14.2658   22.8887 O   0  0  0  0  0  0  0  0  0  0  0  0
   10.5162  -16.1030   22.3061 N   0  0  0  0  0  0  0  0  0  0  0  0
   10.7499  -16.4547   23.6974 C   0  0  0  0  0  0  0  0  0  0  0  0
   12.1830  -16.4179   24.0418 C   0  0  0  0  0  0  0  0  0  0  0  0
   12.6012  -16.6586   25.3314 O   0  0  0  0  0  0  0  0  0  0  0  0
   13.0252  -16.1667   23.1576 O   0  0  0  0  0  0  0  0  0  0  0  0
  2  1  1  0
  2  3  2  0
  4  5  1  0
  4  2  1  0
  5  7  1  0
  5  6  1  6
  7  8  2  0
  9  7  1  0
  9 10  1  0
 10 17  1  0
 10 11  1  6
 12 11  1  0
 12 16  1  0
 13 14  1  0
 13 12  2  0
 14 15  1  0
 15 16  2  0
 17 19  1  0
 18 17  2  0
 19 20  1  0
 20 21  1  0
 21 23  2  0
 21 22  1  0
M  END
$$$$
