NHG.pdb
     RDKit          3D

 23 23  0  0  1  0  0  0  0  0999 V2000
   12.7939  -19.9353   15.7026 N   0  0  0  0  0  0  0  0  0  0  0  0
   11.9624  -19.3529   16.6933 C   0  0  0  0  0  0  0  0  0  0  0  0
   10.9396  -19.9756   17.0816 O   0  0  0  0  0  0  0  0  0  0  0  0
   12.2219  -18.0328   17.3152 C   0  0  0  0  0  0  0  0  0  0  0  0
   10.9079  -17.2507   17.4406 C   0  0  2  0  0  0  0  0  0  0  0  0
   10.6926  -16.6248   16.1530 N   0  0  0  0  0  0  0  0  0  0  0  0
   11.0899  -16.2105   18.4850 C   0  0  0  0  0  0  0  0  0  0  0  0
   11.8905  -15.2439   18.2516 O   0  0  0  0  0  0  0  0  0  0  0  0
   10.4086  -16.2516   19.7291 N   0  0  0  0  0  0  0  0  0  0  0  0
   10.6019  -15.2111   20.7062 C   0  0  1  0  0  0  0  0  0  0  0  0
    9.2371  -14.6901   21.0948 C   0  0  0  0  0  0  0  0  0  0  0  0
    8.5268  -14.1207   19.9262 C   0  0  0  0  0  0  0  0  0  0  0  0
    7.3697  -14.5520   19.3221 C   0  0  0  0  0  0  0  0  0  0  0  0
    7.0624  -13.7516   18.2865 N   0  0  0  0  0  0  0  0  0  0  0  0
    8.0199  -12.8134   18.2305 C   0  0  0  0  0  0  0  0  0  0  0  0
    8.9078  -13.0390   19.2264 N   0  0  0  0  0  0  0  0  0  0  0  0
   11.3427  -15.7001   21.8979 C   0  0  0  0  0  0  0  0  0  0  0  0
   11.5658  -14.9227   22.8590 O   0  0  0  0  0  0  0  0  0  0  0  0
   11.8206  -17.0259   22.0088 N   0  0  0  0  0  0  0  0  0  0  0  0
   12.6062  -17.4523   23.1555 C   0  0  0  0  0  0  0  0  0  0  0  0
   11.7892  -18.1813   24.1428 C   0  0  0  0  0  0  0  0  0  0  0  0
   12.3664  -18.7191   25.2713 O   0  0  0  0  0  0  0  0  0  0  0  0
   10.5637  -18.3126   23.9551 O   0  0  0  0  0  0  0  0  0  0  0  0
  2  1  1  0
  2  3  2  0
  4  5  1  0
  4  2  1  0
  5  7  1  0
  5  6  1  6
  7  8  2  0
  9  7  1  0
  9 10  1  0
 10 17  1  0
 10 11  1  1
 12 11  1  0
 12 16  1  0
 13 14  1  0
 13 12  2  0
 14 15  1  0
 15 16  2  0
 17 19  1  0
 18 17  2  0
 19 20  1  0
 20 21  1  0
 21 23  2  0
 21 22  1  0
M  END
$$$$
