NHG.pdb
     RDKit          3D

 23 23  0  0  1  0  0  0  0  0999 V2000
    8.4138  -22.3780   20.5004 N   0  0  0  0  0  0  0  0  0  0  0  0
    8.2120  -21.0748   19.9778 C   0  0  0  0  0  0  0  0  0  0  0  0
    7.1237  -20.8029   19.4066 O   0  0  0  0  0  0  0  0  0  0  0  0
    9.2172  -19.9887   20.0607 C   0  0  0  0  0  0  0  0  0  0  0  0
    8.6104  -18.6791   19.5403 C   0  0  2  0  0  0  0  0  0  0  0  0
    8.8248  -18.6821   18.1085 N   0  0  0  0  0  0  0  0  0  0  0  0
    9.3509  -17.5509   20.1606 C   0  0  0  0  0  0  0  0  0  0  0  0
   10.5754  -17.3763   19.8442 O   0  0  0  0  0  0  0  0  0  0  0  0
    8.7492  -16.6626   21.0893 N   0  0  0  0  0  0  0  0  0  0  0  0
    9.4677  -15.5134   21.5766 C   0  0  1  0  0  0  0  0  0  0  0  0
    8.5122  -14.3420   21.5730 C   0  0  0  0  0  0  0  0  0  0  0  0
    8.0840  -14.0023   20.1962 C   0  0  0  0  0  0  0  0  0  0  0  0
    6.8490  -13.5966   19.7490 C   0  0  0  0  0  0  0  0  0  0  0  0
    6.8829  -13.3895   18.4210 N   0  0  0  0  0  0  0  0  0  0  0  0
    8.1349  -13.6621   18.0229 C   0  0  0  0  0  0  0  0  0  0  0  0
    8.8624  -14.0339   19.1016 N   0  0  0  0  0  0  0  0  0  0  0  0
   10.0227  -15.7417   22.9360 C   0  0  0  0  0  0  0  0  0  0  0  0
   10.5962  -14.8038   23.5438 O   0  0  0  0  0  0  0  0  0  0  0  0
    9.9367  -16.9888   23.5962 N   0  0  0  0  0  0  0  0  0  0  0  0
   10.5814  -17.2096   24.8806 C   0  0  0  0  0  0  0  0  0  0  0  0
   11.4489  -18.4015   24.8639 C   0  0  0  0  0  0  0  0  0  0  0  0
   12.1144  -18.8011   26.0012 O   0  0  0  0  0  0  0  0  0  0  0  0
   11.5820  -19.0548   23.8104 O   0  0  0  0  0  0  0  0  0  0  0  0
  2  1  1  0
  2  3  2  0
  4  5  1  0
  4  2  1  0
  5  7  1  0
  5  6  1  6
  7  8  2  0
  9  7  1  0
  9 10  1  0
 10 17  1  0
 10 11  1  1
 12 11  1  0
 12 16  1  0
 13 14  1  0
 13 12  2  0
 14 15  1  0
 15 16  2  0
 17 19  1  0
 18 17  2  0
 19 20  1  0
 20 21  1  0
 21 23  2  0
 21 22  1  0
M  END
$$$$
