NHG.pdb
     RDKit          3D

 23 23  0  0  1  0  0  0  0  0999 V2000
   14.3627  -16.8630   17.0061 N   0  0  0  0  0  0  0  0  0  0  0  0
   13.0560  -16.3246   16.8849 C   0  0  0  0  0  0  0  0  0  0  0  0
   12.3737  -16.5906   15.8610 O   0  0  0  0  0  0  0  0  0  0  0  0
   12.4265  -15.4515   17.9038 C   0  0  0  0  0  0  0  0  0  0  0  0
   12.1202  -16.2660   19.1675 C   0  0  2  0  0  0  0  0  0  0  0  0
   11.1928  -17.3002   18.7596 N   0  0  0  0  0  0  0  0  0  0  0  0
   11.4702  -15.3623   20.1506 C   0  0  0  0  0  0  0  0  0  0  0  0
   12.1413  -14.3805   20.6149 O   0  0  0  0  0  0  0  0  0  0  0  0
   10.1344  -15.5494   20.5917 N   0  0  0  0  0  0  0  0  0  0  0  0
    9.5503  -14.6587   21.5612 C   0  0  1  0  0  0  0  0  0  0  0  0
    8.1233  -14.3951   21.1378 C   0  0  0  0  0  0  0  0  0  0  0  0
    8.0560  -13.9396   19.7299 C   0  0  0  0  0  0  0  0  0  0  0  0
    7.4422  -14.5376   18.6549 C   0  0  0  0  0  0  0  0  0  0  0  0
    7.6188  -13.7941   17.5488 N   0  0  0  0  0  0  0  0  0  0  0  0
    8.3425  -12.7259   17.9170 C   0  0  0  0  0  0  0  0  0  0  0  0
    8.6069  -12.8160   19.2411 N   0  0  0  0  0  0  0  0  0  0  0  0
    9.6010  -15.2235   22.9346 C   0  0  0  0  0  0  0  0  0  0  0  0
    9.0683  -14.6019   23.8874 O   0  0  0  0  0  0  0  0  0  0  0  0
   10.2324  -16.4530   23.2316 N   0  0  0  0  0  0  0  0  0  0  0  0
   10.2400  -16.9914   24.5822 C   0  0  0  0  0  0  0  0  0  0  0  0
   11.5980  -17.0219   25.1556 C   0  0  0  0  0  0  0  0  0  0  0  0
   11.8131  -17.5112   26.4245 O   0  0  0  0  0  0  0  0  0  0  0  0
   12.5615  -16.6008   24.4859 O   0  0  0  0  0  0  0  0  0  0  0  0
  2  1  1  0
  2  3  2  0
  4  5  1  0
  4  2  1  0
  5  7  1  0
  5  6  1  6
  7  8  2  0
  9  7  1  0
  9 10  1  0
 10 17  1  0
 10 11  1  6
 12 11  1  0
 12 16  1  0
 13 14  1  0
 13 12  2  0
 14 15  1  0
 15 16  2  0
 17 19  1  0
 18 17  2  0
 19 20  1  0
 20 21  1  0
 21 23  2  0
 21 22  1  0
M  END
$$$$
