AAE.pdb
     RDKit          3D

 20 19  0  0  1  0  0  0  0  0999 V2000
   17.7283   -9.1708  -19.2702 C   0  0  0  0  0  0  0  0  0  0  0  0
   18.3376  -10.2281  -18.3740 C   0  0  2  0  0  0  0  0  0  0  0  0
   17.3901  -11.1570  -17.8330 N   0  0  0  0  0  0  0  0  0  0  0  0
   19.0596   -9.5533  -17.2371 C   0  0  0  0  0  0  0  0  0  0  0  0
   18.4186   -8.8363  -16.4265 O   0  0  0  0  0  0  0  0  0  0  0  0
   22.4410   -9.6468  -15.5989 C   0  0  0  0  0  0  0  0  0  0  0  0
   21.1002   -9.0550  -15.9518 C   0  0  2  0  0  0  0  0  0  0  0  0
   20.4509   -9.7098  -17.0623 N   0  0  0  0  0  0  0  0  0  0  0  0
   21.1808   -7.5830  -16.2052 C   0  0  0  0  0  0  0  0  0  0  0  0
   21.3054   -7.1258  -17.3747 O   0  0  0  0  0  0  0  0  0  0  0  0
   21.1165   -6.6677  -15.1242 N   0  0  0  0  0  0  0  0  0  0  0  0
   21.2809   -5.2134  -15.3101 C   0  0  1  0  0  0  0  0  0  0  0  0
   19.8721   -4.6778  -15.3904 C   0  0  0  0  0  0  0  0  0  0  0  0
   19.7695   -3.1928  -15.4912 C   0  0  0  0  0  0  0  0  0  0  0  0
   18.3490   -2.8123  -15.5814 C   0  0  0  0  0  0  0  0  0  0  0  0
   17.7979   -2.7085  -16.6902 O   0  0  0  0  0  0  0  0  0  0  0  0
   21.9701   -4.6707  -14.0973 C   0  0  0  0  0  0  0  0  0  0  0  0
   22.5539   -3.4286  -14.1655 O   0  0  0  0  0  0  0  0  0  0  0  0
   17.6298   -2.5713  -14.4329 O   0  0  0  0  0  0  0  0  0  0  0  0
   22.0268   -5.3290  -13.0149 O   0  0  0  0  0  0  0  0  0  0  0  0
  2  1  1  1
  2  3  1  0
  4  8  1  0
  4  2  1  0
  5  4  2  0
  7  6  1  6
  7  9  1  0
  7  8  1  0
  9 11  1  0
 10  9  2  0
 11 12  1  0
 12 13  1  1
 13 14  1  0
 14 15  1  0
 15 19  1  0
 15 16  2  0
 17 12  1  0
 17 18  1  0
 20 17  2  0
M  END
$$$$
