AAE.pdb
     RDKit          3D

 20 19  0  0  1  0  0  0  0  0999 V2000
   17.9491  -12.7924  -15.3291 C   0  0  0  0  0  0  0  0  0  0  0  0
   18.3050  -11.9236  -16.5169 C   0  0  2  0  0  0  0  0  0  0  0  0
   18.5953  -12.6555  -17.7142 N   0  0  0  0  0  0  0  0  0  0  0  0
   19.4985  -11.0743  -16.1655 C   0  0  0  0  0  0  0  0  0  0  0  0
   19.4605  -10.3302  -15.1521 O   0  0  0  0  0  0  0  0  0  0  0  0
   23.1250  -10.8569  -17.0294 C   0  0  0  0  0  0  0  0  0  0  0  0
   21.8049  -10.3043  -16.5555 C   0  0  2  0  0  0  0  0  0  0  0  0
   20.6667  -11.0963  -16.9565 N   0  0  0  0  0  0  0  0  0  0  0  0
   21.6061   -8.8809  -16.9698 C   0  0  0  0  0  0  0  0  0  0  0  0
   20.9184   -8.5844  -17.9853 O   0  0  0  0  0  0  0  0  0  0  0  0
   22.1923   -7.8302  -16.2194 N   0  0  0  0  0  0  0  0  0  0  0  0
   22.1591   -6.4253  -16.6686 C   0  0  1  0  0  0  0  0  0  0  0  0
   22.4892   -5.6225  -15.4339 C   0  0  0  0  0  0  0  0  0  0  0  0
   21.3851   -5.5230  -14.4355 C   0  0  0  0  0  0  0  0  0  0  0  0
   21.8973   -4.8817  -13.2119 C   0  0  0  0  0  0  0  0  0  0  0  0
   21.6179   -3.6970  -12.9622 O   0  0  0  0  0  0  0  0  0  0  0  0
   23.2292   -6.2479  -17.6999 C   0  0  0  0  0  0  0  0  0  0  0  0
   23.0399   -5.3259  -18.7013 O   0  0  0  0  0  0  0  0  0  0  0  0
   22.6879   -5.5979  -12.3422 O   0  0  0  0  0  0  0  0  0  0  0  0
   24.3001   -6.9264  -17.6699 O   0  0  0  0  0  0  0  0  0  0  0  0
  2  1  1  1
  2  3  1  0
  4  8  1  0
  4  2  1  0
  5  4  2  0
  7  6  1  6
  7  9  1  0
  7  8  1  0
  9 11  1  0
 10  9  2  0
 11 12  1  0
 12 13  1  1
 13 14  1  0
 14 15  1  0
 15 19  1  0
 15 16  2  0
 17 12  1  0
 17 18  1  0
 20 17  2  0
M  END
$$$$
