AAE.pdb
     RDKit          3D

 20 19  0  0  1  0  0  0  0  0999 V2000
   18.2666  -11.9518  -14.9901 C   0  0  0  0  0  0  0  0  0  0  0  0
   17.1021  -11.0706  -15.3896 C   0  0  2  0  0  0  0  0  0  0  0  0
   16.5229  -11.4013  -16.6578 N   0  0  0  0  0  0  0  0  0  0  0  0
   17.5598   -9.6358  -15.4241 C   0  0  0  0  0  0  0  0  0  0  0  0
   18.4103   -9.2705  -16.2758 O   0  0  0  0  0  0  0  0  0  0  0  0
   16.6522   -6.3400  -13.8484 C   0  0  0  0  0  0  0  0  0  0  0  0
   17.5375   -7.3285  -14.5637 C   0  0  2  0  0  0  0  0  0  0  0  0
   17.0506   -8.6863  -14.5130 N   0  0  0  0  0  0  0  0  0  0  0  0
   18.9513   -7.2762  -14.0781 C   0  0  0  0  0  0  0  0  0  0  0  0
   19.3534   -8.0312  -13.1505 O   0  0  0  0  0  0  0  0  0  0  0  0
   19.8728   -6.3686  -14.6592 N   0  0  0  0  0  0  0  0  0  0  0  0
   21.2760   -6.2742  -14.2131 C   0  0  1  0  0  0  0  0  0  0  0  0
   22.0898   -6.5261  -15.4590 C   0  0  0  0  0  0  0  0  0  0  0  0
   23.5650   -6.3895  -15.2839 C   0  0  0  0  0  0  0  0  0  0  0  0
   24.2307   -6.6594  -16.5703 C   0  0  0  0  0  0  0  0  0  0  0  0
   24.3852   -7.8284  -16.9619 O   0  0  0  0  0  0  0  0  0  0  0  0
   21.5077   -4.8803  -13.7195 C   0  0  0  0  0  0  0  0  0  0  0  0
   22.5200   -4.6549  -12.8178 O   0  0  0  0  0  0  0  0  0  0  0  0
   24.6827   -5.6125  -17.3410 O   0  0  0  0  0  0  0  0  0  0  0  0
   20.7939   -3.9087  -14.1128 O   0  0  0  0  0  0  0  0  0  0  0  0
  2  1  1  6
  2  3  1  0
  4  8  1  0
  4  2  1  0
  5  4  2  0
  7  6  1  1
  7  9  1  0
  7  8  1  0
  9 11  1  0
 10  9  2  0
 11 12  1  0
 12 13  1  6
 13 14  1  0
 14 15  1  0
 15 19  1  0
 15 16  2  0
 17 12  1  0
 17 18  1  0
 20 17  2  0
M  END
$$$$
