AAE.pdb
     RDKit          3D

 20 19  0  0  1  0  0  0  0  0999 V2000
   18.3029  -12.4288  -17.0760 C   0  0  0  0  0  0  0  0  0  0  0  0
   19.2797  -11.4183  -17.6388 C   0  0  2  0  0  0  0  0  0  0  0  0
   20.3182  -11.9901  -18.4437 N   0  0  0  0  0  0  0  0  0  0  0  0
   19.9100  -10.6569  -16.5020 C   0  0  0  0  0  0  0  0  0  0  0  0
   19.1858   -9.9978  -15.7125 O   0  0  0  0  0  0  0  0  0  0  0  0
   23.2526  -10.3856  -14.8068 C   0  0  0  0  0  0  0  0  0  0  0  0
   21.8674   -9.9340  -15.1941 C   0  0  2  0  0  0  0  0  0  0  0  0
   21.3070  -10.6675  -16.3038 N   0  0  0  0  0  0  0  0  0  0  0  0
   21.8085   -8.4656  -15.4728 C   0  0  0  0  0  0  0  0  0  0  0  0
   21.9208   -8.0169  -16.6467 O   0  0  0  0  0  0  0  0  0  0  0  0
   21.6221   -7.5443  -14.4112 N   0  0  0  0  0  0  0  0  0  0  0  0
   21.6249   -6.0842  -14.6233 C   0  0  1  0  0  0  0  0  0  0  0  0
   20.1871   -5.7405  -14.9273 C   0  0  0  0  0  0  0  0  0  0  0  0
   19.9095   -4.2831  -15.0850 C   0  0  0  0  0  0  0  0  0  0  0  0
   18.4897   -4.0971  -15.4316 C   0  0  0  0  0  0  0  0  0  0  0  0
   17.7618   -5.0824  -15.6399 O   0  0  0  0  0  0  0  0  0  0  0  0
   22.0503   -5.4354  -13.3433 C   0  0  0  0  0  0  0  0  0  0  0  0
   21.9910   -6.1624  -12.1787 O   0  0  0  0  0  0  0  0  0  0  0  0
   17.9677   -2.8270  -15.5248 O   0  0  0  0  0  0  0  0  0  0  0  0
   22.4614   -4.2361  -13.3107 O   0  0  0  0  0  0  0  0  0  0  0  0
  2  1  1  1
  2  3  1  0
  4  8  1  0
  4  2  1  0
  5  4  2  0
  7  6  1  6
  7  9  1  0
  7  8  1  0
  9 11  1  0
 10  9  2  0
 11 12  1  0
 12 13  1  1
 13 14  1  0
 14 15  1  0
 15 19  1  0
 15 16  2  0
 17 12  1  0
 17 18  1  0
 20 17  2  0
M  END
$$$$
