AAE.pdb
     RDKit          3D

 20 19  0  0  1  0  0  0  0  0999 V2000
   18.4474  -11.0757  -18.1837 C   0  0  0  0  0  0  0  0  0  0  0  0
   19.2148  -11.9088  -17.1792 C   0  0  2  0  0  0  0  0  0  0  0  0
   18.4085  -12.8465  -16.4553 N   0  0  0  0  0  0  0  0  0  0  0  0
   19.8942  -10.9919  -16.1959 C   0  0  0  0  0  0  0  0  0  0  0  0
   19.2044  -10.2289  -15.4720 O   0  0  0  0  0  0  0  0  0  0  0  0
   23.3066  -10.5137  -14.7032 C   0  0  0  0  0  0  0  0  0  0  0  0
   21.9066  -10.1065  -15.0863 C   0  0  2  0  0  0  0  0  0  0  0  0
   21.2994  -10.9709  -16.0700 N   0  0  0  0  0  0  0  0  0  0  0  0
   21.8368   -8.6847  -15.5456 C   0  0  0  0  0  0  0  0  0  0  0  0
   21.9291   -8.3863  -16.7682 O   0  0  0  0  0  0  0  0  0  0  0  0
   21.6627   -7.6381  -14.6049 N   0  0  0  0  0  0  0  0  0  0  0  0
   21.6296   -6.2174  -15.0016 C   0  0  1  0  0  0  0  0  0  0  0  0
   20.1653   -5.9117  -15.2019 C   0  0  0  0  0  0  0  0  0  0  0  0
   19.8533   -4.4762  -15.4624 C   0  0  0  0  0  0  0  0  0  0  0  0
   18.3967   -4.3199  -15.6204 C   0  0  0  0  0  0  0  0  0  0  0  0
   17.7107   -5.2578  -16.0604 O   0  0  0  0  0  0  0  0  0  0  0  0
   22.1735   -5.4107  -13.8642 C   0  0  0  0  0  0  0  0  0  0  0  0
   22.5936   -4.1244  -14.1037 O   0  0  0  0  0  0  0  0  0  0  0  0
   17.7941   -3.1306  -15.2790 O   0  0  0  0  0  0  0  0  0  0  0  0
   22.2548   -5.8861  -12.6913 O   0  0  0  0  0  0  0  0  0  0  0  0
  2  1  1  6
  2  3  1  0
  4  8  1  0
  4  2  1  0
  5  4  2  0
  7  6  1  6
  7  9  1  0
  7  8  1  0
  9 11  1  0
 10  9  2  0
 11 12  1  0
 12 13  1  1
 13 14  1  0
 14 15  1  0
 15 19  1  0
 15 16  2  0
 17 12  1  0
 17 18  1  0
 20 17  2  0
M  END
$$$$
