AAE.pdb
     RDKit          3D

 20 19  0  0  1  0  0  0  0  0999 V2000
   18.2530  -12.0102  -17.2712 C   0  0  0  0  0  0  0  0  0  0  0  0
   19.1416  -10.9311  -17.8528 C   0  0  2  0  0  0  0  0  0  0  0  0
   20.1539  -11.4194  -18.7416 N   0  0  0  0  0  0  0  0  0  0  0  0
   19.8043  -10.1799  -16.7278 C   0  0  0  0  0  0  0  0  0  0  0  0
   19.1002   -9.6234  -15.8465 O   0  0  0  0  0  0  0  0  0  0  0  0
   23.1888   -9.8295  -15.1854 C   0  0  0  0  0  0  0  0  0  0  0  0
   21.8027   -9.3590  -15.5458 C   0  0  2  0  0  0  0  0  0  0  0  0
   21.2097  -10.0866  -16.6423 N   0  0  0  0  0  0  0  0  0  0  0  0
   21.7591   -7.8904  -15.8265 C   0  0  0  0  0  0  0  0  0  0  0  0
   21.9900   -7.4374  -16.9814 O   0  0  0  0  0  0  0  0  0  0  0  0
   21.4531   -6.9738  -14.7889 N   0  0  0  0  0  0  0  0  0  0  0  0
   21.5273   -5.5126  -14.9788 C   0  0  1  0  0  0  0  0  0  0  0  0
   20.0891   -5.0697  -15.0938 C   0  0  0  0  0  0  0  0  0  0  0  0
   19.8943   -3.5967  -15.2281 C   0  0  0  0  0  0  0  0  0  0  0  0
   18.4614   -3.3153  -15.4241 C   0  0  0  0  0  0  0  0  0  0  0  0
   17.6474   -4.2492  -15.5194 O   0  0  0  0  0  0  0  0  0  0  0  0
   22.1520   -4.9218  -13.7537 C   0  0  0  0  0  0  0  0  0  0  0  0
   22.7325   -3.6790  -13.8378 O   0  0  0  0  0  0  0  0  0  0  0  0
   18.0231   -2.0129  -15.5017 O   0  0  0  0  0  0  0  0  0  0  0  0
   22.1574   -5.5400  -12.6464 O   0  0  0  0  0  0  0  0  0  0  0  0
  2  1  1  1
  2  3  1  0
  4  8  1  0
  4  2  1  0
  5  4  2  0
  7  6  1  6
  7  9  1  0
  7  8  1  0
  9 11  1  0
 10  9  2  0
 11 12  1  0
 12 13  1  1
 13 14  1  0
 14 15  1  0
 15 19  1  0
 15 16  2  0
 17 12  1  0
 17 18  1  0
 20 17  2  0
M  END
$$$$
