AAE.pdb
     RDKit          3D

 20 19  0  0  1  0  0  0  0  0999 V2000
   32.1181   -8.8787  -19.4812 C   0  0  0  0  0  0  0  0  0  0  0  0
   31.9391   -9.4935  -18.1092 C   0  0  2  0  0  0  0  0  0  0  0  0
   30.5789   -9.7936  -17.7728 N   0  0  0  0  0  0  0  0  0  0  0  0
   32.5001   -8.5555  -17.0725 C   0  0  0  0  0  0  0  0  0  0  0  0
   31.8331   -7.5529  -16.7092 O   0  0  0  0  0  0  0  0  0  0  0  0
   35.3962   -8.4049  -14.6759 C   0  0  0  0  0  0  0  0  0  0  0  0
   34.2709   -7.8514  -15.5127 C   0  0  2  0  0  0  0  0  0  0  0  0
   33.7687   -8.7801  -16.4970 N   0  0  0  0  0  0  0  0  0  0  0  0
   34.6386   -6.5602  -16.1720 C   0  0  0  0  0  0  0  0  0  0  0  0
   35.1334   -6.5351  -17.3325 O   0  0  0  0  0  0  0  0  0  0  0  0
   34.4337   -5.3301  -15.4971 N   0  0  0  0  0  0  0  0  0  0  0  0
   34.8841   -4.0398  -16.0532 C   0  0  1  0  0  0  0  0  0  0  0  0
   33.6702   -3.1464  -15.9744 C   0  0  0  0  0  0  0  0  0  0  0  0
   33.8528   -1.7858  -16.5587 C   0  0  0  0  0  0  0  0  0  0  0  0
   32.6152   -1.0091  -16.3690 C   0  0  0  0  0  0  0  0  0  0  0  0
   31.8686   -0.7757  -17.3343 O   0  0  0  0  0  0  0  0  0  0  0  0
   35.9701   -3.5128  -15.1682 C   0  0  0  0  0  0  0  0  0  0  0  0
   37.0992   -2.9838  -15.7459 O   0  0  0  0  0  0  0  0  0  0  0  0
   32.2850   -0.5409  -15.1176 O   0  0  0  0  0  0  0  0  0  0  0  0
   35.8713   -3.5443  -13.9043 O   0  0  0  0  0  0  0  0  0  0  0  0
  2  1  1  6
  2  3  1  0
  4  8  1  0
  4  2  1  0
  5  4  2  0
  7  6  1  6
  7  9  1  0
  7  8  1  0
  9 11  1  0
 10  9  2  0
 11 12  1  0
 12 13  1  1
 13 14  1  0
 14 15  1  0
 15 19  1  0
 15 16  2  0
 17 12  1  0
 17 18  1  0
 20 17  2  0
M  END
$$$$
