AAE.pdb
     RDKit          3D

 20 19  0  0  1  0  0  0  0  0999 V2000
   18.0040  -12.3891  -18.0439 C   0  0  0  0  0  0  0  0  0  0  0  0
   18.6560  -12.9270  -16.7877 C   0  0  2  0  0  0  0  0  0  0  0  0
   17.7357  -13.4792  -15.8383 N   0  0  0  0  0  0  0  0  0  0  0  0
   19.4328  -11.8202  -16.1238 C   0  0  0  0  0  0  0  0  0  0  0  0
   18.8209  -10.8784  -15.5576 O   0  0  0  0  0  0  0  0  0  0  0  0
   22.9510  -11.1043  -15.0496 C   0  0  0  0  0  0  0  0  0  0  0  0
   21.5480  -10.7435  -15.4670 C   0  0  2  0  0  0  0  0  0  0  0  0
   20.8439  -11.8182  -16.1249 N   0  0  0  0  0  0  0  0  0  0  0  0
   21.5097   -9.5138  -16.3177 C   0  0  0  0  0  0  0  0  0  0  0  0
   21.5117   -9.5887  -17.5773 O   0  0  0  0  0  0  0  0  0  0  0  0
   21.4688   -8.2305  -15.7162 N   0  0  0  0  0  0  0  0  0  0  0  0
   21.4795   -6.9862  -16.5090 C   0  0  1  0  0  0  0  0  0  0  0  0
   20.6858   -6.0021  -15.6846 C   0  0  0  0  0  0  0  0  0  0  0  0
   20.6382   -4.6162  -16.2348 C   0  0  0  0  0  0  0  0  0  0  0  0
   19.9364   -3.7415  -15.2792 C   0  0  0  0  0  0  0  0  0  0  0  0
   18.7403   -3.9420  -15.0089 O   0  0  0  0  0  0  0  0  0  0  0  0
   22.9001   -6.5305  -16.6286 C   0  0  0  0  0  0  0  0  0  0  0  0
   23.2672   -5.7803  -17.7199 O   0  0  0  0  0  0  0  0  0  0  0  0
   20.6087   -2.6986  -14.6836 O   0  0  0  0  0  0  0  0  0  0  0  0
   23.7673   -6.8206  -15.7499 O   0  0  0  0  0  0  0  0  0  0  0  0
  2  1  1  6
  2  3  1  0
  4  8  1  0
  4  2  1  0
  5  4  2  0
  7  6  1  6
  7  9  1  0
  7  8  1  0
  9 11  1  0
 10  9  2  0
 11 12  1  0
 12 13  1  1
 13 14  1  0
 14 15  1  0
 15 19  1  0
 15 16  2  0
 17 12  1  0
 17 18  1  0
 20 17  2  0
M  END
$$$$
