AAE.pdb
     RDKit          3D

 20 19  0  0  1  0  0  0  0  0999 V2000
   17.8083  -13.5178  -16.6835 C   0  0  0  0  0  0  0  0  0  0  0  0
   18.1465  -12.6153  -15.5158 C   0  0  2  0  0  0  0  0  0  0  0  0
   17.0368  -12.3249  -14.6569 N   0  0  0  0  0  0  0  0  0  0  0  0
   18.7058  -11.3191  -16.0414 C   0  0  0  0  0  0  0  0  0  0  0  0
   19.7731  -11.3222  -16.7071 O   0  0  0  0  0  0  0  0  0  0  0  0
   17.5976   -7.8333  -16.6922 C   0  0  0  0  0  0  0  0  0  0  0  0
   18.6236   -8.8739  -16.3220 C   0  0  2  0  0  0  0  0  0  0  0  0
   18.0523  -10.0922  -15.7997 N   0  0  0  0  0  0  0  0  0  0  0  0
   19.6490   -8.3437  -15.3707 C   0  0  0  0  0  0  0  0  0  0  0  0
   19.5535   -8.5412  -14.1281 O   0  0  0  0  0  0  0  0  0  0  0  0
   20.7575   -7.6040  -15.8551 N   0  0  0  0  0  0  0  0  0  0  0  0
   21.7444   -6.9792  -14.9537 C   0  0  1  0  0  0  0  0  0  0  0  0
   22.9000   -6.6096  -15.8512 C   0  0  0  0  0  0  0  0  0  0  0  0
   24.0158   -5.8875  -15.1735 C   0  0  0  0  0  0  0  0  0  0  0  0
   24.9902   -5.4453  -16.1863 C   0  0  0  0  0  0  0  0  0  0  0  0
   25.3235   -4.2503  -16.2546 O   0  0  0  0  0  0  0  0  0  0  0  0
   21.1234   -5.7447  -14.3785 C   0  0  0  0  0  0  0  0  0  0  0  0
   21.5333   -5.3100  -13.1410 O   0  0  0  0  0  0  0  0  0  0  0  0
   25.5333   -6.3598  -17.0599 O   0  0  0  0  0  0  0  0  0  0  0  0
   20.2320   -5.0955  -15.0048 O   0  0  0  0  0  0  0  0  0  0  0  0
  2  1  1  6
  2  3  1  0
  4  8  1  0
  4  2  1  0
  5  4  2  0
  7  6  1  1
  7  9  1  0
  7  8  1  0
  9 11  1  0
 10  9  2  0
 11 12  1  0
 12 13  1  6
 13 14  1  0
 14 15  1  0
 15 19  1  0
 15 16  2  0
 17 12  1  0
 17 18  1  0
 20 17  2  0
M  END
$$$$
