AAE.pdb
     RDKit          3D

 20 19  0  0  1  0  0  0  0  0999 V2000
   22.5100  -34.4298  -11.3909 C   0  0  0  0  0  0  0  0  0  0  0  0
   23.9842  -34.0851  -11.4042 C   0  0  2  0  0  0  0  0  0  0  0  0
   24.8125  -35.0704  -12.0338 N   0  0  0  0  0  0  0  0  0  0  0  0
   24.4563  -33.8874   -9.9874 C   0  0  0  0  0  0  0  0  0  0  0  0
   24.8980  -34.8663   -9.3325 O   0  0  0  0  0  0  0  0  0  0  0  0
   24.9850  -31.0464   -7.5555 C   0  0  0  0  0  0  0  0  0  0  0  0
   24.8469  -32.4785   -8.0057 C   0  0  2  0  0  0  0  0  0  0  0  0
   24.4119  -32.6169   -9.3751 N   0  0  0  0  0  0  0  0  0  0  0  0
   23.9534  -33.2708   -7.1051 C   0  0  0  0  0  0  0  0  0  0  0  0
   22.7141  -33.3598   -7.3255 O   0  0  0  0  0  0  0  0  0  0  0  0
   24.4902  -33.9430   -5.9779 N   0  0  0  0  0  0  0  0  0  0  0  0
   23.6432  -34.6809   -5.0214 C   0  0  1  0  0  0  0  0  0  0  0  0
   24.6156  -35.2803   -4.0350 C   0  0  0  0  0  0  0  0  0  0  0  0
   23.9974  -36.1534   -2.9950 C   0  0  0  0  0  0  0  0  0  0  0  0
   25.0444  -36.6124   -2.0656 C   0  0  0  0  0  0  0  0  0  0  0  0
   26.0365  -35.8995   -1.8388 O   0  0  0  0  0  0  0  0  0  0  0  0
   22.7570  -33.6898   -4.3338 C   0  0  0  0  0  0  0  0  0  0  0  0
   21.5445  -34.1115   -3.8435 O   0  0  0  0  0  0  0  0  0  0  0  0
   24.9227  -37.8355   -1.4463 O   0  0  0  0  0  0  0  0  0  0  0  0
   23.0989  -32.4765   -4.1954 O   0  0  0  0  0  0  0  0  0  0  0  0
  2  1  1  1
  2  3  1  0
  4  8  1  0
  4  2  1  0
  5  4  2  0
  7  6  1  1
  7  9  1  0
  7  8  1  0
  9 11  1  0
 10  9  2  0
 11 12  1  0
 12 13  1  1
 13 14  1  0
 14 15  1  0
 15 19  1  0
 15 16  2  0
 17 12  1  0
 17 18  1  0
 20 17  2  0
M  END
$$$$
