AAE.pdb
     RDKit          3D

 20 19  0  0  1  0  0  0  0  0999 V2000
   15.1890  -13.4731  -12.8872 C   0  0  0  0  0  0  0  0  0  0  0  0
   16.4094  -12.8838  -12.2121 C   0  0  2  0  0  0  0  0  0  0  0  0
   16.7322  -13.4857  -10.9524 N   0  0  0  0  0  0  0  0  0  0  0  0
   16.1921  -11.4079  -12.0036 C   0  0  0  0  0  0  0  0  0  0  0  0
   16.3434  -10.6110  -12.9649 O   0  0  0  0  0  0  0  0  0  0  0  0
   14.5087   -9.1076   -9.6540 C   0  0  0  0  0  0  0  0  0  0  0  0
   15.6381   -9.4741  -10.5829 C   0  0  2  0  0  0  0  0  0  0  0  0
   15.8201  -10.8972  -10.7419 N   0  0  0  0  0  0  0  0  0  0  0  0
   16.9304   -8.8374  -10.1807 C   0  0  0  0  0  0  0  0  0  0  0  0
   17.7197   -9.4079   -9.3783 O   0  0  0  0  0  0  0  0  0  0  0  0
   17.2941   -7.5695  -10.7010 N   0  0  0  0  0  0  0  0  0  0  0  0
   18.5405   -6.8836  -10.3101 C   0  0  1  0  0  0  0  0  0  0  0  0
   19.4072   -6.9350  -11.5446 C   0  0  0  0  0  0  0  0  0  0  0  0
   20.6723   -6.1490  -11.4571 C   0  0  0  0  0  0  0  0  0  0  0  0
   21.4379   -6.3267  -12.7033 C   0  0  0  0  0  0  0  0  0  0  0  0
   21.8746   -7.4473  -13.0154 O   0  0  0  0  0  0  0  0  0  0  0  0
   18.1989   -5.4645   -9.9791 C   0  0  0  0  0  0  0  0  0  0  0  0
   18.9740   -4.7906   -9.0661 O   0  0  0  0  0  0  0  0  0  0  0  0
   21.6699   -5.2470  -13.5248 O   0  0  0  0  0  0  0  0  0  0  0  0
   17.2151   -4.8744  -10.5195 O   0  0  0  0  0  0  0  0  0  0  0  0
  2  1  1  1
  2  3  1  0
  4  8  1  0
  4  2  1  0
  5  4  2  0
  7  6  1  1
  7  9  1  0
  7  8  1  0
  9 11  1  0
 10  9  2  0
 11 12  1  0
 12 13  1  6
 13 14  1  0
 14 15  1  0
 15 19  1  0
 15 16  2  0
 17 12  1  0
 17 18  1  0
 20 17  2  0
M  END
$$$$
