AAE.pdb
     RDKit          3D

 20 19  0  0  1  0  0  0  0  0999 V2000
   19.6012  -12.7056  -18.6926 C   0  0  0  0  0  0  0  0  0  0  0  0
   20.6723  -11.6582  -18.9112 C   0  0  2  0  0  0  0  0  0  0  0  0
   21.8950  -12.1724  -19.4532 N   0  0  0  0  0  0  0  0  0  0  0  0
   20.9703  -10.9779  -17.6006 C   0  0  0  0  0  0  0  0  0  0  0  0
   20.0460  -10.4056  -16.9681 O   0  0  0  0  0  0  0  0  0  0  0  0
   23.7786  -10.7221  -15.1188 C   0  0  0  0  0  0  0  0  0  0  0  0
   22.5235  -10.2744  -15.8237 C   0  0  2  0  0  0  0  0  0  0  0  0
   22.2755  -10.9691  -17.0644 N   0  0  0  0  0  0  0  0  0  0  0  0
   22.5006   -8.7967  -16.0541 C   0  0  0  0  0  0  0  0  0  0  0  0
   22.9841   -8.2902  -17.1038 O   0  0  0  0  0  0  0  0  0  0  0  0
   21.9281   -7.9320  -15.0872 N   0  0  0  0  0  0  0  0  0  0  0  0
   21.9166   -6.4654  -15.2477 C   0  0  1  0  0  0  0  0  0  0  0  0
   20.5468   -6.1530  -15.7990 C   0  0  0  0  0  0  0  0  0  0  0  0
   20.2186   -4.6999  -15.8798 C   0  0  0  0  0  0  0  0  0  0  0  0
   18.8248   -4.5443  -16.3313 C   0  0  0  0  0  0  0  0  0  0  0  0
   17.9633   -4.0919  -15.5586 O   0  0  0  0  0  0  0  0  0  0  0  0
   22.0778   -5.8540  -13.8911 C   0  0  0  0  0  0  0  0  0  0  0  0
   21.7087   -6.5830  -12.7862 O   0  0  0  0  0  0  0  0  0  0  0  0
   18.4761   -4.9012  -17.6140 O   0  0  0  0  0  0  0  0  0  0  0  0
   22.5444   -4.6845  -13.7403 O   0  0  0  0  0  0  0  0  0  0  0  0
  2  1  1  1
  2  3  1  0
  4  8  1  0
  4  2  1  0
  5  4  2  0
  7  6  1  6
  7  9  1  0
  7  8  1  0
  9 11  1  0
 10  9  2  0
 11 12  1  0
 12 13  1  1
 13 14  1  0
 14 15  1  0
 15 19  1  0
 15 16  2  0
 17 12  1  0
 17 18  1  0
 20 17  2  0
M  END
$$$$
