AAE.pdb
     RDKit          3D

 20 19  0  0  1  0  0  0  0  0999 V2000
   18.4447  -12.3170  -17.1917 C   0  0  0  0  0  0  0  0  0  0  0  0
   19.8624  -11.9664  -17.5913 C   0  0  2  0  0  0  0  0  0  0  0  0
   20.6978  -13.1015  -17.8495 N   0  0  0  0  0  0  0  0  0  0  0  0
   20.4908  -11.1390  -16.5005 C   0  0  0  0  0  0  0  0  0  0  0  0
   19.7617  -10.4761  -15.7188 O   0  0  0  0  0  0  0  0  0  0  0  0
   23.9071  -10.5220  -15.0261 C   0  0  0  0  0  0  0  0  0  0  0  0
   22.4539  -10.2430  -15.3138 C   0  0  2  0  0  0  0  0  0  0  0  0
   21.8916  -11.0915  -16.3372 N   0  0  0  0  0  0  0  0  0  0  0  0
   22.2101   -8.8067  -15.6528 C   0  0  0  0  0  0  0  0  0  0  0  0
   22.1517   -8.4176  -16.8517 O   0  0  0  0  0  0  0  0  0  0  0  0
   22.0375   -7.8490  -14.6215 N   0  0  0  0  0  0  0  0  0  0  0  0
   21.7975   -6.4206  -14.9024 C   0  0  1  0  0  0  0  0  0  0  0  0
   20.3244   -6.3370  -15.2202 C   0  0  0  0  0  0  0  0  0  0  0  0
   19.7817   -4.9511  -15.3231 C   0  0  0  0  0  0  0  0  0  0  0  0
   18.3360   -5.0182  -15.5992 C   0  0  0  0  0  0  0  0  0  0  0  0
   17.7811   -6.1172  -15.7667 O   0  0  0  0  0  0  0  0  0  0  0  0
   22.1001   -5.6505  -13.6552 C   0  0  0  0  0  0  0  0  0  0  0  0
   22.0657   -6.3037  -12.4467 O   0  0  0  0  0  0  0  0  0  0  0  0
   17.5976   -3.8590  -15.6713 O   0  0  0  0  0  0  0  0  0  0  0  0
   22.3853   -4.4153  -13.6896 O   0  0  0  0  0  0  0  0  0  0  0  0
  2  1  1  1
  2  3  1  0
  4  8  1  0
  4  2  1  0
  5  4  2  0
  7  6  1  6
  7  9  1  0
  7  8  1  0
  9 11  1  0
 10  9  2  0
 11 12  1  0
 12 13  1  1
 13 14  1  0
 14 15  1  0
 15 19  1  0
 15 16  2  0
 17 12  1  0
 17 18  1  0
 20 17  2  0
M  END
$$$$
