CVC.pdb
     RDKit          3D

 20 19  0  0  1  0  0  0  0  0999 V2000
    6.6451  -16.5755   21.6561 N   0  0  0  0  0  0  0  0  0  0  0  0
    6.3914  -16.7021   23.0786 C   0  0  1  0  0  0  0  0  0  0  0  0
    6.5205  -18.1611   23.4285 C   0  0  0  0  0  0  0  0  0  0  0  0
    5.0147  -18.9893   22.7871 S   0  0  0  0  0  0  0  0  0  0  0  0
    7.2685  -15.8295   23.8755 C   0  0  0  0  0  0  0  0  0  0  0  0
    8.4514  -15.6383   23.5191 O   0  0  0  0  0  0  0  0  0  0  0  0
    6.0560  -12.5046   25.6867 C   0  0  0  0  0  0  0  0  0  0  0  0
    6.8861  -13.3938   26.5705 C   0  0  2  0  0  0  0  0  0  0  0  0
    7.6713  -12.5694   27.5649 C   0  0  0  0  0  0  0  0  0  0  0  0
    7.7414  -14.3920   25.8398 C   0  0  2  0  0  0  0  0  0  0  0  0
    6.8225  -15.1905   25.0427 N   0  0  0  0  0  0  0  0  0  0  0  0
    8.6119  -15.2188   26.6744 C   0  0  0  0  0  0  0  0  0  0  0  0
    8.1320  -16.1515   27.4172 O   0  0  0  0  0  0  0  0  0  0  0  0
   10.0200  -15.0948   26.7553 N   0  0  0  0  0  0  0  0  0  0  0  0
   10.8314  -15.9950   27.5898 C   0  0  1  0  0  0  0  0  0  0  0  0
   12.2520  -16.0579   27.0701 C   0  0  0  0  0  0  0  0  0  0  0  0
   12.2216  -16.3949   25.2945 S   0  0  0  0  0  0  0  0  0  0  0  0
   10.7987  -15.4603   28.9748 C   0  0  0  0  0  0  0  0  0  0  0  0
   10.2674  -14.3351   29.2337 O   0  0  0  0  0  0  0  0  0  0  0  0
   11.3353  -16.1407   30.0549 O   0  0  0  0  0  0  0  0  0  0  0  0
  2  1  1  6
  2  3  1  0
  4  3  1  0
  5  2  1  0
  6  5  2  0
  8  7  1  6
  8 10  1  0
  9  8  1  0
 10 12  1  0
 10 11  1  1
 11  5  1  0
 12 14  1  0
 13 12  2  0
 14 15  1  0
 15 16  1  6
 17 16  1  0
 18 15  1  0
 19 18  2  0
 20 18  1  0
M  END
$$$$
