CVC.pdb
     RDKit          3D

 20 19  0  0  1  0  0  0  0  0999 V2000
    7.8352  -13.9541   20.2160 N   0  0  0  0  0  0  0  0  0  0  0  0
    7.1704  -14.6325   21.3123 C   0  0  1  0  0  0  0  0  0  0  0  0
    7.0955  -16.0935   20.9554 C   0  0  0  0  0  0  0  0  0  0  0  0
    6.1713  -16.9172   22.3089 S   0  0  0  0  0  0  0  0  0  0  0  0
    7.8329  -14.3784   22.6016 C   0  0  0  0  0  0  0  0  0  0  0  0
    9.0810  -14.3741   22.6732 O   0  0  0  0  0  0  0  0  0  0  0  0
    6.5269  -11.8623   25.4629 C   0  0  0  0  0  0  0  0  0  0  0  0
    6.8655  -13.2443   25.9487 C   0  0  2  0  0  0  0  0  0  0  0  0
    7.3379  -13.2012   27.3839 C   0  0  0  0  0  0  0  0  0  0  0  0
    7.7938  -14.0198   25.0548 C   0  0  2  0  0  0  0  0  0  0  0  0
    7.1064  -14.1358   23.7776 N   0  0  0  0  0  0  0  0  0  0  0  0
    8.2358  -15.3168   25.5649 C   0  0  0  0  0  0  0  0  0  0  0  0
    7.4269  -16.3126   25.6421 O   0  0  0  0  0  0  0  0  0  0  0  0
    9.5467  -15.6130   26.0103 N   0  0  0  0  0  0  0  0  0  0  0  0
    9.9216  -16.9559   26.4804 C   0  0  1  0  0  0  0  0  0  0  0  0
   11.1732  -17.4315   25.7738 C   0  0  0  0  0  0  0  0  0  0  0  0
   11.7695  -18.9405   26.5706 S   0  0  0  0  0  0  0  0  0  0  0  0
   10.1449  -16.8632   27.9456 C   0  0  0  0  0  0  0  0  0  0  0  0
   10.4279  -15.7549   28.4995 O   0  0  0  0  0  0  0  0  0  0  0  0
   10.0607  -17.9587   28.7884 O   0  0  0  0  0  0  0  0  0  0  0  0
  2  1  1  6
  2  3  1  0
  4  3  1  0
  5  2  1  0
  6  5  2  0
  8  7  1  6
  8 10  1  0
  9  8  1  0
 10 12  1  0
 10 11  1  6
 11  5  1  0
 12 14  1  0
 13 12  2  0
 14 15  1  0
 15 16  1  6
 17 16  1  0
 18 15  1  0
 19 18  2  0
 20 18  1  0
M  END
$$$$
