CVC.pdb
     RDKit          3D

 20 19  0  0  1  0  0  0  0  0999 V2000
    7.4926  -18.6578   17.6614 N   0  0  0  0  0  0  0  0  0  0  0  0
    7.1095  -18.2533   19.0007 C   0  0  1  0  0  0  0  0  0  0  0  0
    7.1050  -19.4911   19.8583 C   0  0  0  0  0  0  0  0  0  0  0  0
    5.7077  -20.5272   19.2762 S   0  0  0  0  0  0  0  0  0  0  0  0
    7.9744  -17.1831   19.5226 C   0  0  0  0  0  0  0  0  0  0  0  0
    9.2072  -17.2199   19.3186 O   0  0  0  0  0  0  0  0  0  0  0  0
    7.0024  -13.4078   19.3870 C   0  0  0  0  0  0  0  0  0  0  0  0
    7.5474  -13.7927   20.7344 C   0  0  2  0  0  0  0  0  0  0  0  0
    8.2799  -12.6291   21.3625 C   0  0  0  0  0  0  0  0  0  0  0  0
    8.3517  -15.0634   20.7526 C   0  0  2  0  0  0  0  0  0  0  0  0
    7.4615  -16.1011   20.2547 N   0  0  0  0  0  0  0  0  0  0  0  0
    8.9533  -15.4198   22.0367 C   0  0  0  0  0  0  0  0  0  0  0  0
    8.2261  -15.7510   23.0434 O   0  0  0  0  0  0  0  0  0  0  0  0
   10.3429  -15.4426   22.3067 N   0  0  0  0  0  0  0  0  0  0  0  0
   10.8907  -16.1072   23.4998 C   0  0  1  0  0  0  0  0  0  0  0  0
   10.4952  -17.5684   23.5177 C   0  0  0  0  0  0  0  0  0  0  0  0
   10.6145  -18.1966   25.2084 S   0  0  0  0  0  0  0  0  0  0  0  0
   12.3674  -15.9601   23.4468 C   0  0  0  0  0  0  0  0  0  0  0  0
   13.0822  -16.1160   24.4861 O   0  0  0  0  0  0  0  0  0  0  0  0
   13.0494  -15.6491   22.2825 O   0  0  0  0  0  0  0  0  0  0  0  0
  2  1  1  6
  2  3  1  0
  4  3  1  0
  5  2  1  0
  6  5  2  0
  8  7  1  6
  8 10  1  0
  9  8  1  0
 10 12  1  0
 10 11  1  1
 11  5  1  0
 12 14  1  0
 13 12  2  0
 14 15  1  0
 15 16  1  6
 17 16  1  0
 18 15  1  0
 19 18  2  0
 20 18  1  0
M  END
$$$$
