CVC.pdb
     RDKit          3D

 20 19  0  0  1  0  0  0  0  0999 V2000
    6.6429  -18.3423   22.7343 N   0  0  0  0  0  0  0  0  0  0  0  0
    6.7706  -17.8757   24.1017 C   0  0  1  0  0  0  0  0  0  0  0  0
    7.3275  -19.0153   24.9136 C   0  0  0  0  0  0  0  0  0  0  0  0
    5.8884  -19.9259   25.5951 S   0  0  0  0  0  0  0  0  0  0  0  0
    7.5733  -16.6456   24.1925 C   0  0  0  0  0  0  0  0  0  0  0  0
    8.5615  -16.4870   23.4433 O   0  0  0  0  0  0  0  0  0  0  0  0
    6.6098  -13.3634   26.9255 C   0  0  0  0  0  0  0  0  0  0  0  0
    7.1735  -13.3048   25.5329 C   0  0  2  0  0  0  0  0  0  0  0  0
    6.0668  -13.1197   24.5199 C   0  0  0  0  0  0  0  0  0  0  0  0
    8.1028  -14.4328   25.1780 C   0  0  2  0  0  0  0  0  0  0  0  0
    7.2689  -15.6228   25.1040 N   0  0  0  0  0  0  0  0  0  0  0  0
    9.2514  -14.6164   26.0641 C   0  0  0  0  0  0  0  0  0  0  0  0
   10.2067  -13.7575   26.1021 O   0  0  0  0  0  0  0  0  0  0  0  0
    9.4344  -15.7103   26.9440 N   0  0  0  0  0  0  0  0  0  0  0  0
   10.6522  -15.8571   27.7567 C   0  0  1  0  0  0  0  0  0  0  0  0
   10.3511  -15.5755   29.2134 C   0  0  0  0  0  0  0  0  0  0  0  0
    9.8584  -13.8459   29.3958 S   0  0  0  0  0  0  0  0  0  0  0  0
   11.1367  -17.2492   27.5768 C   0  0  0  0  0  0  0  0  0  0  0  0
   10.5713  -18.0427   26.7607 O   0  0  0  0  0  0  0  0  0  0  0  0
   12.2166  -17.7641   28.2741 O   0  0  0  0  0  0  0  0  0  0  0  0
  2  1  1  6
  2  3  1  0
  4  3  1  0
  5  2  1  0
  6  5  2  0
  8  7  1  1
  8 10  1  0
  9  8  1  0
 10 12  1  0
 10 11  1  1
 11  5  1  0
 12 14  1  0
 13 12  2  0
 14 15  1  0
 15 16  1  1
 17 16  1  0
 18 15  1  0
 19 18  2  0
 20 18  1  0
M  END
$$$$
