CVC.pdb
     RDKit          3D

 20 19  0  0  1  0  0  0  0  0999 V2000
    7.8784  -16.8754   21.4408 N   0  0  0  0  0  0  0  0  0  0  0  0
    7.1484  -16.8539   22.6940 C   0  0  1  0  0  0  0  0  0  0  0  0
    7.0017  -18.2812   23.1514 C   0  0  0  0  0  0  0  0  0  0  0  0
    5.9884  -18.2403   24.6799 S   0  0  0  0  0  0  0  0  0  0  0  0
    7.7899  -15.9828   23.6916 C   0  0  0  0  0  0  0  0  0  0  0  0
    9.0355  -15.9637   23.7965 O   0  0  0  0  0  0  0  0  0  0  0  0
    6.2928  -12.3831   24.7605 C   0  0  0  0  0  0  0  0  0  0  0  0
    6.7358  -13.2516   25.9052 C   0  0  2  0  0  0  0  0  0  0  0  0
    7.2064  -12.4027   27.0640 C   0  0  0  0  0  0  0  0  0  0  0  0
    7.7182  -14.3298   25.5385 C   0  0  2  0  0  0  0  0  0  0  0  0
    7.0457  -15.1560   24.5473 N   0  0  0  0  0  0  0  0  0  0  0  0
    8.2446  -15.1190   26.6512 C   0  0  0  0  0  0  0  0  0  0  0  0
    7.5325  -16.0249   27.2203 O   0  0  0  0  0  0  0  0  0  0  0  0
    9.5413  -14.9842   27.2034 N   0  0  0  0  0  0  0  0  0  0  0  0
   10.0361  -15.8902   28.2519 C   0  0  1  0  0  0  0  0  0  0  0  0
   11.1632  -16.7486   27.7181 C   0  0  0  0  0  0  0  0  0  0  0  0
   11.6362  -17.9587   28.9748 S   0  0  0  0  0  0  0  0  0  0  0  0
   10.5042  -15.0449   29.3795 C   0  0  0  0  0  0  0  0  0  0  0  0
   10.7851  -13.8171   29.2094 O   0  0  0  0  0  0  0  0  0  0  0  0
   10.6621  -15.5308   30.6666 O   0  0  0  0  0  0  0  0  0  0  0  0
  2  1  1  6
  2  3  1  0
  4  3  1  0
  5  2  1  0
  6  5  2  0
  8  7  1  6
  8 10  1  0
  9  8  1  0
 10 12  1  0
 10 11  1  6
 11  5  1  0
 12 14  1  0
 13 12  2  0
 14 15  1  0
 15 16  1  6
 17 16  1  0
 18 15  1  0
 19 18  2  0
 20 18  1  0
M  END
$$$$
