CVC.pdb
     RDKit          3D

 20 19  0  0  1  0  0  0  0  0999 V2000
    7.9705  -15.4904   20.8244 N   0  0  0  0  0  0  0  0  0  0  0  0
    7.3701  -15.8836   22.0849 C   0  0  1  0  0  0  0  0  0  0  0  0
    7.4387  -17.3859   22.1643 C   0  0  0  0  0  0  0  0  0  0  0  0
    5.7592  -18.0090   21.7699 S   0  0  0  0  0  0  0  0  0  0  0  0
    7.9996  -15.2079   23.2307 C   0  0  0  0  0  0  0  0  0  0  0  0
    9.2407  -15.0627   23.2665 O   0  0  0  0  0  0  0  0  0  0  0  0
    6.3829  -12.0950   25.2070 C   0  0  0  0  0  0  0  0  0  0  0  0
    6.8905  -13.2035   26.0869 C   0  0  2  0  0  0  0  0  0  0  0  0
    7.3450  -12.6563   27.4207 C   0  0  0  0  0  0  0  0  0  0  0  0
    7.9147  -14.1005   25.4477 C   0  0  2  0  0  0  0  0  0  0  0  0
    7.2485  -14.7097   24.3065 N   0  0  0  0  0  0  0  0  0  0  0  0
    8.5288  -15.0954   26.3257 C   0  0  0  0  0  0  0  0  0  0  0  0
    7.8715  -16.1236   26.7288 O   0  0  0  0  0  0  0  0  0  0  0  0
    9.8585  -15.0447   26.8092 N   0  0  0  0  0  0  0  0  0  0  0  0
   10.4577  -16.1656   27.5507 C   0  0  1  0  0  0  0  0  0  0  0  0
   11.8595  -16.4402   27.0489 C   0  0  0  0  0  0  0  0  0  0  0  0
   12.7926  -14.8926   27.0129 S   0  0  0  0  0  0  0  0  0  0  0  0
   10.4754  -15.7848   28.9859 C   0  0  0  0  0  0  0  0  0  0  0  0
   10.1413  -14.6176   29.3615 O   0  0  0  0  0  0  0  0  0  0  0  0
   10.8505  -16.6612   29.9903 O   0  0  0  0  0  0  0  0  0  0  0  0
  2  1  1  6
  2  3  1  0
  4  3  1  0
  5  2  1  0
  6  5  2  0
  8  7  1  6
  8 10  1  0
  9  8  1  0
 10 12  1  0
 10 11  1  6
 11  5  1  0
 12 14  1  0
 13 12  2  0
 14 15  1  0
 15 16  1  6
 17 16  1  0
 18 15  1  0
 19 18  2  0
 20 18  1  0
M  END
$$$$
