CVC.pdb
     RDKit          3D

 20 19  0  0  1  0  0  0  0  0999 V2000
    6.3682  -15.4068   19.0600 N   0  0  0  0  0  0  0  0  0  0  0  0
    7.4594  -15.0201   19.9339 C   0  0  1  0  0  0  0  0  0  0  0  0
    7.8700  -13.6239   19.5466 C   0  0  0  0  0  0  0  0  0  0  0  0
    9.3196  -13.1964   20.5861 S   0  0  0  0  0  0  0  0  0  0  0  0
    7.1015  -15.1516   21.3552 C   0  0  0  0  0  0  0  0  0  0  0  0
    6.0142  -14.6959   21.7711 O   0  0  0  0  0  0  0  0  0  0  0  0
    6.4301  -18.1597   22.7591 C   0  0  0  0  0  0  0  0  0  0  0  0
    7.3612  -17.5266   23.7556 C   0  0  2  0  0  0  0  0  0  0  0  0
    7.0222  -17.9762   25.1584 C   0  0  0  0  0  0  0  0  0  0  0  0
    7.4914  -16.0327   23.6400 C   0  0  2  0  0  0  0  0  0  0  0  0
    7.9478  -15.7803   22.2816 N   0  0  0  0  0  0  0  0  0  0  0  0
    8.3423  -15.3869   24.6384 C   0  0  0  0  0  0  0  0  0  0  0  0
    9.6234  -15.4144   24.5393 O   0  0  0  0  0  0  0  0  0  0  0  0
    7.8745  -14.6866   25.7766 N   0  0  0  0  0  0  0  0  0  0  0  0
    8.7976  -14.1250   26.7755 C   0  0  1  0  0  0  0  0  0  0  0  0
    8.1009  -13.0621   27.5982 C   0  0  0  0  0  0  0  0  0  0  0  0
    7.0295  -12.0829   26.5209 S   0  0  0  0  0  0  0  0  0  0  0  0
    9.2506  -15.2470   27.6364 C   0  0  0  0  0  0  0  0  0  0  0  0
    8.7053  -16.3928   27.5656 O   0  0  0  0  0  0  0  0  0  0  0  0
   10.2783  -15.1199   28.5558 O   0  0  0  0  0  0  0  0  0  0  0  0
  2  1  1  6
  2  3  1  0
  4  3  1  0
  5  2  1  0
  6  5  2  0
  8  7  1  6
  8 10  1  0
  9  8  1  0
 10 12  1  0
 10 11  1  6
 11  5  1  0
 12 14  1  0
 13 12  2  0
 14 15  1  0
 15 16  1  1
 17 16  1  0
 18 15  1  0
 19 18  2  0
 20 18  1  0
M  END
$$$$
