CVC.pdb
     RDKit          3D

 20 19  0  0  1  0  0  0  0  0999 V2000
    8.6855  -14.7243   20.3891 N   0  0  0  0  0  0  0  0  0  0  0  0
    8.1605  -15.4446   21.5334 C   0  0  1  0  0  0  0  0  0  0  0  0
    8.5901  -16.8812   21.3940 C   0  0  0  0  0  0  0  0  0  0  0  0
    7.8337  -17.7929   22.7945 S   0  0  0  0  0  0  0  0  0  0  0  0
    8.5711  -14.8321   22.8070 C   0  0  0  0  0  0  0  0  0  0  0  0
    9.7345  -14.3958   22.9447 O   0  0  0  0  0  0  0  0  0  0  0  0
    6.3474  -12.3895   25.0393 C   0  0  0  0  0  0  0  0  0  0  0  0
    6.9470  -13.5395   25.7999 C   0  0  2  0  0  0  0  0  0  0  0  0
    7.1844  -13.1552   27.2424 C   0  0  0  0  0  0  0  0  0  0  0  0
    8.1567  -14.1611   25.1579 C   0  0  2  0  0  0  0  0  0  0  0  0
    7.6924  -14.7153   23.8951 N   0  0  0  0  0  0  0  0  0  0  0  0
    8.8719  -15.1481   25.9655 C   0  0  0  0  0  0  0  0  0  0  0  0
    8.4661  -16.3651   26.0427 O   0  0  0  0  0  0  0  0  0  0  0  0
   10.0420  -14.8896   26.7196 N   0  0  0  0  0  0  0  0  0  0  0  0
   10.7935  -15.9686   27.3800 C   0  0  1  0  0  0  0  0  0  0  0  0
   11.9946  -15.4046   28.1091 C   0  0  0  0  0  0  0  0  0  0  0  0
   11.4350  -14.1994   29.3345 S   0  0  0  0  0  0  0  0  0  0  0  0
    9.8652  -16.6355   28.3280 C   0  0  0  0  0  0  0  0  0  0  0  0
    8.7713  -16.0882   28.6730 O   0  0  0  0  0  0  0  0  0  0  0  0
   10.1265  -17.8749   28.8875 O   0  0  0  0  0  0  0  0  0  0  0  0
  2  1  1  6
  2  3  1  0
  4  3  1  0
  5  2  1  0
  6  5  2  0
  8  7  1  6
  8 10  1  0
  9  8  1  0
 10 12  1  0
 10 11  1  6
 11  5  1  0
 12 14  1  0
 13 12  2  0
 14 15  1  0
 15 16  1  1
 17 16  1  0
 18 15  1  0
 19 18  2  0
 20 18  1  0
M  END
$$$$
