CVC.pdb
     RDKit          3D

 20 19  0  0  1  0  0  0  0  0999 V2000
   12.7115  -14.5353   18.6615 N   0  0  0  0  0  0  0  0  0  0  0  0
   12.2713  -15.4310   19.7140 C   0  0  1  0  0  0  0  0  0  0  0  0
   13.5039  -16.0398   20.3286 C   0  0  0  0  0  0  0  0  0  0  0  0
   14.0241  -17.4043   19.2185 S   0  0  0  0  0  0  0  0  0  0  0  0
   11.4052  -14.7516   20.6907 C   0  0  0  0  0  0  0  0  0  0  0  0
   11.6988  -13.6062   21.0966 O   0  0  0  0  0  0  0  0  0  0  0  0
    7.6984  -14.0777   20.3907 C   0  0  0  0  0  0  0  0  0  0  0  0
    7.9996  -14.7890   21.6807 C   0  0  2  0  0  0  0  0  0  0  0  0
    6.9804  -14.4269   22.7367 C   0  0  0  0  0  0  0  0  0  0  0  0
    9.4157  -14.6457   22.1669 C   0  0  2  0  0  0  0  0  0  0  0  0
   10.2396  -15.3487   21.1953 N   0  0  0  0  0  0  0  0  0  0  0  0
    9.6693  -15.0945   23.5351 C   0  0  0  0  0  0  0  0  0  0  0  0
   10.0220  -16.3051   23.7840 O   0  0  0  0  0  0  0  0  0  0  0  0
    9.5629  -14.2839   24.6911 N   0  0  0  0  0  0  0  0  0  0  0  0
    9.8168  -14.8172   26.0388 C   0  0  1  0  0  0  0  0  0  0  0  0
    9.4613  -13.7865   27.0891 C   0  0  0  0  0  0  0  0  0  0  0  0
   10.4358  -14.0954   28.5799 S   0  0  0  0  0  0  0  0  0  0  0  0
    8.9852  -16.0377   26.1933 C   0  0  0  0  0  0  0  0  0  0  0  0
    7.7670  -16.0544   25.8315 O   0  0  0  0  0  0  0  0  0  0  0  0
    9.4743  -17.2158   26.7322 O   0  0  0  0  0  0  0  0  0  0  0  0
  2  1  1  6
  2  3  1  0
  4  3  1  0
  5  2  1  0
  6  5  2  0
  8  7  1  6
  8 10  1  0
  9  8  1  0
 10 12  1  0
 10 11  1  6
 11  5  1  0
 12 14  1  0
 13 12  2  0
 14 15  1  0
 15 16  1  1
 17 16  1  0
 18 15  1  0
 19 18  2  0
 20 18  1  0
M  END
$$$$
