CVC.pdb
     RDKit          3D

 20 19  0  0  1  0  0  0  0  0999 V2000
    5.7608  -18.2779   19.9267 N   0  0  0  0  0  0  0  0  0  0  0  0
    7.0224  -18.3745   19.2177 C   0  0  1  0  0  0  0  0  0  0  0  0
    6.7026  -18.5713   17.7593 C   0  0  0  0  0  0  0  0  0  0  0  0
    8.0550  -19.5938   17.0592 S   0  0  0  0  0  0  0  0  0  0  0  0
    7.8905  -17.2144   19.4749 C   0  0  0  0  0  0  0  0  0  0  0  0
    9.0540  -17.1905   19.0183 O   0  0  0  0  0  0  0  0  0  0  0  0
    7.0178  -13.4898   19.0995 C   0  0  0  0  0  0  0  0  0  0  0  0
    7.5934  -13.7678   20.4604 C   0  0  2  0  0  0  0  0  0  0  0  0
    8.3542  -12.5652   20.9703 C   0  0  0  0  0  0  0  0  0  0  0  0
    8.3845  -15.0426   20.5648 C   0  0  2  0  0  0  0  0  0  0  0  0
    7.4569  -16.1116   20.2269 N   0  0  0  0  0  0  0  0  0  0  0  0
    9.0546  -15.2752   21.8434 C   0  0  0  0  0  0  0  0  0  0  0  0
    8.3908  -15.3297   22.9426 O   0  0  0  0  0  0  0  0  0  0  0  0
   10.4482  -15.4612   22.0105 N   0  0  0  0  0  0  0  0  0  0  0  0
   11.0141  -16.0109   23.2526 C   0  0  1  0  0  0  0  0  0  0  0  0
   10.4065  -17.3641   23.5551 C   0  0  0  0  0  0  0  0  0  0  0  0
   10.7541  -17.8017   25.2741 S   0  0  0  0  0  0  0  0  0  0  0  0
   12.4818  -16.1227   23.0561 C   0  0  0  0  0  0  0  0  0  0  0  0
   13.2773  -16.1635   24.0465 O   0  0  0  0  0  0  0  0  0  0  0  0
   13.0684  -16.1886   21.8036 O   0  0  0  0  0  0  0  0  0  0  0  0
  2  1  1  1
  2  3  1  0
  4  3  1  0
  5  2  1  0
  6  5  2  0
  8  7  1  6
  8 10  1  0
  9  8  1  0
 10 12  1  0
 10 11  1  1
 11  5  1  0
 12 14  1  0
 13 12  2  0
 14 15  1  0
 15 16  1  6
 17 16  1  0
 18 15  1  0
 19 18  2  0
 20 18  1  0
M  END
$$$$
