DVP.pdb
     RDKit          3D

 23 23  0  0  1  0  0  0  0  0999 V2000
    9.8088  -15.4187   20.3862 N   0  0  0  0  0  0  0  0  0  0  0  0
    9.5075  -16.1953   21.5463 C   0  0  1  0  0  0  0  0  0  0  0  0
   10.4603  -17.3436   21.7211 C   0  0  0  0  0  0  0  0  0  0  0  0
   10.2628  -18.3667   20.6503 C   0  0  0  0  0  0  0  0  0  0  0  0
   10.8463  -18.3088   19.5585 O   0  0  0  0  0  0  0  0  0  0  0  0
    9.5387  -15.3757   22.7997 C   0  0  0  0  0  0  0  0  0  0  0  0
   10.4971  -14.5840   23.0008 O   0  0  0  0  0  0  0  0  0  0  0  0
    9.3898  -19.4219   20.8932 O   0  0  0  0  0  0  0  0  0  0  0  0
    6.7752  -14.1421   26.6437 C   0  0  0  0  0  0  0  0  0  0  0  0
    7.1141  -14.2504   25.1856 C   0  0  1  0  0  0  0  0  0  0  0  0
    6.5766  -13.1900   24.3146 C   0  0  0  0  0  0  0  0  0  0  0  0
    8.5739  -14.6075   25.0065 C   0  0  2  0  0  0  0  0  0  0  0  0
    8.5374  -15.4470   23.7768 N   0  0  0  0  0  0  0  0  0  0  0  0
    9.1673  -15.4269   26.0541 C   0  0  0  0  0  0  0  0  0  0  0  0
    8.9945  -16.7167   25.9903 O   0  0  0  0  0  0  0  0  0  0  0  0
    9.9366  -15.0151   27.1734 N   0  0  0  0  0  0  0  0  0  0  0  0
   10.0327  -13.5707   27.5029 C   0  0  0  0  0  0  0  0  0  0  0  0
   10.4087  -13.5135   28.9581 C   0  0  0  0  0  0  0  0  0  0  0  0
   11.2222  -14.7680   29.1791 C   0  0  0  0  0  0  0  0  0  0  0  0
   10.6830  -15.7545   28.1498 C   0  0  1  0  0  0  0  0  0  0  0  0
    9.8284  -16.6896   28.9487 C   0  0  0  0  0  0  0  0  0  0  0  0
    8.5842  -16.6884   28.9477 O   0  0  0  0  0  0  0  0  0  0  0  0
   10.4883  -17.6145   29.7389 O   0  0  0  0  0  0  0  0  0  0  0  0
  2  1  1  6
  2  3  1  0
  3  4  1  0
  4  5  2  0
  6 13  1  0
  6  2  1  0
  7  6  2  0
  8  4  1  0
 10  9  1  1
 10 12  1  0
 11 10  1  0
 12 14  1  0
 12 13  1  6
 14 16  1  0
 15 14  2  0
 16 17  1  0
 16 20  1  0
 17 18  1  0
 18 19  1  0
 20 19  1  0
 20 21  1  1
 21 23  1  0
 22 21  2  0
M  END
$$$$
