DVP.pdb
     RDKit          3D

 23 23  0  0  1  0  0  0  0  0999 V2000
   10.2458  -15.4713   20.2160 N   0  0  0  0  0  0  0  0  0  0  0  0
   10.0772  -16.2639   21.3920 C   0  0  1  0  0  0  0  0  0  0  0  0
   11.2067  -17.2353   21.5859 C   0  0  0  0  0  0  0  0  0  0  0  0
   11.3145  -18.1653   20.4216 C   0  0  0  0  0  0  0  0  0  0  0  0
   10.3433  -18.4532   19.7074 O   0  0  0  0  0  0  0  0  0  0  0  0
    9.9727  -15.4258   22.6291 C   0  0  0  0  0  0  0  0  0  0  0  0
   10.7345  -14.4336   22.7737 O   0  0  0  0  0  0  0  0  0  0  0  0
   12.5539  -18.7264   20.1325 O   0  0  0  0  0  0  0  0  0  0  0  0
    6.8699  -14.1943   26.1415 C   0  0  0  0  0  0  0  0  0  0  0  0
    7.3899  -14.4995   24.7672 C   0  0  1  0  0  0  0  0  0  0  0  0
    6.9124  -13.6221   23.6836 C   0  0  0  0  0  0  0  0  0  0  0  0
    8.8762  -14.7810   24.8138 C   0  0  2  0  0  0  0  0  0  0  0  0
    9.0537  -15.6952   23.6515 N   0  0  0  0  0  0  0  0  0  0  0  0
    9.3570  -15.4983   25.9866 C   0  0  0  0  0  0  0  0  0  0  0  0
    9.2240  -16.7943   26.0051 O   0  0  0  0  0  0  0  0  0  0  0  0
    9.9742  -14.9774   27.1536 N   0  0  0  0  0  0  0  0  0  0  0  0
    9.8951  -13.5219   27.4347 C   0  0  0  0  0  0  0  0  0  0  0  0
   10.1267  -13.3841   28.9145 C   0  0  0  0  0  0  0  0  0  0  0  0
   11.0369  -14.5416   29.2553 C   0  0  0  0  0  0  0  0  0  0  0  0
   10.6965  -15.6077   28.2205 C   0  0  1  0  0  0  0  0  0  0  0  0
    9.8687  -16.6019   28.9750 C   0  0  0  0  0  0  0  0  0  0  0  0
    8.6367  -16.7313   28.8594 O   0  0  0  0  0  0  0  0  0  0  0  0
   10.5403  -17.4273   29.8598 O   0  0  0  0  0  0  0  0  0  0  0  0
  2  1  1  6
  2  3  1  0
  3  4  1  0
  4  5  2  0
  6 13  1  0
  6  2  1  0
  7  6  2  0
  8  4  1  0
 10  9  1  1
 10 12  1  0
 11 10  1  0
 12 14  1  0
 12 13  1  6
 14 16  1  0
 15 14  2  0
 16 17  1  0
 16 20  1  0
 17 18  1  0
 18 19  1  0
 20 19  1  0
 20 21  1  1
 21 23  1  0
 22 21  2  0
M  END
$$$$
