DVP.pdb
     RDKit          3D

 23 23  0  0  1  0  0  0  0  0999 V2000
    5.7505  -19.7161   24.5561 N   0  0  0  0  0  0  0  0  0  0  0  0
    6.8846  -18.8598   24.6981 C   0  0  1  0  0  0  0  0  0  0  0  0
    8.1270  -19.4642   24.1081 C   0  0  0  0  0  0  0  0  0  0  0  0
    8.9325  -20.1566   25.1587 C   0  0  0  0  0  0  0  0  0  0  0  0
   10.1077  -20.5048   24.9749 O   0  0  0  0  0  0  0  0  0  0  0  0
    6.6702  -17.5251   24.0528 C   0  0  0  0  0  0  0  0  0  0  0  0
    5.8337  -17.4140   23.1181 O   0  0  0  0  0  0  0  0  0  0  0  0
    8.3363  -20.4179   26.3879 O   0  0  0  0  0  0  0  0  0  0  0  0
    6.4973  -13.9900   25.8493 C   0  0  0  0  0  0  0  0  0  0  0  0
    7.5797  -14.0803   24.8136 C   0  0  1  0  0  0  0  0  0  0  0  0
    8.9609  -14.1465   25.3234 C   0  0  0  0  0  0  0  0  0  0  0  0
    7.2004  -15.0737   23.7365 C   0  0  2  0  0  0  0  0  0  0  0  0
    7.3660  -16.3738   24.4438 N   0  0  0  0  0  0  0  0  0  0  0  0
    8.0710  -15.1189   22.5700 C   0  0  0  0  0  0  0  0  0  0  0  0
    9.1017  -15.9150   22.6094 O   0  0  0  0  0  0  0  0  0  0  0  0
    7.9583  -14.4014   21.3507 N   0  0  0  0  0  0  0  0  0  0  0  0
    6.8381  -13.4448   21.1664 C   0  0  0  0  0  0  0  0  0  0  0  0
    7.2908  -12.4966   20.0900 C   0  0  0  0  0  0  0  0  0  0  0  0
    8.2031  -13.3320   19.2215 C   0  0  0  0  0  0  0  0  0  0  0  0
    8.7728  -14.3802   20.1703 C   0  0  1  0  0  0  0  0  0  0  0  0
   10.1708  -13.9142   20.4370 C   0  0  0  0  0  0  0  0  0  0  0  0
   10.5395  -13.3376   21.4760 O   0  0  0  0  0  0  0  0  0  0  0  0
   11.1058  -14.1509   19.4444 O   0  0  0  0  0  0  0  0  0  0  0  0
  2  1  1  6
  2  3  1  0
  3  4  1  0
  4  5  2  0
  6 13  1  0
  6  2  1  0
  7  6  2  0
  8  4  1  0
 10  9  1  1
 10 12  1  0
 11 10  1  0
 12 14  1  0
 12 13  1  1
 14 16  1  0
 15 14  2  0
 16 17  1  0
 16 20  1  0
 17 18  1  0
 18 19  1  0
 20 19  1  0
 20 21  1  1
 21 23  1  0
 22 21  2  0
M  END
$$$$
