DVP.pdb
     RDKit          3D

 23 23  0  0  1  0  0  0  0  0999 V2000
    9.5122  -15.3647   20.1686 N   0  0  0  0  0  0  0  0  0  0  0  0
    9.6316  -16.1118   21.3799 C   0  0  1  0  0  0  0  0  0  0  0  0
   10.9316  -16.8607   21.4566 C   0  0  0  0  0  0  0  0  0  0  0  0
   11.0258  -17.8764   20.3650 C   0  0  0  0  0  0  0  0  0  0  0  0
   10.0368  -18.4907   19.9402 O   0  0  0  0  0  0  0  0  0  0  0  0
    9.5290  -15.2408   22.5943 C   0  0  0  0  0  0  0  0  0  0  0  0
   10.1528  -14.1475   22.6293 O   0  0  0  0  0  0  0  0  0  0  0  0
   12.2730  -18.1388   19.8080 O   0  0  0  0  0  0  0  0  0  0  0  0
    6.5783  -16.0189   25.1934 C   0  0  0  0  0  0  0  0  0  0  0  0
    7.1558  -14.6359   25.1134 C   0  0  1  0  0  0  0  0  0  0  0  0
    6.6640  -13.6693   26.1112 C   0  0  0  0  0  0  0  0  0  0  0  0
    8.6533  -14.6988   24.9030 C   0  0  2  0  0  0  0  0  0  0  0  0
    8.7605  -15.5878   23.7130 N   0  0  0  0  0  0  0  0  0  0  0  0
    9.4247  -15.3285   25.9657 C   0  0  0  0  0  0  0  0  0  0  0  0
    9.6380  -16.6113   25.8857 O   0  0  0  0  0  0  0  0  0  0  0  0
   10.0027  -14.7307   27.1158 N   0  0  0  0  0  0  0  0  0  0  0  0
    9.7727  -13.2889   27.3840 C   0  0  0  0  0  0  0  0  0  0  0  0
   10.0139  -13.1097   28.8579 C   0  0  0  0  0  0  0  0  0  0  0  0
   11.0489  -14.1588   29.1931 C   0  0  0  0  0  0  0  0  0  0  0  0
   10.8069  -15.2674   28.1753 C   0  0  1  0  0  0  0  0  0  0  0  0
   10.1039  -16.3356   28.9548 C   0  0  0  0  0  0  0  0  0  0  0  0
    8.8922  -16.6012   28.8594 O   0  0  0  0  0  0  0  0  0  0  0  0
   10.8743  -17.0694   29.8398 O   0  0  0  0  0  0  0  0  0  0  0  0
  2  1  1  6
  2  3  1  0
  3  4  1  0
  4  5  2  0
  6 13  1  0
  6  2  1  0
  7  6  2  0
  8  4  1  0
 10  9  1  1
 10 12  1  0
 11 10  1  0
 12 14  1  0
 12 13  1  6
 14 16  1  0
 15 14  2  0
 16 17  1  0
 16 20  1  0
 17 18  1  0
 18 19  1  0
 20 19  1  0
 20 21  1  1
 21 23  1  0
 22 21  2  0
M  END
$$$$
