DVP.pdb
     RDKit          3D

 23 23  0  0  1  0  0  0  0  0999 V2000
   10.1002  -15.5547   20.5252 N   0  0  0  0  0  0  0  0  0  0  0  0
    9.4550  -16.1981   21.6249 C   0  0  1  0  0  0  0  0  0  0  0  0
   10.0501  -17.5456   21.9200 C   0  0  0  0  0  0  0  0  0  0  0  0
   10.7234  -18.1065   20.7100 C   0  0  0  0  0  0  0  0  0  0  0  0
   10.8469  -19.3253   20.5218 O   0  0  0  0  0  0  0  0  0  0  0  0
    9.5224  -15.3800   22.8779 C   0  0  0  0  0  0  0  0  0  0  0  0
   10.5529  -14.6980   23.1201 O   0  0  0  0  0  0  0  0  0  0  0  0
   11.2288  -17.2232   19.7620 O   0  0  0  0  0  0  0  0  0  0  0  0
    6.7619  -13.9070   26.6450 C   0  0  0  0  0  0  0  0  0  0  0  0
    7.1161  -14.0398   25.1927 C   0  0  1  0  0  0  0  0  0  0  0  0
    6.6644  -12.9475   24.3126 C   0  0  0  0  0  0  0  0  0  0  0  0
    8.5516  -14.4936   25.0372 C   0  0  2  0  0  0  0  0  0  0  0  0
    8.4780  -15.3349   23.8105 N   0  0  0  0  0  0  0  0  0  0  0  0
    9.0738  -15.3452   26.0970 C   0  0  0  0  0  0  0  0  0  0  0  0
    8.7504  -16.6072   26.0796 O   0  0  0  0  0  0  0  0  0  0  0  0
    9.9157  -14.9931   27.1839 N   0  0  0  0  0  0  0  0  0  0  0  0
   10.1178  -13.5608   27.5179 C   0  0  0  0  0  0  0  0  0  0  0  0
   10.5596  -13.5407   28.9556 C   0  0  0  0  0  0  0  0  0  0  0  0
   11.3005  -14.8461   29.1326 C   0  0  0  0  0  0  0  0  0  0  0  0
   10.6553  -15.7871   28.1218 C   0  0  1  0  0  0  0  0  0  0  0  0
    9.7786  -16.6735   28.9516 C   0  0  0  0  0  0  0  0  0  0  0  0
    8.5363  -16.6134   28.9822 O   0  0  0  0  0  0  0  0  0  0  0  0
   10.4144  -17.6215   29.7342 O   0  0  0  0  0  0  0  0  0  0  0  0
  2  1  1  6
  2  3  1  0
  3  4  1  0
  4  5  2  0
  6 13  1  0
  6  2  1  0
  7  6  2  0
  8  4  1  0
 10  9  1  1
 10 12  1  0
 11 10  1  0
 12 14  1  0
 12 13  1  6
 14 16  1  0
 15 14  2  0
 16 17  1  0
 16 20  1  0
 17 18  1  0
 18 19  1  0
 20 19  1  0
 20 21  1  1
 21 23  1  0
 22 21  2  0
M  END
$$$$
