DVP.pdb
     RDKit          3D

 23 23  0  0  1  0  0  0  0  0999 V2000
   11.2406  -16.5356   19.6414 N   0  0  0  0  0  0  0  0  0  0  0  0
   11.3740  -16.9130   21.0124 C   0  0  1  0  0  0  0  0  0  0  0  0
   12.8112  -17.0888   21.4132 C   0  0  0  0  0  0  0  0  0  0  0  0
   13.4648  -18.1553   20.5961 C   0  0  0  0  0  0  0  0  0  0  0  0
   12.8409  -19.1295   20.1513 O   0  0  0  0  0  0  0  0  0  0  0  0
   10.7568  -15.9099   21.9379 C   0  0  0  0  0  0  0  0  0  0  0  0
   11.1614  -14.7175   21.9212 O   0  0  0  0  0  0  0  0  0  0  0  0
   14.8251  -18.0459   20.3274 O   0  0  0  0  0  0  0  0  0  0  0  0
    7.3412  -14.8262   21.9020 C   0  0  0  0  0  0  0  0  0  0  0  0
    7.5976  -15.4030   23.2637 C   0  0  1  0  0  0  0  0  0  0  0  0
    7.0122  -16.7297   23.5265 C   0  0  0  0  0  0  0  0  0  0  0  0
    9.0449  -15.2041   23.6590 C   0  0  2  0  0  0  0  0  0  0  0  0
    9.7340  -16.2376   22.8373 N   0  0  0  0  0  0  0  0  0  0  0  0
    9.3752  -15.4870   25.0489 C   0  0  0  0  0  0  0  0  0  0  0  0
    9.6823  -16.7132   25.3648 O   0  0  0  0  0  0  0  0  0  0  0  0
    9.4170  -14.5929   26.1503 N   0  0  0  0  0  0  0  0  0  0  0  0
    8.9671  -13.1897   25.9702 C   0  0  0  0  0  0  0  0  0  0  0  0
    8.6163  -12.6990   27.3482 C   0  0  0  0  0  0  0  0  0  0  0  0
    9.5429  -13.4684   28.2613 C   0  0  0  0  0  0  0  0  0  0  0  0
    9.8091  -14.7724   27.5182 C   0  0  1  0  0  0  0  0  0  0  0  0
    8.9688  -15.7832   28.2360 C   0  0  0  0  0  0  0  0  0  0  0  0
    7.8946  -16.2433   27.8089 O   0  0  0  0  0  0  0  0  0  0  0  0
    9.4373  -16.2251   29.4609 O   0  0  0  0  0  0  0  0  0  0  0  0
  2  1  1  6
  2  3  1  0
  3  4  1  0
  4  5  2  0
  6 13  1  0
  6  2  1  0
  7  6  2  0
  8  4  1  0
 10  9  1  6
 10 12  1  0
 11 10  1  0
 12 14  1  0
 12 13  1  6
 14 16  1  0
 15 14  2  0
 16 17  1  0
 16 20  1  0
 17 18  1  0
 18 19  1  0
 20 19  1  0
 20 21  1  1
 21 23  1  0
 22 21  2  0
M  END
$$$$
