DVP.pdb
     RDKit          3D

 23 23  0  0  1  0  0  0  0  0999 V2000
   11.8480  -16.6005   20.2658 N   0  0  0  0  0  0  0  0  0  0  0  0
   12.0141  -17.0869   21.5983 C   0  0  1  0  0  0  0  0  0  0  0  0
   13.4621  -17.2046   21.9809 C   0  0  0  0  0  0  0  0  0  0  0  0
   14.1899  -18.1065   21.0381 C   0  0  0  0  0  0  0  0  0  0  0  0
   13.8119  -19.2618   20.7965 O   0  0  0  0  0  0  0  0  0  0  0  0
   11.3402  -16.2102   22.6087 C   0  0  0  0  0  0  0  0  0  0  0  0
   11.5985  -14.9779   22.6331 O   0  0  0  0  0  0  0  0  0  0  0  0
   15.3345  -17.6264   20.4104 O   0  0  0  0  0  0  0  0  0  0  0  0
    7.7818  -15.6422   22.8233 C   0  0  0  0  0  0  0  0  0  0  0  0
    8.2220  -16.2021   24.1443 C   0  0  1  0  0  0  0  0  0  0  0  0
    7.8608  -17.6067   24.4060 C   0  0  0  0  0  0  0  0  0  0  0  0
    9.6494  -15.7966   24.4421 C   0  0  2  0  0  0  0  0  0  0  0  0
   10.4206  -16.7010   23.5447 N   0  0  0  0  0  0  0  0  0  0  0  0
   10.1197  -16.0517   25.7966 C   0  0  0  0  0  0  0  0  0  0  0  0
   10.6069  -17.2310   26.0605 O   0  0  0  0  0  0  0  0  0  0  0  0
   10.1299  -15.1742   26.9120 N   0  0  0  0  0  0  0  0  0  0  0  0
    9.5148  -13.8287   26.7892 C   0  0  0  0  0  0  0  0  0  0  0  0
    9.1982  -13.4004   28.1959 C   0  0  0  0  0  0  0  0  0  0  0  0
   10.2609  -14.0725   29.0347 C   0  0  0  0  0  0  0  0  0  0  0  0
   10.6248  -15.3273   28.2495 C   0  0  1  0  0  0  0  0  0  0  0  0
    9.9501  -16.4368   28.9955 C   0  0  0  0  0  0  0  0  0  0  0  0
   10.3444  -16.9047   30.0788 O   0  0  0  0  0  0  0  0  0  0  0  0
    8.8071  -16.9669   28.4229 O   0  0  0  0  0  0  0  0  0  0  0  0
  2  1  1  6
  2  3  1  0
  3  4  1  0
  4  5  2  0
  6 13  1  0
  6  2  1  0
  7  6  2  0
  8  4  1  0
 10  9  1  6
 10 12  1  0
 11 10  1  0
 12 14  1  0
 12 13  1  6
 14 16  1  0
 15 14  2  0
 16 17  1  0
 16 20  1  0
 17 18  1  0
 18 19  1  0
 20 19  1  0
 20 21  1  1
 21 23  1  0
 22 21  2  0
M  END
$$$$
