DVP.pdb
     RDKit          3D

 23 23  0  0  1  0  0  0  0  0999 V2000
    9.6571  -15.6073   20.2768 N   0  0  0  0  0  0  0  0  0  0  0  0
    9.3751  -16.3174   21.4835 C   0  0  1  0  0  0  0  0  0  0  0  0
   10.3454  -17.4400   21.7188 C   0  0  0  0  0  0  0  0  0  0  0  0
   10.2212  -18.4823   20.6558 C   0  0  0  0  0  0  0  0  0  0  0  0
    9.4585  -19.4535   20.7615 O   0  0  0  0  0  0  0  0  0  0  0  0
    9.4034  -15.4241   22.6855 C   0  0  0  0  0  0  0  0  0  0  0  0
   10.3144  -14.5621   22.7978 O   0  0  0  0  0  0  0  0  0  0  0  0
   10.9931  -18.3532   19.5059 O   0  0  0  0  0  0  0  0  0  0  0  0
    6.2859  -15.6656   25.2726 C   0  0  0  0  0  0  0  0  0  0  0  0
    7.0109  -14.3577   25.1458 C   0  0  1  0  0  0  0  0  0  0  0  0
    6.6646  -13.3255   26.1392 C   0  0  0  0  0  0  0  0  0  0  0  0
    8.4838  -14.5915   24.8882 C   0  0  2  0  0  0  0  0  0  0  0  0
    8.4502  -15.5009   23.7093 N   0  0  0  0  0  0  0  0  0  0  0  0
    9.2151  -15.2917   25.9351 C   0  0  0  0  0  0  0  0  0  0  0  0
    9.3625  -16.5809   25.8176 O   0  0  0  0  0  0  0  0  0  0  0  0
    9.8158  -14.7593   27.1055 N   0  0  0  0  0  0  0  0  0  0  0  0
    9.5533  -13.3481   27.4847 C   0  0  0  0  0  0  0  0  0  0  0  0
    9.8414  -13.2667   28.9587 C   0  0  0  0  0  0  0  0  0  0  0  0
   10.9180  -14.3036   29.1826 C   0  0  0  0  0  0  0  0  0  0  0  0
   10.6726  -15.3441   28.0961 C   0  0  1  0  0  0  0  0  0  0  0  0
   10.0293  -16.4869   28.8194 C   0  0  0  0  0  0  0  0  0  0  0  0
   10.6321  -17.2898   29.5541 O   0  0  0  0  0  0  0  0  0  0  0  0
    8.6655  -16.6449   28.6455 O   0  0  0  0  0  0  0  0  0  0  0  0
  2  1  1  6
  2  3  1  0
  3  4  1  0
  4  5  2  0
  6 13  1  0
  6  2  1  0
  7  6  2  0
  8  4  1  0
 10  9  1  1
 10 12  1  0
 11 10  1  0
 12 14  1  0
 12 13  1  6
 14 16  1  0
 15 14  2  0
 16 17  1  0
 16 20  1  0
 17 18  1  0
 18 19  1  0
 20 19  1  0
 20 21  1  1
 21 23  1  0
 22 21  2  0
M  END
$$$$
