DVP.pdb
     RDKit          3D

 23 23  0  0  1  0  0  0  0  0999 V2000
    9.5597  -15.7555   20.3643 N   0  0  0  0  0  0  0  0  0  0  0  0
    9.2367  -16.4202   21.5864 C   0  0  1  0  0  0  0  0  0  0  0  0
   10.1348  -17.5965   21.8448 C   0  0  0  0  0  0  0  0  0  0  0  0
    9.9704  -18.6348   20.7832 C   0  0  0  0  0  0  0  0  0  0  0  0
    9.0381  -19.4514   20.7895 O   0  0  0  0  0  0  0  0  0  0  0  0
    9.3246  -15.5048   22.7687 C   0  0  0  0  0  0  0  0  0  0  0  0
   10.2612  -14.6658   22.8369 O   0  0  0  0  0  0  0  0  0  0  0  0
   10.9015  -18.6825   19.7511 O   0  0  0  0  0  0  0  0  0  0  0  0
    6.4093  -15.3803   26.0632 C   0  0  0  0  0  0  0  0  0  0  0  0
    7.0702  -14.2873   25.2752 C   0  0  1  0  0  0  0  0  0  0  0  0
    6.7873  -12.9093   25.7145 C   0  0  0  0  0  0  0  0  0  0  0  0
    8.5177  -14.6335   25.0005 C   0  0  2  0  0  0  0  0  0  0  0  0
    8.4007  -15.5357   23.8214 N   0  0  0  0  0  0  0  0  0  0  0  0
    9.2048  -15.3896   26.0384 C   0  0  0  0  0  0  0  0  0  0  0  0
    9.2322  -16.6877   25.9296 O   0  0  0  0  0  0  0  0  0  0  0  0
    9.8762  -14.9054   27.1912 N   0  0  0  0  0  0  0  0  0  0  0  0
    9.6892  -13.4925   27.6066 C   0  0  0  0  0  0  0  0  0  0  0  0
   10.0425  -13.4520   29.0681 C   0  0  0  0  0  0  0  0  0  0  0  0
   11.0833  -14.5365   29.2268 C   0  0  0  0  0  0  0  0  0  0  0  0
   10.7488  -15.5444   28.1333 C   0  0  1  0  0  0  0  0  0  0  0  0
   10.0895  -16.6738   28.8630 C   0  0  0  0  0  0  0  0  0  0  0  0
   10.6906  -17.5262   29.5412 O   0  0  0  0  0  0  0  0  0  0  0  0
    8.7117  -16.7590   28.7638 O   0  0  0  0  0  0  0  0  0  0  0  0
  2  1  1  6
  2  3  1  0
  3  4  1  0
  4  5  2  0
  6 13  1  0
  6  2  1  0
  7  6  2  0
  8  4  1  0
 10  9  1  1
 10 12  1  0
 11 10  1  0
 12 14  1  0
 12 13  1  6
 14 16  1  0
 15 14  2  0
 16 17  1  0
 16 20  1  0
 17 18  1  0
 18 19  1  0
 20 19  1  0
 20 21  1  1
 21 23  1  0
 22 21  2  0
M  END
$$$$
