DVP.pdb
     RDKit          3D

 23 23  0  0  1  0  0  0  0  0999 V2000
    8.4455  -15.0024   20.3508 N   0  0  0  0  0  0  0  0  0  0  0  0
    8.6657  -15.8559   21.4745 C   0  0  1  0  0  0  0  0  0  0  0  0
    9.7866  -16.8273   21.2356 C   0  0  0  0  0  0  0  0  0  0  0  0
    9.4969  -17.6938   20.0535 C   0  0  0  0  0  0  0  0  0  0  0  0
    8.4255  -18.3026   19.9209 O   0  0  0  0  0  0  0  0  0  0  0  0
    8.9825  -15.0835   22.7182 C   0  0  0  0  0  0  0  0  0  0  0  0
    9.8781  -14.1989   22.6891 O   0  0  0  0  0  0  0  0  0  0  0  0
   10.4697  -17.8185   19.0673 O   0  0  0  0  0  0  0  0  0  0  0  0
    6.6811  -13.0077   24.6282 C   0  0  0  0  0  0  0  0  0  0  0  0
    7.2158  -14.0508   25.5653 C   0  0  1  0  0  0  0  0  0  0  0  0
    6.2771  -15.1203   25.9489 C   0  0  0  0  0  0  0  0  0  0  0  0
    8.6048  -14.4794   25.1437 C   0  0  2  0  0  0  0  0  0  0  0  0
    8.3205  -15.2998   23.9338 N   0  0  0  0  0  0  0  0  0  0  0  0
    9.3205  -15.3413   26.0742 C   0  0  0  0  0  0  0  0  0  0  0  0
    9.3594  -16.6177   25.8155 O   0  0  0  0  0  0  0  0  0  0  0  0
   10.0099  -14.9849   27.2624 N   0  0  0  0  0  0  0  0  0  0  0  0
    9.9495  -13.5841   27.7503 C   0  0  0  0  0  0  0  0  0  0  0  0
   10.2732  -13.6541   29.2175 C   0  0  0  0  0  0  0  0  0  0  0  0
   11.2022  -14.8406   29.3347 C   0  0  0  0  0  0  0  0  0  0  0  0
   10.7970  -15.7531   28.1830 C   0  0  1  0  0  0  0  0  0  0  0  0
   10.0172  -16.8503   28.8396 C   0  0  0  0  0  0  0  0  0  0  0  0
    8.7813  -16.9778   28.7752 O   0  0  0  0  0  0  0  0  0  0  0  0
   10.7412  -17.7797   29.5659 O   0  0  0  0  0  0  0  0  0  0  0  0
  2  1  1  6
  2  3  1  0
  3  4  1  0
  4  5  2  0
  6 13  1  0
  6  2  1  0
  7  6  2  0
  8  4  1  0
 10  9  1  6
 10 12  1  0
 11 10  1  0
 12 14  1  0
 12 13  1  6
 14 16  1  0
 15 14  2  0
 16 17  1  0
 16 20  1  0
 17 18  1  0
 18 19  1  0
 20 19  1  0
 20 21  1  1
 21 23  1  0
 22 21  2  0
M  END
$$$$
