DVP.pdb
     RDKit          3D

 23 23  0  0  1  0  0  0  0  0999 V2000
   11.1147  -17.6134   21.0290 N   0  0  0  0  0  0  0  0  0  0  0  0
   11.6597  -16.8197   22.0839 C   0  0  1  0  0  0  0  0  0  0  0  0
   12.9789  -16.2076   21.7073 C   0  0  0  0  0  0  0  0  0  0  0  0
   14.0205  -17.2620   21.5194 C   0  0  0  0  0  0  0  0  0  0  0  0
   14.5017  -17.5322   20.4097 O   0  0  0  0  0  0  0  0  0  0  0  0
   10.7378  -15.7123   22.4931 C   0  0  0  0  0  0  0  0  0  0  0  0
   11.1718  -14.5316   22.5506 O   0  0  0  0  0  0  0  0  0  0  0  0
   14.4635  -17.9640   22.6354 O   0  0  0  0  0  0  0  0  0  0  0  0
    7.4393  -14.6996   21.0172 C   0  0  0  0  0  0  0  0  0  0  0  0
    7.2448  -15.0966   22.4515 C   0  0  1  0  0  0  0  0  0  0  0  0
    6.5821  -16.3927   22.6813 C   0  0  0  0  0  0  0  0  0  0  0  0
    8.4984  -14.8183   23.2525 C   0  0  2  0  0  0  0  0  0  0  0  0
    9.3930  -15.9280   22.8209 N   0  0  0  0  0  0  0  0  0  0  0  0
    8.3716  -14.9228   24.6996 C   0  0  0  0  0  0  0  0  0  0  0  0
    8.6940  -16.0543   25.2594 O   0  0  0  0  0  0  0  0  0  0  0  0
    7.9364  -13.9389   25.6252 N   0  0  0  0  0  0  0  0  0  0  0  0
    7.5703  -12.5860   25.1357 C   0  0  0  0  0  0  0  0  0  0  0  0
    6.6722  -12.0044   26.1929 C   0  0  0  0  0  0  0  0  0  0  0  0
    7.1566  -12.6362   27.4776 C   0  0  0  0  0  0  0  0  0  0  0  0
    7.7337  -13.9789   27.0445 C   0  0  1  0  0  0  0  0  0  0  0  0
    6.6945  -14.9759   27.4554 C   0  0  0  0  0  0  0  0  0  0  0  0
    5.8166  -15.4354   26.7030 O   0  0  0  0  0  0  0  0  0  0  0  0
    6.7293  -15.4051   28.7707 O   0  0  0  0  0  0  0  0  0  0  0  0
  2  1  1  6
  2  3  1  0
  3  4  1  0
  4  5  2  0
  6 13  1  0
  6  2  1  0
  7  6  2  0
  8  4  1  0
 10  9  1  6
 10 12  1  0
 11 10  1  0
 12 14  1  0
 12 13  1  6
 14 16  1  0
 15 14  2  0
 16 17  1  0
 16 20  1  0
 17 18  1  0
 18 19  1  0
 20 19  1  0
 20 21  1  6
 21 23  1  0
 22 21  2  0
M  END
$$$$
