DVP.pdb
     RDKit          3D

 23 23  0  0  1  0  0  0  0  0999 V2000
   11.9235  -16.6706   20.2804 N   0  0  0  0  0  0  0  0  0  0  0  0
   11.3676  -17.2479   21.4625 C   0  0  1  0  0  0  0  0  0  0  0  0
   12.3662  -18.0909   22.2036 C   0  0  0  0  0  0  0  0  0  0  0  0
   12.7425  -19.2959   21.4045 C   0  0  0  0  0  0  0  0  0  0  0  0
   11.9488  -20.2213   21.1817 O   0  0  0  0  0  0  0  0  0  0  0  0
   10.8485  -16.2095   22.4090 C   0  0  0  0  0  0  0  0  0  0  0  0
   11.5142  -15.1587   22.6049 O   0  0  0  0  0  0  0  0  0  0  0  0
   14.0336  -19.3771   20.8936 O   0  0  0  0  0  0  0  0  0  0  0  0
    6.8448  -14.7189   24.7921 C   0  0  0  0  0  0  0  0  0  0  0  0
    7.6584  -15.2438   23.6455 C   0  0  1  0  0  0  0  0  0  0  0  0
    7.3277  -14.7035   22.3148 C   0  0  0  0  0  0  0  0  0  0  0  0
    9.1248  -15.2960   24.0168 C   0  0  2  0  0  0  0  0  0  0  0  0
    9.6379  -16.3512   23.0997 N   0  0  0  0  0  0  0  0  0  0  0  0
    9.4284  -15.7362   25.3715 C   0  0  0  0  0  0  0  0  0  0  0  0
    9.3748  -17.0133   25.6235 O   0  0  0  0  0  0  0  0  0  0  0  0
    9.7903  -14.9531   26.4984 N   0  0  0  0  0  0  0  0  0  0  0  0
    9.6248  -13.4787   26.4476 C   0  0  0  0  0  0  0  0  0  0  0  0
    9.5552  -13.0313   27.8820 C   0  0  0  0  0  0  0  0  0  0  0  0
   10.4052  -14.0368   28.6242 C   0  0  0  0  0  0  0  0  0  0  0  0
   10.3004  -15.3088   27.7909 C   0  0  1  0  0  0  0  0  0  0  0  0
    9.3617  -16.1806   28.5665 C   0  0  0  0  0  0  0  0  0  0  0  0
    8.1822  -16.4129   28.2462 O   0  0  0  0  0  0  0  0  0  0  0  0
    9.8605  -16.7609   29.7197 O   0  0  0  0  0  0  0  0  0  0  0  0
  2  1  1  6
  2  3  1  0
  3  4  1  0
  4  5  2  0
  6 13  1  0
  6  2  1  0
  7  6  2  0
  8  4  1  0
 10  9  1  1
 10 12  1  0
 11 10  1  0
 12 14  1  0
 12 13  1  6
 14 16  1  0
 15 14  2  0
 16 17  1  0
 16 20  1  0
 17 18  1  0
 18 19  1  0
 20 19  1  0
 20 21  1  1
 21 23  1  0
 22 21  2  0
M  END
$$$$
