DVP.pdb
     RDKit          3D

 23 23  0  0  1  0  0  0  0  0999 V2000
   12.0843  -16.8702   20.6340 N   0  0  0  0  0  0  0  0  0  0  0  0
   11.5490  -17.0615   21.9442 C   0  0  1  0  0  0  0  0  0  0  0  0
   12.6227  -17.3317   22.9597 C   0  0  0  0  0  0  0  0  0  0  0  0
   13.2402  -18.6737   22.7369 C   0  0  0  0  0  0  0  0  0  0  0  0
   12.5754  -19.6656   22.4048 O   0  0  0  0  0  0  0  0  0  0  0  0
   10.7601  -15.8770   22.4116 C   0  0  0  0  0  0  0  0  0  0  0  0
   11.3412  -14.7741   22.5891 O   0  0  0  0  0  0  0  0  0  0  0  0
   14.6135  -18.8097   22.9103 O   0  0  0  0  0  0  0  0  0  0  0  0
    7.7381  -14.3091   20.8399 C   0  0  0  0  0  0  0  0  0  0  0  0
    7.3965  -14.7992   22.2167 C   0  0  1  0  0  0  0  0  0  0  0  0
    6.5741  -16.0202   22.2847 C   0  0  0  0  0  0  0  0  0  0  0  0
    8.6129  -14.7435   23.1155 C   0  0  2  0  0  0  0  0  0  0  0  0
    9.3837  -15.9358   22.6657 N   0  0  0  0  0  0  0  0  0  0  0  0
    8.3666  -14.9185   24.5402 C   0  0  0  0  0  0  0  0  0  0  0  0
    8.5441  -16.1051   25.0480 O   0  0  0  0  0  0  0  0  0  0  0  0
    7.9500  -13.9531   25.4934 N   0  0  0  0  0  0  0  0  0  0  0  0
    7.7140  -12.5528   25.0604 C   0  0  0  0  0  0  0  0  0  0  0  0
    6.7992  -11.9594   26.0965 C   0  0  0  0  0  0  0  0  0  0  0  0
    7.1581  -12.6916   27.3691 C   0  0  0  0  0  0  0  0  0  0  0  0
    7.6602  -14.0504   26.8947 C   0  0  1  0  0  0  0  0  0  0  0  0
    6.5279  -14.9849   27.1906 C   0  0  0  0  0  0  0  0  0  0  0  0
    5.6722  -15.3459   26.3627 O   0  0  0  0  0  0  0  0  0  0  0  0
    6.4440  -15.4714   28.4835 O   0  0  0  0  0  0  0  0  0  0  0  0
  2  1  1  6
  2  3  1  0
  3  4  1  0
  4  5  2  0
  6 13  1  0
  6  2  1  0
  7  6  2  0
  8  4  1  0
 10  9  1  6
 10 12  1  0
 11 10  1  0
 12 14  1  0
 12 13  1  6
 14 16  1  0
 15 14  2  0
 16 17  1  0
 16 20  1  0
 17 18  1  0
 18 19  1  0
 20 19  1  0
 20 21  1  6
 21 23  1  0
 22 21  2  0
M  END
$$$$
