DVP.pdb
     RDKit          3D

 23 23  0  0  1  0  0  0  0  0999 V2000
   10.9721  -17.7029   20.9903 N   0  0  0  0  0  0  0  0  0  0  0  0
   11.5699  -16.7579   21.8787 C   0  0  1  0  0  0  0  0  0  0  0  0
   12.7947  -16.1210   21.2861 C   0  0  0  0  0  0  0  0  0  0  0  0
   13.9372  -17.0834   21.2643 C   0  0  0  0  0  0  0  0  0  0  0  0
   14.6374  -17.2629   20.2574 O   0  0  0  0  0  0  0  0  0  0  0  0
   10.6215  -15.6639   22.2628 C   0  0  0  0  0  0  0  0  0  0  0  0
   10.9031  -14.4696   21.9799 O   0  0  0  0  0  0  0  0  0  0  0  0
   14.2217  -17.8027   22.4203 O   0  0  0  0  0  0  0  0  0  0  0  0
    7.2697  -15.0105   21.1258 C   0  0  0  0  0  0  0  0  0  0  0  0
    7.1973  -15.2642   22.6032 C   0  0  1  0  0  0  0  0  0  0  0  0
    6.6575  -16.5736   23.0106 C   0  0  0  0  0  0  0  0  0  0  0  0
    8.4716  -14.8092   23.2816 C   0  0  2  0  0  0  0  0  0  0  0  0
    9.4156  -15.9071   22.9329 N   0  0  0  0  0  0  0  0  0  0  0  0
    8.4338  -14.7369   24.7356 C   0  0  0  0  0  0  0  0  0  0  0  0
    8.9294  -15.7364   25.4085 O   0  0  0  0  0  0  0  0  0  0  0  0
    7.9218  -13.7005   25.5591 N   0  0  0  0  0  0  0  0  0  0  0  0
    7.3178  -12.4987   24.9309 C   0  0  0  0  0  0  0  0  0  0  0  0
    6.4210  -11.9027   25.9812 C   0  0  0  0  0  0  0  0  0  0  0  0
    7.0894  -12.2661   27.2872 C   0  0  0  0  0  0  0  0  0  0  0  0
    7.8322  -13.5621   26.9839 C   0  0  1  0  0  0  0  0  0  0  0  0
    6.9911  -14.6258   27.6195 C   0  0  0  0  0  0  0  0  0  0  0  0
    6.9919  -14.8990   28.8332 O   0  0  0  0  0  0  0  0  0  0  0  0
    6.1593  -15.3461   26.7799 O   0  0  0  0  0  0  0  0  0  0  0  0
  2  1  1  6
  2  3  1  0
  3  4  1  0
  4  5  2  0
  6 13  1  0
  6  2  1  0
  7  6  2  0
  8  4  1  0
 10  9  1  6
 10 12  1  0
 11 10  1  0
 12 14  1  0
 12 13  1  1
 14 16  1  0
 15 14  2  0
 16 17  1  0
 16 20  1  0
 17 18  1  0
 18 19  1  0
 20 19  1  0
 20 21  1  6
 21 23  1  0
 22 21  2  0
M  END
$$$$
