PCR.pdb
     RDKit          3D

 25 25  0  0  1  0  0  0  0  0999 V2000
   27.6313  -19.4235  -15.2502 N   0  0  0  0  0  0  0  0  0  0  0  0
   28.3882  -19.2977  -16.5001 C   0  0  0  0  0  0  0  0  0  0  0  0
   29.0764  -20.6375  -16.6129 C   0  0  0  0  0  0  0  0  0  0  0  0
   28.2651  -21.5841  -15.7424 C   0  0  0  0  0  0  0  0  0  0  0  0
   27.0566  -20.7530  -15.4167 C   0  0  1  0  0  0  0  0  0  0  0  0
   26.3605  -21.1908  -14.1799 C   0  0  0  0  0  0  0  0  0  0  0  0
   25.4804  -22.0826  -14.2644 O   0  0  0  0  0  0  0  0  0  0  0  0
   26.6375  -20.6540  -12.9015 N   0  0  0  0  0  0  0  0  0  0  0  0
   25.8653  -20.9414  -11.7230 C   0  0  1  0  0  0  0  0  0  0  0  0
   26.5322  -20.4399  -10.4627 C   0  0  0  0  0  0  0  0  0  0  0  0
   25.4112  -20.4598   -9.0397 S   0  0  0  0  0  0  0  0  0  0  0  0
   24.5250  -20.2828  -11.7648 C   0  0  0  0  0  0  0  0  0  0  0  0
   24.4387  -19.0851  -12.1508 O   0  0  0  0  0  0  0  0  0  0  0  0
   18.6324  -23.3232  -16.0722 N   0  0  0  0  0  0  0  0  0  0  0  0
   18.1609  -21.9737  -16.2134 C   0  0  0  0  0  0  0  0  0  0  0  0
   16.9921  -21.7067  -16.6711 N   0  0  0  0  0  0  0  0  0  0  0  0
   18.9995  -20.8807  -15.8387 N   0  0  0  0  0  0  0  0  0  0  0  0
   20.3239  -21.0356  -15.3180 C   0  0  0  0  0  0  0  0  0  0  0  0
   20.5019  -20.6680  -13.8854 C   0  0  0  0  0  0  0  0  0  0  0  0
   21.8069  -20.9253  -13.2534 C   0  0  0  0  0  0  0  0  0  0  0  0
   22.0082  -20.5448  -11.8347 C   0  0  2  0  0  0  0  0  0  0  0  0
   23.3426  -20.9540  -11.3865 N   0  0  0  0  0  0  0  0  0  0  0  0
   20.9999  -21.0786  -10.9251 C   0  0  0  0  0  0  0  0  0  0  0  0
   19.7784  -20.7958  -10.9765 O   0  0  0  0  0  0  0  0  0  0  0  0
   21.3486  -21.9756   -9.8942 O   0  0  0  0  0  0  0  0  0  0  0  0
  2  1  1  0
  3  2  1  0
  4  3  1  0
  4  5  1  0
  5  1  1  0
  5  6  1  1
  7  6  2  0
  8  6  1  0
  9 12  1  0
  9  8  1  0
  9 10  1  1
 11 10  1  0
 12 22  1  0
 13 12  2  0
 14 15  1  0
 15 17  1  0
 15 16  2  0
 17 18  1  0
 18 19  1  0
 20 19  1  0
 21 20  1  6
 22 21  1  0
 23 25  1  0
 23 21  1  0
 24 23  2  0
M  END
$$$$
