PCR.pdb
     RDKit          3D

 25 25  0  0  1  0  0  0  0  0999 V2000
   22.1556   -9.1933  -16.6157 N   0  0  0  0  0  0  0  0  0  0  0  0
   22.5682  -10.3751  -17.3802 C   0  0  0  0  0  0  0  0  0  0  0  0
   23.5717  -11.0348  -16.4641 C   0  0  0  0  0  0  0  0  0  0  0  0
   23.2643  -10.5000  -15.0744 C   0  0  0  0  0  0  0  0  0  0  0  0
   21.9638   -9.7810  -15.2953 C   0  0  1  0  0  0  0  0  0  0  0  0
   21.6946   -8.7314  -14.2795 C   0  0  0  0  0  0  0  0  0  0  0  0
   21.4267   -9.0819  -13.1037 O   0  0  0  0  0  0  0  0  0  0  0  0
   21.7244   -7.3472  -14.5664 N   0  0  0  0  0  0  0  0  0  0  0  0
   21.4624   -6.3181  -13.5968 C   0  0  1  0  0  0  0  0  0  0  0  0
   22.1216   -5.0069  -13.9583 C   0  0  0  0  0  0  0  0  0  0  0  0
   21.7623   -3.7038  -12.7522 S   0  0  0  0  0  0  0  0  0  0  0  0
   20.0022   -6.0228  -13.4835 C   0  0  0  0  0  0  0  0  0  0  0  0
   19.3356   -5.8000  -14.5308 O   0  0  0  0  0  0  0  0  0  0  0  0
   14.0117   -9.0790   -7.5918 N   0  0  0  0  0  0  0  0  0  0  0  0
   13.2753   -8.2604   -8.5143 C   0  0  0  0  0  0  0  0  0  0  0  0
   11.9923   -8.2510   -8.5397 N   0  0  0  0  0  0  0  0  0  0  0  0
   13.9699   -7.4229   -9.4388 N   0  0  0  0  0  0  0  0  0  0  0  0
   15.3911   -7.4334   -9.6096 C   0  0  0  0  0  0  0  0  0  0  0  0
   15.9181   -6.5555  -10.6916 C   0  0  0  0  0  0  0  0  0  0  0  0
   17.3555   -6.6177  -11.0061 C   0  0  0  0  0  0  0  0  0  0  0  0
   17.8880   -5.7859  -12.1117 C   0  0  2  0  0  0  0  0  0  0  0  0
   19.3348   -5.9836  -12.2407 N   0  0  0  0  0  0  0  0  0  0  0  0
   17.5970   -4.3622  -11.9806 C   0  0  0  0  0  0  0  0  0  0  0  0
   18.3856   -3.5202  -11.4867 O   0  0  0  0  0  0  0  0  0  0  0  0
   16.3670   -3.8257  -12.4144 O   0  0  0  0  0  0  0  0  0  0  0  0
  2  1  1  0
  3  2  1  0
  4  3  1  0
  4  5  1  0
  5  1  1  0
  5  6  1  1
  7  6  2  0
  8  6  1  0
  9 12  1  0
  9  8  1  0
  9 10  1  6
 11 10  1  0
 12 22  1  0
 13 12  2  0
 14 15  1  0
 15 17  1  0
 15 16  2  0
 17 18  1  0
 18 19  1  0
 20 19  1  0
 21 20  1  1
 22 21  1  0
 23 25  1  0
 23 21  1  0
 24 23  2  0
M  END
$$$$
