PCR.pdb
     RDKit          3D

 25 25  0  0  1  0  0  0  0  0999 V2000
   31.0161  -21.1531  -10.6246 N   0  0  0  0  0  0  0  0  0  0  0  0
   32.4336  -21.5295  -10.6092 C   0  0  0  0  0  0  0  0  0  0  0  0
   32.5865  -22.2098   -9.2693 C   0  0  0  0  0  0  0  0  0  0  0  0
   31.1834  -22.6389   -8.8704 C   0  0  0  0  0  0  0  0  0  0  0  0
   30.4065  -22.3818  -10.1305 C   0  0  1  0  0  0  0  0  0  0  0  0
   28.9518  -22.1967   -9.8944 C   0  0  0  0  0  0  0  0  0  0  0  0
   28.2918  -23.1484   -9.4087 O   0  0  0  0  0  0  0  0  0  0  0  0
   28.2638  -20.9971  -10.1887 N   0  0  0  0  0  0  0  0  0  0  0  0
   26.8535  -20.8063   -9.9826 C   0  0  1  0  0  0  0  0  0  0  0  0
   26.5519  -19.5469   -9.2032 C   0  0  0  0  0  0  0  0  0  0  0  0
   25.6949  -19.8939   -7.6453 S   0  0  0  0  0  0  0  0  0  0  0  0
   26.1181  -20.6712  -11.2761 C   0  0  0  0  0  0  0  0  0  0  0  0
   26.5182  -19.8311  -12.1275 O   0  0  0  0  0  0  0  0  0  0  0  0
   22.4020  -26.7228  -15.3049 N   0  0  0  0  0  0  0  0  0  0  0  0
   21.5449  -26.1576  -14.3002 C   0  0  0  0  0  0  0  0  0  0  0  0
   20.5975  -26.8319  -13.7576 N   0  0  0  0  0  0  0  0  0  0  0  0
   21.7348  -24.8077  -13.8758 N   0  0  0  0  0  0  0  0  0  0  0  0
   22.0662  -23.7337  -14.7623 C   0  0  0  0  0  0  0  0  0  0  0  0
   22.3252  -22.4177  -14.1141 C   0  0  0  0  0  0  0  0  0  0  0  0
   23.2056  -22.3795  -12.9340 C   0  0  0  0  0  0  0  0  0  0  0  0
   24.2164  -21.3006  -12.8237 C   0  0  2  0  0  0  0  0  0  0  0  0
   24.9847  -21.4533  -11.5846 N   0  0  0  0  0  0  0  0  0  0  0  0
   23.6610  -19.9533  -12.8938 C   0  0  0  0  0  0  0  0  0  0  0  0
   23.1049  -19.3652  -11.9349 O   0  0  0  0  0  0  0  0  0  0  0  0
   23.7151  -19.2027  -14.0867 O   0  0  0  0  0  0  0  0  0  0  0  0
  2  1  1  0
  3  2  1  0
  4  3  1  0
  4  5  1  0
  5  1  1  0
  5  6  1  1
  7  6  2  0
  8  6  1  0
  9 12  1  0
  9  8  1  0
  9 10  1  1
 11 10  1  0
 12 22  1  0
 13 12  2  0
 14 15  1  0
 15 17  1  0
 15 16  2  0
 17 18  1  0
 18 19  1  0
 20 19  1  0
 21 20  1  1
 22 21  1  0
 23 25  1  0
 23 21  1  0
 24 23  2  0
M  END
$$$$
