PCR.pdb
     RDKit          3D

 25 25  0  0  1  0  0  0  0  0999 V2000
   27.4940  -19.1858  -14.2965 N   0  0  0  0  0  0  0  0  0  0  0  0
   28.6651  -18.8424  -15.1100 C   0  0  0  0  0  0  0  0  0  0  0  0
   29.3423  -20.1783  -15.3056 C   0  0  0  0  0  0  0  0  0  0  0  0
   28.2614  -21.2197  -15.0624 C   0  0  0  0  0  0  0  0  0  0  0  0
   27.0209  -20.3748  -14.9952 C   0  0  1  0  0  0  0  0  0  0  0  0
   25.9104  -21.0227  -14.2515 C   0  0  0  0  0  0  0  0  0  0  0  0
   25.0997  -21.7448  -14.8828 O   0  0  0  0  0  0  0  0  0  0  0  0
   25.7149  -20.8699  -12.8595 N   0  0  0  0  0  0  0  0  0  0  0  0
   24.6334  -21.4720  -12.1275 C   0  0  1  0  0  0  0  0  0  0  0  0
   24.9371  -21.5956  -10.6520 C   0  0  0  0  0  0  0  0  0  0  0  0
   25.7748  -20.1280   -9.9994 S   0  0  0  0  0  0  0  0  0  0  0  0
   23.3827  -20.6601  -12.2197 C   0  0  0  0  0  0  0  0  0  0  0  0
   23.4039  -19.4523  -11.8568 O   0  0  0  0  0  0  0  0  0  0  0  0
   25.0273  -19.1842  -17.1158 N   0  0  0  0  0  0  0  0  0  0  0  0
   23.8223  -19.7618  -17.6427 C   0  0  0  0  0  0  0  0  0  0  0  0
   23.7977  -20.3692  -18.7729 N   0  0  0  0  0  0  0  0  0  0  0  0
   22.6037  -19.6711  -16.9042 N   0  0  0  0  0  0  0  0  0  0  0  0
   22.4980  -19.0571  -15.6155 C   0  0  0  0  0  0  0  0  0  0  0  0
   21.1320  -19.0334  -15.0214 C   0  0  0  0  0  0  0  0  0  0  0  0
   20.6523  -20.2366  -14.3205 C   0  0  0  0  0  0  0  0  0  0  0  0
   20.9524  -20.3979  -12.8777 C   0  0  2  0  0  0  0  0  0  0  0  0
   22.1692  -21.1962  -12.7011 N   0  0  0  0  0  0  0  0  0  0  0  0
   19.8637  -20.9852  -12.1040 C   0  0  0  0  0  0  0  0  0  0  0  0
   19.7935  -22.1972  -11.7864 O   0  0  0  0  0  0  0  0  0  0  0  0
   18.7837  -20.1995  -11.6509 O   0  0  0  0  0  0  0  0  0  0  0  0
  2  1  1  0
  3  2  1  0
  4  3  1  0
  4  5  1  0
  5  1  1  0
  5  6  1  1
  7  6  2  0
  8  6  1  0
  9 12  1  0
  9  8  1  0
  9 10  1  1
 11 10  1  0
 12 22  1  0
 13 12  2  0
 14 15  1  0
 15 17  1  0
 15 16  2  0
 17 18  1  0
 18 19  1  0
 20 19  1  0
 21 20  1  6
 22 21  1  0
 23 25  1  0
 23 21  1  0
 24 23  2  0
M  END
$$$$
