PCR.pdb
     RDKit          3D

 25 25  0  0  1  0  0  0  0  0999 V2000
   27.5342  -18.9931  -14.4869 N   0  0  0  0  0  0  0  0  0  0  0  0
   28.5912  -18.6509  -15.4444 C   0  0  0  0  0  0  0  0  0  0  0  0
   29.5789  -19.7808  -15.2731 C   0  0  0  0  0  0  0  0  0  0  0  0
   28.7866  -20.9209  -14.6532 C   0  0  0  0  0  0  0  0  0  0  0  0
   27.3754  -20.4165  -14.7594 C   0  0  1  0  0  0  0  0  0  0  0  0
   26.4529  -21.0462  -13.7804 C   0  0  0  0  0  0  0  0  0  0  0  0
   26.0703  -22.2253  -13.9814 O   0  0  0  0  0  0  0  0  0  0  0  0
   25.9783  -20.3850  -12.6242 N   0  0  0  0  0  0  0  0  0  0  0  0
   25.0342  -20.9548  -11.7012 C   0  0  1  0  0  0  0  0  0  0  0  0
   25.1157  -20.3209  -10.3315 C   0  0  0  0  0  0  0  0  0  0  0  0
   26.7648  -20.4814   -9.5990 S   0  0  0  0  0  0  0  0  0  0  0  0
   23.6254  -20.7585  -12.1581 C   0  0  0  0  0  0  0  0  0  0  0  0
   23.2305  -19.5985  -12.4570 O   0  0  0  0  0  0  0  0  0  0  0  0
   22.5675  -25.2119  -16.4989 N   0  0  0  0  0  0  0  0  0  0  0  0
   21.8497  -25.9874  -15.5259 C   0  0  0  0  0  0  0  0  0  0  0  0
   22.3017  -27.1014  -15.0772 N   0  0  0  0  0  0  0  0  0  0  0  0
   20.5945  -25.5242  -15.0276 N   0  0  0  0  0  0  0  0  0  0  0  0
   19.9316  -24.3501  -15.5083 C   0  0  0  0  0  0  0  0  0  0  0  0
   20.0674  -23.1365  -14.6550 C   0  0  0  0  0  0  0  0  0  0  0  0
   21.2891  -22.9817  -13.8472 C   0  0  0  0  0  0  0  0  0  0  0  0
   21.4709  -21.7485  -13.0447 C   0  0  2  0  0  0  0  0  0  0  0  0
   22.7126  -21.8290  -12.2695 N   0  0  0  0  0  0  0  0  0  0  0  0
   20.3553  -21.4462  -12.1543 C   0  0  0  0  0  0  0  0  0  0  0  0
   20.3340  -21.7143  -10.9286 O   0  0  0  0  0  0  0  0  0  0  0  0
   19.1896  -20.8133  -12.6337 O   0  0  0  0  0  0  0  0  0  0  0  0
  2  1  1  0
  3  2  1  0
  4  3  1  0
  4  5  1  0
  5  1  1  0
  5  6  1  1
  7  6  2  0
  8  6  1  0
  9 12  1  0
  9  8  1  0
  9 10  1  1
 11 10  1  0
 12 22  1  0
 13 12  2  0
 14 15  1  0
 15 17  1  0
 15 16  2  0
 17 18  1  0
 18 19  1  0
 20 19  1  0
 21 20  1  1
 22 21  1  0
 23 25  1  0
 23 21  1  0
 24 23  2  0
M  END
$$$$
