PCR.pdb
     RDKit          3D

 25 25  0  0  1  0  0  0  0  0999 V2000
   27.4918  -19.5507  -14.6380 N   0  0  0  0  0  0  0  0  0  0  0  0
   28.5807  -19.4238  -15.6124 C   0  0  0  0  0  0  0  0  0  0  0  0
   29.2930  -20.7507  -15.4954 C   0  0  0  0  0  0  0  0  0  0  0  0
   28.2769  -21.7035  -14.8859 C   0  0  0  0  0  0  0  0  0  0  0  0
   27.0129  -20.8934  -14.9436 C   0  0  1  0  0  0  0  0  0  0  0  0
   25.9910  -21.3311  -13.9587 C   0  0  0  0  0  0  0  0  0  0  0  0
   25.1315  -22.1753  -14.3133 O   0  0  0  0  0  0  0  0  0  0  0  0
   25.9329  -20.8454  -12.6321 N   0  0  0  0  0  0  0  0  0  0  0  0
   24.8156  -21.0460  -11.7494 C   0  0  1  0  0  0  0  0  0  0  0  0
   25.1409  -20.6821  -10.3189 C   0  0  0  0  0  0  0  0  0  0  0  0
   26.8468  -21.1012   -9.8761 S   0  0  0  0  0  0  0  0  0  0  0  0
   23.6484  -20.1951  -12.1312 C   0  0  0  0  0  0  0  0  0  0  0  0
   23.8465  -19.1346  -12.7845 O   0  0  0  0  0  0  0  0  0  0  0  0
   19.3369  -22.4656  -17.4639 N   0  0  0  0  0  0  0  0  0  0  0  0
   19.0575  -21.0799  -17.7191 C   0  0  0  0  0  0  0  0  0  0  0  0
   18.6707  -20.6656  -18.8703 N   0  0  0  0  0  0  0  0  0  0  0  0
   19.2064  -20.1168  -16.6756 N   0  0  0  0  0  0  0  0  0  0  0  0
   19.6580  -20.4368  -15.3556 C   0  0  0  0  0  0  0  0  0  0  0  0
   21.0560  -20.9418  -15.2559 C   0  0  0  0  0  0  0  0  0  0  0  0
   21.5618  -21.3461  -13.9331 C   0  0  0  0  0  0  0  0  0  0  0  0
   21.2156  -20.5259  -12.7476 C   0  0  2  0  0  0  0  0  0  0  0  0
   22.3227  -20.5348  -11.7867 N   0  0  0  0  0  0  0  0  0  0  0  0
   19.9833  -20.9321  -12.0804 C   0  0  0  0  0  0  0  0  0  0  0  0
   18.9440  -20.2312  -12.0237 O   0  0  0  0  0  0  0  0  0  0  0  0
   19.8812  -22.1811  -11.4333 O   0  0  0  0  0  0  0  0  0  0  0  0
  2  1  1  0
  3  2  1  0
  4  3  1  0
  4  5  1  0
  5  1  1  0
  5  6  1  1
  7  6  2  0
  8  6  1  0
  9 12  1  0
  9  8  1  0
  9 10  1  1
 11 10  1  0
 12 22  1  0
 13 12  2  0
 14 15  1  0
 15 17  1  0
 15 16  2  0
 17 18  1  0
 18 19  1  0
 20 19  1  0
 21 20  1  6
 22 21  1  0
 23 25  1  0
 23 21  1  0
 24 23  2  0
M  END
$$$$
