PCR.pdb
     RDKit          3D

 25 25  0  0  1  0  0  0  0  0999 V2000
   26.1103  -21.5246  -15.9474 N   0  0  0  0  0  0  0  0  0  0  0  0
   27.4931  -21.7445  -16.3840 C   0  0  0  0  0  0  0  0  0  0  0  0
   28.0638  -20.3462  -16.4108 C   0  0  0  0  0  0  0  0  0  0  0  0
   27.1649  -19.5243  -15.5007 C   0  0  0  0  0  0  0  0  0  0  0  0
   26.3205  -20.5847  -14.8527 C   0  0  1  0  0  0  0  0  0  0  0  0
   25.0262  -20.0695  -14.3377 C   0  0  0  0  0  0  0  0  0  0  0  0
   24.8032  -20.1201  -13.1028 O   0  0  0  0  0  0  0  0  0  0  0  0
   24.0230  -19.5199  -15.1688 N   0  0  0  0  0  0  0  0  0  0  0  0
   22.7974  -18.9476  -14.6809 C   0  0  1  0  0  0  0  0  0  0  0  0
   22.2520  -17.8836  -15.6056 C   0  0  0  0  0  0  0  0  0  0  0  0
   20.7343  -17.1306  -14.9642 S   0  0  0  0  0  0  0  0  0  0  0  0
   21.7178  -19.9731  -14.5578 C   0  0  0  0  0  0  0  0  0  0  0  0
   21.5702  -20.8256  -15.4755 O   0  0  0  0  0  0  0  0  0  0  0  0
   19.3110  -24.5429   -7.3985 N   0  0  0  0  0  0  0  0  0  0  0  0
   18.3634  -24.9442   -8.4007 C   0  0  0  0  0  0  0  0  0  0  0  0
   17.5033  -25.8729   -8.1896 N   0  0  0  0  0  0  0  0  0  0  0  0
   18.3585  -24.3041   -9.6769 N   0  0  0  0  0  0  0  0  0  0  0  0
   19.1812  -23.1801  -10.0068 C   0  0  0  0  0  0  0  0  0  0  0  0
   19.0990  -22.7116  -11.4185 C   0  0  0  0  0  0  0  0  0  0  0  0
   19.9332  -21.5685  -11.8266 C   0  0  0  0  0  0  0  0  0  0  0  0
   19.8806  -21.1039  -13.2335 C   0  0  2  0  0  0  0  0  0  0  0  0
   20.8506  -20.0254  -13.4457 N   0  0  0  0  0  0  0  0  0  0  0  0
   18.5582  -20.6673  -13.6685 C   0  0  0  0  0  0  0  0  0  0  0  0
   17.5732  -21.4305  -13.8171 O   0  0  0  0  0  0  0  0  0  0  0  0
   18.2965  -19.3127  -13.9612 O   0  0  0  0  0  0  0  0  0  0  0  0
  2  1  1  0
  3  2  1  0
  4  3  1  0
  4  5  1  0
  5  1  1  0
  5  6  1  6
  7  6  2  0
  8  6  1  0
  9 12  1  0
  9  8  1  0
  9 10  1  6
 11 10  1  0
 12 22  1  0
 13 12  2  0
 14 15  1  0
 15 17  1  0
 15 16  2  0
 17 18  1  0
 18 19  1  0
 20 19  1  0
 21 20  1  1
 22 21  1  0
 23 25  1  0
 23 21  1  0
 24 23  2  0
M  END
$$$$
