PCR.pdb
     RDKit          3D

 25 25  0  0  1  0  0  0  0  0999 V2000
   25.1634  -13.6538  -17.2704 N   0  0  0  0  0  0  0  0  0  0  0  0
   25.1608  -15.1133  -17.4160 C   0  0  0  0  0  0  0  0  0  0  0  0
   25.1142  -15.5940  -15.9848 C   0  0  0  0  0  0  0  0  0  0  0  0
   24.5645  -14.4250  -15.1826 C   0  0  0  0  0  0  0  0  0  0  0  0
   24.1214  -13.4822  -16.2652 C   0  0  1  0  0  0  0  0  0  0  0  0
   24.0433  -12.0689  -15.8155 C   0  0  0  0  0  0  0  0  0  0  0  0
   23.2382  -11.7691  -14.8994 O   0  0  0  0  0  0  0  0  0  0  0  0
   24.8331  -11.0337  -16.3667 N   0  0  0  0  0  0  0  0  0  0  0  0
   24.7783   -9.6628  -15.9361 C   0  0  1  0  0  0  0  0  0  0  0  0
   25.9923   -8.8748  -16.3719 C   0  0  0  0  0  0  0  0  0  0  0  0
   27.5279   -9.5448  -15.6830 S   0  0  0  0  0  0  0  0  0  0  0  0
   23.5998   -8.9480  -16.5125 C   0  0  0  0  0  0  0  0  0  0  0  0
   23.1793   -9.2752  -17.6557 O   0  0  0  0  0  0  0  0  0  0  0  0
   16.3410  -11.5070  -15.4187 N   0  0  0  0  0  0  0  0  0  0  0  0
   16.0341  -10.1129  -15.2582 C   0  0  0  0  0  0  0  0  0  0  0  0
   14.8341   -9.6985  -15.0715 N   0  0  0  0  0  0  0  0  0  0  0  0
   17.0792   -9.1412  -15.3028 N   0  0  0  0  0  0  0  0  0  0  0  0
   18.3735   -9.3894  -15.8616 C   0  0  0  0  0  0  0  0  0  0  0  0
   19.2972   -8.2211  -15.8955 C   0  0  0  0  0  0  0  0  0  0  0  0
   20.6513   -8.4147  -16.4415 C   0  0  0  0  0  0  0  0  0  0  0  0
   21.6590   -7.3415  -16.2667 C   0  0  2  0  0  0  0  0  0  0  0  0
   22.9335   -7.9132  -15.8220 N   0  0  0  0  0  0  0  0  0  0  0  0
   21.2499   -6.2824  -15.3503 C   0  0  0  0  0  0  0  0  0  0  0  0
   21.7966   -6.0516  -14.2447 O   0  0  0  0  0  0  0  0  0  0  0  0
   20.1752   -5.4235  -15.6608 O   0  0  0  0  0  0  0  0  0  0  0  0
  2  1  1  0
  3  2  1  0
  4  3  1  0
  4  5  1  0
  5  1  1  0
  5  6  1  1
  7  6  2  0
  8  6  1  0
  9 12  1  0
  9  8  1  0
  9 10  1  6
 11 10  1  0
 12 22  1  0
 13 12  2  0
 14 15  1  0
 15 17  1  0
 15 16  2  0
 17 18  1  0
 18 19  1  0
 20 19  1  0
 21 20  1  1
 22 21  1  0
 23 25  1  0
 23 21  1  0
 24 23  2  0
M  END
$$$$
