PCR.pdb
     RDKit          3D

 25 25  0  0  1  0  0  0  0  0999 V2000
   27.2719  -19.1627  -14.9264 N   0  0  0  0  0  0  0  0  0  0  0  0
   28.3548  -18.8141  -15.8523 C   0  0  0  0  0  0  0  0  0  0  0  0
   29.4720  -19.7369  -15.4259 C   0  0  0  0  0  0  0  0  0  0  0  0
   28.7945  -20.8755  -14.6798 C   0  0  0  0  0  0  0  0  0  0  0  0
   27.3423  -20.6184  -14.9666 C   0  0  1  0  0  0  0  0  0  0  0  0
   26.4307  -21.2233  -13.9621 C   0  0  0  0  0  0  0  0  0  0  0  0
   26.3383  -22.4744  -13.9048 O   0  0  0  0  0  0  0  0  0  0  0  0
   25.6550  -20.4609  -13.0586 N   0  0  0  0  0  0  0  0  0  0  0  0
   24.7409  -21.0282  -12.1046 C   0  0  1  0  0  0  0  0  0  0  0  0
   24.7376  -20.2752  -10.7940 C   0  0  0  0  0  0  0  0  0  0  0  0
   26.3272  -20.3915   -9.9329 S   0  0  0  0  0  0  0  0  0  0  0  0
   23.3315  -20.9923  -12.5989 C   0  0  0  0  0  0  0  0  0  0  0  0
   22.9075  -19.9545  -13.1770 O   0  0  0  0  0  0  0  0  0  0  0  0
   18.3536  -28.0842  -13.5078 N   0  0  0  0  0  0  0  0  0  0  0  0
   18.9997  -27.4036  -12.4203 C   0  0  0  0  0  0  0  0  0  0  0  0
   19.3053  -28.0044  -11.3284 N   0  0  0  0  0  0  0  0  0  0  0  0
   19.3223  -26.0176  -12.5353 N   0  0  0  0  0  0  0  0  0  0  0  0
   18.6524  -25.1153  -13.4220 C   0  0  0  0  0  0  0  0  0  0  0  0
   19.1739  -23.7199  -13.4389 C   0  0  0  0  0  0  0  0  0  0  0  0
   20.5305  -23.4731  -12.9216 C   0  0  0  0  0  0  0  0  0  0  0  0
   21.0913  -22.1027  -12.9943 C   0  0  2  0  0  0  0  0  0  0  0  0
   22.4495  -22.0829  -12.4431 N   0  0  0  0  0  0  0  0  0  0  0  0
   20.2777  -21.0893  -12.3310 C   0  0  0  0  0  0  0  0  0  0  0  0
   19.2662  -20.5482  -12.8396 O   0  0  0  0  0  0  0  0  0  0  0  0
   20.5902  -20.6378  -11.0319 O   0  0  0  0  0  0  0  0  0  0  0  0
  2  1  1  0
  3  2  1  0
  4  3  1  0
  4  5  1  0
  5  1  1  0
  5  6  1  1
  7  6  2  0
  8  6  1  0
  9 12  1  0
  9  8  1  0
  9 10  1  1
 11 10  1  0
 12 22  1  0
 13 12  2  0
 14 15  1  0
 15 17  1  0
 15 16  2  0
 17 18  1  0
 18 19  1  0
 20 19  1  0
 21 20  1  1
 22 21  1  0
 23 25  1  0
 23 21  1  0
 24 23  2  0
M  END
$$$$
