PCR.pdb
     RDKit          3D

 25 25  0  0  1  0  0  0  0  0999 V2000
   27.6946  -20.3750  -15.4501 N   0  0  0  0  0  0  0  0  0  0  0  0
   28.6225  -20.4839  -16.5808 C   0  0  0  0  0  0  0  0  0  0  0  0
   29.0817  -21.9207  -16.5020 C   0  0  0  0  0  0  0  0  0  0  0  0
   28.0120  -22.6443  -15.6993 C   0  0  0  0  0  0  0  0  0  0  0  0
   26.9299  -21.6059  -15.6108 C   0  0  1  0  0  0  0  0  0  0  0  0
   26.0101  -21.8145  -14.4634 C   0  0  0  0  0  0  0  0  0  0  0  0
   25.1112  -22.6864  -14.5593 O   0  0  0  0  0  0  0  0  0  0  0  0
   26.0923  -21.0793  -13.2584 N   0  0  0  0  0  0  0  0  0  0  0  0
   25.2104  -21.2679  -12.1384 C   0  0  1  0  0  0  0  0  0  0  0  0
   25.8208  -20.7920  -10.8401 C   0  0  0  0  0  0  0  0  0  0  0  0
   24.6872  -20.9813   -9.4399 S   0  0  0  0  0  0  0  0  0  0  0  0
   23.9401  -20.4980  -12.2980 C   0  0  0  0  0  0  0  0  0  0  0  0
   23.9873  -19.2398  -12.3726 O   0  0  0  0  0  0  0  0  0  0  0  0
   22.3095  -23.0330  -17.2587 N   0  0  0  0  0  0  0  0  0  0  0  0
   21.1566  -23.6603  -16.6749 C   0  0  0  0  0  0  0  0  0  0  0  0
   21.0120  -24.9353  -16.6589 N   0  0  0  0  0  0  0  0  0  0  0  0
   20.1288  -22.8619  -16.0880 N   0  0  0  0  0  0  0  0  0  0  0  0
   20.1565  -21.4313  -16.0493 C   0  0  0  0  0  0  0  0  0  0  0  0
   21.0068  -20.8303  -14.9839 C   0  0  0  0  0  0  0  0  0  0  0  0
   20.5918  -20.9954  -13.5805 C   0  0  0  0  0  0  0  0  0  0  0  0
   21.4197  -20.3927  -12.5085 C   0  0  2  0  0  0  0  0  0  0  0  0
   22.6797  -21.1288  -12.3693 N   0  0  0  0  0  0  0  0  0  0  0  0
   20.7525  -20.3125  -11.2134 C   0  0  0  0  0  0  0  0  0  0  0  0
   21.0095  -21.0571  -10.2366 O   0  0  0  0  0  0  0  0  0  0  0  0
   19.7404  -19.3606  -10.9714 O   0  0  0  0  0  0  0  0  0  0  0  0
  2  1  1  0
  3  2  1  0
  4  3  1  0
  4  5  1  0
  5  1  1  0
  5  6  1  1
  7  6  2  0
  8  6  1  0
  9 12  1  0
  9  8  1  0
  9 10  1  1
 11 10  1  0
 12 22  1  0
 13 12  2  0
 14 15  1  0
 15 17  1  0
 15 16  2  0
 17 18  1  0
 18 19  1  0
 20 19  1  0
 21 20  1  6
 22 21  1  0
 23 25  1  0
 23 21  1  0
 24 23  2  0
M  END
$$$$
