PCR.pdb
     RDKit          3D

 25 25  0  0  1  0  0  0  0  0999 V2000
   27.6953  -22.7177  -18.0122 N   0  0  0  0  0  0  0  0  0  0  0  0
   28.6548  -23.5622  -18.7314 C   0  0  0  0  0  0  0  0  0  0  0  0
   29.4631  -24.1792  -17.6144 C   0  0  0  0  0  0  0  0  0  0  0  0
   28.5895  -24.0710  -16.3747 C   0  0  0  0  0  0  0  0  0  0  0  0
   27.2757  -23.6288  -16.9542 C   0  0  1  0  0  0  0  0  0  0  0  0
   26.4046  -22.9368  -15.9702 C   0  0  0  0  0  0  0  0  0  0  0  0
   25.9877  -23.5787  -14.9745 O   0  0  0  0  0  0  0  0  0  0  0  0
   26.0162  -21.5829  -16.0940 N   0  0  0  0  0  0  0  0  0  0  0  0
   25.1173  -20.9172  -15.1903 C   0  0  1  0  0  0  0  0  0  0  0  0
   25.2969  -19.4165  -15.2029 C   0  0  0  0  0  0  0  0  0  0  0  0
   24.1585  -18.5805  -14.0686 S   0  0  0  0  0  0  0  0  0  0  0  0
   23.6882  -21.1598  -15.5520 C   0  0  0  0  0  0  0  0  0  0  0  0
   23.3182  -20.9945  -16.7464 O   0  0  0  0  0  0  0  0  0  0  0  0
   16.8303  -24.5569  -11.6961 N   0  0  0  0  0  0  0  0  0  0  0  0
   18.1706  -24.4766  -11.1858 C   0  0  0  0  0  0  0  0  0  0  0  0
   18.4133  -24.3066   -9.9373 N   0  0  0  0  0  0  0  0  0  0  0  0
   19.2820  -24.5879  -12.0753 N   0  0  0  0  0  0  0  0  0  0  0  0
   19.1552  -24.8167  -13.4826 C   0  0  0  0  0  0  0  0  0  0  0  0
   19.5986  -23.6983  -14.3613 C   0  0  0  0  0  0  0  0  0  0  0  0
   20.9048  -23.0730  -14.0935 C   0  0  0  0  0  0  0  0  0  0  0  0
   21.3606  -21.9578  -14.9575 C   0  0  2  0  0  0  0  0  0  0  0  0
   22.7289  -21.5702  -14.6017 N   0  0  0  0  0  0  0  0  0  0  0  0
   20.4938  -20.7847  -14.9242 C   0  0  0  0  0  0  0  0  0  0  0  0
   20.7320  -19.7462  -14.2612 O   0  0  0  0  0  0  0  0  0  0  0  0
   19.2911  -20.7447  -15.6596 O   0  0  0  0  0  0  0  0  0  0  0  0
  2  1  1  0
  3  2  1  0
  4  3  1  0
  4  5  1  0
  5  1  1  0
  5  6  1  1
  7  6  2  0
  8  6  1  0
  9 12  1  0
  9  8  1  0
  9 10  1  6
 11 10  1  0
 12 22  1  0
 13 12  2  0
 14 15  1  0
 15 17  1  0
 15 16  2  0
 17 18  1  0
 18 19  1  0
 20 19  1  0
 21 20  1  1
 22 21  1  0
 23 25  1  0
 23 21  1  0
 24 23  2  0
M  END
$$$$
