PCR.pdb
     RDKit          3D

 25 25  0  0  1  0  0  0  0  0999 V2000
   27.3782  -18.7962  -14.2303 N   0  0  0  0  0  0  0  0  0  0  0  0
   28.3185  -18.2394  -15.2086 C   0  0  0  0  0  0  0  0  0  0  0  0
   29.2673  -19.3885  -15.4550 C   0  0  0  0  0  0  0  0  0  0  0  0
   28.5096  -20.6372  -15.0322 C   0  0  0  0  0  0  0  0  0  0  0  0
   27.1209  -20.1047  -14.8195 C   0  0  1  0  0  0  0  0  0  0  0  0
   26.3035  -20.9469  -13.9093 C   0  0  0  0  0  0  0  0  0  0  0  0
   25.8524  -22.0381  -14.3368 O   0  0  0  0  0  0  0  0  0  0  0  0
   26.0034  -20.5842  -12.5760 N   0  0  0  0  0  0  0  0  0  0  0  0
   25.0711  -21.2907  -11.7397 C   0  0  1  0  0  0  0  0  0  0  0  0
   25.3929  -21.1451  -10.2701 C   0  0  0  0  0  0  0  0  0  0  0  0
   25.7102  -19.4232   -9.8053 S   0  0  0  0  0  0  0  0  0  0  0  0
   23.6784  -20.7758  -11.9051 C   0  0  0  0  0  0  0  0  0  0  0  0
   23.4986  -19.5497  -12.1402 O   0  0  0  0  0  0  0  0  0  0  0  0
   22.3700  -21.6996  -17.3446 N   0  0  0  0  0  0  0  0  0  0  0  0
   21.0228  -21.7848  -17.8359 C   0  0  0  0  0  0  0  0  0  0  0  0
   20.7571  -22.1932  -19.0231 N   0  0  0  0  0  0  0  0  0  0  0  0
   19.9306  -21.4107  -16.9959 N   0  0  0  0  0  0  0  0  0  0  0  0
   20.0878  -20.8085  -15.7069 C   0  0  0  0  0  0  0  0  0  0  0  0
   21.2689  -21.2634  -14.9211 C   0  0  0  0  0  0  0  0  0  0  0  0
   21.0345  -21.9821  -13.6572 C   0  0  0  0  0  0  0  0  0  0  0  0
   21.2402  -21.2690  -12.3739 C   0  0  2  0  0  0  0  0  0  0  0  0
   22.5476  -21.6146  -11.8080 N   0  0  0  0  0  0  0  0  0  0  0  0
   20.1971  -21.5113  -11.3829 C   0  0  0  0  0  0  0  0  0  0  0  0
   20.3680  -22.1482  -10.3153 O   0  0  0  0  0  0  0  0  0  0  0  0
   18.8852  -21.0292  -11.5714 O   0  0  0  0  0  0  0  0  0  0  0  0
  2  1  1  0
  3  2  1  0
  4  3  1  0
  4  5  1  0
  5  1  1  0
  5  6  1  1
  7  6  2  0
  8  6  1  0
  9 12  1  0
  9  8  1  0
  9 10  1  1
 11 10  1  0
 12 22  1  0
 13 12  2  0
 14 15  1  0
 15 17  1  0
 15 16  2  0
 17 18  1  0
 18 19  1  0
 20 19  1  0
 21 20  1  6
 22 21  1  0
 23 25  1  0
 23 21  1  0
 24 23  2  0
M  END
$$$$
