PCR.pdb
     RDKit          3D

 25 25  0  0  1  0  0  0  0  0999 V2000
   27.7491  -19.2939  -15.8409 N   0  0  0  0  0  0  0  0  0  0  0  0
   28.6711  -18.9032  -16.9125 C   0  0  0  0  0  0  0  0  0  0  0  0
   29.7903  -19.9085  -16.7765 C   0  0  0  0  0  0  0  0  0  0  0  0
   29.1891  -21.0844  -16.0230 C   0  0  0  0  0  0  0  0  0  0  0  0
   27.7265  -20.7407  -16.0202 C   0  0  1  0  0  0  0  0  0  0  0  0
   26.9716  -21.4010  -14.9247 C   0  0  0  0  0  0  0  0  0  0  0  0
   26.7764  -22.6401  -14.9858 O   0  0  0  0  0  0  0  0  0  0  0  0
   26.4568  -20.7048  -13.8068 N   0  0  0  0  0  0  0  0  0  0  0  0
   25.7145  -21.3259  -12.7434 C   0  0  1  0  0  0  0  0  0  0  0  0
   26.0463  -20.7375  -11.3912 C   0  0  0  0  0  0  0  0  0  0  0  0
   24.9311  -21.3313  -10.0931 S   0  0  0  0  0  0  0  0  0  0  0  0
   24.2417  -21.1445  -12.9166 C   0  0  0  0  0  0  0  0  0  0  0  0
   23.7790  -19.9827  -13.0804 O   0  0  0  0  0  0  0  0  0  0  0  0
   18.7524  -26.5026  -11.3553 N   0  0  0  0  0  0  0  0  0  0  0  0
   17.9442  -26.2472  -12.5151 C   0  0  0  0  0  0  0  0  0  0  0  0
   16.6811  -26.4735  -12.5263 N   0  0  0  0  0  0  0  0  0  0  0  0
   18.5419  -25.7246  -13.7018 N   0  0  0  0  0  0  0  0  0  0  0  0
   19.9338  -25.4125  -13.8210 C   0  0  0  0  0  0  0  0  0  0  0  0
   20.3573  -24.1126  -13.2291 C   0  0  0  0  0  0  0  0  0  0  0  0
   21.4451  -23.3664  -13.8840 C   0  0  0  0  0  0  0  0  0  0  0  0
   21.9269  -22.1065  -13.2688 C   0  0  2  0  0  0  0  0  0  0  0  0
   23.3413  -22.2312  -12.9043 N   0  0  0  0  0  0  0  0  0  0  0  0
   21.1565  -21.6776  -12.1063 C   0  0  0  0  0  0  0  0  0  0  0  0
   21.5465  -21.7858  -10.9185 O   0  0  0  0  0  0  0  0  0  0  0  0
   19.8798  -21.0960  -12.2509 O   0  0  0  0  0  0  0  0  0  0  0  0
  2  1  1  0
  3  2  1  0
  4  3  1  0
  4  5  1  0
  5  1  1  0
  5  6  1  1
  7  6  2  0
  8  6  1  0
  9 12  1  0
  9  8  1  0
  9 10  1  1
 11 10  1  0
 12 22  1  0
 13 12  2  0
 14 15  1  0
 15 17  1  0
 15 16  2  0
 17 18  1  0
 18 19  1  0
 20 19  1  0
 21 20  1  1
 22 21  1  0
 23 25  1  0
 23 21  1  0
 24 23  2  0
M  END
$$$$
