PCR.pdb
     RDKit          3D

 25 25  0  0  1  0  0  0  0  0999 V2000
   28.9300  -22.1408  -15.7075 N   0  0  0  0  0  0  0  0  0  0  0  0
   29.6434  -23.0926  -16.5657 C   0  0  0  0  0  0  0  0  0  0  0  0
   28.6164  -23.4291  -17.6210 C   0  0  0  0  0  0  0  0  0  0  0  0
   27.6229  -22.2782  -17.6009 C   0  0  0  0  0  0  0  0  0  0  0  0
   28.3135  -21.2829  -16.7122 C   0  0  1  0  0  0  0  0  0  0  0  0
   27.3810  -20.3126  -16.0838 C   0  0  0  0  0  0  0  0  0  0  0  0
   26.8264  -20.6213  -15.0002 O   0  0  0  0  0  0  0  0  0  0  0  0
   27.0816  -19.0491  -16.6435 N   0  0  0  0  0  0  0  0  0  0  0  0
   26.0807  -18.1559  -16.1257 C   0  0  1  0  0  0  0  0  0  0  0  0
   26.1986  -16.7641  -16.7033 C   0  0  0  0  0  0  0  0  0  0  0  0
   27.7101  -15.9240  -16.1639 S   0  0  0  0  0  0  0  0  0  0  0  0
   24.6997  -18.6194  -16.4577 C   0  0  0  0  0  0  0  0  0  0  0  0
   24.5501  -19.6243  -17.2051 O   0  0  0  0  0  0  0  0  0  0  0  0
   25.4638  -22.0328  -11.2412 N   0  0  0  0  0  0  0  0  0  0  0  0
   24.4945  -21.1377  -10.6732 C   0  0  0  0  0  0  0  0  0  0  0  0
   24.3312  -21.0290   -9.4050 N   0  0  0  0  0  0  0  0  0  0  0  0
   23.6780  -20.3341  -11.5252 N   0  0  0  0  0  0  0  0  0  0  0  0
   23.4755  -20.6013  -12.9168 C   0  0  0  0  0  0  0  0  0  0  0  0
   22.4723  -19.7382  -13.6010 C   0  0  0  0  0  0  0  0  0  0  0  0
   22.3285  -19.8548  -15.0620 C   0  0  0  0  0  0  0  0  0  0  0  0
   22.2357  -18.6205  -15.8779 C   0  0  2  0  0  0  0  0  0  0  0  0
   23.5475  -17.9718  -15.9632 N   0  0  0  0  0  0  0  0  0  0  0  0
   21.2446  -17.6624  -15.3996 C   0  0  0  0  0  0  0  0  0  0  0  0
   21.5233  -16.5606  -14.8675 O   0  0  0  0  0  0  0  0  0  0  0  0
   19.8633  -17.9257  -15.5077 O   0  0  0  0  0  0  0  0  0  0  0  0
  2  1  1  0
  3  2  1  0
  4  3  1  0
  4  5  1  0
  5  1  1  0
  5  6  1  1
  7  6  2  0
  8  6  1  0
  9 12  1  0
  9  8  1  0
  9 10  1  6
 11 10  1  0
 12 22  1  0
 13 12  2  0
 14 15  1  0
 15 17  1  0
 15 16  2  0
 17 18  1  0
 18 19  1  0
 20 19  1  0
 21 20  1  1
 22 21  1  0
 23 25  1  0
 23 21  1  0
 24 23  2  0
M  END
$$$$
