PCR.pdb
     RDKit          3D

 25 25  0  0  1  0  0  0  0  0999 V2000
   31.2798  -21.0576  -10.2736 N   0  0  0  0  0  0  0  0  0  0  0  0
   32.5340  -21.5324  -10.8677 C   0  0  0  0  0  0  0  0  0  0  0  0
   32.8008  -22.8126  -10.1118 C   0  0  0  0  0  0  0  0  0  0  0  0
   31.4542  -23.2385   -9.5484 C   0  0  0  0  0  0  0  0  0  0  0  0
   30.5116  -22.2964  -10.2422 C   0  0  1  0  0  0  0  0  0  0  0  0
   29.2298  -22.1095   -9.5155 C   0  0  0  0  0  0  0  0  0  0  0  0
   28.3863  -23.0399   -9.5275 O   0  0  0  0  0  0  0  0  0  0  0  0
   28.9048  -20.9313   -8.8045 N   0  0  0  0  0  0  0  0  0  0  0  0
   27.6166  -20.6731   -8.2199 C   0  0  1  0  0  0  0  0  0  0  0  0
   27.6914  -19.6855   -7.0782 C   0  0  0  0  0  0  0  0  0  0  0  0
   26.0571  -19.2970   -6.4000 S   0  0  0  0  0  0  0  0  0  0  0  0
   26.6678  -20.0805   -9.2101 C   0  0  0  0  0  0  0  0  0  0  0  0
   26.9065  -18.9361   -9.6836 O   0  0  0  0  0  0  0  0  0  0  0  0
   24.9029  -25.0088  -14.9411 N   0  0  0  0  0  0  0  0  0  0  0  0
   23.8050  -24.1875  -15.3695 C   0  0  0  0  0  0  0  0  0  0  0  0
   22.8253  -24.6629  -16.0484 N   0  0  0  0  0  0  0  0  0  0  0  0
   23.7806  -22.7984  -15.0406 N   0  0  0  0  0  0  0  0  0  0  0  0
   24.7555  -22.1600  -14.2092 C   0  0  0  0  0  0  0  0  0  0  0  0
   24.2465  -21.6124  -12.9207 C   0  0  0  0  0  0  0  0  0  0  0  0
   25.1941  -20.9192  -12.0315 C   0  0  0  0  0  0  0  0  0  0  0  0
   24.6919  -20.3131  -10.7752 C   0  0  2  0  0  0  0  0  0  0  0  0
   25.5061  -20.7569   -9.6398 N   0  0  0  0  0  0  0  0  0  0  0  0
   23.2837  -20.5825  -10.5042 C   0  0  0  0  0  0  0  0  0  0  0  0
   22.8607  -21.1903   -9.4911 O   0  0  0  0  0  0  0  0  0  0  0  0
   22.2755  -20.1632  -11.3968 O   0  0  0  0  0  0  0  0  0  0  0  0
  2  1  1  0
  3  2  1  0
  4  3  1  0
  4  5  1  0
  5  1  1  0
  5  6  1  1
  7  6  2  0
  8  6  1  0
  9 12  1  0
  9  8  1  0
  9 10  1  1
 11 10  1  0
 12 22  1  0
 13 12  2  0
 14 15  1  0
 15 17  1  0
 15 16  2  0
 17 18  1  0
 18 19  1  0
 20 19  1  0
 21 20  1  6
 22 21  1  0
 23 25  1  0
 23 21  1  0
 24 23  2  0
M  END
$$$$
