IPI.pdb
     RDKit          3D

 24 24  0  0  1  0  0  0  0  0999 V2000
   12.1286  -14.7842   17.5844 C   0  0  0  0  0  0  0  0  0  0  0  0
   10.6340  -14.6119   17.5469 C   0  0  0  0  0  0  0  0  0  0  0  0
   10.0227  -14.4927   18.9186 C   0  0  2  0  0  0  0  0  0  0  0  0
   10.3659  -15.7435   19.6994 C   0  0  0  0  0  0  0  0  0  0  0  0
    8.5198  -14.3813   18.8729 C   0  0  2  0  0  0  0  0  0  0  0  0
    8.0541  -13.1277   18.3897 N   0  0  0  0  0  0  0  0  0  0  0  0
    8.0016  -14.5912   20.2455 C   0  0  0  0  0  0  0  0  0  0  0  0
    8.1824  -13.6157   21.0412 O   0  0  0  0  0  0  0  0  0  0  0  0
    7.3425  -15.7922   20.6736 N   0  0  0  0  0  0  0  0  0  0  0  0
    7.1288  -17.0241   19.9851 C   0  0  0  0  0  0  0  0  0  0  0  0
    6.0122  -17.7028   20.7448 C   0  0  0  0  0  0  0  0  0  0  0  0
    6.2937  -17.3110   22.1641 C   0  0  0  0  0  0  0  0  0  0  0  0
    6.7548  -15.8861   21.9963 C   0  0  1  0  0  0  0  0  0  0  0  0
    7.7148  -15.5827   23.0640 C   0  0  0  0  0  0  0  0  0  0  0  0
    8.9287  -15.8095   22.9099 O   0  0  0  0  0  0  0  0  0  0  0  0
    6.1586  -11.5981   26.4408 C   0  0  0  0  0  0  0  0  0  0  0  0
    7.0885  -12.4709   25.6458 C   0  0  0  0  0  0  0  0  0  0  0  0
    7.4932  -13.7443   26.2997 C   0  0  2  0  0  0  0  0  0  0  0  0
    8.4878  -13.3820   27.4178 C   0  0  0  0  0  0  0  0  0  0  0  0
    8.1144  -14.7826   25.4377 C   0  0  2  0  0  0  0  0  0  0  0  0
    7.2628  -15.0286   24.2787 N   0  0  0  0  0  0  0  0  0  0  0  0
    8.4057  -16.0689   26.0896 C   0  0  0  0  0  0  0  0  0  0  0  0
    7.4256  -17.0422   26.1584 O   0  0  0  0  0  0  0  0  0  0  0  0
    9.5404  -16.3145   26.5974 O   0  0  0  0  0  0  0  0  0  0  0  0
  2  1  1  0
  3  2  1  0
  3  4  1  1
  5  7  1  0
  5  3  1  0
  5  6  1  1
  7  8  2  0
  9 13  1  0
  9  7  1  0
 10  9  1  0
 11 10  1  0
 11 12  1  0
 12 13  1  0
 14 15  2  0
 13 14  1  1
 17 16  1  0
 17 18  1  0
 18 20  1  0
 18 19  1  1
 20 22  1  0
 20 21  1  6
 21 14  1  0
 22 23  1  0
 24 22  2  0
M  END
$$$$
