IPI.pdb
     RDKit          3D

 24 24  0  0  1  0  0  0  0  0999 V2000
    5.8392  -11.5041   27.0998 C   0  0  0  0  0  0  0  0  0  0  0  0
    5.4042  -12.7172   26.3225 C   0  0  0  0  0  0  0  0  0  0  0  0
    6.5555  -13.6051   25.9281 C   0  0  2  0  0  0  0  0  0  0  0  0
    7.4834  -12.8078   25.0362 C   0  0  0  0  0  0  0  0  0  0  0  0
    6.1091  -14.8189   25.1531 C   0  0  2  0  0  0  0  0  0  0  0  0
    5.3230  -15.7262   25.9153 N   0  0  0  0  0  0  0  0  0  0  0  0
    7.3185  -15.5223   24.6642 C   0  0  0  0  0  0  0  0  0  0  0  0
    7.8921  -16.2625   25.5247 O   0  0  0  0  0  0  0  0  0  0  0  0
    7.8278  -15.3971   23.3282 N   0  0  0  0  0  0  0  0  0  0  0  0
    7.3129  -14.6798   22.2068 C   0  0  0  0  0  0  0  0  0  0  0  0
    8.0018  -15.2902   21.0080 C   0  0  0  0  0  0  0  0  0  0  0  0
    9.3699  -15.6004   21.5367 C   0  0  0  0  0  0  0  0  0  0  0  0
    9.0527  -16.0666   22.9343 C   0  0  1  0  0  0  0  0  0  0  0  0
   10.1864  -15.7275   23.8024 C   0  0  0  0  0  0  0  0  0  0  0  0
   10.8444  -14.6887   23.6108 O   0  0  0  0  0  0  0  0  0  0  0  0
   10.8195  -13.9198   29.0075 C   0  0  0  0  0  0  0  0  0  0  0  0
   11.5517  -14.8298   28.0619 C   0  0  0  0  0  0  0  0  0  0  0  0
   10.7555  -15.3416   26.9144 C   0  0  2  0  0  0  0  0  0  0  0  0
    9.5612  -16.1154   27.5023 C   0  0  0  0  0  0  0  0  0  0  0  0
   11.4532  -16.2233   25.9434 C   0  0  2  0  0  0  0  0  0  0  0  0
   10.5379  -16.5835   24.8657 N   0  0  0  0  0  0  0  0  0  0  0  0
   12.0361  -17.4552   26.4976 C   0  0  0  0  0  0  0  0  0  0  0  0
   11.4231  -18.6723   26.2618 O   0  0  0  0  0  0  0  0  0  0  0  0
   13.0944  -17.4345   27.1942 O   0  0  0  0  0  0  0  0  0  0  0  0
  2  1  1  0
  3  2  1  0
  3  4  1  6
  5  7  1  0
  5  3  1  0
  5  6  1  1
  7  8  2  0
  9 13  1  0
  9  7  1  0
 10  9  1  0
 11 10  1  0
 11 12  1  0
 12 13  1  0
 14 15  2  0
 13 14  1  1
 17 16  1  0
 17 18  1  0
 18 20  1  0
 18 19  1  1
 20 22  1  0
 20 21  1  6
 21 14  1  0
 22 23  1  0
 24 22  2  0
M  END
$$$$
