IPI.pdb
     RDKit          3D

 24 24  0  0  1  0  0  0  0  0999 V2000
    5.8642  -10.8680   26.8521 C   0  0  0  0  0  0  0  0  0  0  0  0
    5.3706  -12.1621   26.2632 C   0  0  0  0  0  0  0  0  0  0  0  0
    6.4871  -13.1117   25.9152 C   0  0  2  0  0  0  0  0  0  0  0  0
    7.4105  -12.4173   24.9367 C   0  0  0  0  0  0  0  0  0  0  0  0
    5.9880  -14.3723   25.2556 C   0  0  2  0  0  0  0  0  0  0  0  0
    5.1037  -15.1317   26.0700 N   0  0  0  0  0  0  0  0  0  0  0  0
    7.1632  -15.2073   24.9120 C   0  0  0  0  0  0  0  0  0  0  0  0
    7.6270  -15.9004   25.8722 O   0  0  0  0  0  0  0  0  0  0  0  0
    7.7551  -15.2509   23.6051 N   0  0  0  0  0  0  0  0  0  0  0  0
    7.4068  -14.5533   22.4096 C   0  0  0  0  0  0  0  0  0  0  0  0
    8.0649  -15.3382   21.2982 C   0  0  0  0  0  0  0  0  0  0  0  0
    9.3455  -15.7940   21.9305 C   0  0  0  0  0  0  0  0  0  0  0  0
    8.8921  -16.1092   23.3327 C   0  0  1  0  0  0  0  0  0  0  0  0
   10.0148  -15.8667   24.2463 C   0  0  0  0  0  0  0  0  0  0  0  0
   10.8753  -15.0076   23.9810 O   0  0  0  0  0  0  0  0  0  0  0  0
    9.5746  -13.7878   28.7015 C   0  0  0  0  0  0  0  0  0  0  0  0
   10.1353  -14.4171   27.4573 C   0  0  0  0  0  0  0  0  0  0  0  0
   10.6955  -15.7850   27.6237 C   0  0  2  0  0  0  0  0  0  0  0  0
   11.8462  -15.6814   28.6415 C   0  0  0  0  0  0  0  0  0  0  0  0
   11.2074  -16.4620   26.4045 C   0  0  2  0  0  0  0  0  0  0  0  0
   10.1246  -16.6116   25.4379 N   0  0  0  0  0  0  0  0  0  0  0  0
   11.8356  -17.7756   26.6147 C   0  0  0  0  0  0  0  0  0  0  0  0
   13.2142  -17.8867   26.6121 O   0  0  0  0  0  0  0  0  0  0  0  0
   11.1438  -18.8212   26.7986 O   0  0  0  0  0  0  0  0  0  0  0  0
  2  1  1  0
  3  2  1  0
  3  4  1  6
  5  7  1  0
  5  3  1  0
  5  6  1  1
  7  8  2  0
  9 13  1  0
  9  7  1  0
 10  9  1  0
 11 10  1  0
 11 12  1  0
 12 13  1  0
 14 15  2  0
 13 14  1  1
 17 16  1  0
 17 18  1  0
 18 20  1  0
 18 19  1  1
 20 22  1  0
 20 21  1  6
 21 14  1  0
 22 23  1  0
 24 22  2  0
M  END
$$$$
