IPI.pdb
     RDKit          3D

 24 24  0  0  1  0  0  0  0  0999 V2000
    7.7798  -12.0897   18.3650 C   0  0  0  0  0  0  0  0  0  0  0  0
    7.6159  -13.5762   18.5347 C   0  0  0  0  0  0  0  0  0  0  0  0
    7.5983  -14.0032   19.9793 C   0  0  2  0  0  0  0  0  0  0  0  0
    8.9335  -13.6425   20.5951 C   0  0  0  0  0  0  0  0  0  0  0  0
    7.4090  -15.4904   20.1392 C   0  0  2  0  0  0  0  0  0  0  0  0
    6.2064  -15.9790   19.5588 N   0  0  0  0  0  0  0  0  0  0  0  0
    7.4049  -15.7999   21.5886 C   0  0  0  0  0  0  0  0  0  0  0  0
    6.6696  -15.0409   22.2962 O   0  0  0  0  0  0  0  0  0  0  0  0
    8.1625  -16.8671   22.1778 N   0  0  0  0  0  0  0  0  0  0  0  0
    8.9171  -17.9120   21.5647 C   0  0  0  0  0  0  0  0  0  0  0  0
    9.0842  -18.9542   22.6467 C   0  0  0  0  0  0  0  0  0  0  0  0
    9.2280  -18.1226   23.8857 C   0  0  0  0  0  0  0  0  0  0  0  0
    8.2434  -17.0134   23.6185 C   0  0  1  0  0  0  0  0  0  0  0  0
    8.7262  -15.7975   24.2837 C   0  0  0  0  0  0  0  0  0  0  0  0
    9.6423  -15.1206   23.7825 O   0  0  0  0  0  0  0  0  0  0  0  0
    5.6334  -12.1867   27.2760 C   0  0  0  0  0  0  0  0  0  0  0  0
    6.4197  -13.4227   26.9407 C   0  0  0  0  0  0  0  0  0  0  0  0
    7.7914  -13.1903   26.4142 C   0  0  2  0  0  0  0  0  0  0  0  0
    7.6393  -12.6397   24.9843 C   0  0  0  0  0  0  0  0  0  0  0  0
    8.7093  -14.3576   26.3719 C   0  0  2  0  0  0  0  0  0  0  0  0
    8.1497  -15.3876   25.5029 N   0  0  0  0  0  0  0  0  0  0  0  0
    9.0367  -14.9649   27.6713 C   0  0  0  0  0  0  0  0  0  0  0  0
    9.8817  -14.3051   28.5451 O   0  0  0  0  0  0  0  0  0  0  0  0
    8.5638  -16.0883   28.0178 O   0  0  0  0  0  0  0  0  0  0  0  0
  2  1  1  0
  3  2  1  0
  3  4  1  6
  5  7  1  0
  5  3  1  0
  5  6  1  1
  7  8  2  0
  9 13  1  0
  9  7  1  0
 10  9  1  0
 11 10  1  0
 11 12  1  0
 12 13  1  0
 14 15  2  0
 13 14  1  1
 17 16  1  0
 17 18  1  0
 18 20  1  0
 18 19  1  6
 20 22  1  0
 20 21  1  6
 21 14  1  0
 22 23  1  0
 24 22  2  0
M  END
$$$$
