IPI.pdb
     RDKit          3D

 24 24  0  0  1  0  0  0  0  0999 V2000
    6.2810  -11.1780   27.0224 C   0  0  0  0  0  0  0  0  0  0  0  0
    5.7601  -12.3108   26.1795 C   0  0  0  0  0  0  0  0  0  0  0  0
    6.8084  -13.3510   25.8822 C   0  0  2  0  0  0  0  0  0  0  0  0
    7.9044  -12.6981   25.0671 C   0  0  0  0  0  0  0  0  0  0  0  0
    6.2653  -14.5037   25.0763 C   0  0  2  0  0  0  0  0  0  0  0  0
    5.2896  -15.2740   25.7665 N   0  0  0  0  0  0  0  0  0  0  0  0
    7.4007  -15.3824   24.7083 C   0  0  0  0  0  0  0  0  0  0  0  0
    7.7507  -16.2102   25.6080 O   0  0  0  0  0  0  0  0  0  0  0  0
    8.0740  -15.3262   23.4419 N   0  0  0  0  0  0  0  0  0  0  0  0
    7.7895  -14.5504   22.2782 C   0  0  0  0  0  0  0  0  0  0  0  0
    8.5293  -15.2467   21.1590 C   0  0  0  0  0  0  0  0  0  0  0  0
    9.7752  -15.7299   21.8384 C   0  0  0  0  0  0  0  0  0  0  0  0
    9.2403  -16.1489   23.1835 C   0  0  1  0  0  0  0  0  0  0  0  0
   10.2992  -15.9574   24.1814 C   0  0  0  0  0  0  0  0  0  0  0  0
   11.2946  -15.2559   23.9245 O   0  0  0  0  0  0  0  0  0  0  0  0
    9.3625  -13.3413   28.2608 C   0  0  0  0  0  0  0  0  0  0  0  0
   10.0356  -14.1500   27.1879 C   0  0  0  0  0  0  0  0  0  0  0  0
   10.4720  -15.5146   27.5882 C   0  0  2  0  0  0  0  0  0  0  0  0
   11.4534  -15.3488   28.7629 C   0  0  0  0  0  0  0  0  0  0  0  0
   11.1232  -16.3517   26.5478 C   0  0  2  0  0  0  0  0  0  0  0  0
   10.1929  -16.5719   25.4455 N   0  0  0  0  0  0  0  0  0  0  0  0
   11.6352  -17.6549   26.9993 C   0  0  0  0  0  0  0  0  0  0  0  0
   12.9748  -17.7960   27.3130 O   0  0  0  0  0  0  0  0  0  0  0  0
   10.8774  -18.6646   27.1093 O   0  0  0  0  0  0  0  0  0  0  0  0
  2  1  1  0
  3  2  1  0
  3  4  1  6
  5  7  1  0
  5  3  1  0
  5  6  1  1
  7  8  2  0
  9 13  1  0
  9  7  1  0
 10  9  1  0
 11 10  1  0
 11 12  1  0
 12 13  1  0
 14 15  2  0
 13 14  1  1
 17 16  1  0
 17 18  1  0
 18 20  1  0
 18 19  1  1
 20 22  1  0
 20 21  1  6
 21 14  1  0
 22 23  1  0
 24 22  2  0
M  END
$$$$
