IPI.pdb
     RDKit          3D

 24 24  0  0  1  0  0  0  0  0999 V2000
   12.4233  -20.5781   21.8746 C   0  0  0  0  0  0  0  0  0  0  0  0
   12.0407  -19.4739   20.9262 C   0  0  0  0  0  0  0  0  0  0  0  0
   11.3177  -18.3407   21.6063 C   0  0  2  0  0  0  0  0  0  0  0  0
   10.0029  -18.8704   22.1381 C   0  0  0  0  0  0  0  0  0  0  0  0
   11.0048  -17.2069   20.6630 C   0  0  2  0  0  0  0  0  0  0  0  0
   12.1599  -16.5583   20.1462 N   0  0  0  0  0  0  0  0  0  0  0  0
   10.1817  -16.2147   21.3941 C   0  0  0  0  0  0  0  0  0  0  0  0
   10.8147  -15.5223   22.2527 O   0  0  0  0  0  0  0  0  0  0  0  0
    8.7760  -16.0272   21.1725 N   0  0  0  0  0  0  0  0  0  0  0  0
    7.8948  -16.6593   20.2445 C   0  0  0  0  0  0  0  0  0  0  0  0
    6.6945  -15.7441   20.1664 C   0  0  0  0  0  0  0  0  0  0  0  0
    6.5751  -15.2366   21.5720 C   0  0  0  0  0  0  0  0  0  0  0  0
    8.0230  -15.0636   21.9525 C   0  0  1  0  0  0  0  0  0  0  0  0
    8.1500  -15.2839   23.3979 C   0  0  0  0  0  0  0  0  0  0  0  0
    8.7437  -16.2851   23.8380 O   0  0  0  0  0  0  0  0  0  0  0  0
    6.5546  -10.8410   26.4345 C   0  0  0  0  0  0  0  0  0  0  0  0
    7.4049  -11.9894   25.9693 C   0  0  0  0  0  0  0  0  0  0  0  0
    6.9435  -13.3416   26.3836 C   0  0  2  0  0  0  0  0  0  0  0  0
    7.1363  -13.4374   27.9082 C   0  0  0  0  0  0  0  0  0  0  0  0
    7.6104  -14.5094   25.7523 C   0  0  2  0  0  0  0  0  0  0  0  0
    7.5955  -14.3549   24.3015 N   0  0  0  0  0  0  0  0  0  0  0  0
    7.0530  -15.8282   26.0911 C   0  0  0  0  0  0  0  0  0  0  0  0
    5.8835  -16.2555   25.4892 O   0  0  0  0  0  0  0  0  0  0  0  0
    7.6179  -16.5929   26.9290 O   0  0  0  0  0  0  0  0  0  0  0  0
  2  1  1  0
  3  2  1  0
  3  4  1  6
  5  7  1  0
  5  3  1  0
  5  6  1  1
  7  8  2  0
  9 13  1  0
  9  7  1  0
 10  9  1  0
 11 10  1  0
 11 12  1  0
 12 13  1  0
 14 15  2  0
 13 14  1  1
 17 16  1  0
 17 18  1  0
 18 20  1  0
 18 19  1  1
 20 22  1  0
 20 21  1  6
 21 14  1  0
 22 23  1  0
 24 22  2  0
M  END
$$$$
