IPI.pdb
     RDKit          3D

 24 24  0  0  1  0  0  0  0  0999 V2000
    6.0319  -20.9796   21.5166 C   0  0  0  0  0  0  0  0  0  0  0  0
    7.1890  -20.1257   21.0727 C   0  0  0  0  0  0  0  0  0  0  0  0
    7.3155  -18.8510   21.8656 C   0  0  2  0  0  0  0  0  0  0  0  0
    6.1052  -17.9899   21.5726 C   0  0  0  0  0  0  0  0  0  0  0  0
    8.5415  -18.0576   21.4907 C   0  0  2  0  0  0  0  0  0  0  0  0
    9.7625  -18.7476   21.7252 N   0  0  0  0  0  0  0  0  0  0  0  0
    8.5371  -16.8040   22.2815 C   0  0  0  0  0  0  0  0  0  0  0  0
    8.9382  -16.9267   23.4821 O   0  0  0  0  0  0  0  0  0  0  0  0
    8.1173  -15.5344   21.7600 N   0  0  0  0  0  0  0  0  0  0  0  0
    7.5305  -15.2007   20.5025 C   0  0  0  0  0  0  0  0  0  0  0  0
    7.7436  -13.7112   20.3595 C   0  0  0  0  0  0  0  0  0  0  0  0
    7.5943  -13.2203   21.7681 C   0  0  0  0  0  0  0  0  0  0  0  0
    8.2686  -14.3229   22.5431 C   0  0  1  0  0  0  0  0  0  0  0  0
    7.6296  -14.4183   23.8608 C   0  0  0  0  0  0  0  0  0  0  0  0
    6.6406  -15.1533   24.0353 O   0  0  0  0  0  0  0  0  0  0  0  0
   10.5831  -14.0694   28.5181 C   0  0  0  0  0  0  0  0  0  0  0  0
    9.5276  -14.3734   27.4925 C   0  0  0  0  0  0  0  0  0  0  0  0
    8.4980  -13.3180   27.2954 C   0  0  2  0  0  0  0  0  0  0  0  0
    7.7718  -13.1382   28.6411 C   0  0  0  0  0  0  0  0  0  0  0  0
    7.4789  -13.5522   26.2402 C   0  0  2  0  0  0  0  0  0  0  0  0
    8.1372  -13.6720   24.9436 N   0  0  0  0  0  0  0  0  0  0  0  0
    6.4164  -12.5398   26.1371 C   0  0  0  0  0  0  0  0  0  0  0  0
    5.2136  -12.7365   26.7909 O   0  0  0  0  0  0  0  0  0  0  0  0
    6.5709  -11.4812   25.4579 O   0  0  0  0  0  0  0  0  0  0  0  0
  2  1  1  0
  3  2  1  0
  3  4  1  6
  5  7  1  0
  5  3  1  0
  5  6  1  1
  7  8  2  0
  9 13  1  0
  9  7  1  0
 10  9  1  0
 11 10  1  0
 11 12  1  0
 12 13  1  0
 14 15  2  0
 13 14  1  1
 17 16  1  0
 17 18  1  0
 18 20  1  0
 18 19  1  1
 20 22  1  0
 20 21  1  6
 21 14  1  0
 22 23  1  0
 24 22  2  0
M  END
$$$$
