IPI.pdb
     RDKit          3D

 24 24  0  0  1  0  0  0  0  0999 V2000
   13.0854  -18.4691   19.2817 C   0  0  0  0  0  0  0  0  0  0  0  0
   11.5958  -18.3699   19.0907 C   0  0  0  0  0  0  0  0  0  0  0  0
   10.8977  -17.7144   20.2536 C   0  0  2  0  0  0  0  0  0  0  0  0
   11.1265  -18.5667   21.4838 C   0  0  0  0  0  0  0  0  0  0  0  0
    9.4085  -17.6044   20.0452 C   0  0  2  0  0  0  0  0  0  0  0  0
    9.0435  -16.7457   18.9723 N   0  0  0  0  0  0  0  0  0  0  0  0
    8.8057  -17.0924   21.2986 C   0  0  0  0  0  0  0  0  0  0  0  0
    8.9980  -15.8547   21.5187 O   0  0  0  0  0  0  0  0  0  0  0  0
    8.0577  -17.9066   22.2138 N   0  0  0  0  0  0  0  0  0  0  0  0
    7.8763  -19.3217   22.2552 C   0  0  0  0  0  0  0  0  0  0  0  0
    6.6564  -19.5299   23.1229 C   0  0  0  0  0  0  0  0  0  0  0  0
    6.7911  -18.4432   24.1468 C   0  0  0  0  0  0  0  0  0  0  0  0
    7.3217  -17.3072   23.3106 C   0  0  1  0  0  0  0  0  0  0  0  0
    8.1664  -16.4621   24.1628 C   0  0  0  0  0  0  0  0  0  0  0  0
    9.4056  -16.5739   24.1390 O   0  0  0  0  0  0  0  0  0  0  0  0
    5.7750  -11.7934   25.9864 C   0  0  0  0  0  0  0  0  0  0  0  0
    6.8165  -12.7496   25.4770 C   0  0  0  0  0  0  0  0  0  0  0  0
    7.4453  -13.6237   26.5033 C   0  0  2  0  0  0  0  0  0  0  0  0
    8.2964  -12.7159   27.4101 C   0  0  0  0  0  0  0  0  0  0  0  0
    8.3020  -14.7352   26.0158 C   0  0  2  0  0  0  0  0  0  0  0  0
    7.5731  -15.5124   25.0189 N   0  0  0  0  0  0  0  0  0  0  0  0
    8.8127  -15.6524   27.0465 C   0  0  0  0  0  0  0  0  0  0  0  0
   10.1090  -15.5143   27.5084 O   0  0  0  0  0  0  0  0  0  0  0  0
    8.0930  -16.5773   27.5286 O   0  0  0  0  0  0  0  0  0  0  0  0
  2  1  1  0
  3  2  1  0
  3  4  1  1
  5  7  1  0
  5  3  1  0
  5  6  1  6
  7  8  2  0
  9 13  1  0
  9  7  1  0
 10  9  1  0
 11 10  1  0
 11 12  1  0
 12 13  1  0
 14 15  2  0
 13 14  1  1
 17 16  1  0
 17 18  1  0
 18 20  1  0
 18 19  1  1
 20 22  1  0
 20 21  1  6
 21 14  1  0
 22 23  1  0
 24 22  2  0
M  END
$$$$
