IPI.pdb
     RDKit          3D

 24 24  0  0  1  0  0  0  0  0999 V2000
    5.5618  -11.0491   26.7072 C   0  0  0  0  0  0  0  0  0  0  0  0
    5.2297  -12.3721   26.0713 C   0  0  0  0  0  0  0  0  0  0  0  0
    6.4490  -13.2121   25.7937 C   0  0  2  0  0  0  0  0  0  0  0  0
    7.3451  -12.4454   24.8443 C   0  0  0  0  0  0  0  0  0  0  0  0
    6.1075  -14.5261   25.1379 C   0  0  2  0  0  0  0  0  0  0  0  0
    5.3043  -15.3765   25.9463 N   0  0  0  0  0  0  0  0  0  0  0  0
    7.3756  -15.2229   24.8173 C   0  0  0  0  0  0  0  0  0  0  0  0
    7.8795  -15.8869   25.7779 O   0  0  0  0  0  0  0  0  0  0  0  0
    8.0107  -15.1706   23.5312 N   0  0  0  0  0  0  0  0  0  0  0  0
    7.6614  -14.4370   22.3578 C   0  0  0  0  0  0  0  0  0  0  0  0
    8.3989  -15.1296   21.2350 C   0  0  0  0  0  0  0  0  0  0  0  0
    9.6826  -15.5430   21.8897 C   0  0  0  0  0  0  0  0  0  0  0  0
    9.2034  -15.9500   23.2593 C   0  0  1  0  0  0  0  0  0  0  0  0
   10.2803  -15.6892   24.2216 C   0  0  0  0  0  0  0  0  0  0  0  0
   11.1598  -14.8434   23.9766 O   0  0  0  0  0  0  0  0  0  0  0  0
   10.3544  -13.1401   28.4135 C   0  0  0  0  0  0  0  0  0  0  0  0
   10.8623  -13.9741   27.2712 C   0  0  0  0  0  0  0  0  0  0  0  0
   10.9777  -15.4326   27.5401 C   0  0  2  0  0  0  0  0  0  0  0  0
   11.9857  -15.6015   28.6916 C   0  0  0  0  0  0  0  0  0  0  0  0
   11.4052  -16.2993   26.4118 C   0  0  2  0  0  0  0  0  0  0  0  0
   10.3239  -16.4011   25.4374 N   0  0  0  0  0  0  0  0  0  0  0  0
   11.8421  -17.6566   26.7739 C   0  0  0  0  0  0  0  0  0  0  0  0
   10.9077  -18.6679   26.9040 O   0  0  0  0  0  0  0  0  0  0  0  0
   13.0631  -17.9303   26.9741 O   0  0  0  0  0  0  0  0  0  0  0  0
  2  1  1  0
  3  2  1  0
  3  4  1  6
  5  7  1  0
  5  3  1  0
  5  6  1  1
  7  8  2  0
  9 13  1  0
  9  7  1  0
 10  9  1  0
 11 10  1  0
 11 12  1  0
 12 13  1  0
 14 15  2  0
 13 14  1  1
 17 16  1  0
 17 18  1  0
 18 20  1  0
 18 19  1  1
 20 22  1  0
 20 21  1  6
 21 14  1  0
 22 23  1  0
 24 22  2  0
M  END
$$$$
