IPI.pdb
     RDKit          3D

 24 24  0  0  1  0  0  0  0  0999 V2000
    6.0665  -11.2237   27.0839 C   0  0  0  0  0  0  0  0  0  0  0  0
    5.5772  -12.4023   26.2861 C   0  0  0  0  0  0  0  0  0  0  0  0
    6.6727  -13.3818   25.9546 C   0  0  2  0  0  0  0  0  0  0  0  0
    7.7165  -12.6616   25.1275 C   0  0  0  0  0  0  0  0  0  0  0  0
    6.1752  -14.5514   25.1436 C   0  0  2  0  0  0  0  0  0  0  0  0
    5.2160  -15.3513   25.8232 N   0  0  0  0  0  0  0  0  0  0  0  0
    7.3416  -15.3945   24.7896 C   0  0  0  0  0  0  0  0  0  0  0  0
    7.7159  -16.2002   25.6996 O   0  0  0  0  0  0  0  0  0  0  0  0
    8.0181  -15.3287   23.5254 N   0  0  0  0  0  0  0  0  0  0  0  0
    7.7098  -14.5789   22.3507 C   0  0  0  0  0  0  0  0  0  0  0  0
    8.4805  -15.2606   21.2436 C   0  0  0  0  0  0  0  0  0  0  0  0
    9.7407  -15.6878   21.9341 C   0  0  0  0  0  0  0  0  0  0  0  0
    9.2158  -16.1098   23.2822 C   0  0  1  0  0  0  0  0  0  0  0  0
   10.2622  -15.8658   24.2820 C   0  0  0  0  0  0  0  0  0  0  0  0
   11.1934  -15.0745   24.0465 O   0  0  0  0  0  0  0  0  0  0  0  0
    9.8075  -13.2498   28.4437 C   0  0  0  0  0  0  0  0  0  0  0  0
   10.4896  -14.0582   27.3761 C   0  0  0  0  0  0  0  0  0  0  0  0
   10.6334  -15.5110   27.6614 C   0  0  2  0  0  0  0  0  0  0  0  0
   11.5282  -15.6403   28.9078 C   0  0  0  0  0  0  0  0  0  0  0  0
   11.2035  -16.3612   26.5848 C   0  0  2  0  0  0  0  0  0  0  0  0
   10.2168  -16.5318   25.5234 N   0  0  0  0  0  0  0  0  0  0  0  0
   11.6826  -17.6887   27.0002 C   0  0  0  0  0  0  0  0  0  0  0  0
   10.8082  -18.7600   27.0199 O   0  0  0  0  0  0  0  0  0  0  0  0
   12.8862  -17.8824   27.3462 O   0  0  0  0  0  0  0  0  0  0  0  0
  2  1  1  0
  3  2  1  0
  3  4  1  6
  5  7  1  0
  5  3  1  0
  5  6  1  1
  7  8  2  0
  9 13  1  0
  9  7  1  0
 10  9  1  0
 11 10  1  0
 11 12  1  0
 12 13  1  0
 14 15  2  0
 13 14  1  1
 17 16  1  0
 17 18  1  0
 18 20  1  0
 18 19  1  1
 20 22  1  0
 20 21  1  6
 21 14  1  0
 22 23  1  0
 24 22  2  0
M  END
$$$$
