IPI.pdb
     RDKit          3D

 24 24  0  0  1  0  0  0  0  0999 V2000
    5.4468  -11.0404   26.5496 C   0  0  0  0  0  0  0  0  0  0  0  0
    5.1380  -12.4119   26.0124 C   0  0  0  0  0  0  0  0  0  0  0  0
    6.3751  -13.2267   25.7380 C   0  0  2  0  0  0  0  0  0  0  0  0
    7.2315  -12.4668   24.7474 C   0  0  0  0  0  0  0  0  0  0  0  0
    6.0584  -14.5700   25.1312 C   0  0  2  0  0  0  0  0  0  0  0  0
    5.2809  -15.4094   25.9754 N   0  0  0  0  0  0  0  0  0  0  0  0
    7.3396  -15.2491   24.8244 C   0  0  0  0  0  0  0  0  0  0  0  0
    7.8635  -15.8711   25.8022 O   0  0  0  0  0  0  0  0  0  0  0  0
    7.9656  -15.2241   23.5331 N   0  0  0  0  0  0  0  0  0  0  0  0
    7.6224  -14.4965   22.3542 C   0  0  0  0  0  0  0  0  0  0  0  0
    8.3369  -15.2166   21.2337 C   0  0  0  0  0  0  0  0  0  0  0  0
    9.6169  -15.6489   21.8834 C   0  0  0  0  0  0  0  0  0  0  0  0
    9.1400  -16.0308   23.2611 C   0  0  1  0  0  0  0  0  0  0  0  0
   10.2294  -15.7815   24.2123 C   0  0  0  0  0  0  0  0  0  0  0  0
   11.1422  -14.9815   23.9370 O   0  0  0  0  0  0  0  0  0  0  0  0
   10.0476  -13.3208   28.4821 C   0  0  0  0  0  0  0  0  0  0  0  0
   10.5757  -14.1006   27.3110 C   0  0  0  0  0  0  0  0  0  0  0  0
   10.8906  -15.5297   27.5782 C   0  0  2  0  0  0  0  0  0  0  0  0
   11.9999  -15.5561   28.6457 C   0  0  0  0  0  0  0  0  0  0  0  0
   11.3308  -16.3551   26.4241 C   0  0  2  0  0  0  0  0  0  0  0  0
   10.2472  -16.4524   25.4518 N   0  0  0  0  0  0  0  0  0  0  0  0
   11.7978  -17.7126   26.7460 C   0  0  0  0  0  0  0  0  0  0  0  0
   13.1538  -17.9717   26.8283 O   0  0  0  0  0  0  0  0  0  0  0  0
   10.9856  -18.6635   26.9510 O   0  0  0  0  0  0  0  0  0  0  0  0
  2  1  1  0
  3  2  1  0
  3  4  1  6
  5  7  1  0
  5  3  1  0
  5  6  1  1
  7  8  2  0
  9 13  1  0
  9  7  1  0
 10  9  1  0
 11 10  1  0
 11 12  1  0
 12 13  1  0
 14 15  2  0
 13 14  1  1
 17 16  1  0
 17 18  1  0
 18 20  1  0
 18 19  1  1
 20 22  1  0
 20 21  1  6
 21 14  1  0
 22 23  1  0
 24 22  2  0
M  END
$$$$
