IPI.pdb
     RDKit          3D

 24 24  0  0  1  0  0  0  0  0999 V2000
    6.4960  -10.9997   27.2044 C   0  0  0  0  0  0  0  0  0  0  0  0
    5.8898  -12.1109   26.3903 C   0  0  0  0  0  0  0  0  0  0  0  0
    6.8868  -13.1778   26.0199 C   0  0  2  0  0  0  0  0  0  0  0  0
    7.9740  -12.5385   25.1824 C   0  0  0  0  0  0  0  0  0  0  0  0
    6.2710  -14.2838   25.2009 C   0  0  2  0  0  0  0  0  0  0  0  0
    5.2689  -15.0175   25.8933 N   0  0  0  0  0  0  0  0  0  0  0  0
    7.3529  -15.2115   24.7943 C   0  0  0  0  0  0  0  0  0  0  0  0
    7.7125  -16.0401   25.6895 O   0  0  0  0  0  0  0  0  0  0  0  0
    7.9675  -15.1994   23.4973 N   0  0  0  0  0  0  0  0  0  0  0  0
    7.6492  -14.4401   22.3314 C   0  0  0  0  0  0  0  0  0  0  0  0
    8.3175  -15.1787   21.1946 C   0  0  0  0  0  0  0  0  0  0  0  0
    9.5809  -15.6814   21.8260 C   0  0  0  0  0  0  0  0  0  0  0  0
    9.0987  -16.0583   23.2031 C   0  0  1  0  0  0  0  0  0  0  0  0
   10.2077  -15.8749   24.1467 C   0  0  0  0  0  0  0  0  0  0  0  0
   11.1460  -15.1015   23.8815 O   0  0  0  0  0  0  0  0  0  0  0  0
    9.5659  -13.4980   28.3776 C   0  0  0  0  0  0  0  0  0  0  0  0
   10.2036  -14.2364   27.2345 C   0  0  0  0  0  0  0  0  0  0  0  0
   10.6482  -15.6243   27.5324 C   0  0  2  0  0  0  0  0  0  0  0  0
   11.7036  -15.5308   28.6496 C   0  0  0  0  0  0  0  0  0  0  0  0
   11.2226  -16.4090   26.4093 C   0  0  2  0  0  0  0  0  0  0  0  0
   10.2153  -16.5796   25.3675 N   0  0  0  0  0  0  0  0  0  0  0  0
   11.7655  -17.7305   26.7603 C   0  0  0  0  0  0  0  0  0  0  0  0
   13.1297  -17.8934   26.9186 O   0  0  0  0  0  0  0  0  0  0  0  0
   11.0122  -18.7366   26.9223 O   0  0  0  0  0  0  0  0  0  0  0  0
  2  1  1  0
  3  2  1  0
  3  4  1  6
  5  7  1  0
  5  3  1  0
  5  6  1  1
  7  8  2  0
  9 13  1  0
  9  7  1  0
 10  9  1  0
 11 10  1  0
 11 12  1  0
 12 13  1  0
 14 15  2  0
 13 14  1  1
 17 16  1  0
 17 18  1  0
 18 20  1  0
 18 19  1  1
 20 22  1  0
 20 21  1  6
 21 14  1  0
 22 23  1  0
 24 22  2  0
M  END
$$$$
