IPI.pdb
     RDKit          3D

 24 24  0  0  1  0  0  0  0  0999 V2000
    7.6894  -11.6386   27.3890 C   0  0  0  0  0  0  0  0  0  0  0  0
    6.9877  -12.9293   27.0619 C   0  0  0  0  0  0  0  0  0  0  0  0
    6.6043  -13.0367   25.6090 C   0  0  2  0  0  0  0  0  0  0  0  0
    5.5107  -12.0269   25.3328 C   0  0  0  0  0  0  0  0  0  0  0  0
    6.0673  -14.3998   25.2532 C   0  0  2  0  0  0  0  0  0  0  0  0
    5.3385  -15.0194   26.3053 N   0  0  0  0  0  0  0  0  0  0  0  0
    7.2142  -15.2644   24.8874 C   0  0  0  0  0  0  0  0  0  0  0  0
    7.6045  -16.0531   25.8055 O   0  0  0  0  0  0  0  0  0  0  0  0
    7.8562  -15.2359   23.6040 N   0  0  0  0  0  0  0  0  0  0  0  0
    7.4985  -14.5450   22.4074 C   0  0  0  0  0  0  0  0  0  0  0  0
    8.2582  -15.2539   21.3099 C   0  0  0  0  0  0  0  0  0  0  0  0
    9.5464  -15.6194   21.9840 C   0  0  0  0  0  0  0  0  0  0  0  0
    9.0673  -15.9964   23.3622 C   0  0  1  0  0  0  0  0  0  0  0  0
   10.1321  -15.6837   24.3225 C   0  0  0  0  0  0  0  0  0  0  0  0
   10.8602  -14.6874   24.1614 O   0  0  0  0  0  0  0  0  0  0  0  0
    9.6946  -13.5078   28.5377 C   0  0  0  0  0  0  0  0  0  0  0  0
   10.3084  -14.1989   27.3528 C   0  0  0  0  0  0  0  0  0  0  0  0
   10.8162  -15.5748   27.6015 C   0  0  2  0  0  0  0  0  0  0  0  0
   11.9067  -15.4655   28.6829 C   0  0  0  0  0  0  0  0  0  0  0  0
   11.3793  -16.3108   26.4404 C   0  0  2  0  0  0  0  0  0  0  0  0
   10.3367  -16.5172   25.4408 N   0  0  0  0  0  0  0  0  0  0  0  0
   12.0043  -17.6078   26.7436 C   0  0  0  0  0  0  0  0  0  0  0  0
   13.3806  -17.7355   26.6964 O   0  0  0  0  0  0  0  0  0  0  0  0
   11.3115  -18.6240   27.0487 O   0  0  0  0  0  0  0  0  0  0  0  0
  2  1  1  0
  3  2  1  0
  3  4  1  1
  5  7  1  0
  5  3  1  0
  5  6  1  1
  7  8  2  0
  9 13  1  0
  9  7  1  0
 10  9  1  0
 11 10  1  0
 11 12  1  0
 12 13  1  0
 14 15  2  0
 13 14  1  1
 17 16  1  0
 17 18  1  0
 18 20  1  0
 18 19  1  1
 20 22  1  0
 20 21  1  6
 21 14  1  0
 22 23  1  0
 24 22  2  0
M  END
$$$$
