IPI.pdb
     RDKit          3D

 24 24  0  0  1  0  0  0  0  0999 V2000
    7.7898  -12.2197   27.4299 C   0  0  0  0  0  0  0  0  0  0  0  0
    7.2161  -13.5700   27.0942 C   0  0  0  0  0  0  0  0  0  0  0  0
    6.6314  -13.6306   25.7071 C   0  0  2  0  0  0  0  0  0  0  0  0
    5.4069  -12.7409   25.6710 C   0  0  0  0  0  0  0  0  0  0  0  0
    6.1956  -15.0224   25.3249 C   0  0  2  0  0  0  0  0  0  0  0  0
    5.7132  -15.7910   26.4196 N   0  0  0  0  0  0  0  0  0  0  0  0
    7.3571  -15.7183   24.7223 C   0  0  0  0  0  0  0  0  0  0  0  0
    7.7030  -16.7913   25.3110 O   0  0  0  0  0  0  0  0  0  0  0  0
    8.0584  -15.2421   23.5641 N   0  0  0  0  0  0  0  0  0  0  0  0
    7.8624  -14.0616   22.7861 C   0  0  0  0  0  0  0  0  0  0  0  0
    8.5651  -14.3401   21.4773 C   0  0  0  0  0  0  0  0  0  0  0  0
    9.7530  -15.1476   21.9065 C   0  0  0  0  0  0  0  0  0  0  0  0
    9.1581  -15.9996   22.9979 C   0  0  1  0  0  0  0  0  0  0  0  0
   10.2086  -16.2907   23.9805 C   0  0  0  0  0  0  0  0  0  0  0  0
   11.2108  -16.9556   23.6606 O   0  0  0  0  0  0  0  0  0  0  0  0
    9.6688  -14.1218   29.4299 C   0  0  0  0  0  0  0  0  0  0  0  0
    9.8281  -15.1691   28.3640 C   0  0  0  0  0  0  0  0  0  0  0  0
   10.9140  -14.9240   27.3774 C   0  0  2  0  0  0  0  0  0  0  0  0
   10.6071  -13.5797   26.6923 C   0  0  0  0  0  0  0  0  0  0  0  0
   11.1187  -15.9512   26.3238 C   0  0  2  0  0  0  0  0  0  0  0  0
   10.0864  -15.8148   25.3017 N   0  0  0  0  0  0  0  0  0  0  0  0
   11.1433  -17.3482   26.7846 C   0  0  0  0  0  0  0  0  0  0  0  0
   12.2773  -17.8504   27.3965 O   0  0  0  0  0  0  0  0  0  0  0  0
   10.1456  -18.1150   26.6345 O   0  0  0  0  0  0  0  0  0  0  0  0
  2  1  1  0
  3  2  1  0
  3  4  1  1
  5  7  1  0
  5  3  1  0
  5  6  1  1
  7  8  2  0
  9 13  1  0
  9  7  1  0
 10  9  1  0
 11 10  1  0
 11 12  1  0
 12 13  1  0
 14 15  2  0
 13 14  1  1
 17 16  1  0
 17 18  1  0
 18 20  1  0
 18 19  1  6
 20 22  1  0
 20 21  1  6
 21 14  1  0
 22 23  1  0
 24 22  2  0
M  END
$$$$
