TGY.pdb
     RDKit          3D

 24 24  0  0  1  0  0  0  0  0999 V2000
   25.0873  -11.2767  -23.7414 C   0  0  0  0  0  0  0  0  0  0  0  0
   24.7331  -12.7112  -23.3532 C   0  0  1  0  0  0  0  0  0  0  0  0
   25.1880  -13.6064  -24.3182 O   0  0  0  0  0  0  0  0  0  0  0  0
   25.4349  -12.9794  -22.0322 C   0  0  2  0  0  0  0  0  0  0  0  0
   25.3164  -14.3859  -21.7474 N   0  0  0  0  0  0  0  0  0  0  0  0
   24.9096  -12.1443  -20.9357 C   0  0  0  0  0  0  0  0  0  0  0  0
   24.0900  -12.6351  -20.1281 O   0  0  0  0  0  0  0  0  0  0  0  0
   25.3369  -10.8100  -20.8137 N   0  0  0  0  0  0  0  0  0  0  0  0
   24.9513  -10.0253  -19.6801 C   0  0  0  0  0  0  0  0  0  0  0  0
   23.6890   -9.2843  -20.0401 C   0  0  0  0  0  0  0  0  0  0  0  0
   23.3376   -9.1770  -21.2414 O   0  0  0  0  0  0  0  0  0  0  0  0
   22.8708   -4.8833  -14.0993 O   0  0  0  0  0  0  0  0  0  0  0  0
   22.3242   -5.6340  -15.1341 C   0  0  0  0  0  0  0  0  0  0  0  0
   21.4255   -5.1045  -16.0362 C   0  0  0  0  0  0  0  0  0  0  0  0
   20.8746   -5.8311  -17.0655 C   0  0  0  0  0  0  0  0  0  0  0  0
   21.2117   -7.1521  -17.2351 C   0  0  0  0  0  0  0  0  0  0  0  0
   20.6773   -8.0130  -18.2879 C   0  0  0  0  0  0  0  0  0  0  0  0
   21.6232   -8.0464  -19.4640 C   0  0  2  0  0  0  0  0  0  0  0  0
   22.8756   -8.6966  -19.0462 N   0  0  0  0  0  0  0  0  0  0  0  0
   21.8884   -6.6685  -19.9123 C   0  0  0  0  0  0  0  0  0  0  0  0
   23.0720   -5.9919  -19.8311 O   0  0  0  0  0  0  0  0  0  0  0  0
   22.1199   -7.7144  -16.3359 C   0  0  0  0  0  0  0  0  0  0  0  0
   22.6513   -6.9604  -15.3193 C   0  0  0  0  0  0  0  0  0  0  0  0
   20.9114   -6.0210  -20.4352 O   0  0  0  0  0  0  0  0  0  0  0  0
  2  1  1  6
  3  2  1  0
  4  2  1  0
  4  6  1  0
  4  5  1  1
  6  7  2  0
  8  9  1  0
  8  6  1  0
  9 10  1  0
 10 19  1  0
 10 11  2  0
 12 13  1  0
 13 23  2  0
 14 13  1  0
 14 15  2  0
 15 16  1  0
 16 22  2  0
 16 17  1  0
 18 17  1  1
 19 18  1  0
 20 18  1  0
 20 21  1  0
 23 22  1  0
 24 20  2  0
M  END
$$$$
