TGY.pdb
     RDKit          3D

 24 24  0  0  1  0  0  0  0  0999 V2000
   26.3429  -14.9186  -18.1970 C   0  0  0  0  0  0  0  0  0  0  0  0
   25.3403  -14.5967  -17.0902 C   0  0  1  0  0  0  0  0  0  0  0  0
   24.2644  -13.8734  -17.5991 O   0  0  0  0  0  0  0  0  0  0  0  0
   24.8538  -15.9336  -16.5558 C   0  0  2  0  0  0  0  0  0  0  0  0
   23.7581  -15.6771  -15.6576 N   0  0  0  0  0  0  0  0  0  0  0  0
   25.9310  -16.7081  -15.9113 C   0  0  0  0  0  0  0  0  0  0  0  0
   26.8287  -17.2177  -16.6180 O   0  0  0  0  0  0  0  0  0  0  0  0
   25.9338  -16.8626  -14.5134 N   0  0  0  0  0  0  0  0  0  0  0  0
   27.0286  -17.5109  -13.8572 C   0  0  0  0  0  0  0  0  0  0  0  0
   26.7418  -18.9906  -13.8347 C   0  0  0  0  0  0  0  0  0  0  0  0
   26.9238  -19.6871  -14.8642 O   0  0  0  0  0  0  0  0  0  0  0  0
   26.1157  -19.2574   -6.6378 O   0  0  0  0  0  0  0  0  0  0  0  0
   26.3150  -19.8588   -7.8755 C   0  0  0  0  0  0  0  0  0  0  0  0
   27.2832  -19.4289   -8.7584 C   0  0  0  0  0  0  0  0  0  0  0  0
   27.4950  -20.0107   -9.9862 C   0  0  0  0  0  0  0  0  0  0  0  0
   26.7237  -21.0743  -10.3878 C   0  0  0  0  0  0  0  0  0  0  0  0
   26.8606  -21.7560  -11.6730 C   0  0  0  0  0  0  0  0  0  0  0  0
   26.0089  -21.0752  -12.7173 C   0  0  2  0  0  0  0  0  0  0  0  0
   26.2656  -19.6270  -12.6673 N   0  0  0  0  0  0  0  0  0  0  0  0
   24.5888  -21.3516  -12.4405 C   0  0  0  0  0  0  0  0  0  0  0  0
   23.6319  -20.4475  -12.0769 O   0  0  0  0  0  0  0  0  0  0  0  0
   25.7354  -21.5307   -9.5134 C   0  0  0  0  0  0  0  0  0  0  0  0
   25.5508  -20.9269   -8.2945 C   0  0  0  0  0  0  0  0  0  0  0  0
   24.1942  -22.5684  -12.5457 O   0  0  0  0  0  0  0  0  0  0  0  0
  2  1  1  6
  3  2  1  0
  4  2  1  0
  4  6  1  0
  4  5  1  1
  6  7  2  0
  8  9  1  0
  8  6  1  0
  9 10  1  0
 10 19  1  0
 10 11  2  0
 12 13  1  0
 13 23  2  0
 14 13  1  0
 14 15  2  0
 15 16  1  0
 16 22  2  0
 16 17  1  0
 18 17  1  1
 19 18  1  0
 20 18  1  0
 20 21  1  0
 23 22  1  0
 24 20  2  0
M  END
$$$$
