TGY.pdb
     RDKit          3D

 24 24  0  0  1  0  0  0  0  0999 V2000
   19.6146  -12.6190  -15.8605 C   0  0  0  0  0  0  0  0  0  0  0  0
   18.8893  -12.5389  -17.2027 C   0  0  1  0  0  0  0  0  0  0  0  0
   17.5336  -12.8154  -17.0441 O   0  0  0  0  0  0  0  0  0  0  0  0
   19.0684  -11.1134  -17.6979 C   0  0  2  0  0  0  0  0  0  0  0  0
   20.4767  -10.8894  -17.8973 N   0  0  0  0  0  0  0  0  0  0  0  0
   18.4718  -10.1207  -16.7844 C   0  0  0  0  0  0  0  0  0  0  0  0
   17.6329  -10.4939  -15.9347 O   0  0  0  0  0  0  0  0  0  0  0  0
   18.8538   -8.7707  -16.8814 N   0  0  0  0  0  0  0  0  0  0  0  0
   18.3196   -7.7986  -15.9763 C   0  0  0  0  0  0  0  0  0  0  0  0
   19.3643   -7.5246  -14.9248 C   0  0  0  0  0  0  0  0  0  0  0  0
   19.6149   -8.3821  -14.0417 O   0  0  0  0  0  0  0  0  0  0  0  0
   24.3971   -6.2348  -19.4617 O   0  0  0  0  0  0  0  0  0  0  0  0
   23.8673   -6.4344  -18.1918 C   0  0  0  0  0  0  0  0  0  0  0  0
   23.1172   -5.4748  -17.5451 C   0  0  0  0  0  0  0  0  0  0  0  0
   22.5852   -5.6541  -16.2898 C   0  0  0  0  0  0  0  0  0  0  0  0
   22.7901   -6.8334  -15.6157 C   0  0  0  0  0  0  0  0  0  0  0  0
   22.2782   -7.1203  -14.2775 C   0  0  0  0  0  0  0  0  0  0  0  0
   21.1705   -6.1568  -13.9256 C   0  0  2  0  0  0  0  0  0  0  0  0
   20.0821   -6.3084  -14.9045 N   0  0  0  0  0  0  0  0  0  0  0  0
   21.6963   -4.7811  -13.9562 C   0  0  0  0  0  0  0  0  0  0  0  0
   22.7027   -4.2693  -13.1878 O   0  0  0  0  0  0  0  0  0  0  0  0
   23.5462   -7.8231  -16.2470 C   0  0  0  0  0  0  0  0  0  0  0  0
   24.0626   -7.6114  -17.5011 C   0  0  0  0  0  0  0  0  0  0  0  0
   21.1594   -3.9638  -14.7875 O   0  0  0  0  0  0  0  0  0  0  0  0
  2  1  1  1
  3  2  1  0
  4  2  1  0
  4  6  1  0
  4  5  1  1
  6  7  2  0
  8  9  1  0
  8  6  1  0
  9 10  1  0
 10 19  1  0
 10 11  2  0
 12 13  1  0
 13 23  2  0
 14 13  1  0
 14 15  2  0
 15 16  1  0
 16 22  2  0
 16 17  1  0
 18 17  1  6
 19 18  1  0
 20 18  1  0
 20 21  1  0
 23 22  1  0
 24 20  2  0
M  END
$$$$
