TGY.pdb
     RDKit          3D

 24 24  0  0  1  0  0  0  0  0999 V2000
   29.3605  -17.0514  -16.6939 C   0  0  0  0  0  0  0  0  0  0  0  0
   28.3283  -17.4674  -17.7405 C   0  0  1  0  0  0  0  0  0  0  0  0
   28.9573  -17.8686  -18.9165 O   0  0  0  0  0  0  0  0  0  0  0  0
   27.5638  -18.6364  -17.1421 C   0  0  2  0  0  0  0  0  0  0  0  0
   26.7106  -19.1771  -18.1682 N   0  0  0  0  0  0  0  0  0  0  0  0
   26.8075  -18.2557  -15.9343 C   0  0  0  0  0  0  0  0  0  0  0  0
   25.8173  -17.4990  -16.0426 O   0  0  0  0  0  0  0  0  0  0  0  0
   27.2098  -18.7479  -14.6798 N   0  0  0  0  0  0  0  0  0  0  0  0
   26.5059  -18.3693  -13.4921 C   0  0  0  0  0  0  0  0  0  0  0  0
   25.7012  -19.5589  -13.0340 C   0  0  0  0  0  0  0  0  0  0  0  0
   25.6436  -20.5954  -13.7413 O   0  0  0  0  0  0  0  0  0  0  0  0
   29.7949  -20.6177   -8.3574 O   0  0  0  0  0  0  0  0  0  0  0  0
   28.4545  -20.6700   -8.7230 C   0  0  0  0  0  0  0  0  0  0  0  0
   27.4750  -19.9797   -8.0404 C   0  0  0  0  0  0  0  0  0  0  0  0
   26.1449  -20.0192   -8.3870 C   0  0  0  0  0  0  0  0  0  0  0  0
   25.7336  -20.7722   -9.4598 C   0  0  0  0  0  0  0  0  0  0  0  0
   24.3466  -20.8895   -9.9043 C   0  0  0  0  0  0  0  0  0  0  0  0
   24.2672  -20.7520  -11.4056 C   0  0  2  0  0  0  0  0  0  0  0  0
   24.9975  -19.5399  -11.8096 N   0  0  0  0  0  0  0  0  0  0  0  0
   22.8539  -20.6546  -11.8097 C   0  0  0  0  0  0  0  0  0  0  0  0
   21.9343  -21.6640  -11.8306 O   0  0  0  0  0  0  0  0  0  0  0  0
   26.7045  -21.4816  -10.1697 C   0  0  0  0  0  0  0  0  0  0  0  0
   28.0241  -21.4200   -9.7967 C   0  0  0  0  0  0  0  0  0  0  0  0
   22.4273  -19.5045  -12.1875 O   0  0  0  0  0  0  0  0  0  0  0  0
  2  1  1  1
  3  2  1  0
  4  2  1  0
  4  6  1  0
  4  5  1  6
  6  7  2  0
  8  9  1  0
  8  6  1  0
  9 10  1  0
 10 19  1  0
 10 11  2  0
 12 13  1  0
 13 23  2  0
 14 13  1  0
 14 15  2  0
 15 16  1  0
 16 22  2  0
 16 17  1  0
 18 17  1  1
 19 18  1  0
 20 18  1  0
 20 21  1  0
 23 22  1  0
 24 20  2  0
M  END
$$$$
