TGY.pdb
     RDKit          3D

 24 24  0  0  1  0  0  0  0  0999 V2000
   18.7772  -12.7244  -18.3013 C   0  0  0  0  0  0  0  0  0  0  0  0
   19.1173  -13.0516  -16.8483 C   0  0  1  0  0  0  0  0  0  0  0  0
   19.4304  -14.4016  -16.7105 O   0  0  0  0  0  0  0  0  0  0  0  0
   20.3284  -12.2046  -16.4944 C   0  0  2  0  0  0  0  0  0  0  0  0
   20.7531  -12.5742  -15.1692 N   0  0  0  0  0  0  0  0  0  0  0  0
   20.0575  -10.7592  -16.6082 C   0  0  0  0  0  0  0  0  0  0  0  0
   19.9074  -10.2495  -17.7408 O   0  0  0  0  0  0  0  0  0  0  0  0
   19.9719   -9.9754  -15.4436 N   0  0  0  0  0  0  0  0  0  0  0  0
   19.8215   -8.5546  -15.5346 C   0  0  0  0  0  0  0  0  0  0  0  0
   21.0640   -7.9219  -14.9616 C   0  0  0  0  0  0  0  0  0  0  0  0
   21.2818   -7.9595  -13.7250 O   0  0  0  0  0  0  0  0  0  0  0  0
   25.3541  -12.5707  -16.2820 O   0  0  0  0  0  0  0  0  0  0  0  0
   25.1055  -11.2035  -16.2338 C   0  0  0  0  0  0  0  0  0  0  0  0
   24.2125  -10.5847  -17.0832 C   0  0  0  0  0  0  0  0  0  0  0  0
   23.9537   -9.2346  -17.0505 C   0  0  0  0  0  0  0  0  0  0  0  0
   24.5971   -8.4306  -16.1412 C   0  0  0  0  0  0  0  0  0  0  0  0
   24.4015   -6.9867  -16.0304 C   0  0  0  0  0  0  0  0  0  0  0  0
   23.2014   -6.6884  -15.1644 C   0  0  2  0  0  0  0  0  0  0  0  0
   22.0069   -7.2763  -15.7915 N   0  0  0  0  0  0  0  0  0  0  0  0
   23.0454   -5.2291  -15.0379 C   0  0  0  0  0  0  0  0  0  0  0  0
   22.0340   -4.4642  -15.5450 O   0  0  0  0  0  0  0  0  0  0  0  0
   25.5069   -9.0308  -15.2684 C   0  0  0  0  0  0  0  0  0  0  0  0
   25.7417  -10.3820  -15.3279 C   0  0  0  0  0  0  0  0  0  0  0  0
   23.9506   -4.5944  -14.3859 O   0  0  0  0  0  0  0  0  0  0  0  0
  2  1  1  6
  3  2  1  0
  4  2  1  0
  4  6  1  0
  4  5  1  1
  6  7  2  0
  8  9  1  0
  8  6  1  0
  9 10  1  0
 10 19  1  0
 10 11  2  0
 12 13  1  0
 13 23  2  0
 14 13  1  0
 14 15  2  0
 15 16  1  0
 16 22  2  0
 16 17  1  0
 18 17  1  6
 19 18  1  0
 20 18  1  0
 20 21  1  0
 23 22  1  0
 24 20  2  0
M  END
$$$$
