TGY.pdb
     RDKit          3D

 24 24  0  0  1  0  0  0  0  0999 V2000
   24.7062  -15.0760  -21.9870 C   0  0  0  0  0  0  0  0  0  0  0  0
   23.7363  -15.5451  -20.9039 C   0  0  1  0  0  0  0  0  0  0  0  0
   23.7375  -16.9349  -20.8138 O   0  0  0  0  0  0  0  0  0  0  0  0
   24.2339  -14.9453  -19.5993 C   0  0  2  0  0  0  0  0  0  0  0  0
   23.4387  -15.4922  -18.5307 N   0  0  0  0  0  0  0  0  0  0  0  0
   24.2090  -13.4706  -19.6118 C   0  0  0  0  0  0  0  0  0  0  0  0
   25.0311  -12.8482  -20.3201 O   0  0  0  0  0  0  0  0  0  0  0  0
   23.2627  -12.7858  -18.8285 N   0  0  0  0  0  0  0  0  0  0  0  0
   23.2291  -11.3547  -18.8172 C   0  0  0  0  0  0  0  0  0  0  0  0
   22.9038  -10.9122  -17.4133 C   0  0  0  0  0  0  0  0  0  0  0  0
   22.2067  -11.6411  -16.6646 O   0  0  0  0  0  0  0  0  0  0  0  0
   28.9317  -10.5470  -17.1823 O   0  0  0  0  0  0  0  0  0  0  0  0
   27.7115  -10.4044  -16.5312 C   0  0  0  0  0  0  0  0  0  0  0  0
   27.1396  -11.4256  -15.8018 C   0  0  0  0  0  0  0  0  0  0  0  0
   25.9342  -11.3033  -15.1515 C   0  0  0  0  0  0  0  0  0  0  0  0
   25.2363  -10.1214  -15.2085 C   0  0  0  0  0  0  0  0  0  0  0  0
   23.9458   -9.8914  -14.5628 C   0  0  0  0  0  0  0  0  0  0  0  0
   22.9716   -9.2879  -15.5456 C   0  0  2  0  0  0  0  0  0  0  0  0
   23.3695   -9.6785  -16.9075 N   0  0  0  0  0  0  0  0  0  0  0  0
   22.9909   -7.8213  -15.4092 C   0  0  0  0  0  0  0  0  0  0  0  0
   23.4796   -6.9190  -16.3105 O   0  0  0  0  0  0  0  0  0  0  0  0
   25.7921   -9.0700  -15.9402 C   0  0  0  0  0  0  0  0  0  0  0  0
   26.9979   -9.2258  -16.5775 C   0  0  0  0  0  0  0  0  0  0  0  0
   22.5017   -7.3235  -14.3321 O   0  0  0  0  0  0  0  0  0  0  0  0
  2  1  1  6
  3  2  1  0
  4  2  1  0
  4  6  1  0
  4  5  1  1
  6  7  2  0
  8  9  1  0
  8  6  1  0
  9 10  1  0
 10 19  1  0
 10 11  2  0
 12 13  1  0
 13 23  2  0
 14 13  1  0
 14 15  2  0
 15 16  1  0
 16 22  2  0
 16 17  1  0
 18 17  1  1
 19 18  1  0
 20 18  1  0
 20 21  1  0
 23 22  1  0
 24 20  2  0
M  END
$$$$
