TGY.pdb
     RDKit          3D

 24 24  0  0  1  0  0  0  0  0999 V2000
   25.0283  -20.6830  -22.6984 C   0  0  0  0  0  0  0  0  0  0  0  0
   23.5754  -20.9688  -22.3225 C   0  0  1  0  0  0  0  0  0  0  0  0
   23.0378  -21.9478  -23.1544 O   0  0  0  0  0  0  0  0  0  0  0  0
   23.5983  -21.4696  -20.8879 C   0  0  2  0  0  0  0  0  0  0  0  0
   22.3755  -22.1928  -20.6536 N   0  0  0  0  0  0  0  0  0  0  0  0
   23.7944  -20.3794  -19.9139 C   0  0  0  0  0  0  0  0  0  0  0  0
   24.8546  -19.7158  -19.9397 O   0  0  0  0  0  0  0  0  0  0  0  0
   22.7883  -20.1016  -18.9713 N   0  0  0  0  0  0  0  0  0  0  0  0
   23.0045  -19.1273  -17.9450 C   0  0  0  0  0  0  0  0  0  0  0  0
   23.2884  -19.8649  -16.6614 C   0  0  0  0  0  0  0  0  0  0  0  0
   23.8458  -20.9904  -16.6871 O   0  0  0  0  0  0  0  0  0  0  0  0
   25.6375  -21.7621   -8.5288 O   0  0  0  0  0  0  0  0  0  0  0  0
   25.2672  -21.1099   -9.6996 C   0  0  0  0  0  0  0  0  0  0  0  0
   24.0784  -20.4209   -9.8172 C   0  0  0  0  0  0  0  0  0  0  0  0
   23.6953  -19.7702  -10.9663 C   0  0  0  0  0  0  0  0  0  0  0  0
   24.5103  -19.7852  -12.0721 C   0  0  0  0  0  0  0  0  0  0  0  0
   24.1931  -19.1354  -13.3418 C   0  0  0  0  0  0  0  0  0  0  0  0
   23.3371  -20.0428  -14.1921 C   0  0  2  0  0  0  0  0  0  0  0  0
   22.9388  -19.3158  -15.4080 N   0  0  0  0  0  0  0  0  0  0  0  0
   22.1457  -20.4449  -13.4247 C   0  0  0  0  0  0  0  0  0  0  0  0
   21.9738  -21.6034  -12.7222 O   0  0  0  0  0  0  0  0  0  0  0  0
   25.7207  -20.4754  -11.9812 C   0  0  0  0  0  0  0  0  0  0  0  0
   26.0727  -21.1144  -10.8183 C   0  0  0  0  0  0  0  0  0  0  0  0
   21.1539  -19.6305  -13.4073 O   0  0  0  0  0  0  0  0  0  0  0  0
  2  1  1  6
  3  2  1  0
  4  2  1  0
  4  6  1  0
  4  5  1  1
  6  7  2  0
  8  9  1  0
  8  6  1  0
  9 10  1  0
 10 19  1  0
 10 11  2  0
 12 13  1  0
 13 23  2  0
 14 13  1  0
 14 15  2  0
 15 16  1  0
 16 22  2  0
 16 17  1  0
 18 17  1  1
 19 18  1  0
 20 18  1  0
 20 21  1  0
 23 22  1  0
 24 20  2  0
M  END
$$$$
