TGY.pdb
     RDKit          3D

 24 24  0  0  1  0  0  0  0  0999 V2000
   28.6192  -17.7596  -20.0356 C   0  0  0  0  0  0  0  0  0  0  0  0
   27.7014  -17.4700  -18.8490 C   0  0  1  0  0  0  0  0  0  0  0  0
   26.6071  -18.3313  -18.8545 O   0  0  0  0  0  0  0  0  0  0  0  0
   28.5346  -17.7057  -17.6002 C   0  0  2  0  0  0  0  0  0  0  0  0
   29.0700  -19.0404  -17.6725 N   0  0  0  0  0  0  0  0  0  0  0  0
   27.7672  -17.4813  -16.3606 C   0  0  0  0  0  0  0  0  0  0  0  0
   27.0859  -16.4391  -16.2400 O   0  0  0  0  0  0  0  0  0  0  0  0
   27.8122  -18.4407  -15.3333 N   0  0  0  0  0  0  0  0  0  0  0  0
   27.0247  -18.2737  -14.1495 C   0  0  0  0  0  0  0  0  0  0  0  0
   26.1002  -19.4593  -14.0397 C   0  0  0  0  0  0  0  0  0  0  0  0
   25.6591  -20.0172  -15.0752 O   0  0  0  0  0  0  0  0  0  0  0  0
   27.0108  -19.2629   -7.0890 O   0  0  0  0  0  0  0  0  0  0  0  0
   26.6813  -19.9744   -8.2372 C   0  0  0  0  0  0  0  0  0  0  0  0
   27.6143  -20.2954   -9.2007 C   0  0  0  0  0  0  0  0  0  0  0  0
   27.3073  -20.9980  -10.3422 C   0  0  0  0  0  0  0  0  0  0  0  0
   26.0188  -21.4173  -10.5687 C   0  0  0  0  0  0  0  0  0  0  0  0
   25.5867  -22.1596  -11.7508 C   0  0  0  0  0  0  0  0  0  0  0  0
   24.9424  -21.2252  -12.7462 C   0  0  2  0  0  0  0  0  0  0  0  0
   25.7090  -19.9695  -12.7821 N   0  0  0  0  0  0  0  0  0  0  0  0
   23.5523  -20.9627  -12.3356 C   0  0  0  0  0  0  0  0  0  0  0  0
   23.0433  -19.7863  -11.8642 O   0  0  0  0  0  0  0  0  0  0  0  0
   25.0532  -21.1062   -9.6093 C   0  0  0  0  0  0  0  0  0  0  0  0
   25.3938  -20.4031   -8.4805 C   0  0  0  0  0  0  0  0  0  0  0  0
   22.7190  -21.9351  -12.4223 O   0  0  0  0  0  0  0  0  0  0  0  0
  2  1  1  6
  3  2  1  0
  4  2  1  0
  4  6  1  0
  4  5  1  1
  6  7  2  0
  8  9  1  0
  8  6  1  0
  9 10  1  0
 10 19  1  0
 10 11  2  0
 12 13  1  0
 13 23  2  0
 14 13  1  0
 14 15  2  0
 15 16  1  0
 16 22  2  0
 16 17  1  0
 18 17  1  1
 19 18  1  0
 20 18  1  0
 20 21  1  0
 23 22  1  0
 24 20  2  0
M  END
$$$$
