TGY.pdb
     RDKit          3D

 24 24  0  0  1  0  0  0  0  0999 V2000
   17.6836  -17.7597  -16.4482 C   0  0  0  0  0  0  0  0  0  0  0  0
   18.2094  -18.5728  -15.2666 C   0  0  1  0  0  0  0  0  0  0  0  0
   17.2052  -19.3848  -14.7452 O   0  0  0  0  0  0  0  0  0  0  0  0
   19.3359  -19.4349  -15.8119 C   0  0  2  0  0  0  0  0  0  0  0  0
   18.7857  -20.2824  -16.8377 N   0  0  0  0  0  0  0  0  0  0  0  0
   20.0141  -20.2095  -14.7557 C   0  0  0  0  0  0  0  0  0  0  0  0
   19.7005  -21.4070  -14.5746 O   0  0  0  0  0  0  0  0  0  0  0  0
   21.0023  -19.5921  -13.9683 N   0  0  0  0  0  0  0  0  0  0  0  0
   21.7010  -20.3370  -12.9651 C   0  0  0  0  0  0  0  0  0  0  0  0
   23.1537  -20.3966  -13.3631 C   0  0  0  0  0  0  0  0  0  0  0  0
   23.5875  -19.6671  -14.2892 O   0  0  0  0  0  0  0  0  0  0  0  0
   25.4150  -19.1936   -7.0500 O   0  0  0  0  0  0  0  0  0  0  0  0
   25.6453  -19.8278   -8.2657 C   0  0  0  0  0  0  0  0  0  0  0  0
   26.4473  -19.2799   -9.2446 C   0  0  0  0  0  0  0  0  0  0  0  0
   26.6866  -19.8920  -10.4524 C   0  0  0  0  0  0  0  0  0  0  0  0
   26.1160  -21.1095  -10.7339 C   0  0  0  0  0  0  0  0  0  0  0  0
   26.2980  -21.8378  -11.9875 C   0  0  0  0  0  0  0  0  0  0  0  0
   25.4791  -21.2003  -13.0841 C   0  0  2  0  0  0  0  0  0  0  0  0
   24.0568  -21.2656  -12.7120 N   0  0  0  0  0  0  0  0  0  0  0  0
   25.7103  -21.9249  -14.3456 C   0  0  0  0  0  0  0  0  0  0  0  0
   24.8662  -22.8128  -14.9493 O   0  0  0  0  0  0  0  0  0  0  0  0
   25.2991  -21.6880   -9.7603 C   0  0  0  0  0  0  0  0  0  0  0  0
   25.0813  -21.0497   -8.5647 C   0  0  0  0  0  0  0  0  0  0  0  0
   26.8207  -21.7109  -14.9527 O   0  0  0  0  0  0  0  0  0  0  0  0
  2  1  1  6
  3  2  1  0
  4  2  1  0
  4  6  1  0
  4  5  1  6
  6  7  2  0
  8  9  1  0
  8  6  1  0
  9 10  1  0
 10 19  1  0
 10 11  2  0
 12 13  1  0
 13 23  2  0
 14 13  1  0
 14 15  2  0
 15 16  1  0
 16 22  2  0
 16 17  1  0
 18 17  1  1
 19 18  1  0
 20 18  1  0
 20 21  1  0
 23 22  1  0
 24 20  2  0
M  END
$$$$
