TGY.pdb
     RDKit          3D

 24 24  0  0  1  0  0  0  0  0999 V2000
   24.5498   -9.6112  -21.8942 C   0  0  0  0  0  0  0  0  0  0  0  0
   23.6059  -10.3696  -20.9626 C   0  0  1  0  0  0  0  0  0  0  0  0
   23.9868  -11.7053  -20.8607 O   0  0  0  0  0  0  0  0  0  0  0  0
   23.7195   -9.6980  -19.6041 C   0  0  2  0  0  0  0  0  0  0  0  0
   22.9622  -10.4793  -18.6611 N   0  0  0  0  0  0  0  0  0  0  0  0
   23.2844   -8.2890  -19.6343 C   0  0  0  0  0  0  0  0  0  0  0  0
   23.9686   -7.4480  -20.2585 O   0  0  0  0  0  0  0  0  0  0  0  0
   22.1083   -7.9112  -18.9621 N   0  0  0  0  0  0  0  0  0  0  0  0
   21.7004   -6.5394  -18.9286 C   0  0  0  0  0  0  0  0  0  0  0  0
   21.2401   -6.2293  -17.5270 C   0  0  0  0  0  0  0  0  0  0  0  0
   20.3214   -6.9032  -16.9979 O   0  0  0  0  0  0  0  0  0  0  0  0
   23.7082  -10.8085  -14.6453 O   0  0  0  0  0  0  0  0  0  0  0  0
   23.4195   -9.4488  -14.6108 C   0  0  0  0  0  0  0  0  0  0  0  0
   24.1530   -8.5197  -15.3183 C   0  0  0  0  0  0  0  0  0  0  0  0
   23.8826   -7.1716  -15.2966 C   0  0  0  0  0  0  0  0  0  0  0  0
   22.8389   -6.6894  -14.5448 C   0  0  0  0  0  0  0  0  0  0  0  0
   22.4744   -5.2778  -14.4457 C   0  0  0  0  0  0  0  0  0  0  0  0
   21.3506   -4.9613  -15.4030 C   0  0  2  0  0  0  0  0  0  0  0  0
   21.8237   -5.1833  -16.7787 N   0  0  0  0  0  0  0  0  0  0  0  0
   20.9421   -3.5574  -15.2242 C   0  0  0  0  0  0  0  0  0  0  0  0
   20.3736   -3.0026  -14.1132 O   0  0  0  0  0  0  0  0  0  0  0  0
   22.0788   -7.6081  -13.8182 C   0  0  0  0  0  0  0  0  0  0  0  0
   22.3760   -8.9475  -13.8623 C   0  0  0  0  0  0  0  0  0  0  0  0
   21.1322   -2.7585  -16.2105 O   0  0  0  0  0  0  0  0  0  0  0  0
  2  1  1  6
  3  2  1  0
  4  2  1  0
  4  6  1  0
  4  5  1  1
  6  7  2  0
  8  9  1  0
  8  6  1  0
  9 10  1  0
 10 19  1  0
 10 11  2  0
 12 13  1  0
 13 23  2  0
 14 13  1  0
 14 15  2  0
 15 16  1  0
 16 22  2  0
 16 17  1  0
 18 17  1  1
 19 18  1  0
 20 18  1  0
 20 21  1  0
 23 22  1  0
 24 20  2  0
M  END
$$$$
