TGY.pdb
     RDKit          3D

 24 24  0  0  1  0  0  0  0  0999 V2000
   19.2024  -11.4092  -15.4612 C   0  0  0  0  0  0  0  0  0  0  0  0
   19.0511  -11.9784  -16.8708 C   0  0  1  0  0  0  0  0  0  0  0  0
   17.9783  -12.8646  -16.9286 O   0  0  0  0  0  0  0  0  0  0  0  0
   18.7867  -10.7915  -17.7821 C   0  0  2  0  0  0  0  0  0  0  0  0
   18.4459  -11.3026  -19.0844 N   0  0  0  0  0  0  0  0  0  0  0  0
   19.9258   -9.8558  -17.8331 C   0  0  0  0  0  0  0  0  0  0  0  0
   20.7800   -9.9766  -18.7390 O   0  0  0  0  0  0  0  0  0  0  0  0
   20.0355   -8.8426  -16.8640 N   0  0  0  0  0  0  0  0  0  0  0  0
   21.1554   -7.9509  -16.8700 C   0  0  0  0  0  0  0  0  0  0  0  0
   20.7189   -6.6581  -16.2292 C   0  0  0  0  0  0  0  0  0  0  0  0
   19.4995   -6.4268  -16.0355 O   0  0  0  0  0  0  0  0  0  0  0  0
   19.0817   -8.4590  -10.6552 O   0  0  0  0  0  0  0  0  0  0  0  0
   19.7350   -7.4961  -11.4162 C   0  0  0  0  0  0  0  0  0  0  0  0
   20.9153   -7.7554  -12.0808 C   0  0  0  0  0  0  0  0  0  0  0  0
   21.5755   -6.8163  -12.8377 C   0  0  0  0  0  0  0  0  0  0  0  0
   21.0652   -5.5468  -12.9612 C   0  0  0  0  0  0  0  0  0  0  0  0
   21.6921   -4.4752  -13.7318 C   0  0  0  0  0  0  0  0  0  0  0  0
   21.1684   -4.4764  -15.1477 C   0  0  2  0  0  0  0  0  0  0  0  0
   21.6600   -5.6821  -15.8335 N   0  0  0  0  0  0  0  0  0  0  0  0
   21.6420   -3.2661  -15.8411 C   0  0  0  0  0  0  0  0  0  0  0  0
   21.2020   -1.9869  -15.6536 O   0  0  0  0  0  0  0  0  0  0  0  0
   19.8708   -5.2564  -12.2988 C   0  0  0  0  0  0  0  0  0  0  0  0
   19.2373   -6.2177  -11.5513 C   0  0  0  0  0  0  0  0  0  0  0  0
   22.5653   -3.4143  -16.7202 O   0  0  0  0  0  0  0  0  0  0  0  0
  2  1  1  1
  3  2  1  0
  4  2  1  0
  4  6  1  0
  4  5  1  6
  6  7  2  0
  8  9  1  0
  8  6  1  0
  9 10  1  0
 10 19  1  0
 10 11  2  0
 12 13  1  0
 13 23  2  0
 14 13  1  0
 14 15  2  0
 15 16  1  0
 16 22  2  0
 16 17  1  0
 18 17  1  1
 19 18  1  0
 20 18  1  0
 20 21  1  0
 23 22  1  0
 24 20  2  0
M  END
$$$$
