TGY.pdb
     RDKit          3D

 24 24  0  0  1  0  0  0  0  0999 V2000
   22.0888  -18.9630  -14.6468 C   0  0  0  0  0  0  0  0  0  0  0  0
   20.7494  -19.1665  -13.9408 C   0  0  1  0  0  0  0  0  0  0  0  0
   19.7049  -18.6780  -14.7218 O   0  0  0  0  0  0  0  0  0  0  0  0
   20.5920  -20.6661  -13.7522 C   0  0  2  0  0  0  0  0  0  0  0  0
   19.2535  -20.9135  -13.2827 N   0  0  0  0  0  0  0  0  0  0  0  0
   21.6113  -21.2299  -12.8473 C   0  0  0  0  0  0  0  0  0  0  0  0
   21.4422  -21.1572  -11.6100 O   0  0  0  0  0  0  0  0  0  0  0  0
   22.7573  -21.8405  -13.3874 N   0  0  0  0  0  0  0  0  0  0  0  0
   23.7996  -22.3153  -12.5286 C   0  0  0  0  0  0  0  0  0  0  0  0
   24.9514  -21.3473  -12.6227 C   0  0  0  0  0  0  0  0  0  0  0  0
   24.7739  -20.1944  -13.0888 O   0  0  0  0  0  0  0  0  0  0  0  0
   27.2356  -19.9516   -5.8726 O   0  0  0  0  0  0  0  0  0  0  0  0
   27.5054  -20.2295   -7.2079 C   0  0  0  0  0  0  0  0  0  0  0  0
   26.5075  -20.3750   -8.1485 C   0  0  0  0  0  0  0  0  0  0  0  0
   26.7548  -20.6498   -9.4729 C   0  0  0  0  0  0  0  0  0  0  0  0
   28.0464  -20.7938   -9.9181 C   0  0  0  0  0  0  0  0  0  0  0  0
   28.4161  -21.0951  -11.2993 C   0  0  0  0  0  0  0  0  0  0  0  0
   27.3061  -20.6854  -12.2370 C   0  0  2  0  0  0  0  0  0  0  0  0
   26.2479  -21.7072  -12.1935 N   0  0  0  0  0  0  0  0  0  0  0  0
   27.8444  -20.5661  -13.6030 C   0  0  0  0  0  0  0  0  0  0  0  0
   28.4381  -19.4690  -14.1589 O   0  0  0  0  0  0  0  0  0  0  0  0
   29.0773  -20.6515   -8.9871 C   0  0  0  0  0  0  0  0  0  0  0  0
   28.7951  -20.3769   -7.6720 C   0  0  0  0  0  0  0  0  0  0  0  0
   27.7504  -21.5947  -14.3650 O   0  0  0  0  0  0  0  0  0  0  0  0
  2  1  1  6
  3  2  1  0
  4  2  1  0
  4  6  1  0
  4  5  1  1
  6  7  2  0
  8  9  1  0
  8  6  1  0
  9 10  1  0
 10 19  1  0
 10 11  2  0
 12 13  1  0
 13 23  2  0
 14 13  1  0
 14 15  2  0
 15 16  1  0
 16 22  2  0
 16 17  1  0
 18 17  1  1
 19 18  1  0
 20 18  1  0
 20 21  1  0
 23 22  1  0
 24 20  2  0
M  END
$$$$
