TGY.pdb
     RDKit          3D

 24 24  0  0  1  0  0  0  0  0999 V2000
   30.6517  -22.3457  -19.5163 C   0  0  0  0  0  0  0  0  0  0  0  0
   29.1932  -22.0161  -19.8292 C   0  0  1  0  0  0  0  0  0  0  0  0
   28.7927  -22.6383  -21.0090 O   0  0  0  0  0  0  0  0  0  0  0  0
   28.3774  -22.5506  -18.6639 C   0  0  2  0  0  0  0  0  0  0  0  0
   26.9874  -22.4923  -19.0351 N   0  0  0  0  0  0  0  0  0  0  0  0
   28.6478  -21.8262  -17.4078 C   0  0  0  0  0  0  0  0  0  0  0  0
   29.6644  -22.1153  -16.7385 O   0  0  0  0  0  0  0  0  0  0  0  0
   27.7605  -20.8221  -16.9809 N   0  0  0  0  0  0  0  0  0  0  0  0
   28.0170  -20.0908  -15.7773 C   0  0  0  0  0  0  0  0  0  0  0  0
   27.1563  -20.6787  -14.6883 C   0  0  0  0  0  0  0  0  0  0  0  0
   26.6631  -21.8264  -14.8204 O   0  0  0  0  0  0  0  0  0  0  0  0
   22.1271  -21.6015   -7.5910 O   0  0  0  0  0  0  0  0  0  0  0  0
   23.1155  -21.1703   -8.4687 C   0  0  0  0  0  0  0  0  0  0  0  0
   24.4562  -21.4006   -8.2425 C   0  0  0  0  0  0  0  0  0  0  0  0
   25.4475  -20.9821   -9.0986 C   0  0  0  0  0  0  0  0  0  0  0  0
   25.1251  -20.2979  -10.2454 C   0  0  0  0  0  0  0  0  0  0  0  0
   26.1003  -19.8021  -11.2141 C   0  0  0  0  0  0  0  0  0  0  0  0
   25.9891  -20.5737  -12.5070 C   0  0  2  0  0  0  0  0  0  0  0  0
   26.8842  -19.9619  -13.5021 N   0  0  0  0  0  0  0  0  0  0  0  0
   24.5946  -20.5297  -12.9796 C   0  0  0  0  0  0  0  0  0  0  0  0
   23.6410  -21.4934  -12.8154 O   0  0  0  0  0  0  0  0  0  0  0  0
   23.7746  -20.0507  -10.5000 C   0  0  0  0  0  0  0  0  0  0  0  0
   22.8101  -20.4829   -9.6240 C   0  0  0  0  0  0  0  0  0  0  0  0
   24.2220  -19.4805  -13.6181 O   0  0  0  0  0  0  0  0  0  0  0  0
  2  1  1  1
  3  2  1  0
  4  2  1  0
  4  6  1  0
  4  5  1  6
  6  7  2  0
  8  9  1  0
  8  6  1  0
  9 10  1  0
 10 19  1  0
 10 11  2  0
 12 13  1  0
 13 23  2  0
 14 13  1  0
 14 15  2  0
 15 16  1  0
 16 22  2  0
 16 17  1  0
 18 17  1  1
 19 18  1  0
 20 18  1  0
 20 21  1  0
 23 22  1  0
 24 20  2  0
M  END
$$$$
