TPL.pdb
     RDKit          3D

 23 23  0  0  1  0  0  0  0  0999 V2000
   13.4619  -17.0948   19.0964 C   0  0  0  0  0  0  0  0  0  0  0  0
   12.4488  -16.3905   19.9671 C   0  0  1  0  0  0  0  0  0  0  0  0
   12.9496  -16.2839   21.2241 O   0  0  0  0  0  0  0  0  0  0  0  0
   11.9626  -15.1070   19.3275 C   0  0  2  0  0  0  0  0  0  0  0  0
   13.1853  -14.3046   19.1204 N   0  0  0  0  0  0  0  0  0  0  0  0
   11.0329  -14.3429   20.1561 C   0  0  0  0  0  0  0  0  0  0  0  0
   11.5306  -13.3553   20.8026 O   0  0  0  0  0  0  0  0  0  0  0  0
    9.6578  -14.6045   20.2930 N   0  0  0  0  0  0  0  0  0  0  0  0
    8.9797  -15.7043   19.5828 C   0  0  0  0  0  0  0  0  0  0  0  0
    7.7764  -14.9371   19.0232 C   0  0  0  0  0  0  0  0  0  0  0  0
    7.4906  -13.8618   20.0436 C   0  0  0  0  0  0  0  0  0  0  0  0
    8.5945  -13.9952   21.0340 C   0  0  1  0  0  0  0  0  0  0  0  0
    8.2398  -14.7183   22.2739 C   0  0  0  0  0  0  0  0  0  0  0  0
    8.7641  -15.8489   22.4482 O   0  0  0  0  0  0  0  0  0  0  0  0
    7.9240  -12.3559   27.3808 C   0  0  0  0  0  0  0  0  0  0  0  0
    6.7550  -13.0619   26.7802 C   0  0  1  0  0  0  0  0  0  0  0  0
    5.5051  -12.3261   27.2508 C   0  0  0  0  0  0  0  0  0  0  0  0
    6.7851  -13.3030   25.3395 C   0  0  0  0  0  0  0  0  0  0  0  0
    7.7795  -14.2105   24.7145 C   0  0  2  0  0  0  0  0  0  0  0  0
    7.3632  -14.2484   23.2764 N   0  0  0  0  0  0  0  0  0  0  0  0
    7.9405  -15.5603   25.2086 C   0  0  0  0  0  0  0  0  0  0  0  0
    8.9484  -15.8494   25.9747 O   0  0  0  0  0  0  0  0  0  0  0  0
    7.1240  -16.6519   24.9749 O   0  0  0  0  0  0  0  0  0  0  0  0
  2  1  1  6
  2  3  1  0
  4  2  1  0
  4  5  1  1
  6  8  1  0
  6  4  1  0
  7  6  2  0
  8 12  1  0
  9 10  1  0
  9  8  1  0
 10 11  1  0
 12 11  1  0
 12 13  1  1
 13 20  1  0
 14 13  2  0
 16 15  1  6
 16 17  1  0
 18 16  1  0
 19 21  1  0
 19 20  1  0
 19 18  1  1
 21 23  1  0
 22 21  2  0
M  END
$$$$
