TPL.pdb
     RDKit          3D

 23 23  0  0  1  0  0  0  0  0999 V2000
   11.1424  -14.8106   20.0861 C   0  0  0  0  0  0  0  0  0  0  0  0
   10.5101  -13.6127   19.4184 C   0  0  1  0  0  0  0  0  0  0  0  0
   11.2798  -13.2414   18.3639 O   0  0  0  0  0  0  0  0  0  0  0  0
    9.0428  -13.8480   19.1280 C   0  0  2  0  0  0  0  0  0  0  0  0
    8.6054  -12.6381   18.4022 N   0  0  0  0  0  0  0  0  0  0  0  0
    8.2162  -14.0048   20.3225 C   0  0  0  0  0  0  0  0  0  0  0  0
    7.6675  -12.9396   20.7754 O   0  0  0  0  0  0  0  0  0  0  0  0
    7.9808  -15.2155   20.9985 N   0  0  0  0  0  0  0  0  0  0  0  0
    8.6691  -16.4718   20.6494 C   0  0  0  0  0  0  0  0  0  0  0  0
    7.4592  -17.4107   20.5841 C   0  0  0  0  0  0  0  0  0  0  0  0
    6.4849  -16.8624   21.5986 C   0  0  0  0  0  0  0  0  0  0  0  0
    7.1247  -15.6061   22.0780 C   0  0  1  0  0  0  0  0  0  0  0  0
    7.8164  -15.7127   23.3803 C   0  0  0  0  0  0  0  0  0  0  0  0
    8.9742  -16.2055   23.3761 O   0  0  0  0  0  0  0  0  0  0  0  0
    5.9051  -12.1859   26.9857 C   0  0  0  0  0  0  0  0  0  0  0  0
    6.8405  -12.9538   26.1133 C   0  0  1  0  0  0  0  0  0  0  0  0
    7.8724  -11.9607   25.5900 C   0  0  0  0  0  0  0  0  0  0  0  0
    7.4279  -14.1712   26.6680 C   0  0  0  0  0  0  0  0  0  0  0  0
    8.1699  -15.1414   25.8247 C   0  0  2  0  0  0  0  0  0  0  0  0
    7.2876  -15.3097   24.6263 N   0  0  0  0  0  0  0  0  0  0  0  0
    8.5226  -16.4406   26.3537 C   0  0  0  0  0  0  0  0  0  0  0  0
    9.4105  -16.5322   27.2969 O   0  0  0  0  0  0  0  0  0  0  0  0
    8.0162  -17.6731   25.9831 O   0  0  0  0  0  0  0  0  0  0  0  0
  2  1  1  6
  2  3  1  0
  4  2  1  0
  4  5  1  1
  6  8  1  0
  6  4  1  0
  7  6  2  0
  8 12  1  0
  9 10  1  0
  9  8  1  0
 10 11  1  0
 12 11  1  0
 12 13  1  1
 13 20  1  0
 14 13  2  0
 16 15  1  1
 16 17  1  0
 18 16  1  0
 19 21  1  0
 19 20  1  0
 19 18  1  1
 21 23  1  0
 22 21  2  0
M  END
$$$$
