TPL.pdb
     RDKit          3D

 23 23  0  0  1  0  0  0  0  0999 V2000
    5.5410  -17.3202   22.6700 C   0  0  0  0  0  0  0  0  0  0  0  0
    5.8754  -18.2071   21.4944 C   0  0  1  0  0  0  0  0  0  0  0  0
    4.8402  -19.0579   21.2785 O   0  0  0  0  0  0  0  0  0  0  0  0
    6.3386  -17.3978   20.3014 C   0  0  2  0  0  0  0  0  0  0  0  0
    6.4721  -18.3830   19.2089 N   0  0  0  0  0  0  0  0  0  0  0  0
    7.6251  -16.7328   20.4952 C   0  0  0  0  0  0  0  0  0  0  0  0
    8.6678  -17.4289   20.2324 O   0  0  0  0  0  0  0  0  0  0  0  0
    7.8008  -15.4097   20.9386 N   0  0  0  0  0  0  0  0  0  0  0  0
    6.6725  -14.5324   21.3005 C   0  0  0  0  0  0  0  0  0  0  0  0
    7.0662  -13.2790   20.5107 C   0  0  0  0  0  0  0  0  0  0  0  0
    8.5758  -13.2850   20.4970 C   0  0  0  0  0  0  0  0  0  0  0  0
    8.9421  -14.5714   21.1514 C   0  0  1  0  0  0  0  0  0  0  0  0
    9.3456  -14.4604   22.5694 C   0  0  0  0  0  0  0  0  0  0  0  0
   10.4943  -14.0037   22.8046 O   0  0  0  0  0  0  0  0  0  0  0  0
    6.2580  -13.9293   26.5321 C   0  0  0  0  0  0  0  0  0  0  0  0
    7.2139  -13.2443   25.6140 C   0  0  1  0  0  0  0  0  0  0  0  0
    6.9857  -11.7455   25.7766 C   0  0  0  0  0  0  0  0  0  0  0  0
    8.6194  -13.6350   25.6962 C   0  0  0  0  0  0  0  0  0  0  0  0
    9.1294  -14.8756   25.0608 C   0  0  2  0  0  0  0  0  0  0  0  0
    8.5524  -14.8240   23.6798 N   0  0  0  0  0  0  0  0  0  0  0  0
    8.8483  -16.1635   25.6561 C   0  0  0  0  0  0  0  0  0  0  0  0
    9.3879  -16.4780   26.7947 O   0  0  0  0  0  0  0  0  0  0  0  0
    8.0340  -17.1665   25.1622 O   0  0  0  0  0  0  0  0  0  0  0  0
  2  1  1  1
  2  3  1  0
  4  2  1  0
  4  5  1  6
  6  8  1  0
  6  4  1  0
  7  6  2  0
  8 12  1  0
  9 10  1  0
  9  8  1  0
 10 11  1  0
 12 11  1  0
 12 13  1  1
 13 20  1  0
 14 13  2  0
 16 15  1  1
 16 17  1  0
 18 16  1  0
 19 21  1  0
 19 20  1  0
 19 18  1  1
 21 23  1  0
 22 21  2  0
M  END
$$$$
