TPL.pdb
     RDKit          3D

 23 23  0  0  1  0  0  0  0  0999 V2000
   11.0602  -14.1611   20.3554 C   0  0  0  0  0  0  0  0  0  0  0  0
   10.1419  -13.2753   19.5475 C   0  0  1  0  0  0  0  0  0  0  0  0
   10.8431  -12.7430   18.5145 O   0  0  0  0  0  0  0  0  0  0  0  0
    8.8555  -13.9886   19.1882 C   0  0  2  0  0  0  0  0  0  0  0  0
    8.1178  -13.0282   18.3424 N   0  0  0  0  0  0  0  0  0  0  0  0
    8.0252  -14.3367   20.3389 C   0  0  0  0  0  0  0  0  0  0  0  0
    7.1135  -13.4943   20.6552 O   0  0  0  0  0  0  0  0  0  0  0  0
    8.1486  -15.5066   21.1098 N   0  0  0  0  0  0  0  0  0  0  0  0
    9.1888  -16.5212   20.8603 C   0  0  0  0  0  0  0  0  0  0  0  0
    8.3173  -17.7821   20.8728 C   0  0  0  0  0  0  0  0  0  0  0  0
    7.2018  -17.4755   21.8428 C   0  0  0  0  0  0  0  0  0  0  0  0
    7.4256  -16.0522   22.2190 C   0  0  1  0  0  0  0  0  0  0  0  0
    8.0890  -15.8459   23.5240 C   0  0  0  0  0  0  0  0  0  0  0  0
    9.3436  -15.9396   23.5506 O   0  0  0  0  0  0  0  0  0  0  0  0
    5.7148  -12.2434   26.7930 C   0  0  0  0  0  0  0  0  0  0  0  0
    6.8139  -12.9655   26.0883 C   0  0  1  0  0  0  0  0  0  0  0  0
    7.9384  -11.9582   25.8746 C   0  0  0  0  0  0  0  0  0  0  0  0
    7.2627  -14.2307   26.6652 C   0  0  0  0  0  0  0  0  0  0  0  0
    8.2048  -15.1295   25.9530 C   0  0  2  0  0  0  0  0  0  0  0  0
    7.4344  -15.5543   24.7410 N   0  0  0  0  0  0  0  0  0  0  0  0
    8.7396  -16.2956   26.6211 C   0  0  0  0  0  0  0  0  0  0  0  0
    8.2121  -17.4618   26.4017 O   0  0  0  0  0  0  0  0  0  0  0  0
    9.7992  -16.3532   27.5082 O   0  0  0  0  0  0  0  0  0  0  0  0
  2  1  1  6
  2  3  1  0
  4  2  1  0
  4  5  1  6
  6  8  1  0
  6  4  1  0
  7  6  2  0
  8 12  1  0
  9 10  1  0
  9  8  1  0
 10 11  1  0
 12 11  1  0
 12 13  1  1
 13 20  1  0
 14 13  2  0
 16 15  1  1
 16 17  1  0
 18 16  1  0
 19 21  1  0
 19 20  1  0
 19 18  1  1
 21 23  1  0
 22 21  2  0
M  END
$$$$
