TPL.pdb
     RDKit          3D

 23 23  0  0  1  0  0  0  0  0999 V2000
    9.8676  -19.3622   21.7586 C   0  0  0  0  0  0  0  0  0  0  0  0
   11.0175  -18.7157   21.0236 C   0  0  1  0  0  0  0  0  0  0  0  0
   11.6861  -19.6708   20.3286 O   0  0  0  0  0  0  0  0  0  0  0  0
   10.5630  -17.5061   20.2343 C   0  0  2  0  0  0  0  0  0  0  0  0
   11.7162  -17.1625   19.3775 N   0  0  0  0  0  0  0  0  0  0  0  0
   10.2277  -16.3475   21.0590 C   0  0  0  0  0  0  0  0  0  0  0  0
   11.2060  -15.5967   21.4055 O   0  0  0  0  0  0  0  0  0  0  0  0
    8.9351  -16.0005   21.4912 N   0  0  0  0  0  0  0  0  0  0  0  0
    7.7353  -16.7736   21.1218 C   0  0  0  0  0  0  0  0  0  0  0  0
    6.8267  -15.6252   20.6689 C   0  0  0  0  0  0  0  0  0  0  0  0
    7.2333  -14.4470   21.5207 C   0  0  0  0  0  0  0  0  0  0  0  0
    8.4022  -14.9441   22.2978 C   0  0  1  0  0  0  0  0  0  0  0  0
    8.1042  -15.3469   23.6888 C   0  0  0  0  0  0  0  0  0  0  0  0
    8.0562  -16.5808   23.9307 O   0  0  0  0  0  0  0  0  0  0  0  0
    6.1099  -12.0408   27.4977 C   0  0  0  0  0  0  0  0  0  0  0  0
    6.9610  -12.6646   26.4429 C   0  0  1  0  0  0  0  0  0  0  0  0
    7.3695  -11.5486   25.4876 C   0  0  0  0  0  0  0  0  0  0  0  0
    8.0789  -13.4939   26.8870 C   0  0  0  0  0  0  0  0  0  0  0  0
    8.6124  -14.6040   26.0586 C   0  0  2  0  0  0  0  0  0  0  0  0
    7.8682  -14.4651   24.7665 N   0  0  0  0  0  0  0  0  0  0  0  0
    8.5187  -15.9688   26.5281 C   0  0  0  0  0  0  0  0  0  0  0  0
    9.1272  -16.3167   27.6214 O   0  0  0  0  0  0  0  0  0  0  0  0
    7.8282  -17.0188   25.9505 O   0  0  0  0  0  0  0  0  0  0  0  0
  2  1  1  6
  2  3  1  0
  4  2  1  0
  4  5  1  6
  6  8  1  0
  6  4  1  0
  7  6  2  0
  8 12  1  0
  9 10  1  0
  9  8  1  0
 10 11  1  0
 12 11  1  0
 12 13  1  1
 13 20  1  0
 14 13  2  0
 16 15  1  1
 16 17  1  0
 18 16  1  0
 19 21  1  0
 19 20  1  0
 19 18  1  1
 21 23  1  0
 22 21  2  0
M  END
$$$$
