TPL.pdb
     RDKit          3D

 23 23  0  0  1  0  0  0  0  0999 V2000
    5.4373  -17.3750   21.9929 C   0  0  0  0  0  0  0  0  0  0  0  0
    6.1722  -18.1707   20.9406 C   0  0  1  0  0  0  0  0  0  0  0  0
    5.3334  -19.1112   20.4366 O   0  0  0  0  0  0  0  0  0  0  0  0
    6.8498  -17.2668   19.9324 C   0  0  2  0  0  0  0  0  0  0  0  0
    7.2975  -18.1743   18.8564 N   0  0  0  0  0  0  0  0  0  0  0  0
    8.0104  -16.5515   20.4581 C   0  0  0  0  0  0  0  0  0  0  0  0
    9.1315  -17.1683   20.3964 O   0  0  0  0  0  0  0  0  0  0  0  0
    7.9895  -15.2601   21.0147 N   0  0  0  0  0  0  0  0  0  0  0  0
    6.7409  -14.5117   21.2486 C   0  0  0  0  0  0  0  0  0  0  0  0
    7.1324  -13.1687   20.6218 C   0  0  0  0  0  0  0  0  0  0  0  0
    8.6196  -13.0494   20.8527 C   0  0  0  0  0  0  0  0  0  0  0  0
    8.9996  -14.3515   21.4672 C   0  0  1  0  0  0  0  0  0  0  0  0
    9.1656  -14.3263   22.9361 C   0  0  0  0  0  0  0  0  0  0  0  0
   10.2257  -13.8181   23.3847 O   0  0  0  0  0  0  0  0  0  0  0  0
    5.5749  -12.3619   26.2064 C   0  0  0  0  0  0  0  0  0  0  0  0
    6.9219  -12.7941   25.7323 C   0  0  1  0  0  0  0  0  0  0  0  0
    7.9332  -11.8207   26.3279 C   0  0  0  0  0  0  0  0  0  0  0  0
    7.2799  -14.1982   25.9197 C   0  0  0  0  0  0  0  0  0  0  0  0
    8.5204  -14.7769   25.3459 C   0  0  2  0  0  0  0  0  0  0  0  0
    8.2368  -14.8245   23.8761 N   0  0  0  0  0  0  0  0  0  0  0  0
    8.9906  -16.0702   25.7913 C   0  0  0  0  0  0  0  0  0  0  0  0
    8.6927  -17.1337   25.1082 O   0  0  0  0  0  0  0  0  0  0  0  0
    9.7633  -16.3550   26.9024 O   0  0  0  0  0  0  0  0  0  0  0  0
  2  1  1  1
  2  3  1  0
  4  2  1  0
  4  5  1  6
  6  8  1  0
  6  4  1  0
  7  6  2  0
  8 12  1  0
  9 10  1  0
  9  8  1  0
 10 11  1  0
 12 11  1  0
 12 13  1  1
 13 20  1  0
 14 13  2  0
 16 15  1  1
 16 17  1  0
 18 16  1  0
 19 21  1  0
 19 20  1  0
 19 18  1  1
 21 23  1  0
 22 21  2  0
M  END
$$$$
