TPL.pdb
     RDKit          3D

 23 23  0  0  1  0  0  0  0  0999 V2000
    6.2838  -18.1316   20.9565 C   0  0  0  0  0  0  0  0  0  0  0  0
    7.4699  -18.5250   20.1087 C   0  0  1  0  0  0  0  0  0  0  0  0
    7.1222  -19.5822   19.3317 O   0  0  0  0  0  0  0  0  0  0  0  0
    8.0606  -17.3301   19.3902 C   0  0  2  0  0  0  0  0  0  0  0  0
    9.0407  -17.9063   18.4473 N   0  0  0  0  0  0  0  0  0  0  0  0
    8.7501  -16.3874   20.2682 C   0  0  0  0  0  0  0  0  0  0  0  0
    9.9818  -16.6395   20.5141 O   0  0  0  0  0  0  0  0  0  0  0  0
    8.1740  -15.2445   20.8511 N   0  0  0  0  0  0  0  0  0  0  0  0
    6.7818  -14.8329   20.5944 C   0  0  0  0  0  0  0  0  0  0  0  0
    7.0126  -13.3507   20.2791 C   0  0  0  0  0  0  0  0  0  0  0  0
    8.2061  -12.9554   21.1150 C   0  0  0  0  0  0  0  0  0  0  0  0
    8.6509  -14.2304   21.7427 C   0  0  1  0  0  0  0  0  0  0  0  0
    8.2247  -14.4200   23.1457 C   0  0  0  0  0  0  0  0  0  0  0  0
    7.0670  -14.8747   23.3368 O   0  0  0  0  0  0  0  0  0  0  0  0
    5.5705  -12.0740   26.0209 C   0  0  0  0  0  0  0  0  0  0  0  0
    6.9777  -12.5388   25.8485 C   0  0  1  0  0  0  0  0  0  0  0  0
    7.8071  -11.8446   26.9233 C   0  0  0  0  0  0  0  0  0  0  0  0
    7.2034  -13.9805   25.7746 C   0  0  0  0  0  0  0  0  0  0  0  0
    8.5652  -14.5582   25.6539 C   0  0  2  0  0  0  0  0  0  0  0  0
    9.0055  -14.1334   24.2870 N   0  0  0  0  0  0  0  0  0  0  0  0
    8.7646  -15.9826   25.8069 C   0  0  0  0  0  0  0  0  0  0  0  0
    8.9698  -16.4807   26.9886 O   0  0  0  0  0  0  0  0  0  0  0  0
    8.7618  -16.9503   24.8188 O   0  0  0  0  0  0  0  0  0  0  0  0
  2  1  1  6
  2  3  1  0
  4  2  1  0
  4  5  1  6
  6  8  1  0
  6  4  1  0
  7  6  2  0
  8 12  1  0
  9 10  1  0
  9  8  1  0
 10 11  1  0
 12 11  1  0
 12 13  1  1
 13 20  1  0
 14 13  2  0
 16 15  1  1
 16 17  1  0
 18 16  1  0
 19 21  1  0
 19 20  1  0
 19 18  1  6
 21 23  1  0
 22 21  2  0
M  END
$$$$
