TPL.pdb
     RDKit          3D

 23 23  0  0  1  0  0  0  0  0999 V2000
   10.4176  -19.4307   21.9297 C   0  0  0  0  0  0  0  0  0  0  0  0
   11.0718  -18.9951   20.6402 C   0  0  1  0  0  0  0  0  0  0  0  0
   11.6191  -20.0811   20.0375 O   0  0  0  0  0  0  0  0  0  0  0  0
   10.1329  -18.1606   19.7946 C   0  0  2  0  0  0  0  0  0  0  0  0
   10.8670  -17.9323   18.5334 N   0  0  0  0  0  0  0  0  0  0  0  0
    9.7923  -16.8668   20.3818 C   0  0  0  0  0  0  0  0  0  0  0  0
   10.7288  -15.9932   20.4095 O   0  0  0  0  0  0  0  0  0  0  0  0
    8.5361  -16.5148   20.9074 N   0  0  0  0  0  0  0  0  0  0  0  0
    7.4004  -17.4536   20.9583 C   0  0  0  0  0  0  0  0  0  0  0  0
    6.3073  -16.5570   20.3658 C   0  0  0  0  0  0  0  0  0  0  0  0
    6.6779  -15.1569   20.7920 C   0  0  0  0  0  0  0  0  0  0  0  0
    7.9911  -15.3184   21.4751 C   0  0  1  0  0  0  0  0  0  0  0  0
    7.9315  -15.3316   22.9524 C   0  0  0  0  0  0  0  0  0  0  0  0
    7.8439  -16.4549   23.5127 O   0  0  0  0  0  0  0  0  0  0  0  0
    7.7895  -12.4867   27.9352 C   0  0  0  0  0  0  0  0  0  0  0  0
    6.6585  -12.9076   27.0580 C   0  0  1  0  0  0  0  0  0  0  0  0
    5.5545  -11.8703   27.2323 C   0  0  0  0  0  0  0  0  0  0  0  0
    6.9678  -13.2046   25.6613 C   0  0  0  0  0  0  0  0  0  0  0  0
    7.8701  -14.3179   25.2751 C   0  0  2  0  0  0  0  0  0  0  0  0
    7.9636  -14.1919   23.7857 N   0  0  0  0  0  0  0  0  0  0  0  0
    7.5327  -15.6798   25.6264 C   0  0  0  0  0  0  0  0  0  0  0  0
    6.4845  -16.2391   25.1021 O   0  0  0  0  0  0  0  0  0  0  0  0
    8.2087  -16.5261   26.4864 O   0  0  0  0  0  0  0  0  0  0  0  0
  2  1  1  1
  2  3  1  0
  4  2  1  0
  4  5  1  6
  6  8  1  0
  6  4  1  0
  7  6  2  0
  8 12  1  0
  9 10  1  0
  9  8  1  0
 10 11  1  0
 12 11  1  0
 12 13  1  1
 13 20  1  0
 14 13  2  0
 16 15  1  6
 16 17  1  0
 18 16  1  0
 19 21  1  0
 19 20  1  0
 19 18  1  6
 21 23  1  0
 22 21  2  0
M  END
$$$$
