TPL.pdb
     RDKit          3D

 23 23  0  0  1  0  0  0  0  0999 V2000
   11.5048  -19.3064   20.6806 C   0  0  0  0  0  0  0  0  0  0  0  0
   10.2281  -18.9645   19.9501 C   0  0  1  0  0  0  0  0  0  0  0  0
    9.8788  -20.0137   19.1631 O   0  0  0  0  0  0  0  0  0  0  0  0
    9.1641  -18.4542   20.8990 C   0  0  2  0  0  0  0  0  0  0  0  0
    7.9533  -18.3145   20.0646 N   0  0  0  0  0  0  0  0  0  0  0  0
    9.4732  -17.1591   21.5005 C   0  0  0  0  0  0  0  0  0  0  0  0
   10.6790  -16.9933   21.8998 O   0  0  0  0  0  0  0  0  0  0  0  0
    8.5632  -16.1000   21.6692 N   0  0  0  0  0  0  0  0  0  0  0  0
    7.1318  -16.2165   21.3359 C   0  0  0  0  0  0  0  0  0  0  0  0
    6.9601  -14.9329   20.5158 C   0  0  0  0  0  0  0  0  0  0  0  0
    7.9372  -13.9519   21.1176 C   0  0  0  0  0  0  0  0  0  0  0  0
    8.6773  -14.7502   22.1337 C   0  0  1  0  0  0  0  0  0  0  0  0
    8.2283  -14.5588   23.5293 C   0  0  0  0  0  0  0  0  0  0  0  0
    7.0674  -14.9497   23.8168 O   0  0  0  0  0  0  0  0  0  0  0  0
    5.4320  -12.4133   26.4265 C   0  0  0  0  0  0  0  0  0  0  0  0
    6.8625  -12.6600   26.0819 C   0  0  1  0  0  0  0  0  0  0  0  0
    7.6823  -11.6061   26.8183 C   0  0  0  0  0  0  0  0  0  0  0  0
    7.3683  -14.0200   26.2523 C   0  0  0  0  0  0  0  0  0  0  0  0
    8.7876  -14.3694   25.9946 C   0  0  2  0  0  0  0  0  0  0  0  0
    8.9909  -13.9744   24.5644 N   0  0  0  0  0  0  0  0  0  0  0  0
    9.2479  -15.7261   26.1932 C   0  0  0  0  0  0  0  0  0  0  0  0
   10.1459  -15.9754   27.0976 O   0  0  0  0  0  0  0  0  0  0  0  0
    8.8413  -16.8661   25.5239 O   0  0  0  0  0  0  0  0  0  0  0  0
  2  1  1  1
  2  3  1  0
  4  2  1  0
  4  5  1  6
  6  8  1  0
  6  4  1  0
  7  6  2  0
  8 12  1  0
  9 10  1  0
  9  8  1  0
 10 11  1  0
 12 11  1  0
 12 13  1  1
 13 20  1  0
 14 13  2  0
 16 15  1  1
 16 17  1  0
 18 16  1  0
 19 21  1  0
 19 20  1  0
 19 18  1  6
 21 23  1  0
 22 21  2  0
M  END
$$$$
