TPL.pdb
     RDKit          3D

 23 23  0  0  1  0  0  0  0  0999 V2000
    9.3280  -15.4042   20.5431 C   0  0  0  0  0  0  0  0  0  0  0  0
    7.9641  -15.5923   19.9226 C   0  0  1  0  0  0  0  0  0  0  0  0
    8.0938  -15.5962   18.5715 O   0  0  0  0  0  0  0  0  0  0  0  0
    7.2349  -16.7723   20.5299 C   0  0  2  0  0  0  0  0  0  0  0  0
    6.0021  -16.9048   19.7272 N   0  0  0  0  0  0  0  0  0  0  0  0
    6.8662  -16.5881   21.9317 C   0  0  0  0  0  0  0  0  0  0  0  0
    5.8973  -15.7822   22.1614 O   0  0  0  0  0  0  0  0  0  0  0  0
    7.4827  -17.2190   23.0271 N   0  0  0  0  0  0  0  0  0  0  0  0
    8.6568  -18.0993   22.8843 C   0  0  0  0  0  0  0  0  0  0  0  0
    8.1807  -19.2903   23.7237 C   0  0  0  0  0  0  0  0  0  0  0  0
    7.3037  -18.6871   24.7943 C   0  0  0  0  0  0  0  0  0  0  0  0
    7.2310  -17.2435   24.4366 C   0  0  1  0  0  0  0  0  0  0  0  0
    8.1215  -16.3588   25.2178 C   0  0  0  0  0  0  0  0  0  0  0  0
    9.3402  -16.3506   24.9045 O   0  0  0  0  0  0  0  0  0  0  0  0
    5.9663  -11.8001   26.8836 C   0  0  0  0  0  0  0  0  0  0  0  0
    6.9366  -12.8007   26.3512 C   0  0  1  0  0  0  0  0  0  0  0  0
    7.6405  -12.1468   25.1672 C   0  0  0  0  0  0  0  0  0  0  0  0
    7.8513  -13.4216   27.3064 C   0  0  0  0  0  0  0  0  0  0  0  0
    8.6885  -14.5931   26.9461 C   0  0  2  0  0  0  0  0  0  0  0  0
    7.7204  -15.5247   26.2846 N   0  0  0  0  0  0  0  0  0  0  0  0
    9.4216  -15.3030   27.9711 C   0  0  0  0  0  0  0  0  0  0  0  0
   10.4307  -14.7303   28.5544 O   0  0  0  0  0  0  0  0  0  0  0  0
    9.1857  -16.5774   28.4539 O   0  0  0  0  0  0  0  0  0  0  0  0
  2  1  1  1
  2  3  1  0
  4  2  1  0
  4  5  1  6
  6  8  1  0
  6  4  1  0
  7  6  2  0
  8 12  1  0
  9 10  1  0
  9  8  1  0
 10 11  1  0
 12 11  1  0
 12 13  1  1
 13 20  1  0
 14 13  2  0
 16 15  1  1
 16 17  1  0
 18 16  1  0
 19 21  1  0
 19 20  1  0
 19 18  1  1
 21 23  1  0
 22 21  2  0
M  END
$$$$
