TPL.pdb
     RDKit          3D

 23 23  0  0  1  0  0  0  0  0999 V2000
    8.9425  -20.2486   20.2008 C   0  0  0  0  0  0  0  0  0  0  0  0
    7.6854  -19.4527   19.9421 C   0  0  1  0  0  0  0  0  0  0  0  0
    6.6935  -20.3052   19.5797 O   0  0  0  0  0  0  0  0  0  0  0  0
    7.3767  -18.5126   21.0882 C   0  0  2  0  0  0  0  0  0  0  0  0
    6.0867  -17.8907   20.7261 N   0  0  0  0  0  0  0  0  0  0  0  0
    8.3702  -17.4584   21.2790 C   0  0  0  0  0  0  0  0  0  0  0  0
    9.5955  -17.8015   21.1315 O   0  0  0  0  0  0  0  0  0  0  0  0
    8.0871  -16.1198   21.6046 N   0  0  0  0  0  0  0  0  0  0  0  0
    6.7220  -15.6376   21.8840 C   0  0  0  0  0  0  0  0  0  0  0  0
    6.7072  -14.3939   20.9881 C   0  0  0  0  0  0  0  0  0  0  0  0
    8.1346  -13.9022   20.9799 C   0  0  0  0  0  0  0  0  0  0  0  0
    8.8820  -14.9371   21.7464 C   0  0  1  0  0  0  0  0  0  0  0  0
    9.1808  -14.5830   23.1504 C   0  0  0  0  0  0  0  0  0  0  0  0
    9.8834  -13.5576   23.3460 O   0  0  0  0  0  0  0  0  0  0  0  0
    6.1970  -14.1208   26.6159 C   0  0  0  0  0  0  0  0  0  0  0  0
    7.1003  -13.3727   25.6938 C   0  0  1  0  0  0  0  0  0  0  0  0
    6.6753  -11.9094   25.7498 C   0  0  0  0  0  0  0  0  0  0  0  0
    8.5386  -13.5715   25.8567 C   0  0  0  0  0  0  0  0  0  0  0  0
    9.1759  -14.8983   25.6657 C   0  0  2  0  0  0  0  0  0  0  0  0
    8.7457  -15.2979   24.2880 N   0  0  0  0  0  0  0  0  0  0  0  0
    8.9003  -15.9750   26.5913 C   0  0  0  0  0  0  0  0  0  0  0  0
    9.2482  -15.8580   27.8370 O   0  0  0  0  0  0  0  0  0  0  0  0
    8.2766  -17.1810   26.3278 O   0  0  0  0  0  0  0  0  0  0  0  0
  2  1  1  1
  2  3  1  0
  4  2  1  0
  4  5  1  6
  6  8  1  0
  6  4  1  0
  7  6  2  0
  8 12  1  0
  9 10  1  0
  9  8  1  0
 10 11  1  0
 12 11  1  0
 12 13  1  1
 13 20  1  0
 14 13  2  0
 16 15  1  1
 16 17  1  0
 18 16  1  0
 19 21  1  0
 19 20  1  0
 19 18  1  1
 21 23  1  0
 22 21  2  0
M  END
$$$$
