TPL.pdb
     RDKit          3D

 23 23  0  0  1  0  0  0  0  0999 V2000
   11.1572  -14.3659   20.3187 C   0  0  0  0  0  0  0  0  0  0  0  0
   10.3056  -13.4199   19.5060 C   0  0  1  0  0  0  0  0  0  0  0  0
   11.0299  -12.9779   18.4467 O   0  0  0  0  0  0  0  0  0  0  0  0
    8.9529  -14.0221   19.1893 C   0  0  2  0  0  0  0  0  0  0  0  0
    8.2752  -13.0059   18.3587 N   0  0  0  0  0  0  0  0  0  0  0  0
    8.1303  -14.2928   20.3662 C   0  0  0  0  0  0  0  0  0  0  0  0
    7.2716  -13.3941   20.6759 O   0  0  0  0  0  0  0  0  0  0  0  0
    8.2082  -15.4454   21.1683 N   0  0  0  0  0  0  0  0  0  0  0  0
    9.2034  -16.5096   20.9425 C   0  0  0  0  0  0  0  0  0  0  0  0
    8.2795  -17.7317   20.9931 C   0  0  0  0  0  0  0  0  0  0  0  0
    7.1830  -17.3518   21.9588 C   0  0  0  0  0  0  0  0  0  0  0  0
    7.4686  -15.9296   22.2949 C   0  0  1  0  0  0  0  0  0  0  0  0
    8.1469  -15.7162   23.5912 C   0  0  0  0  0  0  0  0  0  0  0  0
    9.4025  -15.7982   23.6016 O   0  0  0  0  0  0  0  0  0  0  0  0
    5.5542  -12.3937   27.0284 C   0  0  0  0  0  0  0  0  0  0  0  0
    6.6219  -13.0383   26.2096 C   0  0  1  0  0  0  0  0  0  0  0  0
    7.5616  -11.9268   25.7550 C   0  0  0  0  0  0  0  0  0  0  0  0
    7.3119  -14.1870   26.7918 C   0  0  0  0  0  0  0  0  0  0  0  0
    8.2872  -14.9942   26.0172 C   0  0  2  0  0  0  0  0  0  0  0  0
    7.5055  -15.4297   24.8163 N   0  0  0  0  0  0  0  0  0  0  0  0
    8.9227  -16.1426   26.6248 C   0  0  0  0  0  0  0  0  0  0  0  0
    8.5079  -17.3379   26.3321 O   0  0  0  0  0  0  0  0  0  0  0  0
    9.9758  -16.1536   27.5214 O   0  0  0  0  0  0  0  0  0  0  0  0
  2  1  1  6
  2  3  1  0
  4  2  1  0
  4  5  1  6
  6  8  1  0
  6  4  1  0
  7  6  2  0
  8 12  1  0
  9 10  1  0
  9  8  1  0
 10 11  1  0
 12 11  1  0
 12 13  1  1
 13 20  1  0
 14 13  2  0
 16 15  1  1
 16 17  1  0
 18 16  1  0
 19 21  1  0
 19 20  1  0
 19 18  1  1
 21 23  1  0
 22 21  2  0
M  END
$$$$
