TPL.pdb
     RDKit          3D

 23 23  0  0  1  0  0  0  0  0999 V2000
   11.0781  -17.3649   20.9988 C   0  0  0  0  0  0  0  0  0  0  0  0
   10.1568  -17.0728   19.8385 C   0  0  1  0  0  0  0  0  0  0  0  0
   10.8004  -17.3718   18.6815 O   0  0  0  0  0  0  0  0  0  0  0  0
    8.7972  -17.7101   20.0338 C   0  0  2  0  0  0  0  0  0  0  0  0
    8.0779  -17.4541   18.7693 N   0  0  0  0  0  0  0  0  0  0  0  0
    8.0257  -17.1427   21.1373 C   0  0  0  0  0  0  0  0  0  0  0  0
    7.3877  -16.0610   20.8850 O   0  0  0  0  0  0  0  0  0  0  0  0
    7.9316  -17.6862   22.4311 N   0  0  0  0  0  0  0  0  0  0  0  0
    8.6826  -18.8836   22.8506 C   0  0  0  0  0  0  0  0  0  0  0  0
    7.5438  -19.6798   23.4978 C   0  0  0  0  0  0  0  0  0  0  0  0
    6.6103  -18.6364   24.0626 C   0  0  0  0  0  0  0  0  0  0  0  0
    7.1898  -17.3426   23.6068 C   0  0  1  0  0  0  0  0  0  0  0  0
    7.9829  -16.6187   24.6231 C   0  0  0  0  0  0  0  0  0  0  0  0
    9.1900  -16.9500   24.7513 O   0  0  0  0  0  0  0  0  0  0  0  0
    5.9186  -11.8877   26.5179 C   0  0  0  0  0  0  0  0  0  0  0  0
    6.8448  -12.9066   25.9436 C   0  0  1  0  0  0  0  0  0  0  0  0
    7.7196  -12.1841   24.9249 C   0  0  0  0  0  0  0  0  0  0  0  0
    7.6000  -13.7318   26.8836 C   0  0  0  0  0  0  0  0  0  0  0  0
    8.4014  -14.8988   26.4378 C   0  0  2  0  0  0  0  0  0  0  0  0
    7.5003  -15.5894   25.4611 N   0  0  0  0  0  0  0  0  0  0  0  0
    8.8904  -15.8551   27.4065 C   0  0  0  0  0  0  0  0  0  0  0  0
    9.9009  -15.5470   28.1618 O   0  0  0  0  0  0  0  0  0  0  0  0
    8.4047  -17.1240   27.6653 O   0  0  0  0  0  0  0  0  0  0  0  0
  2  1  1  1
  2  3  1  0
  4  2  1  0
  4  5  1  6
  6  8  1  0
  6  4  1  0
  7  6  2  0
  8 12  1  0
  9 10  1  0
  9  8  1  0
 10 11  1  0
 12 11  1  0
 12 13  1  1
 13 20  1  0
 14 13  2  0
 16 15  1  1
 16 17  1  0
 18 16  1  0
 19 21  1  0
 19 20  1  0
 19 18  1  1
 21 23  1  0
 22 21  2  0
M  END
$$$$
