SDS.pdb
     RDKit          3D

 21 20  0  0  1  0  0  0  0  0999 V2000
   15.4208  -12.3268  -11.2419 O   0  0  0  0  0  0  0  0  0  0  0  0
   15.7669  -11.0531  -11.6725 C   0  0  0  0  0  0  0  0  0  0  0  0
   15.0378  -10.0094  -10.8506 C   0  0  2  0  0  0  0  0  0  0  0  0
   13.6584  -10.0260  -11.2053 N   0  0  0  0  0  0  0  0  0  0  0  0
   15.7046   -8.7134  -10.9986 C   0  0  0  0  0  0  0  0  0  0  0  0
   15.5272   -8.0928  -12.0941 O   0  0  0  0  0  0  0  0  0  0  0  0
   16.5325   -8.0962  -10.0185 N   0  0  0  0  0  0  0  0  0  0  0  0
   17.2295   -6.8538  -10.2148 C   0  0  1  0  0  0  0  0  0  0  0  0
   17.2974   -6.0324   -8.9384 C   0  0  0  0  0  0  0  0  0  0  0  0
   15.9639   -5.4960   -8.5540 C   0  0  0  0  0  0  0  0  0  0  0  0
   15.4840   -5.5440   -7.3956 O   0  0  0  0  0  0  0  0  0  0  0  0
   18.5774   -7.0126  -10.7854 C   0  0  0  0  0  0  0  0  0  0  0  0
   19.2369   -8.0130  -10.3596 O   0  0  0  0  0  0  0  0  0  0  0  0
   15.2258   -4.9007   -9.6030 O   0  0  0  0  0  0  0  0  0  0  0  0
   20.2336   -8.7986  -13.2410 O   0  0  0  0  0  0  0  0  0  0  0  0
   19.9156   -7.4826  -13.5754 C   0  0  0  0  0  0  0  0  0  0  0  0
   20.3393   -6.5295  -12.4455 C   0  0  2  0  0  0  0  0  0  0  0  0
   19.1530   -6.1569  -11.7326 N   0  0  0  0  0  0  0  0  0  0  0  0
   21.0878   -5.3811  -12.9681 C   0  0  0  0  0  0  0  0  0  0  0  0
   20.4916   -4.3127  -13.2035 O   0  0  0  0  0  0  0  0  0  0  0  0
   22.4387   -5.4821  -13.1997 O   0  0  0  0  0  0  0  0  0  0  0  0
  1  2  1  0
  2  3  1  0
  3  4  1  6
  5  3  1  0
  5  7  1  0
  6  5  2  0
  8  7  1  0
  8 12  1  0
  8  9  1  1
 10  9  1  0
 11 10  2  0
 12 18  1  0
 13 12  2  0
 14 10  1  0
 16 15  1  0
 17 16  1  6
 17 19  1  0
 18 17  1  0
 19 21  1  0
 20 19  2  0
M  END
$$$$
