SDS.pdb
     RDKit          3D

 21 20  0  0  1  0  0  0  0  0999 V2000
   20.4016  -11.0540  -20.1820 O   0  0  0  0  0  0  0  0  0  0  0  0
   19.8762  -10.3073  -19.1361 C   0  0  0  0  0  0  0  0  0  0  0  0
   20.7598  -10.4327  -17.9113 C   0  0  2  0  0  0  0  0  0  0  0  0
   20.6815  -11.7683  -17.4225 N   0  0  0  0  0  0  0  0  0  0  0  0
   20.4074   -9.3919  -16.9424 C   0  0  0  0  0  0  0  0  0  0  0  0
   19.3351   -9.5573  -16.2794 O   0  0  0  0  0  0  0  0  0  0  0  0
   21.1658   -8.2148  -16.6854 N   0  0  0  0  0  0  0  0  0  0  0  0
   20.8100   -7.2204  -15.7094 C   0  0  1  0  0  0  0  0  0  0  0  0
   22.0346   -6.5809  -15.0771 C   0  0  0  0  0  0  0  0  0  0  0  0
   21.6690   -5.6783  -13.9522 C   0  0  0  0  0  0  0  0  0  0  0  0
   20.4936   -5.4433  -13.5810 O   0  0  0  0  0  0  0  0  0  0  0  0
   19.9058   -6.1791  -16.2248 C   0  0  0  0  0  0  0  0  0  0  0  0
   20.3379   -5.5272  -17.2275 O   0  0  0  0  0  0  0  0  0  0  0  0
   22.7578   -5.0678  -13.2878 O   0  0  0  0  0  0  0  0  0  0  0  0
   15.5600   -4.3730  -16.8646 O   0  0  0  0  0  0  0  0  0  0  0  0
   16.3987   -5.3521  -16.3331 C   0  0  0  0  0  0  0  0  0  0  0  0
   17.8410   -4.8263  -16.2446 C   0  0  2  0  0  0  0  0  0  0  0  0
   18.6462   -5.8762  -15.6934 N   0  0  0  0  0  0  0  0  0  0  0  0
   17.9083   -3.5783  -15.4763 C   0  0  0  0  0  0  0  0  0  0  0  0
   18.1072   -3.6217  -14.2471 O   0  0  0  0  0  0  0  0  0  0  0  0
   17.7505   -2.3674  -16.1067 O   0  0  0  0  0  0  0  0  0  0  0  0
  1  2  1  0
  2  3  1  0
  3  4  1  1
  5  3  1  0
  5  7  1  0
  6  5  2  0
  8  7  1  0
  8 12  1  0
  8  9  1  6
 10  9  1  0
 11 10  2  0
 12 18  1  0
 13 12  2  0
 14 10  1  0
 16 15  1  0
 17 16  1  1
 17 19  1  0
 18 17  1  0
 19 21  1  0
 20 19  2  0
M  END
$$$$
