SDS.pdb
     RDKit          3D

 21 20  0  0  1  0  0  0  0  0999 V2000
   15.1225   -5.3235   -8.0591 O   0  0  0  0  0  0  0  0  0  0  0  0
   16.0446   -6.0313   -8.8182 C   0  0  0  0  0  0  0  0  0  0  0  0
   15.3769   -7.2271   -9.4669 C   0  0  2  0  0  0  0  0  0  0  0  0
   14.9557   -8.1280   -8.4472 N   0  0  0  0  0  0  0  0  0  0  0  0
   16.2700   -7.8008  -10.4767 C   0  0  0  0  0  0  0  0  0  0  0  0
   17.1278   -8.6494  -10.0757 O   0  0  0  0  0  0  0  0  0  0  0  0
   16.2547   -7.4851  -11.8648 N   0  0  0  0  0  0  0  0  0  0  0  0
   17.1986   -7.9973  -12.8212 C   0  0  1  0  0  0  0  0  0  0  0  0
   16.5211   -8.4408  -14.1068 C   0  0  0  0  0  0  0  0  0  0  0  0
   17.4873   -9.0521  -15.0589 C   0  0  0  0  0  0  0  0  0  0  0  0
   18.6431   -9.4336  -14.7539 O   0  0  0  0  0  0  0  0  0  0  0  0
   18.2997   -7.0683  -13.1251 C   0  0  0  0  0  0  0  0  0  0  0  0
   17.9545   -5.8639  -13.3427 O   0  0  0  0  0  0  0  0  0  0  0  0
   17.0223   -9.1910  -16.3871 O   0  0  0  0  0  0  0  0  0  0  0  0
   22.4308   -5.2009  -12.4776 O   0  0  0  0  0  0  0  0  0  0  0  0
   21.4015   -6.1047  -12.2164 C   0  0  0  0  0  0  0  0  0  0  0  0
   20.6586   -6.4552  -13.5164 C   0  0  2  0  0  0  0  0  0  0  0  0
   19.6531   -7.4221  -13.1873 N   0  0  0  0  0  0  0  0  0  0  0  0
   21.5874   -6.9136  -14.5553 C   0  0  0  0  0  0  0  0  0  0  0  0
   21.7683   -8.1347  -14.7247 O   0  0  0  0  0  0  0  0  0  0  0  0
   22.2571   -6.0027  -15.3366 O   0  0  0  0  0  0  0  0  0  0  0  0
  1  2  1  0
  2  3  1  0
  3  4  1  1
  5  3  1  0
  5  7  1  0
  6  5  2  0
  8  7  1  0
  8 12  1  0
  8  9  1  6
 10  9  1  0
 11 10  2  0
 12 18  1  0
 13 12  2  0
 14 10  1  0
 16 15  1  0
 17 16  1  1
 17 19  1  0
 18 17  1  0
 19 21  1  0
 20 19  2  0
M  END
$$$$
