SDS.pdb
     RDKit          3D

 21 20  0  0  1  0  0  0  0  0999 V2000
   24.8793  -12.7866  -15.6188 O   0  0  0  0  0  0  0  0  0  0  0  0
   24.2682  -11.6028  -16.0097 C   0  0  0  0  0  0  0  0  0  0  0  0
   22.7966  -11.8414  -16.2815 C   0  0  2  0  0  0  0  0  0  0  0  0
   22.6712  -12.7252  -17.3914 N   0  0  0  0  0  0  0  0  0  0  0  0
   22.1089  -10.5559  -16.4266 C   0  0  0  0  0  0  0  0  0  0  0  0
   22.0396  -10.0654  -17.5976 O   0  0  0  0  0  0  0  0  0  0  0  0
   21.5153   -9.8149  -15.3658 N   0  0  0  0  0  0  0  0  0  0  0  0
   20.8244   -8.5657  -15.5397 C   0  0  1  0  0  0  0  0  0  0  0  0
   19.3893   -8.6364  -15.0455 C   0  0  0  0  0  0  0  0  0  0  0  0
   18.6566   -7.3648  -15.2902 C   0  0  0  0  0  0  0  0  0  0  0  0
   17.9410   -6.7806  -14.4411 O   0  0  0  0  0  0  0  0  0  0  0  0
   21.5126   -7.4163  -14.9291 C   0  0  0  0  0  0  0  0  0  0  0  0
   21.8389   -7.5598  -13.7084 O   0  0  0  0  0  0  0  0  0  0  0  0
   18.8104   -6.8173  -16.5849 O   0  0  0  0  0  0  0  0  0  0  0  0
   23.5837   -3.0591  -15.4067 O   0  0  0  0  0  0  0  0  0  0  0  0
   22.8327   -4.0864  -15.9771 C   0  0  0  0  0  0  0  0  0  0  0  0
   22.5110   -5.1587  -14.9229 C   0  0  2  0  0  0  0  0  0  0  0  0
   21.8156   -6.2196  -15.5900 N   0  0  0  0  0  0  0  0  0  0  0  0
   21.7622   -4.5918  -13.7958 C   0  0  0  0  0  0  0  0  0  0  0  0
   20.5200   -4.5168  -13.8570 O   0  0  0  0  0  0  0  0  0  0  0  0
   22.4257   -4.1432  -12.6791 O   0  0  0  0  0  0  0  0  0  0  0  0
  1  2  1  0
  2  3  1  0
  3  4  1  6
  5  3  1  0
  5  7  1  0
  6  5  2  0
  8  7  1  0
  8 12  1  0
  8  9  1  1
 10  9  1  0
 11 10  2  0
 12 18  1  0
 13 12  2  0
 14 10  1  0
 16 15  1  0
 17 16  1  6
 17 19  1  0
 18 17  1  0
 19 21  1  0
 20 19  2  0
M  END
$$$$
