SDS.pdb
     RDKit          3D

 21 20  0  0  1  0  0  0  0  0999 V2000
   17.1029  -13.6932  -12.7479 O   0  0  0  0  0  0  0  0  0  0  0  0
   16.8336  -12.3311  -12.7474 C   0  0  0  0  0  0  0  0  0  0  0  0
   15.6518  -12.0342  -11.8465 C   0  0  2  0  0  0  0  0  0  0  0  0
   14.4982  -12.6836  -12.3721 N   0  0  0  0  0  0  0  0  0  0  0  0
   15.5242  -10.5861  -11.6645 C   0  0  0  0  0  0  0  0  0  0  0  0
   14.5354  -10.0170  -12.2257 O   0  0  0  0  0  0  0  0  0  0  0  0
   16.4155   -9.7686  -10.9133 N   0  0  0  0  0  0  0  0  0  0  0  0
   16.2538   -8.3513  -10.7311 C   0  0  1  0  0  0  0  0  0  0  0  0
   16.4395   -7.9400   -9.2803 C   0  0  0  0  0  0  0  0  0  0  0  0
   16.1855   -6.4878   -9.0801 C   0  0  0  0  0  0  0  0  0  0  0  0
   15.7910   -5.7036   -9.9767 O   0  0  0  0  0  0  0  0  0  0  0  0
   17.1193   -7.5381  -11.6013 C   0  0  0  0  0  0  0  0  0  0  0  0
   18.3676   -7.6430  -11.3827 O   0  0  0  0  0  0  0  0  0  0  0  0
   16.4196   -6.0074   -7.7709 O   0  0  0  0  0  0  0  0  0  0  0  0
   15.8795   -6.0160  -15.1703 O   0  0  0  0  0  0  0  0  0  0  0  0
   17.2129   -6.3392  -14.9207 C   0  0  0  0  0  0  0  0  0  0  0  0
   17.5817   -5.9915  -13.4689 C   0  0  2  0  0  0  0  0  0  0  0  0
   16.6638   -6.6873  -12.6159 N   0  0  0  0  0  0  0  0  0  0  0  0
   17.5898   -4.5405  -13.2528 C   0  0  0  0  0  0  0  0  0  0  0  0
   16.7308   -4.0231  -12.5132 O   0  0  0  0  0  0  0  0  0  0  0  0
   18.5370   -3.7544  -13.8637 O   0  0  0  0  0  0  0  0  0  0  0  0
  1  2  1  0
  2  3  1  0
  3  4  1  6
  5  3  1  0
  5  7  1  0
  6  5  2  0
  8  7  1  0
  8 12  1  0
  8  9  1  1
 10  9  1  0
 11 10  2  0
 12 18  1  0
 13 12  2  0
 14 10  1  0
 16 15  1  0
 17 16  1  6
 17 19  1  0
 18 17  1  0
 19 21  1  0
 20 19  2  0
M  END
$$$$
