SDS.pdb
     RDKit          3D

 21 20  0  0  1  0  0  0  0  0999 V2000
   16.3756  -11.6517  -15.4082 O   0  0  0  0  0  0  0  0  0  0  0  0
   17.6615  -11.1955  -15.1513 C   0  0  0  0  0  0  0  0  0  0  0  0
   18.6150  -11.6984  -16.2164 C   0  0  2  0  0  0  0  0  0  0  0  0
   18.8326  -13.0920  -16.0180 N   0  0  0  0  0  0  0  0  0  0  0  0
   19.8250  -10.8725  -16.2223 C   0  0  0  0  0  0  0  0  0  0  0  0
   20.7736  -11.2298  -15.4548 O   0  0  0  0  0  0  0  0  0  0  0  0
   20.0225   -9.7064  -17.0148 N   0  0  0  0  0  0  0  0  0  0  0  0
   21.2056   -8.8900  -16.9716 C   0  0  1  0  0  0  0  0  0  0  0  0
   21.8657   -8.7732  -18.3351 C   0  0  0  0  0  0  0  0  0  0  0  0
   23.1407   -9.5373  -18.3998 C   0  0  0  0  0  0  0  0  0  0  0  0
   23.7703   -9.9580  -17.3993 O   0  0  0  0  0  0  0  0  0  0  0  0
   20.9827   -7.5507  -16.4021 C   0  0  0  0  0  0  0  0  0  0  0  0
   20.0198   -6.8939  -16.9105 O   0  0  0  0  0  0  0  0  0  0  0  0
   23.6351   -9.7802  -19.7022 O   0  0  0  0  0  0  0  0  0  0  0  0
   21.6563   -6.5032  -12.6731 O   0  0  0  0  0  0  0  0  0  0  0  0
   22.1313   -5.5072  -13.5257 C   0  0  0  0  0  0  0  0  0  0  0  0
   21.4886   -5.6458  -14.9158 C   0  0  2  0  0  0  0  0  0  0  0  0
   21.7421   -6.9803  -15.3733 N   0  0  0  0  0  0  0  0  0  0  0  0
   21.9783   -4.6134  -15.8359 C   0  0  0  0  0  0  0  0  0  0  0  0
   21.7547   -3.4127  -15.5897 O   0  0  0  0  0  0  0  0  0  0  0  0
   22.6777   -4.9669  -16.9648 O   0  0  0  0  0  0  0  0  0  0  0  0
  1  2  1  0
  2  3  1  0
  3  4  1  1
  5  3  1  0
  5  7  1  0
  6  5  2  0
  8  7  1  0
  8 12  1  0
  8  9  1  6
 10  9  1  0
 11 10  2  0
 12 18  1  0
 13 12  2  0
 14 10  1  0
 16 15  1  0
 17 16  1  1
 17 19  1  0
 18 17  1  0
 19 21  1  0
 20 19  2  0
M  END
$$$$
