SDS.pdb
     RDKit          3D

 21 20  0  0  1  0  0  0  0  0999 V2000
   24.3673  -21.3402  -18.5497 O   0  0  0  0  0  0  0  0  0  0  0  0
   24.7617  -20.0515  -18.8832 C   0  0  0  0  0  0  0  0  0  0  0  0
   25.4787  -19.4072  -17.7140 C   0  0  2  0  0  0  0  0  0  0  0  0
   24.5762  -19.3136  -16.6160 N   0  0  0  0  0  0  0  0  0  0  0  0
   26.0751  -18.1392  -18.1415 C   0  0  0  0  0  0  0  0  0  0  0  0
   25.4111  -17.0799  -17.9096 O   0  0  0  0  0  0  0  0  0  0  0  0
   27.3328  -17.9988  -18.7935 N   0  0  0  0  0  0  0  0  0  0  0  0
   27.8859  -16.7424  -19.2220 C   0  0  1  0  0  0  0  0  0  0  0  0
   29.3916  -16.8191  -19.4109 C   0  0  0  0  0  0  0  0  0  0  0  0
   29.9822  -15.4837  -19.6962 C   0  0  0  0  0  0  0  0  0  0  0  0
   31.2025  -15.2733  -19.8987 O   0  0  0  0  0  0  0  0  0  0  0  0
   27.2521  -16.1967  -20.4337 C   0  0  0  0  0  0  0  0  0  0  0  0
   27.0776  -17.0273  -21.3807 O   0  0  0  0  0  0  0  0  0  0  0  0
   29.0624  -14.4102  -19.7308 O   0  0  0  0  0  0  0  0  0  0  0  0
   26.0620  -14.9077  -24.1378 O   0  0  0  0  0  0  0  0  0  0  0  0
   26.6934  -15.2785  -22.9510 C   0  0  0  0  0  0  0  0  0  0  0  0
   26.1572  -14.4401  -21.7787 C   0  0  2  0  0  0  0  0  0  0  0  0
   26.8474  -14.8662  -20.5971 N   0  0  0  0  0  0  0  0  0  0  0  0
   24.6981  -14.5465  -21.6695 C   0  0  0  0  0  0  0  0  0  0  0  0
   24.1977  -15.4054  -20.9183 O   0  0  0  0  0  0  0  0  0  0  0  0
   23.8863  -13.7061  -22.3928 O   0  0  0  0  0  0  0  0  0  0  0  0
  1  2  1  0
  2  3  1  0
  3  4  1  1
  5  3  1  0
  5  7  1  0
  6  5  2  0
  8  7  1  0
  8 12  1  0
  8  9  1  6
 10  9  1  0
 11 10  2  0
 12 18  1  0
 13 12  2  0
 14 10  1  0
 16 15  1  0
 17 16  1  6
 17 19  1  0
 18 17  1  0
 19 21  1  0
 20 19  2  0
M  END
$$$$
