SDS.pdb
     RDKit          3D

 21 20  0  0  1  0  0  0  0  0999 V2000
   16.4736   -9.0486  -15.7644 O   0  0  0  0  0  0  0  0  0  0  0  0
   17.6261   -9.3063  -16.4944 C   0  0  0  0  0  0  0  0  0  0  0  0
   18.6506  -10.0030  -15.6218 C   0  0  2  0  0  0  0  0  0  0  0  0
   18.1565  -11.2924  -15.2724 N   0  0  0  0  0  0  0  0  0  0  0  0
   18.9998   -9.1407  -14.4900 C   0  0  0  0  0  0  0  0  0  0  0  0
   18.7231   -9.5723  -13.3264 O   0  0  0  0  0  0  0  0  0  0  0  0
   19.6209   -7.8635  -14.5884 N   0  0  0  0  0  0  0  0  0  0  0  0
   20.0549   -7.0860  -13.4591 C   0  0  1  0  0  0  0  0  0  0  0  0
   21.1798   -6.1322  -13.8244 C   0  0  0  0  0  0  0  0  0  0  0  0
   21.6231   -5.3260  -12.6552 C   0  0  0  0  0  0  0  0  0  0  0  0
   21.8248   -5.7887  -11.5064 O   0  0  0  0  0  0  0  0  0  0  0  0
   18.9679   -6.3522  -12.7901 C   0  0  0  0  0  0  0  0  0  0  0  0
   18.1713   -5.7312  -13.5626 O   0  0  0  0  0  0  0  0  0  0  0  0
   21.8167   -3.9483  -12.9087 O   0  0  0  0  0  0  0  0  0  0  0  0
   16.2898   -5.6730   -8.8343 O   0  0  0  0  0  0  0  0  0  0  0  0
   17.4388   -6.2075   -9.4162 C   0  0  0  0  0  0  0  0  0  0  0  0
   17.6143   -5.6640  -10.8439 C   0  0  2  0  0  0  0  0  0  0  0  0
   18.7697   -6.3000  -11.4049 N   0  0  0  0  0  0  0  0  0  0  0  0
   17.6962   -4.1993  -10.8514 C   0  0  0  0  0  0  0  0  0  0  0  0
   18.8079   -3.6450  -10.9488 O   0  0  0  0  0  0  0  0  0  0  0  0
   16.5546   -3.4411  -10.7492 O   0  0  0  0  0  0  0  0  0  0  0  0
  1  2  1  0
  2  3  1  0
  3  4  1  1
  5  3  1  0
  5  7  1  0
  6  5  2  0
  8  7  1  0
  8 12  1  0
  8  9  1  6
 10  9  1  0
 11 10  2  0
 12 18  1  0
 13 12  2  0
 14 10  1  0
 16 15  1  0
 17 16  1  1
 17 19  1  0
 18 17  1  0
 19 21  1  0
 20 19  2  0
M  END
$$$$
