SDS.pdb
     RDKit          3D

 21 20  0  0  1  0  0  0  0  0999 V2000
   21.3392  -13.5110  -16.1755 O   0  0  0  0  0  0  0  0  0  0  0  0
   21.2465  -12.1691  -16.5196 C   0  0  0  0  0  0  0  0  0  0  0  0
   19.7932  -11.7735  -16.6867 C   0  0  2  0  0  0  0  0  0  0  0  0
   19.2806  -12.3917  -17.8631 N   0  0  0  0  0  0  0  0  0  0  0  0
   19.6734  -10.3140  -16.6459 C   0  0  0  0  0  0  0  0  0  0  0  0
   20.0980   -9.6698  -17.6566 O   0  0  0  0  0  0  0  0  0  0  0  0
   19.1226   -9.5624  -15.5696 N   0  0  0  0  0  0  0  0  0  0  0  0
   19.0426   -8.1268  -15.5432 C   0  0  1  0  0  0  0  0  0  0  0  0
   17.8169   -7.6397  -14.7888 C   0  0  0  0  0  0  0  0  0  0  0  0
   16.5564   -8.1467  -15.3951 C   0  0  0  0  0  0  0  0  0  0  0  0
   16.2391   -8.0057  -16.6009 O   0  0  0  0  0  0  0  0  0  0  0  0
   20.2524   -7.4740  -15.0161 C   0  0  0  0  0  0  0  0  0  0  0  0
   20.7072   -7.9591  -13.9321 O   0  0  0  0  0  0  0  0  0  0  0  0
   15.6901   -8.8279  -14.5090 O   0  0  0  0  0  0  0  0  0  0  0  0
   23.8403   -4.2601  -15.5805 O   0  0  0  0  0  0  0  0  0  0  0  0
   22.6724   -4.8406  -16.0741 C   0  0  0  0  0  0  0  0  0  0  0  0
   22.1054   -5.8435  -15.0556 C   0  0  2  0  0  0  0  0  0  0  0  0
   20.9050   -6.3903  -15.6163 N   0  0  0  0  0  0  0  0  0  0  0  0
   21.9011   -5.2161  -13.7453 C   0  0  0  0  0  0  0  0  0  0  0  0
   20.8341   -4.6178  -13.5084 O   0  0  0  0  0  0  0  0  0  0  0  0
   22.8809   -5.2846  -12.7841 O   0  0  0  0  0  0  0  0  0  0  0  0
  1  2  1  0
  2  3  1  0
  3  4  1  6
  5  3  1  0
  5  7  1  0
  6  5  2  0
  8  7  1  0
  8 12  1  0
  8  9  1  1
 10  9  1  0
 11 10  2  0
 12 18  1  0
 13 12  2  0
 14 10  1  0
 16 15  1  0
 17 16  1  6
 17 19  1  0
 18 17  1  0
 19 21  1  0
 20 19  2  0
M  END
$$$$
