SDS.pdb
     RDKit          3D

 21 20  0  0  1  0  0  0  0  0999 V2000
   14.9608   -6.1182   -7.4750 O   0  0  0  0  0  0  0  0  0  0  0  0
   15.8723   -6.4107   -8.4805 C   0  0  0  0  0  0  0  0  0  0  0  0
   15.2110   -7.2501   -9.5550 C   0  0  2  0  0  0  0  0  0  0  0  0
   14.9505   -8.5481   -9.0295 N   0  0  0  0  0  0  0  0  0  0  0  0
   16.0261   -7.2216  -10.7720 C   0  0  0  0  0  0  0  0  0  0  0  0
   16.8373   -8.1848  -10.9482 O   0  0  0  0  0  0  0  0  0  0  0  0
   15.9832   -6.2059  -11.7686 N   0  0  0  0  0  0  0  0  0  0  0  0
   16.7301   -6.2458  -12.9969 C   0  0  1  0  0  0  0  0  0  0  0  0
   16.0665   -5.4285  -14.0924 C   0  0  0  0  0  0  0  0  0  0  0  0
   16.7252   -5.6325  -15.4109 C   0  0  0  0  0  0  0  0  0  0  0  0
   16.3737   -5.0715  -16.4768 O   0  0  0  0  0  0  0  0  0  0  0  0
   18.1385   -5.8428  -12.8489 C   0  0  0  0  0  0  0  0  0  0  0  0
   18.3384   -4.8027  -12.1452 O   0  0  0  0  0  0  0  0  0  0  0  0
   17.8178   -6.5302  -15.4090 O   0  0  0  0  0  0  0  0  0  0  0  0
   22.7342   -7.1759  -12.7676 O   0  0  0  0  0  0  0  0  0  0  0  0
   21.4101   -7.4500  -13.1087 C   0  0  0  0  0  0  0  0  0  0  0  0
   20.5756   -6.1587  -13.0816 C   0  0  2  0  0  0  0  0  0  0  0  0
   19.2282   -6.5128  -13.4183 N   0  0  0  0  0  0  0  0  0  0  0  0
   21.1456   -5.1358  -13.9654 C   0  0  0  0  0  0  0  0  0  0  0  0
   20.7603   -5.0593  -15.1478 O   0  0  0  0  0  0  0  0  0  0  0  0
   22.1011   -4.2677  -13.4943 O   0  0  0  0  0  0  0  0  0  0  0  0
  1  2  1  0
  2  3  1  0
  3  4  1  1
  5  3  1  0
  5  7  1  0
  6  5  2  0
  8  7  1  0
  8 12  1  0
  8  9  1  6
 10  9  1  0
 11 10  2  0
 12 18  1  0
 13 12  2  0
 14 10  1  0
 16 15  1  0
 17 16  1  6
 17 19  1  0
 18 17  1  0
 19 21  1  0
 20 19  2  0
M  END
$$$$
