SDS.pdb
     RDKit          3D

 21 20  0  0  1  0  0  0  0  0999 V2000
   15.8417   -9.6554  -18.1436 O   0  0  0  0  0  0  0  0  0  0  0  0
   16.2779   -8.7265  -17.2085 C   0  0  0  0  0  0  0  0  0  0  0  0
   17.4573   -9.2805  -16.4349 C   0  0  2  0  0  0  0  0  0  0  0  0
   17.0261  -10.4146  -15.6887 N   0  0  0  0  0  0  0  0  0  0  0  0
   18.0731   -8.2112  -15.6451 C   0  0  0  0  0  0  0  0  0  0  0  0
   17.5096   -7.9043  -14.5474 O   0  0  0  0  0  0  0  0  0  0  0  0
   19.2464   -7.4908  -16.0072 N   0  0  0  0  0  0  0  0  0  0  0  0
   19.8678   -6.4900  -15.1825 C   0  0  1  0  0  0  0  0  0  0  0  0
   21.3673   -6.7034  -15.0623 C   0  0  0  0  0  0  0  0  0  0  0  0
   21.6907   -7.9685  -14.3490 C   0  0  0  0  0  0  0  0  0  0  0  0
   21.4574   -8.1809  -13.1345 O   0  0  0  0  0  0  0  0  0  0  0  0
   19.5869   -5.1095  -15.6104 C   0  0  0  0  0  0  0  0  0  0  0  0
   19.8930   -4.8374  -16.8143 O   0  0  0  0  0  0  0  0  0  0  0  0
   22.3021   -8.9692  -15.1391 O   0  0  0  0  0  0  0  0  0  0  0  0
   17.3150   -0.9185  -14.8096 O   0  0  0  0  0  0  0  0  0  0  0  0
   17.7169   -2.1657  -14.3327 C   0  0  0  0  0  0  0  0  0  0  0  0
   18.6825   -2.8300  -15.3282 C   0  0  2  0  0  0  0  0  0  0  0  0
   19.0250   -4.1169  -14.7982 N   0  0  0  0  0  0  0  0  0  0  0  0
   19.8493   -1.9798  -15.5887 C   0  0  0  0  0  0  0  0  0  0  0  0
   20.8682   -2.0984  -14.8815 O   0  0  0  0  0  0  0  0  0  0  0  0
   19.8196   -1.0553  -16.6051 O   0  0  0  0  0  0  0  0  0  0  0  0
  1  2  1  0
  2  3  1  0
  3  4  1  1
  5  3  1  0
  5  7  1  0
  6  5  2  0
  8  7  1  0
  8 12  1  0
  8  9  1  6
 10  9  1  0
 11 10  2  0
 12 18  1  0
 13 12  2  0
 14 10  1  0
 16 15  1  0
 17 16  1  1
 17 19  1  0
 18 17  1  0
 19 21  1  0
 20 19  2  0
M  END
$$$$
