VFV.pdb
     RDKit          3D

 26 26  0  0  1  0  0  0  0  0999 V2000
    8.5092  -14.2281   18.2298 C   0  0  0  0  0  0  0  0  0  0  0  0
    8.7127  -13.8055   19.6645 C   0  0  1  0  0  0  0  0  0  0  0  0
    7.7755  -12.7264   20.1122 C   0  0  0  0  0  0  0  0  0  0  0  0
    8.8288  -14.9686   20.6095 C   0  0  2  0  0  0  0  0  0  0  0  0
    7.6637  -15.7992   20.3961 N   0  0  0  0  0  0  0  0  0  0  0  0
    8.9691  -14.6511   22.0142 C   0  0  0  0  0  0  0  0  0  0  0  0
    9.4187  -13.4967   22.3274 O   0  0  0  0  0  0  0  0  0  0  0  0
    8.6597  -15.4885   23.1179 N   0  0  0  0  0  0  0  0  0  0  0  0
    8.7067  -15.0002   24.4754 C   0  0  1  0  0  0  0  0  0  0  0  0
    7.2680  -14.9968   24.9789 C   0  0  0  0  0  0  0  0  0  0  0  0
    6.8488  -13.6734   25.4994 C   0  0  0  0  0  0  0  0  0  0  0  0
    7.7893  -12.8159   26.0288 C   0  0  0  0  0  0  0  0  0  0  0  0
    7.3963  -11.5849   26.5082 C   0  0  0  0  0  0  0  0  0  0  0  0
    6.0886  -11.2070   26.4645 C   0  0  0  0  0  0  0  0  0  0  0  0
    5.1191  -12.0536   25.9353 C   0  0  0  0  0  0  0  0  0  0  0  0
    5.5312  -13.2832   25.4595 C   0  0  0  0  0  0  0  0  0  0  0  0
    9.6094  -15.8050   25.3226 C   0  0  0  0  0  0  0  0  0  0  0  0
   10.1444  -16.8768   24.9340 O   0  0  0  0  0  0  0  0  0  0  0  0
   11.6287  -13.9786   28.5335 C   0  0  0  0  0  0  0  0  0  0  0  0
   11.1320  -15.3811   28.7870 C   0  0  1  0  0  0  0  0  0  0  0  0
   10.0057  -15.4099   29.7657 C   0  0  0  0  0  0  0  0  0  0  0  0
   10.8253  -16.1141   27.4916 C   0  0  2  0  0  0  0  0  0  0  0  0
    9.9198  -15.3887   26.6519 N   0  0  0  0  0  0  0  0  0  0  0  0
   10.3502  -17.4775   27.8120 C   0  0  0  0  0  0  0  0  0  0  0  0
    9.1489  -17.7639   27.6258 O   0  0  0  0  0  0  0  0  0  0  0  0
   11.1928  -18.4467   28.3113 O   0  0  0  0  0  0  0  0  0  0  0  0
  2  4  1  0
  2  1  1  6
  3  2  1  0
  4  6  1  0
  4  5  1  1
  6  7  2  0
  8  9  1  0
  8  6  1  0
  9 17  1  0
 10 11  1  0
  9 10  1  1
 11 12  2  0
 12 13  1  0
 14 13  2  0
 15 14  1  0
 16 15  2  0
 16 11  1  0
 17 18  2  0
 20 19  1  6
 20 22  1  0
 21 20  1  0
 22 24  1  0
 23 17  1  0
 22 23  1  1
 24 25  2  0
 24 26  1  0
M  END
$$$$
