VFV.pdb
     RDKit          3D

 26 26  0  0  1  0  0  0  0  0999 V2000
    7.8100  -16.5296   19.9100 C   0  0  0  0  0  0  0  0  0  0  0  0
    7.9605  -15.0918   19.4759 C   0  0  1  0  0  0  0  0  0  0  0  0
    7.4852  -14.8325   18.0794 C   0  0  0  0  0  0  0  0  0  0  0  0
    7.4617  -14.1124   20.5011 C   0  0  2  0  0  0  0  0  0  0  0  0
    7.7866  -12.7908   20.0104 N   0  0  0  0  0  0  0  0  0  0  0  0
    7.9523  -14.2814   21.8518 C   0  0  0  0  0  0  0  0  0  0  0  0
    9.1410  -13.8916   22.1125 O   0  0  0  0  0  0  0  0  0  0  0  0
    7.2552  -14.8428   22.9537 N   0  0  0  0  0  0  0  0  0  0  0  0
    7.9025  -15.0680   24.2239 C   0  0  1  0  0  0  0  0  0  0  0  0
    6.8470  -14.8120   25.2933 C   0  0  0  0  0  0  0  0  0  0  0  0
    6.9543  -13.4583   25.8883 C   0  0  0  0  0  0  0  0  0  0  0  0
    8.1864  -12.8480   25.9855 C   0  0  0  0  0  0  0  0  0  0  0  0
    8.2815  -11.5879   26.5357 C   0  0  0  0  0  0  0  0  0  0  0  0
    7.1711  -10.9395   26.9845 C   0  0  0  0  0  0  0  0  0  0  0  0
    5.9153  -11.5331   26.8982 C   0  0  0  0  0  0  0  0  0  0  0  0
    5.8390  -12.7960   26.3438 C   0  0  0  0  0  0  0  0  0  0  0  0
    8.4938  -16.4182   24.3126 C   0  0  0  0  0  0  0  0  0  0  0  0
    7.8241  -17.4740   24.1622 O   0  0  0  0  0  0  0  0  0  0  0  0
   11.5091  -17.7357   22.3316 C   0  0  0  0  0  0  0  0  0  0  0  0
   11.7838  -17.9342   23.8025 C   0  0  1  0  0  0  0  0  0  0  0  0
   12.8575  -17.0255   24.3011 C   0  0  0  0  0  0  0  0  0  0  0  0
   10.5093  -17.8731   24.6279 C   0  0  2  0  0  0  0  0  0  0  0  0
    9.8858  -16.5846   24.5798 N   0  0  0  0  0  0  0  0  0  0  0  0
   10.8075  -18.3198   26.0059 C   0  0  0  0  0  0  0  0  0  0  0  0
   10.6128  -17.5342   26.9570 O   0  0  0  0  0  0  0  0  0  0  0  0
   11.2955  -19.5797   26.2763 O   0  0  0  0  0  0  0  0  0  0  0  0
  2  4  1  0
  2  1  1  1
  3  2  1  0
  4  6  1  0
  4  5  1  6
  6  7  2  0
  8  9  1  0
  8  6  1  0
  9 17  1  0
 10 11  1  0
  9 10  1  1
 11 12  2  0
 12 13  1  0
 14 13  2  0
 15 14  1  0
 16 15  2  0
 16 11  1  0
 17 18  2  0
 20 19  1  6
 20 22  1  0
 21 20  1  0
 22 24  1  0
 23 17  1  0
 22 23  1  1
 24 25  2  0
 24 26  1  0
M  END
$$$$
