VFV.pdb
     RDKit          3D

 26 26  0  0  1  0  0  0  0  0999 V2000
    9.7968  -20.0547   20.0853 C   0  0  0  0  0  0  0  0  0  0  0  0
    9.9983  -19.0646   21.2067 C   0  0  1  0  0  0  0  0  0  0  0  0
   11.3110  -19.2143   21.9123 C   0  0  0  0  0  0  0  0  0  0  0  0
    9.6522  -17.6550   20.8163 C   0  0  2  0  0  0  0  0  0  0  0  0
   10.6058  -17.2548   19.8046 N   0  0  0  0  0  0  0  0  0  0  0  0
    9.6115  -16.6782   21.8829 C   0  0  0  0  0  0  0  0  0  0  0  0
   10.7061  -16.1124   22.2217 O   0  0  0  0  0  0  0  0  0  0  0  0
    8.4726  -16.2595   22.6196 N   0  0  0  0  0  0  0  0  0  0  0  0
    8.5856  -15.3567   23.7401 C   0  0  1  0  0  0  0  0  0  0  0  0
    7.2815  -14.5691   23.7883 C   0  0  0  0  0  0  0  0  0  0  0  0
    7.1797  -13.7071   24.9903 C   0  0  0  0  0  0  0  0  0  0  0  0
    6.4415  -14.1286   26.0754 C   0  0  0  0  0  0  0  0  0  0  0  0
    6.3523  -13.3261   27.1924 C   0  0  0  0  0  0  0  0  0  0  0  0
    6.9856  -12.1211   27.2352 C   0  0  0  0  0  0  0  0  0  0  0  0
    7.7371  -11.6719   26.1534 C   0  0  0  0  0  0  0  0  0  0  0  0
    7.8154  -12.4893   25.0427 C   0  0  0  0  0  0  0  0  0  0  0  0
    8.8715  -16.0711   25.0004 C   0  0  0  0  0  0  0  0  0  0  0  0
    8.1486  -17.0026   25.4427 O   0  0  0  0  0  0  0  0  0  0  0  0
   12.4495  -17.5138   28.0596 C   0  0  0  0  0  0  0  0  0  0  0  0
   11.9628  -16.7882   26.8288 C   0  0  1  0  0  0  0  0  0  0  0  0
   12.4120  -17.4529   25.5704 C   0  0  0  0  0  0  0  0  0  0  0  0
   10.4649  -16.5364   26.8774 C   0  0  2  0  0  0  0  0  0  0  0  0
   10.0096  -15.7247   25.7888 N   0  0  0  0  0  0  0  0  0  0  0  0
   10.1143  -15.9777   28.2011 C   0  0  0  0  0  0  0  0  0  0  0  0
   10.2277  -16.6970   29.2158 O   0  0  0  0  0  0  0  0  0  0  0  0
    9.6646  -14.6841   28.3526 O   0  0  0  0  0  0  0  0  0  0  0  0
  2  4  1  0
  2  1  1  6
  3  2  1  0
  4  6  1  0
  4  5  1  6
  6  7  2  0
  8  9  1  0
  8  6  1  0
  9 17  1  0
 10 11  1  0
  9 10  1  1
 11 12  2  0
 12 13  1  0
 14 13  2  0
 15 14  1  0
 16 15  2  0
 16 11  1  0
 17 18  2  0
 20 19  1  1
 20 22  1  0
 21 20  1  0
 22 24  1  0
 23 17  1  0
 22 23  1  6
 24 25  2  0
 24 26  1  0
M  END
$$$$
