VFV.pdb
     RDKit          3D

 26 26  0  0  1  0  0  0  0  0999 V2000
   10.1182  -19.7193   20.0728 C   0  0  0  0  0  0  0  0  0  0  0  0
   10.2333  -18.7247   21.2025 C   0  0  1  0  0  0  0  0  0  0  0  0
   11.4559  -18.9128   22.0469 C   0  0  0  0  0  0  0  0  0  0  0  0
    9.9825  -17.3082   20.7669 C   0  0  2  0  0  0  0  0  0  0  0  0
   11.0855  -16.9324   19.9095 N   0  0  0  0  0  0  0  0  0  0  0  0
    9.8061  -16.3286   21.8171 C   0  0  0  0  0  0  0  0  0  0  0  0
   10.8450  -15.7352   22.2660 O   0  0  0  0  0  0  0  0  0  0  0  0
    8.5860  -15.9348   22.4267 N   0  0  0  0  0  0  0  0  0  0  0  0
    8.5612  -15.0650   23.5783 C   0  0  1  0  0  0  0  0  0  0  0  0
    7.1902  -14.3989   23.5819 C   0  0  0  0  0  0  0  0  0  0  0  0
    6.9712  -13.5507   24.7780 C   0  0  0  0  0  0  0  0  0  0  0  0
    6.1608  -14.0006   25.7982 C   0  0  0  0  0  0  0  0  0  0  0  0
    5.9626  -13.2108   26.9102 C   0  0  0  0  0  0  0  0  0  0  0  0
    6.5589  -11.9905   27.0115 C   0  0  0  0  0  0  0  0  0  0  0  0
    7.3816  -11.5126   25.9959 C   0  0  0  0  0  0  0  0  0  0  0  0
    7.5688  -12.3177   24.8892 C   0  0  0  0  0  0  0  0  0  0  0  0
    8.8483  -15.7943   24.8297 C   0  0  0  0  0  0  0  0  0  0  0  0
    8.3342  -16.9092   25.1099 O   0  0  0  0  0  0  0  0  0  0  0  0
   11.3399  -14.0352   27.9502 C   0  0  0  0  0  0  0  0  0  0  0  0
   11.5817  -15.4263   27.4167 C   0  0  1  0  0  0  0  0  0  0  0  0
   12.2674  -16.2992   28.4142 C   0  0  0  0  0  0  0  0  0  0  0  0
   10.3138  -16.0407   26.8471 C   0  0  2  0  0  0  0  0  0  0  0  0
    9.7443  -15.2496   25.7978 N   0  0  0  0  0  0  0  0  0  0  0  0
    9.3673  -16.3013   27.9532 C   0  0  0  0  0  0  0  0  0  0  0  0
    8.3480  -15.5882   28.0641 O   0  0  0  0  0  0  0  0  0  0  0  0
    9.5738  -17.3093   28.8697 O   0  0  0  0  0  0  0  0  0  0  0  0
  2  4  1  0
  2  1  1  6
  3  2  1  0
  4  6  1  0
  4  5  1  1
  6  7  2  0
  8  9  1  0
  8  6  1  0
  9 17  1  0
 10 11  1  0
  9 10  1  1
 11 12  2  0
 12 13  1  0
 14 13  2  0
 15 14  1  0
 16 15  2  0
 16 11  1  0
 17 18  2  0
 20 19  1  1
 20 22  1  0
 21 20  1  0
 22 24  1  0
 23 17  1  0
 22 23  1  6
 24 25  2  0
 24 26  1  0
M  END
$$$$
