VFV.pdb
     RDKit          3D

 26 26  0  0  1  0  0  0  0  0999 V2000
    8.5920  -19.9579   19.9249 C   0  0  0  0  0  0  0  0  0  0  0  0
    8.9516  -19.0298   21.0598 C   0  0  1  0  0  0  0  0  0  0  0  0
   10.2969  -19.3049   21.6582 C   0  0  0  0  0  0  0  0  0  0  0  0
    8.6885  -17.5842   20.7435 C   0  0  2  0  0  0  0  0  0  0  0  0
    9.5589  -17.2314   19.6430 N   0  0  0  0  0  0  0  0  0  0  0  0
    8.8472  -16.6432   21.8312 C   0  0  0  0  0  0  0  0  0  0  0  0
   10.0153  -16.1767   22.0566 O   0  0  0  0  0  0  0  0  0  0  0  0
    7.8357  -16.1612   22.7028 N   0  0  0  0  0  0  0  0  0  0  0  0
    8.1360  -15.2480   23.7795 C   0  0  1  0  0  0  0  0  0  0  0  0
    6.8535  -14.4706   24.0514 C   0  0  0  0  0  0  0  0  0  0  0  0
    6.9767  -13.5543   25.2105 C   0  0  0  0  0  0  0  0  0  0  0  0
    6.4279  -13.9074   26.4246 C   0  0  0  0  0  0  0  0  0  0  0  0
    6.5478  -13.0547   27.5008 C   0  0  0  0  0  0  0  0  0  0  0  0
    7.2025  -11.8668   27.3771 C   0  0  0  0  0  0  0  0  0  0  0  0
    7.7655  -11.4862   26.1626 C   0  0  0  0  0  0  0  0  0  0  0  0
    7.6357  -12.3533   25.0952 C   0  0  0  0  0  0  0  0  0  0  0  0
    8.6465  -15.9493   24.9745 C   0  0  0  0  0  0  0  0  0  0  0  0
    8.0227  -16.8842   25.5426 O   0  0  0  0  0  0  0  0  0  0  0  0
   12.7429  -17.3419   27.3261 C   0  0  0  0  0  0  0  0  0  0  0  0
   12.0386  -16.5856   26.2260 C   0  0  1  0  0  0  0  0  0  0  0  0
   12.2980  -17.1788   24.8813 C   0  0  0  0  0  0  0  0  0  0  0  0
   10.5613  -16.3959   26.5276 C   0  0  2  0  0  0  0  0  0  0  0  0
    9.9012  -15.5852   25.5488 N   0  0  0  0  0  0  0  0  0  0  0  0
   10.4150  -15.8745   27.9038 C   0  0  0  0  0  0  0  0  0  0  0  0
   10.2278  -14.6517   28.0757 O   0  0  0  0  0  0  0  0  0  0  0  0
   10.4788  -16.6968   29.0077 O   0  0  0  0  0  0  0  0  0  0  0  0
  2  4  1  0
  2  1  1  6
  3  2  1  0
  4  6  1  0
  4  5  1  6
  6  7  2  0
  8  9  1  0
  8  6  1  0
  9 17  1  0
 10 11  1  0
  9 10  1  1
 11 12  2  0
 12 13  1  0
 14 13  2  0
 15 14  1  0
 16 15  2  0
 16 11  1  0
 17 18  2  0
 20 19  1  1
 20 22  1  0
 21 20  1  0
 22 24  1  0
 23 17  1  0
 22 23  1  6
 24 25  2  0
 24 26  1  0
M  END
$$$$
