VFV.pdb
     RDKit          3D

 26 26  0  0  1  0  0  0  0  0999 V2000
    9.0768  -19.0711   18.9604 C   0  0  0  0  0  0  0  0  0  0  0  0
    9.3320  -18.3668   20.2709 C   0  0  1  0  0  0  0  0  0  0  0  0
   10.3810  -19.0254   21.1132 C   0  0  0  0  0  0  0  0  0  0  0  0
    9.4909  -16.8800   20.1185 C   0  0  2  0  0  0  0  0  0  0  0  0
   10.7221  -16.6631   19.3905 N   0  0  0  0  0  0  0  0  0  0  0  0
    9.4831  -16.0989   21.3365 C   0  0  0  0  0  0  0  0  0  0  0  0
   10.6067  -15.8102   21.8724 O   0  0  0  0  0  0  0  0  0  0  0  0
    8.3484  -15.5998   22.0282 N   0  0  0  0  0  0  0  0  0  0  0  0
    8.4640  -14.9887   23.3307 C   0  0  1  0  0  0  0  0  0  0  0  0
    7.2974  -14.0152   23.4516 C   0  0  0  0  0  0  0  0  0  0  0  0
    7.2339  -13.3633   24.7817 C   0  0  0  0  0  0  0  0  0  0  0  0
    6.2820  -13.7618   25.6956 C   0  0  0  0  0  0  0  0  0  0  0  0
    6.2286  -13.1559   26.9323 C   0  0  0  0  0  0  0  0  0  0  0  0
    7.1061  -12.1676   27.2609 C   0  0  0  0  0  0  0  0  0  0  0  0
    8.0767  -11.7464   26.3568 C   0  0  0  0  0  0  0  0  0  0  0  0
    8.1154  -12.3649   25.1223 C   0  0  0  0  0  0  0  0  0  0  0  0
    8.4884  -15.9925   24.4133 C   0  0  0  0  0  0  0  0  0  0  0  0
    7.5100  -16.7383   24.6827 O   0  0  0  0  0  0  0  0  0  0  0  0
   10.8569  -18.8056   24.5494 C   0  0  0  0  0  0  0  0  0  0  0  0
   10.9749  -18.1202   25.8890 C   0  0  1  0  0  0  0  0  0  0  0  0
   12.2871  -17.4282   26.0523 C   0  0  0  0  0  0  0  0  0  0  0  0
    9.7804  -17.2242   26.1718 C   0  0  2  0  0  0  0  0  0  0  0  0
    9.6538  -16.1619   25.2196 N   0  0  0  0  0  0  0  0  0  0  0  0
    9.8610  -16.7426   27.5678 C   0  0  0  0  0  0  0  0  0  0  0  0
   10.0505  -15.5272   27.7833 O   0  0  0  0  0  0  0  0  0  0  0  0
    9.7333  -17.5944   28.6434 O   0  0  0  0  0  0  0  0  0  0  0  0
  2  4  1  0
  2  1  1  6
  3  2  1  0
  4  6  1  0
  4  5  1  1
  6  7  2  0
  8  9  1  0
  8  6  1  0
  9 17  1  0
 10 11  1  0
  9 10  1  1
 11 12  2  0
 12 13  1  0
 14 13  2  0
 15 14  1  0
 16 15  2  0
 16 11  1  0
 17 18  2  0
 20 19  1  6
 20 22  1  0
 21 20  1  0
 22 24  1  0
 23 17  1  0
 22 23  1  6
 24 25  2  0
 24 26  1  0
M  END
$$$$
