VFV.pdb
     RDKit          3D

 26 26  0  0  1  0  0  0  0  0999 V2000
    8.3056  -18.9479   18.7045 C   0  0  0  0  0  0  0  0  0  0  0  0
    8.6759  -18.3148   20.0238 C   0  0  1  0  0  0  0  0  0  0  0  0
    9.6820  -19.1012   20.8067 C   0  0  0  0  0  0  0  0  0  0  0  0
    8.9783  -16.8471   19.9078 C   0  0  2  0  0  0  0  0  0  0  0  0
   10.1913  -16.7300   19.1280 N   0  0  0  0  0  0  0  0  0  0  0  0
    9.1047  -16.1112   21.1471 C   0  0  0  0  0  0  0  0  0  0  0  0
   10.2754  -15.9500   21.6335 O   0  0  0  0  0  0  0  0  0  0  0  0
    8.0583  -15.5298   21.9101 N   0  0  0  0  0  0  0  0  0  0  0  0
    8.3063  -14.9207   23.1949 C   0  0  1  0  0  0  0  0  0  0  0  0
    7.1145  -14.0128   23.4753 C   0  0  0  0  0  0  0  0  0  0  0  0
    7.1781  -13.3860   24.8174 C   0  0  0  0  0  0  0  0  0  0  0  0
    6.3535  -13.8387   25.8249 C   0  0  0  0  0  0  0  0  0  0  0  0
    6.4182  -13.2560   27.0722 C   0  0  0  0  0  0  0  0  0  0  0  0
    7.2880  -12.2376   27.3197 C   0  0  0  0  0  0  0  0  0  0  0  0
    8.1313  -11.7616   26.3202 C   0  0  0  0  0  0  0  0  0  0  0  0
    8.0529  -12.3576   25.0765 C   0  0  0  0  0  0  0  0  0  0  0  0
    8.5221  -15.9277   24.2530 C   0  0  0  0  0  0  0  0  0  0  0  0
    7.6667  -16.8004   24.5573 O   0  0  0  0  0  0  0  0  0  0  0  0
   11.7849  -18.6674   26.6612 C   0  0  0  0  0  0  0  0  0  0  0  0
   11.4237  -17.6233   25.6327 C   0  0  1  0  0  0  0  0  0  0  0  0
   11.5713  -18.1339   24.2381 C   0  0  0  0  0  0  0  0  0  0  0  0
   10.0628  -17.0060   25.9090 C   0  0  2  0  0  0  0  0  0  0  0  0
    9.7421  -15.9526   24.9931 N   0  0  0  0  0  0  0  0  0  0  0  0
   10.0073  -16.5787   27.3238 C   0  0  0  0  0  0  0  0  0  0  0  0
   10.2056  -15.3785   27.6063 O   0  0  0  0  0  0  0  0  0  0  0  0
    9.7430  -17.4651   28.3452 O   0  0  0  0  0  0  0  0  0  0  0  0
  2  4  1  0
  2  1  1  6
  3  2  1  0
  4  6  1  0
  4  5  1  1
  6  7  2  0
  8  9  1  0
  8  6  1  0
  9 17  1  0
 10 11  1  0
  9 10  1  1
 11 12  2  0
 12 13  1  0
 14 13  2  0
 15 14  1  0
 16 15  2  0
 16 11  1  0
 17 18  2  0
 20 19  1  1
 20 22  1  0
 21 20  1  0
 22 24  1  0
 23 17  1  0
 22 23  1  6
 24 25  2  0
 24 26  1  0
M  END
$$$$
