VFV.pdb
     RDKit          3D

 26 26  0  0  1  0  0  0  0  0999 V2000
   11.1815  -19.9760   20.2237 C   0  0  0  0  0  0  0  0  0  0  0  0
   11.1309  -18.9391   21.3195 C   0  0  1  0  0  0  0  0  0  0  0  0
   12.3964  -18.8424   22.1148 C   0  0  0  0  0  0  0  0  0  0  0  0
   10.5776  -17.6204   20.8566 C   0  0  2  0  0  0  0  0  0  0  0  0
   11.5266  -17.0780   19.9088 N   0  0  0  0  0  0  0  0  0  0  0  0
   10.2801  -16.6456   21.8836 C   0  0  0  0  0  0  0  0  0  0  0  0
   11.2209  -15.8704   22.2669 O   0  0  0  0  0  0  0  0  0  0  0  0
    9.0362  -16.4391   22.5357 N   0  0  0  0  0  0  0  0  0  0  0  0
    8.8710  -15.4224   23.5468 C   0  0  1  0  0  0  0  0  0  0  0  0
    7.4070  -15.0011   23.4947 C   0  0  0  0  0  0  0  0  0  0  0  0
    7.0812  -13.9467   24.4848 C   0  0  0  0  0  0  0  0  0  0  0  0
    7.5261  -12.6575   24.2847 C   0  0  0  0  0  0  0  0  0  0  0  0
    7.2180  -11.6794   25.2054 C   0  0  0  0  0  0  0  0  0  0  0  0
    6.4788  -11.9732   26.3109 C   0  0  0  0  0  0  0  0  0  0  0  0
    6.0174  -13.2665   26.5369 C   0  0  0  0  0  0  0  0  0  0  0  0
    6.3356  -14.2338   25.6036 C   0  0  0  0  0  0  0  0  0  0  0  0
    9.2845  -15.8970   24.8824 C   0  0  0  0  0  0  0  0  0  0  0  0
    9.1217  -17.0835   25.2721 O   0  0  0  0  0  0  0  0  0  0  0  0
    9.6099  -13.3868   28.2309 C   0  0  0  0  0  0  0  0  0  0  0  0
   10.7899  -14.2956   27.9864 C   0  0  1  0  0  0  0  0  0  0  0  0
   11.4364  -14.7316   29.2589 C   0  0  0  0  0  0  0  0  0  0  0  0
   10.4322  -15.4495   27.0644 C   0  0  2  0  0  0  0  0  0  0  0  0
    9.9018  -15.0055   25.8103 N   0  0  0  0  0  0  0  0  0  0  0  0
    9.5262  -16.3735   27.7805 C   0  0  0  0  0  0  0  0  0  0  0  0
    8.3086  -16.3705   27.5029 O   0  0  0  0  0  0  0  0  0  0  0  0
    9.9832  -17.2415   28.7482 O   0  0  0  0  0  0  0  0  0  0  0  0
  2  4  1  0
  2  1  1  6
  3  2  1  0
  4  6  1  0
  4  5  1  6
  6  7  2  0
  8  9  1  0
  8  6  1  0
  9 17  1  0
 10 11  1  0
  9 10  1  1
 11 12  2  0
 12 13  1  0
 14 13  2  0
 15 14  1  0
 16 15  2  0
 16 11  1  0
 17 18  2  0
 20 19  1  1
 20 22  1  0
 21 20  1  0
 22 24  1  0
 23 17  1  0
 22 23  1  6
 24 25  2  0
 24 26  1  0
M  END
$$$$
