VFV.pdb
     RDKit          3D

 26 26  0  0  1  0  0  0  0  0999 V2000
    9.5596  -20.0040   20.1734 C   0  0  0  0  0  0  0  0  0  0  0  0
    9.7345  -19.0085   21.2946 C   0  0  1  0  0  0  0  0  0  0  0  0
   10.9969  -19.2005   22.0775 C   0  0  0  0  0  0  0  0  0  0  0  0
    9.4680  -17.5915   20.8701 C   0  0  2  0  0  0  0  0  0  0  0  0
   10.4923  -17.2425   19.9099 N   0  0  0  0  0  0  0  0  0  0  0  0
    9.4069  -16.6001   21.9223 C   0  0  0  0  0  0  0  0  0  0  0  0
   10.4997  -16.0549   22.2984 O   0  0  0  0  0  0  0  0  0  0  0  0
    8.2491  -16.1461   22.6068 N   0  0  0  0  0  0  0  0  0  0  0  0
    8.3386  -15.2431   23.7293 C   0  0  1  0  0  0  0  0  0  0  0  0
    6.9846  -14.5506   23.8303 C   0  0  0  0  0  0  0  0  0  0  0  0
    6.9168  -13.5921   24.9594 C   0  0  0  0  0  0  0  0  0  0  0  0
    6.2132  -13.9226   26.0977 C   0  0  0  0  0  0  0  0  0  0  0  0
    6.1557  -13.0306   27.1467 C   0  0  0  0  0  0  0  0  0  0  0  0
    6.7864  -11.8259   27.0704 C   0  0  0  0  0  0  0  0  0  0  0  0
    7.5034  -11.4674   25.9328 C   0  0  0  0  0  0  0  0  0  0  0  0
    7.5503  -12.3739   24.8915 C   0  0  0  0  0  0  0  0  0  0  0  0
    8.7202  -15.9416   24.9730 C   0  0  0  0  0  0  0  0  0  0  0  0
    8.1228  -16.9654   25.3985 O   0  0  0  0  0  0  0  0  0  0  0  0
   12.1255  -14.4990   27.2789 C   0  0  0  0  0  0  0  0  0  0  0  0
   11.8971  -15.9574   26.9639 C   0  0  1  0  0  0  0  0  0  0  0  0
   12.5794  -16.8566   27.9403 C   0  0  0  0  0  0  0  0  0  0  0  0
   10.4212  -16.2714   26.7831 C   0  0  2  0  0  0  0  0  0  0  0  0
    9.8110  -15.4712   25.7640 N   0  0  0  0  0  0  0  0  0  0  0  0
    9.7419  -16.1574   28.0918 C   0  0  0  0  0  0  0  0  0  0  0  0
    9.0604  -15.1403   28.3383 O   0  0  0  0  0  0  0  0  0  0  0  0
    9.8364  -17.1407   29.0525 O   0  0  0  0  0  0  0  0  0  0  0  0
  2  4  1  0
  2  1  1  6
  3  2  1  0
  4  6  1  0
  4  5  1  6
  6  7  2  0
  8  9  1  0
  8  6  1  0
  9 17  1  0
 10 11  1  0
  9 10  1  1
 11 12  2  0
 12 13  1  0
 14 13  2  0
 15 14  1  0
 16 15  2  0
 16 11  1  0
 17 18  2  0
 20 19  1  1
 20 22  1  0
 21 20  1  0
 22 24  1  0
 23 17  1  0
 22 23  1  6
 24 25  2  0
 24 26  1  0
M  END
$$$$
