VFV.pdb
     RDKit          3D

 26 26  0  0  1  0  0  0  0  0999 V2000
    9.2380  -21.1924   21.3127 C   0  0  0  0  0  0  0  0  0  0  0  0
    9.4996  -20.0071   22.2102 C   0  0  1  0  0  0  0  0  0  0  0  0
   10.9086  -19.9330   22.7128 C   0  0  0  0  0  0  0  0  0  0  0  0
    8.9625  -18.7182   21.6540 C   0  0  2  0  0  0  0  0  0  0  0  0
    9.6810  -18.4610   20.4249 N   0  0  0  0  0  0  0  0  0  0  0  0
    9.0227  -17.5624   22.5224 C   0  0  0  0  0  0  0  0  0  0  0  0
   10.0896  -16.8591   22.5137 O   0  0  0  0  0  0  0  0  0  0  0  0
    8.0133  -17.1010   23.4075 N   0  0  0  0  0  0  0  0  0  0  0  0
    8.2076  -15.9349   24.2355 C   0  0  1  0  0  0  0  0  0  0  0  0
    6.8529  -15.2416   24.3230 C   0  0  0  0  0  0  0  0  0  0  0  0
    6.8769  -14.0519   25.2074 C   0  0  0  0  0  0  0  0  0  0  0  0
    6.2265  -14.0878   26.4221 C   0  0  0  0  0  0  0  0  0  0  0  0
    6.2542  -12.9811   27.2432 C   0  0  0  0  0  0  0  0  0  0  0  0
    6.9172  -11.8525   26.8668 C   0  0  0  0  0  0  0  0  0  0  0  0
    7.5818  -11.7899   25.6457 C   0  0  0  0  0  0  0  0  0  0  0  0
    7.5435  -12.9084   24.8360 C   0  0  0  0  0  0  0  0  0  0  0  0
    8.7613  -16.2817   25.5597 C   0  0  0  0  0  0  0  0  0  0  0  0
    8.2577  -17.1610   26.3075 O   0  0  0  0  0  0  0  0  0  0  0  0
   12.8491  -15.7528   26.2221 C   0  0  0  0  0  0  0  0  0  0  0  0
   11.9675  -15.4141   27.3996 C   0  0  1  0  0  0  0  0  0  0  0  0
   11.9452  -13.9487   27.6815 C   0  0  0  0  0  0  0  0  0  0  0  0
   10.5823  -16.0237   27.2614 C   0  0  2  0  0  0  0  0  0  0  0  0
    9.9210  -15.6158   26.0583 N   0  0  0  0  0  0  0  0  0  0  0  0
    9.8013  -15.7229   28.4808 C   0  0  0  0  0  0  0  0  0  0  0  0
    8.8090  -14.9690   28.3986 O   0  0  0  0  0  0  0  0  0  0  0  0
   10.1338  -16.2492   29.7101 O   0  0  0  0  0  0  0  0  0  0  0  0
  2  4  1  0
  2  1  1  6
  3  2  1  0
  4  6  1  0
  4  5  1  6
  6  7  2  0
  8  9  1  0
  8  6  1  0
  9 17  1  0
 10 11  1  0
  9 10  1  1
 11 12  2  0
 12 13  1  0
 14 13  2  0
 15 14  1  0
 16 15  2  0
 16 11  1  0
 17 18  2  0
 20 19  1  6
 20 22  1  0
 21 20  1  0
 22 24  1  0
 23 17  1  0
 22 23  1  6
 24 25  2  0
 24 26  1  0
M  END
$$$$
