VFV.pdb
     RDKit          3D

 26 26  0  0  1  0  0  0  0  0999 V2000
    8.4586  -18.9751   19.2608 C   0  0  0  0  0  0  0  0  0  0  0  0
    8.8125  -18.3460   20.5865 C   0  0  1  0  0  0  0  0  0  0  0  0
    9.8134  -19.1316   21.3767 C   0  0  0  0  0  0  0  0  0  0  0  0
    9.1103  -16.8766   20.4795 C   0  0  2  0  0  0  0  0  0  0  0  0
   10.3333  -16.7518   19.7169 N   0  0  0  0  0  0  0  0  0  0  0  0
    9.2167  -16.1444   21.7230 C   0  0  0  0  0  0  0  0  0  0  0  0
   10.3818  -15.9621   22.2152 O   0  0  0  0  0  0  0  0  0  0  0  0
    8.1555  -15.5880   22.4842 N   0  0  0  0  0  0  0  0  0  0  0  0
    8.3884  -14.9643   23.7649 C   0  0  1  0  0  0  0  0  0  0  0  0
    7.1770  -14.0802   24.0369 C   0  0  0  0  0  0  0  0  0  0  0  0
    7.2395  -13.4186   25.3622 C   0  0  0  0  0  0  0  0  0  0  0  0
    8.3537  -13.5809   26.1573 C   0  0  0  0  0  0  0  0  0  0  0  0
    8.4097  -12.9612   27.3871 C   0  0  0  0  0  0  0  0  0  0  0  0
    7.3758  -12.1904   27.8251 C   0  0  0  0  0  0  0  0  0  0  0  0
    6.2394  -12.0102   27.0421 C   0  0  0  0  0  0  0  0  0  0  0  0
    6.2009  -12.6387   25.8126 C   0  0  0  0  0  0  0  0  0  0  0  0
    8.6240  -15.9588   24.8307 C   0  0  0  0  0  0  0  0  0  0  0  0
    7.7268  -16.7290   25.2639 O   0  0  0  0  0  0  0  0  0  0  0  0
   11.9570  -18.8725   26.9768 C   0  0  0  0  0  0  0  0  0  0  0  0
   11.5592  -17.8335   25.9567 C   0  0  1  0  0  0  0  0  0  0  0  0
   11.5919  -18.3714   24.5649 C   0  0  0  0  0  0  0  0  0  0  0  0
   10.2421  -17.1656   26.3152 C   0  0  2  0  0  0  0  0  0  0  0  0
    9.9133  -16.0900   25.4285 N   0  0  0  0  0  0  0  0  0  0  0  0
   10.2838  -16.7524   27.7346 C   0  0  0  0  0  0  0  0  0  0  0  0
   10.3617  -15.5376   28.0139 O   0  0  0  0  0  0  0  0  0  0  0  0
   10.2393  -17.6674   28.7639 O   0  0  0  0  0  0  0  0  0  0  0  0
  2  4  1  0
  2  1  1  6
  3  2  1  0
  4  6  1  0
  4  5  1  1
  6  7  2  0
  8  9  1  0
  8  6  1  0
  9 17  1  0
 10 11  1  0
  9 10  1  1
 11 12  2  0
 12 13  1  0
 14 13  2  0
 15 14  1  0
 16 15  2  0
 16 11  1  0
 17 18  2  0
 20 19  1  1
 20 22  1  0
 21 20  1  0
 22 24  1  0
 23 17  1  0
 22 23  1  6
 24 25  2  0
 24 26  1  0
M  END
$$$$
