VFV.pdb
     RDKit          3D

 26 26  0  0  1  0  0  0  0  0999 V2000
    6.3827  -16.0556   18.9592 C   0  0  0  0  0  0  0  0  0  0  0  0
    7.2301  -16.0511   20.2084 C   0  0  1  0  0  0  0  0  0  0  0  0
    8.6011  -16.6196   20.0069 C   0  0  0  0  0  0  0  0  0  0  0  0
    7.1958  -14.7374   20.9379 C   0  0  2  0  0  0  0  0  0  0  0  0
    7.7791  -13.7522   20.0535 N   0  0  0  0  0  0  0  0  0  0  0  0
    7.8428  -14.6970   22.2315 C   0  0  0  0  0  0  0  0  0  0  0  0
    9.0141  -14.1911   22.3020 O   0  0  0  0  0  0  0  0  0  0  0  0
    7.3209  -15.1636   23.4665 N   0  0  0  0  0  0  0  0  0  0  0  0
    8.1439  -15.2596   24.6483 C   0  0  1  0  0  0  0  0  0  0  0  0
    7.2158  -15.0323   25.8358 C   0  0  0  0  0  0  0  0  0  0  0  0
    6.9866  -13.5941   26.1137 C   0  0  0  0  0  0  0  0  0  0  0  0
    5.7244  -13.0602   25.9664 C   0  0  0  0  0  0  0  0  0  0  0  0
    5.5146  -11.7236   26.2294 C   0  0  0  0  0  0  0  0  0  0  0  0
    6.5413  -10.9249   26.6330 C   0  0  0  0  0  0  0  0  0  0  0  0
    7.8251  -11.4387   26.7895 C   0  0  0  0  0  0  0  0  0  0  0  0
    8.0167  -12.7802   26.5217 C   0  0  0  0  0  0  0  0  0  0  0  0
    8.8625  -16.5476   24.7198 C   0  0  0  0  0  0  0  0  0  0  0  0
    8.2862  -17.6634   24.6248 O   0  0  0  0  0  0  0  0  0  0  0  0
   13.1562  -18.9952   24.4477 C   0  0  0  0  0  0  0  0  0  0  0  0
   12.3708  -17.7141   24.3055 C   0  0  1  0  0  0  0  0  0  0  0  0
   12.2968  -17.2550   22.8874 C   0  0  0  0  0  0  0  0  0  0  0  0
   11.0132  -17.8062   24.9822 C   0  0  2  0  0  0  0  0  0  0  0  0
   10.2772  -16.5800   24.9045 N   0  0  0  0  0  0  0  0  0  0  0  0
   11.1994  -18.2817   26.3701 C   0  0  0  0  0  0  0  0  0  0  0  0
   10.9318  -17.5143   27.3185 O   0  0  0  0  0  0  0  0  0  0  0  0
   11.6606  -19.5490   26.6530 O   0  0  0  0  0  0  0  0  0  0  0  0
  2  4  1  0
  2  1  1  6
  3  2  1  0
  4  6  1  0
  4  5  1  6
  6  7  2  0
  8  9  1  0
  8  6  1  0
  9 17  1  0
 10 11  1  0
  9 10  1  1
 11 12  2  0
 12 13  1  0
 14 13  2  0
 15 14  1  0
 16 15  2  0
 16 11  1  0
 17 18  2  0
 20 19  1  6
 20 22  1  0
 21 20  1  0
 22 24  1  0
 23 17  1  0
 22 23  1  1
 24 25  2  0
 24 26  1  0
M  END
$$$$
