VFV.pdb
     RDKit          3D

 26 26  0  0  1  0  0  0  0  0999 V2000
    6.9461  -21.5403   21.7929 C   0  0  0  0  0  0  0  0  0  0  0  0
    7.5664  -20.3625   22.5048 C   0  0  1  0  0  0  0  0  0  0  0  0
    9.0633  -20.3497   22.4542 C   0  0  0  0  0  0  0  0  0  0  0  0
    6.9148  -19.0539   22.1551 C   0  0  2  0  0  0  0  0  0  0  0  0
    7.0638  -18.8808   20.7265 N   0  0  0  0  0  0  0  0  0  0  0  0
    7.3951  -17.8827   22.8559 C   0  0  0  0  0  0  0  0  0  0  0  0
    8.3980  -17.2594   22.3674 O   0  0  0  0  0  0  0  0  0  0  0  0
    6.8739  -17.3256   24.0531 N   0  0  0  0  0  0  0  0  0  0  0  0
    7.5118  -16.2095   24.7091 C   0  0  1  0  0  0  0  0  0  0  0  0
    6.4075  -15.4542   25.4394 C   0  0  0  0  0  0  0  0  0  0  0  0
    6.8929  -14.2040   26.0713 C   0  0  0  0  0  0  0  0  0  0  0  0
    6.7630  -13.0042   25.4053 C   0  0  0  0  0  0  0  0  0  0  0  0
    7.2121  -11.8435   25.9976 C   0  0  0  0  0  0  0  0  0  0  0  0
    7.7829  -11.8697   27.2339 C   0  0  0  0  0  0  0  0  0  0  0  0
    7.9261  -13.0675   27.9278 C   0  0  0  0  0  0  0  0  0  0  0  0
    7.4703  -14.2205   27.3189 C   0  0  0  0  0  0  0  0  0  0  0  0
    8.6009  -16.6433   25.6069 C   0  0  0  0  0  0  0  0  0  0  0  0
    8.4668  -17.5623   26.4575 O   0  0  0  0  0  0  0  0  0  0  0  0
   12.3576  -16.8724   24.1824 C   0  0  0  0  0  0  0  0  0  0  0  0
   12.3283  -16.2496   25.5569 C   0  0  1  0  0  0  0  0  0  0  0  0
   12.7025  -14.8051   25.5274 C   0  0  0  0  0  0  0  0  0  0  0  0
   11.0139  -16.5184   26.2706 C   0  0  2  0  0  0  0  0  0  0  0  0
    9.8838  -16.0212   25.5447 N   0  0  0  0  0  0  0  0  0  0  0  0
   11.0968  -15.9848   27.6474 C   0  0  0  0  0  0  0  0  0  0  0  0
   10.3339  -15.0567   27.9885 O   0  0  0  0  0  0  0  0  0  0  0  0
   11.9922  -16.4798   28.5705 O   0  0  0  0  0  0  0  0  0  0  0  0
  2  4  1  0
  2  1  1  6
  3  2  1  0
  4  6  1  0
  4  5  1  6
  6  7  2  0
  8  9  1  0
  8  6  1  0
  9 17  1  0
 10 11  1  0
  9 10  1  1
 11 12  2  0
 12 13  1  0
 14 13  2  0
 15 14  1  0
 16 15  2  0
 16 11  1  0
 17 18  2  0
 20 19  1  6
 20 22  1  0
 21 20  1  0
 22 24  1  0
 23 17  1  0
 22 23  1  6
 24 25  2  0
 24 26  1  0
M  END
$$$$
