VFV.pdb
     RDKit          3D

 26 26  0  0  1  0  0  0  0  0999 V2000
   11.2733  -19.6682   20.1849 C   0  0  0  0  0  0  0  0  0  0  0  0
   11.1906  -18.7259   21.3612 C   0  0  1  0  0  0  0  0  0  0  0  0
   12.3366  -18.8553   22.3169 C   0  0  0  0  0  0  0  0  0  0  0  0
   10.8614  -17.3146   20.9625 C   0  0  2  0  0  0  0  0  0  0  0  0
   12.0150  -16.7989   20.2579 N   0  0  0  0  0  0  0  0  0  0  0  0
   10.4783  -16.4127   22.0271 C   0  0  0  0  0  0  0  0  0  0  0  0
   11.3976  -15.7352   22.6006 O   0  0  0  0  0  0  0  0  0  0  0  0
    9.1696  -16.1816   22.5262 N   0  0  0  0  0  0  0  0  0  0  0  0
    8.9295  -15.2947   23.6393 C   0  0  1  0  0  0  0  0  0  0  0  0
    7.4909  -14.8110   23.4984 C   0  0  0  0  0  0  0  0  0  0  0  0
    7.1194  -13.8166   24.5334 C   0  0  0  0  0  0  0  0  0  0  0  0
    6.3841  -14.2114   25.6304 C   0  0  0  0  0  0  0  0  0  0  0  0
    6.0438  -13.2848   26.5923 C   0  0  0  0  0  0  0  0  0  0  0  0
    6.4263  -11.9834   26.4703 C   0  0  0  0  0  0  0  0  0  0  0  0
    7.1690  -11.5586   25.3727 C   0  0  0  0  0  0  0  0  0  0  0  0
    7.5010  -12.5009   24.4188 C   0  0  0  0  0  0  0  0  0  0  0  0
    9.1900  -15.9506   24.9364 C   0  0  0  0  0  0  0  0  0  0  0  0
    8.9717  -17.1731   25.1455 O   0  0  0  0  0  0  0  0  0  0  0  0
   11.8406  -13.9473   27.5589 C   0  0  0  0  0  0  0  0  0  0  0  0
   10.8032  -14.8342   28.2034 C   0  0  1  0  0  0  0  0  0  0  0  0
    9.7643  -14.0470   28.9303 C   0  0  0  0  0  0  0  0  0  0  0  0
   10.2228  -15.8334   27.2163 C   0  0  2  0  0  0  0  0  0  0  0  0
    9.7137  -15.2045   26.0345 N   0  0  0  0  0  0  0  0  0  0  0  0
    9.2141  -16.6632   27.9098 C   0  0  0  0  0  0  0  0  0  0  0  0
    8.0144  -16.5711   27.5750 O   0  0  0  0  0  0  0  0  0  0  0  0
    9.5555  -17.5387   28.9176 O   0  0  0  0  0  0  0  0  0  0  0  0
  2  4  1  0
  2  1  1  6
  3  2  1  0
  4  6  1  0
  4  5  1  1
  6  7  2  0
  8  9  1  0
  8  6  1  0
  9 17  1  0
 10 11  1  0
  9 10  1  1
 11 12  2  0
 12 13  1  0
 14 13  2  0
 15 14  1  0
 16 15  2  0
 16 11  1  0
 17 18  2  0
 20 19  1  6
 20 22  1  0
 21 20  1  0
 22 24  1  0
 23 17  1  0
 22 23  1  6
 24 25  2  0
 24 26  1  0
M  END
$$$$
