VFV.pdb
     RDKit          3D

 26 26  0  0  1  0  0  0  0  0999 V2000
    9.0029  -19.1142   19.4283 C   0  0  0  0  0  0  0  0  0  0  0  0
    9.3445  -18.4987   20.7636 C   0  0  1  0  0  0  0  0  0  0  0  0
   10.3521  -19.2827   21.5469 C   0  0  0  0  0  0  0  0  0  0  0  0
    9.6248  -17.0245   20.6775 C   0  0  2  0  0  0  0  0  0  0  0  0
   10.9073  -16.8798   20.0238 N   0  0  0  0  0  0  0  0  0  0  0  0
    9.6096  -16.2878   21.9228 C   0  0  0  0  0  0  0  0  0  0  0  0
   10.7199  -16.1121   22.5306 O   0  0  0  0  0  0  0  0  0  0  0  0
    8.4807  -15.7203   22.5699 N   0  0  0  0  0  0  0  0  0  0  0  0
    8.5896  -15.0794   23.8586 C   0  0  1  0  0  0  0  0  0  0  0  0
    7.3614  -14.1875   23.9980 C   0  0  0  0  0  0  0  0  0  0  0  0
    7.3380  -13.4454   25.2813 C   0  0  0  0  0  0  0  0  0  0  0  0
    6.1545  -12.9093   25.7415 C   0  0  0  0  0  0  0  0  0  0  0  0
    6.1360  -12.2233   26.9367 C   0  0  0  0  0  0  0  0  0  0  0  0
    7.2747  -12.0693   27.6677 C   0  0  0  0  0  0  0  0  0  0  0  0
    8.4828  -12.6005   27.2259 C   0  0  0  0  0  0  0  0  0  0  0  0
    8.4824  -13.2850   26.0260 C   0  0  0  0  0  0  0  0  0  0  0  0
    8.7148  -16.0595   24.9559 C   0  0  0  0  0  0  0  0  0  0  0  0
    7.7705  -16.8087   25.3205 O   0  0  0  0  0  0  0  0  0  0  0  0
   11.1510  -18.8764   25.0567 C   0  0  0  0  0  0  0  0  0  0  0  0
   11.3467  -18.1009   26.3367 C   0  0  1  0  0  0  0  0  0  0  0  0
   12.6454  -17.3658   26.3553 C   0  0  0  0  0  0  0  0  0  0  0  0
   10.1493  -17.2195   26.6514 C   0  0  2  0  0  0  0  0  0  0  0  0
    9.9445  -16.2003   25.6663 N   0  0  0  0  0  0  0  0  0  0  0  0
   10.2970  -16.6792   28.0201 C   0  0  0  0  0  0  0  0  0  0  0  0
   10.3108  -17.4677   28.9886 O   0  0  0  0  0  0  0  0  0  0  0  0
   10.4205  -15.3286   28.2634 O   0  0  0  0  0  0  0  0  0  0  0  0
  2  4  1  0
  2  1  1  6
  3  2  1  0
  4  6  1  0
  4  5  1  1
  6  7  2  0
  8  9  1  0
  8  6  1  0
  9 17  1  0
 10 11  1  0
  9 10  1  1
 11 12  2  0
 12 13  1  0
 14 13  2  0
 15 14  1  0
 16 15  2  0
 16 11  1  0
 17 18  2  0
 20 19  1  6
 20 22  1  0
 21 20  1  0
 22 24  1  0
 23 17  1  0
 22 23  1  6
 24 25  2  0
 24 26  1  0
M  END
$$$$
