KYE.pdb
     RDKit          3D

 31 31  0  0  1  0  0  0  0  0999 V2000
   28.8340  -22.8338  -17.2078 N   0  0  0  0  0  0  0  0  0  0  0  0
   28.2745  -21.5262  -16.9416 C   0  0  1  0  0  0  0  0  0  0  0  0
   27.6128  -21.0381  -18.2246 C   0  0  0  0  0  0  0  0  0  0  0  0
   27.8393  -22.0670  -19.3092 C   0  0  0  0  0  0  0  0  0  0  0  0
   27.2754  -21.6480  -20.6275 C   0  0  0  0  0  0  0  0  0  0  0  0
   27.4468  -22.6707  -21.7066 C   0  0  0  0  0  0  0  0  0  0  0  0
   26.9305  -22.0757  -22.9443 N   0  0  0  0  0  0  0  0  0  0  0  0
   27.2823  -21.6637  -15.8480 C   0  0  0  0  0  0  0  0  0  0  0  0
   26.5454  -22.6824  -15.8072 O   0  0  0  0  0  0  0  0  0  0  0  0
   23.0804  -20.9805   -8.1165 O   0  0  0  0  0  0  0  0  0  0  0  0
   23.9285  -20.7428   -9.2062 C   0  0  0  0  0  0  0  0  0  0  0  0
   25.2186  -21.2253   -9.2284 C   0  0  0  0  0  0  0  0  0  0  0  0
   26.0603  -20.9902  -10.3083 C   0  0  0  0  0  0  0  0  0  0  0  0
   25.6514  -20.2667  -11.4066 C   0  0  0  0  0  0  0  0  0  0  0  0
   26.5163  -19.9913  -12.5839 C   0  0  0  0  0  0  0  0  0  0  0  0
   26.1814  -20.8871  -13.7645 C   0  0  2  0  0  0  0  0  0  0  0  0
   27.1434  -20.6665  -14.8395 N   0  0  0  0  0  0  0  0  0  0  0  0
   24.8013  -20.6644  -14.2541 C   0  0  0  0  0  0  0  0  0  0  0  0
   24.5048  -19.7099  -14.9869 O   0  0  0  0  0  0  0  0  0  0  0  0
   24.3446  -19.7851  -11.3702 C   0  0  0  0  0  0  0  0  0  0  0  0
   23.5091  -20.0174  -10.3003 C   0  0  0  0  0  0  0  0  0  0  0  0
   23.7933  -21.5858  -13.8651 N   0  0  0  0  0  0  0  0  0  0  0  0
   22.4294  -21.3913  -14.2963 C   0  0  1  0  0  0  0  0  0  0  0  0
   21.7638  -22.7471  -14.5135 C   0  0  0  0  0  0  0  0  0  0  0  0
   20.4093  -22.4908  -15.0901 C   0  0  0  0  0  0  0  0  0  0  0  0
   19.6427  -23.7326  -15.3297 C   0  0  0  0  0  0  0  0  0  0  0  0
   18.4937  -23.7147  -15.7969 O   0  0  0  0  0  0  0  0  0  0  0  0
   21.5827  -20.6711  -13.3316 C   0  0  0  0  0  0  0  0  0  0  0  0
   21.5636  -21.0930  -12.0175 O   0  0  0  0  0  0  0  0  0  0  0  0
   20.2313  -24.9451  -15.0210 O   0  0  0  0  0  0  0  0  0  0  0  0
   20.9009  -19.6964  -13.7191 O   0  0  0  0  0  0  0  0  0  0  0  0
  2  3  1  0
  2  1  1  6
  3  4  1  0
  4  5  1  0
  5  6  1  0
  6  7  1  0
  8  2  1  0
  8  9  2  0
 10 11  1  0
 11 21  2  0
 12 13  2  0
 12 11  1  0
 13 14  1  0
 14 15  1  0
 14 20  2  0
 16 15  1  1
 16 18  1  0
 16 17  1  0
 17  8  1  0
 18 19  2  0
 21 20  1  0
 22 23  1  0
 22 18  1  0
 23 24  1  1
 24 25  1  0
 25 26  1  0
 26 27  2  0
 28 29  1  0
 28 23  1  0
 30 26  1  0
 31 28  2  0
M  END
$$$$
