KYE.pdb
     RDKit          3D

 31 31  0  0  1  0  0  0  0  0999 V2000
   20.0624  -16.3778  -17.6332 N   0  0  0  0  0  0  0  0  0  0  0  0
   20.0333  -15.0941  -18.3003 C   0  0  1  0  0  0  0  0  0  0  0  0
   18.5983  -14.5833  -18.2543 C   0  0  0  0  0  0  0  0  0  0  0  0
   17.7065  -15.5766  -18.9644 C   0  0  0  0  0  0  0  0  0  0  0  0
   16.2836  -15.1272  -19.0327 C   0  0  0  0  0  0  0  0  0  0  0  0
   15.3949  -16.0598  -19.7946 C   0  0  0  0  0  0  0  0  0  0  0  0
   14.0329  -15.5226  -19.7018 N   0  0  0  0  0  0  0  0  0  0  0  0
   20.9493  -14.1787  -17.5776 C   0  0  0  0  0  0  0  0  0  0  0  0
   20.9428  -14.1648  -16.3197 O   0  0  0  0  0  0  0  0  0  0  0  0
   28.0436   -9.3150  -15.5503 O   0  0  0  0  0  0  0  0  0  0  0  0
   27.1016  -10.1541  -16.1601 C   0  0  0  0  0  0  0  0  0  0  0  0
   26.7317  -11.3511  -15.5875 C   0  0  0  0  0  0  0  0  0  0  0  0
   25.7978  -12.1838  -16.1914 C   0  0  0  0  0  0  0  0  0  0  0  0
   25.1967  -11.8580  -17.3869 C   0  0  0  0  0  0  0  0  0  0  0  0
   24.1926  -12.7165  -18.0684 C   0  0  0  0  0  0  0  0  0  0  0  0
   22.7944  -12.5215  -17.5067 C   0  0  2  0  0  0  0  0  0  0  0  0
   21.8392  -13.3122  -18.2762 N   0  0  0  0  0  0  0  0  0  0  0  0
   22.3952  -11.0952  -17.4992 C   0  0  0  0  0  0  0  0  0  0  0  0
   22.0602  -10.4960  -18.5309 O   0  0  0  0  0  0  0  0  0  0  0  0
   25.5805  -10.6447  -17.9542 C   0  0  0  0  0  0  0  0  0  0  0  0
   26.5061   -9.8183  -17.3567 C   0  0  0  0  0  0  0  0  0  0  0  0
   22.3981  -10.4031  -16.2592 N   0  0  0  0  0  0  0  0  0  0  0  0
   22.0656   -8.9991  -16.2131 C   0  0  1  0  0  0  0  0  0  0  0  0
   21.0740   -8.7456  -15.0814 C   0  0  0  0  0  0  0  0  0  0  0  0
   20.6599   -7.3123  -15.1650 C   0  0  0  0  0  0  0  0  0  0  0  0
   19.6798   -6.9359  -14.1234 C   0  0  0  0  0  0  0  0  0  0  0  0
   19.3187   -7.7322  -13.2435 O   0  0  0  0  0  0  0  0  0  0  0  0
   23.2108   -8.1103  -15.9587 C   0  0  0  0  0  0  0  0  0  0  0  0
   23.2190   -6.8543  -16.5312 O   0  0  0  0  0  0  0  0  0  0  0  0
   19.1552   -5.6567  -14.1380 O   0  0  0  0  0  0  0  0  0  0  0  0
   24.1490   -8.5081  -15.2330 O   0  0  0  0  0  0  0  0  0  0  0  0
  2  3  1  0
  2  1  1  1
  3  4  1  0
  4  5  1  0
  5  6  1  0
  6  7  1  0
  8  2  1  0
  8  9  2  0
 10 11  1  0
 11 21  2  0
 12 13  2  0
 12 11  1  0
 13 14  1  0
 14 15  1  0
 14 20  2  0
 16 15  1  6
 16 18  1  0
 16 17  1  0
 17  8  1  0
 18 19  2  0
 21 20  1  0
 22 23  1  0
 22 18  1  0
 23 24  1  1
 24 25  1  0
 25 26  1  0
 26 27  2  0
 28 29  1  0
 28 23  1  0
 30 26  1  0
 31 28  2  0
M  END
$$$$
