KYE.pdb
     RDKit          3D

 31 31  0  0  1  0  0  0  0  0999 V2000
   27.6154  -23.5250  -17.8691 N   0  0  0  0  0  0  0  0  0  0  0  0
   27.5078  -22.1411  -17.4605 C   0  0  1  0  0  0  0  0  0  0  0  0
   26.6751  -21.4142  -18.5095 C   0  0  0  0  0  0  0  0  0  0  0  0
   27.5045  -21.2569  -19.7640 C   0  0  0  0  0  0  0  0  0  0  0  0
   28.7283  -20.4286  -19.5454 C   0  0  0  0  0  0  0  0  0  0  0  0
   29.5064  -20.1647  -20.7963 C   0  0  0  0  0  0  0  0  0  0  0  0
   30.7164  -19.4356  -20.4002 N   0  0  0  0  0  0  0  0  0  0  0  0
   26.8468  -22.1027  -16.1336 C   0  0  0  0  0  0  0  0  0  0  0  0
   25.8596  -22.8507  -15.9136 O   0  0  0  0  0  0  0  0  0  0  0  0
   24.6035  -20.0771   -7.7970 O   0  0  0  0  0  0  0  0  0  0  0  0
   25.2893  -20.1918   -9.0135 C   0  0  0  0  0  0  0  0  0  0  0  0
   25.9779  -21.3386   -9.3423 C   0  0  0  0  0  0  0  0  0  0  0  0
   26.6581  -21.4532  -10.5482 C   0  0  0  0  0  0  0  0  0  0  0  0
   26.6794  -20.4323  -11.4725 C   0  0  0  0  0  0  0  0  0  0  0  0
   27.3923  -20.5107  -12.7746 C   0  0  0  0  0  0  0  0  0  0  0  0
   26.5520  -21.1786  -13.8499 C   0  0  2  0  0  0  0  0  0  0  0  0
   27.3046  -21.2363  -15.0989 N   0  0  0  0  0  0  0  0  0  0  0  0
   25.2621  -20.4808  -14.0571 C   0  0  0  0  0  0  0  0  0  0  0  0
   25.1729  -19.4371  -14.7193 O   0  0  0  0  0  0  0  0  0  0  0  0
   25.9789  -19.2788  -11.1264 C   0  0  0  0  0  0  0  0  0  0  0  0
   25.3041  -19.1639   -9.9313 C   0  0  0  0  0  0  0  0  0  0  0  0
   24.0944  -21.0397  -13.4736 N   0  0  0  0  0  0  0  0  0  0  0  0
   22.8171  -20.3892  -13.6449 C   0  0  1  0  0  0  0  0  0  0  0  0
   22.2644  -20.7051  -15.0317 C   0  0  0  0  0  0  0  0  0  0  0  0
   20.9353  -20.0319  -15.1452 C   0  0  0  0  0  0  0  0  0  0  0  0
   20.2803  -20.2703  -16.4496 C   0  0  0  0  0  0  0  0  0  0  0  0
   19.2281  -20.9200  -16.5465 O   0  0  0  0  0  0  0  0  0  0  0  0
   21.7837  -20.8150  -12.6872 C   0  0  0  0  0  0  0  0  0  0  0  0
   21.9223  -22.0350  -12.0568 O   0  0  0  0  0  0  0  0  0  0  0  0
   20.8645  -19.7503  -17.5898 O   0  0  0  0  0  0  0  0  0  0  0  0
   20.8058  -20.0672  -12.4646 O   0  0  0  0  0  0  0  0  0  0  0  0
  2  3  1  0
  2  1  1  6
  3  4  1  0
  4  5  1  0
  5  6  1  0
  6  7  1  0
  8  2  1  0
  8  9  2  0
 10 11  1  0
 11 21  2  0
 12 13  2  0
 12 11  1  0
 13 14  1  0
 14 15  1  0
 14 20  2  0
 16 15  1  1
 16 18  1  0
 16 17  1  0
 17  8  1  0
 18 19  2  0
 21 20  1  0
 22 23  1  0
 22 18  1  0
 23 24  1  6
 24 25  1  0
 25 26  1  0
 26 27  2  0
 28 29  1  0
 28 23  1  0
 30 26  1  0
 31 28  2  0
M  END
$$$$
