KYE.pdb
     RDKit          3D

 31 31  0  0  1  0  0  0  0  0999 V2000
   24.6245  -11.0147  -20.7087 N   0  0  0  0  0  0  0  0  0  0  0  0
   24.6953   -9.5761  -20.5705 C   0  0  1  0  0  0  0  0  0  0  0  0
   23.7555   -8.9670  -21.6039 C   0  0  0  0  0  0  0  0  0  0  0  0
   23.1077  -10.0849  -22.3894 C   0  0  0  0  0  0  0  0  0  0  0  0
   21.6857   -9.7927  -22.7416 C   0  0  0  0  0  0  0  0  0  0  0  0
   21.0356  -10.8670  -23.5558 C   0  0  0  0  0  0  0  0  0  0  0  0
   20.0170  -11.4908  -22.7038 N   0  0  0  0  0  0  0  0  0  0  0  0
   24.2739   -9.2246  -19.1927 C   0  0  0  0  0  0  0  0  0  0  0  0
   23.6104  -10.0544  -18.5192 O   0  0  0  0  0  0  0  0  0  0  0  0
   28.4921  -12.4028  -15.9212 O   0  0  0  0  0  0  0  0  0  0  0  0
   27.7532  -11.2171  -16.0279 C   0  0  0  0  0  0  0  0  0  0  0  0
   26.6674  -10.9741  -15.2159 C   0  0  0  0  0  0  0  0  0  0  0  0
   25.9341   -9.7989  -15.3210 C   0  0  0  0  0  0  0  0  0  0  0  0
   26.2525   -8.8210  -16.2371 C   0  0  0  0  0  0  0  0  0  0  0  0
   25.4979   -7.5487  -16.3842 C   0  0  0  0  0  0  0  0  0  0  0  0
   24.2408   -7.7201  -17.2201 C   0  0  2  0  0  0  0  0  0  0  0  0
   24.6038   -7.9657  -18.6121 N   0  0  0  0  0  0  0  0  0  0  0  0
   23.3457   -6.5443  -17.1205 C   0  0  0  0  0  0  0  0  0  0  0  0
   23.5426   -5.5057  -17.7673 O   0  0  0  0  0  0  0  0  0  0  0  0
   27.3529   -9.0803  -17.0514 C   0  0  0  0  0  0  0  0  0  0  0  0
   28.0807  -10.2450  -16.9483 C   0  0  0  0  0  0  0  0  0  0  0  0
   22.2249   -6.6245  -16.2523 N   0  0  0  0  0  0  0  0  0  0  0  0
   21.2665   -5.5459  -16.2058 C   0  0  1  0  0  0  0  0  0  0  0  0
   19.8570   -6.1190  -16.0914 C   0  0  0  0  0  0  0  0  0  0  0  0
   18.9018   -4.9736  -16.1824 C   0  0  0  0  0  0  0  0  0  0  0  0
   17.4884   -5.3941  -16.0700 C   0  0  0  0  0  0  0  0  0  0  0  0
   17.1654   -6.5863  -15.9570 O   0  0  0  0  0  0  0  0  0  0  0  0
   21.4305   -4.6347  -15.0617 C   0  0  0  0  0  0  0  0  0  0  0  0
   21.2078   -3.2853  -15.2479 O   0  0  0  0  0  0  0  0  0  0  0  0
   16.5041   -4.4232  -16.0926 O   0  0  0  0  0  0  0  0  0  0  0  0
   21.7666   -5.0982  -13.9494 O   0  0  0  0  0  0  0  0  0  0  0  0
  2  3  1  0
  2  1  1  1
  3  4  1  0
  4  5  1  0
  5  6  1  0
  6  7  1  0
  8  2  1  0
  8  9  2  0
 10 11  1  0
 11 21  2  0
 12 13  2  0
 12 11  1  0
 13 14  1  0
 14 15  1  0
 14 20  2  0
 16 15  1  1
 16 18  1  0
 16 17  1  0
 17  8  1  0
 18 19  2  0
 21 20  1  0
 22 23  1  0
 22 18  1  0
 23 24  1  1
 24 25  1  0
 25 26  1  0
 26 27  2  0
 28 29  1  0
 28 23  1  0
 30 26  1  0
 31 28  2  0
M  END
$$$$
