KYE.pdb
     RDKit          3D

 31 31  0  0  1  0  0  0  0  0999 V2000
   28.7710  -22.8778  -17.9286 N   0  0  0  0  0  0  0  0  0  0  0  0
   28.3102  -21.5705  -17.5135 C   0  0  1  0  0  0  0  0  0  0  0  0
   27.4432  -21.0101  -18.6343 C   0  0  0  0  0  0  0  0  0  0  0  0
   28.2738  -20.9269  -19.8951 C   0  0  0  0  0  0  0  0  0  0  0  0
   29.3192  -19.8619  -19.8270 C   0  0  0  0  0  0  0  0  0  0  0  0
   30.0612  -19.6655  -21.1117 C   0  0  0  0  0  0  0  0  0  0  0  0
   31.0957  -18.6568  -20.8571 N   0  0  0  0  0  0  0  0  0  0  0  0
   27.5282  -21.7333  -16.2640 C   0  0  0  0  0  0  0  0  0  0  0  0
   26.7764  -22.7332  -16.1318 O   0  0  0  0  0  0  0  0  0  0  0  0
   24.0423  -20.6823   -8.1936 O   0  0  0  0  0  0  0  0  0  0  0  0
   24.8302  -20.5414   -9.3436 C   0  0  0  0  0  0  0  0  0  0  0  0
   25.9541  -21.3131   -9.5408 C   0  0  0  0  0  0  0  0  0  0  0  0
   26.7361  -21.1741  -10.6807 C   0  0  0  0  0  0  0  0  0  0  0  0
   26.4303  -20.2631  -11.6673 C   0  0  0  0  0  0  0  0  0  0  0  0
   27.2364  -20.0807  -12.9028 C   0  0  0  0  0  0  0  0  0  0  0  0
   26.7393  -20.9489  -14.0463 C   0  0  2  0  0  0  0  0  0  0  0  0
   27.6083  -20.7812  -15.2066 N   0  0  0  0  0  0  0  0  0  0  0  0
   25.3355  -20.6410  -14.4048 C   0  0  0  0  0  0  0  0  0  0  0  0
   25.0267  -19.6461  -15.0760 O   0  0  0  0  0  0  0  0  0  0  0  0
   25.2911  -19.4897  -11.4543 C   0  0  0  0  0  0  0  0  0  0  0  0
   24.5151  -19.6264  -10.3247 C   0  0  0  0  0  0  0  0  0  0  0  0
   24.3186  -21.5267  -13.9600 N   0  0  0  0  0  0  0  0  0  0  0  0
   22.9382  -21.2712  -14.2962 C   0  0  1  0  0  0  0  0  0  0  0  0
   22.2206  -22.5937  -14.5498 C   0  0  0  0  0  0  0  0  0  0  0  0
   20.8536  -22.2683  -15.0577 C   0  0  0  0  0  0  0  0  0  0  0  0
   20.0706  -23.4721  -15.4114 C   0  0  0  0  0  0  0  0  0  0  0  0
   20.6109  -24.5700  -15.6147 O   0  0  0  0  0  0  0  0  0  0  0  0
   22.1716  -20.5866  -13.2427 C   0  0  0  0  0  0  0  0  0  0  0  0
   21.2440  -19.6319  -13.6078 O   0  0  0  0  0  0  0  0  0  0  0  0
   18.6963  -23.3619  -15.5165 O   0  0  0  0  0  0  0  0  0  0  0  0
   22.3745  -20.8815  -12.0440 O   0  0  0  0  0  0  0  0  0  0  0  0
  2  3  1  0
  2  1  1  6
  3  4  1  0
  4  5  1  0
  5  6  1  0
  6  7  1  0
  8  2  1  0
  8  9  2  0
 10 11  1  0
 11 21  2  0
 12 13  2  0
 12 11  1  0
 13 14  1  0
 14 15  1  0
 14 20  2  0
 16 15  1  1
 16 18  1  0
 16 17  1  0
 17  8  1  0
 18 19  2  0
 21 20  1  0
 22 23  1  0
 22 18  1  0
 23 24  1  1
 24 25  1  0
 25 26  1  0
 26 27  2  0
 28 29  1  0
 28 23  1  0
 30 26  1  0
 31 28  2  0
M  END
$$$$
