KYE.pdb
     RDKit          3D

 31 31  0  0  1  0  0  0  0  0999 V2000
   18.9227  -10.3136  -16.8619 N   0  0  0  0  0  0  0  0  0  0  0  0
   18.9024   -9.0023  -17.4734 C   0  0  1  0  0  0  0  0  0  0  0  0
   17.5935   -8.8729  -18.2429 C   0  0  0  0  0  0  0  0  0  0  0  0
   17.1540  -10.2495  -18.6881 C   0  0  0  0  0  0  0  0  0  0  0  0
   17.2599  -10.4381  -20.1661 C   0  0  0  0  0  0  0  0  0  0  0  0
   16.7179  -11.7484  -20.6449 C   0  0  0  0  0  0  0  0  0  0  0  0
   15.2555  -11.6309  -20.6447 N   0  0  0  0  0  0  0  0  0  0  0  0
   18.9895   -7.9893  -16.3939 C   0  0  0  0  0  0  0  0  0  0  0  0
   18.3773   -8.1850  -15.3124 O   0  0  0  0  0  0  0  0  0  0  0  0
   23.1809  -10.3615  -12.2639 O   0  0  0  0  0  0  0  0  0  0  0  0
   22.7052   -9.2190  -12.9209 C   0  0  0  0  0  0  0  0  0  0  0  0
   21.8806   -8.3177  -12.2844 C   0  0  0  0  0  0  0  0  0  0  0  0
   21.4085   -7.1846  -12.9349 C   0  0  0  0  0  0  0  0  0  0  0  0
   21.7382   -6.9048  -14.2426 C   0  0  0  0  0  0  0  0  0  0  0  0
   21.2578   -5.7055  -14.9778 C   0  0  0  0  0  0  0  0  0  0  0  0
   19.8182   -5.8539  -15.4404 C   0  0  2  0  0  0  0  0  0  0  0  0
   19.7523   -6.7961  -16.5528 N   0  0  0  0  0  0  0  0  0  0  0  0
   19.2257   -4.5537  -15.8304 C   0  0  0  0  0  0  0  0  0  0  0  0
   19.4611   -4.0202  -16.9239 O   0  0  0  0  0  0  0  0  0  0  0  0
   22.5726   -7.8250  -14.8736 C   0  0  0  0  0  0  0  0  0  0  0  0
   23.0414   -8.9487  -14.2298 C   0  0  0  0  0  0  0  0  0  0  0  0
   18.3570   -3.9083  -14.9109 N   0  0  0  0  0  0  0  0  0  0  0  0
   17.6976   -2.6781  -15.2794 C   0  0  1  0  0  0  0  0  0  0  0  0
   16.5247   -2.4246  -14.3370 C   0  0  0  0  0  0  0  0  0  0  0  0
   15.8039   -1.2155  -14.8383 C   0  0  0  0  0  0  0  0  0  0  0  0
   14.3341   -1.3788  -14.8310 C   0  0  0  0  0  0  0  0  0  0  0  0
   13.7905   -2.4100  -14.4070 O   0  0  0  0  0  0  0  0  0  0  0  0
   18.5515   -1.4819  -15.1990 C   0  0  0  0  0  0  0  0  0  0  0  0
   18.5441   -0.5866  -16.2495 O   0  0  0  0  0  0  0  0  0  0  0  0
   13.5500   -0.3469  -15.3129 O   0  0  0  0  0  0  0  0  0  0  0  0
   19.2631   -1.3011  -14.1861 O   0  0  0  0  0  0  0  0  0  0  0  0
  2  3  1  0
  2  1  1  1
  3  4  1  0
  4  5  1  0
  5  6  1  0
  6  7  1  0
  8  2  1  0
  8  9  2  0
 10 11  1  0
 11 21  2  0
 12 13  2  0
 12 11  1  0
 13 14  1  0
 14 15  1  0
 14 20  2  0
 16 15  1  6
 16 18  1  0
 16 17  1  0
 17  8  1  0
 18 19  2  0
 21 20  1  0
 22 23  1  0
 22 18  1  0
 23 24  1  1
 24 25  1  0
 25 26  1  0
 26 27  2  0
 28 29  1  0
 28 23  1  0
 30 26  1  0
 31 28  2  0
M  END
$$$$
