KYE.pdb
     RDKit          3D

 31 31  0  0  1  0  0  0  0  0999 V2000
   34.8290  -26.7198  -17.7249 N   0  0  0  0  0  0  0  0  0  0  0  0
   33.5581  -27.3914  -17.5589 C   0  0  1  0  0  0  0  0  0  0  0  0
   33.7673  -28.5377  -16.5768 C   0  0  0  0  0  0  0  0  0  0  0  0
   34.6748  -29.5646  -17.2158 C   0  0  0  0  0  0  0  0  0  0  0  0
   34.9611  -30.7208  -16.3143 C   0  0  0  0  0  0  0  0  0  0  0  0
   35.9368  -31.7011  -16.8860 C   0  0  0  0  0  0  0  0  0  0  0  0
   36.1821  -32.7118  -15.8512 N   0  0  0  0  0  0  0  0  0  0  0  0
   32.5826  -26.4071  -17.0306 C   0  0  0  0  0  0  0  0  0  0  0  0
   31.4622  -26.8067  -16.6214 O   0  0  0  0  0  0  0  0  0  0  0  0
   34.9695  -24.4028  -10.7495 O   0  0  0  0  0  0  0  0  0  0  0  0
   34.3933  -24.0473  -11.9763 C   0  0  0  0  0  0  0  0  0  0  0  0
   35.0006  -24.3640  -13.1715 C   0  0  0  0  0  0  0  0  0  0  0  0
   34.4302  -24.0120  -14.3883 C   0  0  0  0  0  0  0  0  0  0  0  0
   33.2348  -23.3321  -14.4629 C   0  0  0  0  0  0  0  0  0  0  0  0
   32.5873  -22.9362  -15.7411 C   0  0  0  0  0  0  0  0  0  0  0  0
   31.8908  -24.1045  -16.4180 C   0  0  2  0  0  0  0  0  0  0  0  0
   32.8852  -25.0157  -16.9755 N   0  0  0  0  0  0  0  0  0  0  0  0
   30.9550  -23.6542  -17.4741 C   0  0  0  0  0  0  0  0  0  0  0  0
   31.2814  -23.5990  -18.6683 O   0  0  0  0  0  0  0  0  0  0  0  0
   32.6321  -23.0186  -13.2465 C   0  0  0  0  0  0  0  0  0  0  0  0
   33.1965  -23.3670  -12.0395 C   0  0  0  0  0  0  0  0  0  0  0  0
   29.6402  -23.2784  -17.0913 N   0  0  0  0  0  0  0  0  0  0  0  0
   28.7100  -22.7893  -18.0810 C   0  0  1  0  0  0  0  0  0  0  0  0
   28.3140  -23.9274  -19.0169 C   0  0  0  0  0  0  0  0  0  0  0  0
   27.7705  -25.0319  -18.1699 C   0  0  0  0  0  0  0  0  0  0  0  0
   27.1582  -26.1178  -18.9655 C   0  0  0  0  0  0  0  0  0  0  0  0
   27.0534  -27.2735  -18.5272 O   0  0  0  0  0  0  0  0  0  0  0  0
   27.4531  -22.2609  -17.5265 C   0  0  0  0  0  0  0  0  0  0  0  0
   26.5492  -21.6609  -18.3798 O   0  0  0  0  0  0  0  0  0  0  0  0
   26.6915  -25.8280  -20.2343 O   0  0  0  0  0  0  0  0  0  0  0  0
   27.2299  -22.3653  -16.3001 O   0  0  0  0  0  0  0  0  0  0  0  0
  2  3  1  0
  2  1  1  1
  3  4  1  0
  4  5  1  0
  5  6  1  0
  6  7  1  0
  8  2  1  0
  8  9  2  0
 10 11  1  0
 11 21  2  0
 12 13  2  0
 12 11  1  0
 13 14  1  0
 14 15  1  0
 14 20  2  0
 16 15  1  6
 16 18  1  0
 16 17  1  0
 17  8  1  0
 18 19  2  0
 21 20  1  0
 22 23  1  0
 22 18  1  0
 23 24  1  6
 24 25  1  0
 25 26  1  0
 26 27  2  0
 28 29  1  0
 28 23  1  0
 30 26  1  0
 31 28  2  0
M  END
$$$$
