KYE.pdb
     RDKit          3D

 31 31  0  0  1  0  0  0  0  0999 V2000
   22.5825  -22.1043  -12.5447 N   0  0  0  0  0  0  0  0  0  0  0  0
   22.7757  -20.6789  -12.7023 C   0  0  1  0  0  0  0  0  0  0  0  0
   21.8890  -19.9780  -11.6802 C   0  0  0  0  0  0  0  0  0  0  0  0
   20.4421  -20.2476  -12.0268 C   0  0  0  0  0  0  0  0  0  0  0  0
   20.1990  -21.6682  -12.4200 C   0  0  0  0  0  0  0  0  0  0  0  0
   18.7792  -21.9521  -12.7986 C   0  0  0  0  0  0  0  0  0  0  0  0
   18.6939  -23.3879  -13.0882 N   0  0  0  0  0  0  0  0  0  0  0  0
   24.2079  -20.3788  -12.4617 C   0  0  0  0  0  0  0  0  0  0  0  0
   24.6041  -19.1855  -12.5024 O   0  0  0  0  0  0  0  0  0  0  0  0
   26.7062  -19.0849   -5.9390 O   0  0  0  0  0  0  0  0  0  0  0  0
   26.8334  -19.7616   -7.1593 C   0  0  0  0  0  0  0  0  0  0  0  0
   28.0691  -20.0994   -7.6656 C   0  0  0  0  0  0  0  0  0  0  0  0
   28.1964  -20.7703   -8.8754 C   0  0  0  0  0  0  0  0  0  0  0  0
   27.1002  -21.1307   -9.6274 C   0  0  0  0  0  0  0  0  0  0  0  0
   27.1883  -21.8494  -10.9256 C   0  0  0  0  0  0  0  0  0  0  0  0
   26.5596  -21.0612  -12.0622 C   0  0  2  0  0  0  0  0  0  0  0  0
   25.1485  -21.4129  -12.1847 N   0  0  0  0  0  0  0  0  0  0  0  0
   27.2608  -21.2882  -13.3470 C   0  0  0  0  0  0  0  0  0  0  0  0
   27.8833  -22.3328  -13.5859 O   0  0  0  0  0  0  0  0  0  0  0  0
   25.8573  -20.7826   -9.1030 C   0  0  0  0  0  0  0  0  0  0  0  0
   25.7297  -20.1174   -7.9038 C   0  0  0  0  0  0  0  0  0  0  0  0
   27.2072  -20.2663  -14.3315 N   0  0  0  0  0  0  0  0  0  0  0  0
   27.2840  -20.6060  -15.7324 C   0  0  1  0  0  0  0  0  0  0  0  0
   26.1496  -21.5620  -16.0896 C   0  0  0  0  0  0  0  0  0  0  0  0
   26.2422  -21.8349  -17.5557 C   0  0  0  0  0  0  0  0  0  0  0  0
   25.1398  -22.6865  -18.0523 C   0  0  0  0  0  0  0  0  0  0  0  0
   24.0544  -22.2088  -18.4162 O   0  0  0  0  0  0  0  0  0  0  0  0
   27.1532  -19.4587  -16.6451 C   0  0  0  0  0  0  0  0  0  0  0  0
   27.9053  -19.4393  -17.8023 O   0  0  0  0  0  0  0  0  0  0  0  0
   25.3327  -24.0544  -18.1092 O   0  0  0  0  0  0  0  0  0  0  0  0
   26.3676  -18.5291  -16.3560 O   0  0  0  0  0  0  0  0  0  0  0  0
  2  3  1  0
  2  1  1  1
  3  4  1  0
  4  5  1  0
  5  6  1  0
  6  7  1  0
  8  2  1  0
  8  9  2  0
 10 11  1  0
 11 21  2  0
 12 13  2  0
 12 11  1  0
 13 14  1  0
 14 15  1  0
 14 20  2  0
 16 15  1  1
 16 18  1  0
 16 17  1  0
 17  8  1  0
 18 19  2  0
 21 20  1  0
 22 23  1  0
 22 18  1  0
 23 24  1  6
 24 25  1  0
 25 26  1  0
 26 27  2  0
 28 29  1  0
 28 23  1  0
 30 26  1  0
 31 28  2  0
M  END
$$$$
