KYE.pdb
     RDKit          3D

 31 31  0  0  1  0  0  0  0  0999 V2000
   19.3312  -14.6054  -18.3313 N   0  0  0  0  0  0  0  0  0  0  0  0
   19.0357  -14.1165  -17.0019 C   0  0  1  0  0  0  0  0  0  0  0  0
   18.8322  -15.3278  -16.1000 C   0  0  0  0  0  0  0  0  0  0  0  0
   18.5426  -16.5337  -16.9649 C   0  0  0  0  0  0  0  0  0  0  0  0
   18.2057  -17.7492  -16.1645 C   0  0  0  0  0  0  0  0  0  0  0  0
   18.0405  -18.9860  -16.9910 C   0  0  0  0  0  0  0  0  0  0  0  0
   17.6545  -20.0638  -16.0735 N   0  0  0  0  0  0  0  0  0  0  0  0
   20.1855  -13.2984  -16.5459 C   0  0  0  0  0  0  0  0  0  0  0  0
   20.1447  -12.7531  -15.4129 O   0  0  0  0  0  0  0  0  0  0  0  0
   28.1788   -9.5742  -15.7905 O   0  0  0  0  0  0  0  0  0  0  0  0
   27.0976  -10.3739  -16.1837 C   0  0  0  0  0  0  0  0  0  0  0  0
   26.6325  -10.3629  -17.4802 C   0  0  0  0  0  0  0  0  0  0  0  0
   25.5605  -11.1554  -17.8710 C   0  0  0  0  0  0  0  0  0  0  0  0
   24.9106  -11.9888  -16.9878 C   0  0  0  0  0  0  0  0  0  0  0  0
   23.7612  -12.8543  -17.3612 C   0  0  0  0  0  0  0  0  0  0  0  0
   22.4399  -12.3073  -16.8481 C   0  0  2  0  0  0  0  0  0  0  0  0
   21.3386  -13.1148  -17.3628 N   0  0  0  0  0  0  0  0  0  0  0  0
   22.2507  -10.8846  -17.2140 C   0  0  0  0  0  0  0  0  0  0  0  0
   22.0202  -10.5252  -18.3774 O   0  0  0  0  0  0  0  0  0  0  0  0
   25.3917  -11.9895  -15.6803 C   0  0  0  0  0  0  0  0  0  0  0  0
   26.4543  -11.2043  -15.2916 C   0  0  0  0  0  0  0  0  0  0  0  0
   22.3360   -9.9091  -16.1855 N   0  0  0  0  0  0  0  0  0  0  0  0
   22.1023   -8.5169  -16.4871 C   0  0  1  0  0  0  0  0  0  0  0  0
   21.1954   -7.9083  -15.4216 C   0  0  0  0  0  0  0  0  0  0  0  0
   20.7980   -6.5491  -15.8984 C   0  0  0  0  0  0  0  0  0  0  0  0
   19.8077   -5.8970  -15.0145 C   0  0  0  0  0  0  0  0  0  0  0  0
   19.3955   -6.4396  -13.9780 O   0  0  0  0  0  0  0  0  0  0  0  0
   23.3175   -7.6868  -16.5111 C   0  0  0  0  0  0  0  0  0  0  0  0
   23.6292   -6.9958  -17.6645 O   0  0  0  0  0  0  0  0  0  0  0  0
   19.3321   -4.6458  -15.3611 O   0  0  0  0  0  0  0  0  0  0  0  0
   24.0398   -7.6241  -15.4916 O   0  0  0  0  0  0  0  0  0  0  0  0
  2  3  1  0
  2  1  1  6
  3  4  1  0
  4  5  1  0
  5  6  1  0
  6  7  1  0
  8  2  1  0
  8  9  2  0
 10 11  1  0
 11 21  2  0
 12 13  2  0
 12 11  1  0
 13 14  1  0
 14 15  1  0
 14 20  2  0
 16 15  1  6
 16 18  1  0
 16 17  1  0
 17  8  1  0
 18 19  2  0
 21 20  1  0
 22 23  1  0
 22 18  1  0
 23 24  1  1
 24 25  1  0
 25 26  1  0
 26 27  2  0
 28 29  1  0
 28 23  1  0
 30 26  1  0
 31 28  2  0
M  END
$$$$
