KYE.pdb
     RDKit          3D

 31 31  0  0  1  0  0  0  0  0999 V2000
   28.7746  -23.8345  -17.3424 N   0  0  0  0  0  0  0  0  0  0  0  0
   28.7684  -22.4521  -16.9150 C   0  0  1  0  0  0  0  0  0  0  0  0
   28.2110  -21.6177  -18.0618 C   0  0  0  0  0  0  0  0  0  0  0  0
   29.1740  -21.6873  -19.2255 C   0  0  0  0  0  0  0  0  0  0  0  0
   28.7917  -20.7753  -20.3451 C   0  0  0  0  0  0  0  0  0  0  0  0
   29.7684  -20.7739  -21.4790 C   0  0  0  0  0  0  0  0  0  0  0  0
   29.2424  -19.8544  -22.4941 N   0  0  0  0  0  0  0  0  0  0  0  0
   27.9093  -22.3462  -15.7109 C   0  0  0  0  0  0  0  0  0  0  0  0
   27.0087  -23.2030  -15.5175 O   0  0  0  0  0  0  0  0  0  0  0  0
   24.6551  -20.1092   -7.7828 O   0  0  0  0  0  0  0  0  0  0  0  0
   25.4628  -20.2254   -8.9218 C   0  0  0  0  0  0  0  0  0  0  0  0
   26.3417  -21.2753   -9.0726 C   0  0  0  0  0  0  0  0  0  0  0  0
   27.1430  -21.3914  -10.2016 C   0  0  0  0  0  0  0  0  0  0  0  0
   27.1008  -20.4684  -11.2229 C   0  0  0  0  0  0  0  0  0  0  0  0
   27.9379  -20.5526  -12.4484 C   0  0  0  0  0  0  0  0  0  0  0  0
   27.2254  -21.2702  -13.5824 C   0  0  2  0  0  0  0  0  0  0  0  0
   28.0801  -21.2940  -14.7651 N   0  0  0  0  0  0  0  0  0  0  0  0
   25.9218  -20.6435  -13.9011 C   0  0  0  0  0  0  0  0  0  0  0  0
   25.8346  -19.5839  -14.5380 O   0  0  0  0  0  0  0  0  0  0  0  0
   26.2075  -19.4123  -11.0567 C   0  0  0  0  0  0  0  0  0  0  0  0
   25.4126  -19.2959   -9.9380 C   0  0  0  0  0  0  0  0  0  0  0  0
   24.7384  -21.2915  -13.4581 N   0  0  0  0  0  0  0  0  0  0  0  0
   23.4463  -20.7171  -13.7489 C   0  0  1  0  0  0  0  0  0  0  0  0
   22.6633  -21.6560  -14.6619 C   0  0  0  0  0  0  0  0  0  0  0  0
   21.3811  -20.9722  -15.0097 C   0  0  0  0  0  0  0  0  0  0  0  0
   20.5150  -21.7878  -15.8882 C   0  0  0  0  0  0  0  0  0  0  0  0
   20.8652  -22.9032  -16.3027 O   0  0  0  0  0  0  0  0  0  0  0  0
   22.5981  -20.4964  -12.5665 C   0  0  0  0  0  0  0  0  0  0  0  0
   21.6198  -19.5243  -12.6209 O   0  0  0  0  0  0  0  0  0  0  0  0
   19.2800  -21.2848  -16.2538 O   0  0  0  0  0  0  0  0  0  0  0  0
   22.7794  -21.1901  -11.5413 O   0  0  0  0  0  0  0  0  0  0  0  0
  2  3  1  0
  2  1  1  6
  3  4  1  0
  4  5  1  0
  5  6  1  0
  6  7  1  0
  8  2  1  0
  8  9  2  0
 10 11  1  0
 11 21  2  0
 12 13  2  0
 12 11  1  0
 13 14  1  0
 14 15  1  0
 14 20  2  0
 16 15  1  1
 16 18  1  0
 16 17  1  0
 17  8  1  0
 18 19  2  0
 21 20  1  0
 22 23  1  0
 22 18  1  0
 23 24  1  6
 24 25  1  0
 25 26  1  0
 26 27  2  0
 28 29  1  0
 28 23  1  0
 30 26  1  0
 31 28  2  0
M  END
$$$$
