KYE.pdb
     RDKit          3D

 31 31  0  0  1  0  0  0  0  0999 V2000
   28.6348  -21.4083  -17.5833 N   0  0  0  0  0  0  0  0  0  0  0  0
   28.1767  -22.7474  -17.2822 C   0  0  1  0  0  0  0  0  0  0  0  0
   29.4084  -23.6278  -17.1089 C   0  0  0  0  0  0  0  0  0  0  0  0
   30.2058  -23.6051  -18.3934 C   0  0  0  0  0  0  0  0  0  0  0  0
   31.4292  -24.4597  -18.3271 C   0  0  0  0  0  0  0  0  0  0  0  0
   32.3242  -24.3210  -19.5186 C   0  0  0  0  0  0  0  0  0  0  0  0
   33.5415  -25.0871  -19.2294 N   0  0  0  0  0  0  0  0  0  0  0  0
   27.3802  -22.6915  -16.0325 C   0  0  0  0  0  0  0  0  0  0  0  0
   26.9096  -23.7547  -15.5521 O   0  0  0  0  0  0  0  0  0  0  0  0
   24.0212  -20.5727   -8.1888 O   0  0  0  0  0  0  0  0  0  0  0  0
   24.6897  -20.5242   -9.4193 C   0  0  0  0  0  0  0  0  0  0  0  0
   24.1419  -19.8810  -10.5073 C   0  0  0  0  0  0  0  0  0  0  0  0
   24.8040  -19.8323  -11.7277 C   0  0  0  0  0  0  0  0  0  0  0  0
   26.0352  -20.4211  -11.9125 C   0  0  0  0  0  0  0  0  0  0  0  0
   26.7801  -20.3935  -13.1986 C   0  0  0  0  0  0  0  0  0  0  0  0
   26.3042  -21.4685  -14.1610 C   0  0  2  0  0  0  0  0  0  0  0  0
   27.1347  -21.4588  -15.3610 N   0  0  0  0  0  0  0  0  0  0  0  0
   24.8775  -21.2973  -14.5202 C   0  0  0  0  0  0  0  0  0  0  0  0
   24.4811  -20.3617  -15.2296 O   0  0  0  0  0  0  0  0  0  0  0  0
   26.5768  -21.0679  -10.8037 C   0  0  0  0  0  0  0  0  0  0  0  0
   25.9216  -21.1169   -9.5933 C   0  0  0  0  0  0  0  0  0  0  0  0
   23.9425  -22.2471  -14.0302 N   0  0  0  0  0  0  0  0  0  0  0  0
   22.5448  -22.1295  -14.3714 C   0  0  1  0  0  0  0  0  0  0  0  0
   21.8294  -23.4397  -14.0555 C   0  0  0  0  0  0  0  0  0  0  0  0
   20.4156  -23.2978  -14.5177 C   0  0  0  0  0  0  0  0  0  0  0  0
   19.6223  -24.5313  -14.3267 C   0  0  0  0  0  0  0  0  0  0  0  0
   20.1103  -25.5538  -13.8219 O   0  0  0  0  0  0  0  0  0  0  0  0
   21.8233  -21.0819  -13.6309 C   0  0  0  0  0  0  0  0  0  0  0  0
   20.8164  -20.3876  -14.2706 O   0  0  0  0  0  0  0  0  0  0  0  0
   18.2983  -24.5364  -14.7254 O   0  0  0  0  0  0  0  0  0  0  0  0
   22.1350  -20.8426  -12.4432 O   0  0  0  0  0  0  0  0  0  0  0  0
  2  3  1  0
  2  1  1  1
  3  4  1  0
  4  5  1  0
  5  6  1  0
  6  7  1  0
  8  2  1  0
  8  9  2  0
 10 11  1  0
 11 21  2  0
 12 13  2  0
 12 11  1  0
 13 14  1  0
 14 15  1  0
 14 20  2  0
 16 15  1  1
 16 18  1  0
 16 17  1  0
 17  8  1  0
 18 19  2  0
 21 20  1  0
 22 23  1  0
 22 18  1  0
 23 24  1  1
 24 25  1  0
 25 26  1  0
 26 27  2  0
 28 29  1  0
 28 23  1  0
 30 26  1  0
 31 28  2  0
M  END
$$$$
