KYE.pdb
     RDKit          3D

 31 31  0  0  1  0  0  0  0  0999 V2000
   23.2316  -10.9228    7.5120 N   0  0  0  0  0  0  0  0  0  0  0  0
   22.3251   -9.8282    7.2403 C   0  0  1  0  0  0  0  0  0  0  0  0
   20.9165  -10.3019    7.5770 C   0  0  0  0  0  0  0  0  0  0  0  0
   20.5524  -11.4396    6.6499 C   0  0  0  0  0  0  0  0  0  0  0  0
   19.1668  -11.9486    6.8790 C   0  0  0  0  0  0  0  0  0  0  0  0
   18.8146  -13.1329    6.0345 C   0  0  0  0  0  0  0  0  0  0  0  0
   17.4877  -13.5858    6.4668 N   0  0  0  0  0  0  0  0  0  0  0  0
   22.7204   -8.6806    8.0923 C   0  0  0  0  0  0  0  0  0  0  0  0
   22.1124   -7.5856    7.9744 O   0  0  0  0  0  0  0  0  0  0  0  0
   26.1111   -3.6850   14.5670 O   0  0  0  0  0  0  0  0  0  0  0  0
   25.7900   -4.7579   13.7250 C   0  0  0  0  0  0  0  0  0  0  0  0
   24.5106   -5.2650   13.6672 C   0  0  0  0  0  0  0  0  0  0  0  0
   24.1912   -6.3288   12.8327 C   0  0  0  0  0  0  0  0  0  0  0  0
   25.1314   -6.9284   12.0244 C   0  0  0  0  0  0  0  0  0  0  0  0
   24.8352   -8.0671   11.1159 C   0  0  0  0  0  0  0  0  0  0  0  0
   24.1059   -7.6242    9.8588 C   0  0  2  0  0  0  0  0  0  0  0  0
   23.7756   -8.7890    9.0440 N   0  0  0  0  0  0  0  0  0  0  0  0
   24.9000   -6.6529    9.0716 C   0  0  0  0  0  0  0  0  0  0  0  0
   25.7047   -7.0086    8.1989 O   0  0  0  0  0  0  0  0  0  0  0  0
   26.4208   -6.4051   12.0934 C   0  0  0  0  0  0  0  0  0  0  0  0
   26.7388   -5.3506   12.9202 C   0  0  0  0  0  0  0  0  0  0  0  0
   24.7210   -5.2689    9.3342 N   0  0  0  0  0  0  0  0  0  0  0  0
   25.4988   -4.2888    8.6142 C   0  0  1  0  0  0  0  0  0  0  0  0
   24.5633   -3.3256    7.8896 C   0  0  0  0  0  0  0  0  0  0  0  0
   25.4169   -2.3555    7.1394 C   0  0  0  0  0  0  0  0  0  0  0  0
   24.6269   -1.3464    6.4013 C   0  0  0  0  0  0  0  0  0  0  0  0
   23.4142   -1.4920    6.1853 O   0  0  0  0  0  0  0  0  0  0  0  0
   26.3646   -3.4552    9.4637 C   0  0  0  0  0  0  0  0  0  0  0  0
   27.3040   -2.6422    8.8622 O   0  0  0  0  0  0  0  0  0  0  0  0
   25.2666   -0.2099    5.9418 O   0  0  0  0  0  0  0  0  0  0  0  0
   26.2331   -3.4994   10.7070 O   0  0  0  0  0  0  0  0  0  0  0  0
  2  3  1  0
  2  1  1  1
  3  4  1  0
  4  5  1  0
  5  6  1  0
  6  7  1  0
  8  2  1  0
  8  9  2  0
 10 11  1  0
 11 21  2  0
 12 13  2  0
 12 11  1  0
 13 14  1  0
 14 15  1  0
 14 20  2  0
 16 15  1  1
 16 18  1  0
 16 17  1  0
 17  8  1  0
 18 19  2  0
 21 20  1  0
 22 23  1  0
 22 18  1  0
 23 24  1  1
 24 25  1  0
 25 26  1  0
 26 27  2  0
 28 29  1  0
 28 23  1  0
 30 26  1  0
 31 28  2  0
M  END
$$$$
