KYE.pdb
     RDKit          3D

 31 31  0  0  1  0  0  0  0  0999 V2000
   18.4280  -12.4978  -15.2795 N   0  0  0  0  0  0  0  0  0  0  0  0
   17.7239  -11.2496  -15.4792 C   0  0  1  0  0  0  0  0  0  0  0  0
   16.2759  -11.4645  -15.0558 C   0  0  0  0  0  0  0  0  0  0  0  0
   15.5568  -12.2192  -16.1511 C   0  0  0  0  0  0  0  0  0  0  0  0
   14.3473  -11.4978  -16.6494 C   0  0  0  0  0  0  0  0  0  0  0  0
   13.6210  -12.2237  -17.7382 C   0  0  0  0  0  0  0  0  0  0  0  0
   12.4661  -11.3967  -18.1056 N   0  0  0  0  0  0  0  0  0  0  0  0
   18.3767  -10.2136  -14.6427 C   0  0  0  0  0  0  0  0  0  0  0  0
   18.6937  -10.4872  -13.4565 O   0  0  0  0  0  0  0  0  0  0  0  0
   24.5097  -11.3699  -15.5606 O   0  0  0  0  0  0  0  0  0  0  0  0
   23.5292  -10.3866  -15.3737 C   0  0  0  0  0  0  0  0  0  0  0  0
   23.2366   -9.8960  -14.1202 C   0  0  0  0  0  0  0  0  0  0  0  0
   22.2646   -8.9210  -13.9338 C   0  0  0  0  0  0  0  0  0  0  0  0
   21.5470   -8.3971  -14.9862 C   0  0  0  0  0  0  0  0  0  0  0  0
   20.4997   -7.3533  -14.8344 C   0  0  0  0  0  0  0  0  0  0  0  0
   19.2134   -7.9112  -14.2491 C   0  0  2  0  0  0  0  0  0  0  0  0
   18.6541   -8.9119  -15.1522 N   0  0  0  0  0  0  0  0  0  0  0  0
   18.2197   -6.8460  -13.9812 C   0  0  0  0  0  0  0  0  0  0  0  0
   17.5057   -6.3671  -14.8736 O   0  0  0  0  0  0  0  0  0  0  0  0
   21.8536   -8.9027  -16.2478 C   0  0  0  0  0  0  0  0  0  0  0  0
   22.8170   -9.8692  -16.4340 C   0  0  0  0  0  0  0  0  0  0  0  0
   18.0891   -6.3681  -12.6504 N   0  0  0  0  0  0  0  0  0  0  0  0
   17.2649   -5.2160  -12.3725 C   0  0  1  0  0  0  0  0  0  0  0  0
   17.0917   -5.0631  -10.8642 C   0  0  0  0  0  0  0  0  0  0  0  0
   16.2308   -6.1919  -10.3982 C   0  0  0  0  0  0  0  0  0  0  0  0
   16.0295   -6.1939   -8.9330 C   0  0  0  0  0  0  0  0  0  0  0  0
   14.9510   -6.5277   -8.4192 O   0  0  0  0  0  0  0  0  0  0  0  0
   17.8212   -3.9400  -12.8507 C   0  0  0  0  0  0  0  0  0  0  0  0
   19.0993   -3.9242  -13.3714 O   0  0  0  0  0  0  0  0  0  0  0  0
   17.0796   -5.8109   -8.1191 O   0  0  0  0  0  0  0  0  0  0  0  0
   17.1288   -2.9007  -12.7762 O   0  0  0  0  0  0  0  0  0  0  0  0
  2  3  1  0
  2  1  1  1
  3  4  1  0
  4  5  1  0
  5  6  1  0
  6  7  1  0
  8  2  1  0
  8  9  2  0
 10 11  1  0
 11 21  2  0
 12 13  2  0
 12 11  1  0
 13 14  1  0
 14 15  1  0
 14 20  2  0
 16 15  1  6
 16 18  1  0
 16 17  1  0
 17  8  1  0
 18 19  2  0
 21 20  1  0
 22 23  1  0
 22 18  1  0
 23 24  1  1
 24 25  1  0
 25 26  1  0
 26 27  2  0
 28 29  1  0
 28 23  1  0
 30 26  1  0
 31 28  2  0
M  END
$$$$
