ICA.pdb
     RDKit          3D

 20 19  0  0  1  0  0  0  0  0999 V2000
   22.3729  -11.3793  -23.1681 C   0  0  0  0  0  0  0  0  0  0  0  0
   22.9757  -10.6194  -22.0376 C   0  0  0  0  0  0  0  0  0  0  0  0
   22.0029   -9.9546  -21.1097 C   0  0  2  0  0  0  0  0  0  0  0  0
   20.9856   -9.1998  -21.9242 C   0  0  0  0  0  0  0  0  0  0  0  0
   22.5497   -9.2737  -19.9269 C   0  0  2  0  0  0  0  0  0  0  0  0
   23.4958  -10.1938  -19.2501 N   0  0  0  0  0  0  0  0  0  0  0  0
   21.6469   -8.7352  -18.9299 C   0  0  0  0  0  0  0  0  0  0  0  0
   20.6902   -7.9611  -19.1913 O   0  0  0  0  0  0  0  0  0  0  0  0
   21.8205   -9.0801  -17.5614 N   0  0  0  0  0  0  0  0  0  0  0  0
   20.9149   -8.4838  -16.5570 C   0  0  1  0  0  0  0  0  0  0  0  0
   20.4776   -9.6643  -15.7103 C   0  0  0  0  0  0  0  0  0  0  0  0
   19.7652   -9.2177  -14.1347 S   0  0  0  0  0  0  0  0  0  0  0  0
   21.6349   -7.4464  -15.7976 C   0  0  0  0  0  0  0  0  0  0  0  0
   22.8051   -7.6130  -15.3483 O   0  0  0  0  0  0  0  0  0  0  0  0
   20.9332   -3.8414  -14.9939 C   0  0  0  0  0  0  0  0  0  0  0  0
   21.7283   -5.1158  -14.8625 C   0  0  2  0  0  0  0  0  0  0  0  0
   21.0196   -6.1963  -15.5429 N   0  0  0  0  0  0  0  0  0  0  0  0
   21.9868   -5.4781  -13.4409 C   0  0  0  0  0  0  0  0  0  0  0  0
   22.8187   -4.7826  -12.8037 O   0  0  0  0  0  0  0  0  0  0  0  0
   21.3645   -6.5271  -12.7991 O   0  0  0  0  0  0  0  0  0  0  0  0
  1  2  1  0
  2  3  1  0
  3  4  1  6
  5  7  1  0
  5  3  1  0
  5  6  1  1
  7  8  2  0
  7  9  1  0
  9 10  1  0
 10 13  1  0
 11 12  1  0
 10 11  1  1
 13 14  2  0
 13 17  1  0
 16 15  1  1
 16 18  1  0
 17 16  1  0
 18 20  1  0
 19 18  2  0
M  END
$$$$
