ICA.pdb
     RDKit          3D

 20 19  0  0  1  0  0  0  0  0999 V2000
   15.8795  -14.6743  -12.6968 C   0  0  0  0  0  0  0  0  0  0  0  0
   15.1017  -13.4606  -12.3217 C   0  0  0  0  0  0  0  0  0  0  0  0
   15.9002  -12.3299  -11.7446 C   0  0  2  0  0  0  0  0  0  0  0  0
   16.8523  -12.8774  -10.7143 C   0  0  0  0  0  0  0  0  0  0  0  0
   15.1787  -11.0964  -11.3985 C   0  0  2  0  0  0  0  0  0  0  0  0
   14.4983  -10.5922  -12.6161 N   0  0  0  0  0  0  0  0  0  0  0  0
   15.8958   -9.9950  -10.7888 C   0  0  0  0  0  0  0  0  0  0  0  0
   16.4892  -10.0680   -9.6818 O   0  0  0  0  0  0  0  0  0  0  0  0
   15.9550   -8.7387  -11.4521 N   0  0  0  0  0  0  0  0  0  0  0  0
   16.6038   -7.6016  -10.7658 C   0  0  1  0  0  0  0  0  0  0  0  0
   17.4318   -6.9413  -11.8521 C   0  0  0  0  0  0  0  0  0  0  0  0
   18.8693   -7.8750  -12.3533 S   0  0  0  0  0  0  0  0  0  0  0  0
   15.5733   -6.7199  -10.1898 C   0  0  0  0  0  0  0  0  0  0  0  0
   14.5718   -6.3146  -10.8469 O   0  0  0  0  0  0  0  0  0  0  0  0
   14.7279   -5.5246   -6.7544 C   0  0  0  0  0  0  0  0  0  0  0  0
   14.7068   -5.3716   -8.2543 C   0  0  2  0  0  0  0  0  0  0  0  0
   15.6774   -6.2895   -8.8444 N   0  0  0  0  0  0  0  0  0  0  0  0
   14.9856   -3.9731   -8.6850 C   0  0  0  0  0  0  0  0  0  0  0  0
   16.1342   -3.7174   -9.1290 O   0  0  0  0  0  0  0  0  0  0  0  0
   14.0548   -2.9586   -8.6204 O   0  0  0  0  0  0  0  0  0  0  0  0
  1  2  1  0
  2  3  1  0
  3  4  1  1
  5  7  1  0
  5  3  1  0
  5  6  1  6
  7  8  2  0
  7  9  1  0
  9 10  1  0
 10 13  1  0
 11 12  1  0
 10 11  1  6
 13 14  2  0
 13 17  1  0
 16 15  1  1
 16 18  1  0
 17 16  1  0
 18 20  1  0
 19 18  2  0
M  END
$$$$
