ICA.pdb
     RDKit          3D

 20 19  0  0  1  0  0  0  0  0999 V2000
   16.8287   -9.5850  -19.1141 C   0  0  0  0  0  0  0  0  0  0  0  0
   17.5744   -9.0568  -17.9377 C   0  0  0  0  0  0  0  0  0  0  0  0
   17.8188  -10.0375  -16.8297 C   0  0  2  0  0  0  0  0  0  0  0  0
   16.5840  -10.1267  -15.9722 C   0  0  0  0  0  0  0  0  0  0  0  0
   19.1118   -9.9667  -16.1332 C   0  0  2  0  0  0  0  0  0  0  0  0
   19.2746  -11.1951  -15.3181 N   0  0  0  0  0  0  0  0  0  0  0  0
   19.4125   -8.8225  -15.2970 C   0  0  0  0  0  0  0  0  0  0  0  0
   19.0040   -8.6877  -14.1147 O   0  0  0  0  0  0  0  0  0  0  0  0
   20.2158   -7.7667  -15.8087 N   0  0  0  0  0  0  0  0  0  0  0  0
   20.3820   -6.5420  -14.9979 C   0  0  1  0  0  0  0  0  0  0  0  0
   21.8362   -6.5816  -14.5671 C   0  0  0  0  0  0  0  0  0  0  0  0
   22.2349   -5.4836  -13.2162 S   0  0  0  0  0  0  0  0  0  0  0  0
   20.0382   -5.3618  -15.8104 C   0  0  0  0  0  0  0  0  0  0  0  0
   20.4839   -5.1805  -16.9798 O   0  0  0  0  0  0  0  0  0  0  0  0
   17.5423   -2.6028  -15.5704 C   0  0  0  0  0  0  0  0  0  0  0  0
   18.8697   -3.1483  -16.0332 C   0  0  2  0  0  0  0  0  0  0  0  0
   19.1727   -4.3686  -15.2903 N   0  0  0  0  0  0  0  0  0  0  0  0
   19.9730   -2.1592  -15.8804 C   0  0  0  0  0  0  0  0  0  0  0  0
   20.6984   -2.2481  -14.8569 O   0  0  0  0  0  0  0  0  0  0  0  0
   20.2328   -1.1634  -16.7972 O   0  0  0  0  0  0  0  0  0  0  0  0
  1  2  1  0
  2  3  1  0
  3  4  1  1
  5  7  1  0
  5  3  1  0
  5  6  1  1
  7  8  2  0
  7  9  1  0
  9 10  1  0
 10 13  1  0
 11 12  1  0
 10 11  1  6
 13 14  2  0
 13 17  1  0
 16 15  1  1
 16 18  1  0
 17 16  1  0
 18 20  1  0
 19 18  2  0
M  END
$$$$
