ICA.pdb
     RDKit          3D

 20 19  0  0  1  0  0  0  0  0999 V2000
   27.8896  -16.1588  -16.8650 C   0  0  0  0  0  0  0  0  0  0  0  0
   26.5144  -15.6020  -16.7318 C   0  0  0  0  0  0  0  0  0  0  0  0
   26.4301  -14.1941  -16.2220 C   0  0  2  0  0  0  0  0  0  0  0  0
   27.2764  -14.0696  -14.9826 C   0  0  0  0  0  0  0  0  0  0  0  0
   25.1032  -13.5615  -16.1909 C   0  0  2  0  0  0  0  0  0  0  0  0
   24.4965  -13.6749  -17.5396 N   0  0  0  0  0  0  0  0  0  0  0  0
   24.9754  -12.1879  -15.7484 C   0  0  0  0  0  0  0  0  0  0  0  0
   25.3976  -11.7624  -14.6423 O   0  0  0  0  0  0  0  0  0  0  0  0
   24.3399  -11.2326  -16.5883 N   0  0  0  0  0  0  0  0  0  0  0  0
   24.2361   -9.8335  -16.1229 C   0  0  1  0  0  0  0  0  0  0  0  0
   25.1770   -9.0718  -17.0373 C   0  0  0  0  0  0  0  0  0  0  0  0
   24.9911   -7.2968  -16.9729 S   0  0  0  0  0  0  0  0  0  0  0  0
   22.8348   -9.3866  -16.2119 C   0  0  0  0  0  0  0  0  0  0  0  0
   22.1077   -9.6058  -17.2230 O   0  0  0  0  0  0  0  0  0  0  0  0
   20.2836   -8.2971  -13.7712 C   0  0  0  0  0  0  0  0  0  0  0  0
   20.8474   -8.2563  -15.1692 C   0  0  2  0  0  0  0  0  0  0  0  0
   22.2448   -8.6792  -15.1359 N   0  0  0  0  0  0  0  0  0  0  0  0
   20.7272   -6.9073  -15.7893 C   0  0  0  0  0  0  0  0  0  0  0  0
   21.7861   -6.2551  -15.9770 O   0  0  0  0  0  0  0  0  0  0  0  0
   19.5244   -6.3472  -16.1624 O   0  0  0  0  0  0  0  0  0  0  0  0
  1  2  1  0
  2  3  1  0
  3  4  1  1
  5  7  1  0
  5  3  1  0
  5  6  1  6
  7  8  2  0
  7  9  1  0
  9 10  1  0
 10 13  1  0
 11 12  1  0
 10 11  1  6
 13 14  2  0
 13 17  1  0
 16 15  1  1
 16 18  1  0
 17 16  1  0
 18 20  1  0
 19 18  2  0
M  END
$$$$
