ICA.pdb
     RDKit          3D

 20 19  0  0  1  0  0  0  0  0999 V2000
   24.5660  -14.9362  -17.4132 C   0  0  0  0  0  0  0  0  0  0  0  0
   24.8712  -13.5481  -16.9672 C   0  0  0  0  0  0  0  0  0  0  0  0
   23.7434  -12.5662  -17.0816 C   0  0  2  0  0  0  0  0  0  0  0  0
   23.0665  -12.7496  -18.4143 C   0  0  0  0  0  0  0  0  0  0  0  0
   23.9988  -11.1851  -16.6468 C   0  0  2  0  0  0  0  0  0  0  0  0
   24.6296  -11.2236  -15.3050 N   0  0  0  0  0  0  0  0  0  0  0  0
   22.9073  -10.2332  -16.6093 C   0  0  0  0  0  0  0  0  0  0  0  0
   22.1442   -9.9984  -17.5816 O   0  0  0  0  0  0  0  0  0  0  0  0
   22.6514   -9.5001  -15.4181 N   0  0  0  0  0  0  0  0  0  0  0  0
   21.5574   -8.5061  -15.4156 C   0  0  1  0  0  0  0  0  0  0  0  0
   20.5547   -9.0663  -14.4245 C   0  0  0  0  0  0  0  0  0  0  0  0
   21.1607   -9.1816  -12.7484 S   0  0  0  0  0  0  0  0  0  0  0  0
   22.0908   -7.1863  -15.0347 C   0  0  0  0  0  0  0  0  0  0  0  0
   23.0614   -7.0428  -14.2371 O   0  0  0  0  0  0  0  0  0  0  0  0
   21.4040   -3.6567  -16.1330 C   0  0  0  0  0  0  0  0  0  0  0  0
   22.0094   -4.6806  -15.2063 C   0  0  2  0  0  0  0  0  0  0  0  0
   21.5156   -6.0067  -15.5674 N   0  0  0  0  0  0  0  0  0  0  0  0
   21.7194   -4.3902  -13.7743 C   0  0  0  0  0  0  0  0  0  0  0  0
   20.7471   -4.9859  -13.2436 O   0  0  0  0  0  0  0  0  0  0  0  0
   22.4579   -3.5099  -13.0131 O   0  0  0  0  0  0  0  0  0  0  0  0
  1  2  1  0
  2  3  1  0
  3  4  1  6
  5  7  1  0
  5  3  1  0
  5  6  1  1
  7  8  2  0
  7  9  1  0
  9 10  1  0
 10 13  1  0
 11 12  1  0
 10 11  1  1
 13 14  2  0
 13 17  1  0
 16 15  1  6
 16 18  1  0
 17 16  1  0
 18 20  1  0
 19 18  2  0
M  END
$$$$
