ICA.pdb
     RDKit          3D

 20 19  0  0  1  0  0  0  0  0999 V2000
   21.5211  -14.5822  -21.1880 C   0  0  0  0  0  0  0  0  0  0  0  0
   22.3378  -13.4479  -20.6728 C   0  0  0  0  0  0  0  0  0  0  0  0
   21.7482  -12.6949  -19.5176 C   0  0  2  0  0  0  0  0  0  0  0  0
   20.2910  -12.4342  -19.7944 C   0  0  0  0  0  0  0  0  0  0  0  0
   22.5319  -11.5820  -18.9616 C   0  0  2  0  0  0  0  0  0  0  0  0
   23.9031  -12.0694  -18.6752 N   0  0  0  0  0  0  0  0  0  0  0  0
   22.0455  -10.8783  -17.7922 C   0  0  0  0  0  0  0  0  0  0  0  0
   22.1186  -11.3273  -16.6193 O   0  0  0  0  0  0  0  0  0  0  0  0
   21.4426   -9.5989  -17.9391 N   0  0  0  0  0  0  0  0  0  0  0  0
   20.8926   -8.9299  -16.7414 C   0  0  1  0  0  0  0  0  0  0  0  0
   22.1104   -8.6685  -15.8752 C   0  0  0  0  0  0  0  0  0  0  0  0
   21.8366   -7.5013  -14.5515 S   0  0  0  0  0  0  0  0  0  0  0  0
   20.1797   -7.7048  -17.1441 C   0  0  0  0  0  0  0  0  0  0  0  0
   20.6853   -6.8387  -17.9144 O   0  0  0  0  0  0  0  0  0  0  0  0
   16.6641   -6.4987  -16.9405 C   0  0  0  0  0  0  0  0  0  0  0  0
   18.1469   -6.2337  -17.0099 C   0  0  2  0  0  0  0  0  0  0  0  0
   18.8696   -7.4555  -16.6671 N   0  0  0  0  0  0  0  0  0  0  0  0
   18.5647   -5.1154  -16.1191 C   0  0  0  0  0  0  0  0  0  0  0  0
   19.1791   -5.4100  -15.0620 O   0  0  0  0  0  0  0  0  0  0  0  0
   18.3125   -3.7889  -16.3959 O   0  0  0  0  0  0  0  0  0  0  0  0
  1  2  1  0
  2  3  1  0
  3  4  1  6
  5  7  1  0
  5  3  1  0
  5  6  1  1
  7  8  2  0
  7  9  1  0
  9 10  1  0
 10 13  1  0
 11 12  1  0
 10 11  1  1
 13 14  2  0
 13 17  1  0
 16 15  1  1
 16 18  1  0
 17 16  1  0
 18 20  1  0
 19 18  2  0
M  END
$$$$
