ICA.pdb
     RDKit          3D

 20 19  0  0  1  0  0  0  0  0999 V2000
   12.7216  -14.4894  -11.1075 C   0  0  0  0  0  0  0  0  0  0  0  0
   13.9254  -13.9194  -11.7745 C   0  0  0  0  0  0  0  0  0  0  0  0
   14.5584  -12.7490  -11.0826 C   0  0  2  0  0  0  0  0  0  0  0  0
   13.4788  -11.7927  -10.6491 C   0  0  0  0  0  0  0  0  0  0  0  0
   15.7600  -12.1656  -11.6971 C   0  0  2  0  0  0  0  0  0  0  0  0
   16.7085  -13.2624  -12.0088 N   0  0  0  0  0  0  0  0  0  0  0  0
   16.4844  -11.1213  -11.0016 C   0  0  0  0  0  0  0  0  0  0  0  0
   17.1296  -11.3014   -9.9367 O   0  0  0  0  0  0  0  0  0  0  0  0
   16.4900   -9.7988  -11.5240 N   0  0  0  0  0  0  0  0  0  0  0  0
   17.0730   -8.7137  -10.7070 C   0  0  1  0  0  0  0  0  0  0  0  0
   18.1826   -8.1546  -11.5777 C   0  0  0  0  0  0  0  0  0  0  0  0
   17.6815   -7.7565  -13.2450 S   0  0  0  0  0  0  0  0  0  0  0  0
   16.0280   -7.7289  -10.3765 C   0  0  0  0  0  0  0  0  0  0  0  0
   15.0603   -7.4702  -11.1483 O   0  0  0  0  0  0  0  0  0  0  0  0
   14.9056   -5.9456   -7.3279 C   0  0  0  0  0  0  0  0  0  0  0  0
   15.1096   -5.9816   -8.8215 C   0  0  2  0  0  0  0  0  0  0  0  0
   16.0782   -7.0244   -9.1488 N   0  0  0  0  0  0  0  0  0  0  0  0
   15.5566   -4.6682   -9.3639 C   0  0  0  0  0  0  0  0  0  0  0  0
   16.7646   -4.5545   -9.6949 O   0  0  0  0  0  0  0  0  0  0  0  0
   14.7183   -3.5851   -9.5182 O   0  0  0  0  0  0  0  0  0  0  0  0
  1  2  1  0
  2  3  1  0
  3  4  1  6
  5  7  1  0
  5  3  1  0
  5  6  1  1
  7  8  2  0
  7  9  1  0
  9 10  1  0
 10 13  1  0
 11 12  1  0
 10 11  1  6
 13 14  2  0
 13 17  1  0
 16 15  1  1
 16 18  1  0
 17 16  1  0
 18 20  1  0
 19 18  2  0
M  END
$$$$
