ICA.pdb
     RDKit          3D

 20 19  0  0  1  0  0  0  0  0999 V2000
   17.6987  -14.3519  -18.5679 C   0  0  0  0  0  0  0  0  0  0  0  0
   18.3565  -13.0374  -18.8092 C   0  0  0  0  0  0  0  0  0  0  0  0
   18.7524  -12.2738  -17.5807 C   0  0  2  0  0  0  0  0  0  0  0  0
   17.6056  -12.2860  -16.6047 C   0  0  0  0  0  0  0  0  0  0  0  0
   19.4526  -10.9952  -17.7722 C   0  0  2  0  0  0  0  0  0  0  0  0
   20.6766  -11.2445  -18.5719 N   0  0  0  0  0  0  0  0  0  0  0  0
   19.8175  -10.1992  -16.6179 C   0  0  0  0  0  0  0  0  0  0  0  0
   19.0346   -9.9341  -15.6695 O   0  0  0  0  0  0  0  0  0  0  0  0
   21.1324   -9.6677  -16.5149 N   0  0  0  0  0  0  0  0  0  0  0  0
   21.4694   -8.8242  -15.3488 C   0  0  1  0  0  0  0  0  0  0  0  0
   22.9001   -9.2073  -15.0200 C   0  0  0  0  0  0  0  0  0  0  0  0
   23.0583  -10.6855  -14.0303 S   0  0  0  0  0  0  0  0  0  0  0  0
   21.3046   -7.4035  -15.7035 C   0  0  0  0  0  0  0  0  0  0  0  0
   21.7159   -6.9169  -16.7958 O   0  0  0  0  0  0  0  0  0  0  0  0
   19.1241   -4.6826  -14.4490 C   0  0  0  0  0  0  0  0  0  0  0  0
   20.3698   -5.1329  -15.1695 C   0  0  2  0  0  0  0  0  0  0  0  0
   20.6611   -6.5169  -14.8057 N   0  0  0  0  0  0  0  0  0  0  0  0
   21.5409   -4.2607  -14.8753 C   0  0  0  0  0  0  0  0  0  0  0  0
   22.3183   -4.6189  -13.9538 O   0  0  0  0  0  0  0  0  0  0  0  0
   21.8092   -3.0935  -15.5576 O   0  0  0  0  0  0  0  0  0  0  0  0
  1  2  1  0
  2  3  1  0
  3  4  1  6
  5  7  1  0
  5  3  1  0
  5  6  1  1
  7  8  2  0
  7  9  1  0
  9 10  1  0
 10 13  1  0
 11 12  1  0
 10 11  1  6
 13 14  2  0
 13 17  1  0
 16 15  1  1
 16 18  1  0
 17 16  1  0
 18 20  1  0
 19 18  2  0
M  END
$$$$
