ICA.pdb
     RDKit          3D

 20 19  0  0  1  0  0  0  0  0999 V2000
   21.0860  -12.7193  -21.4352 C   0  0  0  0  0  0  0  0  0  0  0  0
   21.8419  -11.9500  -20.4077 C   0  0  0  0  0  0  0  0  0  0  0  0
   21.0449  -10.9423  -19.6341 C   0  0  2  0  0  0  0  0  0  0  0  0
   20.1971  -10.1475  -20.5918 C   0  0  0  0  0  0  0  0  0  0  0  0
   21.7406  -10.1926  -18.5777 C   0  0  2  0  0  0  0  0  0  0  0  0
   22.5907  -11.1370  -17.8128 N   0  0  0  0  0  0  0  0  0  0  0  0
   20.9726   -9.4054  -17.6346 C   0  0  0  0  0  0  0  0  0  0  0  0
   20.1273   -8.5352  -17.9677 O   0  0  0  0  0  0  0  0  0  0  0  0
   21.1576   -9.5999  -16.2382 N   0  0  0  0  0  0  0  0  0  0  0  0
   20.4129   -8.7391  -15.2951 C   0  0  1  0  0  0  0  0  0  0  0  0
   20.0559   -9.6704  -14.1519 C   0  0  0  0  0  0  0  0  0  0  0  0
   19.4306   -8.8450  -12.6968 S   0  0  0  0  0  0  0  0  0  0  0  0
   21.2596   -7.6033  -14.8898 C   0  0  0  0  0  0  0  0  0  0  0  0
   22.4862   -7.7280  -14.6084 O   0  0  0  0  0  0  0  0  0  0  0  0
   20.7675   -3.8841  -14.7186 C   0  0  0  0  0  0  0  0  0  0  0  0
   21.5108   -5.1538  -14.3884 C   0  0  2  0  0  0  0  0  0  0  0  0
   20.7084   -6.3016  -14.8024 N   0  0  0  0  0  0  0  0  0  0  0  0
   21.8499   -5.2516  -12.9412 C   0  0  0  0  0  0  0  0  0  0  0  0
   21.0896   -5.9355  -12.2089 O   0  0  0  0  0  0  0  0  0  0  0  0
   22.9445   -4.6352  -12.3741 O   0  0  0  0  0  0  0  0  0  0  0  0
  1  2  1  0
  2  3  1  0
  3  4  1  6
  5  7  1  0
  5  3  1  0
  5  6  1  1
  7  8  2  0
  7  9  1  0
  9 10  1  0
 10 13  1  0
 11 12  1  0
 10 11  1  1
 13 14  2  0
 13 17  1  0
 16 15  1  1
 16 18  1  0
 17 16  1  0
 18 20  1  0
 19 18  2  0
M  END
$$$$
