ICA.pdb
     RDKit          3D

 20 19  0  0  1  0  0  0  0  0999 V2000
   10.0973  -10.7987   -7.6110 C   0  0  0  0  0  0  0  0  0  0  0  0
   10.5236  -10.5489   -9.0162 C   0  0  0  0  0  0  0  0  0  0  0  0
   11.7661   -9.7256   -9.1816 C   0  0  2  0  0  0  0  0  0  0  0  0
   11.7075   -8.5538   -8.2374 C   0  0  0  0  0  0  0  0  0  0  0  0
   12.2248   -9.4564  -10.5523 C   0  0  2  0  0  0  0  0  0  0  0  0
   12.4581  -10.7532  -11.2333 N   0  0  0  0  0  0  0  0  0  0  0  0
   13.3845   -8.6148  -10.7666 C   0  0  0  0  0  0  0  0  0  0  0  0
   13.5614   -7.5033  -10.2044 O   0  0  0  0  0  0  0  0  0  0  0  0
   14.4071   -9.0372  -11.6599 N   0  0  0  0  0  0  0  0  0  0  0  0
   15.4997   -8.0967  -11.9863 C   0  0  1  0  0  0  0  0  0  0  0  0
   16.6152   -8.9917  -12.4928 C   0  0  0  0  0  0  0  0  0  0  0  0
   17.9862   -8.1156  -13.2291 S   0  0  0  0  0  0  0  0  0  0  0  0
   15.0279   -7.1190  -12.9826 C   0  0  0  0  0  0  0  0  0  0  0  0
   14.4264   -7.4556  -14.0428 O   0  0  0  0  0  0  0  0  0  0  0  0
   14.3782   -3.4995  -13.1201 C   0  0  0  0  0  0  0  0  0  0  0  0
   14.9002   -4.7438  -13.7931 C   0  0  2  0  0  0  0  0  0  0  0  0
   15.2397   -5.7340  -12.7748 N   0  0  0  0  0  0  0  0  0  0  0  0
   16.0783   -4.4663  -14.6614 C   0  0  0  0  0  0  0  0  0  0  0  0
   15.9464   -3.6009  -15.5645 O   0  0  0  0  0  0  0  0  0  0  0  0
   17.2914   -5.1058  -14.5230 O   0  0  0  0  0  0  0  0  0  0  0  0
  1  2  1  0
  2  3  1  0
  3  4  1  6
  5  7  1  0
  5  3  1  0
  5  6  1  1
  7  8  2  0
  7  9  1  0
  9 10  1  0
 10 13  1  0
 11 12  1  0
 10 11  1  6
 13 14  2  0
 13 17  1  0
 16 15  1  1
 16 18  1  0
 17 16  1  0
 18 20  1  0
 19 18  2  0
M  END
$$$$
