RAF.pdb
     RDKit          3D

 28 28  0  0  1  0  0  0  0  0999 V2000
   22.8230  -20.9351  -15.6071 N   0  0  0  0  0  0  0  0  0  0  0  0
   23.0882  -19.5587  -15.8446 C   0  0  0  0  0  0  0  0  0  0  0  0
   22.0834  -18.7533  -15.7853 N   0  0  0  0  0  0  0  0  0  0  0  0
   24.3937  -19.0739  -16.1356 N   0  0  0  0  0  0  0  0  0  0  0  0
   25.5439  -19.8473  -15.7216 C   0  0  0  0  0  0  0  0  0  0  0  0
   26.3252  -19.1429  -14.6327 C   0  0  0  0  0  0  0  0  0  0  0  0
   27.7660  -19.1418  -15.0060 C   0  0  0  0  0  0  0  0  0  0  0  0
   28.4148  -20.5011  -14.9077 C   0  0  2  0  0  0  0  0  0  0  0  0
   27.9889  -21.4098  -15.9239 N   0  0  0  0  0  0  0  0  0  0  0  0
   28.2531  -21.1191  -13.5867 C   0  0  0  0  0  0  0  0  0  0  0  0
   27.2132  -21.7295  -13.2487 O   0  0  0  0  0  0  0  0  0  0  0  0
   22.2156  -17.7305  -15.8944 C   0  0  0  0  0  0  0  0  0  0  0  0
   30.4777  -21.5588  -10.5349 C   0  0  1  0  0  0  0  0  0  0  0  0
   29.1634  -21.5836  -11.2838 N   0  0  0  0  0  0  0  0  0  0  0  0
   29.3038  -21.0364  -12.6334 C   0  0  0  0  0  0  0  0  0  0  0  0
   28.2278  -20.6787  -10.5550 O   0  0  0  0  0  0  0  0  0  0  0  0
   28.2329  -19.4575  -10.8472 N   0  0  0  0  0  0  0  0  0  0  0  0
   27.3453  -21.1320   -9.5603 C   0  0  1  0  0  0  0  0  0  0  0  0
   26.5446  -20.1756   -8.8401 C   0  0  0  0  0  0  0  0  0  0  0  0
   25.1032  -20.6127   -8.7540 C   0  0  0  0  0  0  0  0  0  0  0  0
   24.4930  -20.5642  -10.0774 C   0  0  0  0  0  0  0  0  0  0  0  0
   24.6411  -19.4480  -10.8596 C   0  0  0  0  0  0  0  0  0  0  0  0
   24.1002  -19.3641  -12.1411 C   0  0  0  0  0  0  0  0  0  0  0  0
   23.3936  -20.4633  -12.6131 C   0  0  0  0  0  0  0  0  0  0  0  0
   23.2267  -21.5973  -11.8551 C   0  0  0  0  0  0  0  0  0  0  0  0
   23.7904  -21.6303  -10.5742 C   0  0  0  0  0  0  0  0  0  0  0  0
   27.1525  -20.0276   -7.5036 O   0  0  0  0  0  0  0  0  0  0  0  0
   26.7819  -18.9990   -6.6521 O   0  0  0  0  0  0  0  0  0  0  0  0
  2  1  1  0
  2  4  1  0
  3  2  2  0
  4  5  1  0
  5  6  1  0
  6  7  1  0
  7  8  1  0
  8  9  1  6
 10  8  1  0
 11 10  2  0
 13 12  1  6
 13 15  1  0
 13 14  1  0
 14 10  1  0
 15 17  1  0
 16 15  2  0
 17 18  1  0
 18 26  1  0
 19 20  1  0
 18 19  1  1
 20 25  2  0
 21 22  2  0
 21 20  1  0
 22 23  1  0
 23 24  2  0
 25 24  1  0
 26 28  2  0
 26 27  1  0
M  END
$$$$
