RAF.pdb
     RDKit          3D

 28 28  0  0  1  0  0  0  0  0999 V2000
   27.6446  -29.7828  -18.8153 N   0  0  0  0  0  0  0  0  0  0  0  0
   28.7650  -30.1862  -18.0387 C   0  0  0  0  0  0  0  0  0  0  0  0
   29.0911  -31.4323  -18.0906 N   0  0  0  0  0  0  0  0  0  0  0  0
   29.5039  -29.2730  -17.2362 N   0  0  0  0  0  0  0  0  0  0  0  0
   29.0812  -27.8914  -17.1654 C   0  0  0  0  0  0  0  0  0  0  0  0
   27.8352  -27.7335  -16.3200 C   0  0  0  0  0  0  0  0  0  0  0  0
   27.7299  -26.3128  -15.8891 C   0  0  0  0  0  0  0  0  0  0  0  0
   27.8600  -25.3275  -17.0252 C   0  0  2  0  0  0  0  0  0  0  0  0
   29.1378  -24.6923  -17.0841 N   0  0  0  0  0  0  0  0  0  0  0  0
   26.7988  -24.3141  -17.0292 C   0  0  0  0  0  0  0  0  0  0  0  0
   26.9954  -23.1282  -16.6780 O   0  0  0  0  0  0  0  0  0  0  0  0
   29.9387  -31.7800  -17.6044 C   0  0  0  0  0  0  0  0  0  0  0  0
   23.6309  -23.8281  -18.8265 C   0  0  1  0  0  0  0  0  0  0  0  0
   24.4178  -23.6711  -17.5440 N   0  0  0  0  0  0  0  0  0  0  0  0
   25.4859  -24.6659  -17.4439 C   0  0  0  0  0  0  0  0  0  0  0  0
   23.4779  -23.9439  -16.4181 O   0  0  0  0  0  0  0  0  0  0  0  0
   23.4382  -25.1063  -15.9449 N   0  0  0  0  0  0  0  0  0  0  0  0
   22.6391  -22.9609  -15.8672 C   0  0  1  0  0  0  0  0  0  0  0  0
   21.8040  -23.2971  -14.7429 C   0  0  0  0  0  0  0  0  0  0  0  0
   22.1402  -22.4605  -13.5332 C   0  0  0  0  0  0  0  0  0  0  0  0
   22.0493  -21.0451  -13.8715 C   0  0  0  0  0  0  0  0  0  0  0  0
   23.1543  -20.3792  -14.3354 C   0  0  0  0  0  0  0  0  0  0  0  0
   23.1113  -19.0342  -14.6974 C   0  0  0  0  0  0  0  0  0  0  0  0
   21.8950  -18.3742  -14.5727 C   0  0  0  0  0  0  0  0  0  0  0  0
   20.7686  -19.0119  -14.1113 C   0  0  0  0  0  0  0  0  0  0  0  0
   20.8657  -20.3639  -13.7613 C   0  0  0  0  0  0  0  0  0  0  0  0
   20.4062  -23.1004  -15.1731 O   0  0  0  0  0  0  0  0  0  0  0  0
   19.3460  -23.5930  -14.4290 O   0  0  0  0  0  0  0  0  0  0  0  0
  2  1  1  0
  2  4  1  0
  3  2  2  0
  4  5  1  0
  5  6  1  0
  6  7  1  0
  7  8  1  0
  8  9  1  1
 10  8  1  0
 11 10  2  0
 13 12  1  6
 13 15  1  0
 13 14  1  0
 14 10  1  0
 15 17  1  0
 16 15  2  0
 17 18  1  0
 18 26  1  0
 19 20  1  0
 18 19  1  6
 20 25  2  0
 21 22  2  0
 21 20  1  0
 22 23  1  0
 23 24  2  0
 25 24  1  0
 26 28  2  0
 26 27  1  0
M  END
$$$$
