RAF.pdb
     RDKit          3D

 28 28  0  0  1  0  0  0  0  0999 V2000
   20.1742  -15.2337  -21.0750 N   0  0  0  0  0  0  0  0  0  0  0  0
   18.9401  -14.5580  -20.8710 C   0  0  0  0  0  0  0  0  0  0  0  0
   17.9554  -14.9027  -21.6283 N   0  0  0  0  0  0  0  0  0  0  0  0
   18.7797  -13.5468  -19.8833 N   0  0  0  0  0  0  0  0  0  0  0  0
   19.9465  -12.8476  -19.3910 C   0  0  0  0  0  0  0  0  0  0  0  0
   20.8497  -13.7650  -18.5943 C   0  0  0  0  0  0  0  0  0  0  0  0
   21.9980  -12.9710  -18.0784 C   0  0  0  0  0  0  0  0  0  0  0  0
   23.0033  -12.6040  -19.1430 C   0  0  2  0  0  0  0  0  0  0  0  0
   22.6415  -13.0578  -20.4480 N   0  0  0  0  0  0  0  0  0  0  0  0
   24.3653  -13.0452  -18.8215 C   0  0  0  0  0  0  0  0  0  0  0  0
   24.9448  -12.7290  -17.7573 O   0  0  0  0  0  0  0  0  0  0  0  0
   17.0275  -14.4497  -21.5318 C   0  0  0  0  0  0  0  0  0  0  0  0
   26.9155  -15.3326  -20.4625 C   0  0  2  0  0  0  0  0  0  0  0  0
   26.4698  -14.2512  -19.5029 N   0  0  0  0  0  0  0  0  0  0  0  0
   25.0782  -13.8652  -19.7375 C   0  0  0  0  0  0  0  0  0  0  0  0
   27.2983  -13.0441  -19.7892 O   0  0  0  0  0  0  0  0  0  0  0  0
   26.8731  -12.2174  -20.6334 N   0  0  0  0  0  0  0  0  0  0  0  0
   28.5280  -12.7936  -19.1578 C   0  0  1  0  0  0  0  0  0  0  0  0
   29.2187  -11.5586  -19.4262 C   0  0  0  0  0  0  0  0  0  0  0  0
   29.4861  -10.7863  -18.1580 C   0  0  0  0  0  0  0  0  0  0  0  0
   30.1066  -11.6605  -17.1696 C   0  0  0  0  0  0  0  0  0  0  0  0
   29.3251  -12.3561  -16.2835 C   0  0  0  0  0  0  0  0  0  0  0  0
   29.8689  -13.2241  -15.3387 C   0  0  0  0  0  0  0  0  0  0  0  0
   31.2507  -13.3678  -15.3189 C   0  0  0  0  0  0  0  0  0  0  0  0
   32.0626  -12.6857  -16.1929 C   0  0  0  0  0  0  0  0  0  0  0  0
   31.4658  -11.8260  -17.1226 C   0  0  0  0  0  0  0  0  0  0  0  0
   30.4689  -11.9101  -20.1268 O   0  0  0  0  0  0  0  0  0  0  0  0
   31.2892  -10.9354  -20.6722 O   0  0  0  0  0  0  0  0  0  0  0  0
  2  1  1  0
  2  4  1  0
  3  2  2  0
  4  5  1  0
  5  6  1  0
  6  7  1  0
  7  8  1  0
  8  9  1  6
 10  8  1  0
 11 10  2  0
 13 12  1  1
 13 15  1  0
 13 14  1  0
 14 10  1  0
 15 17  1  0
 16 15  2  0
 17 18  1  0
 18 26  1  0
 19 20  1  0
 18 19  1  6
 20 25  2  0
 21 22  2  0
 21 20  1  0
 22 23  1  0
 23 24  2  0
 25 24  1  0
 26 28  2  0
 26 27  1  0
M  END
$$$$
