RAF.pdb
     RDKit          3D

 28 28  0  0  1  0  0  0  0  0999 V2000
   19.5052  -26.7535  -10.3473 N   0  0  0  0  0  0  0  0  0  0  0  0
   20.4808  -27.2674  -11.2447 C   0  0  0  0  0  0  0  0  0  0  0  0
   20.9759  -28.4247  -10.9662 N   0  0  0  0  0  0  0  0  0  0  0  0
   20.9037  -26.5536  -12.4003 N   0  0  0  0  0  0  0  0  0  0  0  0
   19.9898  -25.6282  -13.0338 C   0  0  0  0  0  0  0  0  0  0  0  0
   18.8160  -26.3484  -13.6628 C   0  0  0  0  0  0  0  0  0  0  0  0
   17.9189  -25.3391  -14.2887 C   0  0  0  0  0  0  0  0  0  0  0  0
   17.7943  -25.4898  -15.7854 C   0  0  2  0  0  0  0  0  0  0  0  0
   19.0443  -25.7061  -16.4416 N   0  0  0  0  0  0  0  0  0  0  0  0
   17.0867  -24.3704  -16.4172 C   0  0  0  0  0  0  0  0  0  0  0  0
   17.6829  -23.4407  -17.0076 O   0  0  0  0  0  0  0  0  0  0  0  0
   21.6935  -28.8563  -11.5780 C   0  0  0  0  0  0  0  0  0  0  0  0
   13.4722  -23.6287  -17.2470 C   0  0  1  0  0  0  0  0  0  0  0  0
   14.9182  -23.2419  -17.0267 N   0  0  0  0  0  0  0  0  0  0  0  0
   15.6674  -24.3145  -16.3721 C   0  0  0  0  0  0  0  0  0  0  0  0
   14.9227  -22.0856  -16.0841 O   0  0  0  0  0  0  0  0  0  0  0  0
   15.3804  -22.2623  -14.9282 N   0  0  0  0  0  0  0  0  0  0  0  0
   14.4390  -20.8135  -16.4323 C   0  0  1  0  0  0  0  0  0  0  0  0
   14.5634  -19.7307  -15.4907 C   0  0  0  0  0  0  0  0  0  0  0  0
   16.0061  -19.3434  -15.2791 C   0  0  0  0  0  0  0  0  0  0  0  0
   16.5511  -18.7799  -16.5085 C   0  0  0  0  0  0  0  0  0  0  0  0
   17.3418  -19.5488  -17.3229 C   0  0  0  0  0  0  0  0  0  0  0  0
   17.8638  -19.0645  -18.5208 C   0  0  0  0  0  0  0  0  0  0  0  0
   17.5550  -17.7567  -18.8737 C   0  0  0  0  0  0  0  0  0  0  0  0
   16.7655  -16.9593  -18.0804 C   0  0  0  0  0  0  0  0  0  0  0  0
   16.2662  -17.4944  -16.8870 C   0  0  0  0  0  0  0  0  0  0  0  0
   13.7673  -18.6073  -16.0216 O   0  0  0  0  0  0  0  0  0  0  0  0
   13.5053  -17.4828  -15.2553 O   0  0  0  0  0  0  0  0  0  0  0  0
  2  1  1  0
  2  4  1  0
  3  2  2  0
  4  5  1  0
  5  6  1  0
  6  7  1  0
  7  8  1  0
  8  9  1  6
 10  8  1  0
 11 10  2  0
 13 12  1  6
 13 15  1  0
 13 14  1  0
 14 10  1  0
 15 17  1  0
 16 15  2  0
 17 18  1  0
 18 26  1  0
 19 20  1  0
 18 19  1  1
 20 25  2  0
 21 22  2  0
 21 20  1  0
 22 23  1  0
 23 24  2  0
 25 24  1  0
 26 28  2  0
 26 27  1  0
M  END
$$$$
