RAF.pdb
     RDKit          3D

 28 28  0  0  1  0  0  0  0  0999 V2000
   33.5334  -24.7192  -15.2280 N   0  0  0  0  0  0  0  0  0  0  0  0
   34.1321  -25.1813  -14.0242 C   0  0  0  0  0  0  0  0  0  0  0  0
   34.7664  -26.3021  -14.0822 N   0  0  0  0  0  0  0  0  0  0  0  0
   34.0462  -24.4557  -12.8035 N   0  0  0  0  0  0  0  0  0  0  0  0
   33.4764  -23.1260  -12.8098 C   0  0  0  0  0  0  0  0  0  0  0  0
   32.0563  -23.1270  -12.2850 C   0  0  0  0  0  0  0  0  0  0  0  0
   31.4644  -21.7805  -12.5126 C   0  0  0  0  0  0  0  0  0  0  0  0
   30.2023  -21.8093  -13.3401 C   0  0  2  0  0  0  0  0  0  0  0  0
   30.4390  -21.6877  -14.7433 N   0  0  0  0  0  0  0  0  0  0  0  0
   29.2140  -20.8125  -12.9129 C   0  0  0  0  0  0  0  0  0  0  0  0
   29.3932  -19.5807  -13.0511 O   0  0  0  0  0  0  0  0  0  0  0  0
   35.2306  -26.6936  -13.2414 C   0  0  0  0  0  0  0  0  0  0  0  0
   25.8542  -20.0826  -12.6909 C   0  0  1  0  0  0  0  0  0  0  0  0
   27.0356  -20.2773  -11.7660 N   0  0  0  0  0  0  0  0  0  0  0  0
   27.9957  -21.2347  -12.3154 C   0  0  0  0  0  0  0  0  0  0  0  0
   26.5101  -20.8797  -10.5065 O   0  0  0  0  0  0  0  0  0  0  0  0
   26.3480  -22.1242  -10.4648 N   0  0  0  0  0  0  0  0  0  0  0  0
   26.1902  -20.1181   -9.3702 C   0  0  1  0  0  0  0  0  0  0  0  0
   25.6350  -20.7754   -8.2151 C   0  0  0  0  0  0  0  0  0  0  0  0
   25.7765  -19.9288   -6.9744 C   0  0  0  0  0  0  0  0  0  0  0  0
   27.1491  -19.9932   -6.4870 C   0  0  0  0  0  0  0  0  0  0  0  0
   27.9474  -18.8797   -6.5383 C   0  0  0  0  0  0  0  0  0  0  0  0
   29.2564  -18.8836   -6.0604 C   0  0  0  0  0  0  0  0  0  0  0  0
   29.7394  -20.0692   -5.5206 C   0  0  0  0  0  0  0  0  0  0  0  0
   28.9659  -21.2030   -5.4540 C   0  0  0  0  0  0  0  0  0  0  0  0
   27.6573  -21.1457   -5.9479 C   0  0  0  0  0  0  0  0  0  0  0  0
   24.2208  -21.0624   -8.5236 O   0  0  0  0  0  0  0  0  0  0  0  0
   23.5048  -22.0112   -7.8112 O   0  0  0  0  0  0  0  0  0  0  0  0
  2  1  1  0
  2  4  1  0
  3  2  2  0
  4  5  1  0
  5  6  1  0
  6  7  1  0
  7  8  1  0
  8  9  1  6
 10  8  1  0
 11 10  2  0
 13 12  1  6
 13 15  1  0
 13 14  1  0
 14 10  1  0
 15 17  1  0
 16 15  2  0
 17 18  1  0
 18 26  1  0
 19 20  1  0
 18 19  1  1
 20 25  2  0
 21 22  2  0
 21 20  1  0
 22 23  1  0
 23 24  2  0
 25 24  1  0
 26 28  2  0
 26 27  1  0
M  END
$$$$
