RAF.pdb
     RDKit          3D

 28 28  0  0  1  0  0  0  0  0999 V2000
   32.4285  -24.4672  -12.6942 N   0  0  0  0  0  0  0  0  0  0  0  0
   33.4368  -23.5301  -13.0497 C   0  0  0  0  0  0  0  0  0  0  0  0
   34.2354  -23.8678  -14.0036 N   0  0  0  0  0  0  0  0  0  0  0  0
   33.5740  -22.2743  -12.3954 N   0  0  0  0  0  0  0  0  0  0  0  0
   32.5845  -21.8735  -11.4193 C   0  0  0  0  0  0  0  0  0  0  0  0
   31.3553  -21.2879  -12.0814 C   0  0  0  0  0  0  0  0  0  0  0  0
   30.4104  -20.8430  -11.0210 C   0  0  0  0  0  0  0  0  0  0  0  0
   29.5023  -21.9415  -10.5239 C   0  0  2  0  0  0  0  0  0  0  0  0
   29.9780  -23.2537  -10.8266 N   0  0  0  0  0  0  0  0  0  0  0  0
   28.1178  -21.7939  -10.9869 C   0  0  0  0  0  0  0  0  0  0  0  0
   27.7293  -22.2133  -12.1012 O   0  0  0  0  0  0  0  0  0  0  0  0
   35.0045  -23.2384  -14.3000 C   0  0  0  0  0  0  0  0  0  0  0  0
   24.9206  -20.9194   -9.1614 C   0  0  2  0  0  0  0  0  0  0  0  0
   25.7213  -21.2989  -10.3876 N   0  0  0  0  0  0  0  0  0  0  0  0
   27.1586  -21.1531  -10.1569 C   0  0  0  0  0  0  0  0  0  0  0  0
   25.3638  -20.3268  -11.4613 O   0  0  0  0  0  0  0  0  0  0  0  0
   25.8002  -19.1530  -11.3703 N   0  0  0  0  0  0  0  0  0  0  0  0
   24.5636  -20.6667  -12.5648 C   0  0  1  0  0  0  0  0  0  0  0  0
   24.1435  -19.6327  -13.4753 C   0  0  0  0  0  0  0  0  0  0  0  0
   24.6377  -19.8941  -14.8766 C   0  0  0  0  0  0  0  0  0  0  0  0
   26.0920  -19.7962  -14.9132 C   0  0  0  0  0  0  0  0  0  0  0  0
   26.6952  -18.5656  -14.9533 C   0  0  0  0  0  0  0  0  0  0  0  0
   28.0809  -18.4195  -14.9621 C   0  0  0  0  0  0  0  0  0  0  0  0
   28.8489  -19.5768  -14.9284 C   0  0  0  0  0  0  0  0  0  0  0  0
   28.2764  -20.8254  -14.8876 C   0  0  0  0  0  0  0  0  0  0  0  0
   26.8795  -20.9169  -14.8804 C   0  0  0  0  0  0  0  0  0  0  0  0
   22.6700  -19.5813  -13.4152 O   0  0  0  0  0  0  0  0  0  0  0  0
   21.9518  -18.6283  -14.1198 O   0  0  0  0  0  0  0  0  0  0  0  0
  2  1  1  0
  2  4  1  0
  3  2  2  0
  4  5  1  0
  5  6  1  0
  6  7  1  0
  7  8  1  0
  8  9  1  6
 10  8  1  0
 11 10  2  0
 13 12  1  1
 13 15  1  0
 13 14  1  0
 14 10  1  0
 15 17  1  0
 16 15  2  0
 17 18  1  0
 18 26  1  0
 19 20  1  0
 18 19  1  6
 20 25  2  0
 21 22  2  0
 21 20  1  0
 22 23  1  0
 23 24  2  0
 25 24  1  0
 26 28  2  0
 26 27  1  0
M  END
$$$$
