RAF.pdb
     RDKit          3D

 28 28  0  0  1  0  0  0  0  0999 V2000
   27.3254  -27.5221  -16.6018 N   0  0  0  0  0  0  0  0  0  0  0  0
   27.5574  -27.7063  -17.9923 C   0  0  0  0  0  0  0  0  0  0  0  0
   27.9492  -28.8757  -18.3675 N   0  0  0  0  0  0  0  0  0  0  0  0
   27.3717  -26.6618  -18.9403 N   0  0  0  0  0  0  0  0  0  0  0  0
   26.7929  -25.4087  -18.5076 C   0  0  0  0  0  0  0  0  0  0  0  0
   27.8474  -24.3339  -18.3502 C   0  0  0  0  0  0  0  0  0  0  0  0
   27.9893  -24.0152  -16.9033 C   0  0  0  0  0  0  0  0  0  0  0  0
   28.9976  -22.9277  -16.6220 C   0  0  2  0  0  0  0  0  0  0  0  0
   30.3325  -23.4137  -16.4746 N   0  0  0  0  0  0  0  0  0  0  0  0
   28.6386  -22.0983  -15.4662 C   0  0  0  0  0  0  0  0  0  0  0  0
   28.8501  -22.4568  -14.2850 O   0  0  0  0  0  0  0  0  0  0  0  0
   28.1658  -29.0690  -19.3631 C   0  0  0  0  0  0  0  0  0  0  0  0
   27.2372  -18.5924  -15.0216 C   0  0  1  0  0  0  0  0  0  0  0  0
   27.6751  -19.9600  -14.5457 N   0  0  0  0  0  0  0  0  0  0  0  0
   28.0247  -20.8324  -15.6670 C   0  0  0  0  0  0  0  0  0  0  0  0
   26.5000  -20.5857  -13.8725 O   0  0  0  0  0  0  0  0  0  0  0  0
   25.7600  -21.3417  -14.5490 N   0  0  0  0  0  0  0  0  0  0  0  0
   26.1872  -20.3665  -12.5206 C   0  0  1  0  0  0  0  0  0  0  0  0
   25.0973  -21.0941  -11.9230 C   0  0  0  0  0  0  0  0  0  0  0  0
   25.5678  -21.9533  -10.7756 C   0  0  0  0  0  0  0  0  0  0  0  0
   26.2939  -21.1350   -9.8118 C   0  0  0  0  0  0  0  0  0  0  0  0
   25.6141  -20.2528   -9.0122 C   0  0  0  0  0  0  0  0  0  0  0  0
   26.2594  -19.4689   -8.0578 C   0  0  0  0  0  0  0  0  0  0  0  0
   27.6365  -19.6084   -7.9367 C   0  0  0  0  0  0  0  0  0  0  0  0
   28.3480  -20.4832   -8.7221 C   0  0  0  0  0  0  0  0  0  0  0  0
   27.6515  -21.2476   -9.6657 C   0  0  0  0  0  0  0  0  0  0  0  0
   24.1029  -20.0948  -11.4867 O   0  0  0  0  0  0  0  0  0  0  0  0
   22.8307  -20.4701  -11.0855 O   0  0  0  0  0  0  0  0  0  0  0  0
  2  1  1  0
  2  4  1  0
  3  2  2  0
  4  5  1  0
  5  6  1  0
  6  7  1  0
  7  8  1  0
  8  9  1  1
 10  8  1  0
 11 10  2  0
 13 12  1  1
 13 15  1  0
 13 14  1  0
 14 10  1  0
 15 17  1  0
 16 15  2  0
 17 18  1  0
 18 26  1  0
 19 20  1  0
 18 19  1  1
 20 25  2  0
 21 22  2  0
 21 20  1  0
 22 23  1  0
 23 24  2  0
 25 24  1  0
 26 28  2  0
 26 27  1  0
M  END
$$$$
