RAF.pdb
     RDKit          3D

 28 28  0  0  1  0  0  0  0  0999 V2000
   19.7703  -18.5563  -16.4060 N   0  0  0  0  0  0  0  0  0  0  0  0
   20.3663  -17.2673  -16.3389 C   0  0  0  0  0  0  0  0  0  0  0  0
   20.0712  -16.4395  -17.2820 N   0  0  0  0  0  0  0  0  0  0  0  0
   21.2491  -16.8902  -15.2889 N   0  0  0  0  0  0  0  0  0  0  0  0
   21.9961  -17.9137  -14.5911 C   0  0  0  0  0  0  0  0  0  0  0  0
   21.0895  -19.0134  -14.0804 C   0  0  0  0  0  0  0  0  0  0  0  0
   21.9172  -20.0100  -13.3476 C   0  0  0  0  0  0  0  0  0  0  0  0
   23.2195  -19.4481  -12.8310 C   0  0  2  0  0  0  0  0  0  0  0  0
   23.9336  -18.6818  -13.8019 N   0  0  0  0  0  0  0  0  0  0  0  0
   24.0997  -20.4737  -12.2597 C   0  0  0  0  0  0  0  0  0  0  0  0
   23.6876  -21.3555  -11.4716 O   0  0  0  0  0  0  0  0  0  0  0  0
   20.4617  -15.4787  -17.2866 C   0  0  0  0  0  0  0  0  0  0  0  0
   27.6567  -21.5902  -12.9227 C   0  0  2  0  0  0  0  0  0  0  0  0
   26.3782  -21.5392  -12.1154 N   0  0  0  0  0  0  0  0  0  0  0  0
   25.4799  -20.4900  -12.5979 C   0  0  0  0  0  0  0  0  0  0  0  0
   26.7560  -21.1654  -10.7215 O   0  0  0  0  0  0  0  0  0  0  0  0
   27.7886  -20.4717  -10.5507 N   0  0  0  0  0  0  0  0  0  0  0  0
   26.0095  -21.5544   -9.5967 C   0  0  1  0  0  0  0  0  0  0  0  0
   26.5836  -21.4049   -8.2843 C   0  0  0  0  0  0  0  0  0  0  0  0
   27.2916  -20.0809   -8.1367 C   0  0  0  0  0  0  0  0  0  0  0  0
   27.8098  -19.9470   -6.7805 C   0  0  0  0  0  0  0  0  0  0  0  0
   28.5688  -20.9500   -6.2349 C   0  0  0  0  0  0  0  0  0  0  0  0
   29.1089  -20.8573   -4.9536 C   0  0  0  0  0  0  0  0  0  0  0  0
   28.8522  -19.6989   -4.2308 C   0  0  0  0  0  0  0  0  0  0  0  0
   28.0957  -18.6748   -4.7479 C   0  0  0  0  0  0  0  0  0  0  0  0
   27.5765  -18.8181   -6.0400 C   0  0  0  0  0  0  0  0  0  0  0  0
   25.4801  -21.5466   -7.3149 O   0  0  0  0  0  0  0  0  0  0  0  0
   25.6969  -22.0537   -6.0436 O   0  0  0  0  0  0  0  0  0  0  0  0
  2  1  1  0
  2  4  1  0
  3  2  2  0
  4  5  1  0
  5  6  1  0
  6  7  1  0
  7  8  1  0
  8  9  1  6
 10  8  1  0
 11 10  2  0
 13 12  1  6
 13 15  1  0
 13 14  1  0
 14 10  1  0
 15 17  1  0
 16 15  2  0
 17 18  1  0
 18 26  1  0
 19 20  1  0
 18 19  1  1
 20 25  2  0
 21 22  2  0
 21 20  1  0
 22 23  1  0
 23 24  2  0
 25 24  1  0
 26 28  2  0
 26 27  1  0
M  END
$$$$
