RAF.pdb
     RDKit          3D

 28 28  0  0  1  0  0  0  0  0999 V2000
   28.2916  -27.4672  -15.8768 N   0  0  0  0  0  0  0  0  0  0  0  0
   27.8426  -27.3226  -17.2180 C   0  0  0  0  0  0  0  0  0  0  0  0
   27.2712  -28.3462  -17.7543 N   0  0  0  0  0  0  0  0  0  0  0  0
   28.0069  -26.1138  -17.9499 N   0  0  0  0  0  0  0  0  0  0  0  0
   28.2820  -24.8863  -17.2357 C   0  0  0  0  0  0  0  0  0  0  0  0
   27.0993  -24.4551  -16.3947 C   0  0  0  0  0  0  0  0  0  0  0  0
   27.4014  -23.1267  -15.7951 C   0  0  0  0  0  0  0  0  0  0  0  0
   27.3310  -21.9891  -16.7848 C   0  0  2  0  0  0  0  0  0  0  0  0
   28.6107  -21.5652  -17.2565 N   0  0  0  0  0  0  0  0  0  0  0  0
   26.5788  -20.8353  -16.2791 C   0  0  0  0  0  0  0  0  0  0  0  0
   27.0856  -19.9783  -15.5194 O   0  0  0  0  0  0  0  0  0  0  0  0
   26.9884  -28.3342  -18.7520 C   0  0  0  0  0  0  0  0  0  0  0  0
   23.8961  -18.7314  -17.4186 C   0  0  1  0  0  0  0  0  0  0  0  0
   24.4515  -19.4862  -16.2309 N   0  0  0  0  0  0  0  0  0  0  0  0
   25.2186  -20.6591  -16.6509 C   0  0  0  0  0  0  0  0  0  0  0  0
   23.2854  -19.9986  -15.4543 O   0  0  0  0  0  0  0  0  0  0  0  0
   22.8615  -21.1527  -15.7095 N   0  0  0  0  0  0  0  0  0  0  0  0
   22.6438  -19.2488  -14.4544 C   0  0  2  0  0  0  0  0  0  0  0  0
   21.4831  -19.7952  -13.7999 C   0  0  0  0  0  0  0  0  0  0  0  0
   21.1562  -19.0439  -12.5330 C   0  0  0  0  0  0  0  0  0  0  0  0
   19.8766  -19.5012  -12.0044 C   0  0  0  0  0  0  0  0  0  0  0  0
   19.8245  -20.6105  -11.2003 C   0  0  0  0  0  0  0  0  0  0  0  0
   18.6303  -21.0708  -10.6492 C   0  0  0  0  0  0  0  0  0  0  0  0
   17.4722  -20.3614  -10.9424 C   0  0  0  0  0  0  0  0  0  0  0  0
   17.4895  -19.2457  -11.7445 C   0  0  0  0  0  0  0  0  0  0  0  0
   18.7156  -18.8251  -12.2729 C   0  0  0  0  0  0  0  0  0  0  0  0
   20.3749  -19.7363  -14.7726 O   0  0  0  0  0  0  0  0  0  0  0  0
   19.4359  -20.7517  -14.8591 O   0  0  0  0  0  0  0  0  0  0  0  0
  2  1  1  0
  2  4  1  0
  3  2  2  0
  4  5  1  0
  5  6  1  0
  6  7  1  0
  7  8  1  0
  8  9  1  1
 10  8  1  0
 11 10  2  0
 13 12  1  6
 13 15  1  0
 13 14  1  0
 14 10  1  0
 15 17  1  0
 16 15  2  0
 17 18  1  0
 18 26  1  0
 19 20  1  0
 18 19  1  6
 20 25  2  0
 21 22  2  0
 21 20  1  0
 22 23  1  0
 23 24  2  0
 25 24  1  0
 26 28  2  0
 26 27  1  0
M  END
$$$$
