RAF.pdb
     RDKit          3D

 28 28  0  0  1  0  0  0  0  0999 V2000
   34.0811  -25.9937  -16.0101 N   0  0  0  0  0  0  0  0  0  0  0  0
   33.5792  -26.2461  -17.3161 C   0  0  0  0  0  0  0  0  0  0  0  0
   34.0624  -27.2664  -17.9385 N   0  0  0  0  0  0  0  0  0  0  0  0
   32.5908  -25.4233  -17.9243 N   0  0  0  0  0  0  0  0  0  0  0  0
   31.9153  -24.4227  -17.1272 C   0  0  0  0  0  0  0  0  0  0  0  0
   30.5306  -24.8785  -16.7188 C   0  0  0  0  0  0  0  0  0  0  0  0
   29.5728  -23.7655  -16.9618 C   0  0  0  0  0  0  0  0  0  0  0  0
   28.1566  -24.0893  -16.5518 C   0  0  2  0  0  0  0  0  0  0  0  0
   27.5102  -25.0183  -17.4231 N   0  0  0  0  0  0  0  0  0  0  0  0
   27.3202  -22.8950  -16.3875 C   0  0  0  0  0  0  0  0  0  0  0  0
   27.6921  -21.8941  -15.7331 O   0  0  0  0  0  0  0  0  0  0  0  0
   33.7685  -27.4844  -18.9088 C   0  0  0  0  0  0  0  0  0  0  0  0
   23.9826  -21.7274  -17.7627 C   0  0  2  0  0  0  0  0  0  0  0  0
   25.1291  -21.7135  -16.7756 N   0  0  0  0  0  0  0  0  0  0  0  0
   26.0317  -22.8458  -16.9848 C   0  0  0  0  0  0  0  0  0  0  0  0
   24.5383  -21.8881  -15.4169 O   0  0  0  0  0  0  0  0  0  0  0  0
   24.3857  -23.0555  -14.9802 N   0  0  0  0  0  0  0  0  0  0  0  0
   24.1472  -20.8077  -14.6087 C   0  0  1  0  0  0  0  0  0  0  0  0
   23.7305  -21.0571  -13.2528 C   0  0  0  0  0  0  0  0  0  0  0  0
   24.3873  -20.1022  -12.2867 C   0  0  0  0  0  0  0  0  0  0  0  0
   23.9074  -20.3608  -10.9344 C   0  0  0  0  0  0  0  0  0  0  0  0
   22.5713  -20.2473  -10.6481 C   0  0  0  0  0  0  0  0  0  0  0  0
   22.0606  -20.5101   -9.3785 C   0  0  0  0  0  0  0  0  0  0  0  0
   22.9593  -20.8973   -8.3923 C   0  0  0  0  0  0  0  0  0  0  0  0
   24.3043  -21.0208   -8.6457 C   0  0  0  0  0  0  0  0  0  0  0  0
   24.7659  -20.7452   -9.9383 C   0  0  0  0  0  0  0  0  0  0  0  0
   22.2600  -20.9364  -13.2271 O   0  0  0  0  0  0  0  0  0  0  0  0
   21.5992  -19.9985  -14.0043 O   0  0  0  0  0  0  0  0  0  0  0  0
  2  1  1  0
  2  4  1  0
  3  2  2  0
  4  5  1  0
  5  6  1  0
  6  7  1  0
  7  8  1  0
  8  9  1  6
 10  8  1  0
 11 10  2  0
 13 12  1  6
 13 15  1  0
 13 14  1  0
 14 10  1  0
 15 17  1  0
 16 15  2  0
 17 18  1  0
 18 26  1  0
 19 20  1  0
 18 19  1  1
 20 25  2  0
 21 22  2  0
 21 20  1  0
 22 23  1  0
 23 24  2  0
 25 24  1  0
 26 28  2  0
 26 27  1  0
M  END
$$$$
