RAF.pdb
     RDKit          3D

 28 28  0  0  1  0  0  0  0  0999 V2000
   19.9901  -25.1659  -14.1270 N   0  0  0  0  0  0  0  0  0  0  0  0
   19.5913  -24.3348  -13.0446 C   0  0  0  0  0  0  0  0  0  0  0  0
   19.0929  -24.9232  -12.0116 N   0  0  0  0  0  0  0  0  0  0  0  0
   19.7276  -22.9192  -13.0811 N   0  0  0  0  0  0  0  0  0  0  0  0
   20.2357  -22.2882  -14.2796 C   0  0  0  0  0  0  0  0  0  0  0  0
   21.4743  -21.4661  -13.9930 C   0  0  0  0  0  0  0  0  0  0  0  0
   21.1296  -20.4201  -12.9918 C   0  0  0  0  0  0  0  0  0  0  0  0
   22.3014  -19.5542  -12.5975 C   0  0  2  0  0  0  0  0  0  0  0  0
   22.9770  -18.9692  -13.7116 N   0  0  0  0  0  0  0  0  0  0  0  0
   23.2661  -20.2513  -11.7394 C   0  0  0  0  0  0  0  0  0  0  0  0
   22.9372  -20.8109  -10.6684 O   0  0  0  0  0  0  0  0  0  0  0  0
   18.7465  -24.3737  -11.2032 C   0  0  0  0  0  0  0  0  0  0  0  0
   26.7814  -21.4938  -12.3275 C   0  0  2  0  0  0  0  0  0  0  0  0
   25.5774  -21.2129  -11.4555 N   0  0  0  0  0  0  0  0  0  0  0  0
   24.6353  -20.3089  -12.1155 C   0  0  0  0  0  0  0  0  0  0  0  0
   26.0726  -20.4976  -10.2436 O   0  0  0  0  0  0  0  0  0  0  0  0
   26.0121  -19.2435  -10.2270 N   0  0  0  0  0  0  0  0  0  0  0  0
   26.6014  -21.1637   -9.1254 C   0  0  1  0  0  0  0  0  0  0  0  0
   27.2176  -20.3955   -8.0744 C   0  0  0  0  0  0  0  0  0  0  0  0
   26.7084  -20.8075   -6.7154 C   0  0  0  0  0  0  0  0  0  0  0  0
   27.5116  -20.1759   -5.6752 C   0  0  0  0  0  0  0  0  0  0  0  0
   27.2704  -18.8741   -5.3190 C   0  0  0  0  0  0  0  0  0  0  0  0
   27.9923  -18.2351   -4.3129 C   0  0  0  0  0  0  0  0  0  0  0  0
   28.9819  -18.9673   -3.6686 C   0  0  0  0  0  0  0  0  0  0  0  0
   29.2491  -20.2736   -4.0010 C   0  0  0  0  0  0  0  0  0  0  0  0
   28.4947  -20.8688   -5.0190 C   0  0  0  0  0  0  0  0  0  0  0  0
   28.6748  -20.5941   -8.1963 O   0  0  0  0  0  0  0  0  0  0  0  0
   29.5713  -19.6017   -7.8330 O   0  0  0  0  0  0  0  0  0  0  0  0
  2  1  1  0
  2  4  1  0
  3  2  2  0
  4  5  1  0
  5  6  1  0
  6  7  1  0
  7  8  1  0
  8  9  1  6
 10  8  1  0
 11 10  2  0
 13 12  1  6
 13 15  1  0
 13 14  1  0
 14 10  1  0
 15 17  1  0
 16 15  2  0
 17 18  1  0
 18 26  1  0
 19 20  1  0
 18 19  1  6
 20 25  2  0
 21 22  2  0
 21 20  1  0
 22 23  1  0
 23 24  2  0
 25 24  1  0
 26 28  2  0
 26 27  1  0
M  END
$$$$
