RAF.pdb
     RDKit          3D

 28 28  0  0  1  0  0  0  0  0999 V2000
   19.1967  -23.0680  -11.8756 N   0  0  0  0  0  0  0  0  0  0  0  0
   18.8378  -24.0628  -12.8258 C   0  0  0  0  0  0  0  0  0  0  0  0
   18.3742  -23.6490  -13.9552 N   0  0  0  0  0  0  0  0  0  0  0  0
   18.9763  -25.4537  -12.5612 N   0  0  0  0  0  0  0  0  0  0  0  0
   19.8108  -25.8848  -11.4610 C   0  0  0  0  0  0  0  0  0  0  0  0
   19.7816  -27.3895  -11.2970 C   0  0  0  0  0  0  0  0  0  0  0  0
   18.5456  -27.7633  -10.5568 C   0  0  0  0  0  0  0  0  0  0  0  0
   18.7900  -28.7359   -9.4286 C   0  0  2  0  0  0  0  0  0  0  0  0
   18.7289  -30.1042   -9.8335 N   0  0  0  0  0  0  0  0  0  0  0  0
   17.9038  -28.5158   -8.2801 C   0  0  0  0  0  0  0  0  0  0  0  0
   17.7657  -27.3955   -7.7377 O   0  0  0  0  0  0  0  0  0  0  0  0
   18.0856  -24.3222  -14.6894 C   0  0  0  0  0  0  0  0  0  0  0  0
   15.3188  -30.6080   -6.4578 C   0  0  2  0  0  0  0  0  0  0  0  0
   16.2457  -29.4225   -6.6139 N   0  0  0  0  0  0  0  0  0  0  0  0
   17.1604  -29.6008   -7.7417 C   0  0  0  0  0  0  0  0  0  0  0  0
   17.0923  -29.3649   -5.3869 O   0  0  0  0  0  0  0  0  0  0  0  0
   18.0811  -30.1350   -5.3098 N   0  0  0  0  0  0  0  0  0  0  0  0
   16.8319  -28.4903   -4.3188 C   0  0  1  0  0  0  0  0  0  0  0  0
   17.7790  -28.3974   -3.2377 C   0  0  0  0  0  0  0  0  0  0  0  0
   18.5161  -27.0811   -3.2583 C   0  0  0  0  0  0  0  0  0  0  0  0
   17.5723  -25.9905   -3.4717 C   0  0  0  0  0  0  0  0  0  0  0  0
   16.8433  -25.4994   -2.4195 C   0  0  0  0  0  0  0  0  0  0  0  0
   15.9492  -24.4408   -2.5673 C   0  0  0  0  0  0  0  0  0  0  0  0
   15.8142  -23.8864   -3.8341 C   0  0  0  0  0  0  0  0  0  0  0  0
   16.5296  -24.3546   -4.9099 C   0  0  0  0  0  0  0  0  0  0  0  0
   17.4148  -25.4201   -4.7075 C   0  0  0  0  0  0  0  0  0  0  0  0
   17.0196  -28.5799   -1.9856 O   0  0  0  0  0  0  0  0  0  0  0  0
   17.6539  -28.6043   -0.7538 O   0  0  0  0  0  0  0  0  0  0  0  0
  2  1  1  0
  2  4  1  0
  3  2  2  0
  4  5  1  0
  5  6  1  0
  6  7  1  0
  7  8  1  0
  8  9  1  6
 10  8  1  0
 11 10  2  0
 13 12  1  6
 13 15  1  0
 13 14  1  0
 14 10  1  0
 15 17  1  0
 16 15  2  0
 17 18  1  0
 18 26  1  0
 19 20  1  0
 18 19  1  1
 20 25  2  0
 21 22  2  0
 21 20  1  0
 22 23  1  0
 23 24  2  0
 25 24  1  0
 26 28  2  0
 26 27  1  0
M  END
$$$$
