RAF.pdb
     RDKit          3D

 28 28  0  0  1  0  0  0  0  0999 V2000
   23.3037  -24.9000  -14.7372 N   0  0  0  0  0  0  0  0  0  0  0  0
   24.0016  -25.6835  -13.7779 C   0  0  0  0  0  0  0  0  0  0  0  0
   23.6418  -26.9157  -13.6594 N   0  0  0  0  0  0  0  0  0  0  0  0
   25.0501  -25.1510  -12.9772 N   0  0  0  0  0  0  0  0  0  0  0  0
   25.4091  -23.7567  -13.1178 C   0  0  0  0  0  0  0  0  0  0  0  0
   24.6416  -22.8841  -12.1474 C   0  0  0  0  0  0  0  0  0  0  0  0
   24.9400  -21.4581  -12.4519 C   0  0  0  0  0  0  0  0  0  0  0  0
   24.6665  -21.0787  -13.8871 C   0  0  2  0  0  0  0  0  0  0  0  0
   25.5700  -21.6786  -14.8164 N   0  0  0  0  0  0  0  0  0  0  0  0
   24.6251  -19.6272  -14.0982 C   0  0  0  0  0  0  0  0  0  0  0  0
   23.9434  -18.8591  -13.3815 O   0  0  0  0  0  0  0  0  0  0  0  0
   24.1273  -27.5493  -12.9974 C   0  0  0  0  0  0  0  0  0  0  0  0
   26.5959  -17.1599  -16.1652 C   0  0  1  0  0  0  0  0  0  0  0  0
   25.3684  -17.6016  -15.3989 N   0  0  0  0  0  0  0  0  0  0  0  0
   25.3797  -19.0435  -15.1515 C   0  0  0  0  0  0  0  0  0  0  0  0
   24.1881  -17.3304  -16.2700 O   0  0  0  0  0  0  0  0  0  0  0  0
   23.9863  -18.0880  -17.2509 N   0  0  0  0  0  0  0  0  0  0  0  0
   23.2969  -16.2688  -16.0413 C   0  0  1  0  0  0  0  0  0  0  0  0
   22.1724  -16.0908  -16.9234 C   0  0  0  0  0  0  0  0  0  0  0  0
   21.0945  -17.1132  -16.6605 C   0  0  0  0  0  0  0  0  0  0  0  0
   20.6490  -17.0154  -15.2756 C   0  0  0  0  0  0  0  0  0  0  0  0
   19.7559  -16.0413  -14.9104 C   0  0  0  0  0  0  0  0  0  0  0  0
   19.2797  -15.9239  -13.6061 C   0  0  0  0  0  0  0  0  0  0  0  0
   19.7436  -16.8381  -12.6683 C   0  0  0  0  0  0  0  0  0  0  0  0
   20.6386  -17.8263  -13.0011 C   0  0  0  0  0  0  0  0  0  0  0  0
   21.0857  -17.9007  -14.3256 C   0  0  0  0  0  0  0  0  0  0  0  0
   21.6820  -14.7139  -16.7204 O   0  0  0  0  0  0  0  0  0  0  0  0
   20.6527  -14.1937  -17.4887 O   0  0  0  0  0  0  0  0  0  0  0  0
  2  1  1  0
  2  4  1  0
  3  2  2  0
  4  5  1  0
  5  6  1  0
  6  7  1  0
  7  8  1  0
  8  9  1  6
 10  8  1  0
 11 10  2  0
 13 12  1  1
 13 15  1  0
 13 14  1  0
 14 10  1  0
 15 17  1  0
 16 15  2  0
 17 18  1  0
 18 26  1  0
 19 20  1  0
 18 19  1  6
 20 25  2  0
 21 22  2  0
 21 20  1  0
 22 23  1  0
 23 24  2  0
 25 24  1  0
 26 28  2  0
 26 27  1  0
M  END
$$$$
