RAF.pdb
     RDKit          3D

 28 28  0  0  1  0  0  0  0  0999 V2000
   19.1578  -18.5019  -15.6149 N   0  0  0  0  0  0  0  0  0  0  0  0
   18.1534  -18.0297  -16.5034 C   0  0  0  0  0  0  0  0  0  0  0  0
   16.9491  -17.9782  -16.0464 N   0  0  0  0  0  0  0  0  0  0  0  0
   18.4438  -17.6286  -17.8371 N   0  0  0  0  0  0  0  0  0  0  0  0
   19.8141  -17.6518  -18.3001 C   0  0  0  0  0  0  0  0  0  0  0  0
   20.2303  -19.0404  -18.7367 C   0  0  0  0  0  0  0  0  0  0  0  0
   21.0120  -19.6700  -17.6377 C   0  0  0  0  0  0  0  0  0  0  0  0
   22.4319  -19.1666  -17.5436 C   0  0  2  0  0  0  0  0  0  0  0  0
   23.0404  -18.9385  -18.8154 N   0  0  0  0  0  0  0  0  0  0  0  0
   23.2928  -20.0294  -16.7266 C   0  0  0  0  0  0  0  0  0  0  0  0
   22.9890  -20.3809  -15.5636 O   0  0  0  0  0  0  0  0  0  0  0  0
   16.1826  -17.5718  -16.6145 C   0  0  0  0  0  0  0  0  0  0  0  0
   26.3176  -22.1816  -17.3830 C   0  0  2  0  0  0  0  0  0  0  0  0
   25.4071  -21.3774  -16.4813 N   0  0  0  0  0  0  0  0  0  0  0  0
   24.5268  -20.4993  -17.2522 C   0  0  0  0  0  0  0  0  0  0  0  0
   26.2792  -20.4881  -15.6602 O   0  0  0  0  0  0  0  0  0  0  0  0
   26.5290  -19.3361  -16.0927 N   0  0  0  0  0  0  0  0  0  0  0  0
   26.8305  -20.8824  -14.4297 C   0  0  1  0  0  0  0  0  0  0  0  0
   27.6466  -19.9519  -13.6931 C   0  0  0  0  0  0  0  0  0  0  0  0
   26.8045  -18.9878  -12.8947 C   0  0  0  0  0  0  0  0  0  0  0  0
   25.9723  -19.7243  -11.9508 C   0  0  0  0  0  0  0  0  0  0  0  0
   24.7156  -20.1314  -12.3182 C   0  0  0  0  0  0  0  0  0  0  0  0
   23.8931  -20.8608  -11.4619 C   0  0  0  0  0  0  0  0  0  0  0  0
   24.3908  -21.1699  -10.2021 C   0  0  0  0  0  0  0  0  0  0  0  0
   25.6456  -20.7774   -9.8024 C   0  0  0  0  0  0  0  0  0  0  0  0
   26.4318  -20.0466  -10.7010 C   0  0  0  0  0  0  0  0  0  0  0  0
   28.5331  -20.7520  -12.8263 O   0  0  0  0  0  0  0  0  0  0  0  0
   29.5609  -20.1642  -12.1062 O   0  0  0  0  0  0  0  0  0  0  0  0
  2  1  1  0
  2  4  1  0
  3  2  2  0
  4  5  1  0
  5  6  1  0
  6  7  1  0
  7  8  1  0
  8  9  1  6
 10  8  1  0
 11 10  2  0
 13 12  1  6
 13 15  1  0
 13 14  1  0
 14 10  1  0
 15 17  1  0
 16 15  2  0
 17 18  1  0
 18 26  1  0
 19 20  1  0
 18 19  1  1
 20 25  2  0
 21 22  2  0
 21 20  1  0
 22 23  1  0
 23 24  2  0
 25 24  1  0
 26 28  2  0
 26 27  1  0
M  END
$$$$
