KWM.pdb
     RDKit          3D

 32 33  0  0  1  0  0  0  0  0999 V2000
    8.8838  -16.7766   19.0934 N   0  0  0  0  0  0  0  0  0  0  0  0
    9.5437  -15.4980   19.3095 C   0  0  1  0  0  0  0  0  0  0  0  0
    8.9440  -14.4164   18.4276 C   0  0  0  0  0  0  0  0  0  0  0  0
    8.2287  -15.0335   17.2488 C   0  0  0  0  0  0  0  0  0  0  0  0
    8.3923  -14.1615   16.0318 C   0  0  0  0  0  0  0  0  0  0  0  0
    7.7851  -14.7805   14.7933 C   0  0  0  0  0  0  0  0  0  0  0  0
    7.9765  -13.8143   13.7068 N   0  0  0  0  0  0  0  0  0  0  0  0
    9.4710  -15.1126   20.7521 C   0  0  0  0  0  0  0  0  0  0  0  0
    9.9515  -14.0375   21.1818 O   0  0  0  0  0  0  0  0  0  0  0  0
    8.8457  -15.9681   21.6880 N   0  0  0  0  0  0  0  0  0  0  0  0
    8.5409  -15.5385   23.0450 C   0  0  1  0  0  0  0  0  0  0  0  0
    7.2467  -16.0897   23.4939 C   0  0  0  0  0  0  0  0  0  0  0  0
    6.5731  -15.4802   24.6165 C   0  0  0  0  0  0  0  0  0  0  0  0
    5.5744  -16.0142   25.4243 C   0  0  0  0  0  0  0  0  0  0  0  0
    5.2423  -15.0738   26.3175 N   0  0  0  0  0  0  0  0  0  0  0  0
    5.9759  -13.9630   26.1256 C   0  0  0  0  0  0  0  0  0  0  0  0
    5.9614  -12.7646   26.8113 C   0  0  0  0  0  0  0  0  0  0  0  0
    6.8393  -11.7912   26.3827 C   0  0  0  0  0  0  0  0  0  0  0  0
    7.7077  -11.9622   25.3253 C   0  0  0  0  0  0  0  0  0  0  0  0
    7.6945  -13.1746   24.6627 C   0  0  0  0  0  0  0  0  0  0  0  0
    6.8309  -14.1751   25.0602 C   0  0  0  0  0  0  0  0  0  0  0  0
    9.7254  -15.8981   23.8642 C   0  0  0  0  0  0  0  0  0  0  0  0
   10.5545  -16.7413   23.3953 O   0  0  0  0  0  0  0  0  0  0  0  0
   10.8470  -14.8161   30.5064 C   0  0  0  0  0  0  0  0  0  0  0  0
   12.4486  -14.8556   29.6207 S   0  0  0  0  0  0  0  0  0  0  0  0
   12.2725  -15.8956   28.1201 C   0  0  0  0  0  0  0  0  0  0  0  0
   11.2565  -15.2360   27.2534 C   0  0  0  0  0  0  0  0  0  0  0  0
   11.0948  -15.9061   25.9093 C   0  0  2  0  0  0  0  0  0  0  0  0
   10.0105  -15.3652   25.1458 N   0  0  0  0  0  0  0  0  0  0  0  0
   10.9005  -17.3715   26.0550 C   0  0  0  0  0  0  0  0  0  0  0  0
   11.8486  -18.1905   25.9795 O   0  0  0  0  0  0  0  0  0  0  0  0
    9.6040  -17.8597   26.2863 O   0  0  0  0  0  0  0  0  0  0  0  0
  2  3  1  0
  2  1  1  1
  3  4  1  0
  5  4  1  0
  6  5  1  0
  7  6  1  0
  8  9  2  0
  8  2  1  0
 10  8  1  0
 11 22  1  0
 11 10  1  0
 11 12  1  1
 13 12  1  0
 14 13  2  0
 15 14  1  0
 16 15  1  0
 16 21  2  0
 17 16  1  0
 18 17  2  0
 18 19  1  0
 19 20  2  0
 20 21  1  0
 21 13  1  0
 22 29  1  0
 23 22  2  0
 24 25  1  0
 25 26  1  0
 26 27  1  0
 28 27  1  1
 28 30  1  0
 29 28  1  0
 30 31  2  0
 30 32  1  0
M  END
$$$$
