KWM.pdb
     RDKit          3D

 32 33  0  0  1  0  0  0  0  0999 V2000
    9.6024  -18.0696   18.9563 N   0  0  0  0  0  0  0  0  0  0  0  0
   10.3718  -16.8696   19.2477 C   0  0  1  0  0  0  0  0  0  0  0  0
   10.3637  -15.9140   18.0670 C   0  0  0  0  0  0  0  0  0  0  0  0
   10.2712  -16.6806   16.7686 C   0  0  0  0  0  0  0  0  0  0  0  0
   10.1983  -15.7233   15.6082 C   0  0  0  0  0  0  0  0  0  0  0  0
   10.1595  -16.4353   14.2751 C   0  0  0  0  0  0  0  0  0  0  0  0
   10.0132  -15.3961   13.2508 N   0  0  0  0  0  0  0  0  0  0  0  0
    9.8481  -16.2024   20.4788 C   0  0  0  0  0  0  0  0  0  0  0  0
    9.4167  -15.0255   20.4692 O   0  0  0  0  0  0  0  0  0  0  0  0
    9.8255  -16.8957   21.7106 N   0  0  0  0  0  0  0  0  0  0  0  0
    9.3426  -16.2777   22.9369 C   0  0  1  0  0  0  0  0  0  0  0  0
    7.8843  -16.4599   23.0798 C   0  0  0  0  0  0  0  0  0  0  0  0
    7.2195  -15.9305   24.2474 C   0  0  0  0  0  0  0  0  0  0  0  0
    6.5270  -16.6179   25.2389 C   0  0  0  0  0  0  0  0  0  0  0  0
    6.0634  -15.7061   26.1029 N   0  0  0  0  0  0  0  0  0  0  0  0
    6.4221  -14.4684   25.7179 C   0  0  0  0  0  0  0  0  0  0  0  0
    6.1602  -13.2482   26.3087 C   0  0  0  0  0  0  0  0  0  0  0  0
    6.6637  -12.1300   25.6779 C   0  0  0  0  0  0  0  0  0  0  0  0
    7.3985  -12.1802   24.5121 C   0  0  0  0  0  0  0  0  0  0  0  0
    7.6409  -13.4187   23.9494 C   0  0  0  0  0  0  0  0  0  0  0  0
    7.1546  -14.5625   24.5493 C   0  0  0  0  0  0  0  0  0  0  0  0
   10.1816  -16.8281   24.0308 C   0  0  0  0  0  0  0  0  0  0  0  0
   10.8460  -17.8902   23.8108 O   0  0  0  0  0  0  0  0  0  0  0  0
   10.9672  -11.9982   28.7370 C   0  0  0  0  0  0  0  0  0  0  0  0
   11.3056  -13.7855   28.9430 S   0  0  0  0  0  0  0  0  0  0  0  0
   11.1118  -14.6181   27.3202 C   0  0  0  0  0  0  0  0  0  0  0  0
   11.2868  -16.0778   27.5593 C   0  0  0  0  0  0  0  0  0  0  0  0
   11.0949  -16.9123   26.3149 C   0  0  2  0  0  0  0  0  0  0  0  0
   10.3043  -16.2521   25.3197 N   0  0  0  0  0  0  0  0  0  0  0  0
   10.4755  -18.2243   26.6332 C   0  0  0  0  0  0  0  0  0  0  0  0
    9.3075  -18.5235   26.2846 O   0  0  0  0  0  0  0  0  0  0  0  0
   11.2273  -19.1675   27.3528 O   0  0  0  0  0  0  0  0  0  0  0  0
  2  3  1  0
  2  1  1  6
  3  4  1  0
  5  4  1  0
  6  5  1  0
  7  6  1  0
  8  9  2  0
  8  2  1  0
 10  8  1  0
 11 22  1  0
 11 10  1  0
 11 12  1  1
 13 12  1  0
 14 13  2  0
 15 14  1  0
 16 15  1  0
 16 21  2  0
 17 16  1  0
 18 17  2  0
 18 19  1  0
 19 20  2  0
 20 21  1  0
 21 13  1  0
 22 29  1  0
 23 22  2  0
 24 25  1  0
 25 26  1  0
 26 27  1  0
 28 27  1  1
 28 30  1  0
 29 28  1  0
 30 31  2  0
 30 32  1  0
M  END
$$$$
