KWM.pdb
     RDKit          3D

 32 33  0  0  1  0  0  0  0  0999 V2000
    7.5278  -15.9649   20.0642 N   0  0  0  0  0  0  0  0  0  0  0  0
    8.6230  -15.0072   20.0601 C   0  0  1  0  0  0  0  0  0  0  0  0
    8.1470  -13.6331   19.6213 C   0  0  0  0  0  0  0  0  0  0  0  0
    7.4555  -13.7177   18.2808 C   0  0  0  0  0  0  0  0  0  0  0  0
    8.4386  -13.4386   17.1745 C   0  0  0  0  0  0  0  0  0  0  0  0
    7.8240  -13.6008   15.8028 C   0  0  0  0  0  0  0  0  0  0  0  0
    8.8928  -13.3405   14.8330 N   0  0  0  0  0  0  0  0  0  0  0  0
    9.2643  -14.9449   21.4091 C   0  0  0  0  0  0  0  0  0  0  0  0
   10.2207  -14.1742   21.6596 O   0  0  0  0  0  0  0  0  0  0  0  0
    8.7994  -15.7705   22.4583 N   0  0  0  0  0  0  0  0  0  0  0  0
    9.4100  -15.7591   23.7796 C   0  0  1  0  0  0  0  0  0  0  0  0
    8.4484  -16.2036   24.8082 C   0  0  0  0  0  0  0  0  0  0  0  0
    7.3236  -15.3581   25.1330 C   0  0  0  0  0  0  0  0  0  0  0  0
    6.0042  -15.7243   25.3781 C   0  0  0  0  0  0  0  0  0  0  0  0
    5.3174  -14.5988   25.6110 N   0  0  0  0  0  0  0  0  0  0  0  0
    6.1273  -13.5283   25.5284 C   0  0  0  0  0  0  0  0  0  0  0  0
    5.8406  -12.1879   25.6953 C   0  0  0  0  0  0  0  0  0  0  0  0
    6.8887  -11.3038   25.5481 C   0  0  0  0  0  0  0  0  0  0  0  0
    8.1770  -11.6942   25.2490 C   0  0  0  0  0  0  0  0  0  0  0  0
    8.4267  -13.0437   25.0891 C   0  0  0  0  0  0  0  0  0  0  0  0
    7.4053  -13.9614   25.2280 C   0  0  0  0  0  0  0  0  0  0  0  0
   10.6571  -16.5555   23.6613 C   0  0  0  0  0  0  0  0  0  0  0  0
   10.6225  -17.6436   23.0034 O   0  0  0  0  0  0  0  0  0  0  0  0
   11.0622  -13.5882   28.7224 C   0  0  0  0  0  0  0  0  0  0  0  0
   10.6237  -15.3233   29.1076 S   0  0  0  0  0  0  0  0  0  0  0  0
   11.5524  -16.4350   27.9824 C   0  0  0  0  0  0  0  0  0  0  0  0
   11.3011  -15.9545   26.5951 C   0  0  0  0  0  0  0  0  0  0  0  0
   12.2101  -16.5913   25.5705 C   0  0  2  0  0  0  0  0  0  0  0  0
   11.9027  -16.1911   24.2301 N   0  0  0  0  0  0  0  0  0  0  0  0
   12.1666  -18.0736   25.6550 C   0  0  0  0  0  0  0  0  0  0  0  0
   11.3249  -18.7627   25.0288 O   0  0  0  0  0  0  0  0  0  0  0  0
   13.1049  -18.7300   26.4683 O   0  0  0  0  0  0  0  0  0  0  0  0
  2  3  1  0
  2  1  1  1
  3  4  1  0
  5  4  1  0
  6  5  1  0
  7  6  1  0
  8  9  2  0
  8  2  1  0
 10  8  1  0
 11 22  1  0
 11 10  1  0
 11 12  1  1
 13 12  1  0
 14 13  2  0
 15 14  1  0
 16 15  1  0
 16 21  2  0
 17 16  1  0
 18 17  2  0
 18 19  1  0
 19 20  2  0
 20 21  1  0
 21 13  1  0
 22 29  1  0
 23 22  2  0
 24 25  1  0
 25 26  1  0
 26 27  1  0
 28 27  1  1
 28 30  1  0
 29 28  1  0
 30 31  2  0
 30 32  1  0
M  END
$$$$
