KWM.pdb
     RDKit          3D

 32 33  0  0  1  0  0  0  0  0999 V2000
    8.5539  -17.0813   19.3261 N   0  0  0  0  0  0  0  0  0  0  0  0
    9.2364  -15.8001   19.4244 C   0  0  1  0  0  0  0  0  0  0  0  0
    8.4918  -14.7227   18.6549 C   0  0  0  0  0  0  0  0  0  0  0  0
    8.6011  -14.9656   17.1679 C   0  0  0  0  0  0  0  0  0  0  0  0
    7.9878  -13.8170   16.4111 C   0  0  0  0  0  0  0  0  0  0  0  0
    8.0168  -14.0317   14.9148 C   0  0  0  0  0  0  0  0  0  0  0  0
    7.2276  -12.9471   14.3220 N   0  0  0  0  0  0  0  0  0  0  0  0
    9.4083  -15.4111   20.8576 C   0  0  0  0  0  0  0  0  0  0  0  0
   10.0643  -14.3999   21.2017 O   0  0  0  0  0  0  0  0  0  0  0  0
    8.8237  -16.1897   21.8827 N   0  0  0  0  0  0  0  0  0  0  0  0
    8.7982  -15.7485   23.2696 C   0  0  1  0  0  0  0  0  0  0  0  0
    7.6223  -16.2959   23.9751 C   0  0  0  0  0  0  0  0  0  0  0  0
    6.7906  -15.4073   24.7523 C   0  0  0  0  0  0  0  0  0  0  0  0
    5.6030  -15.6906   25.4191 C   0  0  0  0  0  0  0  0  0  0  0  0
    5.1813  -14.5499   25.9791 N   0  0  0  0  0  0  0  0  0  0  0  0
    6.0365  -13.5482   25.7069 C   0  0  0  0  0  0  0  0  0  0  0  0
    5.9903  -12.2201   26.0816 C   0  0  0  0  0  0  0  0  0  0  0  0
    7.0221  -11.4144   25.6480 C   0  0  0  0  0  0  0  0  0  0  0  0
    8.0700  -11.8698   24.8760 C   0  0  0  0  0  0  0  0  0  0  0  0
    8.0832  -13.2049   24.5202 C   0  0  0  0  0  0  0  0  0  0  0  0
    7.0692  -14.0449   24.9336 C   0  0  0  0  0  0  0  0  0  0  0  0
   10.1243  -16.1007   23.8359 C   0  0  0  0  0  0  0  0  0  0  0  0
   10.8177  -16.9916   23.2496 O   0  0  0  0  0  0  0  0  0  0  0  0
   10.0537  -14.4279   30.6502 C   0  0  0  0  0  0  0  0  0  0  0  0
   11.4614  -14.6261   29.4968 S   0  0  0  0  0  0  0  0  0  0  0  0
   10.8979  -15.5685   28.0275 C   0  0  0  0  0  0  0  0  0  0  0  0
   12.0224  -15.5603   27.0508 C   0  0  0  0  0  0  0  0  0  0  0  0
   11.6781  -16.2283   25.7406 C   0  0  2  0  0  0  0  0  0  0  0  0
   10.6880  -15.5111   24.9946 N   0  0  0  0  0  0  0  0  0  0  0  0
   11.2103  -17.6225   25.9503 C   0  0  0  0  0  0  0  0  0  0  0  0
    9.9941  -17.9250   26.0192 O   0  0  0  0  0  0  0  0  0  0  0  0
   12.1674  -18.6426   26.0765 O   0  0  0  0  0  0  0  0  0  0  0  0
  2  3  1  0
  2  1  1  1
  3  4  1  0
  5  4  1  0
  6  5  1  0
  7  6  1  0
  8  9  2  0
  8  2  1  0
 10  8  1  0
 11 22  1  0
 11 10  1  0
 11 12  1  1
 13 12  1  0
 14 13  2  0
 15 14  1  0
 16 15  1  0
 16 21  2  0
 17 16  1  0
 18 17  2  0
 18 19  1  0
 19 20  2  0
 20 21  1  0
 21 13  1  0
 22 29  1  0
 23 22  2  0
 24 25  1  0
 25 26  1  0
 26 27  1  0
 28 27  1  1
 28 30  1  0
 29 28  1  0
 30 31  2  0
 30 32  1  0
M  END
$$$$
