KWM.pdb
     RDKit          3D

 32 33  0  0  1  0  0  0  0  0999 V2000
    9.5701  -18.4652   19.1788 N   0  0  0  0  0  0  0  0  0  0  0  0
   10.0789  -17.1154   18.9890 C   0  0  1  0  0  0  0  0  0  0  0  0
    9.4246  -16.4470   17.7922 C   0  0  0  0  0  0  0  0  0  0  0  0
   10.2043  -16.7411   16.5322 C   0  0  0  0  0  0  0  0  0  0  0  0
    9.7581  -18.0538   15.9439 C   0  0  0  0  0  0  0  0  0  0  0  0
   10.4429  -18.3595   14.6311 C   0  0  0  0  0  0  0  0  0  0  0  0
    9.9679  -19.6816   14.2105 N   0  0  0  0  0  0  0  0  0  0  0  0
    9.8787  -16.3051   20.2293 C   0  0  0  0  0  0  0  0  0  0  0  0
   10.2718  -15.1185   20.3232 O   0  0  0  0  0  0  0  0  0  0  0  0
    9.2278  -16.8677   21.3511 N   0  0  0  0  0  0  0  0  0  0  0  0
    8.8582  -16.0698   22.5111 C   0  0  1  0  0  0  0  0  0  0  0  0
    7.4360  -16.2680   22.8554 C   0  0  0  0  0  0  0  0  0  0  0  0
    6.9237  -15.7058   24.0828 C   0  0  0  0  0  0  0  0  0  0  0  0
    6.3252  -16.3604   25.1545 C   0  0  0  0  0  0  0  0  0  0  0  0
    5.9907  -15.4256   26.0529 N   0  0  0  0  0  0  0  0  0  0  0  0
    6.3432  -14.2042   25.6140 C   0  0  0  0  0  0  0  0  0  0  0  0
    6.1883  -12.9704   26.2142 C   0  0  0  0  0  0  0  0  0  0  0  0
    6.6532  -11.8756   25.5164 C   0  0  0  0  0  0  0  0  0  0  0  0
    7.2506  -11.9612   24.2765 C   0  0  0  0  0  0  0  0  0  0  0  0
    7.3888  -13.2123   23.7066 C   0  0  0  0  0  0  0  0  0  0  0  0
    6.9367  -14.3336   24.3721 C   0  0  0  0  0  0  0  0  0  0  0  0
    9.8416  -16.4073   23.5705 C   0  0  0  0  0  0  0  0  0  0  0  0
   10.3697  -17.5645   23.5624 O   0  0  0  0  0  0  0  0  0  0  0  0
   10.3452  -13.2080   29.0750 C   0  0  0  0  0  0  0  0  0  0  0  0
   10.7575  -14.8951   29.6537 S   0  0  0  0  0  0  0  0  0  0  0  0
   11.2853  -15.9042   28.2158 C   0  0  0  0  0  0  0  0  0  0  0  0
   10.5124  -15.4181   27.0390 C   0  0  0  0  0  0  0  0  0  0  0  0
   10.9519  -16.0457   25.7372 C   0  0  2  0  0  0  0  0  0  0  0  0
   10.2465  -15.5265   24.6041 N   0  0  0  0  0  0  0  0  0  0  0  0
   10.7968  -17.5227   25.7688 C   0  0  0  0  0  0  0  0  0  0  0  0
    9.6886  -18.0902   25.6102 O   0  0  0  0  0  0  0  0  0  0  0  0
   11.9359  -18.3154   25.9848 O   0  0  0  0  0  0  0  0  0  0  0  0
  2  3  1  0
  2  1  1  1
  3  4  1  0
  5  4  1  0
  6  5  1  0
  7  6  1  0
  8  9  2  0
  8  2  1  0
 10  8  1  0
 11 22  1  0
 11 10  1  0
 11 12  1  1
 13 12  1  0
 14 13  2  0
 15 14  1  0
 16 15  1  0
 16 21  2  0
 17 16  1  0
 18 17  2  0
 18 19  1  0
 19 20  2  0
 20 21  1  0
 21 13  1  0
 22 29  1  0
 23 22  2  0
 24 25  1  0
 25 26  1  0
 26 27  1  0
 28 27  1  1
 28 30  1  0
 29 28  1  0
 30 31  2  0
 30 32  1  0
M  END
$$$$
