KWM.pdb
     RDKit          3D

 32 33  0  0  1  0  0  0  0  0999 V2000
    9.5542  -18.1259   19.1747 N   0  0  0  0  0  0  0  0  0  0  0  0
   10.1027  -16.7827   19.0665 C   0  0  1  0  0  0  0  0  0  0  0  0
    9.5443  -16.0596   17.8530 C   0  0  0  0  0  0  0  0  0  0  0  0
    9.8265  -16.8458   16.5944 C   0  0  0  0  0  0  0  0  0  0  0  0
    8.5354  -17.1816   15.8953 C   0  0  0  0  0  0  0  0  0  0  0  0
    8.7541  -17.9981   14.6418 C   0  0  0  0  0  0  0  0  0  0  0  0
    7.4267  -18.4150   14.1783 N   0  0  0  0  0  0  0  0  0  0  0  0
    9.8367  -16.0100   20.3183 C   0  0  0  0  0  0  0  0  0  0  0  0
   10.2339  -14.8312   20.4733 O   0  0  0  0  0  0  0  0  0  0  0  0
    9.1159  -16.6009   21.3813 N   0  0  0  0  0  0  0  0  0  0  0  0
    8.8051  -15.8735   22.6032 C   0  0  1  0  0  0  0  0  0  0  0  0
    7.3662  -15.9674   22.9208 C   0  0  0  0  0  0  0  0  0  0  0  0
    6.8807  -15.4080   24.1605 C   0  0  0  0  0  0  0  0  0  0  0  0
    6.2355  -16.0531   25.2106 C   0  0  0  0  0  0  0  0  0  0  0  0
    5.9528  -15.1241   26.1324 N   0  0  0  0  0  0  0  0  0  0  0  0
    6.3829  -13.9154   25.7290 C   0  0  0  0  0  0  0  0  0  0  0  0
    6.2999  -12.6910   26.3620 C   0  0  0  0  0  0  0  0  0  0  0  0
    6.8362  -11.6085   25.6970 C   0  0  0  0  0  0  0  0  0  0  0  0
    7.4360  -11.6973   24.4585 C   0  0  0  0  0  0  0  0  0  0  0  0
    7.5010  -12.9387   23.8552 C   0  0  0  0  0  0  0  0  0  0  0  0
    6.9760  -14.0475   24.4873 C   0  0  0  0  0  0  0  0  0  0  0  0
    9.7386  -16.3894   23.6356 C   0  0  0  0  0  0  0  0  0  0  0  0
   10.3739  -17.4653   23.3965 O   0  0  0  0  0  0  0  0  0  0  0  0
    9.7050  -14.2418   30.6318 C   0  0  0  0  0  0  0  0  0  0  0  0
   10.8303  -14.1144   29.1935 S   0  0  0  0  0  0  0  0  0  0  0  0
   10.4557  -15.4762   28.0232 C   0  0  0  0  0  0  0  0  0  0  0  0
   11.3658  -15.3064   26.8564 C   0  0  0  0  0  0  0  0  0  0  0  0
   11.0497  -16.2421   25.7135 C   0  0  2  0  0  0  0  0  0  0  0  0
    9.9833  -15.7660   24.8844 N   0  0  0  0  0  0  0  0  0  0  0  0
   10.7102  -17.6020   26.2053 C   0  0  0  0  0  0  0  0  0  0  0  0
   11.5417  -18.3365   26.7922 O   0  0  0  0  0  0  0  0  0  0  0  0
    9.4065  -18.0849   26.0054 O   0  0  0  0  0  0  0  0  0  0  0  0
  2  3  1  0
  2  1  1  1
  3  4  1  0
  5  4  1  0
  6  5  1  0
  7  6  1  0
  8  9  2  0
  8  2  1  0
 10  8  1  0
 11 22  1  0
 11 10  1  0
 11 12  1  1
 13 12  1  0
 14 13  2  0
 15 14  1  0
 16 15  1  0
 16 21  2  0
 17 16  1  0
 18 17  2  0
 18 19  1  0
 19 20  2  0
 20 21  1  0
 21 13  1  0
 22 29  1  0
 23 22  2  0
 24 25  1  0
 25 26  1  0
 26 27  1  0
 28 27  1  1
 28 30  1  0
 29 28  1  0
 30 31  2  0
 30 32  1  0
M  END
$$$$
