KWM.pdb
     RDKit          3D

 32 33  0  0  1  0  0  0  0  0999 V2000
    8.5707  -16.8328   19.1424 N   0  0  0  0  0  0  0  0  0  0  0  0
    9.1512  -15.4987   19.1290 C   0  0  1  0  0  0  0  0  0  0  0  0
    8.4295  -14.5976   18.1419 C   0  0  0  0  0  0  0  0  0  0  0  0
    8.5225  -15.1645   16.7447 C   0  0  0  0  0  0  0  0  0  0  0  0
    7.7409  -14.3051   15.7861 C   0  0  0  0  0  0  0  0  0  0  0  0
    7.8432  -14.7938   14.3591 C   0  0  0  0  0  0  0  0  0  0  0  0
    7.0590  -13.8624   13.5416 N   0  0  0  0  0  0  0  0  0  0  0  0
    9.1322  -14.9097   20.5029 C   0  0  0  0  0  0  0  0  0  0  0  0
    8.8892  -13.6970   20.7070 O   0  0  0  0  0  0  0  0  0  0  0  0
    9.3935  -15.7216   21.6303 N   0  0  0  0  0  0  0  0  0  0  0  0
    8.9678  -15.3443   22.9702 C   0  0  1  0  0  0  0  0  0  0  0  0
    7.5548  -15.7083   23.1962 C   0  0  0  0  0  0  0  0  0  0  0  0
    6.9158  -15.3182   24.4310 C   0  0  0  0  0  0  0  0  0  0  0  0
    6.1581  -16.0962   25.3004 C   0  0  0  0  0  0  0  0  0  0  0  0
    5.7535  -15.2979   26.2961 N   0  0  0  0  0  0  0  0  0  0  0  0
    6.2120  -14.0471   26.1118 C   0  0  0  0  0  0  0  0  0  0  0  0
    6.0364  -12.9179   26.8868 C   0  0  0  0  0  0  0  0  0  0  0  0
    6.6336  -11.7575   26.4412 C   0  0  0  0  0  0  0  0  0  0  0  0
    7.3792  -11.6816   25.2837 C   0  0  0  0  0  0  0  0  0  0  0  0
    7.5337  -12.8316   24.5334 C   0  0  0  0  0  0  0  0  0  0  0  0
    6.9521  -14.0137   24.9446 C   0  0  0  0  0  0  0  0  0  0  0  0
    9.9561  -15.9477   23.8990 C   0  0  0  0  0  0  0  0  0  0  0  0
   10.5250  -17.0333   23.5588 O   0  0  0  0  0  0  0  0  0  0  0  0
   10.3247  -14.6100   30.1937 C   0  0  0  0  0  0  0  0  0  0  0  0
   11.9222  -15.4862   30.0165 S   0  0  0  0  0  0  0  0  0  0  0  0
   11.9274  -16.3964   28.4240 C   0  0  0  0  0  0  0  0  0  0  0  0
   11.1556  -15.5726   27.4524 C   0  0  0  0  0  0  0  0  0  0  0  0
   11.0759  -16.1924   26.0772 C   0  0  2  0  0  0  0  0  0  0  0  0
   10.3229  -15.3988   25.1529 N   0  0  0  0  0  0  0  0  0  0  0  0
   10.4915  -17.5570   26.1315 C   0  0  0  0  0  0  0  0  0  0  0  0
    9.2556  -17.7668   26.0696 O   0  0  0  0  0  0  0  0  0  0  0  0
   11.3569  -18.6561   26.2571 O   0  0  0  0  0  0  0  0  0  0  0  0
  2  3  1  0
  2  1  1  1
  3  4  1  0
  5  4  1  0
  6  5  1  0
  7  6  1  0
  8  9  2  0
  8  2  1  0
 10  8  1  0
 11 22  1  0
 11 10  1  0
 11 12  1  1
 13 12  1  0
 14 13  2  0
 15 14  1  0
 16 15  1  0
 16 21  2  0
 17 16  1  0
 18 17  2  0
 18 19  1  0
 19 20  2  0
 20 21  1  0
 21 13  1  0
 22 29  1  0
 23 22  2  0
 24 25  1  0
 25 26  1  0
 26 27  1  0
 28 27  1  1
 28 30  1  0
 29 28  1  0
 30 31  2  0
 30 32  1  0
M  END
$$$$
