KWM.pdb
     RDKit          3D

 32 33  0  0  1  0  0  0  0  0999 V2000
    7.6751  -16.5074   20.2935 N   0  0  0  0  0  0  0  0  0  0  0  0
    8.7678  -15.5502   20.2118 C   0  0  1  0  0  0  0  0  0  0  0  0
    8.3065  -14.2448   19.5869 C   0  0  0  0  0  0  0  0  0  0  0  0
    7.6202  -14.5057   18.2667 C   0  0  0  0  0  0  0  0  0  0  0  0
    8.1638  -13.5795   17.2107 C   0  0  0  0  0  0  0  0  0  0  0  0
    7.4317  -13.7129   15.8947 C   0  0  0  0  0  0  0  0  0  0  0  0
    8.1037  -12.8147   14.9502 N   0  0  0  0  0  0  0  0  0  0  0  0
    9.3561  -15.3158   21.5661 C   0  0  0  0  0  0  0  0  0  0  0  0
   10.3152  -14.5303   21.7514 O   0  0  0  0  0  0  0  0  0  0  0  0
    8.8353  -15.9879   22.6956 N   0  0  0  0  0  0  0  0  0  0  0  0
    9.4295  -15.8530   24.0175 C   0  0  1  0  0  0  0  0  0  0  0  0
    8.4660  -16.2335   25.0696 C   0  0  0  0  0  0  0  0  0  0  0  0
    7.3086  -15.4009   25.2992 C   0  0  0  0  0  0  0  0  0  0  0  0
    5.9875  -15.7869   25.5014 C   0  0  0  0  0  0  0  0  0  0  0  0
    5.2657  -14.6684   25.6454 N   0  0  0  0  0  0  0  0  0  0  0  0
    6.0546  -13.5837   25.5462 C   0  0  0  0  0  0  0  0  0  0  0  0
    5.7306  -12.2442   25.6319 C   0  0  0  0  0  0  0  0  0  0  0  0
    6.7646  -11.3430   25.4886 C   0  0  0  0  0  0  0  0  0  0  0  0
    8.0739  -11.7159   25.2691 C   0  0  0  0  0  0  0  0  0  0  0  0
    8.3608  -13.0651   25.1892 C   0  0  0  0  0  0  0  0  0  0  0  0
    7.3546  -13.9996   25.3271 C   0  0  0  0  0  0  0  0  0  0  0  0
   10.6958  -16.6266   23.9783 C   0  0  0  0  0  0  0  0  0  0  0  0
   11.5488  -16.3496   23.0762 O   0  0  0  0  0  0  0  0  0  0  0  0
   10.4737  -13.7804   28.9489 C   0  0  0  0  0  0  0  0  0  0  0  0
   10.6802  -15.5093   29.5140 S   0  0  0  0  0  0  0  0  0  0  0  0
   11.7989  -16.3844   28.3533 C   0  0  0  0  0  0  0  0  0  0  0  0
   11.0218  -16.6312   27.1068 C   0  0  0  0  0  0  0  0  0  0  0  0
   11.8137  -17.3581   26.0455 C   0  0  2  0  0  0  0  0  0  0  0  0
   11.0349  -17.6633   24.8828 N   0  0  0  0  0  0  0  0  0  0  0  0
   12.4042  -18.6138   26.5757 C   0  0  0  0  0  0  0  0  0  0  0  0
   11.9588  -19.7490   26.2790 O   0  0  0  0  0  0  0  0  0  0  0  0
   13.5051  -18.5267   27.4436 O   0  0  0  0  0  0  0  0  0  0  0  0
  2  3  1  0
  2  1  1  1
  3  4  1  0
  5  4  1  0
  6  5  1  0
  7  6  1  0
  8  9  2  0
  8  2  1  0
 10  8  1  0
 11 22  1  0
 11 10  1  0
 11 12  1  1
 13 12  1  0
 14 13  2  0
 15 14  1  0
 16 15  1  0
 16 21  2  0
 17 16  1  0
 18 17  2  0
 18 19  1  0
 19 20  2  0
 20 21  1  0
 21 13  1  0
 22 29  1  0
 23 22  2  0
 24 25  1  0
 25 26  1  0
 26 27  1  0
 28 27  1  1
 28 30  1  0
 29 28  1  0
 30 31  2  0
 30 32  1  0
M  END
$$$$
