KWM.pdb
     RDKit          3D

 32 33  0  0  1  0  0  0  0  0999 V2000
   10.9875  -18.4814   18.4583 N   0  0  0  0  0  0  0  0  0  0  0  0
   10.2130  -18.7895   19.6508 C   0  0  1  0  0  0  0  0  0  0  0  0
   10.7243  -20.0509   20.3249 C   0  0  0  0  0  0  0  0  0  0  0  0
   10.3341  -21.2717   19.5252 C   0  0  0  0  0  0  0  0  0  0  0  0
   10.7241  -22.5220   20.2686 C   0  0  0  0  0  0  0  0  0  0  0  0
   10.3063  -23.7795   19.5407 C   0  0  0  0  0  0  0  0  0  0  0  0
   10.6995  -24.9058   20.3936 N   0  0  0  0  0  0  0  0  0  0  0  0
   10.2328  -17.6322   20.5971 C   0  0  0  0  0  0  0  0  0  0  0  0
   11.2123  -16.8546   20.6815 O   0  0  0  0  0  0  0  0  0  0  0  0
    9.1250  -17.3801   21.4383 N   0  0  0  0  0  0  0  0  0  0  0  0
    9.0756  -16.2288   22.3275 C   0  0  1  0  0  0  0  0  0  0  0  0
    7.7249  -15.6323   22.3427 C   0  0  0  0  0  0  0  0  0  0  0  0
    7.5270  -14.3536   22.9838 C   0  0  0  0  0  0  0  0  0  0  0  0
    7.8542  -13.0861   22.5129 C   0  0  0  0  0  0  0  0  0  0  0  0
    7.5057  -12.2087   23.4624 N   0  0  0  0  0  0  0  0  0  0  0  0
    6.9714  -12.8467   24.5189 C   0  0  0  0  0  0  0  0  0  0  0  0
    6.4828  -12.3364   25.7052 C   0  0  0  0  0  0  0  0  0  0  0  0
    5.9891  -13.2450   26.6176 C   0  0  0  0  0  0  0  0  0  0  0  0
    5.9644  -14.6062   26.3985 C   0  0  0  0  0  0  0  0  0  0  0  0
    6.4617  -15.0809   25.1999 C   0  0  0  0  0  0  0  0  0  0  0  0
    6.9650  -14.2046   24.2599 C   0  0  0  0  0  0  0  0  0  0  0  0
    9.5989  -16.6982   23.6348 C   0  0  0  0  0  0  0  0  0  0  0  0
    9.3848  -17.9047   23.9766 O   0  0  0  0  0  0  0  0  0  0  0  0
   10.5221  -13.0792   28.9666 C   0  0  0  0  0  0  0  0  0  0  0  0
    9.9680  -14.7349   29.5167 S   0  0  0  0  0  0  0  0  0  0  0  0
   10.5558  -15.9885   28.3135 C   0  0  0  0  0  0  0  0  0  0  0  0
   10.1783  -15.4981   26.9587 C   0  0  0  0  0  0  0  0  0  0  0  0
   10.6414  -16.4081   25.8455 C   0  0  2  0  0  0  0  0  0  0  0  0
   10.3319  -15.8961   24.5443 N   0  0  0  0  0  0  0  0  0  0  0  0
   10.0601  -17.7683   25.9812 C   0  0  0  0  0  0  0  0  0  0  0  0
    8.9970  -18.1101   25.4082 O   0  0  0  0  0  0  0  0  0  0  0  0
   10.7271  -18.7093   26.7828 O   0  0  0  0  0  0  0  0  0  0  0  0
  2  3  1  0
  2  1  1  6
  3  4  1  0
  5  4  1  0
  6  5  1  0
  7  6  1  0
  8  9  2  0
  8  2  1  0
 10  8  1  0
 11 22  1  0
 11 10  1  0
 11 12  1  1
 13 12  1  0
 14 13  2  0
 15 14  1  0
 16 15  1  0
 16 21  2  0
 17 16  1  0
 18 17  2  0
 18 19  1  0
 19 20  2  0
 20 21  1  0
 21 13  1  0
 22 29  1  0
 23 22  2  0
 24 25  1  0
 25 26  1  0
 26 27  1  0
 28 27  1  1
 28 30  1  0
 29 28  1  0
 30 31  2  0
 30 32  1  0
M  END
$$$$
