CVA.pdb
     RDKit          3D

 19 18  0  0  1  0  0  0  0  0999 V2000
   17.9980   -9.5728  -12.5532 N   0  0  0  0  0  0  0  0  0  0  0  0
   18.1664   -8.2939  -11.8747 C   0  0  1  0  0  0  0  0  0  0  0  0
   18.9133   -7.3699  -12.8143 C   0  0  0  0  0  0  0  0  0  0  0  0
   20.6186   -7.9411  -12.9441 S   0  0  0  0  0  0  0  0  0  0  0  0
   16.8325   -7.7157  -11.5369 C   0  0  0  0  0  0  0  0  0  0  0  0
   15.8662   -7.9019  -12.3169 O   0  0  0  0  0  0  0  0  0  0  0  0
   15.4414   -7.2019   -7.7150 C   0  0  0  0  0  0  0  0  0  0  0  0
   14.6292   -7.2150   -8.9840 C   0  0  2  0  0  0  0  0  0  0  0  0
   14.3935   -8.6285   -9.4716 C   0  0  0  0  0  0  0  0  0  0  0  0
   15.3417   -6.4111  -10.0465 C   0  0  2  0  0  0  0  0  0  0  0  0
   16.6309   -6.9614  -10.3562 N   0  0  0  0  0  0  0  0  0  0  0  0
   15.4319   -4.9734   -9.6722 C   0  0  0  0  0  0  0  0  0  0  0  0
   16.2938   -4.6489   -8.8161 O   0  0  0  0  0  0  0  0  0  0  0  0
   13.9307   -1.7355  -10.8169 C   0  0  0  0  0  0  0  0  0  0  0  0
   14.8099   -2.6056   -9.9166 C   0  0  2  0  0  0  0  0  0  0  0  0
   14.6028   -3.9861  -10.2322 N   0  0  0  0  0  0  0  0  0  0  0  0
   14.4186   -2.2807   -8.5190 C   0  0  0  0  0  0  0  0  0  0  0  0
   14.9178   -1.1200   -7.9611 O   0  0  0  0  0  0  0  0  0  0  0  0
   13.6590   -3.0173   -7.8380 O   0  0  0  0  0  0  0  0  0  0  0  0
  2  1  1  6
  3  2  1  0
  4  3  1  0
  5  2  1  0
  6  5  2  0
  8  7  1  1
  8 10  1  0
  9  8  1  0
 10 11  1  1
 11  5  1  0
 12 10  1  0
 12 16  1  0
 13 12  2  0
 15 16  1  0
 15 14  1  6
 17 15  1  0
 17 18  1  0
 19 17  2  0
M  END
$$$$
