CVA.pdb
     RDKit          3D

 19 18  0  0  1  0  0  0  0  0999 V2000
   20.1348  -17.5977  -15.6361 N   0  0  0  0  0  0  0  0  0  0  0  0
   19.6814  -16.4072  -14.9280 C   0  0  1  0  0  0  0  0  0  0  0  0
   20.0742  -16.5603  -13.4730 C   0  0  0  0  0  0  0  0  0  0  0  0
   19.0038  -17.7994  -12.7179 S   0  0  0  0  0  0  0  0  0  0  0  0
   20.3238  -15.1918  -15.5093 C   0  0  0  0  0  0  0  0  0  0  0  0
   21.4889  -15.2731  -15.9705 O   0  0  0  0  0  0  0  0  0  0  0  0
   19.1457  -13.0780  -18.3796 C   0  0  0  0  0  0  0  0  0  0  0  0
   19.3093  -12.1697  -17.1887 C   0  0  2  0  0  0  0  0  0  0  0  0
   19.8363  -10.8118  -17.6009 C   0  0  0  0  0  0  0  0  0  0  0  0
   20.2469  -12.8098  -16.1918 C   0  0  2  0  0  0  0  0  0  0  0  0
   19.6495  -13.9481  -15.5530 N   0  0  0  0  0  0  0  0  0  0  0  0
   20.7447  -11.8190  -15.1989 C   0  0  0  0  0  0  0  0  0  0  0  0
   19.9002  -11.2913  -14.4313 O   0  0  0  0  0  0  0  0  0  0  0  0
   24.0598  -10.5090  -14.0386 C   0  0  0  0  0  0  0  0  0  0  0  0
   22.5312  -10.5672  -14.0612 C   0  0  2  0  0  0  0  0  0  0  0  0
   22.0997  -11.4608  -15.0927 N   0  0  0  0  0  0  0  0  0  0  0  0
   22.0684   -9.1727  -14.2916 C   0  0  0  0  0  0  0  0  0  0  0  0
   21.9456   -8.7398  -15.5973 O   0  0  0  0  0  0  0  0  0  0  0  0
   21.7889   -8.3859  -13.3502 O   0  0  0  0  0  0  0  0  0  0  0  0
  2  1  1  6
  3  2  1  0
  4  3  1  0
  5  2  1  0
  6  5  2  0
  8  7  1  6
  8 10  1  0
  9  8  1  0
 10 11  1  1
 11  5  1  0
 12 10  1  0
 12 16  1  0
 13 12  2  0
 15 16  1  0
 15 14  1  6
 17 15  1  0
 17 18  1  0
 19 17  2  0
M  END
$$$$
