CVA.pdb
     RDKit          3D

 19 18  0  0  1  0  0  0  0  0999 V2000
   16.3982  -13.3665  -11.4011 N   0  0  0  0  0  0  0  0  0  0  0  0
   15.5186  -12.2109  -11.5237 C   0  0  1  0  0  0  0  0  0  0  0  0
   14.2838  -12.4826  -10.6894 C   0  0  0  0  0  0  0  0  0  0  0  0
   13.3727  -13.8450  -11.4411 S   0  0  0  0  0  0  0  0  0  0  0  0
   16.2136  -10.9857  -11.0304 C   0  0  0  0  0  0  0  0  0  0  0  0
   16.9721  -11.0685  -10.0330 O   0  0  0  0  0  0  0  0  0  0  0  0
   18.5887   -8.9248  -12.8236 C   0  0  0  0  0  0  0  0  0  0  0  0
   17.5594   -7.9432  -12.3266 C   0  0  2  0  0  0  0  0  0  0  0  0
   18.2081   -6.6641  -11.8422 C   0  0  0  0  0  0  0  0  0  0  0  0
   16.7588   -8.5742  -11.2114 C   0  0  2  0  0  0  0  0  0  0  0  0
   16.0377   -9.7309  -11.6613 N   0  0  0  0  0  0  0  0  0  0  0  0
   15.8595   -7.5836  -10.5592 C   0  0  0  0  0  0  0  0  0  0  0  0
   14.8777   -7.1646  -11.2236 O   0  0  0  0  0  0  0  0  0  0  0  0
   15.3604   -6.1337   -7.1528 C   0  0  0  0  0  0  0  0  0  0  0  0
   15.1498   -6.1797   -8.6674 C   0  0  2  0  0  0  0  0  0  0  0  0
   16.0668   -7.1103   -9.2520 N   0  0  0  0  0  0  0  0  0  0  0  0
   15.3648   -4.7917   -9.1565 C   0  0  0  0  0  0  0  0  0  0  0  0
   14.3708   -3.8622   -8.9213 O   0  0  0  0  0  0  0  0  0  0  0  0
   16.4070   -4.4413   -9.7683 O   0  0  0  0  0  0  0  0  0  0  0  0
  2  1  1  1
  3  2  1  0
  4  3  1  0
  5  2  1  0
  6  5  2  0
  8  7  1  1
  8 10  1  0
  9  8  1  0
 10 11  1  6
 11  5  1  0
 12 10  1  0
 12 16  1  0
 13 12  2  0
 15 16  1  0
 15 14  1  1
 17 15  1  0
 17 18  1  0
 19 17  2  0
M  END
$$$$
