CVA.pdb
     RDKit          3D

 19 18  0  0  1  0  0  0  0  0999 V2000
  -11.2960  -15.3939  -34.4978 N   0  0  0  0  0  0  0  0  0  0  0  0
  -11.4316  -14.3934  -35.5489 C   0  0  1  0  0  0  0  0  0  0  0  0
  -10.5417  -14.8131  -36.7007 C   0  0  0  0  0  0  0  0  0  0  0  0
  -10.2095  -16.5793  -36.5539 S   0  0  0  0  0  0  0  0  0  0  0  0
  -12.8526  -14.3148  -35.9986 C   0  0  0  0  0  0  0  0  0  0  0  0
  -13.3791  -15.3125  -36.5500 O   0  0  0  0  0  0  0  0  0  0  0  0
  -15.0503  -13.0195  -38.4329 C   0  0  0  0  0  0  0  0  0  0  0  0
  -13.6490  -12.5275  -38.1794 C   0  0  2  0  0  0  0  0  0  0  0  0
  -12.6278  -13.6110  -38.4523 C   0  0  0  0  0  0  0  0  0  0  0  0
  -13.5326  -12.0524  -36.7500 C   0  0  2  0  0  0  0  0  0  0  0  0
  -13.6217  -13.1403  -35.8177 N   0  0  0  0  0  0  0  0  0  0  0  0
  -14.5259  -10.9857  -36.4483 C   0  0  0  0  0  0  0  0  0  0  0  0
  -15.0863  -10.4215  -37.4223 O   0  0  0  0  0  0  0  0  0  0  0  0
  -17.0947   -9.7848  -34.7238 C   0  0  0  0  0  0  0  0  0  0  0  0
  -16.1176  -10.9523  -34.5725 C   0  0  2  0  0  0  0  0  0  0  0  0
  -14.8519  -10.5958  -35.1379 N   0  0  0  0  0  0  0  0  0  0  0  0
  -16.7430  -12.1071  -35.2705 C   0  0  0  0  0  0  0  0  0  0  0  0
  -16.2343  -12.4709  -36.5019 O   0  0  0  0  0  0  0  0  0  0  0  0
  -17.7061  -12.7543  -34.7835 O   0  0  0  0  0  0  0  0  0  0  0  0
  2  1  1  1
  3  2  1  0
  4  3  1  0
  5  2  1  0
  6  5  2  0
  8  7  1  1
  8 10  1  0
  9  8  1  0
 10 11  1  1
 11  5  1  0
 12 10  1  0
 12 16  1  0
 13 12  2  0
 15 16  1  0
 15 14  1  6
 17 15  1  0
 17 18  1  0
 19 17  2  0
M  END
$$$$
