CVA.pdb
     RDKit          3D

 19 18  0  0  1  0  0  0  0  0999 V2000
   16.3783  -11.1269  -15.3452 N   0  0  0  0  0  0  0  0  0  0  0  0
   17.2341  -10.3031  -16.1896 C   0  0  1  0  0  0  0  0  0  0  0  0
   16.3661   -9.2326  -16.8183 C   0  0  0  0  0  0  0  0  0  0  0  0
   15.2856  -10.0117  -18.0335 S   0  0  0  0  0  0  0  0  0  0  0  0
   18.3106   -9.6758  -15.3678 C   0  0  0  0  0  0  0  0  0  0  0  0
   18.0484   -9.2904  -14.2018 O   0  0  0  0  0  0  0  0  0  0  0  0
   21.6405  -11.2341  -14.6331 C   0  0  0  0  0  0  0  0  0  0  0  0
   21.9244   -9.8438  -15.1396 C   0  0  2  0  0  0  0  0  0  0  0  0
   23.0530   -9.1963  -14.3659 C   0  0  0  0  0  0  0  0  0  0  0  0
   20.6732   -9.0036  -15.0335 C   0  0  2  0  0  0  0  0  0  0  0  0
   19.6218   -9.5049  -15.8726 N   0  0  0  0  0  0  0  0  0  0  0  0
   20.9570   -7.5678  -15.3045 C   0  0  0  0  0  0  0  0  0  0  0  0
   21.4765   -7.2773  -16.4120 O   0  0  0  0  0  0  0  0  0  0  0  0
   20.0491   -4.2348  -14.0221 C   0  0  0  0  0  0  0  0  0  0  0  0
   21.0553   -5.1960  -14.6580 C   0  0  2  0  0  0  0  0  0  0  0  0
   20.6697   -6.5466  -14.3825 N   0  0  0  0  0  0  0  0  0  0  0  0
   22.3789   -4.8556  -14.0714 C   0  0  0  0  0  0  0  0  0  0  0  0
   23.2254   -4.0514  -14.8091 O   0  0  0  0  0  0  0  0  0  0  0  0
   22.7477   -5.2698  -12.9419 O   0  0  0  0  0  0  0  0  0  0  0  0
  2  1  1  1
  3  2  1  0
  4  3  1  0
  5  2  1  0
  6  5  2  0
  8  7  1  1
  8 10  1  0
  9  8  1  0
 10 11  1  6
 11  5  1  0
 12 10  1  0
 12 16  1  0
 13 12  2  0
 15 16  1  0
 15 14  1  1
 17 15  1  0
 17 18  1  0
 19 17  2  0
M  END
$$$$
