CVA.pdb
     RDKit          3D

 19 18  0  0  1  0  0  0  0  0999 V2000
   16.0784   -9.3728  -12.5960 N   0  0  0  0  0  0  0  0  0  0  0  0
   16.5635   -8.9032  -13.8876 C   0  0  1  0  0  0  0  0  0  0  0  0
   15.7466   -7.6863  -14.2706 C   0  0  0  0  0  0  0  0  0  0  0  0
   14.0826   -8.2272  -14.7064 S   0  0  0  0  0  0  0  0  0  0  0  0
   18.0086   -8.5430  -13.7901 C   0  0  0  0  0  0  0  0  0  0  0  0
   18.4730   -8.1567  -12.6892 O   0  0  0  0  0  0  0  0  0  0  0  0
   20.7369  -10.8440  -15.1030 C   0  0  0  0  0  0  0  0  0  0  0  0
   21.0664   -9.4524  -15.5772 C   0  0  2  0  0  0  0  0  0  0  0  0
   22.5497   -9.1710  -15.4680 C   0  0  0  0  0  0  0  0  0  0  0  0
   20.2856   -8.4454  -14.7655 C   0  0  2  0  0  0  0  0  0  0  0  0
   18.8690   -8.6268  -14.9108 N   0  0  0  0  0  0  0  0  0  0  0  0
   20.6981   -7.0514  -15.0849 C   0  0  0  0  0  0  0  0  0  0  0  0
   20.3953   -6.6015  -16.2193 O   0  0  0  0  0  0  0  0  0  0  0  0
   22.1350   -4.1346  -13.2324 C   0  0  0  0  0  0  0  0  0  0  0  0
   21.6469   -4.8616  -14.4868 C   0  0  2  0  0  0  0  0  0  0  0  0
   21.4006   -6.2376  -14.1794 N   0  0  0  0  0  0  0  0  0  0  0  0
   22.7181   -4.6931  -15.5047 C   0  0  0  0  0  0  0  0  0  0  0  0
   22.6709   -3.5749  -16.3139 O   0  0  0  0  0  0  0  0  0  0  0  0
   23.6523   -5.5234  -15.6510 O   0  0  0  0  0  0  0  0  0  0  0  0
  2  1  1  1
  3  2  1  0
  4  3  1  0
  5  2  1  0
  6  5  2  0
  8  7  1  1
  8 10  1  0
  9  8  1  0
 10 11  1  6
 11  5  1  0
 12 10  1  0
 12 16  1  0
 13 12  2  0
 15 16  1  0
 15 14  1  1
 17 15  1  0
 17 18  1  0
 19 17  2  0
M  END
$$$$
