QYM.pdb
     RDKit          3D

 30 30  0  0  1  0  0  0  0  0999 V2000
    3.5097  -21.7548   23.8174 N   0  0  0  0  0  0  0  0  0  0  0  0
    4.3637  -22.1136   22.7336 C   0  0  0  0  0  0  0  0  0  0  0  0
    4.2936  -23.3070   22.3650 O   0  0  0  0  0  0  0  0  0  0  0  0
    5.2690  -21.2021   22.0644 C   0  0  0  0  0  0  0  0  0  0  0  0
    5.3254  -19.7936   22.4708 C   0  0  0  0  0  0  0  0  0  0  0  0
    5.9376  -18.8092   21.5374 C   0  0  2  0  0  0  0  0  0  0  0  0
    6.4559  -19.3195   20.3137 N   0  0  0  0  0  0  0  0  0  0  0  0
    6.9402  -17.9447   22.2152 C   0  0  0  0  0  0  0  0  0  0  0  0
    8.1009  -18.3988   22.4993 O   0  0  0  0  0  0  0  0  0  0  0  0
    8.4841  -12.5649   17.7903 O   0  0  0  0  0  0  0  0  0  0  0  0
    8.2192  -13.0080   19.0715 C   0  0  0  0  0  0  0  0  0  0  0  0
    6.9398  -13.3341   19.4240 C   0  0  0  0  0  0  0  0  0  0  0  0
    6.6975  -13.7783   20.7214 C   0  0  0  0  0  0  0  0  0  0  0  0
    7.7157  -13.8940   21.6486 C   0  0  0  0  0  0  0  0  0  0  0  0
    7.4507  -14.3595   23.0161 C   0  0  0  0  0  0  0  0  0  0  0  0
    7.7519  -15.8246   23.2193 C   0  0  2  0  0  0  0  0  0  0  0  0
    6.6768  -16.6057   22.5742 N   0  0  0  0  0  0  0  0  0  0  0  0
    7.7197  -16.1893   24.6791 C   0  0  0  0  0  0  0  0  0  0  0  0
    6.6137  -16.3267   25.2824 O   0  0  0  0  0  0  0  0  0  0  0  0
    8.9900  -13.5481   21.2292 C   0  0  0  0  0  0  0  0  0  0  0  0
    9.2680  -13.1045   19.9531 C   0  0  0  0  0  0  0  0  0  0  0  0
    6.2737  -21.3654   28.7032 C   0  0  0  0  0  0  0  0  0  0  0  0
    7.8320  -20.9280   27.8646 S   0  0  0  0  0  0  0  0  0  0  0  0
    8.2175  -19.2221   27.8541 C   0  0  0  0  0  0  0  0  0  0  0  0
    8.3305  -18.3991   26.6543 C   0  0  0  0  0  0  0  0  0  0  0  0
    8.7665  -17.0028   26.7960 C   0  0  2  0  0  0  0  0  0  0  0  0
    8.8947  -16.3900   25.4224 N   0  0  0  0  0  0  0  0  0  0  0  0
   10.2472  -17.0317   27.1540 C   0  0  0  0  0  0  0  0  0  0  0  0
   11.0538  -16.7502   26.1892 O   0  0  0  0  0  0  0  0  0  0  0  0
   10.7706  -17.3194   28.3525 O   0  0  0  0  0  0  0  0  0  0  0  0
  1  2  1  0
  2  4  1  0
  3  2  2  0
  4  5  1  0
  6  5  1  0
  6  7  1  6
  8  6  1  0
  9  8  2  0
 10 11  1  0
 11 21  2  0
 12 13  2  0
 12 11  1  0
 13 14  1  0
 14 15  1  0
 14 20  2  0
 16 15  1  1
 16 18  1  0
 16 17  1  0
 17  8  1  0
 18 19  2  0
 21 20  1  0
 22 23  1  0
 23 24  1  0
 25 24  1  0
 26 25  1  6
 27 26  1  0
 27 18  1  0
 28 30  1  0
 28 26  1  0
 29 28  2  0
M  END
$$$$
