QYM.pdb
     RDKit          3D

 30 30  0  0  1  0  0  0  0  0999 V2000
    7.2406  -17.3466   16.2904 N   0  0  0  0  0  0  0  0  0  0  0  0
    8.3849  -16.9029   15.5646 C   0  0  0  0  0  0  0  0  0  0  0  0
    8.1855  -16.6268   14.3610 O   0  0  0  0  0  0  0  0  0  0  0  0
    9.7110  -16.7596   16.1293 C   0  0  0  0  0  0  0  0  0  0  0  0
    9.9608  -17.1442   17.5229 C   0  0  0  0  0  0  0  0  0  0  0  0
    9.5745  -16.1946   18.6018 C   0  0  2  0  0  0  0  0  0  0  0  0
    9.4557  -14.8231   18.2393 N   0  0  0  0  0  0  0  0  0  0  0  0
   10.4243  -16.3484   19.8127 C   0  0  0  0  0  0  0  0  0  0  0  0
   10.8136  -17.5066   20.1882 O   0  0  0  0  0  0  0  0  0  0  0  0
   16.1300  -16.4863   17.4562 O   0  0  0  0  0  0  0  0  0  0  0  0
   15.3429  -16.0782   18.5154 C   0  0  0  0  0  0  0  0  0  0  0  0
   15.1051  -16.9364   19.5519 C   0  0  0  0  0  0  0  0  0  0  0  0
   14.3084  -16.5024   20.6085 C   0  0  0  0  0  0  0  0  0  0  0  0
   13.7600  -15.2341   20.6276 C   0  0  0  0  0  0  0  0  0  0  0  0
   12.9174  -14.7858   21.7439 C   0  0  0  0  0  0  0  0  0  0  0  0
   11.6024  -15.5216   21.8351 C   0  0  2  0  0  0  0  0  0  0  0  0
   10.8418  -15.2527   20.5976 N   0  0  0  0  0  0  0  0  0  0  0  0
   10.7626  -14.9964   22.9682 C   0  0  0  0  0  0  0  0  0  0  0  0
   10.5753  -13.7504   23.1048 O   0  0  0  0  0  0  0  0  0  0  0  0
   14.0386  -14.4124   19.5475 C   0  0  0  0  0  0  0  0  0  0  0  0
   14.8230  -14.8074   18.4838 C   0  0  0  0  0  0  0  0  0  0  0  0
    5.6197  -12.3488   27.0302 C   0  0  0  0  0  0  0  0  0  0  0  0
    7.1405  -12.8403   26.1535 S   0  0  0  0  0  0  0  0  0  0  0  0
    6.9523  -14.1582   25.0194 C   0  0  0  0  0  0  0  0  0  0  0  0
    8.0317  -14.7382   24.2268 C   0  0  0  0  0  0  0  0  0  0  0  0
    9.2255  -15.2393   24.9220 C   0  0  2  0  0  0  0  0  0  0  0  0
   10.1606  -15.8508   23.9067 N   0  0  0  0  0  0  0  0  0  0  0  0
    8.8204  -16.5226   25.6365 C   0  0  0  0  0  0  0  0  0  0  0  0
    8.9176  -17.5992   24.9349 O   0  0  0  0  0  0  0  0  0  0  0  0
    8.3804  -16.6266   26.8970 O   0  0  0  0  0  0  0  0  0  0  0  0
  1  2  1  0
  2  4  1  0
  3  2  2  0
  4  5  1  0
  6  5  1  0
  6  7  1  6
  8  6  1  0
  9  8  2  0
 10 11  1  0
 11 21  2  0
 12 13  2  0
 12 11  1  0
 13 14  1  0
 14 15  1  0
 14 20  2  0
 16 15  1  6
 16 18  1  0
 16 17  1  0
 17  8  1  0
 18 19  2  0
 21 20  1  0
 22 23  1  0
 23 24  1  0
 25 24  1  0
 26 25  1  6
 27 26  1  0
 27 18  1  0
 28 30  1  0
 28 26  1  0
 29 28  2  0
M  END
$$$$
