QYM.pdb
     RDKit          3D

 30 30  0  0  1  0  0  0  0  0999 V2000
   12.4616  -16.8808   16.0317 N   0  0  0  0  0  0  0  0  0  0  0  0
   11.0579  -17.0058   16.2479 C   0  0  0  0  0  0  0  0  0  0  0  0
   10.3709  -17.2075   15.2221 O   0  0  0  0  0  0  0  0  0  0  0  0
   10.4150  -16.9168   17.5428 C   0  0  0  0  0  0  0  0  0  0  0  0
   11.2275  -16.8191   18.7604 C   0  0  0  0  0  0  0  0  0  0  0  0
   10.8659  -17.6715   19.9257 C   0  0  2  0  0  0  0  0  0  0  0  0
    9.8795  -18.6743   19.7074 N   0  0  0  0  0  0  0  0  0  0  0  0
   10.5381  -16.8624   21.1298 C   0  0  0  0  0  0  0  0  0  0  0  0
   11.3330  -15.9447   21.5300 O   0  0  0  0  0  0  0  0  0  0  0  0
    6.2848  -11.9154   26.8517 O   0  0  0  0  0  0  0  0  0  0  0  0
    6.6225  -12.8822   25.9247 C   0  0  0  0  0  0  0  0  0  0  0  0
    7.2657  -12.5215   24.7743 C   0  0  0  0  0  0  0  0  0  0  0  0
    7.5958  -13.5140   23.8547 C   0  0  0  0  0  0  0  0  0  0  0  0
    7.2879  -14.8420   24.0819 C   0  0  0  0  0  0  0  0  0  0  0  0
    7.6360  -15.8819   23.1048 C   0  0  0  0  0  0  0  0  0  0  0  0
    9.1153  -16.1765   23.0447 C   0  0  2  0  0  0  0  0  0  0  0  0
    9.3595  -17.0538   21.8816 N   0  0  0  0  0  0  0  0  0  0  0  0
    9.5660  -16.9477   24.2560 C   0  0  0  0  0  0  0  0  0  0  0  0
    9.8821  -18.1711   24.1574 O   0  0  0  0  0  0  0  0  0  0  0  0
    6.6358  -15.1424   25.2667 C   0  0  0  0  0  0  0  0  0  0  0  0
    6.2932  -14.1868   26.2006 C   0  0  0  0  0  0  0  0  0  0  0  0
    8.5816  -13.2220   28.4178 C   0  0  0  0  0  0  0  0  0  0  0  0
   10.3886  -13.4474   28.4995 S   0  0  0  0  0  0  0  0  0  0  0  0
   11.0092  -14.8129   27.6001 C   0  0  0  0  0  0  0  0  0  0  0  0
   10.5652  -16.1931   27.7659 C   0  0  0  0  0  0  0  0  0  0  0  0
   10.4811  -17.0538   26.5777 C   0  0  2  0  0  0  0  0  0  0  0  0
    9.6544  -16.3541   25.5261 N   0  0  0  0  0  0  0  0  0  0  0  0
    9.5018  -18.1739   26.9062 C   0  0  0  0  0  0  0  0  0  0  0  0
    9.8877  -18.9932   27.8230 O   0  0  0  0  0  0  0  0  0  0  0  0
    8.3066  -18.3779   26.3378 O   0  0  0  0  0  0  0  0  0  0  0  0
  1  2  1  0
  2  4  1  0
  3  2  2  0
  4  5  1  0
  6  5  1  0
  6  7  1  6
  8  6  1  0
  9  8  2  0
 10 11  1  0
 11 21  2  0
 12 13  2  0
 12 11  1  0
 13 14  1  0
 14 15  1  0
 14 20  2  0
 16 15  1  1
 16 18  1  0
 16 17  1  0
 17  8  1  0
 18 19  2  0
 21 20  1  0
 22 23  1  0
 23 24  1  0
 25 24  1  0
 26 25  1  1
 27 26  1  0
 27 18  1  0
 28 30  1  0
 28 26  1  0
 29 28  2  0
M  END
$$$$
