QYM.pdb
     RDKit          3D

 30 30  0  0  1  0  0  0  0  0999 V2000
   10.6619  -22.3340   21.2986 N   0  0  0  0  0  0  0  0  0  0  0  0
   11.7221  -21.3849   21.3876 C   0  0  0  0  0  0  0  0  0  0  0  0
   12.7376  -21.7685   22.0092 O   0  0  0  0  0  0  0  0  0  0  0  0
   11.6840  -20.0547   20.8155 C   0  0  0  0  0  0  0  0  0  0  0  0
   10.5155  -19.6221   20.0411 C   0  0  0  0  0  0  0  0  0  0  0  0
   10.4718  -18.2194   19.5453 C   0  0  2  0  0  0  0  0  0  0  0  0
   11.4698  -17.8385   18.6044 N   0  0  0  0  0  0  0  0  0  0  0  0
   10.3928  -17.2355   20.6578 C   0  0  0  0  0  0  0  0  0  0  0  0
   11.3898  -16.4829   20.9293 O   0  0  0  0  0  0  0  0  0  0  0  0
    7.0968  -12.4439   17.7311 O   0  0  0  0  0  0  0  0  0  0  0  0
    7.2991  -13.1604   18.8945 C   0  0  0  0  0  0  0  0  0  0  0  0
    6.8490  -14.4476   18.9836 C   0  0  0  0  0  0  0  0  0  0  0  0
    7.0646  -15.1498   20.1667 C   0  0  0  0  0  0  0  0  0  0  0  0
    7.7180  -14.5750   21.2404 C   0  0  0  0  0  0  0  0  0  0  0  0
    7.9376  -15.3214   22.4861 C   0  0  0  0  0  0  0  0  0  0  0  0
    9.2578  -16.0525   22.5217 C   0  0  2  0  0  0  0  0  0  0  0  0
    9.2413  -17.0773   21.4579 N   0  0  0  0  0  0  0  0  0  0  0  0
    9.4337  -16.7949   23.8190 C   0  0  0  0  0  0  0  0  0  0  0  0
    9.4381  -18.0621   23.8383 O   0  0  0  0  0  0  0  0  0  0  0  0
    8.1497  -13.2676   21.0869 C   0  0  0  0  0  0  0  0  0  0  0  0
    7.9543  -12.5412   19.9307 C   0  0  0  0  0  0  0  0  0  0  0  0
    9.8783  -12.7084   29.7586 C   0  0  0  0  0  0  0  0  0  0  0  0
   10.2622  -14.4492   29.3779 S   0  0  0  0  0  0  0  0  0  0  0  0
   10.0278  -14.9146   27.7084 C   0  0  0  0  0  0  0  0  0  0  0  0
   11.0773  -15.4132   26.8255 C   0  0  0  0  0  0  0  0  0  0  0  0
   10.7640  -16.5239   25.9157 C   0  0  2  0  0  0  0  0  0  0  0  0
    9.5981  -16.1259   25.0432 N   0  0  0  0  0  0  0  0  0  0  0  0
   10.0560  -17.5910   26.7412 C   0  0  0  0  0  0  0  0  0  0  0  0
    8.7841  -17.6800   26.5541 O   0  0  0  0  0  0  0  0  0  0  0  0
   10.6251  -18.4216   27.6241 O   0  0  0  0  0  0  0  0  0  0  0  0
  1  2  1  0
  2  4  1  0
  3  2  2  0
  4  5  1  0
  6  5  1  0
  6  7  1  1
  8  6  1  0
  9  8  2  0
 10 11  1  0
 11 21  2  0
 12 13  2  0
 12 11  1  0
 13 14  1  0
 14 15  1  0
 14 20  2  0
 16 15  1  1
 16 18  1  0
 16 17  1  0
 17  8  1  0
 18 19  2  0
 21 20  1  0
 22 23  1  0
 23 24  1  0
 25 24  1  0
 26 25  1  1
 27 26  1  0
 27 18  1  0
 28 30  1  0
 28 26  1  0
 29 28  2  0
M  END
$$$$
