QYM.pdb
     RDKit          3D

 30 30  0  0  1  0  0  0  0  0999 V2000
   10.1248  -13.3061   19.2478 N   0  0  0  0  0  0  0  0  0  0  0  0
    8.9391  -13.1915   18.4644 C   0  0  0  0  0  0  0  0  0  0  0  0
    9.1182  -13.0137   17.2392 O   0  0  0  0  0  0  0  0  0  0  0  0
    7.5934  -13.2700   18.9946 C   0  0  0  0  0  0  0  0  0  0  0  0
    7.3518  -13.9127   20.2911 C   0  0  0  0  0  0  0  0  0  0  0  0
    7.4893  -15.3915   20.3872 C   0  0  2  0  0  0  0  0  0  0  0  0
    6.6838  -16.1707   19.5095 N   0  0  0  0  0  0  0  0  0  0  0  0
    7.3627  -15.8749   21.7880 C   0  0  0  0  0  0  0  0  0  0  0  0
    6.2288  -15.8618   22.3780 O   0  0  0  0  0  0  0  0  0  0  0  0
    8.4673  -20.4164   29.1747 O   0  0  0  0  0  0  0  0  0  0  0  0
    8.5238  -19.8958   27.8965 C   0  0  0  0  0  0  0  0  0  0  0  0
    9.7372  -19.6282   27.3278 C   0  0  0  0  0  0  0  0  0  0  0  0
    9.7688  -19.1036   26.0381 C   0  0  0  0  0  0  0  0  0  0  0  0
    8.6085  -18.8515   25.3310 C   0  0  0  0  0  0  0  0  0  0  0  0
    8.6508  -18.2942   23.9728 C   0  0  0  0  0  0  0  0  0  0  0  0
    8.2192  -16.8493   23.9043 C   0  0  2  0  0  0  0  0  0  0  0  0
    8.4585  -16.3657   22.5292 N   0  0  0  0  0  0  0  0  0  0  0  0
    9.0604  -15.9870   24.8064 C   0  0  0  0  0  0  0  0  0  0  0  0
   10.2292  -15.6420   24.4582 O   0  0  0  0  0  0  0  0  0  0  0  0
    7.4110  -19.1444   25.9629 C   0  0  0  0  0  0  0  0  0  0  0  0
    7.3406  -19.6646   27.2386 C   0  0  0  0  0  0  0  0  0  0  0  0
    5.1093  -12.3936   27.6476 C   0  0  0  0  0  0  0  0  0  0  0  0
    6.6742  -11.5810   27.1853 S   0  0  0  0  0  0  0  0  0  0  0  0
    7.9382  -12.6585   26.6374 C   0  0  0  0  0  0  0  0  0  0  0  0
    8.6718  -13.5872   27.4912 C   0  0  0  0  0  0  0  0  0  0  0  0
    9.4925  -14.6287   26.8576 C   0  0  2  0  0  0  0  0  0  0  0  0
    8.5936  -15.5351   26.0519 N   0  0  0  0  0  0  0  0  0  0  0  0
    9.8727  -15.6225   27.9481 C   0  0  0  0  0  0  0  0  0  0  0  0
    9.0779  -16.6283   28.0797 O   0  0  0  0  0  0  0  0  0  0  0  0
   10.9321  -15.5426   28.7633 O   0  0  0  0  0  0  0  0  0  0  0  0
  1  2  1  0
  2  4  1  0
  3  2  2  0
  4  5  1  0
  6  5  1  0
  6  7  1  6
  8  6  1  0
  9  8  2  0
 10 11  1  0
 11 21  2  0
 12 13  2  0
 12 11  1  0
 13 14  1  0
 14 15  1  0
 14 20  2  0
 16 15  1  6
 16 18  1  0
 16 17  1  0
 17  8  1  0
 18 19  2  0
 21 20  1  0
 22 23  1  0
 23 24  1  0
 25 24  1  0
 26 25  1  1
 27 26  1  0
 27 18  1  0
 28 30  1  0
 28 26  1  0
 29 28  2  0
M  END
$$$$
