QYM.pdb
     RDKit          3D

 30 30  0  0  1  0  0  0  0  0999 V2000
   14.0876  -15.0607   19.4266 N   0  0  0  0  0  0  0  0  0  0  0  0
   12.8577  -14.3995   19.7150 C   0  0  0  0  0  0  0  0  0  0  0  0
   12.9291  -13.1561   19.8313 O   0  0  0  0  0  0  0  0  0  0  0  0
   11.5824  -15.0684   19.8709 C   0  0  0  0  0  0  0  0  0  0  0  0
   11.4890  -16.5215   19.6916 C   0  0  0  0  0  0  0  0  0  0  0  0
   10.1490  -17.1632   19.7797 C   0  0  2  0  0  0  0  0  0  0  0  0
    9.1474  -16.6857   18.8880 N   0  0  0  0  0  0  0  0  0  0  0  0
    9.6378  -17.2006   21.1759 C   0  0  0  0  0  0  0  0  0  0  0  0
    8.4922  -16.7095   21.4598 O   0  0  0  0  0  0  0  0  0  0  0  0
    8.3187  -20.0306   29.4047 O   0  0  0  0  0  0  0  0  0  0  0  0
    8.8293  -19.8048   28.1412 C   0  0  0  0  0  0  0  0  0  0  0  0
   10.1154  -19.3651   27.9996 C   0  0  0  0  0  0  0  0  0  0  0  0
   10.6078  -19.1444   26.7158 C   0  0  0  0  0  0  0  0  0  0  0  0
    9.8283  -19.3593   25.5950 C   0  0  0  0  0  0  0  0  0  0  0  0
   10.3542  -19.1201   24.2447 C   0  0  0  0  0  0  0  0  0  0  0  0
    9.6839  -17.9680   23.5361 C   0  0  2  0  0  0  0  0  0  0  0  0
   10.3677  -17.7674   22.2422 N   0  0  0  0  0  0  0  0  0  0  0  0
    9.8518  -16.6849   24.3046 C   0  0  0  0  0  0  0  0  0  0  0  0
   10.9334  -16.0285   24.2300 O   0  0  0  0  0  0  0  0  0  0  0  0
    8.5336  -19.8050   25.8058 C   0  0  0  0  0  0  0  0  0  0  0  0
    8.0116  -20.0346   27.0618 C   0  0  0  0  0  0  0  0  0  0  0  0
    4.8127  -12.6898   26.8207 C   0  0  0  0  0  0  0  0  0  0  0  0
    6.4202  -11.8327   26.8849 S   0  0  0  0  0  0  0  0  0  0  0  0
    7.8202  -12.8614   26.6829 C   0  0  0  0  0  0  0  0  0  0  0  0
    7.8213  -14.1418   25.9829 C   0  0  0  0  0  0  0  0  0  0  0  0
    9.0930  -14.8636   25.8363 C   0  0  2  0  0  0  0  0  0  0  0  0
    8.8337  -16.1687   25.1232 N   0  0  0  0  0  0  0  0  0  0  0  0
    9.4419  -15.4357   27.2046 C   0  0  0  0  0  0  0  0  0  0  0  0
    8.7637  -16.4727   27.5586 O   0  0  0  0  0  0  0  0  0  0  0  0
   10.3664  -14.9652   28.0515 O   0  0  0  0  0  0  0  0  0  0  0  0
  1  2  1  0
  2  4  1  0
  3  2  2  0
  4  5  1  0
  6  5  1  0
  6  7  1  6
  8  6  1  0
  9  8  2  0
 10 11  1  0
 11 21  2  0
 12 13  2  0
 12 11  1  0
 13 14  1  0
 14 15  1  0
 14 20  2  0
 16 15  1  1
 16 18  1  0
 16 17  1  0
 17  8  1  0
 18 19  2  0
 21 20  1  0
 22 23  1  0
 23 24  1  0
 25 24  1  0
 26 25  1  1
 27 26  1  0
 27 18  1  0
 28 30  1  0
 28 26  1  0
 29 28  2  0
M  END
$$$$
