QYM.pdb
     RDKit          3D

 30 30  0  0  1  0  0  0  0  0999 V2000
    8.9343  -12.5285   17.5639 N   0  0  0  0  0  0  0  0  0  0  0  0
    8.0409  -13.4840   16.9966 C   0  0  0  0  0  0  0  0  0  0  0  0
    7.7400  -13.2943   15.7973 O   0  0  0  0  0  0  0  0  0  0  0  0
    7.4895  -14.6177   17.7098 C   0  0  0  0  0  0  0  0  0  0  0  0
    7.8163  -14.8240   19.1251 C   0  0  0  0  0  0  0  0  0  0  0  0
    8.4656  -16.1021   19.5250 C   0  0  2  0  0  0  0  0  0  0  0  0
    8.3476  -17.1942   18.6196 N   0  0  0  0  0  0  0  0  0  0  0  0
    8.0854  -16.5154   20.9022 C   0  0  0  0  0  0  0  0  0  0  0  0
    6.9546  -16.1753   21.3918 O   0  0  0  0  0  0  0  0  0  0  0  0
    8.1268  -20.0846   28.9522 O   0  0  0  0  0  0  0  0  0  0  0  0
    8.4267  -19.7529   27.6453 C   0  0  0  0  0  0  0  0  0  0  0  0
    9.6653  -19.2641   27.3382 C   0  0  0  0  0  0  0  0  0  0  0  0
    9.9441  -18.9366   26.0137 C   0  0  0  0  0  0  0  0  0  0  0  0
    9.0016  -19.0950   25.0154 C   0  0  0  0  0  0  0  0  0  0  0  0
    9.3026  -18.7432   23.6216 C   0  0  0  0  0  0  0  0  0  0  0  0
    8.4881  -17.5807   23.1078 C   0  0  2  0  0  0  0  0  0  0  0  0
    8.9282  -17.2889   21.7282 N   0  0  0  0  0  0  0  0  0  0  0  0
    8.7547  -16.3340   23.9076 C   0  0  0  0  0  0  0  0  0  0  0  0
    9.8086  -15.6580   23.7110 O   0  0  0  0  0  0  0  0  0  0  0  0
    7.7656  -19.5949   25.3915 C   0  0  0  0  0  0  0  0  0  0  0  0
    7.4533  -19.9302   26.6926 C   0  0  0  0  0  0  0  0  0  0  0  0
    5.8497   -9.9148   26.7595 C   0  0  0  0  0  0  0  0  0  0  0  0
    5.7014  -11.6736   27.2154 S   0  0  0  0  0  0  0  0  0  0  0  0
    7.0635  -12.6752   26.7683 C   0  0  0  0  0  0  0  0  0  0  0  0
    6.9706  -13.9274   26.0247 C   0  0  0  0  0  0  0  0  0  0  0  0
    8.2127  -14.6039   25.6257 C   0  0  2  0  0  0  0  0  0  0  0  0
    7.8615  -15.8741   24.8894 N   0  0  0  0  0  0  0  0  0  0  0  0
    8.7969  -15.2411   26.8804 C   0  0  0  0  0  0  0  0  0  0  0  0
    8.1962  -16.3052   27.2899 O   0  0  0  0  0  0  0  0  0  0  0  0
    9.8515  -14.8015   27.5788 O   0  0  0  0  0  0  0  0  0  0  0  0
  1  2  1  0
  2  4  1  0
  3  2  2  0
  4  5  1  0
  6  5  1  0
  6  7  1  6
  8  6  1  0
  9  8  2  0
 10 11  1  0
 11 21  2  0
 12 13  2  0
 12 11  1  0
 13 14  1  0
 14 15  1  0
 14 20  2  0
 16 15  1  1
 16 18  1  0
 16 17  1  0
 17  8  1  0
 18 19  2  0
 21 20  1  0
 22 23  1  0
 23 24  1  0
 25 24  1  0
 26 25  1  1
 27 26  1  0
 27 18  1  0
 28 30  1  0
 28 26  1  0
 29 28  2  0
M  END
$$$$
