QYM.pdb
     RDKit          3D

 30 30  0  0  1  0  0  0  0  0999 V2000
   12.7526  -17.3153   15.7004 N   0  0  0  0  0  0  0  0  0  0  0  0
   11.4212  -17.3813   16.2062 C   0  0  0  0  0  0  0  0  0  0  0  0
   10.6220  -18.0672   15.5312 O   0  0  0  0  0  0  0  0  0  0  0  0
   10.9678  -16.7230   17.4142 C   0  0  0  0  0  0  0  0  0  0  0  0
   11.6910  -16.9235   18.6749 C   0  0  0  0  0  0  0  0  0  0  0  0
   11.0183  -17.6781   19.7672 C   0  0  2  0  0  0  0  0  0  0  0  0
    9.9049  -18.4855   19.3999 N   0  0  0  0  0  0  0  0  0  0  0  0
   10.6788  -16.8055   20.9227 C   0  0  0  0  0  0  0  0  0  0  0  0
   11.5327  -15.9692   21.3760 O   0  0  0  0  0  0  0  0  0  0  0  0
    6.3990  -12.2155   27.0552 O   0  0  0  0  0  0  0  0  0  0  0  0
    6.7308  -13.0854   26.0349 C   0  0  0  0  0  0  0  0  0  0  0  0
    7.3671  -12.6119   24.9220 C   0  0  0  0  0  0  0  0  0  0  0  0
    7.6914  -13.5080   23.9065 C   0  0  0  0  0  0  0  0  0  0  0  0
    7.3849  -14.8521   24.0026 C   0  0  0  0  0  0  0  0  0  0  0  0
    7.7269  -15.7897   22.9250 C   0  0  0  0  0  0  0  0  0  0  0  0
    9.2134  -15.9863   22.7512 C   0  0  2  0  0  0  0  0  0  0  0  0
    9.4254  -16.8469   21.5694 N   0  0  0  0  0  0  0  0  0  0  0  0
    9.8050  -16.7247   23.9215 C   0  0  0  0  0  0  0  0  0  0  0  0
   10.0694  -17.9611   23.8337 O   0  0  0  0  0  0  0  0  0  0  0  0
    6.7400  -15.2690   25.1556 C   0  0  0  0  0  0  0  0  0  0  0  0
    6.4031  -14.4110   26.1818 C   0  0  0  0  0  0  0  0  0  0  0  0
    8.4263  -13.4670   29.6952 C   0  0  0  0  0  0  0  0  0  0  0  0
   10.0160  -14.2640   29.2947 S   0  0  0  0  0  0  0  0  0  0  0  0
    9.9939  -15.3019   27.8871 C   0  0  0  0  0  0  0  0  0  0  0  0
   11.1681  -15.9426   27.3037 C   0  0  0  0  0  0  0  0  0  0  0  0
   10.9907  -16.7937   26.1189 C   0  0  2  0  0  0  0  0  0  0  0  0
   10.0849  -16.0855   25.1407 N   0  0  0  0  0  0  0  0  0  0  0  0
   10.0392  -17.9162   26.5140 C   0  0  0  0  0  0  0  0  0  0  0  0
    8.8429  -17.8162   26.0455 O   0  0  0  0  0  0  0  0  0  0  0  0
   10.3293  -18.9695   27.2884 O   0  0  0  0  0  0  0  0  0  0  0  0
  1  2  1  0
  2  4  1  0
  3  2  2  0
  4  5  1  0
  6  5  1  0
  6  7  1  6
  8  6  1  0
  9  8  2  0
 10 11  1  0
 11 21  2  0
 12 13  2  0
 12 11  1  0
 13 14  1  0
 14 15  1  0
 14 20  2  0
 16 15  1  1
 16 18  1  0
 16 17  1  0
 17  8  1  0
 18 19  2  0
 21 20  1  0
 22 23  1  0
 23 24  1  0
 25 24  1  0
 26 25  1  1
 27 26  1  0
 27 18  1  0
 28 30  1  0
 28 26  1  0
 29 28  2  0
M  END
$$$$
