QYM.pdb
     RDKit          3D

 30 30  0  0  1  0  0  0  0  0999 V2000
    8.1847  -13.0987   15.8592 N   0  0  0  0  0  0  0  0  0  0  0  0
    8.1360  -14.5183   15.7366 C   0  0  0  0  0  0  0  0  0  0  0  0
    7.5217  -14.9518   14.7368 O   0  0  0  0  0  0  0  0  0  0  0  0
    8.7396  -15.4449   16.6721 C   0  0  0  0  0  0  0  0  0  0  0  0
    9.4533  -14.9383   17.8496 C   0  0  0  0  0  0  0  0  0  0  0  0
    9.8782  -15.9092   18.8946 C   0  0  2  0  0  0  0  0  0  0  0  0
    9.3228  -17.2178   18.8204 N   0  0  0  0  0  0  0  0  0  0  0  0
    9.7353  -15.3525   20.2663 C   0  0  0  0  0  0  0  0  0  0  0  0
   10.3563  -14.2864   20.6008 O   0  0  0  0  0  0  0  0  0  0  0  0
    5.8711  -12.2014   27.3625 O   0  0  0  0  0  0  0  0  0  0  0  0
    6.2110  -12.9307   26.2397 C   0  0  0  0  0  0  0  0  0  0  0  0
    6.7620  -12.2965   25.1619 C   0  0  0  0  0  0  0  0  0  0  0  0
    7.0963  -13.0528   24.0414 C   0  0  0  0  0  0  0  0  0  0  0  0
    6.8833  -14.4177   24.0000 C   0  0  0  0  0  0  0  0  0  0  0  0
    7.2350  -15.2072   22.8125 C   0  0  0  0  0  0  0  0  0  0  0  0
    8.7171  -15.2320   22.5269 C   0  0  2  0  0  0  0  0  0  0  0  0
    8.9250  -15.9518   21.2538 N   0  0  0  0  0  0  0  0  0  0  0  0
    9.4606  -16.0116   23.5778 C   0  0  0  0  0  0  0  0  0  0  0  0
    9.9466  -17.1507   23.3087 O   0  0  0  0  0  0  0  0  0  0  0  0
    6.3219  -15.0007   25.1243 C   0  0  0  0  0  0  0  0  0  0  0  0
    5.9782  -14.2842   26.2517 C   0  0  0  0  0  0  0  0  0  0  0  0
   11.2152  -13.6740   29.8490 C   0  0  0  0  0  0  0  0  0  0  0  0
   11.6997  -15.4271   29.7277 S   0  0  0  0  0  0  0  0  0  0  0  0
   11.4126  -16.1721   28.1716 C   0  0  0  0  0  0  0  0  0  0  0  0
   10.6512  -15.5666   27.0838 C   0  0  0  0  0  0  0  0  0  0  0  0
   10.5707  -16.2766   25.7997 C   0  0  2  0  0  0  0  0  0  0  0  0
    9.6448  -15.5178   24.8800 N   0  0  0  0  0  0  0  0  0  0  0  0
    9.6920  -17.5014   26.0212 C   0  0  0  0  0  0  0  0  0  0  0  0
    8.4375  -17.3316   25.7801 O   0  0  0  0  0  0  0  0  0  0  0  0
   10.0986  -18.7077   26.4368 O   0  0  0  0  0  0  0  0  0  0  0  0
  1  2  1  0
  2  4  1  0
  3  2  2  0
  4  5  1  0
  6  5  1  0
  6  7  1  1
  8  6  1  0
  9  8  2  0
 10 11  1  0
 11 21  2  0
 12 13  2  0
 12 11  1  0
 13 14  1  0
 14 15  1  0
 14 20  2  0
 16 15  1  1
 16 18  1  0
 16 17  1  0
 17  8  1  0
 18 19  2  0
 21 20  1  0
 22 23  1  0
 23 24  1  0
 25 24  1  0
 26 25  1  1
 27 26  1  0
 27 18  1  0
 28 30  1  0
 28 26  1  0
 29 28  2  0
M  END
$$$$
