QYM.pdb
     RDKit          3D

 30 30  0  0  1  0  0  0  0  0999 V2000
   13.0471  -18.7279   17.3431 N   0  0  0  0  0  0  0  0  0  0  0  0
   11.7824  -18.4177   16.7625 C   0  0  0  0  0  0  0  0  0  0  0  0
   11.4452  -19.1321   15.7926 O   0  0  0  0  0  0  0  0  0  0  0  0
   10.9041  -17.3618   17.2227 C   0  0  0  0  0  0  0  0  0  0  0  0
   11.2311  -16.6144   18.4421 C   0  0  0  0  0  0  0  0  0  0  0  0
   10.9533  -17.2484   19.7596 C   0  0  2  0  0  0  0  0  0  0  0  0
   10.1266  -18.4072   19.7541 N   0  0  0  0  0  0  0  0  0  0  0  0
   10.4729  -16.2625   20.7642 C   0  0  0  0  0  0  0  0  0  0  0  0
   11.1105  -15.1716   20.9578 O   0  0  0  0  0  0  0  0  0  0  0  0
    5.8821  -12.0374   26.9500 O   0  0  0  0  0  0  0  0  0  0  0  0
    6.2789  -12.8696   25.9215 C   0  0  0  0  0  0  0  0  0  0  0  0
    6.1175  -14.2211   26.0438 C   0  0  0  0  0  0  0  0  0  0  0  0
    6.5252  -15.0398   24.9937 C   0  0  0  0  0  0  0  0  0  0  0  0
    7.0838  -14.5164   23.8431 C   0  0  0  0  0  0  0  0  0  0  0  0
    7.5149  -15.3875   22.7419 C   0  0  0  0  0  0  0  0  0  0  0  0
    9.0151  -15.5101   22.6272 C   0  0  2  0  0  0  0  0  0  0  0  0
    9.3135  -16.4671   21.5421 N   0  0  0  0  0  0  0  0  0  0  0  0
    9.6105  -16.0946   23.8797 C   0  0  0  0  0  0  0  0  0  0  0  0
   10.1856  -17.2235   23.8512 O   0  0  0  0  0  0  0  0  0  0  0  0
    7.2201  -13.1392   23.7807 C   0  0  0  0  0  0  0  0  0  0  0  0
    6.8279  -12.2970   24.8003 C   0  0  0  0  0  0  0  0  0  0  0  0
   11.8946  -14.9391   31.4552 C   0  0  0  0  0  0  0  0  0  0  0  0
   11.1686  -14.1797   29.9655 S   0  0  0  0  0  0  0  0  0  0  0  0
   11.1431  -15.2019   28.5467 C   0  0  0  0  0  0  0  0  0  0  0  0
   10.4300  -14.8968   27.3106 C   0  0  0  0  0  0  0  0  0  0  0  0
   10.5306  -15.8398   26.1879 C   0  0  2  0  0  0  0  0  0  0  0  0
    9.5552  -15.4245   25.1132 N   0  0  0  0  0  0  0  0  0  0  0  0
    9.8350  -17.1245   26.6202 C   0  0  0  0  0  0  0  0  0  0  0  0
   10.5978  -18.0088   27.1650 O   0  0  0  0  0  0  0  0  0  0  0  0
    8.5335  -17.4091   26.4844 O   0  0  0  0  0  0  0  0  0  0  0  0
  1  2  1  0
  2  4  1  0
  3  2  2  0
  4  5  1  0
  6  5  1  0
  6  7  1  6
  8  6  1  0
  9  8  2  0
 10 11  1  0
 11 21  2  0
 12 13  2  0
 12 11  1  0
 13 14  1  0
 14 15  1  0
 14 20  2  0
 16 15  1  1
 16 18  1  0
 16 17  1  0
 17  8  1  0
 18 19  2  0
 21 20  1  0
 22 23  1  0
 23 24  1  0
 25 24  1  0
 26 25  1  1
 27 26  1  0
 27 18  1  0
 28 30  1  0
 28 26  1  0
 29 28  2  0
M  END
$$$$
