QYM.pdb
     RDKit          3D

 30 30  0  0  1  0  0  0  0  0999 V2000
   10.4952  -16.3700   17.4729 N   0  0  0  0  0  0  0  0  0  0  0  0
    9.3223  -17.0266   16.9974 C   0  0  0  0  0  0  0  0  0  0  0  0
    9.5122  -17.9059   16.1282 O   0  0  0  0  0  0  0  0  0  0  0  0
    7.9780  -16.7394   17.4538 C   0  0  0  0  0  0  0  0  0  0  0  0
    7.6372  -16.8882   18.8730 C   0  0  0  0  0  0  0  0  0  0  0  0
    7.4559  -18.2606   19.4197 C   0  0  2  0  0  0  0  0  0  0  0  0
    6.4811  -19.0817   18.7857 N   0  0  0  0  0  0  0  0  0  0  0  0
    7.2615  -18.2538   20.8941 C   0  0  0  0  0  0  0  0  0  0  0  0
    6.1255  -17.9519   21.3966 O   0  0  0  0  0  0  0  0  0  0  0  0
    8.1988  -19.6610   29.5128 O   0  0  0  0  0  0  0  0  0  0  0  0
    8.3570  -19.6479   28.1407 C   0  0  0  0  0  0  0  0  0  0  0  0
    9.5682  -19.3156   27.6022 C   0  0  0  0  0  0  0  0  0  0  0  0
    9.7035  -19.3092   26.2162 C   0  0  0  0  0  0  0  0  0  0  0  0
    8.6470  -19.6292   25.3847 C   0  0  0  0  0  0  0  0  0  0  0  0
    8.7970  -19.6160   23.9237 C   0  0  0  0  0  0  0  0  0  0  0  0
    7.9969  -18.5282   23.2491 C   0  0  2  0  0  0  0  0  0  0  0  0
    8.2927  -18.5739   21.8025 N   0  0  0  0  0  0  0  0  0  0  0  0
    8.4237  -17.1652   23.7235 C   0  0  0  0  0  0  0  0  0  0  0  0
    9.4331  -16.5943   23.2123 O   0  0  0  0  0  0  0  0  0  0  0  0
    7.4459  -19.9572   25.9922 C   0  0  0  0  0  0  0  0  0  0  0  0
    7.2745  -19.9743   27.3608 C   0  0  0  0  0  0  0  0  0  0  0  0
    6.4769  -10.4122   27.5213 C   0  0  0  0  0  0  0  0  0  0  0  0
    5.9194  -11.9423   26.7022 S   0  0  0  0  0  0  0  0  0  0  0  0
    7.1983  -13.0158   26.1818 C   0  0  0  0  0  0  0  0  0  0  0  0
    6.9973  -14.3682   25.6718 C   0  0  0  0  0  0  0  0  0  0  0  0
    8.1215  -15.0469   25.0121 C   0  0  2  0  0  0  0  0  0  0  0  0
    7.7326  -16.4791   24.7359 N   0  0  0  0  0  0  0  0  0  0  0  0
    9.1715  -15.3154   26.0830 C   0  0  0  0  0  0  0  0  0  0  0  0
    9.8831  -14.2972   26.4259 O   0  0  0  0  0  0  0  0  0  0  0  0
    9.4152  -16.4880   26.6820 O   0  0  0  0  0  0  0  0  0  0  0  0
  1  2  1  0
  2  4  1  0
  3  2  2  0
  4  5  1  0
  6  5  1  0
  6  7  1  6
  8  6  1  0
  9  8  2  0
 10 11  1  0
 11 21  2  0
 12 13  2  0
 12 11  1  0
 13 14  1  0
 14 15  1  0
 14 20  2  0
 16 15  1  1
 16 18  1  0
 16 17  1  0
 17  8  1  0
 18 19  2  0
 21 20  1  0
 22 23  1  0
 23 24  1  0
 25 24  1  0
 26 25  1  1
 27 26  1  0
 27 18  1  0
 28 30  1  0
 28 26  1  0
 29 28  2  0
M  END
$$$$
