QYM.pdb
     RDKit          3D

 30 30  0  0  1  0  0  0  0  0999 V2000
   13.5952  -15.6674   17.5362 N   0  0  0  0  0  0  0  0  0  0  0  0
   13.0219  -16.7839   16.8598 C   0  0  0  0  0  0  0  0  0  0  0  0
   13.7835  -17.3841   16.0696 O   0  0  0  0  0  0  0  0  0  0  0  0
   11.6586  -17.2401   17.0369 C   0  0  0  0  0  0  0  0  0  0  0  0
   10.8175  -16.6502   18.0843 C   0  0  0  0  0  0  0  0  0  0  0  0
   10.5715  -17.4361   19.3241 C   0  0  2  0  0  0  0  0  0  0  0  0
    9.6128  -18.4851   19.2409 N   0  0  0  0  0  0  0  0  0  0  0  0
   10.2961  -16.5614   20.4950 C   0  0  0  0  0  0  0  0  0  0  0  0
   11.0890  -15.6026   20.7883 O   0  0  0  0  0  0  0  0  0  0  0  0
    6.1259  -12.2856   26.9474 O   0  0  0  0  0  0  0  0  0  0  0  0
    6.4495  -13.1048   25.8833 C   0  0  0  0  0  0  0  0  0  0  0  0
    6.1626  -14.4394   25.9451 C   0  0  0  0  0  0  0  0  0  0  0  0
    6.4984  -15.2453   24.8601 C   0  0  0  0  0  0  0  0  0  0  0  0
    7.1097  -14.7257   23.7348 C   0  0  0  0  0  0  0  0  0  0  0  0
    7.4643  -15.5835   22.5965 C   0  0  0  0  0  0  0  0  0  0  0  0
    8.9528  -15.7668   22.4253 C   0  0  2  0  0  0  0  0  0  0  0  0
    9.1710  -16.7328   21.3292 N   0  0  0  0  0  0  0  0  0  0  0  0
    9.5707  -16.3775   23.6542 C   0  0  0  0  0  0  0  0  0  0  0  0
    9.8989  -17.6016   23.6674 O   0  0  0  0  0  0  0  0  0  0  0  0
    7.3737  -13.3658   23.7341 C   0  0  0  0  0  0  0  0  0  0  0  0
    7.0557  -12.5367   24.7897 C   0  0  0  0  0  0  0  0  0  0  0  0
   10.6972  -13.1977   29.7026 C   0  0  0  0  0  0  0  0  0  0  0  0
   11.6422  -14.7562   29.6742 S   0  0  0  0  0  0  0  0  0  0  0  0
   11.3752  -15.7625   28.2690 C   0  0  0  0  0  0  0  0  0  0  0  0
   10.7597  -15.3125   27.0247 C   0  0  0  0  0  0  0  0  0  0  0  0
   10.5963  -16.2788   25.9296 C   0  0  2  0  0  0  0  0  0  0  0  0
    9.8063  -15.6291   24.8194 N   0  0  0  0  0  0  0  0  0  0  0  0
    9.5443  -17.2863   26.3764 C   0  0  0  0  0  0  0  0  0  0  0  0
    8.3256  -16.9707   26.1007 O   0  0  0  0  0  0  0  0  0  0  0  0
    9.7693  -18.4405   27.0170 O   0  0  0  0  0  0  0  0  0  0  0  0
  1  2  1  0
  2  4  1  0
  3  2  2  0
  4  5  1  0
  6  5  1  0
  6  7  1  6
  8  6  1  0
  9  8  2  0
 10 11  1  0
 11 21  2  0
 12 13  2  0
 12 11  1  0
 13 14  1  0
 14 15  1  0
 14 20  2  0
 16 15  1  1
 16 18  1  0
 16 17  1  0
 17  8  1  0
 18 19  2  0
 21 20  1  0
 22 23  1  0
 23 24  1  0
 25 24  1  0
 26 25  1  1
 27 26  1  0
 27 18  1  0
 28 30  1  0
 28 26  1  0
 29 28  2  0
M  END
$$$$
