GLQ.pdb
     RDKit          3D

 22 21  0  0  1  0  0  0  0  0999 V2000
    7.2873  -15.9049   20.5559 N   0  0  0  0  0  0  0  0  0  0  0  0
    6.5489  -15.7566   21.7760 C   0  0  0  0  0  0  0  0  0  0  0  0
    7.4237  -15.5052   22.9573 C   0  0  0  0  0  0  0  0  0  0  0  0
    8.6491  -15.7502   22.8056 O   0  0  0  0  0  0  0  0  0  0  0  0
    6.2052  -11.8305   27.0099 C   0  0  0  0  0  0  0  0  0  0  0  0
    6.8321  -12.5305   25.7466 C   0  0  1  0  0  0  0  0  0  0  0  0
    8.0351  -11.6518   25.3674 C   0  0  0  0  0  0  0  0  0  0  0  0
    7.2282  -13.8656   26.2415 C   0  0  0  0  0  0  0  0  0  0  0  0
    7.8177  -14.8746   25.3434 C   0  0  2  0  0  0  0  0  0  0  0  0
    6.9116  -15.0248   24.1639 N   0  0  0  0  0  0  0  0  0  0  0  0
    8.1518  -16.2018   25.8535 C   0  0  0  0  0  0  0  0  0  0  0  0
    7.3195  -17.0934   26.2057 O   0  0  0  0  0  0  0  0  0  0  0  0
   12.6826  -19.1240   23.2555 N   0  0  0  0  0  0  0  0  0  0  0  0
   12.5141  -19.9931   24.3935 C   0  0  0  0  0  0  0  0  0  0  0  0
   13.1861  -21.0491   24.4510 O   0  0  0  0  0  0  0  0  0  0  0  0
   11.5766  -19.6723   25.4813 C   0  0  0  0  0  0  0  0  0  0  0  0
   10.9132  -18.3630   25.2828 C   0  0  0  0  0  0  0  0  0  0  0  0
    9.9446  -17.9387   26.3551 C   0  0  2  0  0  0  0  0  0  0  0  0
    9.5221  -16.5921   25.9921 N   0  0  0  0  0  0  0  0  0  0  0  0
   10.5357  -17.9510   27.7189 C   0  0  0  0  0  0  0  0  0  0  0  0
   10.9697  -16.8732   28.1902 O   0  0  0  0  0  0  0  0  0  0  0  0
   10.6338  -19.0918   28.5002 O   0  0  0  0  0  0  0  0  0  0  0  0
  2  3  1  0
  2  1  1  0
  3 10  1  0
  4  3  2  0
  6  5  1  1
  7  6  1  0
  8  6  1  0
  9  8  1  1
 10  9  1  0
 11 19  1  0
 11  9  1  0
 12 11  2  0
 13 14  1  0
 14 15  2  0
 16 17  1  0
 16 14  1  0
 18 19  1  0
 18 17  1  6
 20 18  1  0
 21 20  2  0
 22 20  1  0
M  END
$$$$
