GLQ.pdb
     RDKit          3D

 22 21  0  0  1  0  0  0  0  0999 V2000
    7.7603  -15.7596   19.5454 N   0  0  0  0  0  0  0  0  0  0  0  0
    6.8702  -15.5557   20.6508 C   0  0  0  0  0  0  0  0  0  0  0  0
    7.5692  -15.0797   21.8791 C   0  0  0  0  0  0  0  0  0  0  0  0
    8.8243  -15.1767   21.8792 O   0  0  0  0  0  0  0  0  0  0  0  0
    8.1865  -11.6548   26.0264 C   0  0  0  0  0  0  0  0  0  0  0  0
    7.1813  -12.8237   26.3462 C   0  0  1  0  0  0  0  0  0  0  0  0
    6.0388  -12.1559   27.1285 C   0  0  0  0  0  0  0  0  0  0  0  0
    6.7616  -13.3047   25.0133 C   0  0  0  0  0  0  0  0  0  0  0  0
    7.6048  -14.2222   24.2264 C   0  0  2  0  0  0  0  0  0  0  0  0
    6.8701  -14.5556   22.9679 N   0  0  0  0  0  0  0  0  0  0  0  0
    8.0974  -15.4593   24.8267 C   0  0  0  0  0  0  0  0  0  0  0  0
    7.3936  -16.4748   25.1188 O   0  0  0  0  0  0  0  0  0  0  0  0
   12.0684  -18.4642   22.3301 N   0  0  0  0  0  0  0  0  0  0  0  0
   12.5781  -18.8572   23.6203 C   0  0  0  0  0  0  0  0  0  0  0  0
   13.3435  -19.8468   23.6908 O   0  0  0  0  0  0  0  0  0  0  0  0
   12.2219  -18.1295   24.8486 C   0  0  0  0  0  0  0  0  0  0  0  0
   11.3150  -16.9891   24.5824 C   0  0  0  0  0  0  0  0  0  0  0  0
   10.1119  -16.8721   25.4807 C   0  0  2  0  0  0  0  0  0  0  0  0
    9.4875  -15.6010   25.1374 N   0  0  0  0  0  0  0  0  0  0  0  0
   10.4527  -16.9131   26.9270 C   0  0  0  0  0  0  0  0  0  0  0  0
   10.8288  -18.0028   27.4202 O   0  0  0  0  0  0  0  0  0  0  0  0
   10.3771  -15.8096   27.7626 O   0  0  0  0  0  0  0  0  0  0  0  0
  2  3  1  0
  2  1  1  0
  3 10  1  0
  4  3  2  0
  6  5  1  6
  7  6  1  0
  8  6  1  0
  9  8  1  1
 10  9  1  0
 11 19  1  0
 11  9  1  0
 12 11  2  0
 13 14  1  0
 14 15  2  0
 16 17  1  0
 16 14  1  0
 18 19  1  0
 18 17  1  6
 20 18  1  0
 21 20  2  0
 22 20  1  0
M  END
$$$$
