GLQ.pdb
     RDKit          3D

 22 21  0  0  1  0  0  0  0  0999 V2000
    6.9227  -18.2077   21.4836 N   0  0  0  0  0  0  0  0  0  0  0  0
    6.6758  -17.8287   22.8442 C   0  0  0  0  0  0  0  0  0  0  0  0
    7.2039  -16.4737   23.1745 C   0  0  0  0  0  0  0  0  0  0  0  0
    7.9305  -15.9307   22.3017 O   0  0  0  0  0  0  0  0  0  0  0  0
    5.7497  -12.0034   26.9645 C   0  0  0  0  0  0  0  0  0  0  0  0
    6.5428  -12.2902   25.6350 C   0  0  1  0  0  0  0  0  0  0  0  0
    7.9574  -11.7485   25.8971 C   0  0  0  0  0  0  0  0  0  0  0  0
    6.5046  -13.7624   25.5103 C   0  0  0  0  0  0  0  0  0  0  0  0
    7.4723  -14.4879   24.6681 C   0  0  2  0  0  0  0  0  0  0  0  0
    6.9087  -15.8432   24.3845 N   0  0  0  0  0  0  0  0  0  0  0  0
    8.8575  -14.6358   25.1073 C   0  0  0  0  0  0  0  0  0  0  0  0
    9.6533  -13.6871   25.3872 O   0  0  0  0  0  0  0  0  0  0  0  0
   12.2525  -16.0806   29.0661 N   0  0  0  0  0  0  0  0  0  0  0  0
   10.8196  -15.9512   29.1594 C   0  0  0  0  0  0  0  0  0  0  0  0
   10.3252  -15.4501   30.1960 O   0  0  0  0  0  0  0  0  0  0  0  0
    9.9295  -16.3922   28.0739 C   0  0  0  0  0  0  0  0  0  0  0  0
   10.6750  -17.0070   26.9514 C   0  0  0  0  0  0  0  0  0  0  0  0
   10.7941  -16.1790   25.6991 C   0  0  2  0  0  0  0  0  0  0  0  0
    9.4271  -15.9408   25.2542 N   0  0  0  0  0  0  0  0  0  0  0  0
   11.5837  -16.8428   24.6289 C   0  0  0  0  0  0  0  0  0  0  0  0
   10.9672  -17.3658   23.6705 O   0  0  0  0  0  0  0  0  0  0  0  0
   12.9680  -16.9156   24.6325 O   0  0  0  0  0  0  0  0  0  0  0  0
  2  3  1  0
  2  1  1  0
  3 10  1  0
  4  3  2  0
  6  5  1  1
  7  6  1  0
  8  6  1  0
  9  8  1  1
 10  9  1  0
 11 19  1  0
 11  9  1  0
 12 11  2  0
 13 14  1  0
 14 15  2  0
 16 17  1  0
 16 14  1  0
 18 19  1  0
 18 17  1  1
 20 18  1  0
 21 20  2  0
 22 20  1  0
M  END
$$$$
