GLQ.pdb
     RDKit          3D

 22 21  0  0  1  0  0  0  0  0999 V2000
    8.1626  -15.1802   20.4508 N   0  0  0  0  0  0  0  0  0  0  0  0
    7.2006  -15.4822   21.4701 C   0  0  0  0  0  0  0  0  0  0  0  0
    7.7062  -15.2069   22.8458 C   0  0  0  0  0  0  0  0  0  0  0  0
    8.9415  -15.3670   23.0280 O   0  0  0  0  0  0  0  0  0  0  0  0
    5.6654  -11.4852   26.5069 C   0  0  0  0  0  0  0  0  0  0  0  0
    6.6424  -12.2177   25.5130 C   0  0  1  0  0  0  0  0  0  0  0  0
    8.0087  -11.5519   25.7435 C   0  0  0  0  0  0  0  0  0  0  0  0
    6.6072  -13.6272   25.9560 C   0  0  0  0  0  0  0  0  0  0  0  0
    7.3876  -14.6698   25.2658 C   0  0  2  0  0  0  0  0  0  0  0  0
    6.8566  -14.7947   23.8739 N   0  0  0  0  0  0  0  0  0  0  0  0
    7.5018  -16.0042   25.8485 C   0  0  0  0  0  0  0  0  0  0  0  0
    6.5345  -16.7754   26.1338 O   0  0  0  0  0  0  0  0  0  0  0  0
    6.3128  -20.9911   25.4665 N   0  0  0  0  0  0  0  0  0  0  0  0
    7.5963  -20.8313   26.1035 C   0  0  0  0  0  0  0  0  0  0  0  0
    7.7389  -21.2316   27.2823 O   0  0  0  0  0  0  0  0  0  0  0  0
    8.7351  -20.2121   25.4073 C   0  0  0  0  0  0  0  0  0  0  0  0
    8.5946  -18.7415   25.2991 C   0  0  0  0  0  0  0  0  0  0  0  0
    9.0173  -17.9424   26.5035 C   0  0  2  0  0  0  0  0  0  0  0  0
    8.7919  -16.5472   26.1480 N   0  0  0  0  0  0  0  0  0  0  0  0
   10.4371  -18.1615   26.8851 C   0  0  0  0  0  0  0  0  0  0  0  0
   10.7058  -19.1053   27.6656 O   0  0  0  0  0  0  0  0  0  0  0  0
   11.4832  -17.3776   26.4239 O   0  0  0  0  0  0  0  0  0  0  0  0
  2  3  1  0
  2  1  1  0
  3 10  1  0
  4  3  2  0
  6  5  1  1
  7  6  1  0
  8  6  1  0
  9  8  1  1
 10  9  1  0
 11 19  1  0
 11  9  1  0
 12 11  2  0
 13 14  1  0
 14 15  2  0
 16 17  1  0
 16 14  1  0
 18 19  1  0
 18 17  1  6
 20 18  1  0
 21 20  2  0
 22 20  1  0
M  END
$$$$
