GLQ.pdb
     RDKit          3D

 22 21  0  0  1  0  0  0  0  0999 V2000
    8.0485  -15.6735   19.5185 N   0  0  0  0  0  0  0  0  0  0  0  0
    7.1240  -15.5428   20.6066 C   0  0  0  0  0  0  0  0  0  0  0  0
    7.7760  -15.0994   21.8725 C   0  0  0  0  0  0  0  0  0  0  0  0
    9.0092  -15.3304   21.9748 O   0  0  0  0  0  0  0  0  0  0  0  0
    8.3378  -11.6915   26.1177 C   0  0  0  0  0  0  0  0  0  0  0  0
    7.2368  -12.8005   26.3086 C   0  0  1  0  0  0  0  0  0  0  0  0
    6.0756  -12.0833   27.0161 C   0  0  0  0  0  0  0  0  0  0  0  0
    6.9039  -13.2107   24.9283 C   0  0  0  0  0  0  0  0  0  0  0  0
    7.7117  -14.2109   24.2076 C   0  0  2  0  0  0  0  0  0  0  0  0
    7.0581  -14.4636   22.8870 N   0  0  0  0  0  0  0  0  0  0  0  0
    8.0180  -15.4936   24.8353 C   0  0  0  0  0  0  0  0  0  0  0  0
    7.1896  -16.4304   25.0537 O   0  0  0  0  0  0  0  0  0  0  0  0
   13.1344  -17.7841   22.9143 N   0  0  0  0  0  0  0  0  0  0  0  0
   12.7827  -18.8231   23.8500 C   0  0  0  0  0  0  0  0  0  0  0  0
   13.4056  -19.9095   23.8077 O   0  0  0  0  0  0  0  0  0  0  0  0
   11.7153  -18.6398   24.8462 C   0  0  0  0  0  0  0  0  0  0  0  0
   10.9181  -17.4168   24.5962 C   0  0  0  0  0  0  0  0  0  0  0  0
    9.8259  -17.1199   25.5897 C   0  0  2  0  0  0  0  0  0  0  0  0
    9.3531  -15.7803   25.2649 N   0  0  0  0  0  0  0  0  0  0  0  0
   10.2837  -17.1842   27.0024 C   0  0  0  0  0  0  0  0  0  0  0  0
   10.5191  -16.1086   27.6023 O   0  0  0  0  0  0  0  0  0  0  0  0
   10.4652  -18.3712   27.6948 O   0  0  0  0  0  0  0  0  0  0  0  0
  2  3  1  0
  2  1  1  0
  3 10  1  0
  4  3  2  0
  6  5  1  6
  7  6  1  0
  8  6  1  0
  9  8  1  1
 10  9  1  0
 11 19  1  0
 11  9  1  0
 12 11  2  0
 13 14  1  0
 14 15  2  0
 16 17  1  0
 16 14  1  0
 18 19  1  0
 18 17  1  6
 20 18  1  0
 21 20  2  0
 22 20  1  0
M  END
$$$$
