GLQ.pdb
     RDKit          3D

 22 21  0  0  1  0  0  0  0  0999 V2000
    6.0206  -19.3436   22.8742 N   0  0  0  0  0  0  0  0  0  0  0  0
    5.8888  -18.5804   24.0808 C   0  0  0  0  0  0  0  0  0  0  0  0
    6.6020  -17.2721   24.0212 C   0  0  0  0  0  0  0  0  0  0  0  0
    7.3760  -17.1033   23.0429 O   0  0  0  0  0  0  0  0  0  0  0  0
    7.2104  -11.9502   24.3006 C   0  0  0  0  0  0  0  0  0  0  0  0
    7.0489  -12.6090   25.7214 C   0  0  1  0  0  0  0  0  0  0  0  0
    6.0948  -11.6736   26.4817 C   0  0  0  0  0  0  0  0  0  0  0  0
    6.4516  -13.9298   25.4337 C   0  0  0  0  0  0  0  0  0  0  0  0
    7.2756  -15.0632   24.9770 C   0  0  2  0  0  0  0  0  0  0  0  0
    6.4208  -16.2895   24.9962 N   0  0  0  0  0  0  0  0  0  0  0  0
    8.5422  -15.3609   25.6407 C   0  0  0  0  0  0  0  0  0  0  0  0
    8.6757  -15.9593   26.7523 O   0  0  0  0  0  0  0  0  0  0  0  0
   11.6663  -17.0097   29.4084 N   0  0  0  0  0  0  0  0  0  0  0  0
   11.0296  -15.7204   29.3034 C   0  0  0  0  0  0  0  0  0  0  0  0
   10.6094  -15.1681   30.3467 O   0  0  0  0  0  0  0  0  0  0  0  0
   10.8612  -15.0426   28.0083 C   0  0  0  0  0  0  0  0  0  0  0  0
   10.8442  -15.9952   26.8742 C   0  0  0  0  0  0  0  0  0  0  0  0
   11.0844  -15.4079   25.5084 C   0  0  2  0  0  0  0  0  0  0  0  0
    9.7783  -14.9685   25.0345 N   0  0  0  0  0  0  0  0  0  0  0  0
   11.6897  -16.3721   24.5526 C   0  0  0  0  0  0  0  0  0  0  0  0
   10.9255  -17.0525   23.8279 O   0  0  0  0  0  0  0  0  0  0  0  0
   13.0564  -16.5607   24.4183 O   0  0  0  0  0  0  0  0  0  0  0  0
  2  3  1  0
  2  1  1  0
  3 10  1  0
  4  3  2  0
  6  5  1  6
  7  6  1  0
  8  6  1  0
  9  8  1  1
 10  9  1  0
 11 19  1  0
 11  9  1  0
 12 11  2  0
 13 14  1  0
 14 15  2  0
 16 17  1  0
 16 14  1  0
 18 19  1  0
 18 17  1  1
 20 18  1  0
 21 20  2  0
 22 20  1  0
M  END
$$$$
