GLQ.pdb
     RDKit          3D

 22 21  0  0  1  0  0  0  0  0999 V2000
    6.1887  -16.1034   20.4173 N   0  0  0  0  0  0  0  0  0  0  0  0
    5.7970  -16.0524   21.7956 C   0  0  0  0  0  0  0  0  0  0  0  0
    6.8622  -15.5014   22.6821 C   0  0  0  0  0  0  0  0  0  0  0  0
    8.0166  -15.4263   22.1858 O   0  0  0  0  0  0  0  0  0  0  0  0
    6.1415  -11.8540   26.9005 C   0  0  0  0  0  0  0  0  0  0  0  0
    6.5265  -12.5092   25.5217 C   0  0  1  0  0  0  0  0  0  0  0  0
    7.4850  -11.5037   24.8633 C   0  0  0  0  0  0  0  0  0  0  0  0
    7.1914  -13.7727   25.9031 C   0  0  0  0  0  0  0  0  0  0  0  0
    7.7223  -14.6993   24.8873 C   0  0  2  0  0  0  0  0  0  0  0  0
    6.5934  -15.0919   23.9893 N   0  0  0  0  0  0  0  0  0  0  0  0
    8.4382  -15.9040   25.2991 C   0  0  0  0  0  0  0  0  0  0  0  0
    7.9256  -16.9120   25.8761 O   0  0  0  0  0  0  0  0  0  0  0  0
   13.3588  -17.2921   21.9101 N   0  0  0  0  0  0  0  0  0  0  0  0
   13.3976  -18.3834   22.8515 C   0  0  0  0  0  0  0  0  0  0  0  0
   14.2586  -19.2810   22.6997 O   0  0  0  0  0  0  0  0  0  0  0  0
   12.4551  -18.4685   23.9783 C   0  0  0  0  0  0  0  0  0  0  0  0
   11.5582  -17.2920   24.0500 C   0  0  0  0  0  0  0  0  0  0  0  0
   10.5884  -17.2639   25.2018 C   0  0  2  0  0  0  0  0  0  0  0  0
    9.8447  -16.0190   25.0588 N   0  0  0  0  0  0  0  0  0  0  0  0
   11.2524  -17.3263   26.5303 C   0  0  0  0  0  0  0  0  0  0  0  0
   11.3864  -16.2624   27.1802 O   0  0  0  0  0  0  0  0  0  0  0  0
   11.7328  -18.4992   27.0914 O   0  0  0  0  0  0  0  0  0  0  0  0
  2  3  1  0
  2  1  1  0
  3 10  1  0
  4  3  2  0
  6  5  1  1
  7  6  1  0
  8  6  1  0
  9  8  1  1
 10  9  1  0
 11 19  1  0
 11  9  1  0
 12 11  2  0
 13 14  1  0
 14 15  2  0
 16 17  1  0
 16 14  1  0
 18 19  1  0
 18 17  1  6
 20 18  1  0
 21 20  2  0
 22 20  1  0
M  END
$$$$
