GLQ.pdb
     RDKit          3D

 22 21  0  0  1  0  0  0  0  0999 V2000
    8.6366  -18.5969   16.7638 N   0  0  0  0  0  0  0  0  0  0  0  0
    8.1069  -18.4227   18.0847 C   0  0  0  0  0  0  0  0  0  0  0  0
    8.8817  -17.4404   18.8962 C   0  0  0  0  0  0  0  0  0  0  0  0
   10.0994  -17.3130   18.6036 O   0  0  0  0  0  0  0  0  0  0  0  0
    6.4846  -13.0812   21.4066 C   0  0  0  0  0  0  0  0  0  0  0  0
    7.3832  -13.8970   20.4038 C   0  0  1  0  0  0  0  0  0  0  0  0
    8.1804  -12.8311   19.6347 C   0  0  0  0  0  0  0  0  0  0  0  0
    8.2324  -14.7270   21.2836 C   0  0  0  0  0  0  0  0  0  0  0  0
    9.1229  -15.7657   20.7357 C   0  0  2  0  0  0  0  0  0  0  0  0
    8.2891  -16.7034   19.9231 N   0  0  0  0  0  0  0  0  0  0  0  0
    9.9739  -16.5459   21.6303 C   0  0  0  0  0  0  0  0  0  0  0  0
    9.6543  -17.6366   22.1959 O   0  0  0  0  0  0  0  0  0  0  0  0
   16.7037  -17.8485   23.7705 N   0  0  0  0  0  0  0  0  0  0  0  0
   15.9017  -16.9454   22.9830 C   0  0  0  0  0  0  0  0  0  0  0  0
   16.2643  -15.7505   22.8793 O   0  0  0  0  0  0  0  0  0  0  0  0
   14.6746  -17.3903   22.3039 C   0  0  0  0  0  0  0  0  0  0  0  0
   13.6061  -16.3655   22.3468 C   0  0  0  0  0  0  0  0  0  0  0  0
   12.2385  -16.8468   22.7543 C   0  0  2  0  0  0  0  0  0  0  0  0
   11.2970  -16.0932   21.9363 N   0  0  0  0  0  0  0  0  0  0  0  0
   11.9519  -16.6469   24.1991 C   0  0  0  0  0  0  0  0  0  0  0  0
   11.6437  -17.6470   24.8897 O   0  0  0  0  0  0  0  0  0  0  0  0
   12.0068  -15.4120   24.8264 O   0  0  0  0  0  0  0  0  0  0  0  0
  2  3  1  0
  2  1  1  0
  3 10  1  0
  4  3  2  0
  6  5  1  1
  7  6  1  0
  8  6  1  0
  9  8  1  1
 10  9  1  0
 11 19  1  0
 11  9  1  0
 12 11  2  0
 13 14  1  0
 14 15  2  0
 16 17  1  0
 16 14  1  0
 18 19  1  0
 18 17  1  1
 20 18  1  0
 21 20  2  0
 22 20  1  0
M  END
$$$$
