GLQ.pdb
     RDKit          3D

 22 21  0  0  1  0  0  0  0  0999 V2000
    6.9211  -16.6826   21.0602 N   0  0  0  0  0  0  0  0  0  0  0  0
    6.4932  -16.5463   22.4218 C   0  0  0  0  0  0  0  0  0  0  0  0
    7.3972  -15.6788   23.2306 C   0  0  0  0  0  0  0  0  0  0  0  0
    8.4620  -15.3082   22.6706 O   0  0  0  0  0  0  0  0  0  0  0  0
    5.7524  -11.6514   26.7816 C   0  0  0  0  0  0  0  0  0  0  0  0
    6.3962  -12.3589   25.5311 C   0  0  1  0  0  0  0  0  0  0  0  0
    7.3095  -11.2931   24.9040 C   0  0  0  0  0  0  0  0  0  0  0  0
    7.1480  -13.4907   26.1125 C   0  0  0  0  0  0  0  0  0  0  0  0
    7.9859  -14.3680   25.2755 C   0  0  2  0  0  0  0  0  0  0  0  0
    7.0798  -15.2991   24.5360 N   0  0  0  0  0  0  0  0  0  0  0  0
    9.0660  -15.1427   25.8809 C   0  0  0  0  0  0  0  0  0  0  0  0
   10.0048  -14.6753   26.5963 O   0  0  0  0  0  0  0  0  0  0  0  0
   10.6041  -20.7441   28.2152 N   0  0  0  0  0  0  0  0  0  0  0  0
    9.8953  -19.7388   28.9674 C   0  0  0  0  0  0  0  0  0  0  0  0
    9.7959  -19.8728   30.2093 O   0  0  0  0  0  0  0  0  0  0  0  0
    9.2884  -18.5676   28.3154 C   0  0  0  0  0  0  0  0  0  0  0  0
    9.4653  -18.5892   26.8450 C   0  0  0  0  0  0  0  0  0  0  0  0
   10.1755  -17.4055   26.2429 C   0  0  2  0  0  0  0  0  0  0  0  0
    9.1272  -16.5597   25.6869 N   0  0  0  0  0  0  0  0  0  0  0  0
   11.1561  -17.7817   25.1911 C   0  0  0  0  0  0  0  0  0  0  0  0
   10.8205  -17.6533   23.9898 O   0  0  0  0  0  0  0  0  0  0  0  0
   12.4247  -18.2679   25.4662 O   0  0  0  0  0  0  0  0  0  0  0  0
  2  3  1  0
  2  1  1  0
  3 10  1  0
  4  3  2  0
  6  5  1  1
  7  6  1  0
  8  6  1  0
  9  8  1  1
 10  9  1  0
 11 19  1  0
 11  9  1  0
 12 11  2  0
 13 14  1  0
 14 15  2  0
 16 17  1  0
 16 14  1  0
 18 19  1  0
 18 17  1  6
 20 18  1  0
 21 20  2  0
 22 20  1  0
M  END
$$$$
