GLQ.pdb
     RDKit          3D

 22 21  0  0  1  0  0  0  0  0999 V2000
    7.7276  -15.1463   20.1707 N   0  0  0  0  0  0  0  0  0  0  0  0
    6.9078  -15.0336   21.3416 C   0  0  0  0  0  0  0  0  0  0  0  0
    7.7026  -14.9283   22.5991 C   0  0  0  0  0  0  0  0  0  0  0  0
    8.9381  -15.1476   22.4975 O   0  0  0  0  0  0  0  0  0  0  0  0
    5.9686  -12.0155   27.0850 C   0  0  0  0  0  0  0  0  0  0  0  0
    6.8736  -12.3876   25.8517 C   0  0  1  0  0  0  0  0  0  0  0  0
    8.0878  -11.4509   25.9588 C   0  0  0  0  0  0  0  0  0  0  0  0
    7.2194  -13.8061   26.0811 C   0  0  0  0  0  0  0  0  0  0  0  0
    7.9371  -14.5965   25.0651 C   0  0  2  0  0  0  0  0  0  0  0  0
    7.1091  -14.6046   23.8204 N   0  0  0  0  0  0  0  0  0  0  0  0
    8.3544  -15.9642   25.3628 C   0  0  0  0  0  0  0  0  0  0  0  0
    7.5986  -16.9841   25.3807 O   0  0  0  0  0  0  0  0  0  0  0  0
   13.2913  -18.8805   22.8564 N   0  0  0  0  0  0  0  0  0  0  0  0
   12.5324  -19.5596   23.8770 C   0  0  0  0  0  0  0  0  0  0  0  0
   12.0882  -20.7063   23.6361 O   0  0  0  0  0  0  0  0  0  0  0  0
   12.2673  -18.9416   25.1858 C   0  0  0  0  0  0  0  0  0  0  0  0
   11.4974  -17.6819   25.0661 C   0  0  0  0  0  0  0  0  0  0  0  0
   10.2421  -17.5884   25.8929 C   0  0  2  0  0  0  0  0  0  0  0  0
    9.7241  -16.2447   25.6698 N   0  0  0  0  0  0  0  0  0  0  0  0
   10.4741  -17.8250   27.3419 C   0  0  0  0  0  0  0  0  0  0  0  0
   10.5269  -16.8330   28.1070 O   0  0  0  0  0  0  0  0  0  0  0  0
   10.6358  -19.0856   27.8952 O   0  0  0  0  0  0  0  0  0  0  0  0
  2  3  1  0
  2  1  1  0
  3 10  1  0
  4  3  2  0
  6  5  1  1
  7  6  1  0
  8  6  1  0
  9  8  1  1
 10  9  1  0
 11 19  1  0
 11  9  1  0
 12 11  2  0
 13 14  1  0
 14 15  2  0
 16 17  1  0
 16 14  1  0
 18 19  1  0
 18 17  1  6
 20 18  1  0
 21 20  2  0
 22 20  1  0
M  END
$$$$
