IKW.pdb
     RDKit          3D

 32 33  0  0  1  0  0  0  0  0999 V2000
   26.5089  -13.4105  -16.0348 C   0  0  0  0  0  0  0  0  0  0  0  0
   26.4036  -14.5334  -17.0141 C   0  0  0  0  0  0  0  0  0  0  0  0
   26.3735  -15.9049  -16.3111 C   0  0  2  0  0  0  0  0  0  0  0  0
   27.6257  -16.0819  -15.5180 C   0  0  0  0  0  0  0  0  0  0  0  0
   26.1813  -16.9050  -17.4260 C   0  0  2  0  0  0  0  0  0  0  0  0
   24.9231  -16.5040  -18.0753 N   0  0  0  0  0  0  0  0  0  0  0  0
   26.1285  -18.3050  -17.0042 C   0  0  0  0  0  0  0  0  0  0  0  0
   25.0723  -18.7424  -16.4214 O   0  0  0  0  0  0  0  0  0  0  0  0
   27.1399  -19.2796  -17.1669 N   0  0  0  0  0  0  0  0  0  0  0  0
   27.0176  -20.6375  -16.6609 C   0  0  1  0  0  0  0  0  0  0  0  0
   27.9803  -21.6007  -17.3137 C   0  0  0  0  0  0  0  0  0  0  0  0
   27.7326  -23.0183  -16.8532 C   0  0  0  0  0  0  0  0  0  0  0  0
   26.5790  -23.6178  -17.6027 C   0  0  0  0  0  0  0  0  0  0  0  0
   26.3491  -25.0727  -17.2745 C   0  0  0  0  0  0  0  0  0  0  0  0
   25.2845  -25.5325  -18.1800 N   0  0  0  0  0  0  0  0  0  0  0  0
   27.2308  -20.6069  -15.1662 C   0  0  0  0  0  0  0  0  0  0  0  0
   28.1575  -19.9233  -14.6668 O   0  0  0  0  0  0  0  0  0  0  0  0
   26.3897  -21.3490  -14.2957 N   0  0  0  0  0  0  0  0  0  0  0  0
   26.5137  -21.3823  -12.8569 C   0  0  1  0  0  0  0  0  0  0  0  0
   26.4658  -20.0400  -12.2240 C   0  0  0  0  0  0  0  0  0  0  0  0
   26.5516  -20.1486  -10.7560 C   0  0  0  0  0  0  0  0  0  0  0  0
   25.4991  -20.1221   -9.8684 C   0  0  0  0  0  0  0  0  0  0  0  0
   25.9762  -20.2430   -8.6315 N   0  0  0  0  0  0  0  0  0  0  0  0
   27.3252  -20.3485   -8.6936 C   0  0  0  0  0  0  0  0  0  0  0  0
   28.2530  -20.4909   -7.6749 C   0  0  0  0  0  0  0  0  0  0  0  0
   29.5887  -20.5766   -8.0046 C   0  0  0  0  0  0  0  0  0  0  0  0
   29.9717  -20.5190   -9.3378 C   0  0  0  0  0  0  0  0  0  0  0  0
   29.0649  -20.3781  -10.3623 C   0  0  0  0  0  0  0  0  0  0  0  0
   27.7109  -20.2913  -10.0265 C   0  0  0  0  0  0  0  0  0  0  0  0
   25.5448  -22.3678  -12.2709 C   0  0  0  0  0  0  0  0  0  0  0  0
   24.3897  -22.5230  -12.7240 O   0  0  0  0  0  0  0  0  0  0  0  0
   25.9013  -23.1524  -11.1920 O   0  0  0  0  0  0  0  0  0  0  0  0
  2  1  1  0
  3  2  1  0
  3  4  1  6
  5  3  1  0
  5  6  1  1
  7  8  2  0
  7  5  1  0
  9  7  1  0
 10 16  1  0
 10  9  1  0
 10 11  1  6
 12 11  1  0
 12 13  1  0
 14 13  1  0
 14 15  1  0
 16 17  2  0
 18 19  1  0
 18 16  1  0
 19 20  1  1
 20 21  1  0
 21 22  2  0
 21 29  1  0
 22 23  1  0
 23 24  1  0
 24 25  2  0
 25 26  1  0
 27 26  2  0
 28 27  1  0
 29 28  2  0
 29 24  1  0
 30 19  1  0
 31 30  2  0
 32 30  1  0
M  END
$$$$
