IKW.pdb
     RDKit          3D

 32 33  0  0  1  0  0  0  0  0999 V2000
   18.7530  -19.7034  -15.8508 C   0  0  0  0  0  0  0  0  0  0  0  0
   19.6260  -19.3291  -14.6980 C   0  0  0  0  0  0  0  0  0  0  0  0
   20.7390  -20.3691  -14.4617 C   0  0  2  0  0  0  0  0  0  0  0  0
   20.1614  -21.5661  -13.7819 C   0  0  0  0  0  0  0  0  0  0  0  0
   21.7911  -19.6334  -13.6668 C   0  0  2  0  0  0  0  0  0  0  0  0
   22.2518  -18.5590  -14.5605 N   0  0  0  0  0  0  0  0  0  0  0  0
   22.9147  -20.4531  -13.2128 C   0  0  0  0  0  0  0  0  0  0  0  0
   22.7056  -21.3728  -12.3428 O   0  0  0  0  0  0  0  0  0  0  0  0
   24.2615  -20.3551  -13.6323 N   0  0  0  0  0  0  0  0  0  0  0  0
   25.3335  -21.1365  -13.0368 C   0  0  1  0  0  0  0  0  0  0  0  0
   26.4945  -21.3603  -13.9764 C   0  0  0  0  0  0  0  0  0  0  0  0
   26.0179  -21.8125  -15.3370 C   0  0  0  0  0  0  0  0  0  0  0  0
   27.1782  -21.9491  -16.2789 C   0  0  0  0  0  0  0  0  0  0  0  0
   27.3631  -20.7468  -17.1720 C   0  0  0  0  0  0  0  0  0  0  0  0
   28.5831  -21.0023  -17.9537 N   0  0  0  0  0  0  0  0  0  0  0  0
   25.7946  -20.4304  -11.7840 C   0  0  0  0  0  0  0  0  0  0  0  0
   25.5543  -19.2104  -11.6129 O   0  0  0  0  0  0  0  0  0  0  0  0
   26.5083  -21.1297  -10.7753 N   0  0  0  0  0  0  0  0  0  0  0  0
   27.1390  -20.5130   -9.6313 C   0  0  1  0  0  0  0  0  0  0  0  0
   26.1756  -20.0112   -8.6189 C   0  0  0  0  0  0  0  0  0  0  0  0
   26.8713  -19.2526   -7.5633 C   0  0  0  0  0  0  0  0  0  0  0  0
   27.1796  -17.9107   -7.5847 C   0  0  0  0  0  0  0  0  0  0  0  0
   27.8106  -17.5960   -6.4556 N   0  0  0  0  0  0  0  0  0  0  0  0
   27.9214  -18.7104   -5.6936 C   0  0  0  0  0  0  0  0  0  0  0  0
   28.4972  -18.8794   -4.4452 C   0  0  0  0  0  0  0  0  0  0  0  0
   28.4814  -20.1340   -3.8743 C   0  0  0  0  0  0  0  0  0  0  0  0
   27.8943  -21.1911   -4.5564 C   0  0  0  0  0  0  0  0  0  0  0  0
   27.3179  -21.0422   -5.7962 C   0  0  0  0  0  0  0  0  0  0  0  0
   27.3346  -19.7695   -6.3738 C   0  0  0  0  0  0  0  0  0  0  0  0
   28.1997  -21.4145   -9.0695 C   0  0  0  0  0  0  0  0  0  0  0  0
   27.9806  -22.6125   -8.7863 O   0  0  0  0  0  0  0  0  0  0  0  0
   29.4781  -20.9444   -8.8421 O   0  0  0  0  0  0  0  0  0  0  0  0
  2  1  1  0
  3  2  1  0
  3  4  1  1
  5  3  1  0
  5  6  1  6
  7  8  2  0
  7  5  1  0
  9  7  1  0
 10 16  1  0
 10  9  1  0
 10 11  1  6
 12 11  1  0
 12 13  1  0
 14 13  1  0
 14 15  1  0
 16 17  2  0
 18 19  1  0
 18 16  1  0
 19 20  1  1
 20 21  1  0
 21 22  2  0
 21 29  1  0
 22 23  1  0
 23 24  1  0
 24 25  2  0
 25 26  1  0
 27 26  2  0
 28 27  1  0
 29 28  2  0
 29 24  1  0
 30 19  1  0
 31 30  2  0
 32 30  1  0
M  END
$$$$
