IKW.pdb
     RDKit          3D

 32 33  0  0  1  0  0  0  0  0999 V2000
   21.0066  -18.1660  -17.4340 C   0  0  0  0  0  0  0  0  0  0  0  0
   22.1684  -18.0871  -16.4986 C   0  0  0  0  0  0  0  0  0  0  0  0
   21.8578  -17.2044  -15.2736 C   0  0  2  0  0  0  0  0  0  0  0  0
   21.5711  -15.8114  -15.7273 C   0  0  0  0  0  0  0  0  0  0  0  0
   23.0676  -17.3451  -14.3809 C   0  0  2  0  0  0  0  0  0  0  0  0
   24.1590  -16.6970  -15.1253 N   0  0  0  0  0  0  0  0  0  0  0  0
   23.4219  -18.7192  -14.0247 C   0  0  0  0  0  0  0  0  0  0  0  0
   22.5697  -19.4401  -13.3920 O   0  0  0  0  0  0  0  0  0  0  0  0
   24.6395  -19.3818  -14.3041 N   0  0  0  0  0  0  0  0  0  0  0  0
   24.9246  -20.7345  -13.8528 C   0  0  1  0  0  0  0  0  0  0  0  0
   25.7662  -21.5191  -14.8310 C   0  0  0  0  0  0  0  0  0  0  0  0
   25.8404  -22.9773  -14.4426 C   0  0  0  0  0  0  0  0  0  0  0  0
   24.6158  -23.7067  -14.9120 C   0  0  0  0  0  0  0  0  0  0  0  0
   24.6662  -25.1898  -14.6382 C   0  0  0  0  0  0  0  0  0  0  0  0
   23.3524  -25.7228  -15.0313 N   0  0  0  0  0  0  0  0  0  0  0  0
   25.6118  -20.6510  -12.5107 C   0  0  0  0  0  0  0  0  0  0  0  0
   26.6831  -20.0101  -12.3801 O   0  0  0  0  0  0  0  0  0  0  0  0
   25.0624  -21.2943  -11.3705 N   0  0  0  0  0  0  0  0  0  0  0  0
   25.7316  -21.4335  -10.0979 C   0  0  1  0  0  0  0  0  0  0  0  0
   26.3105  -20.1648   -9.5878 C   0  0  0  0  0  0  0  0  0  0  0  0
   27.2500  -20.4242   -8.4814 C   0  0  0  0  0  0  0  0  0  0  0  0
   27.9997  -21.5635   -8.2916 C   0  0  0  0  0  0  0  0  0  0  0  0
   28.7214  -21.4239   -7.1817 N   0  0  0  0  0  0  0  0  0  0  0  0
   28.4569  -20.2108   -6.6402 C   0  0  0  0  0  0  0  0  0  0  0  0
   28.9617  -19.6207   -5.4932 C   0  0  0  0  0  0  0  0  0  0  0  0
   28.5255  -18.3582   -5.1524 C   0  0  0  0  0  0  0  0  0  0  0  0
   27.5984  -17.7115   -5.9584 C   0  0  0  0  0  0  0  0  0  0  0  0
   27.0865  -18.2815   -7.1006 C   0  0  0  0  0  0  0  0  0  0  0  0
   27.5296  -19.5616   -7.4449 C   0  0  0  0  0  0  0  0  0  0  0  0
   24.8432  -22.1376   -9.1138 C   0  0  0  0  0  0  0  0  0  0  0  0
   23.6556  -21.7977   -8.9199 O   0  0  0  0  0  0  0  0  0  0  0  0
   25.3142  -23.2049   -8.3751 O   0  0  0  0  0  0  0  0  0  0  0  0
  2  1  1  0
  3  2  1  0
  3  4  1  6
  5  3  1  0
  5  6  1  6
  7  8  2  0
  7  5  1  0
  9  7  1  0
 10 16  1  0
 10  9  1  0
 10 11  1  6
 12 11  1  0
 12 13  1  0
 14 13  1  0
 14 15  1  0
 16 17  2  0
 18 19  1  0
 18 16  1  0
 19 20  1  1
 20 21  1  0
 21 22  2  0
 21 29  1  0
 22 23  1  0
 23 24  1  0
 24 25  2  0
 25 26  1  0
 27 26  2  0
 28 27  1  0
 29 28  2  0
 29 24  1  0
 30 19  1  0
 31 30  2  0
 32 30  1  0
M  END
$$$$
