IKW.pdb
     RDKit          3D

 32 33  0  0  1  0  0  0  0  0999 V2000
   18.8091  -21.9691  -15.5635 C   0  0  0  0  0  0  0  0  0  0  0  0
   19.6196  -21.1562  -14.6077 C   0  0  0  0  0  0  0  0  0  0  0  0
   19.5665  -21.7319  -13.1787 C   0  0  2  0  0  0  0  0  0  0  0  0
   18.1603  -21.6876  -12.6795 C   0  0  0  0  0  0  0  0  0  0  0  0
   20.5469  -20.8968  -12.3904 C   0  0  2  0  0  0  0  0  0  0  0  0
   20.3762  -19.5304  -12.9094 N   0  0  0  0  0  0  0  0  0  0  0  0
   21.9438  -21.3212  -12.4856 C   0  0  0  0  0  0  0  0  0  0  0  0
   22.4050  -22.1503  -11.6218 O   0  0  0  0  0  0  0  0  0  0  0  0
   22.8906  -20.9150  -13.4541 N   0  0  0  0  0  0  0  0  0  0  0  0
   24.2995  -21.2671  -13.3782 C   0  0  1  0  0  0  0  0  0  0  0  0
   25.0579  -20.9474  -14.6444 C   0  0  0  0  0  0  0  0  0  0  0  0
   26.5261  -21.2736  -14.5000 C   0  0  0  0  0  0  0  0  0  0  0  0
   26.9108  -22.3806  -15.4374 C   0  0  0  0  0  0  0  0  0  0  0  0
   28.3892  -22.6827  -15.4250 C   0  0  0  0  0  0  0  0  0  0  0  0
   28.5972  -23.7466  -16.4198 N   0  0  0  0  0  0  0  0  0  0  0  0
   24.9059  -20.5424  -12.2002 C   0  0  0  0  0  0  0  0  0  0  0  0
   24.7107  -19.3134  -12.0366 O   0  0  0  0  0  0  0  0  0  0  0  0
   25.7083  -21.2340  -11.2549 N   0  0  0  0  0  0  0  0  0  0  0  0
   26.5812  -20.6021  -10.2928 C   0  0  1  0  0  0  0  0  0  0  0  0
   26.1263  -20.7526   -8.8874 C   0  0  0  0  0  0  0  0  0  0  0  0
   26.9643  -19.9519   -7.9760 C   0  0  0  0  0  0  0  0  0  0  0  0
   27.2584  -18.6120   -8.0962 C   0  0  0  0  0  0  0  0  0  0  0  0
   28.0458  -18.2518   -7.0850 N   0  0  0  0  0  0  0  0  0  0  0  0
   28.2730  -19.3344   -6.3032 C   0  0  0  0  0  0  0  0  0  0  0  0
   29.0258  -19.4526   -5.1465 C   0  0  0  0  0  0  0  0  0  0  0  0
   29.1008  -20.6831   -4.5295 C   0  0  0  0  0  0  0  0  0  0  0  0
   28.4266  -21.7668   -5.0754 C   0  0  0  0  0  0  0  0  0  0  0  0
   27.6744  -21.6683   -6.2227 C   0  0  0  0  0  0  0  0  0  0  0  0
   27.5993  -20.4201   -6.8472 C   0  0  0  0  0  0  0  0  0  0  0  0
   28.0039  -21.0228  -10.5217 C   0  0  0  0  0  0  0  0  0  0  0  0
   28.3064  -22.1543  -10.9597 O   0  0  0  0  0  0  0  0  0  0  0  0
   29.0475  -20.1596  -10.2527 O   0  0  0  0  0  0  0  0  0  0  0  0
  2  1  1  0
  3  2  1  0
  3  4  1  1
  5  3  1  0
  5  6  1  6
  7  8  2  0
  7  5  1  0
  9  7  1  0
 10 16  1  0
 10  9  1  0
 10 11  1  6
 12 11  1  0
 12 13  1  0
 14 13  1  0
 14 15  1  0
 16 17  2  0
 18 19  1  0
 18 16  1  0
 19 20  1  1
 20 21  1  0
 21 22  2  0
 21 29  1  0
 22 23  1  0
 23 24  1  0
 24 25  2  0
 25 26  1  0
 27 26  2  0
 28 27  1  0
 29 28  2  0
 29 24  1  0
 30 19  1  0
 31 30  2  0
 32 30  1  0
M  END
$$$$
