IKW.pdb
     RDKit          3D

 32 33  0  0  1  0  0  0  0  0999 V2000
   27.7798  -15.3018  -18.7525 C   0  0  0  0  0  0  0  0  0  0  0  0
   27.7497  -16.6176  -18.0462 C   0  0  0  0  0  0  0  0  0  0  0  0
   26.9436  -16.5445  -16.7343 C   0  0  2  0  0  0  0  0  0  0  0  0
   27.4921  -15.4527  -15.8767 C   0  0  0  0  0  0  0  0  0  0  0  0
   27.0461  -17.9296  -16.1417 C   0  0  2  0  0  0  0  0  0  0  0  0
   26.9031  -18.8390  -17.2897 N   0  0  0  0  0  0  0  0  0  0  0  0
   26.0606  -18.2377  -15.1052 C   0  0  0  0  0  0  0  0  0  0  0  0
   26.1555  -17.6623  -13.9622 O   0  0  0  0  0  0  0  0  0  0  0  0
   24.9676  -19.1287  -15.2106 N   0  0  0  0  0  0  0  0  0  0  0  0
   24.0759  -19.4202  -14.0995 C   0  0  1  0  0  0  0  0  0  0  0  0
   22.7174  -19.9079  -14.5439 C   0  0  0  0  0  0  0  0  0  0  0  0
   22.6149  -19.9437  -16.0509 C   0  0  0  0  0  0  0  0  0  0  0  0
   21.3002  -20.5323  -16.4720 C   0  0  0  0  0  0  0  0  0  0  0  0
   21.1288  -20.5923  -17.9700 C   0  0  0  0  0  0  0  0  0  0  0  0
   19.7853  -21.1436  -18.2058 N   0  0  0  0  0  0  0  0  0  0  0  0
   24.7428  -20.4452  -13.2133 C   0  0  0  0  0  0  0  0  0  0  0  0
   25.5112  -21.3091  -13.7019 O   0  0  0  0  0  0  0  0  0  0  0  0
   24.5152  -20.4539  -11.8119 N   0  0  0  0  0  0  0  0  0  0  0  0
   25.4993  -20.8137  -10.8175 C   0  0  1  0  0  0  0  0  0  0  0  0
   26.6884  -19.9244  -10.8076 C   0  0  0  0  0  0  0  0  0  0  0  0
   27.7305  -20.4516   -9.9076 C   0  0  0  0  0  0  0  0  0  0  0  0
   28.6786  -21.4010  -10.2173 C   0  0  0  0  0  0  0  0  0  0  0  0
   29.4373  -21.6173   -9.1450 N   0  0  0  0  0  0  0  0  0  0  0  0
   29.0018  -20.8247   -8.1366 C   0  0  0  0  0  0  0  0  0  0  0  0
   29.4714  -20.6988   -6.8395 C   0  0  0  0  0  0  0  0  0  0  0  0
   28.8452  -19.8089   -5.9933 C   0  0  0  0  0  0  0  0  0  0  0  0
   27.7677  -19.0650   -6.4548 C   0  0  0  0  0  0  0  0  0  0  0  0
   27.2880  -19.1766   -7.7390 C   0  0  0  0  0  0  0  0  0  0  0  0
   27.9239  -20.0793   -8.5958 C   0  0  0  0  0  0  0  0  0  0  0  0
   24.8497  -20.9784   -9.4742 C   0  0  0  0  0  0  0  0  0  0  0  0
   23.8724  -20.2872   -9.1127 O   0  0  0  0  0  0  0  0  0  0  0  0
   25.3163  -21.9162   -8.5745 O   0  0  0  0  0  0  0  0  0  0  0  0
  2  1  1  0
  3  2  1  0
  3  4  1  1
  5  3  1  0
  5  6  1  6
  7  8  2  0
  7  5  1  0
  9  7  1  0
 10 16  1  0
 10  9  1  0
 10 11  1  6
 12 11  1  0
 12 13  1  0
 14 13  1  0
 14 15  1  0
 16 17  2  0
 18 19  1  0
 18 16  1  0
 19 20  1  1
 20 21  1  0
 21 22  2  0
 21 29  1  0
 22 23  1  0
 23 24  1  0
 24 25  2  0
 25 26  1  0
 27 26  2  0
 28 27  1  0
 29 28  2  0
 29 24  1  0
 30 19  1  0
 31 30  2  0
 32 30  1  0
M  END
$$$$
