IKW.pdb
     RDKit          3D

 32 33  0  0  1  0  0  0  0  0999 V2000
   27.7753  -12.4020  -15.9787 C   0  0  0  0  0  0  0  0  0  0  0  0
   27.7192  -13.8520  -16.3325 C   0  0  0  0  0  0  0  0  0  0  0  0
   26.2702  -14.3769  -16.3672 C   0  0  2  0  0  0  0  0  0  0  0  0
   25.6724  -14.2698  -15.0035 C   0  0  0  0  0  0  0  0  0  0  0  0
   26.3832  -15.7845  -16.9021 C   0  0  2  0  0  0  0  0  0  0  0  0
   27.1219  -15.6455  -18.1672 N   0  0  0  0  0  0  0  0  0  0  0  0
   25.1103  -16.4742  -17.1135 C   0  0  0  0  0  0  0  0  0  0  0  0
   24.0682  -15.7859  -17.4080 O   0  0  0  0  0  0  0  0  0  0  0  0
   24.8748  -17.8660  -17.0315 N   0  0  0  0  0  0  0  0  0  0  0  0
   23.5663  -18.4605  -17.2531 C   0  0  1  0  0  0  0  0  0  0  0  0
   23.6084  -19.6561  -18.1748 C   0  0  0  0  0  0  0  0  0  0  0  0
   23.8991  -19.2400  -19.5979 C   0  0  0  0  0  0  0  0  0  0  0  0
   23.9946  -20.4457  -20.4863 C   0  0  0  0  0  0  0  0  0  0  0  0
   24.2745  -20.1004  -21.9284 C   0  0  0  0  0  0  0  0  0  0  0  0
   24.4601  -21.3819  -22.6268 N   0  0  0  0  0  0  0  0  0  0  0  0
   22.9876  -18.8454  -15.9123 C   0  0  0  0  0  0  0  0  0  0  0  0
   23.7067  -19.3877  -15.0380 O   0  0  0  0  0  0  0  0  0  0  0  0
   21.6212  -18.6029  -15.6127 N   0  0  0  0  0  0  0  0  0  0  0  0
   20.9687  -18.9698  -14.3773 C   0  0  1  0  0  0  0  0  0  0  0  0
   20.3221  -17.8273  -13.6834 C   0  0  0  0  0  0  0  0  0  0  0  0
   19.6155  -18.2812  -12.4715 C   0  0  0  0  0  0  0  0  0  0  0  0
   20.1376  -18.3644  -11.2000 C   0  0  0  0  0  0  0  0  0  0  0  0
   19.1959  -18.8209  -10.3771 N   0  0  0  0  0  0  0  0  0  0  0  0
   18.0642  -19.0387  -11.0888 C   0  0  0  0  0  0  0  0  0  0  0  0
   16.8296  -19.5091  -10.6725 C   0  0  0  0  0  0  0  0  0  0  0  0
   15.8247  -19.6446  -11.6064 C   0  0  0  0  0  0  0  0  0  0  0  0
   16.0693  -19.3099  -12.9313 C   0  0  0  0  0  0  0  0  0  0  0  0
   17.2882  -18.8413  -13.3628 C   0  0  0  0  0  0  0  0  0  0  0  0
   18.3062  -18.7045  -12.4149 C   0  0  0  0  0  0  0  0  0  0  0  0
   20.0600  -20.1448  -14.5944 C   0  0  0  0  0  0  0  0  0  0  0  0
   19.2835  -20.2204  -15.5715 O   0  0  0  0  0  0  0  0  0  0  0  0
   20.0498  -21.2029  -13.7073 O   0  0  0  0  0  0  0  0  0  0  0  0
  2  1  1  0
  3  2  1  0
  3  4  1  1
  5  3  1  0
  5  6  1  6
  7  8  2  0
  7  5  1  0
  9  7  1  0
 10 16  1  0
 10  9  1  0
 10 11  1  6
 12 11  1  0
 12 13  1  0
 14 13  1  0
 14 15  1  0
 16 17  2  0
 18 19  1  0
 18 16  1  0
 19 20  1  6
 20 21  1  0
 21 22  2  0
 21 29  1  0
 22 23  1  0
 23 24  1  0
 24 25  2  0
 25 26  1  0
 27 26  2  0
 28 27  1  0
 29 28  2  0
 29 24  1  0
 30 19  1  0
 31 30  2  0
 32 30  1  0
M  END
$$$$
