IKW.pdb
     RDKit          3D

 32 33  0  0  1  0  0  0  0  0999 V2000
   19.8366  -21.3817  -16.5453 C   0  0  0  0  0  0  0  0  0  0  0  0
   20.8139  -20.6737  -15.6651 C   0  0  0  0  0  0  0  0  0  0  0  0
   20.1129  -19.9470  -14.5003 C   0  0  2  0  0  0  0  0  0  0  0  0
   19.1460  -18.9507  -15.0489 C   0  0  0  0  0  0  0  0  0  0  0  0
   21.2367  -19.3573  -13.6821 C   0  0  2  0  0  0  0  0  0  0  0  0
   21.9366  -18.4512  -14.6066 N   0  0  0  0  0  0  0  0  0  0  0  0
   22.1629  -20.3309  -13.1036 C   0  0  0  0  0  0  0  0  0  0  0  0
   21.7236  -21.1775  -12.2452 O   0  0  0  0  0  0  0  0  0  0  0  0
   23.5423  -20.4624  -13.3856 N   0  0  0  0  0  0  0  0  0  0  0  0
   24.4169  -21.3619  -12.6503 C   0  0  1  0  0  0  0  0  0  0  0  0
   25.3313  -22.1620  -13.5473 C   0  0  0  0  0  0  0  0  0  0  0  0
   24.5685  -23.2340  -14.2901 C   0  0  0  0  0  0  0  0  0  0  0  0
   25.4888  -23.9986  -15.1959 C   0  0  0  0  0  0  0  0  0  0  0  0
   24.7632  -24.9553  -16.1099 C   0  0  0  0  0  0  0  0  0  0  0  0
   25.7944  -25.5679  -16.9620 N   0  0  0  0  0  0  0  0  0  0  0  0
   25.2213  -20.5432  -11.6688 C   0  0  0  0  0  0  0  0  0  0  0  0
   25.3253  -19.3001  -11.8079 O   0  0  0  0  0  0  0  0  0  0  0  0
   25.8756  -21.1605  -10.5704 N   0  0  0  0  0  0  0  0  0  0  0  0
   26.7204  -20.4745   -9.6205 C   0  0  1  0  0  0  0  0  0  0  0  0
   25.9887  -19.9627   -8.4341 C   0  0  0  0  0  0  0  0  0  0  0  0
   26.9070  -19.2757   -7.5073 C   0  0  0  0  0  0  0  0  0  0  0  0
   27.3324  -17.9688   -7.5921 C   0  0  0  0  0  0  0  0  0  0  0  0
   28.1569  -17.7179   -6.5775 N   0  0  0  0  0  0  0  0  0  0  0  0
   28.2793  -18.8398   -5.8284 C   0  0  0  0  0  0  0  0  0  0  0  0
   29.0226  -19.0655   -4.6815 C   0  0  0  0  0  0  0  0  0  0  0  0
   28.9779  -20.3146   -4.1000 C   0  0  0  0  0  0  0  0  0  0  0  0
   28.1963  -21.3098   -4.6708 C   0  0  0  0  0  0  0  0  0  0  0  0
   27.4517  -21.1040   -5.8088 C   0  0  0  0  0  0  0  0  0  0  0  0
   27.4981  -19.8371   -6.3973 C   0  0  0  0  0  0  0  0  0  0  0  0
   27.9177  -21.3148   -9.2828 C   0  0  0  0  0  0  0  0  0  0  0  0
   29.0717  -20.8390   -9.2094 O   0  0  0  0  0  0  0  0  0  0  0  0
   27.7845  -22.6669   -9.0361 O   0  0  0  0  0  0  0  0  0  0  0  0
  2  1  1  0
  3  2  1  0
  3  4  1  6
  5  3  1  0
  5  6  1  6
  7  8  2  0
  7  5  1  0
  9  7  1  0
 10 16  1  0
 10  9  1  0
 10 11  1  6
 12 11  1  0
 12 13  1  0
 14 13  1  0
 14 15  1  0
 16 17  2  0
 18 19  1  0
 18 16  1  0
 19 20  1  1
 20 21  1  0
 21 22  2  0
 21 29  1  0
 22 23  1  0
 23 24  1  0
 24 25  2  0
 25 26  1  0
 27 26  2  0
 28 27  1  0
 29 28  2  0
 29 24  1  0
 30 19  1  0
 31 30  2  0
 32 30  1  0
M  END
$$$$
