IKW.pdb
     RDKit          3D

 32 33  0  0  1  0  0  0  0  0999 V2000
   18.4716  -13.7787  -19.5303 C   0  0  0  0  0  0  0  0  0  0  0  0
   18.7872  -13.1387  -18.2182 C   0  0  0  0  0  0  0  0  0  0  0  0
   20.1622  -13.5826  -17.6809 C   0  0  2  0  0  0  0  0  0  0  0  0
   20.1426  -15.0534  -17.4264 C   0  0  0  0  0  0  0  0  0  0  0  0
   20.3910  -12.7293  -16.4564 C   0  0  2  0  0  0  0  0  0  0  0  0
   19.3114  -13.1068  -15.5305 N   0  0  0  0  0  0  0  0  0  0  0  0
   20.3936  -11.2859  -16.6951 C   0  0  0  0  0  0  0  0  0  0  0  0
   21.3916  -10.7549  -17.3022 O   0  0  0  0  0  0  0  0  0  0  0  0
   19.3889  -10.3621  -16.3254 N   0  0  0  0  0  0  0  0  0  0  0  0
   19.5042   -8.9321  -16.5627 C   0  0  1  0  0  0  0  0  0  0  0  0
   18.1947   -8.2905  -16.9556 C   0  0  0  0  0  0  0  0  0  0  0  0
   18.3577   -6.8047  -17.1762 C   0  0  0  0  0  0  0  0  0  0  0  0
   17.0537   -6.1919  -17.5958 C   0  0  0  0  0  0  0  0  0  0  0  0
   17.1689   -4.7269  -17.9391 C   0  0  0  0  0  0  0  0  0  0  0  0
   15.8403   -4.3135  -18.4169 N   0  0  0  0  0  0  0  0  0  0  0  0
   20.0560   -8.2876  -15.3134 C   0  0  0  0  0  0  0  0  0  0  0  0
   19.6013   -8.5912  -14.1836 O   0  0  0  0  0  0  0  0  0  0  0  0
   21.0983   -7.3266  -15.3899 N   0  0  0  0  0  0  0  0  0  0  0  0
   21.7431   -6.7150  -14.2511 C   0  0  1  0  0  0  0  0  0  0  0  0
   22.8956   -7.4932  -13.7305 C   0  0  0  0  0  0  0  0  0  0  0  0
   23.8979   -7.7176  -14.7883 C   0  0  0  0  0  0  0  0  0  0  0  0
   24.3267   -6.7994  -15.7205 C   0  0  0  0  0  0  0  0  0  0  0  0
   25.2329   -7.3758  -16.5072 N   0  0  0  0  0  0  0  0  0  0  0  0
   25.4052   -8.6580  -16.1058 C   0  0  0  0  0  0  0  0  0  0  0  0
   26.2358   -9.6436  -16.6130 C   0  0  0  0  0  0  0  0  0  0  0  0
   26.2258  -10.8872  -16.0182 C   0  0  0  0  0  0  0  0  0  0  0  0
   25.3914  -11.1226  -14.9339 C   0  0  0  0  0  0  0  0  0  0  0  0
   24.5604  -10.1564  -14.4167 C   0  0  0  0  0  0  0  0  0  0  0  0
   24.5716   -8.8961  -15.0209 C   0  0  0  0  0  0  0  0  0  0  0  0
   22.0591   -5.2760  -14.5391 C   0  0  0  0  0  0  0  0  0  0  0  0
   22.4752   -4.4916  -13.6588 O   0  0  0  0  0  0  0  0  0  0  0  0
   21.8994   -4.7586  -15.8094 O   0  0  0  0  0  0  0  0  0  0  0  0
  2  1  1  0
  3  2  1  0
  3  4  1  1
  5  3  1  0
  5  6  1  1
  7  8  2  0
  7  5  1  0
  9  7  1  0
 10 16  1  0
 10  9  1  0
 10 11  1  1
 12 11  1  0
 12 13  1  0
 14 13  1  0
 14 15  1  0
 16 17  2  0
 18 19  1  0
 18 16  1  0
 19 20  1  6
 20 21  1  0
 21 22  2  0
 21 29  1  0
 22 23  1  0
 23 24  1  0
 24 25  2  0
 25 26  1  0
 27 26  2  0
 28 27  1  0
 29 28  2  0
 29 24  1  0
 30 19  1  0
 31 30  2  0
 32 30  1  0
M  END
$$$$
