IKW.pdb
     RDKit          3D

 32 33  0  0  1  0  0  0  0  0999 V2000
   25.3984  -17.6820  -21.0203 C   0  0  0  0  0  0  0  0  0  0  0  0
   24.2182  -17.0352  -20.3725 C   0  0  0  0  0  0  0  0  0  0  0  0
   24.4057  -15.5115  -20.2326 C   0  0  2  0  0  0  0  0  0  0  0  0
   25.6118  -15.2362  -19.3971 C   0  0  0  0  0  0  0  0  0  0  0  0
   23.1036  -15.0150  -19.6512 C   0  0  2  0  0  0  0  0  0  0  0  0
   22.0630  -15.5956  -20.5147 N   0  0  0  0  0  0  0  0  0  0  0  0
   22.9695  -13.5600  -19.5775 C   0  0  0  0  0  0  0  0  0  0  0  0
   23.8031  -12.8909  -18.8677 O   0  0  0  0  0  0  0  0  0  0  0  0
   21.9937  -12.7635  -20.2201 N   0  0  0  0  0  0  0  0  0  0  0  0
   21.9638  -11.3133  -20.1161 C   0  0  1  0  0  0  0  0  0  0  0  0
   21.0169  -10.6693  -21.1007 C   0  0  0  0  0  0  0  0  0  0  0  0
   21.1525   -9.1646  -21.0863 C   0  0  0  0  0  0  0  0  0  0  0  0
   20.2155   -8.5453  -22.0815 C   0  0  0  0  0  0  0  0  0  0  0  0
   20.3857   -7.0512  -22.2078 C   0  0  0  0  0  0  0  0  0  0  0  0
   19.4293   -6.6166  -23.2378 N   0  0  0  0  0  0  0  0  0  0  0  0
   21.5853  -10.9478  -18.7005 C   0  0  0  0  0  0  0  0  0  0  0  0
   20.6863  -11.5814  -18.0956 O   0  0  0  0  0  0  0  0  0  0  0  0
   22.2364   -9.8821  -18.0252 N   0  0  0  0  0  0  0  0  0  0  0  0
   21.9138   -9.4294  -16.6919 C   0  0  1  0  0  0  0  0  0  0  0  0
   23.1037   -9.2343  -15.8253 C   0  0  0  0  0  0  0  0  0  0  0  0
   22.7135   -8.6832  -14.5145 C   0  0  0  0  0  0  0  0  0  0  0  0
   22.4778   -9.3977  -13.3612 C   0  0  0  0  0  0  0  0  0  0  0  0
   22.1448   -8.5501  -12.3903 N   0  0  0  0  0  0  0  0  0  0  0  0
   22.1581   -7.2906  -12.8884 C   0  0  0  0  0  0  0  0  0  0  0  0
   21.8819   -6.0853  -12.2641 C   0  0  0  0  0  0  0  0  0  0  0  0
   21.9663   -4.9240  -13.0020 C   0  0  0  0  0  0  0  0  0  0  0  0
   22.3229   -4.9868  -14.3422 C   0  0  0  0  0  0  0  0  0  0  0  0
   22.6008   -6.1740  -14.9786 C   0  0  0  0  0  0  0  0  0  0  0  0
   22.5148   -7.3506  -14.2292 C   0  0  0  0  0  0  0  0  0  0  0  0
   21.0001   -8.2397  -16.7501 C   0  0  0  0  0  0  0  0  0  0  0  0
   21.1717   -7.3013  -17.5584 O   0  0  0  0  0  0  0  0  0  0  0  0
   19.9180   -8.1382  -15.8983 O   0  0  0  0  0  0  0  0  0  0  0  0
  2  1  1  0
  3  2  1  0
  3  4  1  1
  5  3  1  0
  5  6  1  6
  7  8  2  0
  7  5  1  0
  9  7  1  0
 10 16  1  0
 10  9  1  0
 10 11  1  6
 12 11  1  0
 12 13  1  0
 14 13  1  0
 14 15  1  0
 16 17  2  0
 18 19  1  0
 18 16  1  0
 19 20  1  6
 20 21  1  0
 21 22  2  0
 21 29  1  0
 22 23  1  0
 23 24  1  0
 24 25  2  0
 25 26  1  0
 27 26  2  0
 28 27  1  0
 29 28  2  0
 29 24  1  0
 30 19  1  0
 31 30  2  0
 32 30  1  0
M  END
$$$$
