IKW.pdb
     RDKit          3D

 32 33  0  0  1  0  0  0  0  0999 V2000
   24.2443  -20.4687  -19.9654 C   0  0  0  0  0  0  0  0  0  0  0  0
   25.2229  -20.0780  -18.9068 C   0  0  0  0  0  0  0  0  0  0  0  0
   24.5184  -19.5237  -17.6527 C   0  0  2  0  0  0  0  0  0  0  0  0
   24.7475  -18.0511  -17.5667 C   0  0  0  0  0  0  0  0  0  0  0  0
   25.0888  -20.3230  -16.5056 C   0  0  2  0  0  0  0  0  0  0  0  0
   24.6540  -21.7056  -16.7606 N   0  0  0  0  0  0  0  0  0  0  0  0
   24.6747  -19.8825  -15.1733 C   0  0  0  0  0  0  0  0  0  0  0  0
   24.7078  -18.6313  -14.8907 O   0  0  0  0  0  0  0  0  0  0  0  0
   24.2213  -20.6992  -14.1117 N   0  0  0  0  0  0  0  0  0  0  0  0
   23.8038  -20.1638  -12.8257 C   0  0  1  0  0  0  0  0  0  0  0  0
   22.3432  -20.4082  -12.5295 C   0  0  0  0  0  0  0  0  0  0  0  0
   21.5908  -20.8063  -13.7778 C   0  0  0  0  0  0  0  0  0  0  0  0
   20.1389  -21.0232  -13.4666 C   0  0  0  0  0  0  0  0  0  0  0  0
   19.8064  -22.4620  -13.1557 C   0  0  0  0  0  0  0  0  0  0  0  0
   18.3772  -22.4850  -12.8073 N   0  0  0  0  0  0  0  0  0  0  0  0
   24.6717  -20.7774  -11.7529 C   0  0  0  0  0  0  0  0  0  0  0  0
   25.0601  -21.9672  -11.8482 O   0  0  0  0  0  0  0  0  0  0  0  0
   25.0659  -20.0236  -10.6162 N   0  0  0  0  0  0  0  0  0  0  0  0
   25.8329  -20.5415   -9.5070 C   0  0  1  0  0  0  0  0  0  0  0  0
   26.6797  -19.5200   -8.8403 C   0  0  0  0  0  0  0  0  0  0  0  0
   27.4466  -20.1168   -7.7314 C   0  0  0  0  0  0  0  0  0  0  0  0
   27.7003  -21.4562   -7.5365 C   0  0  0  0  0  0  0  0  0  0  0  0
   28.4196  -21.6009   -6.4258 N   0  0  0  0  0  0  0  0  0  0  0  0
   28.6419  -20.3774   -5.8887 C   0  0  0  0  0  0  0  0  0  0  0  0
   29.3345  -20.0228   -4.7427 C   0  0  0  0  0  0  0  0  0  0  0  0
   29.4174  -18.6884   -4.4067 C   0  0  0  0  0  0  0  0  0  0  0  0
   28.8108  -17.7378   -5.2164 C   0  0  0  0  0  0  0  0  0  0  0  0
   28.1194  -18.0711   -6.3577 C   0  0  0  0  0  0  0  0  0  0  0  0
   28.0362  -19.4244   -6.6971 C   0  0  0  0  0  0  0  0  0  0  0  0
   24.9447  -21.3047   -8.5678 C   0  0  0  0  0  0  0  0  0  0  0  0
   23.7923  -20.9195   -8.2728 O   0  0  0  0  0  0  0  0  0  0  0  0
   25.3764  -22.4805   -7.9865 O   0  0  0  0  0  0  0  0  0  0  0  0
  2  1  1  0
  3  2  1  0
  3  4  1  1
  5  3  1  0
  5  6  1  6
  7  8  2  0
  7  5  1  0
  9  7  1  0
 10 16  1  0
 10  9  1  0
 10 11  1  1
 12 11  1  0
 12 13  1  0
 14 13  1  0
 14 15  1  0
 16 17  2  0
 18 19  1  0
 18 16  1  0
 19 20  1  1
 20 21  1  0
 21 22  2  0
 21 29  1  0
 22 23  1  0
 23 24  1  0
 24 25  2  0
 25 26  1  0
 27 26  2  0
 28 27  1  0
 29 28  2  0
 29 24  1  0
 30 19  1  0
 31 30  2  0
 32 30  1  0
M  END
$$$$
