IKW.pdb
     RDKit          3D

 32 33  0  0  1  0  0  0  0  0999 V2000
   29.5230  -16.7334  -17.0374 C   0  0  0  0  0  0  0  0  0  0  0  0
   28.2268  -17.4695  -17.1317 C   0  0  0  0  0  0  0  0  0  0  0  0
   27.6356  -17.7680  -15.7397 C   0  0  2  0  0  0  0  0  0  0  0  0
   28.6004  -18.5984  -14.9600 C   0  0  0  0  0  0  0  0  0  0  0  0
   26.3081  -18.4312  -16.0192 C   0  0  2  0  0  0  0  0  0  0  0  0
   25.5401  -17.4277  -16.7731 N   0  0  0  0  0  0  0  0  0  0  0  0
   25.5708  -18.8718  -14.8348 C   0  0  0  0  0  0  0  0  0  0  0  0
   25.1388  -17.9934  -14.0053 O   0  0  0  0  0  0  0  0  0  0  0  0
   25.2597  -20.2034  -14.4748 N   0  0  0  0  0  0  0  0  0  0  0  0
   24.5486  -20.5462  -13.2536 C   0  0  1  0  0  0  0  0  0  0  0  0
   23.5780  -21.6889  -13.4355 C   0  0  0  0  0  0  0  0  0  0  0  0
   22.7962  -21.9497  -12.1691 C   0  0  0  0  0  0  0  0  0  0  0  0
   21.5728  -21.0819  -12.1215 C   0  0  0  0  0  0  0  0  0  0  0  0
   20.7461  -21.2884  -10.8761 C   0  0  0  0  0  0  0  0  0  0  0  0
   19.6950  -20.2595  -10.9081 N   0  0  0  0  0  0  0  0  0  0  0  0
   25.5674  -20.8808  -12.1902 C   0  0  0  0  0  0  0  0  0  0  0  0
   26.5260  -21.6505  -12.4434 O   0  0  0  0  0  0  0  0  0  0  0  0
   25.4630  -20.3334  -10.8844 N   0  0  0  0  0  0  0  0  0  0  0  0
   26.2753  -20.7266   -9.7565 C   0  0  1  0  0  0  0  0  0  0  0  0
   27.3947  -19.7926   -9.4746 C   0  0  0  0  0  0  0  0  0  0  0  0
   28.2501  -20.3105   -8.3911 C   0  0  0  0  0  0  0  0  0  0  0  0
   29.0490  -21.4310   -8.4407 C   0  0  0  0  0  0  0  0  0  0  0  0
   29.6631  -21.5740   -7.2683 N   0  0  0  0  0  0  0  0  0  0  0  0
   29.2796  -20.5650   -6.4501 C   0  0  0  0  0  0  0  0  0  0  0  0
   29.6474  -20.2929   -5.1426 C   0  0  0  0  0  0  0  0  0  0  0  0
   29.1073  -19.1877   -4.5204 C   0  0  0  0  0  0  0  0  0  0  0  0
   28.2148  -18.3790   -5.2109 C   0  0  0  0  0  0  0  0  0  0  0  0
   27.8383  -18.6334   -6.5090 C   0  0  0  0  0  0  0  0  0  0  0  0
   28.3868  -19.7543   -7.1386 C   0  0  0  0  0  0  0  0  0  0  0  0
   25.4101  -21.0188   -8.5651 C   0  0  0  0  0  0  0  0  0  0  0  0
   24.3502  -20.3957   -8.3371 O   0  0  0  0  0  0  0  0  0  0  0  0
   25.7598  -22.0040   -7.6630 O   0  0  0  0  0  0  0  0  0  0  0  0
  2  1  1  0
  3  2  1  0
  3  4  1  6
  5  3  1  0
  5  6  1  1
  7  8  2  0
  7  5  1  0
  9  7  1  0
 10 16  1  0
 10  9  1  0
 10 11  1  6
 12 11  1  0
 12 13  1  0
 14 13  1  0
 14 15  1  0
 16 17  2  0
 18 19  1  0
 18 16  1  0
 19 20  1  1
 20 21  1  0
 21 22  2  0
 21 29  1  0
 22 23  1  0
 23 24  1  0
 24 25  2  0
 25 26  1  0
 27 26  2  0
 28 27  1  0
 29 28  2  0
 29 24  1  0
 30 19  1  0
 31 30  2  0
 32 30  1  0
M  END
$$$$
