IKW.pdb
     RDKit          3D

 32 33  0  0  1  0  0  0  0  0999 V2000
   28.0636  -20.0545  -19.6899 C   0  0  0  0  0  0  0  0  0  0  0  0
   27.9104  -20.5244  -18.2804 C   0  0  0  0  0  0  0  0  0  0  0  0
   29.1863  -21.2210  -17.7676 C   0  0  2  0  0  0  0  0  0  0  0  0
   29.7783  -22.0402  -18.8662 C   0  0  0  0  0  0  0  0  0  0  0  0
   28.7364  -22.0083  -16.5601 C   0  0  2  0  0  0  0  0  0  0  0  0
   27.6950  -22.9138  -17.0709 N   0  0  0  0  0  0  0  0  0  0  0  0
   28.2305  -21.2054  -15.4466 C   0  0  0  0  0  0  0  0  0  0  0  0
   29.0329  -20.4165  -14.8301 O   0  0  0  0  0  0  0  0  0  0  0  0
   26.9090  -21.1883  -14.9436 N   0  0  0  0  0  0  0  0  0  0  0  0
   26.4946  -20.3368  -13.8400 C   0  0  1  0  0  0  0  0  0  0  0  0
   25.1864  -19.6281  -14.0990 C   0  0  0  0  0  0  0  0  0  0  0  0
   25.1345  -19.0707  -15.5024 C   0  0  0  0  0  0  0  0  0  0  0  0
   23.7775  -18.4969  -15.7875 C   0  0  0  0  0  0  0  0  0  0  0  0
   23.6837  -17.8380  -17.1419 C   0  0  0  0  0  0  0  0  0  0  0  0
   22.3204  -17.2933  -17.2378 N   0  0  0  0  0  0  0  0  0  0  0  0
   26.3990  -21.1872  -12.5957 C   0  0  0  0  0  0  0  0  0  0  0  0
   26.2827  -22.4341  -12.6813 O   0  0  0  0  0  0  0  0  0  0  0  0
   26.4382  -20.5961  -11.3054 N   0  0  0  0  0  0  0  0  0  0  0  0
   26.2632  -21.3121  -10.0631 C   0  0  1  0  0  0  0  0  0  0  0  0
   27.5111  -21.4397   -9.2687 C   0  0  0  0  0  0  0  0  0  0  0  0
   27.5838  -20.3920   -8.2337 C   0  0  0  0  0  0  0  0  0  0  0  0
   26.7686  -19.2875   -8.1256 C   0  0  0  0  0  0  0  0  0  0  0  0
   27.1473  -18.5751   -7.0667 N   0  0  0  0  0  0  0  0  0  0  0  0
   28.1982  -19.1949   -6.4783 C   0  0  0  0  0  0  0  0  0  0  0  0
   28.9273  -18.8354   -5.3567 C   0  0  0  0  0  0  0  0  0  0  0  0
   29.9670  -19.6471   -4.9560 C   0  0  0  0  0  0  0  0  0  0  0  0
   30.2580  -20.7964   -5.6782 C   0  0  0  0  0  0  0  0  0  0  0  0
   29.5452  -21.1693   -6.7938 C   0  0  0  0  0  0  0  0  0  0  0  0
   28.4914  -20.3453   -7.1989 C   0  0  0  0  0  0  0  0  0  0  0  0
   25.1048  -20.7480   -9.2927 C   0  0  0  0  0  0  0  0  0  0  0  0
   24.5974  -19.6374   -9.5623 O   0  0  0  0  0  0  0  0  0  0  0  0
   24.5483  -21.4483   -8.2408 O   0  0  0  0  0  0  0  0  0  0  0  0
  2  1  1  0
  3  2  1  0
  3  4  1  6
  5  3  1  0
  5  6  1  6
  7  8  2  0
  7  5  1  0
  9  7  1  0
 10 16  1  0
 10  9  1  0
 10 11  1  6
 12 11  1  0
 12 13  1  0
 14 13  1  0
 14 15  1  0
 16 17  2  0
 18 19  1  0
 18 16  1  0
 19 20  1  1
 20 21  1  0
 21 22  2  0
 21 29  1  0
 22 23  1  0
 23 24  1  0
 24 25  2  0
 25 26  1  0
 27 26  2  0
 28 27  1  0
 29 28  2  0
 29 24  1  0
 30 19  1  0
 31 30  2  0
 32 30  1  0
M  END
$$$$
