IKW.pdb
     RDKit          3D

 32 33  0  0  1  0  0  0  0  0999 V2000
   12.7206  -20.9258   -8.7002 C   0  0  0  0  0  0  0  0  0  0  0  0
   13.3733  -20.9025  -10.0435 C   0  0  0  0  0  0  0  0  0  0  0  0
   13.7657  -19.4724  -10.4643 C   0  0  2  0  0  0  0  0  0  0  0  0
   12.5699  -18.5837  -10.3714 C   0  0  0  0  0  0  0  0  0  0  0  0
   14.3385  -19.6231  -11.8533 C   0  0  2  0  0  0  0  0  0  0  0  0
   15.5137  -20.4917  -11.6809 N   0  0  0  0  0  0  0  0  0  0  0  0
   14.7067  -18.3708  -12.5141 C   0  0  0  0  0  0  0  0  0  0  0  0
   15.8628  -17.8618  -12.2883 O   0  0  0  0  0  0  0  0  0  0  0  0
   13.9135  -17.6188  -13.4111 N   0  0  0  0  0  0  0  0  0  0  0  0
   14.3589  -16.3662  -14.0005 C   0  0  1  0  0  0  0  0  0  0  0  0
   14.3436  -16.3849  -15.5106 C   0  0  0  0  0  0  0  0  0  0  0  0
   14.9052  -15.1027  -16.0794 C   0  0  0  0  0  0  0  0  0  0  0  0
   14.8862  -15.1435  -17.5794 C   0  0  0  0  0  0  0  0  0  0  0  0
   15.5232  -13.9319  -18.2147 C   0  0  0  0  0  0  0  0  0  0  0  0
   15.4314  -14.1371  -19.6687 N   0  0  0  0  0  0  0  0  0  0  0  0
   13.4794  -15.2565  -13.4755 C   0  0  0  0  0  0  0  0  0  0  0  0
   12.2383  -15.4166  -13.3782 O   0  0  0  0  0  0  0  0  0  0  0  0
   14.0361  -14.0111  -13.0819 N   0  0  0  0  0  0  0  0  0  0  0  0
   13.2797  -12.8954  -12.5626 C   0  0  1  0  0  0  0  0  0  0  0  0
   13.6462  -12.5231  -11.1727 C   0  0  0  0  0  0  0  0  0  0  0  0
   13.4481  -13.6603  -10.2553 C   0  0  0  0  0  0  0  0  0  0  0  0
   12.2782  -14.3581  -10.0541 C   0  0  0  0  0  0  0  0  0  0  0  0
   12.4949  -15.3096   -9.1486 N   0  0  0  0  0  0  0  0  0  0  0  0
   13.7887  -15.2470   -8.7524 C   0  0  0  0  0  0  0  0  0  0  0  0
   14.4753  -16.0244   -7.8342 C   0  0  0  0  0  0  0  0  0  0  0  0
   15.8074  -15.7544   -7.6045 C   0  0  0  0  0  0  0  0  0  0  0  0
   16.4263  -14.7191   -8.2918 C   0  0  0  0  0  0  0  0  0  0  0  0
   15.7609  -13.9371   -9.2069 C   0  0  0  0  0  0  0  0  0  0  0  0
   14.4102  -14.2120   -9.4388 C   0  0  0  0  0  0  0  0  0  0  0  0
   13.3099  -11.7475  -13.5295 C   0  0  0  0  0  0  0  0  0  0  0  0
   12.7575  -10.6521  -13.2874 O   0  0  0  0  0  0  0  0  0  0  0  0
   13.9609  -11.8623  -14.7418 O   0  0  0  0  0  0  0  0  0  0  0  0
  2  1  1  0
  3  2  1  0
  3  4  1  6
  5  3  1  0
  5  6  1  1
  7  8  2  0
  7  5  1  0
  9  7  1  0
 10 16  1  0
 10  9  1  0
 10 11  1  6
 12 11  1  0
 12 13  1  0
 14 13  1  0
 14 15  1  0
 16 17  2  0
 18 19  1  0
 18 16  1  0
 19 20  1  1
 20 21  1  0
 21 22  2  0
 21 29  1  0
 22 23  1  0
 23 24  1  0
 24 25  2  0
 25 26  1  0
 27 26  2  0
 28 27  1  0
 29 28  2  0
 29 24  1  0
 30 19  1  0
 31 30  2  0
 32 30  1  0
M  END
$$$$
