IKW.pdb
     RDKit          3D

 32 33  0  0  1  0  0  0  0  0999 V2000
   27.9045  -17.9495  -18.2867 C   0  0  0  0  0  0  0  0  0  0  0  0
   28.5294  -17.8699  -16.9324 C   0  0  0  0  0  0  0  0  0  0  0  0
   27.4688  -17.7929  -15.8164 C   0  0  2  0  0  0  0  0  0  0  0  0
   27.6524  -16.5276  -15.0459 C   0  0  0  0  0  0  0  0  0  0  0  0
   27.6607  -19.0580  -15.0148 C   0  0  2  0  0  0  0  0  0  0  0  0
   27.4195  -20.1482  -15.9733 N   0  0  0  0  0  0  0  0  0  0  0  0
   26.7937  -19.1906  -13.8438 C   0  0  0  0  0  0  0  0  0  0  0  0
   26.7886  -18.2588  -12.9616 O   0  0  0  0  0  0  0  0  0  0  0  0
   25.9210  -20.2638  -13.5504 N   0  0  0  0  0  0  0  0  0  0  0  0
   25.0870  -20.3012  -12.3598 C   0  0  1  0  0  0  0  0  0  0  0  0
   23.8426  -21.1388  -12.5356 C   0  0  0  0  0  0  0  0  0  0  0  0
   22.9717  -20.5985  -13.6458 C   0  0  0  0  0  0  0  0  0  0  0  0
   21.6768  -21.3543  -13.7098 C   0  0  0  0  0  0  0  0  0  0  0  0
   20.7328  -20.8274  -14.7626 C   0  0  0  0  0  0  0  0  0  0  0  0
   19.4821  -21.5863  -14.6066 N   0  0  0  0  0  0  0  0  0  0  0  0
   25.9202  -20.8246  -11.2141 C   0  0  0  0  0  0  0  0  0  0  0  0
   26.7726  -21.7262  -11.4037 O   0  0  0  0  0  0  0  0  0  0  0  0
   25.7574  -20.3095   -9.9011 N   0  0  0  0  0  0  0  0  0  0  0  0
   26.4876  -20.7621   -8.7398 C   0  0  1  0  0  0  0  0  0  0  0  0
   27.4970  -19.7874   -8.2541 C   0  0  0  0  0  0  0  0  0  0  0  0
   28.2363  -20.3291   -7.0992 C   0  0  0  0  0  0  0  0  0  0  0  0
   28.9730  -21.4922   -7.0687 C   0  0  0  0  0  0  0  0  0  0  0  0
   29.4862  -21.6448   -5.8499 N   0  0  0  0  0  0  0  0  0  0  0  0
   29.0978  -20.6001   -5.0801 C   0  0  0  0  0  0  0  0  0  0  0  0
   29.3786  -20.3221   -3.7525 C   0  0  0  0  0  0  0  0  0  0  0  0
   28.8547  -19.1769   -3.1918 C   0  0  0  0  0  0  0  0  0  0  0  0
   28.0645  -18.3349   -3.9625 C   0  0  0  0  0  0  0  0  0  0  0  0
   27.7753  -18.5946   -5.2818 C   0  0  0  0  0  0  0  0  0  0  0  0
   28.3071  -19.7560   -5.8489 C   0  0  0  0  0  0  0  0  0  0  0  0
   25.5391  -21.2380   -7.6780 C   0  0  0  0  0  0  0  0  0  0  0  0
   25.9260  -21.8508   -6.6591 O   0  0  0  0  0  0  0  0  0  0  0  0
   24.1817  -21.0111   -7.7906 O   0  0  0  0  0  0  0  0  0  0  0  0
  2  1  1  0
  3  2  1  0
  3  4  1  1
  5  3  1  0
  5  6  1  6
  7  8  2  0
  7  5  1  0
  9  7  1  0
 10 16  1  0
 10  9  1  0
 10 11  1  6
 12 11  1  0
 12 13  1  0
 14 13  1  0
 14 15  1  0
 16 17  2  0
 18 19  1  0
 18 16  1  0
 19 20  1  1
 20 21  1  0
 21 22  2  0
 21 29  1  0
 22 23  1  0
 23 24  1  0
 24 25  2  0
 25 26  1  0
 27 26  2  0
 28 27  1  0
 29 28  2  0
 29 24  1  0
 30 19  1  0
 31 30  2  0
 32 30  1  0
M  END
$$$$
