TYP.pdb
     RDKit          3D

 27 28  0  0  1  0  0  0  0  0999 V2000
   25.5497   -8.1928  -19.7488 C   0  0  0  0  0  0  0  0  0  0  0  0
   25.1339   -9.4150  -20.5452 C   0  0  1  0  0  0  0  0  0  0  0  0
   26.1797   -9.6660  -21.4487 O   0  0  0  0  0  0  0  0  0  0  0  0
   24.9326  -10.6169  -19.6458 C   0  0  2  0  0  0  0  0  0  0  0  0
   24.6040  -11.7490  -20.4901 N   0  0  0  0  0  0  0  0  0  0  0  0
   23.8215  -10.2945  -18.7127 C   0  0  0  0  0  0  0  0  0  0  0  0
   22.6490  -10.4385  -19.1259 O   0  0  0  0  0  0  0  0  0  0  0  0
   21.7290  -15.7402  -15.7999 O   0  0  0  0  0  0  0  0  0  0  0  0
   22.1315  -14.4164  -15.6509 C   0  0  0  0  0  0  0  0  0  0  0  0
   21.1990  -13.4045  -15.7357 C   0  0  0  0  0  0  0  0  0  0  0  0
   21.5745  -12.0844  -15.5912 C   0  0  0  0  0  0  0  0  0  0  0  0
   22.8801  -11.7089  -15.3581 C   0  0  0  0  0  0  0  0  0  0  0  0
   23.2812  -10.2864  -15.2029 C   0  0  0  0  0  0  0  0  0  0  0  0
   22.9881   -9.4888  -16.4656 C   0  0  2  0  0  0  0  0  0  0  0  0
   24.0598   -9.8365  -17.3904 N   0  0  0  0  0  0  0  0  0  0  0  0
   23.1158   -8.0546  -16.1138 C   0  0  0  0  0  0  0  0  0  0  0  0
   24.3085   -7.5827  -16.1201 O   0  0  0  0  0  0  0  0  0  0  0  0
   23.7901  -12.7406  -15.2782 C   0  0  0  0  0  0  0  0  0  0  0  0
   23.4398  -14.0632  -15.4187 C   0  0  0  0  0  0  0  0  0  0  0  0
   22.0377   -7.2102  -15.7857 N   0  0  0  0  0  0  0  0  0  0  0  0
   20.6530   -7.5896  -15.6851 C   0  0  0  0  0  0  0  0  0  0  0  0
   19.8695   -6.3227  -16.0140 C   0  0  0  0  0  0  0  0  0  0  0  0
   20.8662   -5.1933  -16.0655 C   0  0  0  0  0  0  0  0  0  0  0  0
   22.1180   -5.8030  -15.4978 C   0  0  1  0  0  0  0  0  0  0  0  0
   22.1925   -5.5969  -14.0391 C   0  0  0  0  0  0  0  0  0  0  0  0
   21.9822   -6.5627  -13.2726 O   0  0  0  0  0  0  0  0  0  0  0  0
   22.4909   -4.3541  -13.5083 O   0  0  0  0  0  0  0  0  0  0  0  0
  2  1  1  1
  2  3  1  0
  4  2  1  0
  4  5  1  6
  6  4  1  0
  7  6  2  0
  8  9  1  0
  9 10  2  0
  9 19  1  0
 10 11  1  0
 11 12  2  0
 12 13  1  0
 14 13  1  1
 14 15  1  0
 15  6  1  0
 16 14  1  0
 17 16  2  0
 18 12  1  0
 19 18  2  0
 20 16  1  0
 20 21  1  0
 21 22  1  0
 23 22  1  0
 24 20  1  0
 24 23  1  0
 24 25  1  1
 26 25  2  0
 27 25  1  0
M  END
$$$$
