TYP.pdb
     RDKit          3D

 27 28  0  0  1  0  0  0  0  0999 V2000
   28.5559  -22.2044  -16.8519 C   0  0  0  0  0  0  0  0  0  0  0  0
   28.8237  -20.9857  -17.7144 C   0  0  1  0  0  0  0  0  0  0  0  0
   29.5578  -21.4446  -18.8206 O   0  0  0  0  0  0  0  0  0  0  0  0
   27.5326  -20.3478  -18.1837 C   0  0  2  0  0  0  0  0  0  0  0  0
   27.8788  -19.1906  -18.9857 N   0  0  0  0  0  0  0  0  0  0  0  0
   26.7618  -19.9592  -16.9737 C   0  0  0  0  0  0  0  0  0  0  0  0
   27.0912  -18.9066  -16.3822 O   0  0  0  0  0  0  0  0  0  0  0  0
   21.6254  -15.9629  -18.6906 O   0  0  0  0  0  0  0  0  0  0  0  0
   22.0739  -17.0868  -18.0034 C   0  0  0  0  0  0  0  0  0  0  0  0
   21.9572  -17.1408  -16.6307 C   0  0  0  0  0  0  0  0  0  0  0  0
   22.3948  -18.2447  -15.9277 C   0  0  0  0  0  0  0  0  0  0  0  0
   22.9636  -19.3371  -16.5468 C   0  0  0  0  0  0  0  0  0  0  0  0
   23.4339  -20.5244  -15.7868 C   0  0  0  0  0  0  0  0  0  0  0  0
   24.8773  -20.3551  -15.3350 C   0  0  2  0  0  0  0  0  0  0  0  0
   25.6824  -20.7422  -16.4868 N   0  0  0  0  0  0  0  0  0  0  0  0
   25.1103  -21.3340  -14.2466 C   0  0  0  0  0  0  0  0  0  0  0  0
   25.4985  -22.4989  -14.6177 O   0  0  0  0  0  0  0  0  0  0  0  0
   23.0675  -19.2556  -17.9185 C   0  0  0  0  0  0  0  0  0  0  0  0
   22.6386  -18.1663  -18.6405 C   0  0  0  0  0  0  0  0  0  0  0  0
   24.9364  -21.0651  -12.8754 N   0  0  0  0  0  0  0  0  0  0  0  0
   24.4850  -19.8272  -12.2962 C   0  0  0  0  0  0  0  0  0  0  0  0
   25.1140  -19.7865  -10.9070 C   0  0  0  0  0  0  0  0  0  0  0  0
   25.7255  -21.1424  -10.6641 C   0  0  0  0  0  0  0  0  0  0  0  0
   25.1872  -21.9781  -11.7922 C   0  0  1  0  0  0  0  0  0  0  0  0
   23.9309  -22.6461  -11.4033 C   0  0  0  0  0  0  0  0  0  0  0  0
   22.8425  -22.1973  -11.8258 O   0  0  0  0  0  0  0  0  0  0  0  0
   23.9394  -23.7587  -10.5803 O   0  0  0  0  0  0  0  0  0  0  0  0
  2  1  1  1
  2  3  1  0
  4  2  1  0
  4  5  1  6
  6  4  1  0
  7  6  2  0
  8  9  1  0
  9 10  2  0
  9 19  1  0
 10 11  1  0
 11 12  2  0
 12 13  1  0
 14 13  1  6
 14 15  1  0
 15  6  1  0
 16 14  1  0
 17 16  2  0
 18 12  1  0
 19 18  2  0
 20 16  1  0
 20 21  1  0
 21 22  1  0
 23 22  1  0
 24 20  1  0
 24 23  1  0
 24 25  1  1
 26 25  2  0
 27 25  1  0
M  END
$$$$
