TYP.pdb
     RDKit          3D

 27 28  0  0  1  0  0  0  0  0999 V2000
   26.3705  -18.0938  -18.6809 C   0  0  0  0  0  0  0  0  0  0  0  0
   27.4271  -18.9345  -19.3722 C   0  0  1  0  0  0  0  0  0  0  0  0
   27.8920  -18.1658  -20.4520 O   0  0  0  0  0  0  0  0  0  0  0  0
   28.5753  -19.2546  -18.4377 C   0  0  2  0  0  0  0  0  0  0  0  0
   29.5190  -20.0802  -19.1657 N   0  0  0  0  0  0  0  0  0  0  0  0
   28.0103  -19.9775  -17.2684 C   0  0  0  0  0  0  0  0  0  0  0  0
   27.7423  -21.1925  -17.4043 O   0  0  0  0  0  0  0  0  0  0  0  0
   25.4148  -21.2869   -8.8505 O   0  0  0  0  0  0  0  0  0  0  0  0
   25.9544  -20.7731  -10.0259 C   0  0  0  0  0  0  0  0  0  0  0  0
   27.0572  -21.3758  -10.5927 C   0  0  0  0  0  0  0  0  0  0  0  0
   27.6096  -20.8842  -11.7579 C   0  0  0  0  0  0  0  0  0  0  0  0
   27.0994  -19.7822  -12.4100 C   0  0  0  0  0  0  0  0  0  0  0  0
   27.6967  -19.2554  -13.6646 C   0  0  0  0  0  0  0  0  0  0  0  0
   27.1739  -20.0039  -14.8824 C   0  0  2  0  0  0  0  0  0  0  0  0
   27.7739  -19.3303  -16.0273 N   0  0  0  0  0  0  0  0  0  0  0  0
   25.7074  -19.7928  -14.9265 C   0  0  0  0  0  0  0  0  0  0  0  0
   25.3232  -18.6147  -15.2576 O   0  0  0  0  0  0  0  0  0  0  0  0
   25.9977  -19.2004  -11.8211 C   0  0  0  0  0  0  0  0  0  0  0  0
   25.4298  -19.6722  -10.6607 C   0  0  0  0  0  0  0  0  0  0  0  0
   24.7460  -20.7799  -14.6364 N   0  0  0  0  0  0  0  0  0  0  0  0
   25.0020  -22.0988  -14.1203 C   0  0  0  0  0  0  0  0  0  0  0  0
   23.8486  -22.9560  -14.6322 C   0  0  0  0  0  0  0  0  0  0  0  0
   22.8418  -22.0149  -15.2423 C   0  0  0  0  0  0  0  0  0  0  0  0
   23.3233  -20.6573  -14.8112 C   0  0  1  0  0  0  0  0  0  0  0  0
   22.6983  -20.2539  -13.5375 C   0  0  0  0  0  0  0  0  0  0  0  0
   23.3520  -20.3541  -12.4758 O   0  0  0  0  0  0  0  0  0  0  0  0
   21.4031  -19.7677  -13.5005 O   0  0  0  0  0  0  0  0  0  0  0  0
  2  1  1  1
  2  3  1  0
  4  2  1  0
  4  5  1  6
  6  4  1  0
  7  6  2  0
  8  9  1  0
  9 10  2  0
  9 19  1  0
 10 11  1  0
 11 12  2  0
 12 13  1  0
 14 13  1  1
 14 15  1  0
 15  6  1  0
 16 14  1  0
 17 16  2  0
 18 12  1  0
 19 18  2  0
 20 16  1  0
 20 21  1  0
 21 22  1  0
 23 22  1  0
 24 20  1  0
 24 23  1  0
 24 25  1  1
 26 25  2  0
 27 25  1  0
M  END
$$$$
