TYP.pdb
     RDKit          3D

 27 28  0  0  1  0  0  0  0  0999 V2000
   23.2719  -10.2869  -21.1270 C   0  0  0  0  0  0  0  0  0  0  0  0
   22.4453   -9.4771  -20.1462 C   0  0  1  0  0  0  0  0  0  0  0  0
   21.1018   -9.7077  -20.4851 O   0  0  0  0  0  0  0  0  0  0  0  0
   22.6974   -9.9160  -18.7187 C   0  0  2  0  0  0  0  0  0  0  0  0
   22.2344  -11.2840  -18.5898 N   0  0  0  0  0  0  0  0  0  0  0  0
   21.9371   -8.9992  -17.8294 C   0  0  0  0  0  0  0  0  0  0  0  0
   20.8510   -9.4061  -17.3593 O   0  0  0  0  0  0  0  0  0  0  0  0
   20.1756   -9.6051  -11.0427 O   0  0  0  0  0  0  0  0  0  0  0  0
   20.7780   -8.9254  -12.0970 C   0  0  0  0  0  0  0  0  0  0  0  0
   20.2738   -7.7082  -12.5031 C   0  0  0  0  0  0  0  0  0  0  0  0
   20.8543   -7.0159  -13.5461 C   0  0  0  0  0  0  0  0  0  0  0  0
   21.9521   -7.4933  -14.2295 C   0  0  0  0  0  0  0  0  0  0  0  0
   22.5749   -6.7452  -15.3524 C   0  0  0  0  0  0  0  0  0  0  0  0
   21.7077   -6.8006  -16.6019 C   0  0  2  0  0  0  0  0  0  0  0  0
   22.4093   -7.6991  -17.5102 N   0  0  0  0  0  0  0  0  0  0  0  0
   21.7063   -5.4407  -17.1914 C   0  0  0  0  0  0  0  0  0  0  0  0
   22.7384   -5.1340  -17.8887 O   0  0  0  0  0  0  0  0  0  0  0  0
   22.4345   -8.7114  -13.8025 C   0  0  0  0  0  0  0  0  0  0  0  0
   21.8729   -9.4196  -12.7658 C   0  0  0  0  0  0  0  0  0  0  0  0
   20.6704   -4.4999  -17.0351 N   0  0  0  0  0  0  0  0  0  0  0  0
   19.4771   -4.6633  -16.2473 C   0  0  0  0  0  0  0  0  0  0  0  0
   18.4313   -3.7824  -16.9236 C   0  0  0  0  0  0  0  0  0  0  0  0
   19.1556   -2.9596  -17.9579 C   0  0  0  0  0  0  0  0  0  0  0  0
   20.6066   -3.1978  -17.6435 C   0  0  1  0  0  0  0  0  0  0  0  0
   21.1177   -2.1832  -16.7027 C   0  0  0  0  0  0  0  0  0  0  0  0
   21.2554   -1.0022  -17.0909 O   0  0  0  0  0  0  0  0  0  0  0  0
   21.4460   -2.5184  -15.4007 O   0  0  0  0  0  0  0  0  0  0  0  0
  2  1  1  6
  2  3  1  0
  4  2  1  0
  4  5  1  6
  6  4  1  0
  7  6  2  0
  8  9  1  0
  9 10  2  0
  9 19  1  0
 10 11  1  0
 11 12  2  0
 12 13  1  0
 14 13  1  1
 14 15  1  0
 15  6  1  0
 16 14  1  0
 17 16  2  0
 18 12  1  0
 19 18  2  0
 20 16  1  0
 20 21  1  0
 21 22  1  0
 23 22  1  0
 24 20  1  0
 24 23  1  0
 24 25  1  1
 26 25  2  0
 27 25  1  0
M  END
$$$$
