TYP.pdb
     RDKit          3D

 27 28  0  0  1  0  0  0  0  0999 V2000
   19.5085  -21.4975  -15.5760 C   0  0  0  0  0  0  0  0  0  0  0  0
   20.8093  -20.7845  -15.2586 C   0  0  1  0  0  0  0  0  0  0  0  0
   20.7567  -19.5564  -15.9383 O   0  0  0  0  0  0  0  0  0  0  0  0
   20.9566  -20.5423  -13.7708 C   0  0  2  0  0  0  0  0  0  0  0  0
   20.0182  -19.5013  -13.3988 N   0  0  0  0  0  0  0  0  0  0  0  0
   22.3606  -20.1214  -13.5243 C   0  0  0  0  0  0  0  0  0  0  0  0
   22.5772  -18.9107  -13.2926 O   0  0  0  0  0  0  0  0  0  0  0  0
   25.4715  -19.7365   -7.0239 O   0  0  0  0  0  0  0  0  0  0  0  0
   25.4273  -20.2179   -8.3288 C   0  0  0  0  0  0  0  0  0  0  0  0
   26.5789  -20.2474   -9.0863 C   0  0  0  0  0  0  0  0  0  0  0  0
   26.5595  -20.7204  -10.3825 C   0  0  0  0  0  0  0  0  0  0  0  0
   25.4081  -21.1823  -10.9834 C   0  0  0  0  0  0  0  0  0  0  0  0
   25.3908  -21.6912  -12.3795 C   0  0  0  0  0  0  0  0  0  0  0  0
   24.8255  -20.6536  -13.3389 C   0  0  2  0  0  0  0  0  0  0  0  0
   23.4372  -21.0464  -13.5463 N   0  0  0  0  0  0  0  0  0  0  0  0
   25.5544  -20.8034  -14.6208 C   0  0  0  0  0  0  0  0  0  0  0  0
   25.0018  -21.5670  -15.4907 O   0  0  0  0  0  0  0  0  0  0  0  0
   24.2730  -21.1412  -10.2032 C   0  0  0  0  0  0  0  0  0  0  0  0
   24.2676  -20.6743   -8.9095 C   0  0  0  0  0  0  0  0  0  0  0  0
   26.7767  -20.1747  -14.9265 N   0  0  0  0  0  0  0  0  0  0  0  0
   27.6653  -19.5316  -13.9947 C   0  0  0  0  0  0  0  0  0  0  0  0
   28.3910  -18.4656  -14.8095 C   0  0  0  0  0  0  0  0  0  0  0  0
   28.0406  -18.7067  -16.2554 C   0  0  0  0  0  0  0  0  0  0  0  0
   27.3636  -20.0491  -16.2340 C   0  0  1  0  0  0  0  0  0  0  0  0
   28.3371  -21.1362  -16.4491 C   0  0  0  0  0  0  0  0  0  0  0  0
   28.6382  -21.8863  -15.4945 O   0  0  0  0  0  0  0  0  0  0  0  0
   28.9200  -21.3374  -17.6880 O   0  0  0  0  0  0  0  0  0  0  0  0
  2  1  1  1
  2  3  1  0
  4  2  1  0
  4  5  1  6
  6  4  1  0
  7  6  2  0
  8  9  1  0
  9 10  2  0
  9 19  1  0
 10 11  1  0
 11 12  2  0
 12 13  1  0
 14 13  1  1
 14 15  1  0
 15  6  1  0
 16 14  1  0
 17 16  2  0
 18 12  1  0
 19 18  2  0
 20 16  1  0
 20 21  1  0
 21 22  1  0
 23 22  1  0
 24 20  1  0
 24 23  1  0
 24 25  1  1
 26 25  2  0
 27 25  1  0
M  END
$$$$
