TYP.pdb
     RDKit          3D

 27 28  0  0  1  0  0  0  0  0999 V2000
   20.3755   -9.7813  -19.5053 C   0  0  0  0  0  0  0  0  0  0  0  0
   19.2412   -9.4614  -18.5502 C   0  0  1  0  0  0  0  0  0  0  0  0
   18.4544  -10.6226  -18.4764 O   0  0  0  0  0  0  0  0  0  0  0  0
   19.7632   -9.1062  -17.1735 C   0  0  2  0  0  0  0  0  0  0  0  0
   18.6183   -8.8932  -16.3095 N   0  0  0  0  0  0  0  0  0  0  0  0
   20.5777   -7.8705  -17.3105 C   0  0  0  0  0  0  0  0  0  0  0  0
   19.9753   -6.7894  -17.4967 O   0  0  0  0  0  0  0  0  0  0  0  0
   25.4971  -11.4422  -14.0432 O   0  0  0  0  0  0  0  0  0  0  0  0
   25.0438  -10.2337  -14.5633 C   0  0  0  0  0  0  0  0  0  0  0  0
   23.7891   -9.7719  -14.2267 C   0  0  0  0  0  0  0  0  0  0  0  0
   23.3182   -8.5764  -14.7301 C   0  0  0  0  0  0  0  0  0  0  0  0
   24.0621   -7.7896  -15.5831 C   0  0  0  0  0  0  0  0  0  0  0  0
   23.5520   -6.5027  -16.1234 C   0  0  0  0  0  0  0  0  0  0  0  0
   22.8194   -6.7083  -17.4415 C   0  0  2  0  0  0  0  0  0  0  0  0
   21.9951   -7.8927  -17.2358 N   0  0  0  0  0  0  0  0  0  0  0  0
   23.8449   -7.0196  -18.4654 C   0  0  0  0  0  0  0  0  0  0  0  0
   24.0014   -8.2632  -18.7381 O   0  0  0  0  0  0  0  0  0  0  0  0
   25.3115   -8.2756  -15.9022 C   0  0  0  0  0  0  0  0  0  0  0  0
   25.8023   -9.4637  -15.4132 C   0  0  0  0  0  0  0  0  0  0  0  0
   24.6289   -6.0592  -19.1333 N   0  0  0  0  0  0  0  0  0  0  0  0
   24.6271   -4.6392  -18.8985 C   0  0  0  0  0  0  0  0  0  0  0  0
   25.0339   -4.0164  -20.2303 C   0  0  0  0  0  0  0  0  0  0  0  0
   25.4814   -5.1457  -21.1225 C   0  0  0  0  0  0  0  0  0  0  0  0
   25.5751   -6.3179  -20.1856 C   0  0  1  0  0  0  0  0  0  0  0  0
   26.9315   -6.4345  -19.6176 C   0  0  0  0  0  0  0  0  0  0  0  0
   27.1184   -6.1476  -18.4146 O   0  0  0  0  0  0  0  0  0  0  0  0
   27.9967   -6.8553  -20.3945 O   0  0  0  0  0  0  0  0  0  0  0  0
  2  1  1  6
  2  3  1  0
  4  2  1  0
  4  5  1  1
  6  4  1  0
  7  6  2  0
  8  9  1  0
  9 10  2  0
  9 19  1  0
 10 11  1  0
 11 12  2  0
 12 13  1  0
 14 13  1  1
 14 15  1  0
 15  6  1  0
 16 14  1  0
 17 16  2  0
 18 12  1  0
 19 18  2  0
 20 16  1  0
 20 21  1  0
 21 22  1  0
 23 22  1  0
 24 20  1  0
 24 23  1  0
 24 25  1  1
 26 25  2  0
 27 25  1  0
M  END
$$$$
