TYP.pdb
     RDKit          3D

 27 28  0  0  1  0  0  0  0  0999 V2000
   25.7054  -19.4616  -18.4342 C   0  0  0  0  0  0  0  0  0  0  0  0
   25.9526  -19.3585  -16.9412 C   0  0  1  0  0  0  0  0  0  0  0  0
   26.6522  -18.1566  -16.7439 O   0  0  0  0  0  0  0  0  0  0  0  0
   24.6508  -19.3278  -16.1676 C   0  0  2  0  0  0  0  0  0  0  0  0
   23.9601  -18.1013  -16.5155 N   0  0  0  0  0  0  0  0  0  0  0  0
   24.9905  -19.3683  -14.7212 C   0  0  0  0  0  0  0  0  0  0  0  0
   24.9850  -18.2890  -14.0876 O   0  0  0  0  0  0  0  0  0  0  0  0
   19.3241  -20.8000  -11.5251 O   0  0  0  0  0  0  0  0  0  0  0  0
   20.6872  -21.0518  -11.6480 C   0  0  0  0  0  0  0  0  0  0  0  0
   21.1740  -21.6351  -12.7984 C   0  0  0  0  0  0  0  0  0  0  0  0
   22.5216  -21.8943  -12.9430 C   0  0  0  0  0  0  0  0  0  0  0  0
   23.4418  -21.5903  -11.9627 C   0  0  0  0  0  0  0  0  0  0  0  0
   24.8925  -21.8708  -12.1216 C   0  0  0  0  0  0  0  0  0  0  0  0
   25.6381  -20.6492  -12.6395 C   0  0  2  0  0  0  0  0  0  0  0  0
   25.3142  -20.5816  -14.0591 N   0  0  0  0  0  0  0  0  0  0  0  0
   27.0864  -20.9315  -12.4993 C   0  0  0  0  0  0  0  0  0  0  0  0
   27.6719  -21.3779  -13.5497 O   0  0  0  0  0  0  0  0  0  0  0  0
   22.9273  -21.0085  -10.8245 C   0  0  0  0  0  0  0  0  0  0  0  0
   21.5886  -20.7406  -10.6576 C   0  0  0  0  0  0  0  0  0  0  0  0
   27.8298  -20.7423  -11.3185 N   0  0  0  0  0  0  0  0  0  0  0  0
   27.3085  -20.3745  -10.0283 C   0  0  0  0  0  0  0  0  0  0  0  0
   28.4494  -19.6365   -9.3350 C   0  0  0  0  0  0  0  0  0  0  0  0
   29.6745  -19.8203  -10.1935 C   0  0  0  0  0  0  0  0  0  0  0  0
   29.2560  -20.8728  -11.1825 C   0  0  1  0  0  0  0  0  0  0  0  0
   29.5876  -22.2232  -10.6904 C   0  0  0  0  0  0  0  0  0  0  0  0
   30.7847  -22.5835  -10.6502 O   0  0  0  0  0  0  0  0  0  0  0  0
   28.5962  -23.0943  -10.2737 O   0  0  0  0  0  0  0  0  0  0  0  0
  2  1  1  6
  2  3  1  0
  4  2  1  0
  4  5  1  1
  6  4  1  0
  7  6  2  0
  8  9  1  0
  9 10  2  0
  9 19  1  0
 10 11  1  0
 11 12  2  0
 12 13  1  0
 14 13  1  6
 14 15  1  0
 15  6  1  0
 16 14  1  0
 17 16  2  0
 18 12  1  0
 19 18  2  0
 20 16  1  0
 20 21  1  0
 21 22  1  0
 23 22  1  0
 24 20  1  0
 24 23  1  0
 24 25  1  1
 26 25  2  0
 27 25  1  0
M  END
$$$$
