TYP.pdb
     RDKit          3D

 27 28  0  0  1  0  0  0  0  0999 V2000
   22.4139   -8.5884  -19.4209 C   0  0  0  0  0  0  0  0  0  0  0  0
   21.8028   -9.9744  -19.3406 C   0  0  1  0  0  0  0  0  0  0  0  0
   22.5245  -10.7716  -20.2443 O   0  0  0  0  0  0  0  0  0  0  0  0
   21.9187  -10.5480  -17.9437 C   0  0  2  0  0  0  0  0  0  0  0  0
   21.4189  -11.9086  -17.9831 N   0  0  0  0  0  0  0  0  0  0  0  0
   21.1010   -9.6949  -17.0420 C   0  0  0  0  0  0  0  0  0  0  0  0
   19.8618   -9.6780  -17.2160 O   0  0  0  0  0  0  0  0  0  0  0  0
   18.2923   -5.6326   -9.8093 O   0  0  0  0  0  0  0  0  0  0  0  0
   19.0828   -6.2465  -10.7762 C   0  0  0  0  0  0  0  0  0  0  0  0
   18.9042   -7.5844  -11.0571 C   0  0  0  0  0  0  0  0  0  0  0  0
   19.6762   -8.2146  -12.0117 C   0  0  0  0  0  0  0  0  0  0  0  0
   20.6525   -7.5541  -12.7263 C   0  0  0  0  0  0  0  0  0  0  0  0
   21.4821   -8.2358  -13.7537 C   0  0  0  0  0  0  0  0  0  0  0  0
   20.9135   -8.0279  -15.1501 C   0  0  2  0  0  0  0  0  0  0  0  0
   21.6864   -8.9159  -16.0097 N   0  0  0  0  0  0  0  0  0  0  0  0
   21.2061   -6.6268  -15.5350 C   0  0  0  0  0  0  0  0  0  0  0  0
   22.4335   -6.3660  -15.8008 O   0  0  0  0  0  0  0  0  0  0  0  0
   20.8089   -6.2186  -12.4249 C   0  0  0  0  0  0  0  0  0  0  0  0
   20.0518   -5.5691  -11.4780 C   0  0  0  0  0  0  0  0  0  0  0  0
   20.2445   -5.6019  -15.6233 N   0  0  0  0  0  0  0  0  0  0  0  0
   18.8439   -5.7128  -15.3111 C   0  0  0  0  0  0  0  0  0  0  0  0
   18.1582   -4.6689  -16.1871 C   0  0  0  0  0  0  0  0  0  0  0  0
   19.2490   -3.8334  -16.8066 C   0  0  0  0  0  0  0  0  0  0  0  0
   20.4816   -4.2494  -16.0525 C   0  0  1  0  0  0  0  0  0  0  0  0
   20.6998   -3.3852  -14.8772 C   0  0  0  0  0  0  0  0  0  0  0  0
   20.4181   -3.8182  -13.7380 O   0  0  0  0  0  0  0  0  0  0  0  0
   21.2101   -2.1063  -15.0166 O   0  0  0  0  0  0  0  0  0  0  0  0
  2  1  1  1
  2  3  1  0
  4  2  1  0
  4  5  1  6
  6  4  1  0
  7  6  2  0
  8  9  1  0
  9 10  2  0
  9 19  1  0
 10 11  1  0
 11 12  2  0
 12 13  1  0
 14 13  1  1
 14 15  1  0
 15  6  1  0
 16 14  1  0
 17 16  2  0
 18 12  1  0
 19 18  2  0
 20 16  1  0
 20 21  1  0
 21 22  1  0
 23 22  1  0
 24 20  1  0
 24 23  1  0
 24 25  1  1
 26 25  2  0
 27 25  1  0
M  END
$$$$
