TYP.pdb
     RDKit          3D

 27 28  0  0  1  0  0  0  0  0999 V2000
   19.3380  -19.1177  -20.9283 C   0  0  0  0  0  0  0  0  0  0  0  0
   19.4732  -17.6837  -21.4042 C   0  0  1  0  0  0  0  0  0  0  0  0
   18.9430  -17.6528  -22.7045 O   0  0  0  0  0  0  0  0  0  0  0  0
   18.7028  -16.7320  -20.5127 C   0  0  2  0  0  0  0  0  0  0  0  0
   18.8443  -15.3988  -21.0649 N   0  0  0  0  0  0  0  0  0  0  0  0
   19.2917  -16.8212  -19.1509 C   0  0  0  0  0  0  0  0  0  0  0  0
   20.4307  -16.3344  -18.9721 O   0  0  0  0  0  0  0  0  0  0  0  0
   17.7663  -11.2781  -16.1838 O   0  0  0  0  0  0  0  0  0  0  0  0
   17.8188  -12.6668  -16.1115 C   0  0  0  0  0  0  0  0  0  0  0  0
   18.7413  -13.2744  -15.2866 C   0  0  0  0  0  0  0  0  0  0  0  0
   18.8120  -14.6497  -15.1985 C   0  0  0  0  0  0  0  0  0  0  0  0
   17.9791  -15.4799  -15.9175 C   0  0  0  0  0  0  0  0  0  0  0  0
   18.0579  -16.9607  -15.8203 C   0  0  0  0  0  0  0  0  0  0  0  0
   19.1490  -17.5166  -16.7241 C   0  0  2  0  0  0  0  0  0  0  0  0
   18.6018  -17.4349  -18.0727 N   0  0  0  0  0  0  0  0  0  0  0  0
   19.3205  -18.9459  -16.3708 C   0  0  0  0  0  0  0  0  0  0  0  0
   18.5145  -19.7628  -16.9437 O   0  0  0  0  0  0  0  0  0  0  0  0
   17.0675  -14.8456  -16.7333 C   0  0  0  0  0  0  0  0  0  0  0  0
   16.9783  -13.4771  -16.8376 C   0  0  0  0  0  0  0  0  0  0  0  0
   20.2866  -19.4397  -15.4732 N   0  0  0  0  0  0  0  0  0  0  0  0
   21.2443  -18.6614  -14.7326 C   0  0  0  0  0  0  0  0  0  0  0  0
   22.4282  -19.5971  -14.5090 C   0  0  0  0  0  0  0  0  0  0  0  0
   21.9878  -20.9711  -14.9446 C   0  0  0  0  0  0  0  0  0  0  0  0
   20.5038  -20.8209  -15.1343 C   0  0  1  0  0  0  0  0  0  0  0  0
   19.7758  -21.1495  -13.8942 C   0  0  0  0  0  0  0  0  0  0  0  0
   19.6961  -22.3431  -13.5289 O   0  0  0  0  0  0  0  0  0  0  0  0
   19.1817  -20.1591  -13.1317 O   0  0  0  0  0  0  0  0  0  0  0  0
  2  1  1  1
  2  3  1  0
  4  2  1  0
  4  5  1  6
  6  4  1  0
  7  6  2  0
  8  9  1  0
  9 10  2  0
  9 19  1  0
 10 11  1  0
 11 12  2  0
 12 13  1  0
 14 13  1  1
 14 15  1  0
 15  6  1  0
 16 14  1  0
 17 16  2  0
 18 12  1  0
 19 18  2  0
 20 16  1  0
 20 21  1  0
 21 22  1  0
 23 22  1  0
 24 20  1  0
 24 23  1  0
 24 25  1  1
 26 25  2  0
 27 25  1  0
M  END
$$$$
