TYP.pdb
     RDKit          3D

 27 28  0  0  1  0  0  0  0  0999 V2000
   24.0749  -13.7120  -14.7951 C   0  0  0  0  0  0  0  0  0  0  0  0
   24.0603  -12.3037  -15.3586 C   0  0  1  0  0  0  0  0  0  0  0  0
   25.4058  -11.9370  -15.5268 O   0  0  0  0  0  0  0  0  0  0  0  0
   23.3431  -12.2507  -16.6916 C   0  0  2  0  0  0  0  0  0  0  0  0
   24.1504  -12.9729  -17.6555 N   0  0  0  0  0  0  0  0  0  0  0  0
   23.2020  -10.8190  -17.0654 C   0  0  0  0  0  0  0  0  0  0  0  0
   24.0768  -10.3182  -17.8073 O   0  0  0  0  0  0  0  0  0  0  0  0
   16.4105  -11.6624  -15.8630 O   0  0  0  0  0  0  0  0  0  0  0  0
   17.4769  -10.9348  -16.3826 C   0  0  0  0  0  0  0  0  0  0  0  0
   17.7827   -9.6982  -15.8551 C   0  0  0  0  0  0  0  0  0  0  0  0
   18.8354   -8.9585  -16.3540 C   0  0  0  0  0  0  0  0  0  0  0  0
   19.6273   -9.4057  -17.3898 C   0  0  0  0  0  0  0  0  0  0  0  0
   20.7603   -8.6066  -17.9247 C   0  0  0  0  0  0  0  0  0  0  0  0
   21.9478   -8.6254  -16.9730 C   0  0  2  0  0  0  0  0  0  0  0  0
   22.1175  -10.0261  -16.6069 N   0  0  0  0  0  0  0  0  0  0  0  0
   21.5484   -7.8671  -15.7637 C   0  0  0  0  0  0  0  0  0  0  0  0
   21.2397   -8.5739  -14.7387 O   0  0  0  0  0  0  0  0  0  0  0  0
   19.2989  -10.6441  -17.8972 C   0  0  0  0  0  0  0  0  0  0  0  0
   18.2547  -11.3994  -17.4167 C   0  0  0  0  0  0  0  0  0  0  0  0
   21.4922   -6.4626  -15.6800 N   0  0  0  0  0  0  0  0  0  0  0  0
   21.7738   -5.5299  -16.7394 C   0  0  0  0  0  0  0  0  0  0  0  0
   22.2597   -4.2662  -16.0367 C   0  0  0  0  0  0  0  0  0  0  0  0
   22.0107   -4.4621  -14.5632 C   0  0  0  0  0  0  0  0  0  0  0  0
   21.1505   -5.6942  -14.5128 C   0  0  1  0  0  0  0  0  0  0  0  0
   19.7186   -5.3419  -14.5505 C   0  0  0  0  0  0  0  0  0  0  0  0
   19.1997   -4.7807  -13.5604 O   0  0  0  0  0  0  0  0  0  0  0  0
   18.9437   -5.6226  -15.6622 O   0  0  0  0  0  0  0  0  0  0  0  0
  2  1  1  6
  2  3  1  0
  4  2  1  0
  4  5  1  6
  6  4  1  0
  7  6  2  0
  8  9  1  0
  9 10  2  0
  9 19  1  0
 10 11  1  0
 11 12  2  0
 12 13  1  0
 14 13  1  6
 14 15  1  0
 15  6  1  0
 16 14  1  0
 17 16  2  0
 18 12  1  0
 19 18  2  0
 20 16  1  0
 20 21  1  0
 21 22  1  0
 23 22  1  0
 24 20  1  0
 24 23  1  0
 24 25  1  6
 26 25  2  0
 27 25  1  0
M  END
$$$$
