TYP.pdb
     RDKit          3D

 27 28  0  0  1  0  0  0  0  0999 V2000
   21.6845  -13.1963  -19.5438 C   0  0  0  0  0  0  0  0  0  0  0  0
   21.1910  -14.1960  -18.5152 C   0  0  1  0  0  0  0  0  0  0  0  0
   21.4868  -15.4674  -19.0340 O   0  0  0  0  0  0  0  0  0  0  0  0
   21.8902  -14.0088  -17.1847 C   0  0  2  0  0  0  0  0  0  0  0  0
   21.4372  -15.0619  -16.2968 N   0  0  0  0  0  0  0  0  0  0  0  0
   21.5163  -12.6657  -16.6696 C   0  0  0  0  0  0  0  0  0  0  0  0
   20.3159  -12.4628  -16.3793 O   0  0  0  0  0  0  0  0  0  0  0  0
   22.4103   -4.3299  -13.7457 O   0  0  0  0  0  0  0  0  0  0  0  0
   22.6252   -5.6480  -14.1365 C   0  0  0  0  0  0  0  0  0  0  0  0
   22.0556   -6.6764  -13.4162 C   0  0  0  0  0  0  0  0  0  0  0  0
   22.2546   -7.9913  -13.7847 C   0  0  0  0  0  0  0  0  0  0  0  0
   23.0206   -8.3454  -14.8746 C   0  0  0  0  0  0  0  0  0  0  0  0
   23.2329   -9.7625  -15.2687 C   0  0  0  0  0  0  0  0  0  0  0  0
   22.1111  -10.2596  -16.1693 C   0  0  2  0  0  0  0  0  0  0  0  0
   22.4741  -11.6311  -16.5042 N   0  0  0  0  0  0  0  0  0  0  0  0
   22.1533   -9.4451  -17.4069 C   0  0  0  0  0  0  0  0  0  0  0  0
   23.1186   -9.7027  -18.2115 O   0  0  0  0  0  0  0  0  0  0  0  0
   23.5773   -7.2977  -15.5755 C   0  0  0  0  0  0  0  0  0  0  0  0
   23.3932   -5.9798  -15.2276 C   0  0  0  0  0  0  0  0  0  0  0  0
   21.2241   -8.4402  -17.7377 N   0  0  0  0  0  0  0  0  0  0  0  0
   20.0830   -8.0390  -16.9578 C   0  0  0  0  0  0  0  0  0  0  0  0
   19.0762   -7.5063  -17.9725 C   0  0  0  0  0  0  0  0  0  0  0  0
   19.7948   -7.4141  -19.2942 C   0  0  0  0  0  0  0  0  0  0  0  0
   21.2366   -7.6296  -18.9262 C   0  0  1  0  0  0  0  0  0  0  0  0
   21.9089   -6.3467  -18.6467 C   0  0  0  0  0  0  0  0  0  0  0  0
   22.2469   -5.6118  -19.6007 O   0  0  0  0  0  0  0  0  0  0  0  0
   22.1701   -5.9460  -17.3480 O   0  0  0  0  0  0  0  0  0  0  0  0
  2  1  1  6
  2  3  1  0
  4  2  1  0
  4  5  1  1
  6  4  1  0
  7  6  2  0
  8  9  1  0
  9 10  2  0
  9 19  1  0
 10 11  1  0
 11 12  2  0
 12 13  1  0
 14 13  1  1
 14 15  1  0
 15  6  1  0
 16 14  1  0
 17 16  2  0
 18 12  1  0
 19 18  2  0
 20 16  1  0
 20 21  1  0
 21 22  1  0
 23 22  1  0
 24 20  1  0
 24 23  1  0
 24 25  1  1
 26 25  2  0
 27 25  1  0
M  END
$$$$
