TYP.pdb
     RDKit          3D

 27 28  0  0  1  0  0  0  0  0999 V2000
   23.4873  -20.1170  -20.4733 C   0  0  0  0  0  0  0  0  0  0  0  0
   23.1225  -18.8275  -21.1840 C   0  0  1  0  0  0  0  0  0  0  0  0
   22.3102  -19.1966  -22.2689 O   0  0  0  0  0  0  0  0  0  0  0  0
   22.3627  -17.8896  -20.2691 C   0  0  2  0  0  0  0  0  0  0  0  0
   22.0302  -16.7026  -21.0325 N   0  0  0  0  0  0  0  0  0  0  0  0
   23.2524  -17.5668  -19.1230 C   0  0  0  0  0  0  0  0  0  0  0  0
   24.0235  -16.5878  -19.2376 O   0  0  0  0  0  0  0  0  0  0  0  0
   22.4167  -21.6758  -11.7834 O   0  0  0  0  0  0  0  0  0  0  0  0
   22.5691  -20.6849  -12.7485 C   0  0  0  0  0  0  0  0  0  0  0  0
   23.6019  -19.7780  -12.6404 C   0  0  0  0  0  0  0  0  0  0  0  0
   23.7730  -18.7868  -13.5852 C   0  0  0  0  0  0  0  0  0  0  0  0
   22.9359  -18.6493  -14.6717 C   0  0  0  0  0  0  0  0  0  0  0  0
   23.1230  -17.5807  -15.6873 C   0  0  0  0  0  0  0  0  0  0  0  0
   24.0876  -18.0193  -16.7798 C   0  0  2  0  0  0  0  0  0  0  0  0
   23.2441  -18.3312  -17.9269 N   0  0  0  0  0  0  0  0  0  0  0  0
   24.7322  -19.2704  -16.3146 C   0  0  0  0  0  0  0  0  0  0  0  0
   24.0756  -20.3505  -16.5322 O   0  0  0  0  0  0  0  0  0  0  0  0
   21.9131  -19.5689  -14.7541 C   0  0  0  0  0  0  0  0  0  0  0  0
   21.7225  -20.5652  -13.8252 C   0  0  0  0  0  0  0  0  0  0  0  0
   25.9827  -19.3368  -15.6705 N   0  0  0  0  0  0  0  0  0  0  0  0
   26.6772  -18.2481  -15.0349 C   0  0  0  0  0  0  0  0  0  0  0  0
   28.1563  -18.6065  -15.1388 C   0  0  0  0  0  0  0  0  0  0  0  0
   28.2280  -20.0267  -15.6384 C   0  0  0  0  0  0  0  0  0  0  0  0
   26.8072  -20.5079  -15.5350 C   0  0  1  0  0  0  0  0  0  0  0  0
   26.5576  -21.1437  -14.2276 C   0  0  0  0  0  0  0  0  0  0  0  0
   25.8394  -20.5569  -13.3884 O   0  0  0  0  0  0  0  0  0  0  0  0
   27.1051  -22.3763  -13.9174 O   0  0  0  0  0  0  0  0  0  0  0  0
  2  1  1  1
  2  3  1  0
  4  2  1  0
  4  5  1  6
  6  4  1  0
  7  6  2  0
  8  9  1  0
  9 10  2  0
  9 19  1  0
 10 11  1  0
 11 12  2  0
 12 13  1  0
 14 13  1  1
 14 15  1  0
 15  6  1  0
 16 14  1  0
 17 16  2  0
 18 12  1  0
 19 18  2  0
 20 16  1  0
 20 21  1  0
 21 22  1  0
 23 22  1  0
 24 20  1  0
 24 23  1  0
 24 25  1  1
 26 25  2  0
 27 25  1  0
M  END
$$$$
