TYP.pdb
     RDKit          3D

 27 28  0  0  1  0  0  0  0  0999 V2000
   22.4300  -20.5692  -18.6741 C   0  0  0  0  0  0  0  0  0  0  0  0
   21.0821  -19.9314  -18.3959 C   0  0  1  0  0  0  0  0  0  0  0  0
   20.2352  -20.3385  -19.4399 O   0  0  0  0  0  0  0  0  0  0  0  0
   20.5180  -20.3916  -17.0677 C   0  0  2  0  0  0  0  0  0  0  0  0
   19.2466  -19.7222  -16.8732 N   0  0  0  0  0  0  0  0  0  0  0  0
   21.4963  -20.0163  -16.0136 C   0  0  0  0  0  0  0  0  0  0  0  0
   21.5833  -18.8082  -15.6984 O   0  0  0  0  0  0  0  0  0  0  0  0
   26.6395  -20.4081   -8.9069 O   0  0  0  0  0  0  0  0  0  0  0  0
   25.8300  -20.7281   -9.9926 C   0  0  0  0  0  0  0  0  0  0  0  0
   24.5042  -20.3498   -9.9922 C   0  0  0  0  0  0  0  0  0  0  0  0
   23.6823  -20.6560  -11.0576 C   0  0  0  0  0  0  0  0  0  0  0  0
   24.1318  -21.3452  -12.1634 C   0  0  0  0  0  0  0  0  0  0  0  0
   23.2440  -21.6733  -13.3091 C   0  0  0  0  0  0  0  0  0  0  0  0
   23.3530  -20.6278  -14.4098 C   0  0  2  0  0  0  0  0  0  0  0  0
   22.3161  -20.9810  -15.3715 N   0  0  0  0  0  0  0  0  0  0  0  0
   24.6754  -20.8103  -15.0539 C   0  0  0  0  0  0  0  0  0  0  0  0
   24.7732  -21.8081  -15.8540 O   0  0  0  0  0  0  0  0  0  0  0  0
   25.4602  -21.7105  -12.1366 C   0  0  0  0  0  0  0  0  0  0  0  0
   26.2985  -21.4168  -11.0865 C   0  0  0  0  0  0  0  0  0  0  0  0
   25.7912  -19.9772  -14.8446 N   0  0  0  0  0  0  0  0  0  0  0  0
   25.9385  -18.9873  -13.8102 C   0  0  0  0  0  0  0  0  0  0  0  0
   26.8877  -17.9442  -14.3916 C   0  0  0  0  0  0  0  0  0  0  0  0
   27.4317  -18.5157  -15.6757 C   0  0  0  0  0  0  0  0  0  0  0  0
   26.9935  -19.9533  -15.6342 C   0  0  1  0  0  0  0  0  0  0  0  0
   28.0211  -20.8018  -15.0019 C   0  0  0  0  0  0  0  0  0  0  0  0
   27.8719  -21.1614  -13.8133 O   0  0  0  0  0  0  0  0  0  0  0  0
   29.1444  -21.2045  -15.7030 O   0  0  0  0  0  0  0  0  0  0  0  0
  2  1  1  6
  2  3  1  0
  4  2  1  0
  4  5  1  1
  6  4  1  0
  7  6  2  0
  8  9  1  0
  9 10  2  0
  9 19  1  0
 10 11  1  0
 11 12  2  0
 12 13  1  0
 14 13  1  1
 14 15  1  0
 15  6  1  0
 16 14  1  0
 17 16  2  0
 18 12  1  0
 19 18  2  0
 20 16  1  0
 20 21  1  0
 21 22  1  0
 23 22  1  0
 24 20  1  0
 24 23  1  0
 24 25  1  1
 26 25  2  0
 27 25  1  0
M  END
$$$$
