NKL.pdb
     RDKit          3D

 26 25  0  0  1  0  0  0  0  0999 V2000
    3.3723  -20.6334   20.1454 N   0  0  0  0  0  0  0  0  0  0  0  0
    3.2476  -19.4213   20.8686 C   0  0  0  0  0  0  0  0  0  0  0  0
    2.3087  -18.6280   20.6388 O   0  0  0  0  0  0  0  0  0  0  0  0
    4.2385  -19.1014   21.8992 C   0  0  0  0  0  0  0  0  0  0  0  0
    4.8574  -17.7723   21.6143 C   0  0  2  0  0  0  0  0  0  0  0  0
    5.2327  -17.5966   20.2520 N   0  0  0  0  0  0  0  0  0  0  0  0
    6.1243  -17.7032   22.4475 C   0  0  0  0  0  0  0  0  0  0  0  0
    6.0174  -17.9728   23.6555 O   0  0  0  0  0  0  0  0  0  0  0  0
    7.3534  -17.3495   21.8670 N   0  0  0  0  0  0  0  0  0  0  0  0
    8.5876  -17.1950   22.5751 C   0  0  1  0  0  0  0  0  0  0  0  0
    9.8238  -17.3085   21.7077 C   0  0  0  0  0  0  0  0  0  0  0  0
    9.9377  -18.6354   21.0010 C   0  0  0  0  0  0  0  0  0  0  0  0
   11.1373  -18.6610   20.0712 C   0  0  0  0  0  0  0  0  0  0  0  0
   11.2175  -19.9566   19.2880 C   0  0  0  0  0  0  0  0  0  0  0  0
   12.4288  -19.9032   18.4818 N   0  0  0  0  0  0  0  0  0  0  0  0
    8.5695  -16.0437   23.4714 C   0  0  0  0  0  0  0  0  0  0  0  0
    8.2177  -14.9027   22.9971 O   0  0  0  0  0  0  0  0  0  0  0  0
    7.7114  -11.5485   25.5536 C   0  0  0  0  0  0  0  0  0  0  0  0
    7.4858  -12.8441   26.2871 C   0  0  1  0  0  0  0  0  0  0  0  0
    6.0373  -12.8891   26.7736 C   0  0  0  0  0  0  0  0  0  0  0  0
    7.7007  -14.0094   25.4098 C   0  0  0  0  0  0  0  0  0  0  0  0
    8.9125  -14.8432   25.6176 C   0  0  2  0  0  0  0  0  0  0  0  0
    8.9057  -16.0582   24.8311 N   0  0  0  0  0  0  0  0  0  0  0  0
    9.2606  -15.1834   27.0035 C   0  0  0  0  0  0  0  0  0  0  0  0
    8.8686  -16.2607   27.5232 O   0  0  0  0  0  0  0  0  0  0  0  0
   10.0287  -14.3600   27.8143 O   0  0  0  0  0  0  0  0  0  0  0  0
  2  3  2  0
  2  1  1  0
  4  2  1  0
  5  4  1  0
  5  6  1  6
  7  5  1  0
  7  8  2  0
  9  7  1  0
 10  9  1  0
 11 12  1  0
 10 11  1  6
 12 13  1  0
 13 14  1  0
 14 15  1  0
 16 10  1  0
 17 16  2  0
 19 18  1  6
 19 21  1  0
 20 19  1  0
 22 21  1  1
 22 23  1  0
 22 24  1  0
 23 16  1  0
 24 26  1  0
 25 24  2  0
M  END
$$$$
