NKL.pdb
     RDKit          3D

 26 25  0  0  1  0  0  0  0  0999 V2000
    9.0589  -12.2076   18.2159 N   0  0  0  0  0  0  0  0  0  0  0  0
    8.2308  -13.3346   17.9876 C   0  0  0  0  0  0  0  0  0  0  0  0
    8.0753  -13.7968   16.8362 O   0  0  0  0  0  0  0  0  0  0  0  0
    7.5509  -13.9608   19.1241 C   0  0  0  0  0  0  0  0  0  0  0  0
    8.3854  -15.0754   19.6646 C   0  0  2  0  0  0  0  0  0  0  0  0
    8.4672  -16.2012   18.7965 N   0  0  0  0  0  0  0  0  0  0  0  0
    7.7085  -15.5354   20.9430 C   0  0  0  0  0  0  0  0  0  0  0  0
    6.5632  -15.1047   21.1582 O   0  0  0  0  0  0  0  0  0  0  0  0
    8.3580  -16.4072   21.8322 N   0  0  0  0  0  0  0  0  0  0  0  0
    7.8075  -16.8973   23.0591 C   0  0  1  0  0  0  0  0  0  0  0  0
    7.7640  -18.4074   23.1649 C   0  0  0  0  0  0  0  0  0  0  0  0
    7.2082  -18.8983   24.4776 C   0  0  0  0  0  0  0  0  0  0  0  0
    7.1260  -20.4138   24.5066 C   0  0  0  0  0  0  0  0  0  0  0  0
    6.4784  -20.9202   25.7804 C   0  0  0  0  0  0  0  0  0  0  0  0
    7.5081  -20.9513   26.8093 N   0  0  0  0  0  0  0  0  0  0  0  0
    8.3614  -16.2154   24.2241 C   0  0  0  0  0  0  0  0  0  0  0  0
    9.6360  -16.0749   24.3041 O   0  0  0  0  0  0  0  0  0  0  0  0
    5.6499  -12.1435   26.8010 C   0  0  0  0  0  0  0  0  0  0  0  0
    6.7131  -12.9208   26.0708 C   0  0  1  0  0  0  0  0  0  0  0  0
    7.7880  -11.9485   25.5850 C   0  0  0  0  0  0  0  0  0  0  0  0
    7.3654  -13.9074   26.9511 C   0  0  0  0  0  0  0  0  0  0  0  0
    8.2634  -14.9217   26.3412 C   0  0  2  0  0  0  0  0  0  0  0  0
    7.6242  -15.6852   25.2907 N   0  0  0  0  0  0  0  0  0  0  0  0
    8.9376  -15.8535   27.2547 C   0  0  0  0  0  0  0  0  0  0  0  0
    8.6329  -17.0746   27.2744 O   0  0  0  0  0  0  0  0  0  0  0  0
    9.9343  -15.4601   28.1364 O   0  0  0  0  0  0  0  0  0  0  0  0
  2  3  2  0
  2  1  1  0
  4  2  1  0
  5  4  1  0
  5  6  1  6
  7  5  1  0
  7  8  2  0
  9  7  1  0
 10  9  1  0
 11 12  1  0
 10 11  1  1
 12 13  1  0
 13 14  1  0
 14 15  1  0
 16 10  1  0
 17 16  2  0
 19 18  1  1
 19 21  1  0
 20 19  1  0
 22 21  1  1
 22 23  1  0
 22 24  1  0
 23 16  1  0
 24 26  1  0
 25 24  2  0
M  END
$$$$
