NKL.pdb
     RDKit          3D

 26 25  0  0  1  0  0  0  0  0999 V2000
    7.8116  -19.8184   17.6136 N   0  0  0  0  0  0  0  0  0  0  0  0
    8.0813  -19.9816   18.9951 C   0  0  0  0  0  0  0  0  0  0  0  0
    7.5724  -20.9216   19.6439 O   0  0  0  0  0  0  0  0  0  0  0  0
    8.9712  -19.0297   19.6646 C   0  0  0  0  0  0  0  0  0  0  0  0
    8.3949  -18.6375   20.9855 C   0  0  2  0  0  0  0  0  0  0  0  0
    6.9930  -18.3909   20.9471 N   0  0  0  0  0  0  0  0  0  0  0  0
    9.0744  -17.3387   21.3798 C   0  0  0  0  0  0  0  0  0  0  0  0
   10.3157  -17.3466   21.4286 O   0  0  0  0  0  0  0  0  0  0  0  0
    8.3227  -16.1891   21.6733 N   0  0  0  0  0  0  0  0  0  0  0  0
    8.8674  -14.9125   22.0226 C   0  0  1  0  0  0  0  0  0  0  0  0
    8.1898  -13.7384   21.3474 C   0  0  0  0  0  0  0  0  0  0  0  0
    7.6457  -14.0681   19.9806 C   0  0  0  0  0  0  0  0  0  0  0  0
    8.3716  -13.2897   18.8983 C   0  0  0  0  0  0  0  0  0  0  0  0
    7.8242  -13.5964   17.5181 C   0  0  0  0  0  0  0  0  0  0  0  0
    8.4806  -12.6968   16.5801 N   0  0  0  0  0  0  0  0  0  0  0  0
    9.0564  -14.7681   23.4622 C   0  0  0  0  0  0  0  0  0  0  0  0
    9.9867  -13.9885   23.8836 O   0  0  0  0  0  0  0  0  0  0  0  0
    5.7846  -12.7748   26.9495 C   0  0  0  0  0  0  0  0  0  0  0  0
    7.0546  -13.1854   26.2524 C   0  0  1  0  0  0  0  0  0  0  0  0
    8.1895  -12.2736   26.7188 C   0  0  0  0  0  0  0  0  0  0  0  0
    7.4301  -14.5728   26.5806 C   0  0  0  0  0  0  0  0  0  0  0  0
    8.5739  -15.1900   25.8611 C   0  0  2  0  0  0  0  0  0  0  0  0
    8.3064  -15.4103   24.4558 N   0  0  0  0  0  0  0  0  0  0  0  0
    9.1359  -16.4219   26.4304 C   0  0  0  0  0  0  0  0  0  0  0  0
    9.0865  -17.5086   25.7973 O   0  0  0  0  0  0  0  0  0  0  0  0
    9.7467  -16.4695   27.6755 O   0  0  0  0  0  0  0  0  0  0  0  0
  2  3  2  0
  2  1  1  0
  4  2  1  0
  5  4  1  0
  5  6  1  6
  7  5  1  0
  7  8  2  0
  9  7  1  0
 10  9  1  0
 11 12  1  0
 10 11  1  1
 12 13  1  0
 13 14  1  0
 14 15  1  0
 16 10  1  0
 17 16  2  0
 19 18  1  1
 19 21  1  0
 20 19  1  0
 22 21  1  1
 22 23  1  0
 22 24  1  0
 23 16  1  0
 24 26  1  0
 25 24  2  0
M  END
$$$$
