NKL.pdb
     RDKit          3D

 26 25  0  0  1  0  0  0  0  0999 V2000
    9.2033  -13.3901   17.5346 N   0  0  0  0  0  0  0  0  0  0  0  0
    7.8226  -13.3574   17.8517 C   0  0  0  0  0  0  0  0  0  0  0  0
    6.9946  -12.8399   17.0707 O   0  0  0  0  0  0  0  0  0  0  0  0
    7.3681  -13.9414   19.1161 C   0  0  0  0  0  0  0  0  0  0  0  0
    8.5426  -14.4109   19.9104 C   0  0  2  0  0  0  0  0  0  0  0  0
    9.2198  -15.5202   19.3285 N   0  0  0  0  0  0  0  0  0  0  0  0
    7.9973  -14.8644   21.2525 C   0  0  0  0  0  0  0  0  0  0  0  0
    7.2878  -14.0549   21.8728 O   0  0  0  0  0  0  0  0  0  0  0  0
    8.2892  -16.1420   21.7576 N   0  0  0  0  0  0  0  0  0  0  0  0
    7.8438  -16.6539   23.0179 C   0  0  1  0  0  0  0  0  0  0  0  0
    7.8259  -18.1656   23.1068 C   0  0  0  0  0  0  0  0  0  0  0  0
    7.3358  -18.6799   24.4366 C   0  0  0  0  0  0  0  0  0  0  0  0
    7.2322  -20.1943   24.4352 C   0  0  0  0  0  0  0  0  0  0  0  0
    6.6333  -20.7208   25.7245 C   0  0  0  0  0  0  0  0  0  0  0  0
    6.5676  -22.1711   25.6132 N   0  0  0  0  0  0  0  0  0  0  0  0
    8.4813  -15.9796   24.1440 C   0  0  0  0  0  0  0  0  0  0  0  0
    9.7538  -15.8054   24.1141 O   0  0  0  0  0  0  0  0  0  0  0  0
    5.7950  -12.0988   26.9357 C   0  0  0  0  0  0  0  0  0  0  0  0
    6.8485  -12.8016   26.1209 C   0  0  1  0  0  0  0  0  0  0  0  0
    7.7872  -11.7546   25.5212 C   0  0  0  0  0  0  0  0  0  0  0  0
    7.6611  -13.7095   26.9510 C   0  0  0  0  0  0  0  0  0  0  0  0
    8.5315  -14.7052   26.2744 C   0  0  2  0  0  0  0  0  0  0  0  0
    7.8284  -15.4910   25.2829 N   0  0  0  0  0  0  0  0  0  0  0  0
    9.3012  -15.6142   27.1339 C   0  0  0  0  0  0  0  0  0  0  0  0
   10.0821  -15.1667   28.0137 O   0  0  0  0  0  0  0  0  0  0  0  0
    9.2201  -16.9961   27.0374 O   0  0  0  0  0  0  0  0  0  0  0  0
  2  3  2  0
  2  1  1  0
  4  2  1  0
  5  4  1  0
  5  6  1  6
  7  5  1  0
  7  8  2  0
  9  7  1  0
 10  9  1  0
 11 12  1  0
 10 11  1  6
 12 13  1  0
 13 14  1  0
 14 15  1  0
 16 10  1  0
 17 16  2  0
 19 18  1  1
 19 21  1  0
 20 19  1  0
 22 21  1  1
 22 23  1  0
 22 24  1  0
 23 16  1  0
 24 26  1  0
 25 24  2  0
M  END
$$$$
