NKL.pdb
     RDKit          3D

 26 25  0  0  1  0  0  0  0  0999 V2000
    7.6957  -12.4866   18.5053 N   0  0  0  0  0  0  0  0  0  0  0  0
    8.5445  -13.6019   18.2959 C   0  0  0  0  0  0  0  0  0  0  0  0
    8.8665  -13.9583   17.1415 O   0  0  0  0  0  0  0  0  0  0  0  0
    9.0472  -14.3422   19.4559 C   0  0  0  0  0  0  0  0  0  0  0  0
    8.5138  -15.7372   19.4388 C   0  0  2  0  0  0  0  0  0  0  0  0
    7.5028  -15.9507   18.4590 N   0  0  0  0  0  0  0  0  0  0  0  0
    7.8843  -15.9710   20.8001 C   0  0  0  0  0  0  0  0  0  0  0  0
    6.6899  -15.6538   20.9283 O   0  0  0  0  0  0  0  0  0  0  0  0
    8.6287  -16.5208   21.8566 N   0  0  0  0  0  0  0  0  0  0  0  0
    8.0988  -16.9008   23.1307 C   0  0  1  0  0  0  0  0  0  0  0  0
    8.2087  -18.3799   23.4368 C   0  0  0  0  0  0  0  0  0  0  0  0
    7.6493  -18.7538   24.7859 C   0  0  0  0  0  0  0  0  0  0  0  0
    7.6577  -20.2585   24.9860 C   0  0  0  0  0  0  0  0  0  0  0  0
    6.8722  -20.6694   26.2158 C   0  0  0  0  0  0  0  0  0  0  0  0
    6.8681  -22.1246   26.2633 N   0  0  0  0  0  0  0  0  0  0  0  0
    8.5476  -16.0168   24.2013 C   0  0  0  0  0  0  0  0  0  0  0  0
    9.7889  -15.6880   24.2454 O   0  0  0  0  0  0  0  0  0  0  0  0
    5.2741  -12.2716   26.8019 C   0  0  0  0  0  0  0  0  0  0  0  0
    6.3873  -12.9058   26.0107 C   0  0  1  0  0  0  0  0  0  0  0  0
    7.2553  -11.8009   25.4086 C   0  0  0  0  0  0  0  0  0  0  0  0
    7.2523  -13.7411   26.8639 C   0  0  0  0  0  0  0  0  0  0  0  0
    8.2855  -14.5894   26.2160 C   0  0  2  0  0  0  0  0  0  0  0  0
    7.7407  -15.4772   25.2110 N   0  0  0  0  0  0  0  0  0  0  0  0
    9.1646  -15.3655   27.1006 C   0  0  0  0  0  0  0  0  0  0  0  0
    8.9522  -16.5876   27.3138 O   0  0  0  0  0  0  0  0  0  0  0  0
   10.2642  -14.8167   27.7451 O   0  0  0  0  0  0  0  0  0  0  0  0
  2  3  2  0
  2  1  1  0
  4  2  1  0
  5  4  1  0
  5  6  1  6
  7  5  1  0
  7  8  2  0
  9  7  1  0
 10  9  1  0
 11 12  1  0
 10 11  1  1
 12 13  1  0
 13 14  1  0
 14 15  1  0
 16 10  1  0
 17 16  2  0
 19 18  1  1
 19 21  1  0
 20 19  1  0
 22 21  1  1
 22 23  1  0
 22 24  1  0
 23 16  1  0
 24 26  1  0
 25 24  2  0
M  END
$$$$
