NKL.pdb
     RDKit          3D

 26 25  0  0  1  0  0  0  0  0999 V2000
    8.3778  -12.4936   16.6034 N   0  0  0  0  0  0  0  0  0  0  0  0
    8.0489  -13.8439   16.8801 C   0  0  0  0  0  0  0  0  0  0  0  0
    8.1560  -14.7260   16.0004 O   0  0  0  0  0  0  0  0  0  0  0  0
    7.5771  -14.2019   18.2201 C   0  0  0  0  0  0  0  0  0  0  0  0
    8.7416  -14.5055   19.1048 C   0  0  2  0  0  0  0  0  0  0  0  0
    9.6342  -15.4736   18.5628 N   0  0  0  0  0  0  0  0  0  0  0  0
    8.1666  -15.0837   20.3851 C   0  0  0  0  0  0  0  0  0  0  0  0
    7.1953  -14.4900   20.8827 O   0  0  0  0  0  0  0  0  0  0  0  0
    8.7166  -16.2366   20.9691 N   0  0  0  0  0  0  0  0  0  0  0  0
    8.2843  -16.8262   22.1995 C   0  0  1  0  0  0  0  0  0  0  0  0
    8.6490  -18.2879   22.3537 C   0  0  0  0  0  0  0  0  0  0  0  0
    8.1859  -18.8846   23.6585 C   0  0  0  0  0  0  0  0  0  0  0  0
    8.5554  -20.3540   23.7520 C   0  0  0  0  0  0  0  0  0  0  0  0
    8.0955  -20.9701   25.0586 C   0  0  0  0  0  0  0  0  0  0  0  0
    8.6124  -22.3306   25.1037 N   0  0  0  0  0  0  0  0  0  0  0  0
    8.5984  -15.9895   23.3530 C   0  0  0  0  0  0  0  0  0  0  0  0
    9.7953  -15.5390   23.4762 O   0  0  0  0  0  0  0  0  0  0  0  0
    8.2682  -11.5323   26.1841 C   0  0  0  0  0  0  0  0  0  0  0  0
    7.2138  -12.5424   26.5520 C   0  0  1  0  0  0  0  0  0  0  0  0
    5.8792  -11.8186   26.7307 C   0  0  0  0  0  0  0  0  0  0  0  0
    7.0375  -13.5534   25.4935 C   0  0  0  0  0  0  0  0  0  0  0  0
    8.0571  -14.6250   25.3556 C   0  0  2  0  0  0  0  0  0  0  0  0
    7.7033  -15.6191   24.3648 N   0  0  0  0  0  0  0  0  0  0  0  0
    8.4730  -15.3144   26.5841 C   0  0  0  0  0  0  0  0  0  0  0  0
    8.0029  -16.4429   26.8836 O   0  0  0  0  0  0  0  0  0  0  0  0
    9.3924  -14.7812   27.4762 O   0  0  0  0  0  0  0  0  0  0  0  0
  2  3  2  0
  2  1  1  0
  4  2  1  0
  5  4  1  0
  5  6  1  6
  7  5  1  0
  7  8  2  0
  9  7  1  0
 10  9  1  0
 11 12  1  0
 10 11  1  1
 12 13  1  0
 13 14  1  0
 14 15  1  0
 16 10  1  0
 17 16  2  0
 19 18  1  6
 19 21  1  0
 20 19  1  0
 22 21  1  1
 22 23  1  0
 22 24  1  0
 23 16  1  0
 24 26  1  0
 25 24  2  0
M  END
$$$$
