NKL.pdb
     RDKit          3D

 26 25  0  0  1  0  0  0  0  0999 V2000
    8.5400  -12.5914   17.6374 N   0  0  0  0  0  0  0  0  0  0  0  0
    7.9635  -13.8672   17.8563 C   0  0  0  0  0  0  0  0  0  0  0  0
    7.9444  -14.7291   16.9507 O   0  0  0  0  0  0  0  0  0  0  0  0
    7.3836  -14.1716   19.1667 C   0  0  0  0  0  0  0  0  0  0  0  0
    8.4504  -14.6506   20.0959 C   0  0  2  0  0  0  0  0  0  0  0  0
    9.1960  -15.7533   19.5902 N   0  0  0  0  0  0  0  0  0  0  0  0
    7.7426  -15.1193   21.3543 C   0  0  0  0  0  0  0  0  0  0  0  0
    6.9018  -14.3481   21.8459 O   0  0  0  0  0  0  0  0  0  0  0  0
    8.0343  -16.3688   21.9256 N   0  0  0  0  0  0  0  0  0  0  0  0
    7.6214  -16.7991   23.2267 C   0  0  1  0  0  0  0  0  0  0  0  0
    7.6810  -18.2976   23.4371 C   0  0  0  0  0  0  0  0  0  0  0  0
    7.2222  -18.7271   24.8075 C   0  0  0  0  0  0  0  0  0  0  0  0
    7.2196  -20.2395   24.9366 C   0  0  0  0  0  0  0  0  0  0  0  0
    6.6277  -20.6928   26.2567 C   0  0  0  0  0  0  0  0  0  0  0  0
    6.7644  -22.1410   26.3203 N   0  0  0  0  0  0  0  0  0  0  0  0
    8.2289  -16.0048   24.2894 C   0  0  0  0  0  0  0  0  0  0  0  0
    9.4950  -15.7905   24.2477 O   0  0  0  0  0  0  0  0  0  0  0  0
    7.3538  -12.1394   24.9283 C   0  0  0  0  0  0  0  0  0  0  0  0
    7.4142  -12.1827   26.4323 C   0  0  1  0  0  0  0  0  0  0  0  0
    6.2123  -11.4246   26.9957 C   0  0  0  0  0  0  0  0  0  0  0  0
    7.3496  -13.5659   26.9388 C   0  0  0  0  0  0  0  0  0  0  0  0
    8.2374  -14.5893   26.3294 C   0  0  2  0  0  0  0  0  0  0  0  0
    7.5530  -15.4383   25.3777 N   0  0  0  0  0  0  0  0  0  0  0  0
    9.0069  -15.4392   27.2476 C   0  0  0  0  0  0  0  0  0  0  0  0
    9.7753  -14.9335   28.1068 O   0  0  0  0  0  0  0  0  0  0  0  0
    8.9392  -16.8251   27.2314 O   0  0  0  0  0  0  0  0  0  0  0  0
  2  3  2  0
  2  1  1  0
  4  2  1  0
  5  4  1  0
  5  6  1  6
  7  5  1  0
  7  8  2  0
  9  7  1  0
 10  9  1  0
 11 12  1  0
 10 11  1  1
 12 13  1  0
 13 14  1  0
 14 15  1  0
 16 10  1  0
 17 16  2  0
 19 18  1  6
 19 21  1  0
 20 19  1  0
 22 21  1  1
 22 23  1  0
 22 24  1  0
 23 16  1  0
 24 26  1  0
 25 24  2  0
M  END
$$$$
