NKL.pdb
     RDKit          3D

 26 25  0  0  1  0  0  0  0  0999 V2000
    9.1546  -14.5190   17.4004 N   0  0  0  0  0  0  0  0  0  0  0  0
    8.4833  -13.5155   18.1421 C   0  0  0  0  0  0  0  0  0  0  0  0
    8.3415  -12.3614   17.6824 O   0  0  0  0  0  0  0  0  0  0  0  0
    7.9510  -13.8447   19.4667 C   0  0  0  0  0  0  0  0  0  0  0  0
    8.2671  -15.2652   19.8029 C   0  0  2  0  0  0  0  0  0  0  0  0
    7.6425  -16.2097   18.9394 N   0  0  0  0  0  0  0  0  0  0  0  0
    7.7290  -15.5033   21.2022 C   0  0  0  0  0  0  0  0  0  0  0  0
    6.7983  -14.7712   21.5780 O   0  0  0  0  0  0  0  0  0  0  0  0
    8.2673  -16.5078   22.0230 N   0  0  0  0  0  0  0  0  0  0  0  0
    7.7911  -16.8520   23.3281 C   0  0  1  0  0  0  0  0  0  0  0  0
    7.8102  -18.3362   23.6286 C   0  0  0  0  0  0  0  0  0  0  0  0
    7.3201  -18.6713   25.0145 C   0  0  0  0  0  0  0  0  0  0  0  0
    7.3045  -20.1718   25.2434 C   0  0  0  0  0  0  0  0  0  0  0  0
    6.8257  -20.5257   26.6376 C   0  0  0  0  0  0  0  0  0  0  0  0
    6.8014  -21.9783   26.7336 N   0  0  0  0  0  0  0  0  0  0  0  0
    8.3698  -16.0071   24.3675 C   0  0  0  0  0  0  0  0  0  0  0  0
    9.6425  -15.8315   24.3773 O   0  0  0  0  0  0  0  0  0  0  0  0
    5.8456  -11.6489   26.6308 C   0  0  0  0  0  0  0  0  0  0  0  0
    6.8355  -12.5557   25.9486 C   0  0  1  0  0  0  0  0  0  0  0  0
    7.9111  -11.6981   25.2819 C   0  0  0  0  0  0  0  0  0  0  0  0
    7.5065  -13.4488   26.9107 C   0  0  0  0  0  0  0  0  0  0  0  0
    8.3377  -14.5633   26.3874 C   0  0  2  0  0  0  0  0  0  0  0  0
    7.6590  -15.3519   25.3812 N   0  0  0  0  0  0  0  0  0  0  0  0
    8.9333  -15.4739   27.3741 C   0  0  0  0  0  0  0  0  0  0  0  0
    9.6649  -15.0359   28.2999 O   0  0  0  0  0  0  0  0  0  0  0  0
    8.7329  -16.8468   27.3538 O   0  0  0  0  0  0  0  0  0  0  0  0
  2  3  2  0
  2  1  1  0
  4  2  1  0
  5  4  1  0
  5  6  1  6
  7  5  1  0
  7  8  2  0
  9  7  1  0
 10  9  1  0
 11 12  1  0
 10 11  1  1
 12 13  1  0
 13 14  1  0
 14 15  1  0
 16 10  1  0
 17 16  2  0
 19 18  1  1
 19 21  1  0
 20 19  1  0
 22 21  1  1
 22 23  1  0
 22 24  1  0
 23 16  1  0
 24 26  1  0
 25 24  2  0
M  END
$$$$
