NKL.pdb
     RDKit          3D

 26 25  0  0  1  0  0  0  0  0999 V2000
    8.0438  -12.7701   17.5515 N   0  0  0  0  0  0  0  0  0  0  0  0
    8.7054  -13.7211   18.3676 C   0  0  0  0  0  0  0  0  0  0  0  0
    9.8199  -14.1849   18.0416 O   0  0  0  0  0  0  0  0  0  0  0  0
    8.0660  -14.1613   19.6099 C   0  0  0  0  0  0  0  0  0  0  0  0
    7.7930  -15.6285   19.5491 C   0  0  2  0  0  0  0  0  0  0  0  0
    6.8170  -15.9885   18.5768 N   0  0  0  0  0  0  0  0  0  0  0  0
    7.2446  -16.0182   20.9098 C   0  0  0  0  0  0  0  0  0  0  0  0
    6.1234  -15.5757   21.2110 O   0  0  0  0  0  0  0  0  0  0  0  0
    7.9807  -16.8411   21.7778 N   0  0  0  0  0  0  0  0  0  0  0  0
    7.5612  -17.2488   23.0841 C   0  0  1  0  0  0  0  0  0  0  0  0
    7.7818  -18.7174   23.3809 C   0  0  0  0  0  0  0  0  0  0  0  0
    6.5179  -19.5366   23.3142 C   0  0  0  0  0  0  0  0  0  0  0  0
    6.8063  -21.0101   23.5376 C   0  0  0  0  0  0  0  0  0  0  0  0
    5.5400  -21.8435   23.5145 C   0  0  0  0  0  0  0  0  0  0  0  0
    5.2386  -22.1383   22.1209 N   0  0  0  0  0  0  0  0  0  0  0  0
    8.0253  -16.3355   24.1231 C   0  0  0  0  0  0  0  0  0  0  0  0
    9.2729  -16.0308   24.1594 O   0  0  0  0  0  0  0  0  0  0  0  0
    7.9931  -11.6614   26.7232 C   0  0  0  0  0  0  0  0  0  0  0  0
    7.1373  -12.7002   27.3985 C   0  0  1  0  0  0  0  0  0  0  0  0
    5.8650  -12.0294   27.9164 C   0  0  0  0  0  0  0  0  0  0  0  0
    6.7337  -13.7642   26.4611 C   0  0  0  0  0  0  0  0  0  0  0  0
    7.7590  -14.7377   26.0050 C   0  0  2  0  0  0  0  0  0  0  0  0
    7.2269  -15.7428   25.1096 N   0  0  0  0  0  0  0  0  0  0  0  0
    8.5538  -15.4075   27.0429 C   0  0  0  0  0  0  0  0  0  0  0  0
    9.3875  -14.7661   27.7341 O   0  0  0  0  0  0  0  0  0  0  0  0
    8.4407  -16.7612   27.3261 O   0  0  0  0  0  0  0  0  0  0  0  0
  2  3  2  0
  2  1  1  0
  4  2  1  0
  5  4  1  0
  5  6  1  6
  7  5  1  0
  7  8  2  0
  9  7  1  0
 10  9  1  0
 11 12  1  0
 10 11  1  1
 12 13  1  0
 13 14  1  0
 14 15  1  0
 16 10  1  0
 17 16  2  0
 19 18  1  6
 19 21  1  0
 20 19  1  0
 22 21  1  1
 22 23  1  0
 22 24  1  0
 23 16  1  0
 24 26  1  0
 25 24  2  0
M  END
$$$$
