NKL.pdb
     RDKit          3D

 26 25  0  0  1  0  0  0  0  0999 V2000
   11.1930  -17.6149   17.5277 N   0  0  0  0  0  0  0  0  0  0  0  0
    9.8017  -17.4802   17.2955 C   0  0  0  0  0  0  0  0  0  0  0  0
    9.3509  -17.3623   16.1351 O   0  0  0  0  0  0  0  0  0  0  0  0
    8.8854  -17.4801   18.4386 C   0  0  0  0  0  0  0  0  0  0  0  0
    9.6625  -17.5341   19.7130 C   0  0  2  0  0  0  0  0  0  0  0  0
   10.1877  -18.8244   20.0080 N   0  0  0  0  0  0  0  0  0  0  0  0
    8.6905  -17.1745   20.8221 C   0  0  0  0  0  0  0  0  0  0  0  0
    8.0197  -16.1403   20.6674 O   0  0  0  0  0  0  0  0  0  0  0  0
    8.5653  -17.9822   21.9643 N   0  0  0  0  0  0  0  0  0  0  0  0
    7.6530  -17.7523   23.0429 C   0  0  1  0  0  0  0  0  0  0  0  0
    7.2353  -19.0045   23.7853 C   0  0  0  0  0  0  0  0  0  0  0  0
    6.3438  -19.9102   22.9743 C   0  0  0  0  0  0  0  0  0  0  0  0
    6.1052  -21.2284   23.6881 C   0  0  0  0  0  0  0  0  0  0  0  0
    5.0853  -22.0860   22.9651 C   0  0  0  0  0  0  0  0  0  0  0  0
    4.9505  -23.3268   23.7149 N   0  0  0  0  0  0  0  0  0  0  0  0
    8.0729  -16.6443   23.8945 C   0  0  0  0  0  0  0  0  0  0  0  0
    9.3287  -16.3948   24.0016 O   0  0  0  0  0  0  0  0  0  0  0  0
    7.8120  -11.4452   25.6871 C   0  0  0  0  0  0  0  0  0  0  0  0
    7.1492  -12.5053   26.5265 C   0  0  1  0  0  0  0  0  0  0  0  0
    5.8878  -11.9164   27.1579 C   0  0  0  0  0  0  0  0  0  0  0  0
    6.7439  -13.6667   25.7138 C   0  0  0  0  0  0  0  0  0  0  0  0
    7.7460  -14.7286   25.4400 C   0  0  2  0  0  0  0  0  0  0  0  0
    7.2228  -15.8045   24.6253 N   0  0  0  0  0  0  0  0  0  0  0  0
    8.4372  -15.3105   26.5981 C   0  0  0  0  0  0  0  0  0  0  0  0
    7.9333  -16.2709   27.2369 O   0  0  0  0  0  0  0  0  0  0  0  0
    9.6648  -14.8524   27.0548 O   0  0  0  0  0  0  0  0  0  0  0  0
  2  3  2  0
  2  1  1  0
  4  2  1  0
  5  4  1  0
  5  6  1  1
  7  5  1  0
  7  8  2  0
  9  7  1  0
 10  9  1  0
 11 12  1  0
 10 11  1  1
 12 13  1  0
 13 14  1  0
 14 15  1  0
 16 10  1  0
 17 16  2  0
 19 18  1  6
 19 21  1  0
 20 19  1  0
 22 21  1  1
 22 23  1  0
 22 24  1  0
 23 16  1  0
 24 26  1  0
 25 24  2  0
M  END
$$$$
