NKL.pdb
     RDKit          3D

 26 25  0  0  1  0  0  0  0  0999 V2000
    8.1337  -22.4631   20.6242 N   0  0  0  0  0  0  0  0  0  0  0  0
    8.4076  -21.7572   21.8219 C   0  0  0  0  0  0  0  0  0  0  0  0
    8.2357  -22.2927   22.9387 O   0  0  0  0  0  0  0  0  0  0  0  0
    8.8994  -20.3796   21.7403 C   0  0  0  0  0  0  0  0  0  0  0  0
    8.1201  -19.5058   22.6676 C   0  0  2  0  0  0  0  0  0  0  0  0
    6.7344  -19.4265   22.3491 N   0  0  0  0  0  0  0  0  0  0  0  0
    8.6993  -18.1098   22.5277 C   0  0  0  0  0  0  0  0  0  0  0  0
    9.9266  -17.9931   22.6811 O   0  0  0  0  0  0  0  0  0  0  0  0
    7.8749  -17.0102   22.2381 N   0  0  0  0  0  0  0  0  0  0  0  0
    8.3187  -15.6554   22.1109 C   0  0  1  0  0  0  0  0  0  0  0  0
    7.4161  -14.7791   21.2678 C   0  0  0  0  0  0  0  0  0  0  0  0
    8.0023  -13.4202   20.9800 C   0  0  0  0  0  0  0  0  0  0  0  0
    7.7599  -13.0119   19.5383 C   0  0  0  0  0  0  0  0  0  0  0  0
    8.9191  -12.2138   18.9745 C   0  0  0  0  0  0  0  0  0  0  0  0
    8.5351  -11.7713   17.6415 N   0  0  0  0  0  0  0  0  0  0  0  0
    8.7105  -15.0801   23.3933 C   0  0  0  0  0  0  0  0  0  0  0  0
    9.4627  -14.0385   23.3941 O   0  0  0  0  0  0  0  0  0  0  0  0
    6.0503  -12.3020   26.5987 C   0  0  0  0  0  0  0  0  0  0  0  0
    7.2799  -12.8533   25.9267 C   0  0  1  0  0  0  0  0  0  0  0  0
    8.4239  -11.8535   26.0959 C   0  0  0  0  0  0  0  0  0  0  0  0
    7.7048  -14.1281   26.5333 C   0  0  0  0  0  0  0  0  0  0  0  0
    8.7804  -14.9088   25.8694 C   0  0  2  0  0  0  0  0  0  0  0  0
    8.3393  -15.5616   24.6552 N   0  0  0  0  0  0  0  0  0  0  0  0
    9.5017  -15.8880   26.6931 C   0  0  0  0  0  0  0  0  0  0  0  0
    9.9570  -15.5725   27.8233 O   0  0  0  0  0  0  0  0  0  0  0  0
    9.7236  -17.1973   26.2908 O   0  0  0  0  0  0  0  0  0  0  0  0
  2  3  2  0
  2  1  1  0
  4  2  1  0
  5  4  1  0
  5  6  1  6
  7  5  1  0
  7  8  2  0
  9  7  1  0
 10  9  1  0
 11 12  1  0
 10 11  1  1
 12 13  1  0
 13 14  1  0
 14 15  1  0
 16 10  1  0
 17 16  2  0
 19 18  1  1
 19 21  1  0
 20 19  1  0
 22 21  1  1
 22 23  1  0
 22 24  1  0
 23 16  1  0
 24 26  1  0
 25 24  2  0
M  END
$$$$
