NKL.pdb
     RDKit          3D

 26 25  0  0  1  0  0  0  0  0999 V2000
    9.0769  -20.8319   19.5949 N   0  0  0  0  0  0  0  0  0  0  0  0
   10.2319  -20.1245   19.1785 C   0  0  0  0  0  0  0  0  0  0  0  0
   11.0108  -20.6072   18.3277 O   0  0  0  0  0  0  0  0  0  0  0  0
   10.5092  -18.8085   19.7592 C   0  0  0  0  0  0  0  0  0  0  0  0
    9.5448  -18.5271   20.8645 C   0  0  2  0  0  0  0  0  0  0  0  0
    8.1815  -18.7006   20.4915 N   0  0  0  0  0  0  0  0  0  0  0  0
    9.7326  -17.0669   21.2344 C   0  0  0  0  0  0  0  0  0  0  0  0
   10.8876  -16.7017   21.5103 O   0  0  0  0  0  0  0  0  0  0  0  0
    8.6429  -16.1811   21.2597 N   0  0  0  0  0  0  0  0  0  0  0  0
    8.6924  -14.8229   21.7084 C   0  0  1  0  0  0  0  0  0  0  0  0
    7.4720  -14.0015   21.3485 C   0  0  0  0  0  0  0  0  0  0  0  0
    7.6766  -13.1268   20.1378 C   0  0  0  0  0  0  0  0  0  0  0  0
    7.8385  -13.9601   18.8794 C   0  0  0  0  0  0  0  0  0  0  0  0
    8.1147  -13.0986   17.6629 C   0  0  0  0  0  0  0  0  0  0  0  0
    8.2645  -13.9915   16.5225 N   0  0  0  0  0  0  0  0  0  0  0  0
    9.1160  -14.7165   23.1006 C   0  0  0  0  0  0  0  0  0  0  0  0
    9.9043  -13.7570   23.4303 O   0  0  0  0  0  0  0  0  0  0  0  0
    8.0035  -12.4195   27.2482 C   0  0  0  0  0  0  0  0  0  0  0  0
    6.9787  -13.3785   26.7028 C   0  0  1  0  0  0  0  0  0  0  0  0
    5.6802  -12.6155   26.4410 C   0  0  0  0  0  0  0  0  0  0  0  0
    7.4156  -13.9718   25.4257 C   0  0  0  0  0  0  0  0  0  0  0  0
    8.4150  -15.0706   25.4562 C   0  0  2  0  0  0  0  0  0  0  0  0
    8.7399  -15.5771   24.1398 N   0  0  0  0  0  0  0  0  0  0  0  0
    8.1306  -16.2089   26.3399 C   0  0  0  0  0  0  0  0  0  0  0  0
    7.2583  -17.0632   26.0342 O   0  0  0  0  0  0  0  0  0  0  0  0
    8.7904  -16.4156   27.5430 O   0  0  0  0  0  0  0  0  0  0  0  0
  2  3  2  0
  2  1  1  0
  4  2  1  0
  5  4  1  0
  5  6  1  6
  7  5  1  0
  7  8  2  0
  9  7  1  0
 10  9  1  0
 11 12  1  0
 10 11  1  1
 12 13  1  0
 13 14  1  0
 14 15  1  0
 16 10  1  0
 17 16  2  0
 19 18  1  6
 19 21  1  0
 20 19  1  0
 22 21  1  6
 22 23  1  0
 22 24  1  0
 23 16  1  0
 24 26  1  0
 25 24  2  0
M  END
$$$$
