TGF.pdb
     RDKit          3D

 23 23  0  0  1  0  0  0  0  0999 V2000
   18.3315  -13.4337  -19.1205 C   0  0  0  0  0  0  0  0  0  0  0  0
   18.9472  -12.0652  -19.2323 C   0  0  1  0  0  0  0  0  0  0  0  0
   17.9897  -11.1378  -19.6895 O   0  0  0  0  0  0  0  0  0  0  0  0
   19.4358  -11.6418  -17.8563 C   0  0  2  0  0  0  0  0  0  0  0  0
   18.2477  -11.4228  -16.9990 N   0  0  0  0  0  0  0  0  0  0  0  0
   20.1020  -10.3181  -17.9268 C   0  0  0  0  0  0  0  0  0  0  0  0
   21.3605  -10.2333  -18.1141 O   0  0  0  0  0  0  0  0  0  0  0  0
   19.4274   -9.0710  -17.7999 N   0  0  0  0  0  0  0  0  0  0  0  0
   20.1779   -7.8547  -17.9030 C   0  0  0  0  0  0  0  0  0  0  0  0
   20.3582   -7.1313  -16.6421 C   0  0  0  0  0  0  0  0  0  0  0  0
   19.6900   -7.5434  -15.6269 O   0  0  0  0  0  0  0  0  0  0  0  0
   21.1905   -6.0206  -16.4100 N   0  0  0  0  0  0  0  0  0  0  0  0
   21.2518   -5.3953  -15.0935 C   0  0  1  0  0  0  0  0  0  0  0  0
   22.5551   -5.6453  -14.4314 C   0  0  0  0  0  0  0  0  0  0  0  0
   22.8818   -7.0749  -14.3132 C   0  0  0  0  0  0  0  0  0  0  0  0
   23.8287   -7.6087  -15.1656 C   0  0  0  0  0  0  0  0  0  0  0  0
   24.1614   -8.9406  -15.0862 C   0  0  0  0  0  0  0  0  0  0  0  0
   23.5460   -9.7463  -14.1507 C   0  0  0  0  0  0  0  0  0  0  0  0
   22.5931   -9.2291  -13.2863 C   0  0  0  0  0  0  0  0  0  0  0  0
   22.2642   -7.8944  -13.3707 C   0  0  0  0  0  0  0  0  0  0  0  0
   20.8838   -3.9776  -15.1398 C   0  0  0  0  0  0  0  0  0  0  0  0
   20.6815   -3.1872  -14.0370 O   0  0  0  0  0  0  0  0  0  0  0  0
   20.7345   -3.4218  -16.2666 O   0  0  0  0  0  0  0  0  0  0  0  0
  2  1  1  1
  2  4  1  0
  3  2  1  0
  4  5  1  1
  6  4  1  0
  6  8  1  0
  7  6  2  0
  9  8  1  0
  9 10  1  0
 10 12  1  0
 11 10  2  0
 12 13  1  0
 13 14  1  6
 14 15  1  0
 15 20  2  0
 16 17  2  0
 16 15  1  0
 17 18  1  0
 18 19  2  0
 20 19  1  0
 21 13  1  0
 21 22  1  0
 23 21  2  0
M  END
$$$$
