TGF.pdb
     RDKit          3D

 23 23  0  0  1  0  0  0  0  0999 V2000
   26.7674  -21.0627  -19.1536 C   0  0  0  0  0  0  0  0  0  0  0  0
   26.8243  -21.4883  -17.7114 C   0  0  1  0  0  0  0  0  0  0  0  0
   26.4896  -22.8522  -17.5941 O   0  0  0  0  0  0  0  0  0  0  0  0
   28.2402  -21.2755  -17.2006 C   0  0  2  0  0  0  0  0  0  0  0  0
   28.8982  -22.6002  -17.1178 N   0  0  0  0  0  0  0  0  0  0  0  0
   28.2186  -20.7747  -15.8043 C   0  0  0  0  0  0  0  0  0  0  0  0
   29.0693  -19.9100  -15.4110 O   0  0  0  0  0  0  0  0  0  0  0  0
   27.2842  -21.1925  -14.8150 N   0  0  0  0  0  0  0  0  0  0  0  0
   27.2491  -20.5140  -13.5534 C   0  0  0  0  0  0  0  0  0  0  0  0
   26.1710  -20.9347  -12.6554 C   0  0  0  0  0  0  0  0  0  0  0  0
   25.2689  -21.7076  -13.1411 O   0  0  0  0  0  0  0  0  0  0  0  0
   26.0059  -20.5856  -11.3023 N   0  0  0  0  0  0  0  0  0  0  0  0
   24.8905  -21.1145  -10.5251 C   0  0  1  0  0  0  0  0  0  0  0  0
   25.2282  -21.2130   -9.0843 C   0  0  0  0  0  0  0  0  0  0  0  0
   26.5517  -20.6592   -8.7588 C   0  0  0  0  0  0  0  0  0  0  0  0
   26.6161  -19.4792   -8.0435 C   0  0  0  0  0  0  0  0  0  0  0  0
   27.8343  -18.9297   -7.7197 C   0  0  0  0  0  0  0  0  0  0  0  0
   28.9968  -19.5606   -8.1116 C   0  0  0  0  0  0  0  0  0  0  0  0
   28.9529  -20.7458   -8.8303 C   0  0  0  0  0  0  0  0  0  0  0  0
   27.7297  -21.2910   -9.1514 C   0  0  0  0  0  0  0  0  0  0  0  0
   23.6453  -20.3865  -10.7836 C   0  0  0  0  0  0  0  0  0  0  0  0
   22.3998  -20.8060  -10.3904 O   0  0  0  0  0  0  0  0  0  0  0  0
   23.6979  -19.2911  -11.4147 O   0  0  0  0  0  0  0  0  0  0  0  0
  2  1  1  6
  2  4  1  0
  3  2  1  0
  4  5  1  1
  6  4  1  0
  6  8  1  0
  7  6  2  0
  9  8  1  0
  9 10  1  0
 10 12  1  0
 11 10  2  0
 12 13  1  0
 13 14  1  1
 14 15  1  0
 15 20  2  0
 16 17  2  0
 16 15  1  0
 17 18  1  0
 18 19  2  0
 20 19  1  0
 21 13  1  0
 21 22  1  0
 23 21  2  0
M  END
$$$$
