TGF.pdb
     RDKit          3D

 23 23  0  0  1  0  0  0  0  0999 V2000
   26.8812  -21.5610  -18.8158 C   0  0  0  0  0  0  0  0  0  0  0  0
   26.5904  -20.8898  -17.5008 C   0  0  1  0  0  0  0  0  0  0  0  0
   25.7008  -21.6754  -16.7409 O   0  0  0  0  0  0  0  0  0  0  0  0
   27.8965  -20.7348  -16.7385 C   0  0  2  0  0  0  0  0  0  0  0  0
   28.3802  -22.0895  -16.3843 N   0  0  0  0  0  0  0  0  0  0  0  0
   27.6612  -20.0635  -15.4366 C   0  0  0  0  0  0  0  0  0  0  0  0
   27.1957  -18.8772  -15.3922 O   0  0  0  0  0  0  0  0  0  0  0  0
   27.9194  -20.6563  -14.1684 N   0  0  0  0  0  0  0  0  0  0  0  0
   27.5815  -19.9362  -12.9765 C   0  0  0  0  0  0  0  0  0  0  0  0
   26.5534  -20.5660  -12.1446 C   0  0  0  0  0  0  0  0  0  0  0  0
   26.0861  -21.6939  -12.5404 O   0  0  0  0  0  0  0  0  0  0  0  0
   26.0100  -20.0721  -10.9443 N   0  0  0  0  0  0  0  0  0  0  0  0
   25.0447  -20.8570  -10.1826 C   0  0  1  0  0  0  0  0  0  0  0  0
   25.1086  -20.5435   -8.7345 C   0  0  0  0  0  0  0  0  0  0  0  0
   26.4824  -20.3671   -8.2385 C   0  0  0  0  0  0  0  0  0  0  0  0
   27.4419  -21.2889   -8.6094 C   0  0  0  0  0  0  0  0  0  0  0  0
   28.7372  -21.1586   -8.1664 C   0  0  0  0  0  0  0  0  0  0  0  0
   29.0787  -20.1019   -7.3478 C   0  0  0  0  0  0  0  0  0  0  0  0
   28.1297  -19.1663   -6.9645 C   0  0  0  0  0  0  0  0  0  0  0  0
   26.8342  -19.3023   -7.4115 C   0  0  0  0  0  0  0  0  0  0  0  0
   23.6933  -20.7602  -10.7411 C   0  0  0  0  0  0  0  0  0  0  0  0
   22.6888  -21.6667  -10.5157 O   0  0  0  0  0  0  0  0  0  0  0  0
   23.4105  -19.7798  -11.4892 O   0  0  0  0  0  0  0  0  0  0  0  0
  2  1  1  6
  2  4  1  0
  3  2  1  0
  4  5  1  1
  6  4  1  0
  6  8  1  0
  7  6  2  0
  9  8  1  0
  9 10  1  0
 10 12  1  0
 11 10  2  0
 12 13  1  0
 13 14  1  1
 14 15  1  0
 15 20  2  0
 16 17  2  0
 16 15  1  0
 17 18  1  0
 18 19  2  0
 20 19  1  0
 21 13  1  0
 21 22  1  0
 23 21  2  0
M  END
$$$$
