TGF.pdb
     RDKit          3D

 23 23  0  0  1  0  0  0  0  0999 V2000
   22.0109  -21.4941  -16.2912 C   0  0  0  0  0  0  0  0  0  0  0  0
   23.3244  -21.0425  -15.7121 C   0  0  1  0  0  0  0  0  0  0  0  0
   23.2793  -19.6640  -15.4230 O   0  0  0  0  0  0  0  0  0  0  0  0
   23.5764  -21.8146  -14.4270 C   0  0  2  0  0  0  0  0  0  0  0  0
   22.5970  -21.3500  -13.4173 N   0  0  0  0  0  0  0  0  0  0  0  0
   24.9015  -21.4618  -13.8608 C   0  0  0  0  0  0  0  0  0  0  0  0
   25.9648  -22.0041  -14.3092 O   0  0  0  0  0  0  0  0  0  0  0  0
   25.1022  -20.5225  -12.8101 N   0  0  0  0  0  0  0  0  0  0  0  0
   26.4332  -20.2630  -12.3472 C   0  0  0  0  0  0  0  0  0  0  0  0
   26.7355  -20.7841  -11.0120 C   0  0  0  0  0  0  0  0  0  0  0  0
   27.2266  -21.9676  -10.9398 O   0  0  0  0  0  0  0  0  0  0  0  0
   26.5478  -20.1294   -9.7806 N   0  0  0  0  0  0  0  0  0  0  0  0
   26.9291  -20.7715   -8.5275 C   0  0  1  0  0  0  0  0  0  0  0  0
   28.2780  -20.3432   -8.0840 C   0  0  0  0  0  0  0  0  0  0  0  0
   28.3737  -20.1383   -6.6303 C   0  0  0  0  0  0  0  0  0  0  0  0
   27.8873  -18.9611   -6.0959 C   0  0  0  0  0  0  0  0  0  0  0  0
   27.9585  -18.7323   -4.7418 C   0  0  0  0  0  0  0  0  0  0  0  0
   28.5184  -19.6836   -3.9143 C   0  0  0  0  0  0  0  0  0  0  0  0
   29.0122  -20.8715   -4.4319 C   0  0  0  0  0  0  0  0  0  0  0  0
   28.9380  -21.0947   -5.7888 C   0  0  0  0  0  0  0  0  0  0  0  0
   25.9003  -20.6187   -7.4953 C   0  0  0  0  0  0  0  0  0  0  0  0
   25.7527  -21.4467   -6.4116 O   0  0  0  0  0  0  0  0  0  0  0  0
   25.0767  -19.6629   -7.5906 O   0  0  0  0  0  0  0  0  0  0  0  0
  2  1  1  1
  2  4  1  0
  3  2  1  0
  4  5  1  1
  6  4  1  0
  6  8  1  0
  7  6  2  0
  9  8  1  0
  9 10  1  0
 10 12  1  0
 11 10  2  0
 12 13  1  0
 13 14  1  1
 14 15  1  0
 15 20  2  0
 16 17  2  0
 16 15  1  0
 17 18  1  0
 18 19  2  0
 20 19  1  0
 21 13  1  0
 21 22  1  0
 23 21  2  0
M  END
$$$$
