TGF.pdb
     RDKit          3D

 23 23  0  0  1  0  0  0  0  0999 V2000
   26.4937  -23.0380  -18.5114 C   0  0  0  0  0  0  0  0  0  0  0  0
   26.2163  -22.1662  -17.3167 C   0  0  1  0  0  0  0  0  0  0  0  0
   25.4089  -22.8552  -16.3898 O   0  0  0  0  0  0  0  0  0  0  0  0
   27.5406  -21.8119  -16.6596 C   0  0  2  0  0  0  0  0  0  0  0  0
   28.1308  -23.0602  -16.1231 N   0  0  0  0  0  0  0  0  0  0  0  0
   27.3166  -20.9558  -15.4689 C   0  0  0  0  0  0  0  0  0  0  0  0
   26.7929  -19.7994  -15.5894 O   0  0  0  0  0  0  0  0  0  0  0  0
   27.6486  -21.3297  -14.1361 N   0  0  0  0  0  0  0  0  0  0  0  0
   27.3953  -20.4104  -13.0666 C   0  0  0  0  0  0  0  0  0  0  0  0
   26.3650  -20.8365  -12.1166 C   0  0  0  0  0  0  0  0  0  0  0  0
   25.7313  -21.9202  -12.3831 O   0  0  0  0  0  0  0  0  0  0  0  0
   25.9828  -20.1872  -10.9281 N   0  0  0  0  0  0  0  0  0  0  0  0
   24.9988  -20.7860  -10.0330 C   0  0  1  0  0  0  0  0  0  0  0  0
   25.1836  -20.3275   -8.6348 C   0  0  0  0  0  0  0  0  0  0  0  0
   26.5959  -20.2579   -8.2282 C   0  0  0  0  0  0  0  0  0  0  0  0
   27.4320  -21.3051   -8.5635 C   0  0  0  0  0  0  0  0  0  0  0  0
   28.7583  -21.2772   -8.2015 C   0  0  0  0  0  0  0  0  0  0  0  0
   29.2550  -20.1979   -7.5003 C   0  0  0  0  0  0  0  0  0  0  0  0
   28.4315  -19.1372   -7.1545 C   0  0  0  0  0  0  0  0  0  0  0  0
   27.1041  -19.1711   -7.5199 C   0  0  0  0  0  0  0  0  0  0  0  0
   23.6296  -20.6149  -10.5265 C   0  0  0  0  0  0  0  0  0  0  0  0
   22.5327  -21.2710  -10.0285 O   0  0  0  0  0  0  0  0  0  0  0  0
   23.4204  -19.8111  -11.4810 O   0  0  0  0  0  0  0  0  0  0  0  0
  2  1  1  6
  2  4  1  0
  3  2  1  0
  4  5  1  1
  6  4  1  0
  6  8  1  0
  7  6  2  0
  9  8  1  0
  9 10  1  0
 10 12  1  0
 11 10  2  0
 12 13  1  0
 13 14  1  1
 14 15  1  0
 15 20  2  0
 16 17  2  0
 16 15  1  0
 17 18  1  0
 18 19  2  0
 20 19  1  0
 21 13  1  0
 21 22  1  0
 23 21  2  0
M  END
$$$$
