TGF.pdb
     RDKit          3D

 23 23  0  0  1  0  0  0  0  0999 V2000
   22.3893  -23.1414  -19.7369 C   0  0  0  0  0  0  0  0  0  0  0  0
   23.1880  -22.2176  -18.8576 C   0  0  1  0  0  0  0  0  0  0  0  0
   22.6998  -22.2620  -17.5364 O   0  0  0  0  0  0  0  0  0  0  0  0
   24.6384  -22.6732  -18.8700 C   0  0  2  0  0  0  0  0  0  0  0  0
   24.6922  -24.0364  -18.2926 N   0  0  0  0  0  0  0  0  0  0  0  0
   25.4521  -21.8397  -17.9514 C   0  0  0  0  0  0  0  0  0  0  0  0
   25.6667  -20.6093  -18.2088 O   0  0  0  0  0  0  0  0  0  0  0  0
   26.0428  -22.3140  -16.7462 N   0  0  0  0  0  0  0  0  0  0  0  0
   26.7128  -21.3876  -15.8824 C   0  0  0  0  0  0  0  0  0  0  0  0
   26.2858  -21.4291  -14.4818 C   0  0  0  0  0  0  0  0  0  0  0  0
   25.7520  -22.5180  -14.0617 O   0  0  0  0  0  0  0  0  0  0  0  0
   26.3939  -20.3996  -13.5286 N   0  0  0  0  0  0  0  0  0  0  0  0
   26.0550  -20.6381  -12.1299 C   0  0  1  0  0  0  0  0  0  0  0  0
   26.9970  -19.9483  -11.2155 C   0  0  0  0  0  0  0  0  0  0  0  0
   26.6666  -20.1328   -9.7938 C   0  0  0  0  0  0  0  0  0  0  0  0
   26.2455  -19.0368   -9.0660 C   0  0  0  0  0  0  0  0  0  0  0  0
   25.9274  -19.1687   -7.7347 C   0  0  0  0  0  0  0  0  0  0  0  0
   26.0298  -20.4015   -7.1242 C   0  0  0  0  0  0  0  0  0  0  0  0
   26.4507  -21.5135   -7.8379 C   0  0  0  0  0  0  0  0  0  0  0  0
   26.7678  -21.3749   -9.1709 C   0  0  0  0  0  0  0  0  0  0  0  0
   24.6474  -20.3448  -11.8468 C   0  0  0  0  0  0  0  0  0  0  0  0
   23.8518  -21.0774  -11.0031 O   0  0  0  0  0  0  0  0  0  0  0  0
   24.1053  -19.3505  -12.4111 O   0  0  0  0  0  0  0  0  0  0  0  0
  2  1  1  6
  2  4  1  0
  3  2  1  0
  4  5  1  1
  6  4  1  0
  6  8  1  0
  7  6  2  0
  9  8  1  0
  9 10  1  0
 10 12  1  0
 11 10  2  0
 12 13  1  0
 13 14  1  1
 14 15  1  0
 15 20  2  0
 16 17  2  0
 16 15  1  0
 17 18  1  0
 18 19  2  0
 20 19  1  0
 21 13  1  0
 21 22  1  0
 23 21  2  0
M  END
$$$$
