TGF.pdb
     RDKit          3D

 23 23  0  0  1  0  0  0  0  0999 V2000
   12.6476  -12.8788    3.9538 C   0  0  0  0  0  0  0  0  0  0  0  0
   11.5754  -12.7690    5.0039 C   0  0  1  0  0  0  0  0  0  0  0  0
   10.4555  -12.0889    4.4851 O   0  0  0  0  0  0  0  0  0  0  0  0
   11.1604  -14.1715    5.4187 C   0  0  2  0  0  0  0  0  0  0  0  0
   10.2125  -14.0496    6.5506 N   0  0  0  0  0  0  0  0  0  0  0  0
   12.3196  -14.9133    5.9727 C   0  0  0  0  0  0  0  0  0  0  0  0
   12.7113  -14.7072    7.1686 O   0  0  0  0  0  0  0  0  0  0  0  0
   13.0701  -15.8854    5.2530 N   0  0  0  0  0  0  0  0  0  0  0  0
   14.2504  -16.4399    5.8469 C   0  0  0  0  0  0  0  0  0  0  0  0
   14.9873  -17.3781    4.9969 C   0  0  0  0  0  0  0  0  0  0  0  0
   14.4086  -17.7788    3.9238 O   0  0  0  0  0  0  0  0  0  0  0  0
   16.2747  -17.8995    5.2225 N   0  0  0  0  0  0  0  0  0  0  0  0
   16.8864  -18.8180    4.2684 C   0  0  1  0  0  0  0  0  0  0  0  0
   18.1974  -18.3150    3.7912 C   0  0  0  0  0  0  0  0  0  0  0  0
   18.1067  -17.0166    3.1055 C   0  0  0  0  0  0  0  0  0  0  0  0
   17.9990  -17.0030    1.7284 C   0  0  0  0  0  0  0  0  0  0  0  0
   17.9120  -15.8095    1.0510 C   0  0  0  0  0  0  0  0  0  0  0  0
   17.9324  -14.6209    1.7509 C   0  0  0  0  0  0  0  0  0  0  0  0
   18.0398  -14.6138    3.1334 C   0  0  0  0  0  0  0  0  0  0  0  0
   18.1266  -15.8124    3.8061 C   0  0  0  0  0  0  0  0  0  0  0  0
   16.9398  -20.1896    4.7815 C   0  0  0  0  0  0  0  0  0  0  0  0
   16.9846  -21.3148    3.9982 O   0  0  0  0  0  0  0  0  0  0  0  0
   16.9439  -20.3737    6.0333 O   0  0  0  0  0  0  0  0  0  0  0  0
  2  1  1  6
  2  4  1  0
  3  2  1  0
  4  5  1  1
  6  4  1  0
  6  8  1  0
  7  6  2  0
  9  8  1  0
  9 10  1  0
 10 12  1  0
 11 10  2  0
 12 13  1  0
 13 14  1  1
 14 15  1  0
 15 20  2  0
 16 17  2  0
 16 15  1  0
 17 18  1  0
 18 19  2  0
 20 19  1  0
 21 13  1  0
 21 22  1  0
 23 21  2  0
M  END
$$$$
