TGF.pdb
     RDKit          3D

 23 23  0  0  1  0  0  0  0  0999 V2000
   16.1697  -22.3665    3.5425 C   0  0  0  0  0  0  0  0  0  0  0  0
   15.5383  -22.0018    2.2262 C   0  0  1  0  0  0  0  0  0  0  0  0
   15.6421  -23.0786    1.3229 O   0  0  0  0  0  0  0  0  0  0  0  0
   14.0697  -21.6899    2.4651 C   0  0  2  0  0  0  0  0  0  0  0  0
   13.4469  -21.3985    1.1530 N   0  0  0  0  0  0  0  0  0  0  0  0
   13.9254  -20.4336    3.2409 C   0  0  0  0  0  0  0  0  0  0  0  0
   12.8132  -19.8104    3.2673 O   0  0  0  0  0  0  0  0  0  0  0  0
   14.9699  -19.8325    3.9987 N   0  0  0  0  0  0  0  0  0  0  0  0
   14.7048  -18.6241    4.7217 C   0  0  0  0  0  0  0  0  0  0  0  0
   15.8616  -18.0527    5.4152 C   0  0  0  0  0  0  0  0  0  0  0  0
   16.9195  -18.7756    5.4885 O   0  0  0  0  0  0  0  0  0  0  0  0
   15.9504  -16.7851    6.0197 N   0  0  0  0  0  0  0  0  0  0  0  0
   17.1769  -16.3587    6.6844 C   0  0  1  0  0  0  0  0  0  0  0  0
   17.7285  -15.1257    6.0720 C   0  0  0  0  0  0  0  0  0  0  0  0
   17.7909  -15.1845    4.6033 C   0  0  0  0  0  0  0  0  0  0  0  0
   18.5405  -16.1837    4.0136 C   0  0  0  0  0  0  0  0  0  0  0  0
   18.6237  -16.2721    2.6438 C   0  0  0  0  0  0  0  0  0  0  0  0
   17.9551  -15.3580    1.8561 C   0  0  0  0  0  0  0  0  0  0  0  0
   17.1976  -14.3478    2.4293 C   0  0  0  0  0  0  0  0  0  0  0  0
   17.1182  -14.2647    3.8016 C   0  0  0  0  0  0  0  0  0  0  0  0
   17.0115  -16.2644    8.1373 C   0  0  0  0  0  0  0  0  0  0  0  0
   15.8091  -16.3441    8.7928 O   0  0  0  0  0  0  0  0  0  0  0  0
   18.0368  -16.0952    8.8591 O   0  0  0  0  0  0  0  0  0  0  0  0
  2  1  1  1
  2  4  1  0
  3  2  1  0
  4  5  1  6
  6  4  1  0
  6  8  1  0
  7  6  2  0
  9  8  1  0
  9 10  1  0
 10 12  1  0
 11 10  2  0
 12 13  1  0
 13 14  1  6
 14 15  1  0
 15 20  2  0
 16 17  2  0
 16 15  1  0
 17 18  1  0
 18 19  2  0
 20 19  1  0
 21 13  1  0
 21 22  1  0
 23 21  2  0
M  END
$$$$
