TGF.pdb
     RDKit          3D

 23 23  0  0  1  0  0  0  0  0999 V2000
   24.0259  -19.8703  -15.7535 C   0  0  0  0  0  0  0  0  0  0  0  0
   23.8181  -20.4116  -14.3650 C   0  0  1  0  0  0  0  0  0  0  0  0
   22.4945  -20.8718  -14.2162 O   0  0  0  0  0  0  0  0  0  0  0  0
   24.7775  -21.5713  -14.1503 C   0  0  2  0  0  0  0  0  0  0  0  0
   24.3440  -22.3019  -12.9367 N   0  0  0  0  0  0  0  0  0  0  0  0
   26.1350  -21.0686  -13.8258 C   0  0  0  0  0  0  0  0  0  0  0  0
   26.5569  -19.9715  -14.3203 O   0  0  0  0  0  0  0  0  0  0  0  0
   27.0544  -21.7339  -12.9665 N   0  0  0  0  0  0  0  0  0  0  0  0
   27.6991  -20.9939  -11.9225 C   0  0  0  0  0  0  0  0  0  0  0  0
   27.0888  -21.1342  -10.5982 C   0  0  0  0  0  0  0  0  0  0  0  0
   26.6865  -22.3041  -10.2570 O   0  0  0  0  0  0  0  0  0  0  0  0
   26.8889  -20.1213   -9.6420 N   0  0  0  0  0  0  0  0  0  0  0  0
   26.2544  -20.4170   -8.3622 C   0  0  1  0  0  0  0  0  0  0  0  0
   26.4521  -19.3160   -7.3884 C   0  0  0  0  0  0  0  0  0  0  0  0
   27.5094  -19.5942   -6.4039 C   0  0  0  0  0  0  0  0  0  0  0  0
   28.8271  -19.4366   -6.7875 C   0  0  0  0  0  0  0  0  0  0  0  0
   29.8439  -19.6868   -5.8962 C   0  0  0  0  0  0  0  0  0  0  0  0
   29.5454  -20.0969   -4.6133 C   0  0  0  0  0  0  0  0  0  0  0  0
   28.2290  -20.2608   -4.2093 C   0  0  0  0  0  0  0  0  0  0  0  0
   27.2152  -20.0087   -5.1067 C   0  0  0  0  0  0  0  0  0  0  0  0
   24.8517  -20.8100   -8.5210 C   0  0  0  0  0  0  0  0  0  0  0  0
   24.1362  -21.5374   -7.6041 O   0  0  0  0  0  0  0  0  0  0  0  0
   24.2364  -20.4667   -9.5719 O   0  0  0  0  0  0  0  0  0  0  0  0
  2  1  1  6
  2  4  1  0
  3  2  1  0
  4  5  1  1
  6  4  1  0
  6  8  1  0
  7  6  2  0
  9  8  1  0
  9 10  1  0
 10 12  1  0
 11 10  2  0
 12 13  1  0
 13 14  1  1
 14 15  1  0
 15 20  2  0
 16 17  2  0
 16 15  1  0
 17 18  1  0
 18 19  2  0
 20 19  1  0
 21 13  1  0
 21 22  1  0
 23 21  2  0
M  END
$$$$
