TGF.pdb
     RDKit          3D

 23 23  0  0  1  0  0  0  0  0999 V2000
   19.6209  -11.4282  -16.7123 C   0  0  0  0  0  0  0  0  0  0  0  0
   18.3259  -11.5776  -17.4639 C   0  0  1  0  0  0  0  0  0  0  0  0
   18.2501  -12.8563  -18.0513 O   0  0  0  0  0  0  0  0  0  0  0  0
   17.1764  -11.4091  -16.4833 C   0  0  2  0  0  0  0  0  0  0  0  0
   15.9097  -11.5322  -17.2415 N   0  0  0  0  0  0  0  0  0  0  0  0
   17.1587  -10.0303  -15.9362 C   0  0  0  0  0  0  0  0  0  0  0  0
   16.8031   -9.0465  -16.6655 O   0  0  0  0  0  0  0  0  0  0  0  0
   17.5192   -9.6904  -14.6017 N   0  0  0  0  0  0  0  0  0  0  0  0
   17.6360   -8.3095  -14.2376 C   0  0  0  0  0  0  0  0  0  0  0  0
   18.0562   -8.0685  -12.8552 C   0  0  0  0  0  0  0  0  0  0  0  0
   17.9033   -9.0291  -12.0180 O   0  0  0  0  0  0  0  0  0  0  0  0
   18.6163   -6.8894  -12.3295 N   0  0  0  0  0  0  0  0  0  0  0  0
   19.1006   -6.8411  -10.9543 C   0  0  1  0  0  0  0  0  0  0  0  0
   20.5606   -6.5867  -10.8992 C   0  0  0  0  0  0  0  0  0  0  0  0
   21.3460   -7.5332  -11.7066 C   0  0  0  0  0  0  0  0  0  0  0  0
   21.7076   -8.7411  -11.1423 C   0  0  0  0  0  0  0  0  0  0  0  0
   22.4417   -9.6523  -11.8648 C   0  0  0  0  0  0  0  0  0  0  0  0
   22.8181   -9.3575  -13.1588 C   0  0  0  0  0  0  0  0  0  0  0  0
   22.4648   -8.1504  -13.7427 C   0  0  0  0  0  0  0  0  0  0  0  0
   21.7296   -7.2421  -13.0140 C   0  0  0  0  0  0  0  0  0  0  0  0
   18.3167   -5.9203  -10.1266 C   0  0  0  0  0  0  0  0  0  0  0  0
   18.3627   -5.8703   -8.7566 O   0  0  0  0  0  0  0  0  0  0  0  0
   17.5329   -5.1053  -10.6944 O   0  0  0  0  0  0  0  0  0  0  0  0
  2  1  1  1
  2  4  1  0
  3  2  1  0
  4  5  1  6
  6  4  1  0
  6  8  1  0
  7  6  2  0
  9  8  1  0
  9 10  1  0
 10 12  1  0
 11 10  2  0
 12 13  1  0
 13 14  1  6
 14 15  1  0
 15 20  2  0
 16 17  2  0
 16 15  1  0
 17 18  1  0
 18 19  2  0
 20 19  1  0
 21 13  1  0
 21 22  1  0
 23 21  2  0
M  END
$$$$
