TGF.pdb
     RDKit          3D

 23 23  0  0  1  0  0  0  0  0999 V2000
   28.2315  -17.8692  -19.3699 C   0  0  0  0  0  0  0  0  0  0  0  0
   28.5338  -18.0353  -17.9052 C   0  0  1  0  0  0  0  0  0  0  0  0
   28.3134  -16.8219  -17.2233 O   0  0  0  0  0  0  0  0  0  0  0  0
   27.6096  -19.1016  -17.3394 C   0  0  2  0  0  0  0  0  0  0  0  0
   26.2240  -18.5811  -17.3987 N   0  0  0  0  0  0  0  0  0  0  0  0
   27.8765  -19.3062  -15.8944 C   0  0  0  0  0  0  0  0  0  0  0  0
   28.9320  -19.9083  -15.5076 O   0  0  0  0  0  0  0  0  0  0  0  0
   27.0174  -18.8661  -14.8482 N   0  0  0  0  0  0  0  0  0  0  0  0
   27.3871  -19.1154  -13.4865 C   0  0  0  0  0  0  0  0  0  0  0  0
   26.5384  -20.0798  -12.7826 C   0  0  0  0  0  0  0  0  0  0  0  0
   26.2970  -21.1926  -13.3745 O   0  0  0  0  0  0  0  0  0  0  0  0
   25.9480  -19.9269  -11.5144 N   0  0  0  0  0  0  0  0  0  0  0  0
   25.1140  -20.9806  -10.9468 C   0  0  1  0  0  0  0  0  0  0  0  0
   25.1635  -20.9759   -9.4646 C   0  0  0  0  0  0  0  0  0  0  0  0
   26.4901  -20.6327   -8.9288 C   0  0  0  0  0  0  0  0  0  0  0  0
   27.5845  -21.3557   -9.3619 C   0  0  0  0  0  0  0  0  0  0  0  0
   28.8410  -21.0653   -8.8845 C   0  0  0  0  0  0  0  0  0  0  0  0
   29.0080  -20.0470   -7.9689 C   0  0  0  0  0  0  0  0  0  0  0  0
   27.9217  -19.3099   -7.5220 C   0  0  0  0  0  0  0  0  0  0  0  0
   26.6660  -19.6057   -8.0039 C   0  0  0  0  0  0  0  0  0  0  0  0
   23.7512  -20.9538  -11.4847 C   0  0  0  0  0  0  0  0  0  0  0  0
   22.8424  -21.9736  -11.3594 O   0  0  0  0  0  0  0  0  0  0  0  0
   23.3636  -19.9277  -12.1154 O   0  0  0  0  0  0  0  0  0  0  0  0
  2  1  1  6
  2  4  1  0
  3  2  1  0
  4  5  1  1
  6  4  1  0
  6  8  1  0
  7  6  2  0
  9  8  1  0
  9 10  1  0
 10 12  1  0
 11 10  2  0
 12 13  1  0
 13 14  1  1
 14 15  1  0
 15 20  2  0
 16 17  2  0
 16 15  1  0
 17 18  1  0
 18 19  2  0
 20 19  1  0
 21 13  1  0
 21 22  1  0
 23 21  2  0
M  END
$$$$
