TGF.pdb
     RDKit          3D

 23 23  0  0  1  0  0  0  0  0999 V2000
   34.8724  -28.5729  -17.9246 C   0  0  0  0  0  0  0  0  0  0  0  0
   35.2196  -27.3384  -18.7117 C   0  0  1  0  0  0  0  0  0  0  0  0
   35.6211  -27.6909  -20.0158 O   0  0  0  0  0  0  0  0  0  0  0  0
   33.9861  -26.4533  -18.7907 C   0  0  2  0  0  0  0  0  0  0  0  0
   34.1434  -25.5565  -19.9593 N   0  0  0  0  0  0  0  0  0  0  0  0
   33.9240  -25.5439  -17.6202 C   0  0  0  0  0  0  0  0  0  0  0  0
   34.4025  -24.3638  -17.6882 O   0  0  0  0  0  0  0  0  0  0  0  0
   33.3466  -25.8875  -16.3652 N   0  0  0  0  0  0  0  0  0  0  0  0
   33.3301  -24.9159  -15.3121 C   0  0  0  0  0  0  0  0  0  0  0  0
   32.0107  -24.3571  -15.0078 C   0  0  0  0  0  0  0  0  0  0  0  0
   31.2015  -25.0920  -14.3354 O   0  0  0  0  0  0  0  0  0  0  0  0
   31.5190  -23.0899  -15.3718 N   0  0  0  0  0  0  0  0  0  0  0  0
   30.2292  -22.6193  -14.8788 C   0  0  1  0  0  0  0  0  0  0  0  0
   30.3788  -21.4200  -14.0193 C   0  0  0  0  0  0  0  0  0  0  0  0
   30.8465  -21.7342  -12.6602 C   0  0  0  0  0  0  0  0  0  0  0  0
   32.1678  -22.0959  -12.4836 C   0  0  0  0  0  0  0  0  0  0  0  0
   32.6430  -22.3970  -11.2288 C   0  0  0  0  0  0  0  0  0  0  0  0
   31.7952  -22.3372  -10.1422 C   0  0  0  0  0  0  0  0  0  0  0  0
   30.4656  -21.9761  -10.2991 C   0  0  0  0  0  0  0  0  0  0  0  0
   29.9958  -21.6758  -11.5583 C   0  0  0  0  0  0  0  0  0  0  0  0
   29.2571  -22.4432  -15.9611 C   0  0  0  0  0  0  0  0  0  0  0  0
   29.5637  -22.4711  -17.2979 O   0  0  0  0  0  0  0  0  0  0  0  0
   28.0424  -22.2483  -15.6654 O   0  0  0  0  0  0  0  0  0  0  0  0
  2  1  1  1
  2  4  1  0
  3  2  1  0
  4  5  1  6
  6  4  1  0
  6  8  1  0
  7  6  2  0
  9  8  1  0
  9 10  1  0
 10 12  1  0
 11 10  2  0
 12 13  1  0
 13 14  1  6
 14 15  1  0
 15 20  2  0
 16 17  2  0
 16 15  1  0
 17 18  1  0
 18 19  2  0
 20 19  1  0
 21 13  1  0
 21 22  1  0
 23 21  2  0
M  END
$$$$
