TGF.pdb
     RDKit          3D

 23 23  0  0  1  0  0  0  0  0999 V2000
   25.6839  -23.6549  -16.2612 C   0  0  0  0  0  0  0  0  0  0  0  0
   24.2143  -23.6940  -15.9400 C   0  0  1  0  0  0  0  0  0  0  0  0
   23.6203  -24.8321  -16.5213 O   0  0  0  0  0  0  0  0  0  0  0  0
   24.0518  -23.7617  -14.4299 C   0  0  2  0  0  0  0  0  0  0  0  0
   22.6037  -23.6967  -14.1247 N   0  0  0  0  0  0  0  0  0  0  0  0
   24.6288  -22.5534  -13.7911 C   0  0  0  0  0  0  0  0  0  0  0  0
   24.0490  -21.4227  -13.8974 O   0  0  0  0  0  0  0  0  0  0  0  0
   25.8315  -22.5435  -13.0297 N   0  0  0  0  0  0  0  0  0  0  0  0
   26.3011  -21.3074  -12.4776 C   0  0  0  0  0  0  0  0  0  0  0  0
   26.5117  -21.3187  -11.0281 C   0  0  0  0  0  0  0  0  0  0  0  0
   26.2324  -22.4033  -10.4016 O   0  0  0  0  0  0  0  0  0  0  0  0
   26.9917  -20.2638  -10.2299 N   0  0  0  0  0  0  0  0  0  0  0  0
   27.1246  -20.4205   -8.7857 C   0  0  1  0  0  0  0  0  0  0  0  0
   28.1210  -19.4763   -8.2243 C   0  0  0  0  0  0  0  0  0  0  0  0
   28.2998  -19.6169   -6.7708 C   0  0  0  0  0  0  0  0  0  0  0  0
   29.0937  -20.6444   -6.2994 C   0  0  0  0  0  0  0  0  0  0  0  0
   29.2853  -20.8090   -4.9477 C   0  0  0  0  0  0  0  0  0  0  0  0
   28.6815  -19.9434   -4.0593 C   0  0  0  0  0  0  0  0  0  0  0  0
   27.8810  -18.9059   -4.5130 C   0  0  0  0  0  0  0  0  0  0  0  0
   27.6930  -18.7464   -5.8680 C   0  0  0  0  0  0  0  0  0  0  0  0
   25.8277  -20.3724   -8.1052 C   0  0  0  0  0  0  0  0  0  0  0  0
   24.7845  -19.5597   -8.4698 O   0  0  0  0  0  0  0  0  0  0  0  0
   25.6341  -21.1239   -7.1059 O   0  0  0  0  0  0  0  0  0  0  0  0
  2  1  1  1
  2  4  1  0
  3  2  1  0
  4  5  1  6
  6  4  1  0
  6  8  1  0
  7  6  2  0
  9  8  1  0
  9 10  1  0
 10 12  1  0
 11 10  2  0
 12 13  1  0
 13 14  1  1
 14 15  1  0
 15 20  2  0
 16 17  2  0
 16 15  1  0
 17 18  1  0
 18 19  2  0
 20 19  1  0
 21 13  1  0
 21 22  1  0
 23 21  2  0
M  END
$$$$
