TGF.pdb
     RDKit          3D

 23 23  0  0  1  0  0  0  0  0999 V2000
   28.4004  -20.2571  -18.4788 C   0  0  0  0  0  0  0  0  0  0  0  0
   28.1097  -19.5518  -17.1817 C   0  0  1  0  0  0  0  0  0  0  0  0
   26.7997  -19.0327  -17.1942 O   0  0  0  0  0  0  0  0  0  0  0  0
   28.2389  -20.5553  -16.0470 C   0  0  2  0  0  0  0  0  0  0  0  0
   27.0916  -21.4886  -16.1320 N   0  0  0  0  0  0  0  0  0  0  0  0
   28.0817  -19.8793  -14.7358 C   0  0  0  0  0  0  0  0  0  0  0  0
   29.0263  -19.1723  -14.2520 O   0  0  0  0  0  0  0  0  0  0  0  0
   26.9105  -19.9509  -13.9299 N   0  0  0  0  0  0  0  0  0  0  0  0
   26.9244  -19.3694  -12.6204 C   0  0  0  0  0  0  0  0  0  0  0  0
   26.3218  -20.1953  -11.5713 C   0  0  0  0  0  0  0  0  0  0  0  0
   26.1016  -21.4290  -11.8477 O   0  0  0  0  0  0  0  0  0  0  0  0
   25.9504  -19.7883  -10.2764 N   0  0  0  0  0  0  0  0  0  0  0  0
   25.2890  -20.7141   -9.3634 C   0  0  1  0  0  0  0  0  0  0  0  0
   25.4627  -20.3024   -7.9492 C   0  0  0  0  0  0  0  0  0  0  0  0
   26.8723  -20.1418   -7.5599 C   0  0  0  0  0  0  0  0  0  0  0  0
   27.7393  -21.1968   -7.7685 C   0  0  0  0  0  0  0  0  0  0  0  0
   29.0643  -21.0856   -7.4179 C   0  0  0  0  0  0  0  0  0  0  0  0
   29.5287  -19.9147   -6.8553 C   0  0  0  0  0  0  0  0  0  0  0  0
   28.6739  -18.8446   -6.6380 C   0  0  0  0  0  0  0  0  0  0  0  0
   27.3480  -18.9622   -6.9913 C   0  0  0  0  0  0  0  0  0  0  0  0
   23.8911  -20.9492   -9.7348 C   0  0  0  0  0  0  0  0  0  0  0  0
   23.0972  -21.9335   -9.2032 O   0  0  0  0  0  0  0  0  0  0  0  0
   23.3576  -20.2047  -10.6076 O   0  0  0  0  0  0  0  0  0  0  0  0
  2  1  1  6
  2  4  1  0
  3  2  1  0
  4  5  1  6
  6  4  1  0
  6  8  1  0
  7  6  2  0
  9  8  1  0
  9 10  1  0
 10 12  1  0
 11 10  2  0
 12 13  1  0
 13 14  1  1
 14 15  1  0
 15 20  2  0
 16 17  2  0
 16 15  1  0
 17 18  1  0
 18 19  2  0
 20 19  1  0
 21 13  1  0
 21 22  1  0
 23 21  2  0
M  END
$$$$
