TGF.pdb
     RDKit          3D

 23 23  0  0  1  0  0  0  0  0999 V2000
   25.9979  -19.9954  -16.7506 C   0  0  0  0  0  0  0  0  0  0  0  0
   27.2907  -19.3494  -17.1699 C   0  0  1  0  0  0  0  0  0  0  0  0
   27.3414  -19.2304  -18.5732 O   0  0  0  0  0  0  0  0  0  0  0  0
   27.3621  -17.9640  -16.5480 C   0  0  2  0  0  0  0  0  0  0  0  0
   28.6273  -17.3319  -16.9888 N   0  0  0  0  0  0  0  0  0  0  0  0
   27.4813  -18.0629  -15.0725 C   0  0  0  0  0  0  0  0  0  0  0  0
   28.5871  -18.3945  -14.5309 O   0  0  0  0  0  0  0  0  0  0  0  0
   26.4185  -17.8053  -14.1612 N   0  0  0  0  0  0  0  0  0  0  0  0
   26.6468  -17.9642  -12.7556 C   0  0  0  0  0  0  0  0  0  0  0  0
   26.0258  -19.1492  -12.1589 C   0  0  0  0  0  0  0  0  0  0  0  0
   25.6584  -20.0852  -12.9563 O   0  0  0  0  0  0  0  0  0  0  0  0
   25.7812  -19.3850  -10.7933 N   0  0  0  0  0  0  0  0  0  0  0  0
   25.1634  -20.6297  -10.3493 C   0  0  1  0  0  0  0  0  0  0  0  0
   25.2129  -20.7666   -8.8734 C   0  0  0  0  0  0  0  0  0  0  0  0
   26.5378  -20.4697   -8.3067 C   0  0  0  0  0  0  0  0  0  0  0  0
   27.5775  -21.3414   -8.5662 C   0  0  0  0  0  0  0  0  0  0  0  0
   28.8305  -21.0986   -8.0544 C   0  0  0  0  0  0  0  0  0  0  0  0
   29.0490  -19.9792   -7.2784 C   0  0  0  0  0  0  0  0  0  0  0  0
   28.0182  -19.0924   -7.0067 C   0  0  0  0  0  0  0  0  0  0  0  0
   26.7655  -19.3410   -7.5222 C   0  0  0  0  0  0  0  0  0  0  0  0
   23.8196  -20.8066  -10.9064 C   0  0  0  0  0  0  0  0  0  0  0  0
   23.0763  -19.8085  -11.4835 O   0  0  0  0  0  0  0  0  0  0  0  0
   23.2858  -21.9528  -10.8613 O   0  0  0  0  0  0  0  0  0  0  0  0
  2  1  1  6
  2  4  1  0
  3  2  1  0
  4  5  1  6
  6  4  1  0
  6  8  1  0
  7  6  2  0
  9  8  1  0
  9 10  1  0
 10 12  1  0
 11 10  2  0
 12 13  1  0
 13 14  1  1
 14 15  1  0
 15 20  2  0
 16 17  2  0
 16 15  1  0
 17 18  1  0
 18 19  2  0
 20 19  1  0
 21 13  1  0
 21 22  1  0
 23 21  2  0
M  END
$$$$
