TGF.pdb
     RDKit          3D

 23 23  0  0  1  0  0  0  0  0999 V2000
   21.5197  -12.5359    7.2115 C   0  0  0  0  0  0  0  0  0  0  0  0
   20.2273  -11.8928    6.7868 C   0  0  1  0  0  0  0  0  0  0  0  0
   20.4592  -10.5675    6.3674 O   0  0  0  0  0  0  0  0  0  0  0  0
   19.6493  -12.6896    5.6283 C   0  0  2  0  0  0  0  0  0  0  0  0
   18.3365  -12.0985    5.2793 N   0  0  0  0  0  0  0  0  0  0  0  0
   19.3395  -14.0762    6.0555 C   0  0  0  0  0  0  0  0  0  0  0  0
   20.2669  -14.8562    6.4523 O   0  0  0  0  0  0  0  0  0  0  0  0
   18.0330  -14.6414    6.0647 N   0  0  0  0  0  0  0  0  0  0  0  0
   17.8592  -15.9972    6.4946 C   0  0  0  0  0  0  0  0  0  0  0  0
   17.4987  -16.9404    5.4334 C   0  0  0  0  0  0  0  0  0  0  0  0
   16.9315  -16.4600    4.3873 O   0  0  0  0  0  0  0  0  0  0  0  0
   17.7045  -18.3325    5.4265 N   0  0  0  0  0  0  0  0  0  0  0  0
   17.1769  -19.1602    4.3473 C   0  0  1  0  0  0  0  0  0  0  0  0
   18.2496  -19.5964    3.4207 C   0  0  0  0  0  0  0  0  0  0  0  0
   19.2696  -18.5626    3.1852 C   0  0  0  0  0  0  0  0  0  0  0  0
   19.1245  -17.7283    2.0939 C   0  0  0  0  0  0  0  0  0  0  0  0
   20.0567  -16.7498    1.8399 C   0  0  0  0  0  0  0  0  0  0  0  0
   21.1413  -16.6017    2.6795 C   0  0  0  0  0  0  0  0  0  0  0  0
   21.3044  -17.4294    3.7800 C   0  0  0  0  0  0  0  0  0  0  0  0
   20.3673  -18.4075    4.0290 C   0  0  0  0  0  0  0  0  0  0  0  0
   16.3570  -20.2651    4.8515 C   0  0  0  0  0  0  0  0  0  0  0  0
   16.2735  -20.6371    6.1692 O   0  0  0  0  0  0  0  0  0  0  0  0
   15.6700  -20.9398    4.0307 O   0  0  0  0  0  0  0  0  0  0  0  0
  2  1  1  6
  2  4  1  0
  3  2  1  0
  4  5  1  1
  6  4  1  0
  6  8  1  0
  7  6  2  0
  9  8  1  0
  9 10  1  0
 10 12  1  0
 11 10  2  0
 12 13  1  0
 13 14  1  1
 14 15  1  0
 15 20  2  0
 16 17  2  0
 16 15  1  0
 17 18  1  0
 18 19  2  0
 20 19  1  0
 21 13  1  0
 21 22  1  0
 23 21  2  0
M  END
$$$$
