SMS.pdb
     RDKit          3D

 21 20  0  0  1  0  0  0  0  0999 V2000
   16.7610  -10.6628  -18.5029 O   0  0  0  0  0  0  0  0  0  0  0  0
   17.6903  -10.2227  -17.5955 C   0  0  0  0  0  0  0  0  0  0  0  0
   18.7053  -11.2638  -17.1942 C   0  0  2  0  0  0  0  0  0  0  0  0
   17.9857  -12.3107  -16.5067 N   0  0  0  0  0  0  0  0  0  0  0  0
   19.7838  -10.7042  -16.3439 C   0  0  0  0  0  0  0  0  0  0  0  0
   19.6080  -10.6750  -15.1140 O   0  0  0  0  0  0  0  0  0  0  0  0
   24.1675  -13.4223  -14.1677 C   0  0  0  0  0  0  0  0  0  0  0  0
   23.6838  -11.6987  -14.4957 S   0  0  0  0  0  0  0  0  0  0  0  0
   23.7740  -11.4312  -16.3095 C   0  0  0  0  0  0  0  0  0  0  0  0
   23.4413  -10.0091  -16.6197 C   0  0  0  0  0  0  0  0  0  0  0  0
   22.0540   -9.5904  -16.1576 C   0  0  2  0  0  0  0  0  0  0  0  0
   20.9809  -10.2149  -16.8977 N   0  0  0  0  0  0  0  0  0  0  0  0
   21.9622   -8.1225  -16.2660 C   0  0  0  0  0  0  0  0  0  0  0  0
   22.1703   -7.4819  -17.3163 O   0  0  0  0  0  0  0  0  0  0  0  0
   19.2977   -6.0243  -14.1764 O   0  0  0  0  0  0  0  0  0  0  0  0
   20.0150   -5.5000  -15.2438 C   0  0  0  0  0  0  0  0  0  0  0  0
   21.4795   -5.9248  -15.1678 C   0  0  2  0  0  0  0  0  0  0  0  0
   21.6118   -7.3507  -15.1030 N   0  0  0  0  0  0  0  0  0  0  0  0
   22.1245   -5.2430  -14.0375 C   0  0  0  0  0  0  0  0  0  0  0  0
   22.2881   -3.8786  -14.0053 O   0  0  0  0  0  0  0  0  0  0  0  0
   22.5516   -5.9011  -13.0521 O   0  0  0  0  0  0  0  0  0  0  0  0
  2  3  1  0
  2  1  1  0
  3  4  1  1
  3  5  1  0
  5  6  2  0
  7  8  1  0
  9  8  1  0
 11 10  1  6
 10  9  1  0
 11 13  1  0
 12  5  1  0
 12 11  1  0
 13 14  2  0
 15 16  1  0
 17 16  1  1
 17 19  1  0
 18 17  1  0
 18 13  1  0
 19 20  1  0
 21 19  2  0
M  END
$$$$
