SMS.pdb
     RDKit          3D

 21 20  0  0  1  0  0  0  0  0999 V2000
   18.2717  -11.3723  -21.0336 O   0  0  0  0  0  0  0  0  0  0  0  0
   18.9092  -11.0461  -19.8641 C   0  0  0  0  0  0  0  0  0  0  0  0
   20.2294  -11.7472  -19.6622 C   0  0  2  0  0  0  0  0  0  0  0  0
   19.9338  -13.1398  -19.4176 N   0  0  0  0  0  0  0  0  0  0  0  0
   21.0170  -11.1610  -18.5508 C   0  0  0  0  0  0  0  0  0  0  0  0
   20.6393  -11.3734  -17.3860 O   0  0  0  0  0  0  0  0  0  0  0  0
   26.7475  -10.0066  -14.4576 C   0  0  0  0  0  0  0  0  0  0  0  0
   25.6965  -10.6836  -15.7803 S   0  0  0  0  0  0  0  0  0  0  0  0
   25.3296   -9.3193  -16.9524 C   0  0  0  0  0  0  0  0  0  0  0  0
   24.4763   -9.8345  -18.0640 C   0  0  0  0  0  0  0  0  0  0  0  0
   22.9848   -9.7634  -17.7738 C   0  0  2  0  0  0  0  0  0  0  0  0
   22.1642  -10.3826  -18.7900 N   0  0  0  0  0  0  0  0  0  0  0  0
   22.6190   -8.3434  -17.6173 C   0  0  0  0  0  0  0  0  0  0  0  0
   22.6523   -7.5042  -18.5400 O   0  0  0  0  0  0  0  0  0  0  0  0
   19.6664   -7.1115  -15.1764 O   0  0  0  0  0  0  0  0  0  0  0  0
   20.8196   -6.3685  -14.9598 C   0  0  0  0  0  0  0  0  0  0  0  0
   21.7767   -6.5046  -16.1414 C   0  0  2  0  0  0  0  0  0  0  0  0
   22.1917   -7.8637  -16.3296 N   0  0  0  0  0  0  0  0  0  0  0  0
   22.9084   -5.5859  -15.9575 C   0  0  0  0  0  0  0  0  0  0  0  0
   22.9173   -4.3217  -16.4971 O   0  0  0  0  0  0  0  0  0  0  0  0
   23.9168   -5.9378  -15.2899 O   0  0  0  0  0  0  0  0  0  0  0  0
  2  3  1  0
  2  1  1  0
  3  4  1  1
  3  5  1  0
  5  6  2  0
  7  8  1  0
  9  8  1  0
 11 10  1  6
 10  9  1  0
 11 13  1  0
 12  5  1  0
 12 11  1  0
 13 14  2  0
 15 16  1  0
 17 16  1  1
 17 19  1  0
 18 17  1  0
 18 13  1  0
 19 20  1  0
 21 19  2  0
M  END
$$$$
