SMS.pdb
     RDKit          3D

 21 20  0  0  1  0  0  0  0  0999 V2000
   19.5896  -10.0463  -12.9026 O   0  0  0  0  0  0  0  0  0  0  0  0
   18.5700   -9.1973  -12.5557 C   0  0  0  0  0  0  0  0  0  0  0  0
   17.7028   -9.6993  -11.4282 C   0  0  2  0  0  0  0  0  0  0  0  0
   17.1131  -10.9413  -11.8711 N   0  0  0  0  0  0  0  0  0  0  0  0
   16.6615   -8.7189  -11.0360 C   0  0  0  0  0  0  0  0  0  0  0  0
   15.7496   -8.4741  -11.8440 O   0  0  0  0  0  0  0  0  0  0  0  0
   11.2310   -9.8319   -7.6506 C   0  0  0  0  0  0  0  0  0  0  0  0
   12.7039   -8.9281   -7.0795 S   0  0  0  0  0  0  0  0  0  0  0  0
   13.6447   -8.4024   -8.5654 C   0  0  0  0  0  0  0  0  0  0  0  0
   14.8720   -7.6649   -8.1419 C   0  0  0  0  0  0  0  0  0  0  0  0
   15.7000   -7.1368   -9.3034 C   0  0  2  0  0  0  0  0  0  0  0  0
   16.6893   -8.0736   -9.7861 N   0  0  0  0  0  0  0  0  0  0  0  0
   16.3501   -5.8870   -8.8674 C   0  0  0  0  0  0  0  0  0  0  0  0
   17.5377   -5.8072   -8.4933 O   0  0  0  0  0  0  0  0  0  0  0  0
   17.6342   -2.1999  -10.6381 O   0  0  0  0  0  0  0  0  0  0  0  0
   16.9736   -3.4063  -10.4453 C   0  0  0  0  0  0  0  0  0  0  0  0
   16.2179   -3.3994   -9.1188 C   0  0  2  0  0  0  0  0  0  0  0  0
   15.5926   -4.6635   -8.8620 N   0  0  0  0  0  0  0  0  0  0  0  0
   15.2641   -2.2820   -9.1095 C   0  0  0  0  0  0  0  0  0  0  0  0
   15.5709   -1.0652   -8.5486 O   0  0  0  0  0  0  0  0  0  0  0  0
   14.1214   -2.4113   -9.6234 O   0  0  0  0  0  0  0  0  0  0  0  0
  2  3  1  0
  2  1  1  0
  3  4  1  6
  3  5  1  0
  5  6  2  0
  7  8  1  0
  9  8  1  0
 11 10  1  1
 10  9  1  0
 11 13  1  0
 12  5  1  0
 12 11  1  0
 13 14  2  0
 15 16  1  0
 17 16  1  6
 17 19  1  0
 18 17  1  0
 18 13  1  0
 19 20  1  0
 21 19  2  0
M  END
$$$$
