SMS.pdb
     RDKit          3D

 21 20  0  0  1  0  0  0  0  0999 V2000
   26.7842  -18.3897  -16.3659 O   0  0  0  0  0  0  0  0  0  0  0  0
   27.9404  -18.6543  -15.6776 C   0  0  0  0  0  0  0  0  0  0  0  0
   28.2016  -20.1218  -15.4469 C   0  0  2  0  0  0  0  0  0  0  0  0
   28.3264  -20.7372  -16.7478 N   0  0  0  0  0  0  0  0  0  0  0  0
   27.1331  -20.7675  -14.6465 C   0  0  0  0  0  0  0  0  0  0  0  0
   26.3503  -21.5404  -15.2247 O   0  0  0  0  0  0  0  0  0  0  0  0
   25.6018  -19.2808   -8.1318 C   0  0  0  0  0  0  0  0  0  0  0  0
   25.5512  -21.0922   -8.3006 S   0  0  0  0  0  0  0  0  0  0  0  0
   25.1747  -21.4771  -10.0555 C   0  0  0  0  0  0  0  0  0  0  0  0
   26.2053  -20.8491  -10.9346 C   0  0  0  0  0  0  0  0  0  0  0  0
   25.9586  -21.0680  -12.4195 C   0  0  2  0  0  0  0  0  0  0  0  0
   26.9945  -20.5234  -13.2679 N   0  0  0  0  0  0  0  0  0  0  0  0
   24.6543  -20.4686  -12.7572 C   0  0  0  0  0  0  0  0  0  0  0  0
   24.4295  -19.2414  -12.7754 O   0  0  0  0  0  0  0  0  0  0  0  0
   21.4921  -22.9925  -13.9954 O   0  0  0  0  0  0  0  0  0  0  0  0
   21.5475  -21.6835  -14.4560 C   0  0  0  0  0  0  0  0  0  0  0  0
   22.2700  -20.7900  -13.4507 C   0  0  2  0  0  0  0  0  0  0  0  0
   23.5495  -21.3278  -13.0922 N   0  0  0  0  0  0  0  0  0  0  0  0
   21.4014  -20.5678  -12.2869 C   0  0  0  0  0  0  0  0  0  0  0  0
   20.1781  -19.9505  -12.3965 O   0  0  0  0  0  0  0  0  0  0  0  0
   21.7602  -20.9429  -11.1393 O   0  0  0  0  0  0  0  0  0  0  0  0
  2  3  1  0
  2  1  1  0
  3  4  1  6
  3  5  1  0
  5  6  2  0
  7  8  1  0
  9  8  1  0
 11 10  1  1
 10  9  1  0
 11 13  1  0
 12  5  1  0
 12 11  1  0
 13 14  2  0
 15 16  1  0
 17 16  1  6
 17 19  1  0
 18 17  1  0
 18 13  1  0
 19 20  1  0
 21 19  2  0
M  END
$$$$
