SMS.pdb
     RDKit          3D

 21 20  0  0  1  0  0  0  0  0999 V2000
   17.2501  -13.0431  -18.0038 O   0  0  0  0  0  0  0  0  0  0  0  0
   17.9630  -12.1662  -17.2269 C   0  0  0  0  0  0  0  0  0  0  0  0
   19.4235  -12.5140  -17.0817 C   0  0  2  0  0  0  0  0  0  0  0  0
   19.4862  -13.8366  -16.5042 N   0  0  0  0  0  0  0  0  0  0  0  0
   20.1597  -11.5293  -16.2525 C   0  0  0  0  0  0  0  0  0  0  0  0
   19.9711  -11.5365  -15.0241 O   0  0  0  0  0  0  0  0  0  0  0  0
   26.1171  -10.8505  -14.6293 C   0  0  0  0  0  0  0  0  0  0  0  0
   25.8661   -9.2297  -15.4182 S   0  0  0  0  0  0  0  0  0  0  0  0
   24.0760   -8.8351  -15.3212 C   0  0  0  0  0  0  0  0  0  0  0  0
   23.3080   -9.7975  -16.1657 C   0  0  0  0  0  0  0  0  0  0  0  0
   21.8010   -9.6027  -16.0992 C   0  0  2  0  0  0  0  0  0  0  0  0
   21.0522  -10.6042  -16.8242 N   0  0  0  0  0  0  0  0  0  0  0  0
   21.4927   -8.2580  -16.6204 C   0  0  0  0  0  0  0  0  0  0  0  0
   21.7463   -7.8804  -17.7822 O   0  0  0  0  0  0  0  0  0  0  0  0
   19.0192   -5.6553  -14.3685 O   0  0  0  0  0  0  0  0  0  0  0  0
   19.0880   -5.6052  -15.7547 C   0  0  0  0  0  0  0  0  0  0  0  0
   20.4812   -5.9997  -16.2385 C   0  0  2  0  0  0  0  0  0  0  0  0
   20.8583   -7.2964  -15.7579 N   0  0  0  0  0  0  0  0  0  0  0  0
   21.4406   -4.9532  -15.8605 C   0  0  0  0  0  0  0  0  0  0  0  0
   22.5144   -5.2088  -15.0413 O   0  0  0  0  0  0  0  0  0  0  0  0
   21.3025   -3.7749  -16.2837 O   0  0  0  0  0  0  0  0  0  0  0  0
  2  3  1  0
  2  1  1  0
  3  4  1  1
  3  5  1  0
  5  6  2  0
  7  8  1  0
  9  8  1  0
 11 10  1  6
 10  9  1  0
 11 13  1  0
 12  5  1  0
 12 11  1  0
 13 14  2  0
 15 16  1  0
 17 16  1  1
 17 19  1  0
 18 17  1  0
 18 13  1  0
 19 20  1  0
 21 19  2  0
M  END
$$$$
