SMS.pdb
     RDKit          3D

 21 20  0  0  1  0  0  0  0  0999 V2000
   18.6513   -9.0452  -21.2918 O   0  0  0  0  0  0  0  0  0  0  0  0
   18.1718   -8.7243  -20.0477 C   0  0  0  0  0  0  0  0  0  0  0  0
   18.2472   -9.8494  -19.0459 C   0  0  2  0  0  0  0  0  0  0  0  0
   17.0228  -10.6059  -19.1690 N   0  0  0  0  0  0  0  0  0  0  0  0
   18.4403   -9.3602  -17.6593 C   0  0  0  0  0  0  0  0  0  0  0  0
   17.4364   -9.2169  -16.9407 O   0  0  0  0  0  0  0  0  0  0  0  0
   22.7991   -9.7062  -11.2195 C   0  0  0  0  0  0  0  0  0  0  0  0
   22.6186  -10.1521  -12.9747 S   0  0  0  0  0  0  0  0  0  0  0  0
   21.2938   -9.0972  -13.6832 C   0  0  0  0  0  0  0  0  0  0  0  0
   21.0900   -9.4519  -15.1191 C   0  0  0  0  0  0  0  0  0  0  0  0
   20.0079   -8.6315  -15.8044 C   0  0  2  0  0  0  0  0  0  0  0  0
   19.7187   -9.0613  -17.1538 N   0  0  0  0  0  0  0  0  0  0  0  0
   20.4349   -7.2200  -15.7986 C   0  0  0  0  0  0  0  0  0  0  0  0
   21.2847   -6.7406  -16.5762 O   0  0  0  0  0  0  0  0  0  0  0  0
   19.3631   -2.7054  -14.4559 O   0  0  0  0  0  0  0  0  0  0  0  0
   19.0159   -4.0497  -14.4233 C   0  0  0  0  0  0  0  0  0  0  0  0
   20.2000   -4.9209  -14.8352 C   0  0  2  0  0  0  0  0  0  0  0  0
   19.8522   -6.3115  -14.8466 N   0  0  0  0  0  0  0  0  0  0  0  0
   21.3443   -4.6292  -13.9612 C   0  0  0  0  0  0  0  0  0  0  0  0
   22.2503   -3.6371  -14.2517 O   0  0  0  0  0  0  0  0  0  0  0  0
   21.5287   -5.2910  -12.9054 O   0  0  0  0  0  0  0  0  0  0  0  0
  2  3  1  0
  2  1  1  0
  3  4  1  1
  3  5  1  0
  5  6  2  0
  7  8  1  0
  9  8  1  0
 11 10  1  6
 10  9  1  0
 11 13  1  0
 12  5  1  0
 12 11  1  0
 13 14  2  0
 15 16  1  0
 17 16  1  1
 17 19  1  0
 18 17  1  0
 18 13  1  0
 19 20  1  0
 21 19  2  0
M  END
$$$$
