SMS.pdb
     RDKit          3D

 21 20  0  0  1  0  0  0  0  0999 V2000
   20.0165  -13.1472  -17.4192 O   0  0  0  0  0  0  0  0  0  0  0  0
   21.1440  -12.8960  -18.1583 C   0  0  0  0  0  0  0  0  0  0  0  0
   21.3287  -11.4467  -18.5330 C   0  0  2  0  0  0  0  0  0  0  0  0
   22.2590  -11.4123  -19.6375 N   0  0  0  0  0  0  0  0  0  0  0  0
   21.8122  -10.6258  -17.3965 C   0  0  0  0  0  0  0  0  0  0  0  0
   21.0882  -10.5281  -16.3911 O   0  0  0  0  0  0  0  0  0  0  0  0
   27.7677  -12.4406  -14.9995 C   0  0  0  0  0  0  0  0  0  0  0  0
   27.3398  -10.7817  -15.6135 S   0  0  0  0  0  0  0  0  0  0  0  0
   25.5090  -10.6720  -15.6900 C   0  0  0  0  0  0  0  0  0  0  0  0
   25.1122   -9.3264  -16.2010 C   0  0  0  0  0  0  0  0  0  0  0  0
   23.6110   -9.1574  -16.3780 C   0  0  2  0  0  0  0  0  0  0  0  0
   23.0552   -9.9680  -17.4378 N   0  0  0  0  0  0  0  0  0  0  0  0
   23.3407   -7.7300  -16.6317 C   0  0  0  0  0  0  0  0  0  0  0  0
   23.4963   -7.1718  -17.7367 O   0  0  0  0  0  0  0  0  0  0  0  0
   20.9115   -3.8417  -15.0917 O   0  0  0  0  0  0  0  0  0  0  0  0
   21.2570   -5.1738  -14.9046 C   0  0  0  0  0  0  0  0  0  0  0  0
   22.4450   -5.5500  -15.7866 C   0  0  2  0  0  0  0  0  0  0  0  0
   22.8658   -6.9007  -15.5558 N   0  0  0  0  0  0  0  0  0  0  0  0
   23.5265   -4.5763  -15.5852 C   0  0  0  0  0  0  0  0  0  0  0  0
   23.6801   -3.4778  -16.3971 O   0  0  0  0  0  0  0  0  0  0  0  0
   24.3551   -4.7244  -14.6482 O   0  0  0  0  0  0  0  0  0  0  0  0
  2  3  1  0
  2  1  1  0
  3  4  1  6
  3  5  1  0
  5  6  2  0
  7  8  1  0
  9  8  1  0
 11 10  1  6
 10  9  1  0
 11 13  1  0
 12  5  1  0
 12 11  1  0
 13 14  2  0
 15 16  1  0
 17 16  1  1
 17 19  1  0
 18 17  1  0
 18 13  1  0
 19 20  1  0
 21 19  2  0
M  END
$$$$
