SMS.pdb
     RDKit          3D

 21 20  0  0  1  0  0  0  0  0999 V2000
   17.8720  -11.8249  -13.7889 O   0  0  0  0  0  0  0  0  0  0  0  0
   17.5365  -11.4530  -15.0655 C   0  0  0  0  0  0  0  0  0  0  0  0
   18.4972  -10.4781  -15.6991 C   0  0  2  0  0  0  0  0  0  0  0  0
   19.8119  -11.0716  -15.6220 N   0  0  0  0  0  0  0  0  0  0  0  0
   18.4680   -9.1482  -15.0436 C   0  0  0  0  0  0  0  0  0  0  0  0
   19.5482   -8.6349  -14.7055 O   0  0  0  0  0  0  0  0  0  0  0  0
   13.8681   -3.6220  -15.4240 C   0  0  0  0  0  0  0  0  0  0  0  0
   15.5800   -3.7052  -16.0362 S   0  0  0  0  0  0  0  0  0  0  0  0
   16.5418   -4.7353  -14.8600 C   0  0  0  0  0  0  0  0  0  0  0  0
   16.4255   -6.1726  -15.2473 C   0  0  0  0  0  0  0  0  0  0  0  0
   17.1388   -7.1221  -14.2969 C   0  0  2  0  0  0  0  0  0  0  0  0
   17.2587   -8.4707  -14.8030 N   0  0  0  0  0  0  0  0  0  0  0  0
   16.4061   -7.1202  -13.0170 C   0  0  0  0  0  0  0  0  0  0  0  0
   15.3234   -7.7105  -12.8273 O   0  0  0  0  0  0  0  0  0  0  0  0
   18.0486   -6.6828   -9.1344 O   0  0  0  0  0  0  0  0  0  0  0  0
   17.1147   -5.7398   -9.5437 C   0  0  0  0  0  0  0  0  0  0  0  0
   16.2344   -6.3029  -10.6567 C   0  0  2  0  0  0  0  0  0  0  0  0
   16.9491   -6.4004  -11.8954 N   0  0  0  0  0  0  0  0  0  0  0  0
   15.0144   -5.4920  -10.7676 C   0  0  0  0  0  0  0  0  0  0  0  0
   13.8998   -5.7420  -10.0030 O   0  0  0  0  0  0  0  0  0  0  0  0
   14.9562   -4.5306  -11.5793 O   0  0  0  0  0  0  0  0  0  0  0  0
  2  3  1  0
  2  1  1  0
  3  4  1  1
  3  5  1  0
  5  6  2  0
  7  8  1  0
  9  8  1  0
 11 10  1  6
 10  9  1  0
 11 13  1  0
 12  5  1  0
 12 11  1  0
 13 14  2  0
 15 16  1  0
 17 16  1  1
 17 19  1  0
 18 17  1  0
 18 13  1  0
 19 20  1  0
 21 19  2  0
M  END
$$$$
