SMS.pdb
     RDKit          3D

 21 20  0  0  1  0  0  0  0  0999 V2000
   20.3778   -8.8476  -21.8722 O   0  0  0  0  0  0  0  0  0  0  0  0
   19.8426   -9.3869  -20.7306 C   0  0  0  0  0  0  0  0  0  0  0  0
   20.8271  -10.1632  -19.8920 C   0  0  2  0  0  0  0  0  0  0  0  0
   20.5504  -11.5646  -20.1067 N   0  0  0  0  0  0  0  0  0  0  0  0
   20.7448   -9.8127  -18.4534 C   0  0  0  0  0  0  0  0  0  0  0  0
   19.7277  -10.1484  -17.8232 O   0  0  0  0  0  0  0  0  0  0  0  0
   21.5355   -9.2438  -11.5914 C   0  0  0  0  0  0  0  0  0  0  0  0
   21.5350   -9.7165  -13.3490 S   0  0  0  0  0  0  0  0  0  0  0  0
   22.8994   -8.8041  -14.1708 C   0  0  0  0  0  0  0  0  0  0  0  0
   22.9543   -9.1848  -15.6135 C   0  0  0  0  0  0  0  0  0  0  0  0
   21.7660   -8.6886  -16.4229 C   0  0  2  0  0  0  0  0  0  0  0  0
   21.7814   -9.1188  -17.8028 N   0  0  0  0  0  0  0  0  0  0  0  0
   21.7472   -7.2159  -16.3474 C   0  0  0  0  0  0  0  0  0  0  0  0
   22.6255   -6.4769  -16.8363 O   0  0  0  0  0  0  0  0  0  0  0  0
   19.2889   -3.2636  -14.8599 O   0  0  0  0  0  0  0  0  0  0  0  0
   19.2836   -4.6440  -15.0125 C   0  0  0  0  0  0  0  0  0  0  0  0
   20.6487   -5.1378  -15.4852 C   0  0  2  0  0  0  0  0  0  0  0  0
   20.6588   -6.5588  -15.6731 N   0  0  0  0  0  0  0  0  0  0  0  0
   21.6818   -4.6821  -14.5453 C   0  0  0  0  0  0  0  0  0  0  0  0
   22.5072   -3.6196  -14.8268 O   0  0  0  0  0  0  0  0  0  0  0  0
   21.8413   -5.2622  -13.4387 O   0  0  0  0  0  0  0  0  0  0  0  0
  2  3  1  0
  2  1  1  0
  3  4  1  1
  3  5  1  0
  5  6  2  0
  7  8  1  0
  9  8  1  0
 11 10  1  1
 10  9  1  0
 11 13  1  0
 12  5  1  0
 12 11  1  0
 13 14  2  0
 15 16  1  0
 17 16  1  1
 17 19  1  0
 18 17  1  0
 18 13  1  0
 19 20  1  0
 21 19  2  0
M  END
$$$$
