SMS.pdb
     RDKit          3D

 21 20  0  0  1  0  0  0  0  0999 V2000
   20.5602  -12.2731  -20.1017 O   0  0  0  0  0  0  0  0  0  0  0  0
   20.9136  -11.4861  -19.0357 C   0  0  0  0  0  0  0  0  0  0  0  0
   22.2395  -11.8459  -18.4132 C   0  0  2  0  0  0  0  0  0  0  0  0
   22.1166  -13.1943  -17.9097 N   0  0  0  0  0  0  0  0  0  0  0  0
   22.6338  -10.9039  -17.3379 C   0  0  0  0  0  0  0  0  0  0  0  0
   21.9898  -10.9212  -16.2751 O   0  0  0  0  0  0  0  0  0  0  0  0
   27.4136  -12.3833  -15.0044 C   0  0  0  0  0  0  0  0  0  0  0  0
   26.4596  -11.4009  -16.2033 S   0  0  0  0  0  0  0  0  0  0  0  0
   26.4902   -9.6539  -15.6404 C   0  0  0  0  0  0  0  0  0  0  0  0
   25.6805   -8.8162  -16.5742 C   0  0  0  0  0  0  0  0  0  0  0  0
   24.1852   -9.0836  -16.4959 C   0  0  2  0  0  0  0  0  0  0  0  0
   23.7060  -10.0074  -17.4991 N   0  0  0  0  0  0  0  0  0  0  0  0
   23.4851   -7.7912  -16.6159 C   0  0  0  0  0  0  0  0  0  0  0  0
   23.4004   -7.1344  -17.6734 O   0  0  0  0  0  0  0  0  0  0  0  0
   21.3575   -6.2149  -13.2648 O   0  0  0  0  0  0  0  0  0  0  0  0
   20.9046   -6.0321  -14.5649 C   0  0  0  0  0  0  0  0  0  0  0  0
   22.0749   -6.0209  -15.5453 C   0  0  2  0  0  0  0  0  0  0  0  0
   22.8483   -7.2246  -15.4565 N   0  0  0  0  0  0  0  0  0  0  0  0
   22.8799   -4.8116  -15.3261 C   0  0  0  0  0  0  0  0  0  0  0  0
   22.3731   -3.5504  -15.5312 O   0  0  0  0  0  0  0  0  0  0  0  0
   24.0750   -4.8995  -14.9383 O   0  0  0  0  0  0  0  0  0  0  0  0
  2  3  1  0
  2  1  1  0
  3  4  1  1
  3  5  1  0
  5  6  2  0
  7  8  1  0
  9  8  1  0
 11 10  1  6
 10  9  1  0
 11 13  1  0
 12  5  1  0
 12 11  1  0
 13 14  2  0
 15 16  1  0
 17 16  1  1
 17 19  1  0
 18 17  1  0
 18 13  1  0
 19 20  1  0
 21 19  2  0
M  END
$$$$
