SMS.pdb
     RDKit          3D

 21 20  0  0  1  0  0  0  0  0999 V2000
   19.7645   -9.4680  -19.8686 O   0  0  0  0  0  0  0  0  0  0  0  0
   19.6762  -10.8315  -19.7507 C   0  0  0  0  0  0  0  0  0  0  0  0
   20.9499  -11.4972  -19.2928 C   0  0  2  0  0  0  0  0  0  0  0  0
   20.6742  -12.9118  -19.1948 N   0  0  0  0  0  0  0  0  0  0  0  0
   21.4400  -10.9539  -18.0029 C   0  0  0  0  0  0  0  0  0  0  0  0
   20.9995  -11.4478  -16.9510 O   0  0  0  0  0  0  0  0  0  0  0  0
   26.5910  -11.4276  -15.0219 C   0  0  0  0  0  0  0  0  0  0  0  0
   26.5934   -9.6102  -14.9253 S   0  0  0  0  0  0  0  0  0  0  0  0
   24.8718   -9.0363  -15.2019 C   0  0  0  0  0  0  0  0  0  0  0  0
   24.3635   -9.5913  -16.4914 C   0  0  0  0  0  0  0  0  0  0  0  0
   22.8927   -9.2988  -16.7461 C   0  0  2  0  0  0  0  0  0  0  0  0
   22.3788   -9.9074  -17.9523 N   0  0  0  0  0  0  0  0  0  0  0  0
   22.7228   -7.8349  -16.8003 C   0  0  0  0  0  0  0  0  0  0  0  0
   23.1107   -7.1179  -17.7448 O   0  0  0  0  0  0  0  0  0  0  0  0
   19.6078   -5.8321  -16.2987 O   0  0  0  0  0  0  0  0  0  0  0  0
   20.4960   -5.3182  -15.3628 C   0  0  0  0  0  0  0  0  0  0  0  0
   21.9270   -5.7343  -15.6946 C   0  0  2  0  0  0  0  0  0  0  0  0
   22.0711   -7.1604  -15.7089 N   0  0  0  0  0  0  0  0  0  0  0  0
   22.8518   -5.0796  -14.7594 C   0  0  0  0  0  0  0  0  0  0  0  0
   23.0249   -3.7161  -14.7385 O   0  0  0  0  0  0  0  0  0  0  0  0
   23.5217   -5.7612  -13.9389 O   0  0  0  0  0  0  0  0  0  0  0  0
  2  3  1  0
  2  1  1  0
  3  4  1  1
  3  5  1  0
  5  6  2  0
  7  8  1  0
  9  8  1  0
 11 10  1  6
 10  9  1  0
 11 13  1  0
 12  5  1  0
 12 11  1  0
 13 14  2  0
 15 16  1  0
 17 16  1  1
 17 19  1  0
 18 17  1  0
 18 13  1  0
 19 20  1  0
 21 19  2  0
M  END
$$$$
