SMS.pdb
     RDKit          3D

 21 20  0  0  1  0  0  0  0  0999 V2000
   15.9209  -10.4533  -18.1123 O   0  0  0  0  0  0  0  0  0  0  0  0
   16.8386  -10.0091  -17.1951 C   0  0  0  0  0  0  0  0  0  0  0  0
   17.9384  -10.9958  -16.8920 C   0  0  2  0  0  0  0  0  0  0  0  0
   17.3192  -12.1337  -16.2530 N   0  0  0  0  0  0  0  0  0  0  0  0
   19.0022  -10.4126  -16.0389 C   0  0  0  0  0  0  0  0  0  0  0  0
   18.7711  -10.2684  -14.8264 O   0  0  0  0  0  0  0  0  0  0  0  0
   26.7075   -9.8894  -14.7623 C   0  0  0  0  0  0  0  0  0  0  0  0
   25.4012  -10.3470  -15.9441 S   0  0  0  0  0  0  0  0  0  0  0  0
   23.8362   -9.5797  -15.3679 C   0  0  0  0  0  0  0  0  0  0  0  0
   22.7048  -10.0616  -16.2145 C   0  0  0  0  0  0  0  0  0  0  0  0
   21.3534   -9.4908  -15.8126 C   0  0  2  0  0  0  0  0  0  0  0  0
   20.2462  -10.0273  -16.5712 N   0  0  0  0  0  0  0  0  0  0  0  0
   21.4148   -8.0253  -15.9657 C   0  0  0  0  0  0  0  0  0  0  0  0
   21.4753   -7.4364  -17.0640 O   0  0  0  0  0  0  0  0  0  0  0  0
   20.4612   -3.7734  -13.8919 O   0  0  0  0  0  0  0  0  0  0  0  0
   20.4916   -5.1576  -13.7841 C   0  0  0  0  0  0  0  0  0  0  0  0
   21.3490   -5.7644  -14.8920 C   0  0  2  0  0  0  0  0  0  0  0  0
   21.4058   -7.1933  -14.7916 N   0  0  0  0  0  0  0  0  0  0  0  0
   22.6791   -5.1408  -14.8730 C   0  0  0  0  0  0  0  0  0  0  0  0
   22.9876   -4.0556  -15.6583 O   0  0  0  0  0  0  0  0  0  0  0  0
   23.5867   -5.5909  -14.1246 O   0  0  0  0  0  0  0  0  0  0  0  0
  2  3  1  0
  2  1  1  0
  3  4  1  1
  3  5  1  0
  5  6  2  0
  7  8  1  0
  9  8  1  0
 11 10  1  6
 10  9  1  0
 11 13  1  0
 12  5  1  0
 12 11  1  0
 13 14  2  0
 15 16  1  0
 17 16  1  1
 17 19  1  0
 18 17  1  0
 18 13  1  0
 19 20  1  0
 21 19  2  0
M  END
$$$$
