RWC.pdb
     RDKit          3D

 32 33  0  0  1  0  0  0  0  0999 V2000
   22.6891  -25.7317  -13.9505 N   0  0  0  0  0  0  0  0  0  0  0  0
   23.8329  -25.3912  -14.7434 C   0  0  0  0  0  0  0  0  0  0  0  0
   24.2147  -26.2381  -15.6325 N   0  0  0  0  0  0  0  0  0  0  0  0
   24.5259  -24.1644  -14.5606 N   0  0  0  0  0  0  0  0  0  0  0  0
   24.0930  -23.2211  -13.5474 C   0  0  0  0  0  0  0  0  0  0  0  0
   23.3568  -22.0782  -14.1845 C   0  0  0  0  0  0  0  0  0  0  0  0
   22.9241  -21.0490  -13.2010 C   0  0  0  0  0  0  0  0  0  0  0  0
   23.2033  -21.4421  -11.7988 C   0  0  2  0  0  0  0  0  0  0  0  0
   22.1428  -21.2498  -10.8792 N   0  0  0  0  0  0  0  0  0  0  0  0
   24.4588  -20.7210  -11.3861 C   0  0  0  0  0  0  0  0  0  0  0  0
   24.3663  -19.4459  -11.4652 O   0  0  0  0  0  0  0  0  0  0  0  0
   25.0026  -26.0792  -16.2653 N   0  0  0  0  0  0  0  0  0  0  0  0
   25.6293  -21.3563  -10.9533 C   0  0  2  0  0  0  0  0  0  0  0  0
   26.9002  -20.6358  -10.8331 C   0  0  0  0  0  0  0  0  0  0  0  0
   27.6765  -21.1286   -9.6649 C   0  0  0  0  0  0  0  0  0  0  0  0
   27.2571  -20.5071   -8.4052 C   0  0  0  0  0  0  0  0  0  0  0  0
   25.9942  -19.9677   -8.1160 N   0  0  0  0  0  0  0  0  0  0  0  0
   25.9485  -19.4434   -6.9054 C   0  0  0  0  0  0  0  0  0  0  0  0
   27.1562  -19.6173   -6.3663 C   0  0  0  0  0  0  0  0  0  0  0  0
   27.6074  -19.2617   -5.1102 C   0  0  0  0  0  0  0  0  0  0  0  0
   28.9040  -19.5731   -4.7697 C   0  0  0  0  0  0  0  0  0  0  0  0
   29.7580  -20.2181   -5.6238 C   0  0  0  0  0  0  0  0  0  0  0  0
   29.2994  -20.5670   -6.8722 C   0  0  0  0  0  0  0  0  0  0  0  0
   27.9936  -20.2634   -7.2425 C   0  0  0  0  0  0  0  0  0  0  0  0
   27.6617  -20.6673  -12.0624 O   0  0  0  0  0  0  0  0  0  0  0  0
   28.6388  -21.4519  -12.2381 N   0  0  0  0  0  0  0  0  0  0  0  0
   27.3985  -19.8277  -13.1996 C   0  0  1  0  0  0  0  0  0  0  0  0
   28.0779  -19.9550  -14.4481 C   0  0  0  0  0  0  0  0  0  0  0  0
   28.0295  -21.3449  -15.0280 S   0  0  0  0  0  0  0  0  0  0  0  0
   29.5585  -22.2612  -14.8475 C   0  0  0  0  0  0  0  0  0  0  0  0
   27.6089  -18.9807  -15.4347 O   0  0  0  0  0  0  0  0  0  0  0  0
   28.2164  -18.8488  -16.6874 O   0  0  0  0  0  0  0  0  0  0  0  0
  2  1  1  0
  2  3  2  0
  4  2  1  0
  5  4  1  0
  6  5  1  0
  7  6  1  0
  8  7  1  0
  8  9  1  1
 10  8  1  0
 10 11  2  0
 12 10  1  0
 13 12  1  0
 13 14  1  1
 14 15  1  0
 15 16  2  0
 16 17  1  0
 18 17  1  0
 19 18  2  0
 20 19  1  0
 21 22  1  0
 21 20  2  0
 22 23  2  0
 23 15  1  0
 23 18  1  0
 24 13  1  0
 25 24  2  0
 26 24  1  0
 27 28  1  1
 27 26  1  0
 28 29  1  0
 30 27  1  0
 31 30  1  0
 32 30  2  0
M  END
$$$$
