RWC.pdb
     RDKit          3D

 32 33  0  0  1  0  0  0  0  0999 V2000
   26.1449  -22.1199  -15.9661 N   0  0  0  0  0  0  0  0  0  0  0  0
   27.2070  -21.3221  -16.5031 C   0  0  0  0  0  0  0  0  0  0  0  0
   27.0365  -20.8118  -17.6711 N   0  0  0  0  0  0  0  0  0  0  0  0
   28.4081  -21.0978  -15.7782 N   0  0  0  0  0  0  0  0  0  0  0  0
   28.6704  -21.8236  -14.5501 C   0  0  0  0  0  0  0  0  0  0  0  0
   28.6993  -20.8769  -13.3851 C   0  0  0  0  0  0  0  0  0  0  0  0
   28.0354  -21.4300  -12.1739 C   0  0  0  0  0  0  0  0  0  0  0  0
   26.5589  -21.3013  -12.2197 C   0  0  2  0  0  0  0  0  0  0  0  0
   26.0589  -20.1200  -12.8211 N   0  0  0  0  0  0  0  0  0  0  0  0
   26.0620  -21.4825  -10.8101 C   0  0  0  0  0  0  0  0  0  0  0  0
   26.5580  -22.5054  -10.2200 O   0  0  0  0  0  0  0  0  0  0  0  0
   27.7594  -20.2900  -18.1726 N   0  0  0  0  0  0  0  0  0  0  0  0
   25.1465  -20.6312  -10.1791 C   0  0  1  0  0  0  0  0  0  0  0  0
   24.5977  -20.9329   -8.8538 C   0  0  0  0  0  0  0  0  0  0  0  0
   24.7995  -19.7881   -7.9271 C   0  0  0  0  0  0  0  0  0  0  0  0
   26.2069  -19.5960   -7.5648 C   0  0  0  0  0  0  0  0  0  0  0  0
   27.2336  -19.1359   -8.4038 N   0  0  0  0  0  0  0  0  0  0  0  0
   28.4005  -19.1144   -7.7872 C   0  0  0  0  0  0  0  0  0  0  0  0
   28.1860  -19.5502   -6.5449 C   0  0  0  0  0  0  0  0  0  0  0  0
   29.0847  -19.6919   -5.5056 C   0  0  0  0  0  0  0  0  0  0  0  0
   28.6150  -20.1428   -4.2931 C   0  0  0  0  0  0  0  0  0  0  0  0
   27.2988  -20.4543   -4.0798 C   0  0  0  0  0  0  0  0  0  0  0  0
   26.4124  -20.3107   -5.1211 C   0  0  0  0  0  0  0  0  0  0  0  0
   26.8607  -19.8577   -6.3574 C   0  0  0  0  0  0  0  0  0  0  0  0
   23.2173  -21.3596   -8.9210 O   0  0  0  0  0  0  0  0  0  0  0  0
   22.5177  -21.2393   -9.9686 N   0  0  0  0  0  0  0  0  0  0  0  0
   22.5002  -21.9567   -7.8271 C   0  0  2  0  0  0  0  0  0  0  0  0
   21.1633  -22.4446   -7.9331 C   0  0  0  0  0  0  0  0  0  0  0  0
   20.6665  -23.1328   -6.6881 S   0  0  0  0  0  0  0  0  0  0  0  0
   21.3028  -22.4315   -5.1671 C   0  0  0  0  0  0  0  0  0  0  0  0
   20.2236  -21.3986   -8.3397 O   0  0  0  0  0  0  0  0  0  0  0  0
   18.9050  -21.6918   -8.7016 O   0  0  0  0  0  0  0  0  0  0  0  0
  2  1  1  0
  2  3  2  0
  4  2  1  0
  5  4  1  0
  6  5  1  0
  7  6  1  0
  8  7  1  0
  8  9  1  1
 10  8  1  0
 10 11  2  0
 12 10  1  0
 13 12  1  0
 13 14  1  1
 14 15  1  0
 15 16  2  0
 16 17  1  0
 18 17  1  0
 19 18  2  0
 20 19  1  0
 21 22  1  0
 21 20  2  0
 22 23  2  0
 23 15  1  0
 23 18  1  0
 24 13  1  0
 25 24  2  0
 26 24  1  0
 27 28  1  1
 27 26  1  0
 28 29  1  0
 30 27  1  0
 31 30  1  0
 32 30  2  0
M  END
$$$$
