RWC.pdb
     RDKit          3D

 32 33  0  0  1  0  0  0  0  0999 V2000
   26.9933  -24.5317  -18.0568 N   0  0  0  0  0  0  0  0  0  0  0  0
   26.8703  -24.7171  -16.6414 C   0  0  0  0  0  0  0  0  0  0  0  0
   26.4159  -25.8460  -16.2258 N   0  0  0  0  0  0  0  0  0  0  0  0
   27.2349  -23.6960  -15.7233 N   0  0  0  0  0  0  0  0  0  0  0  0
   27.7282  -22.4193  -16.2037 C   0  0  0  0  0  0  0  0  0  0  0  0
   28.2014  -21.5804  -15.0520 C   0  0  0  0  0  0  0  0  0  0  0  0
   27.5506  -21.9455  -13.7648 C   0  0  0  0  0  0  0  0  0  0  0  0
   26.5305  -20.9580  -13.3372 C   0  0  2  0  0  0  0  0  0  0  0  0
   26.8543  -19.5970  -13.5610 N   0  0  0  0  0  0  0  0  0  0  0  0
   26.2255  -21.2452  -11.8911 C   0  0  0  0  0  0  0  0  0  0  0  0
   26.1523  -22.4954  -11.6220 O   0  0  0  0  0  0  0  0  0  0  0  0
   26.3009  -26.0814  -15.2370 N   0  0  0  0  0  0  0  0  0  0  0  0
   26.0354  -20.2615  -10.9128 C   0  0  1  0  0  0  0  0  0  0  0  0
   25.6193  -20.5990   -9.5484 C   0  0  0  0  0  0  0  0  0  0  0  0
   26.1406  -19.6016   -8.5769 C   0  0  0  0  0  0  0  0  0  0  0  0
   27.4818  -19.9361   -8.0889 C   0  0  0  0  0  0  0  0  0  0  0  0
   28.4944  -20.5943   -8.8038 N   0  0  0  0  0  0  0  0  0  0  0  0
   29.5733  -20.7836   -8.0673 C   0  0  0  0  0  0  0  0  0  0  0  0
   29.3133  -20.2657   -6.8658 C   0  0  0  0  0  0  0  0  0  0  0  0
   30.1295  -20.1960   -5.7536 C   0  0  0  0  0  0  0  0  0  0  0  0
   29.6404  -19.5838   -4.6222 C   0  0  0  0  0  0  0  0  0  0  0  0
   28.3833  -19.0448   -4.5580 C   0  0  0  0  0  0  0  0  0  0  0  0
   27.5785  -19.1202   -5.6702 C   0  0  0  0  0  0  0  0  0  0  0  0
   28.0475  -19.7344   -6.8267 C   0  0  0  0  0  0  0  0  0  0  0  0
   24.1883  -20.7826   -9.4458 O   0  0  0  0  0  0  0  0  0  0  0  0
   23.3772  -20.2922  -10.2842 N   0  0  0  0  0  0  0  0  0  0  0  0
   23.5405  -21.5284   -8.4011 C   0  0  2  0  0  0  0  0  0  0  0  0
   22.1245  -21.6722   -8.2962 C   0  0  0  0  0  0  0  0  0  0  0  0
   21.6724  -22.3208   -7.0135 S   0  0  0  0  0  0  0  0  0  0  0  0
   19.9006  -22.5653   -6.9081 C   0  0  0  0  0  0  0  0  0  0  0  0
   21.4237  -20.4023   -8.4931 O   0  0  0  0  0  0  0  0  0  0  0  0
   20.2509  -20.3167   -9.2499 O   0  0  0  0  0  0  0  0  0  0  0  0
  2  1  1  0
  2  3  2  0
  4  2  1  0
  5  4  1  0
  6  5  1  0
  7  6  1  0
  8  7  1  0
  8  9  1  1
 10  8  1  0
 10 11  2  0
 12 10  1  0
 13 12  1  0
 13 14  1  1
 14 15  1  0
 15 16  2  0
 16 17  1  0
 18 17  1  0
 19 18  2  0
 20 19  1  0
 21 22  1  0
 21 20  2  0
 22 23  2  0
 23 15  1  0
 23 18  1  0
 24 13  1  0
 25 24  2  0
 26 24  1  0
 27 28  1  1
 27 26  1  0
 28 29  1  0
 30 27  1  0
 31 30  1  0
 32 30  2  0
M  END
$$$$
