RWC.pdb
     RDKit          3D

 32 33  0  0  1  0  0  0  0  0999 V2000
   23.6174  -25.5902  -17.8668 N   0  0  0  0  0  0  0  0  0  0  0  0
   23.7405  -24.4380  -18.7097 C   0  0  0  0  0  0  0  0  0  0  0  0
   22.6578  -23.8448  -19.0693 N   0  0  0  0  0  0  0  0  0  0  0  0
   25.0089  -23.9616  -19.1372 N   0  0  0  0  0  0  0  0  0  0  0  0
   26.2259  -24.6098  -18.6870 C   0  0  0  0  0  0  0  0  0  0  0  0
   27.0525  -23.6538  -17.8764 C   0  0  0  0  0  0  0  0  0  0  0  0
   26.7104  -23.6774  -16.4286 C   0  0  0  0  0  0  0  0  0  0  0  0
   27.4454  -22.6527  -15.6486 C   0  0  2  0  0  0  0  0  0  0  0  0
   28.7984  -22.9520  -15.3537 N   0  0  0  0  0  0  0  0  0  0  0  0
   26.6338  -22.3836  -14.4094 C   0  0  0  0  0  0  0  0  0  0  0  0
   25.9738  -23.4017  -13.9987 O   0  0  0  0  0  0  0  0  0  0  0  0
   22.6395  -22.9915  -19.6333 N   0  0  0  0  0  0  0  0  0  0  0  0
   26.5858  -21.1501  -13.7482 C   0  0  1  0  0  0  0  0  0  0  0  0
   25.6995  -20.9212  -12.6033 C   0  0  0  0  0  0  0  0  0  0  0  0
   26.2511  -19.8660  -11.7131 C   0  0  0  0  0  0  0  0  0  0  0  0
   27.3795  -20.3405  -10.9065 C   0  0  0  0  0  0  0  0  0  0  0  0
   28.5460  -20.9611  -11.3795 N   0  0  0  0  0  0  0  0  0  0  0  0
   29.3529  -21.3081  -10.3942 C   0  0  0  0  0  0  0  0  0  0  0  0
   28.7571  -20.9342   -9.2608 C   0  0  0  0  0  0  0  0  0  0  0  0
   29.2065  -21.0572   -7.9604 C   0  0  0  0  0  0  0  0  0  0  0  0
   28.4147  -20.5672   -6.9469 C   0  0  0  0  0  0  0  0  0  0  0  0
   27.2062  -19.9663   -7.1777 C   0  0  0  0  0  0  0  0  0  0  0  0
   26.7676  -19.8495   -8.4756 C   0  0  0  0  0  0  0  0  0  0  0  0
   27.5476  -20.3371   -9.5189 C   0  0  0  0  0  0  0  0  0  0  0  0
   24.3395  -20.6499  -13.0139 O   0  0  0  0  0  0  0  0  0  0  0  0
   24.0438  -19.7177  -13.8171 N   0  0  0  0  0  0  0  0  0  0  0  0
   23.1943  -21.3943  -12.5648 C   0  0  1  0  0  0  0  0  0  0  0  0
   21.8517  -21.0678  -12.9219 C   0  0  0  0  0  0  0  0  0  0  0  0
   21.0219  -22.2600  -13.3227 S   0  0  0  0  0  0  0  0  0  0  0  0
   21.9862  -23.7197  -13.7092 C   0  0  0  0  0  0  0  0  0  0  0  0
   21.1695  -20.3088  -11.8726 O   0  0  0  0  0  0  0  0  0  0  0  0
   19.8945  -19.7674  -12.0644 O   0  0  0  0  0  0  0  0  0  0  0  0
  2  1  1  0
  2  3  2  0
  4  2  1  0
  5  4  1  0
  6  5  1  0
  7  6  1  0
  8  7  1  0
  8  9  1  1
 10  8  1  0
 10 11  2  0
 12 10  1  0
 13 12  1  0
 13 14  1  6
 14 15  1  0
 15 16  2  0
 16 17  1  0
 18 17  1  0
 19 18  2  0
 20 19  1  0
 21 22  1  0
 21 20  2  0
 22 23  2  0
 23 15  1  0
 23 18  1  0
 24 13  1  0
 25 24  2  0
 26 24  1  0
 27 28  1  1
 27 26  1  0
 28 29  1  0
 30 27  1  0
 31 30  1  0
 32 30  2  0
M  END
$$$$
