RWC.pdb
     RDKit          3D

 32 33  0  0  1  0  0  0  0  0999 V2000
   29.5409  -22.9766  -21.9512 N   0  0  0  0  0  0  0  0  0  0  0  0
   30.4373  -23.0874  -20.8389 C   0  0  0  0  0  0  0  0  0  0  0  0
   31.6727  -23.3386  -21.0925 N   0  0  0  0  0  0  0  0  0  0  0  0
   29.9859  -22.9271  -19.5014 N   0  0  0  0  0  0  0  0  0  0  0  0
   28.8088  -22.1294  -19.2148 C   0  0  0  0  0  0  0  0  0  0  0  0
   29.2008  -20.7048  -18.9488 C   0  0  0  0  0  0  0  0  0  0  0  0
   28.5201  -20.1307  -17.7567 C   0  0  0  0  0  0  0  0  0  0  0  0
   28.2694  -21.1385  -16.6984 C   0  0  2  0  0  0  0  0  0  0  0  0
   27.4318  -22.2220  -17.0612 N   0  0  0  0  0  0  0  0  0  0  0  0
   27.7529  -20.3905  -15.4983 C   0  0  0  0  0  0  0  0  0  0  0  0
   28.5096  -19.4236  -15.1331 O   0  0  0  0  0  0  0  0  0  0  0  0
   32.3870  -23.4564  -20.3697 N   0  0  0  0  0  0  0  0  0  0  0  0
   26.5639  -20.6991  -14.8260 C   0  0  1  0  0  0  0  0  0  0  0  0
   26.1006  -19.9160  -13.6767 C   0  0  0  0  0  0  0  0  0  0  0  0
   24.7884  -19.2805  -13.9670 C   0  0  0  0  0  0  0  0  0  0  0  0
   24.8224  -18.4364  -15.1650 C   0  0  0  0  0  0  0  0  0  0  0  0
   24.1898  -18.6944  -16.3910 N   0  0  0  0  0  0  0  0  0  0  0  0
   24.4498  -17.7591  -17.2854 C   0  0  0  0  0  0  0  0  0  0  0  0
   25.2464  -16.8700  -16.6901 C   0  0  0  0  0  0  0  0  0  0  0  0
   25.7778  -15.7008  -17.1986 C   0  0  0  0  0  0  0  0  0  0  0  0
   26.5611  -14.9265  -16.3733 C   0  0  0  0  0  0  0  0  0  0  0  0
   26.8315  -15.2694  -15.0756 C   0  0  0  0  0  0  0  0  0  0  0  0
   26.2985  -16.4356  -14.5793 C   0  0  0  0  0  0  0  0  0  0  0  0
   25.5041  -17.2374  -15.3921 C   0  0  0  0  0  0  0  0  0  0  0  0
   26.0857  -20.6951  -12.4581 O   0  0  0  0  0  0  0  0  0  0  0  0
   25.7987  -21.9275  -12.4414 N   0  0  0  0  0  0  0  0  0  0  0  0
   26.3897  -20.1671  -11.1558 C   0  0  2  0  0  0  0  0  0  0  0  0
   26.2039  -20.8991   -9.9449 C   0  0  0  0  0  0  0  0  0  0  0  0
   26.9921  -20.3581   -8.7801 S   0  0  0  0  0  0  0  0  0  0  0  0
   26.7402  -18.6094   -8.4819 C   0  0  0  0  0  0  0  0  0  0  0  0
   24.7907  -21.0211   -9.5837 O   0  0  0  0  0  0  0  0  0  0  0  0
   23.7857  -20.3727  -10.3083 O   0  0  0  0  0  0  0  0  0  0  0  0
  2  1  1  0
  2  3  2  0
  4  2  1  0
  5  4  1  0
  6  5  1  0
  7  6  1  0
  8  7  1  0
  8  9  1  6
 10  8  1  0
 10 11  2  0
 12 10  1  0
 13 12  1  0
 13 14  1  1
 14 15  1  0
 15 16  2  0
 16 17  1  0
 18 17  1  0
 19 18  2  0
 20 19  1  0
 21 22  1  0
 21 20  2  0
 22 23  2  0
 23 15  1  0
 23 18  1  0
 24 13  1  0
 25 24  2  0
 26 24  1  0
 27 28  1  6
 27 26  1  0
 28 29  1  0
 30 27  1  0
 31 30  1  0
 32 30  2  0
M  END
$$$$
