RWC.pdb
     RDKit          3D

 32 33  0  0  1  0  0  0  0  0999 V2000
   31.7736  -22.7682  -19.0152 N   0  0  0  0  0  0  0  0  0  0  0  0
   30.8613  -21.6738  -19.1670 C   0  0  0  0  0  0  0  0  0  0  0  0
   30.6000  -21.2777  -20.3621 N   0  0  0  0  0  0  0  0  0  0  0  0
   30.2626  -21.0435  -18.0432 N   0  0  0  0  0  0  0  0  0  0  0  0
   29.3026  -21.7600  -17.2252 C   0  0  0  0  0  0  0  0  0  0  0  0
   27.9414  -21.1419  -17.3630 C   0  0  0  0  0  0  0  0  0  0  0  0
   27.1302  -21.2468  -16.1201 C   0  0  0  0  0  0  0  0  0  0  0  0
   27.4721  -22.4413  -15.3109 C   0  0  2  0  0  0  0  0  0  0  0  0
   27.1845  -23.6947  -15.9054 N   0  0  0  0  0  0  0  0  0  0  0  0
   26.7972  -22.2708  -13.9760 C   0  0  0  0  0  0  0  0  0  0  0  0
   25.6093  -22.7485  -13.9382 O   0  0  0  0  0  0  0  0  0  0  0  0
   29.9524  -20.5157  -20.5778 N   0  0  0  0  0  0  0  0  0  0  0  0
   27.3863  -21.6540  -12.8653 C   0  0  2  0  0  0  0  0  0  0  0  0
   26.6349  -21.4028  -11.6320 C   0  0  0  0  0  0  0  0  0  0  0  0
   27.5371  -20.9154  -10.5557 C   0  0  0  0  0  0  0  0  0  0  0  0
   26.8120  -20.5367   -9.3392 C   0  0  0  0  0  0  0  0  0  0  0  0
   25.4310  -20.3167   -9.2204 N   0  0  0  0  0  0  0  0  0  0  0  0
   25.0951  -19.9464   -7.9987 C   0  0  0  0  0  0  0  0  0  0  0  0
   26.2215  -19.9117   -7.2850 C   0  0  0  0  0  0  0  0  0  0  0  0
   26.3962  -19.6027   -5.9502 C   0  0  0  0  0  0  0  0  0  0  0  0
   27.6679  -19.6611   -5.4274 C   0  0  0  0  0  0  0  0  0  0  0  0
   28.7595  -20.0118   -6.1761 C   0  0  0  0  0  0  0  0  0  0  0  0
   28.5750  -20.3168   -7.5040 C   0  0  0  0  0  0  0  0  0  0  0  0
   27.3003  -20.2647   -8.0581 C   0  0  0  0  0  0  0  0  0  0  0  0
   25.5052  -20.5270  -11.8523 O   0  0  0  0  0  0  0  0  0  0  0  0
   25.6392  -19.3123  -12.1808 N   0  0  0  0  0  0  0  0  0  0  0  0
   24.1310  -20.9306  -11.7257 C   0  0  1  0  0  0  0  0  0  0  0  0
   23.0283  -20.0429  -11.9066 C   0  0  0  0  0  0  0  0  0  0  0  0
   22.8734  -19.5457  -13.3206 S   0  0  0  0  0  0  0  0  0  0  0  0
   23.1106  -20.8116  -14.5661 C   0  0  0  0  0  0  0  0  0  0  0  0
   21.7692  -20.6218  -11.4354 O   0  0  0  0  0  0  0  0  0  0  0  0
   21.6788  -21.9554  -11.0244 O   0  0  0  0  0  0  0  0  0  0  0  0
  2  1  1  0
  2  3  2  0
  4  2  1  0
  5  4  1  0
  6  5  1  0
  7  6  1  0
  8  7  1  0
  8  9  1  6
 10  8  1  0
 10 11  2  0
 12 10  1  0
 13 12  1  0
 13 14  1  1
 14 15  1  0
 15 16  2  0
 16 17  1  0
 18 17  1  0
 19 18  2  0
 20 19  1  0
 21 22  1  0
 21 20  2  0
 22 23  2  0
 23 15  1  0
 23 18  1  0
 24 13  1  0
 25 24  2  0
 26 24  1  0
 27 28  1  1
 27 26  1  0
 28 29  1  0
 30 27  1  0
 31 30  1  0
 32 30  2  0
M  END
$$$$
