RWC.pdb
     RDKit          3D

 32 33  0  0  1  0  0  0  0  0999 V2000
   27.5238  -26.8770  -16.1045 N   0  0  0  0  0  0  0  0  0  0  0  0
   26.4410  -26.1040  -16.6365 C   0  0  0  0  0  0  0  0  0  0  0  0
   25.2449  -26.4742  -16.3438 N   0  0  0  0  0  0  0  0  0  0  0  0
   26.6718  -24.9684  -17.4585 N   0  0  0  0  0  0  0  0  0  0  0  0
   28.0210  -24.4832  -17.6777 C   0  0  0  0  0  0  0  0  0  0  0  0
   28.6141  -24.0002  -16.3857 C   0  0  0  0  0  0  0  0  0  0  0  0
   29.4518  -22.7821  -16.5537 C   0  0  0  0  0  0  0  0  0  0  0  0
   28.6837  -21.6243  -17.0716 C   0  0  2  0  0  0  0  0  0  0  0  0
   29.3906  -20.7468  -17.9304 N   0  0  0  0  0  0  0  0  0  0  0  0
   28.1054  -20.9153  -15.8760 C   0  0  0  0  0  0  0  0  0  0  0  0
   28.9927  -20.4630  -15.0705 O   0  0  0  0  0  0  0  0  0  0  0  0
   24.4058  -26.0538  -16.7510 N   0  0  0  0  0  0  0  0  0  0  0  0
   26.7347  -20.7510  -15.6411 C   0  0  2  0  0  0  0  0  0  0  0  0
   26.2333  -19.9210  -14.5417 C   0  0  0  0  0  0  0  0  0  0  0  0
   26.1579  -18.4939  -14.9513 C   0  0  0  0  0  0  0  0  0  0  0  0
   25.3962  -18.3010  -16.1889 C   0  0  0  0  0  0  0  0  0  0  0  0
   25.9074  -18.2957  -17.4959 N   0  0  0  0  0  0  0  0  0  0  0  0
   24.9677  -18.0537  -18.3908 C   0  0  0  0  0  0  0  0  0  0  0  0
   23.8276  -17.8953  -17.7166 C   0  0  0  0  0  0  0  0  0  0  0  0
   22.5584  -17.6448  -18.2007 C   0  0  0  0  0  0  0  0  0  0  0  0
   21.5234  -17.5454  -17.2990 C   0  0  0  0  0  0  0  0  0  0  0  0
   21.7035  -17.6847  -15.9488 C   0  0  0  0  0  0  0  0  0  0  0  0
   22.9708  -17.9330  -15.4770 C   0  0  0  0  0  0  0  0  0  0  0  0
   24.0351  -18.0372  -16.3664 C   0  0  0  0  0  0  0  0  0  0  0  0
   24.9816  -20.4167  -14.0131 O   0  0  0  0  0  0  0  0  0  0  0  0
   24.1973  -21.1440  -14.6894 N   0  0  0  0  0  0  0  0  0  0  0  0
   24.4984  -20.1444  -12.6866 C   0  0  1  0  0  0  0  0  0  0  0  0
   23.2918  -20.6938  -12.1584 C   0  0  0  0  0  0  0  0  0  0  0  0
   23.2598  -20.7563  -10.6532 S   0  0  0  0  0  0  0  0  0  0  0  0
   24.8790  -20.8819   -9.8965 C   0  0  0  0  0  0  0  0  0  0  0  0
   22.1033  -20.0017  -12.6594 O   0  0  0  0  0  0  0  0  0  0  0  0
   20.8175  -20.5222  -12.4829 O   0  0  0  0  0  0  0  0  0  0  0  0
  2  1  1  0
  2  3  2  0
  4  2  1  0
  5  4  1  0
  6  5  1  0
  7  6  1  0
  8  7  1  0
  8  9  1  1
 10  8  1  0
 10 11  2  0
 12 10  1  0
 13 12  1  0
 13 14  1  6
 14 15  1  0
 15 16  2  0
 16 17  1  0
 18 17  1  0
 19 18  2  0
 20 19  1  0
 21 22  1  0
 21 20  2  0
 22 23  2  0
 23 15  1  0
 23 18  1  0
 24 13  1  0
 25 24  2  0
 26 24  1  0
 27 28  1  1
 27 26  1  0
 28 29  1  0
 30 27  1  0
 31 30  1  0
 32 30  2  0
M  END
$$$$
