RWC.pdb
     RDKit          3D

 32 33  0  0  1  0  0  0  0  0999 V2000
   33.0749  -24.5393  -14.5240 N   0  0  0  0  0  0  0  0  0  0  0  0
   32.8908  -24.9077  -15.8963 C   0  0  0  0  0  0  0  0  0  0  0  0
   33.6594  -25.8201  -16.3762 N   0  0  0  0  0  0  0  0  0  0  0  0
   31.8975  -24.2924  -16.7046 N   0  0  0  0  0  0  0  0  0  0  0  0
   30.7760  -23.6053  -16.0930 C   0  0  0  0  0  0  0  0  0  0  0  0
   31.1415  -22.1797  -15.7960 C   0  0  0  0  0  0  0  0  0  0  0  0
   29.9530  -21.3105  -15.5821 C   0  0  0  0  0  0  0  0  0  0  0  0
   28.6765  -22.0639  -15.6226 C   0  0  2  0  0  0  0  0  0  0  0  0
   28.1221  -22.2735  -16.9094 N   0  0  0  0  0  0  0  0  0  0  0  0
   27.7240  -21.3571  -14.6953 C   0  0  0  0  0  0  0  0  0  0  0  0
   28.0591  -20.1468  -14.4426 O   0  0  0  0  0  0  0  0  0  0  0  0
   33.6402  -26.1209  -17.3538 N   0  0  0  0  0  0  0  0  0  0  0  0
   26.5753  -21.9407  -14.1470 C   0  0  1  0  0  0  0  0  0  0  0  0
   25.6450  -21.1771  -13.3101 C   0  0  0  0  0  0  0  0  0  0  0  0
   24.2395  -21.4176  -13.7307 C   0  0  0  0  0  0  0  0  0  0  0  0
   23.8346  -20.5723  -14.8577 C   0  0  0  0  0  0  0  0  0  0  0  0
   24.2808  -20.6733  -16.1845 N   0  0  0  0  0  0  0  0  0  0  0  0
   23.7580  -19.7354  -16.9523 C   0  0  0  0  0  0  0  0  0  0  0  0
   22.9643  -18.9996  -16.1725 C   0  0  0  0  0  0  0  0  0  0  0  0
   22.1792  -17.9139  -16.5082 C   0  0  0  0  0  0  0  0  0  0  0  0
   21.4182  -17.3286  -15.5222 C   0  0  0  0  0  0  0  0  0  0  0  0
   21.4101  -17.7793  -14.2292 C   0  0  0  0  0  0  0  0  0  0  0  0
   22.1957  -18.8601  -13.9051 C   0  0  0  0  0  0  0  0  0  0  0  0
   22.9755  -19.4700  -14.8822 C   0  0  0  0  0  0  0  0  0  0  0  0
   25.8552  -21.4220  -11.9002 O   0  0  0  0  0  0  0  0  0  0  0  0
   25.9034  -22.5883  -11.4115 N   0  0  0  0  0  0  0  0  0  0  0  0
   26.0300  -20.3884  -10.9161 C   0  0  1  0  0  0  0  0  0  0  0  0
   26.1844  -20.6456   -9.5209 C   0  0  0  0  0  0  0  0  0  0  0  0
   27.0628  -19.6476   -8.8120 S   0  0  0  0  0  0  0  0  0  0  0  0
   27.1124  -19.8576   -7.0333 C   0  0  0  0  0  0  0  0  0  0  0  0
   24.8969  -20.7610   -8.8341 O   0  0  0  0  0  0  0  0  0  0  0  0
   24.7541  -21.4966   -7.6535 O   0  0  0  0  0  0  0  0  0  0  0  0
  2  1  1  0
  2  3  2  0
  4  2  1  0
  5  4  1  0
  6  5  1  0
  7  6  1  0
  8  7  1  0
  8  9  1  6
 10  8  1  0
 10 11  2  0
 12 10  1  0
 13 12  1  0
 13 14  1  1
 14 15  1  0
 15 16  2  0
 16 17  1  0
 18 17  1  0
 19 18  2  0
 20 19  1  0
 21 22  1  0
 21 20  2  0
 22 23  2  0
 23 15  1  0
 23 18  1  0
 24 13  1  0
 25 24  2  0
 26 24  1  0
 27 28  1  1
 27 26  1  0
 28 29  1  0
 30 27  1  0
 31 30  1  0
 32 30  2  0
M  END
$$$$
