RWC.pdb
     RDKit          3D

 32 33  0  0  1  0  0  0  0  0999 V2000
   27.1844  -23.3778  -16.1976 N   0  0  0  0  0  0  0  0  0  0  0  0
   25.9699  -24.1320  -16.2928 C   0  0  0  0  0  0  0  0  0  0  0  0
   25.8469  -24.9399  -17.2856 N   0  0  0  0  0  0  0  0  0  0  0  0
   24.9341  -23.9981  -15.3296 N   0  0  0  0  0  0  0  0  0  0  0  0
   25.1205  -23.1551  -14.1640 C   0  0  0  0  0  0  0  0  0  0  0  0
   24.7560  -21.7352  -14.4881 C   0  0  0  0  0  0  0  0  0  0  0  0
   23.6093  -21.2344  -13.6831 C   0  0  0  0  0  0  0  0  0  0  0  0
   22.4662  -20.7993  -14.5215 C   0  0  2  0  0  0  0  0  0  0  0  0
   22.6103  -19.5433  -15.1609 N   0  0  0  0  0  0  0  0  0  0  0  0
   21.2390  -20.8633  -13.6518 C   0  0  0  0  0  0  0  0  0  0  0  0
   21.2440  -20.0108  -12.6958 O   0  0  0  0  0  0  0  0  0  0  0  0
   24.9993  -25.4807  -17.4746 N   0  0  0  0  0  0  0  0  0  0  0  0
   20.1788  -21.7576  -13.8451 C   0  0  2  0  0  0  0  0  0  0  0  0
   19.0019  -21.7612  -12.9713 C   0  0  0  0  0  0  0  0  0  0  0  0
   17.7525  -21.6569  -13.7702 C   0  0  0  0  0  0  0  0  0  0  0  0
   17.5845  -20.3373  -14.3862 C   0  0  0  0  0  0  0  0  0  0  0  0
   17.6656  -19.0939  -13.7404 N   0  0  0  0  0  0  0  0  0  0  0  0
   17.4240  -18.0935  -14.5669 C   0  0  0  0  0  0  0  0  0  0  0  0
   17.1812  -18.6335  -15.7622 C   0  0  0  0  0  0  0  0  0  0  0  0
   16.8962  -18.0051  -16.9588 C   0  0  0  0  0  0  0  0  0  0  0  0
   16.7061  -18.7849  -18.0768 C   0  0  0  0  0  0  0  0  0  0  0  0
   16.7884  -20.1514  -18.0475 C   0  0  0  0  0  0  0  0  0  0  0  0
   17.0717  -20.7673  -16.8513 C   0  0  0  0  0  0  0  0  0  0  0  0
   17.2674  -20.0030  -15.7058 C   0  0  0  0  0  0  0  0  0  0  0  0
   18.9959  -22.8936  -12.0716 O   0  0  0  0  0  0  0  0  0  0  0  0
   19.3276  -24.0579  -12.4403 N   0  0  0  0  0  0  0  0  0  0  0  0
   18.6205  -22.8245  -10.6853 C   0  0  1  0  0  0  0  0  0  0  0  0
   18.5283  -23.9670   -9.8352 C   0  0  0  0  0  0  0  0  0  0  0  0
   18.4894  -23.6310   -8.3669 S   0  0  0  0  0  0  0  0  0  0  0  0
   18.1909  -25.0436   -7.3059 C   0  0  0  0  0  0  0  0  0  0  0  0
   17.3968  -24.8269  -10.1854 O   0  0  0  0  0  0  0  0  0  0  0  0
   17.5141  -26.2198  -10.2268 O   0  0  0  0  0  0  0  0  0  0  0  0
  2  1  1  0
  2  3  2  0
  4  2  1  0
  5  4  1  0
  6  5  1  0
  7  6  1  0
  8  7  1  0
  8  9  1  1
 10  8  1  0
 10 11  2  0
 12 10  1  0
 13 12  1  0
 13 14  1  6
 14 15  1  0
 15 16  2  0
 16 17  1  0
 18 17  1  0
 19 18  2  0
 20 19  1  0
 21 22  1  0
 21 20  2  0
 22 23  2  0
 23 15  1  0
 23 18  1  0
 24 13  1  0
 25 24  2  0
 26 24  1  0
 27 28  1  6
 27 26  1  0
 28 29  1  0
 30 27  1  0
 31 30  1  0
 32 30  2  0
M  END
$$$$
