RWC.pdb
     RDKit          3D

 32 33  0  0  1  0  0  0  0  0999 V2000
   27.4122  -27.4787  -18.2761 N   0  0  0  0  0  0  0  0  0  0  0  0
   25.9991  -27.4015  -18.5001 C   0  0  0  0  0  0  0  0  0  0  0  0
   25.3422  -28.5059  -18.5464 N   0  0  0  0  0  0  0  0  0  0  0  0
   25.3397  -26.1540  -18.6662 N   0  0  0  0  0  0  0  0  0  0  0  0
   26.0882  -24.9135  -18.5970 C   0  0  0  0  0  0  0  0  0  0  0  0
   27.1822  -25.0250  -17.5749 C   0  0  0  0  0  0  0  0  0  0  0  0
   26.8764  -24.2901  -16.3178 C   0  0  0  0  0  0  0  0  0  0  0  0
   25.9790  -23.1299  -16.5353 C   0  0  2  0  0  0  0  0  0  0  0  0
   26.4906  -22.0977  -17.3600 N   0  0  0  0  0  0  0  0  0  0  0  0
   25.5757  -22.6300  -15.1737 C   0  0  0  0  0  0  0  0  0  0  0  0
   25.4375  -23.5624  -14.3063 O   0  0  0  0  0  0  0  0  0  0  0  0
   24.3308  -28.5582  -18.6906 N   0  0  0  0  0  0  0  0  0  0  0  0
   25.3651  -21.2824  -14.8568 C   0  0  1  0  0  0  0  0  0  0  0  0
   24.9565  -20.8591  -13.5142 C   0  0  0  0  0  0  0  0  0  0  0  0
   25.7053  -19.6456  -13.0938 C   0  0  0  0  0  0  0  0  0  0  0  0
   27.0098  -19.9627  -12.5048 C   0  0  0  0  0  0  0  0  0  0  0  0
   28.2389  -20.0340  -13.1784 N   0  0  0  0  0  0  0  0  0  0  0  0
   29.2227  -20.3848  -12.3712 C   0  0  0  0  0  0  0  0  0  0  0  0
   28.6854  -20.5523  -11.1618 C   0  0  0  0  0  0  0  0  0  0  0  0
   29.3032  -20.8993   -9.9761 C   0  0  0  0  0  0  0  0  0  0  0  0
   28.5322  -20.9869   -8.8394 C   0  0  0  0  0  0  0  0  0  0  0  0
   27.1845  -20.7445   -8.8398 C   0  0  0  0  0  0  0  0  0  0  0  0
   26.5791  -20.4006  -10.0254 C   0  0  0  0  0  0  0  0  0  0  0  0
   27.3346  -20.3059  -11.1894 C   0  0  0  0  0  0  0  0  0  0  0  0
   23.5234  -20.6949  -13.4083 O   0  0  0  0  0  0  0  0  0  0  0  0
   22.7743  -20.5816  -14.4219 N   0  0  0  0  0  0  0  0  0  0  0  0
   22.8040  -20.6436  -12.1644 C   0  0  1  0  0  0  0  0  0  0  0  0
   21.3937  -20.4437  -12.0766 C   0  0  0  0  0  0  0  0  0  0  0  0
   20.8539  -20.5267  -10.6722 S   0  0  0  0  0  0  0  0  0  0  0  0
   21.9741  -21.3008   -9.5078 C   0  0  0  0  0  0  0  0  0  0  0  0
   20.9726  -19.1906  -12.7051 O   0  0  0  0  0  0  0  0  0  0  0  0
   19.6250  -18.8988  -12.9381 O   0  0  0  0  0  0  0  0  0  0  0  0
  2  1  1  0
  2  3  2  0
  4  2  1  0
  5  4  1  0
  6  5  1  0
  7  6  1  0
  8  7  1  0
  8  9  1  1
 10  8  1  0
 10 11  2  0
 12 10  1  0
 13 12  1  0
 13 14  1  1
 14 15  1  0
 15 16  2  0
 16 17  1  0
 18 17  1  0
 19 18  2  0
 20 19  1  0
 21 22  1  0
 21 20  2  0
 22 23  2  0
 23 15  1  0
 23 18  1  0
 24 13  1  0
 25 24  2  0
 26 24  1  0
 27 28  1  1
 27 26  1  0
 28 29  1  0
 30 27  1  0
 31 30  1  0
 32 30  2  0
M  END
$$$$
