LNS.pdb
     RDKit          3D

 23 22  0  0  1  0  0  0  0  0999 V2000
    8.5435  -12.2614   18.6678 C   0  0  0  0  0  0  0  0  0  0  0  0
    7.9625  -13.4193   19.4534 C   0  0  2  0  0  0  0  0  0  0  0  0
    7.1018  -12.9157   20.5907 C   0  0  0  0  0  0  0  0  0  0  0  0
    9.0356  -14.3603   19.9584 C   0  0  0  0  0  0  0  0  0  0  0  0
    9.8624  -14.8881   18.8067 C   0  0  2  0  0  0  0  0  0  0  0  0
    9.0590  -15.5794   17.8360 N   0  0  0  0  0  0  0  0  0  0  0  0
   10.9952  -15.7089   19.2573 C   0  0  0  0  0  0  0  0  0  0  0  0
   10.9782  -16.9485   19.3634 O   0  0  0  0  0  0  0  0  0  0  0  0
   14.8817  -13.7375   17.7198 N   0  0  0  0  0  0  0  0  0  0  0  0
   14.8358  -15.0044   18.3902 C   0  0  0  0  0  0  0  0  0  0  0  0
   14.9889  -16.0343   17.7215 O   0  0  0  0  0  0  0  0  0  0  0  0
   14.6099  -15.0367   19.8393 C   0  0  0  0  0  0  0  0  0  0  0  0
   13.3384  -15.7643   20.1563 C   0  0  2  0  0  0  0  0  0  0  0  0
   12.2178  -15.0521   19.6046 N   0  0  0  0  0  0  0  0  0  0  0  0
   13.1330  -15.8141   21.6486 C   0  0  0  0  0  0  0  0  0  0  0  0
   13.6333  -14.9525   22.4206 O   0  0  0  0  0  0  0  0  0  0  0  0
   10.4040  -17.3995   25.2177 O   0  0  0  0  0  0  0  0  0  0  0  0
   10.6172  -17.3662   23.8369 C   0  0  0  0  0  0  0  0  0  0  0  0
   12.0427  -16.8626   23.6188 C   0  0  2  0  0  0  0  0  0  0  0  0
   12.3516  -16.8638   22.2037 N   0  0  0  0  0  0  0  0  0  0  0  0
   12.9418  -17.7580   24.3667 C   0  0  0  0  0  0  0  0  0  0  0  0
   13.5502  -18.6589   23.7405 O   0  0  0  0  0  0  0  0  0  0  0  0
   13.1517  -17.6570   25.7307 O   0  0  0  0  0  0  0  0  0  0  0  0
  2  1  1  1
  2  3  1  0
  4  2  1  0
  5  4  1  0
  5  6  1  6
  7  5  1  0
  7  8  2  0
  9 10  1  0
 10 11  2  0
 10 12  1  0
 13 12  1  1
 13 14  1  0
 14  7  1  0
 15 20  1  0
 15 13  1  0
 16 15  2  0
 18 17  1  0
 19 18  1  6
 19 20  1  0
 19 21  1  0
 21 22  2  0
 21 23  1  0
M  END
$$$$
