LNS.pdb
     RDKit          3D

 23 22  0  0  1  0  0  0  0  0999 V2000
    7.0471  -13.2583   20.5325 C   0  0  0  0  0  0  0  0  0  0  0  0
    8.1679  -12.8546   19.5962 C   0  0  2  0  0  0  0  0  0  0  0  0
    7.6762  -11.8546   18.5734 C   0  0  0  0  0  0  0  0  0  0  0  0
    8.8072  -14.0510   18.9240 C   0  0  0  0  0  0  0  0  0  0  0  0
    9.4033  -14.9828   19.9560 C   0  0  2  0  0  0  0  0  0  0  0  0
    9.3720  -14.4181   21.2772 N   0  0  0  0  0  0  0  0  0  0  0  0
   10.7529  -15.4364   19.5913 C   0  0  0  0  0  0  0  0  0  0  0  0
   11.0172  -16.1866   18.6345 O   0  0  0  0  0  0  0  0  0  0  0  0
   14.0400  -15.4927   17.5777 N   0  0  0  0  0  0  0  0  0  0  0  0
   14.5110  -14.3931   18.3687 C   0  0  0  0  0  0  0  0  0  0  0  0
   15.2808  -13.5760   17.8483 O   0  0  0  0  0  0  0  0  0  0  0  0
   14.0664  -14.2745   19.7617 C   0  0  0  0  0  0  0  0  0  0  0  0
   13.2029  -15.4404   20.1381 C   0  0  2  0  0  0  0  0  0  0  0  0
   11.8586  -14.9933   20.3835 N   0  0  0  0  0  0  0  0  0  0  0  0
   13.7002  -16.0553   21.4212 C   0  0  0  0  0  0  0  0  0  0  0  0
   14.9006  -16.4092   21.5706 O   0  0  0  0  0  0  0  0  0  0  0  0
   12.7676  -17.1620   26.0059 O   0  0  0  0  0  0  0  0  0  0  0  0
   12.2497  -16.5782   24.8465 C   0  0  0  0  0  0  0  0  0  0  0  0
   13.2367  -16.8759   23.7194 C   0  0  2  0  0  0  0  0  0  0  0  0
   12.7892  -16.2423   22.4962 N   0  0  0  0  0  0  0  0  0  0  0  0
   13.3047  -18.3400   23.5733 C   0  0  0  0  0  0  0  0  0  0  0  0
   12.6119  -18.8881   22.6825 O   0  0  0  0  0  0  0  0  0  0  0  0
   14.0967  -19.1467   24.3712 O   0  0  0  0  0  0  0  0  0  0  0  0
  2  1  1  6
  2  3  1  0
  4  2  1  0
  5  4  1  0
  5  6  1  1
  7  5  1  0
  7  8  2  0
  9 10  1  0
 10 11  2  0
 10 12  1  0
 13 12  1  1
 13 14  1  0
 14  7  1  0
 15 20  1  0
 15 13  1  0
 16 15  2  0
 18 17  1  0
 19 18  1  1
 19 20  1  0
 19 21  1  0
 21 22  2  0
 21 23  1  0
M  END
$$$$
