LNS.pdb
     RDKit          3D

 23 22  0  0  1  0  0  0  0  0999 V2000
   -2.1637  -24.5345   23.7036 C   0  0  0  0  0  0  0  0  0  0  0  0
   -1.8395  -25.9675   24.0739 C   0  0  2  0  0  0  0  0  0  0  0  0
   -1.3849  -26.7443   22.8582 C   0  0  0  0  0  0  0  0  0  0  0  0
   -3.0021  -26.6563   24.7564 C   0  0  0  0  0  0  0  0  0  0  0  0
   -3.4953  -25.8311   25.9245 C   0  0  2  0  0  0  0  0  0  0  0  0
   -2.4443  -25.5327   26.8583 N   0  0  0  0  0  0  0  0  0  0  0  0
   -4.6571  -26.4369   26.5904 C   0  0  0  0  0  0  0  0  0  0  0  0
   -5.6900  -26.8191   26.0113 O   0  0  0  0  0  0  0  0  0  0  0  0
   -5.7909  -29.2920   31.9199 N   0  0  0  0  0  0  0  0  0  0  0  0
   -6.0266  -28.8785   30.5671 C   0  0  0  0  0  0  0  0  0  0  0  0
   -7.0745  -29.2335   30.0132 O   0  0  0  0  0  0  0  0  0  0  0  0
   -5.0220  -28.0523   29.8886 C   0  0  0  0  0  0  0  0  0  0  0  0
   -5.6321  -27.3369   28.7213 C   0  0  2  0  0  0  0  0  0  0  0  0
   -4.6168  -26.6086   28.0100 N   0  0  0  0  0  0  0  0  0  0  0  0
   -6.6372  -26.3243   29.2072 C   0  0  0  0  0  0  0  0  0  0  0  0
   -6.2892  -25.2783   29.8182 O   0  0  0  0  0  0  0  0  0  0  0  0
  -10.6232  -27.1325   28.7069 O   0  0  0  0  0  0  0  0  0  0  0  0
  -10.3030  -25.7735   28.6464 C   0  0  0  0  0  0  0  0  0  0  0  0
   -8.9999  -25.5884   29.4216 C   0  0  2  0  0  0  0  0  0  0  0  0
   -8.0197  -26.5544   28.9699 N   0  0  0  0  0  0  0  0  0  0  0  0
   -9.3121  -25.7662   30.8500 C   0  0  0  0  0  0  0  0  0  0  0  0
   -8.7150  -26.6662   31.4883 O   0  0  0  0  0  0  0  0  0  0  0  0
  -10.2340  -24.9886   31.5283 O   0  0  0  0  0  0  0  0  0  0  0  0
  2  1  1  6
  2  3  1  0
  4  2  1  0
  5  4  1  0
  5  6  1  1
  7  5  1  0
  7  8  2  0
  9 10  1  0
 10 11  2  0
 10 12  1  0
 13 12  1  1
 13 14  1  0
 14  7  1  0
 15 20  1  0
 15 13  1  0
 16 15  2  0
 18 17  1  0
 19 18  1  6
 19 20  1  0
 19 21  1  0
 21 22  2  0
 21 23  1  0
M  END
$$$$
