LNS.pdb
     RDKit          3D

 23 22  0  0  1  0  0  0  0  0999 V2000
    8.5662  -12.4028   18.9078 C   0  0  0  0  0  0  0  0  0  0  0  0
    7.7749  -13.5080   19.5772 C   0  0  2  0  0  0  0  0  0  0  0  0
    6.7326  -12.9305   20.5089 C   0  0  0  0  0  0  0  0  0  0  0  0
    8.6698  -14.4898   20.3032 C   0  0  0  0  0  0  0  0  0  0  0  0
    9.6934  -15.0748   19.3553 C   0  0  2  0  0  0  0  0  0  0  0  0
    9.0795  -15.7860   18.2677 N   0  0  0  0  0  0  0  0  0  0  0  0
   10.6939  -15.8997   20.0472 C   0  0  0  0  0  0  0  0  0  0  0  0
   10.5552  -17.1052   20.3223 O   0  0  0  0  0  0  0  0  0  0  0  0
   14.7122  -14.1595   18.8975 N   0  0  0  0  0  0  0  0  0  0  0  0
   14.6140  -15.3983   19.6133 C   0  0  0  0  0  0  0  0  0  0  0  0
   14.8373  -16.4528   19.0057 O   0  0  0  0  0  0  0  0  0  0  0  0
   14.2538  -15.3737   21.0352 C   0  0  0  0  0  0  0  0  0  0  0  0
   12.8991  -15.9801   21.2440 C   0  0  2  0  0  0  0  0  0  0  0  0
   11.9259  -15.2892   20.4422 N   0  0  0  0  0  0  0  0  0  0  0  0
   12.4779  -15.8148   22.6817 C   0  0  0  0  0  0  0  0  0  0  0  0
   12.8399  -14.8256   23.3739 O   0  0  0  0  0  0  0  0  0  0  0  0
    9.1930  -17.5595   23.9893 O   0  0  0  0  0  0  0  0  0  0  0  0
    9.7493  -16.5503   24.7801 C   0  0  0  0  0  0  0  0  0  0  0  0
   11.2669  -16.6835   24.6688 C   0  0  2  0  0  0  0  0  0  0  0  0
   11.6474  -16.8032   23.2764 N   0  0  0  0  0  0  0  0  0  0  0  0
   11.6586  -17.8768   25.4382 C   0  0  0  0  0  0  0  0  0  0  0  0
   12.1854  -18.8387   24.8290 O   0  0  0  0  0  0  0  0  0  0  0  0
   11.4748  -17.9932   26.8048 O   0  0  0  0  0  0  0  0  0  0  0  0
  2  1  1  1
  2  3  1  0
  4  2  1  0
  5  4  1  0
  5  6  1  6
  7  5  1  0
  7  8  2  0
  9 10  1  0
 10 11  2  0
 10 12  1  0
 13 12  1  1
 13 14  1  0
 14  7  1  0
 15 20  1  0
 15 13  1  0
 16 15  2  0
 18 17  1  0
 19 18  1  6
 19 20  1  0
 19 21  1  0
 21 22  2  0
 21 23  1  0
M  END
$$$$
