LNS.pdb
     RDKit          3D

 23 22  0  0  1  0  0  0  0  0999 V2000
    8.3378  -13.2360   18.2310 C   0  0  0  0  0  0  0  0  0  0  0  0
    7.5262  -13.4398   19.4941 C   0  0  2  0  0  0  0  0  0  0  0  0
    7.2224  -12.1133   20.1545 C   0  0  0  0  0  0  0  0  0  0  0  0
    8.2054  -14.3862   20.4610 C   0  0  0  0  0  0  0  0  0  0  0  0
    8.4354  -15.7328   19.8111 C   0  0  2  0  0  0  0  0  0  0  0  0
    7.2076  -16.3413   19.3778 N   0  0  0  0  0  0  0  0  0  0  0  0
    9.2210  -16.6400   20.6597 C   0  0  0  0  0  0  0  0  0  0  0  0
    8.7395  -17.4465   21.4757 O   0  0  0  0  0  0  0  0  0  0  0  0
   14.2452  -19.6621   20.8005 N   0  0  0  0  0  0  0  0  0  0  0  0
   13.6957  -18.5056   21.4464 C   0  0  0  0  0  0  0  0  0  0  0  0
   13.9686  -18.3062   22.6367 O   0  0  0  0  0  0  0  0  0  0  0  0
   12.8325  -17.6022   20.6778 C   0  0  0  0  0  0  0  0  0  0  0  0
   11.4909  -17.4736   21.3336 C   0  0  2  0  0  0  0  0  0  0  0  0
   10.6473  -16.6085   20.5543 N   0  0  0  0  0  0  0  0  0  0  0  0
   11.6409  -16.8325   22.6895 C   0  0  0  0  0  0  0  0  0  0  0  0
   12.2322  -15.7303   22.8451 O   0  0  0  0  0  0  0  0  0  0  0  0
    8.9483  -17.1420   25.4832 O   0  0  0  0  0  0  0  0  0  0  0  0
    9.9752  -16.1970   25.5580 C   0  0  0  0  0  0  0  0  0  0  0  0
   11.2632  -16.9057   25.1434 C   0  0  2  0  0  0  0  0  0  0  0  0
   11.0996  -17.4893   23.8279 N   0  0  0  0  0  0  0  0  0  0  0  0
   11.5414  -17.9361   26.1585 C   0  0  0  0  0  0  0  0  0  0  0  0
   11.5312  -19.1412   25.8102 O   0  0  0  0  0  0  0  0  0  0  0  0
   11.8147  -17.6429   27.4829 O   0  0  0  0  0  0  0  0  0  0  0  0
  2  1  1  6
  2  3  1  0
  4  2  1  0
  5  4  1  0
  5  6  1  1
  7  5  1  0
  7  8  2  0
  9 10  1  0
 10 11  2  0
 10 12  1  0
 13 12  1  6
 13 14  1  0
 14  7  1  0
 15 20  1  0
 15 13  1  0
 16 15  2  0
 18 17  1  0
 19 18  1  1
 19 20  1  0
 19 21  1  0
 21 22  2  0
 21 23  1  0
M  END
$$$$
