LNS.pdb
     RDKit          3D

 23 22  0  0  1  0  0  0  0  0999 V2000
    9.0847  -11.9782   20.2872 C   0  0  0  0  0  0  0  0  0  0  0  0
    8.4776  -12.6769   19.0876 C   0  0  2  0  0  0  0  0  0  0  0  0
    7.0031  -12.3596   18.9735 C   0  0  0  0  0  0  0  0  0  0  0  0
    8.7116  -14.1722   19.1208 C   0  0  0  0  0  0  0  0  0  0  0  0
   10.1667  -14.4748   19.4029 C   0  0  2  0  0  0  0  0  0  0  0  0
   11.0511  -13.6753   18.6001 N   0  0  0  0  0  0  0  0  0  0  0  0
   10.4757  -15.9071   19.2887 C   0  0  0  0  0  0  0  0  0  0  0  0
    9.8257  -16.7236   18.6112 O   0  0  0  0  0  0  0  0  0  0  0  0
   13.6969  -17.8146   16.1338 N   0  0  0  0  0  0  0  0  0  0  0  0
   12.7792  -17.0871   16.9615 C   0  0  0  0  0  0  0  0  0  0  0  0
   11.6200  -16.9250   16.5601 O   0  0  0  0  0  0  0  0  0  0  0  0
   13.2435  -16.5618   18.2501 C   0  0  0  0  0  0  0  0  0  0  0  0
   12.5745  -17.2813   19.3820 C   0  0  2  0  0  0  0  0  0  0  0  0
   11.6043  -16.4203   20.0025 N   0  0  0  0  0  0  0  0  0  0  0  0
   13.5891  -17.6307   20.4404 C   0  0  0  0  0  0  0  0  0  0  0  0
   14.7976  -17.2852   20.3466 O   0  0  0  0  0  0  0  0  0  0  0  0
   13.0113  -16.0438   24.3573 O   0  0  0  0  0  0  0  0  0  0  0  0
   12.6877  -16.5204   23.0840 C   0  0  0  0  0  0  0  0  0  0  0  0
   13.4166  -17.8512   22.9085 C   0  0  2  0  0  0  0  0  0  0  0  0
   13.1722  -18.3721   21.5792 N   0  0  0  0  0  0  0  0  0  0  0  0
   12.9116  -18.7664   23.9463 C   0  0  0  0  0  0  0  0  0  0  0  0
   11.8490  -19.3963   23.7271 O   0  0  0  0  0  0  0  0  0  0  0  0
   13.5511  -18.9687   25.1566 O   0  0  0  0  0  0  0  0  0  0  0  0
  2  1  1  1
  2  3  1  0
  4  2  1  0
  5  4  1  0
  5  6  1  6
  7  5  1  0
  7  8  2  0
  9 10  1  0
 10 11  2  0
 10 12  1  0
 13 12  1  6
 13 14  1  0
 14  7  1  0
 15 20  1  0
 15 13  1  0
 16 15  2  0
 18 17  1  0
 19 18  1  6
 19 20  1  0
 19 21  1  0
 21 22  2  0
 21 23  1  0
M  END
$$$$
