LNS.pdb
     RDKit          3D

 23 22  0  0  1  0  0  0  0  0999 V2000
    8.2154  -12.9461   18.0606 C   0  0  0  0  0  0  0  0  0  0  0  0
    7.4210  -13.3939   19.2706 C   0  0  2  0  0  0  0  0  0  0  0  0
    6.9154  -12.2002   20.0500 C   0  0  0  0  0  0  0  0  0  0  0  0
    8.2148  -14.3276   20.1593 C   0  0  0  0  0  0  0  0  0  0  0  0
    8.6172  -15.5706   19.3967 C   0  0  2  0  0  0  0  0  0  0  0  0
    7.4795  -16.2784   18.8767 N   0  0  0  0  0  0  0  0  0  0  0  0
    9.4933  -16.4525   20.1807 C   0  0  0  0  0  0  0  0  0  0  0  0
    9.1182  -17.4725   20.7867 O   0  0  0  0  0  0  0  0  0  0  0  0
   14.4382  -18.8400   20.9114 N   0  0  0  0  0  0  0  0  0  0  0  0
   14.1491  -17.5021   21.3393 C   0  0  0  0  0  0  0  0  0  0  0  0
   14.7098  -17.0706   22.3544 O   0  0  0  0  0  0  0  0  0  0  0  0
   13.2028  -16.6937   20.5627 C   0  0  0  0  0  0  0  0  0  0  0  0
   11.8027  -16.9099   21.0521 C   0  0  2  0  0  0  0  0  0  0  0  0
   10.8848  -16.1313   20.2656 N   0  0  0  0  0  0  0  0  0  0  0  0
   11.6756  -16.4296   22.4751 C   0  0  0  0  0  0  0  0  0  0  0  0
   11.6743  -15.2038   22.7684 O   0  0  0  0  0  0  0  0  0  0  0  0
    9.1284  -17.5950   24.8539 O   0  0  0  0  0  0  0  0  0  0  0  0
    9.9463  -16.4920   25.1141 C   0  0  0  0  0  0  0  0  0  0  0  0
   11.3878  -16.9439   24.8881 C   0  0  2  0  0  0  0  0  0  0  0  0
   11.5535  -17.3867   23.5190 N   0  0  0  0  0  0  0  0  0  0  0  0
   11.6593  -18.0327   25.8423 C   0  0  0  0  0  0  0  0  0  0  0  0
   11.9310  -19.1720   25.3929 O   0  0  0  0  0  0  0  0  0  0  0  0
   11.6301  -17.8637   27.2154 O   0  0  0  0  0  0  0  0  0  0  0  0
  2  1  1  6
  2  3  1  0
  4  2  1  0
  5  4  1  0
  5  6  1  1
  7  5  1  0
  7  8  2  0
  9 10  1  0
 10 11  2  0
 10 12  1  0
 13 12  1  6
 13 14  1  0
 14  7  1  0
 15 20  1  0
 15 13  1  0
 16 15  2  0
 18 17  1  0
 19 18  1  6
 19 20  1  0
 19 21  1  0
 21 22  2  0
 21 23  1  0
M  END
$$$$
