LNS.pdb
     RDKit          3D

 23 22  0  0  1  0  0  0  0  0999 V2000
    9.0641  -11.9344   19.6398 C   0  0  0  0  0  0  0  0  0  0  0  0
    8.2349  -13.0069   18.9633 C   0  0  2  0  0  0  0  0  0  0  0  0
    6.7611  -12.6781   19.0508 C   0  0  0  0  0  0  0  0  0  0  0  0
    8.5194  -14.3845   19.5231 C   0  0  0  0  0  0  0  0  0  0  0  0
    9.9534  -14.4788   19.9954 C   0  0  2  0  0  0  0  0  0  0  0  0
   10.8866  -14.4399   18.9030 N   0  0  0  0  0  0  0  0  0  0  0  0
   10.1839  -15.6410   20.8650 C   0  0  0  0  0  0  0  0  0  0  0  0
    9.4021  -16.0342   21.7495 O   0  0  0  0  0  0  0  0  0  0  0  0
   13.3053  -18.9212   18.5817 N   0  0  0  0  0  0  0  0  0  0  0  0
   12.5252  -19.0395   19.7792 C   0  0  0  0  0  0  0  0  0  0  0  0
   11.5584  -19.8117   19.7824 O   0  0  0  0  0  0  0  0  0  0  0  0
   12.8979  -18.2447   20.9546 C   0  0  0  0  0  0  0  0  0  0  0  0
   11.7001  -17.5350   21.5097 C   0  0  2  0  0  0  0  0  0  0  0  0
   11.3916  -16.3893   20.6976 N   0  0  0  0  0  0  0  0  0  0  0  0
   12.0028  -17.0210   22.8939 C   0  0  0  0  0  0  0  0  0  0  0  0
   13.0350  -16.3420   23.1430 O   0  0  0  0  0  0  0  0  0  0  0  0
    9.0734  -17.0292   25.6538 O   0  0  0  0  0  0  0  0  0  0  0  0
   10.1591  -16.1826   25.8944 C   0  0  0  0  0  0  0  0  0  0  0  0
   11.3913  -16.8582   25.2958 C   0  0  2  0  0  0  0  0  0  0  0  0
   11.0979  -17.3099   23.9513 N   0  0  0  0  0  0  0  0  0  0  0  0
   11.7437  -17.9846   26.1770 C   0  0  0  0  0  0  0  0  0  0  0  0
   11.6675  -19.1510   25.7214 O   0  0  0  0  0  0  0  0  0  0  0  0
   12.1563  -17.8228   27.4879 O   0  0  0  0  0  0  0  0  0  0  0  0
  2  1  1  1
  2  3  1  0
  4  2  1  0
  5  4  1  0
  5  6  1  6
  7  5  1  0
  7  8  2  0
  9 10  1  0
 10 11  2  0
 10 12  1  0
 13 12  1  6
 13 14  1  0
 14  7  1  0
 15 20  1  0
 15 13  1  0
 16 15  2  0
 18 17  1  0
 19 18  1  1
 19 20  1  0
 19 21  1  0
 21 22  2  0
 21 23  1  0
M  END
$$$$
