LNS.pdb
     RDKit          3D

 23 22  0  0  1  0  0  0  0  0999 V2000
    8.3325  -12.0736   21.1393 C   0  0  0  0  0  0  0  0  0  0  0  0
    8.2140  -13.4017   20.4198 C   0  0  2  0  0  0  0  0  0  0  0  0
    7.4044  -13.2522   19.1510 C   0  0  0  0  0  0  0  0  0  0  0  0
    7.6368  -14.4820   21.3096 C   0  0  0  0  0  0  0  0  0  0  0  0
    7.7270  -15.8313   20.6317 C   0  0  2  0  0  0  0  0  0  0  0  0
    6.4666  -16.2442   20.0781 N   0  0  0  0  0  0  0  0  0  0  0  0
    8.2995  -16.8636   21.5074 C   0  0  0  0  0  0  0  0  0  0  0  0
    7.6683  -17.4864   22.3804 O   0  0  0  0  0  0  0  0  0  0  0  0
    8.9804  -20.3127   19.5456 N   0  0  0  0  0  0  0  0  0  0  0  0
    9.2784  -20.0706   20.9273 C   0  0  0  0  0  0  0  0  0  0  0  0
    8.4489  -20.4100   21.7804 O   0  0  0  0  0  0  0  0  0  0  0  0
   10.5507  -19.4318   21.2812 C   0  0  0  0  0  0  0  0  0  0  0  0
   10.3119  -18.2253   22.1379 C   0  0  2  0  0  0  0  0  0  0  0  0
    9.6843  -17.1912   21.3608 N   0  0  0  0  0  0  0  0  0  0  0  0
   11.6269  -17.6707   22.6228 C   0  0  0  0  0  0  0  0  0  0  0  0
   11.8822  -16.4368   22.5942 O   0  0  0  0  0  0  0  0  0  0  0  0
   12.3912  -16.5132   25.5712 O   0  0  0  0  0  0  0  0  0  0  0  0
   12.5135  -17.9017   25.4687 C   0  0  0  0  0  0  0  0  0  0  0  0
   13.4159  -18.1814   24.2685 C   0  0  2  0  0  0  0  0  0  0  0  0
   12.6096  -18.5649   23.1280 N   0  0  0  0  0  0  0  0  0  0  0  0
   14.3418  -19.2582   24.6593 C   0  0  0  0  0  0  0  0  0  0  0  0
   13.9179  -20.4389   24.6763 O   0  0  0  0  0  0  0  0  0  0  0  0
   15.6614  -19.0347   25.0107 O   0  0  0  0  0  0  0  0  0  0  0  0
  2  1  1  1
  2  3  1  0
  4  2  1  0
  5  4  1  0
  5  6  1  1
  7  5  1  0
  7  8  2  0
  9 10  1  0
 10 11  2  0
 10 12  1  0
 13 12  1  6
 13 14  1  0
 14  7  1  0
 15 20  1  0
 15 13  1  0
 16 15  2  0
 18 17  1  0
 19 18  1  1
 19 20  1  0
 19 21  1  0
 21 22  2  0
 21 23  1  0
M  END
$$$$
