LNS.pdb
     RDKit          3D

 23 22  0  0  1  0  0  0  0  0999 V2000
    9.3179  -13.0986   19.5806 C   0  0  0  0  0  0  0  0  0  0  0  0
    7.8814  -13.2379   20.0417 C   0  0  2  0  0  0  0  0  0  0  0  0
    7.2377  -11.8789   20.2042 C   0  0  0  0  0  0  0  0  0  0  0  0
    7.7681  -14.0495   21.3146 C   0  0  0  0  0  0  0  0  0  0  0  0
    8.4448  -15.3924   21.1490 C   0  0  2  0  0  0  0  0  0  0  0  0
    7.7176  -16.2590   20.2626 N   0  0  0  0  0  0  0  0  0  0  0  0
    8.7247  -16.0438   22.4364 C   0  0  0  0  0  0  0  0  0  0  0  0
    7.8633  -16.5379   23.1861 O   0  0  0  0  0  0  0  0  0  0  0  0
   12.1483  -19.1888   22.2604 N   0  0  0  0  0  0  0  0  0  0  0  0
   11.4063  -18.7862   23.4197 C   0  0  0  0  0  0  0  0  0  0  0  0
   10.5437  -19.5526   23.8666 O   0  0  0  0  0  0  0  0  0  0  0  0
   11.6935  -17.4852   24.0339 C   0  0  0  0  0  0  0  0  0  0  0  0
   10.4386  -16.6751   24.1585 C   0  0  2  0  0  0  0  0  0  0  0  0
   10.0828  -16.1260   22.8782 N   0  0  0  0  0  0  0  0  0  0  0  0
   10.6693  -15.5092   25.0854 C   0  0  0  0  0  0  0  0  0  0  0  0
   11.5553  -14.6417   24.8593 O   0  0  0  0  0  0  0  0  0  0  0  0
    7.8109  -14.1754   27.2402 O   0  0  0  0  0  0  0  0  0  0  0  0
    8.9670  -13.3956   27.3337 C   0  0  0  0  0  0  0  0  0  0  0  0
   10.1562  -14.3475   27.2201 C   0  0  2  0  0  0  0  0  0  0  0  0
    9.8642  -15.3827   26.2500 N   0  0  0  0  0  0  0  0  0  0  0  0
   10.3910  -14.9152   28.5588 C   0  0  0  0  0  0  0  0  0  0  0  0
   10.3359  -16.1604   28.7018 O   0  0  0  0  0  0  0  0  0  0  0  0
   10.6707  -14.1432   29.6726 O   0  0  0  0  0  0  0  0  0  0  0  0
  2  1  1  1
  2  3  1  0
  4  2  1  0
  5  4  1  0
  5  6  1  6
  7  5  1  0
  7  8  2  0
  9 10  1  0
 10 11  2  0
 10 12  1  0
 13 12  1  6
 13 14  1  0
 14  7  1  0
 15 20  1  0
 15 13  1  0
 16 15  2  0
 18 17  1  0
 19 18  1  1
 19 20  1  0
 19 21  1  0
 21 22  2  0
 21 23  1  0
M  END
$$$$
