LNS.pdb
     RDKit          3D

 23 22  0  0  1  0  0  0  0  0999 V2000
   -0.4036  -19.4583   20.8410 C   0  0  0  0  0  0  0  0  0  0  0  0
   -0.4481  -20.3476   22.0669 C   0  0  2  0  0  0  0  0  0  0  0  0
   -1.7547  -20.1715   22.8082 C   0  0  0  0  0  0  0  0  0  0  0  0
    0.7336  -20.1132   22.9837 C   0  0  0  0  0  0  0  0  0  0  0  0
    2.0324  -20.2589   22.2219 C   0  0  2  0  0  0  0  0  0  0  0  0
    1.9802  -21.3280   21.2628 N   0  0  0  0  0  0  0  0  0  0  0  0
    3.1955  -20.3842   23.1117 C   0  0  0  0  0  0  0  0  0  0  0  0
    3.4374  -19.6363   24.0763 O   0  0  0  0  0  0  0  0  0  0  0  0
    8.0530  -23.6353   23.9058 N   0  0  0  0  0  0  0  0  0  0  0  0
    6.7897  -23.3925   24.5396 C   0  0  0  0  0  0  0  0  0  0  0  0
    6.7348  -23.4063   25.7757 O   0  0  0  0  0  0  0  0  0  0  0  0
    5.6105  -23.1374   23.7051 C   0  0  0  0  0  0  0  0  0  0  0  0
    5.2521  -21.6823   23.7336 C   0  0  2  0  0  0  0  0  0  0  0  0
    4.1309  -21.4385   22.8671 N   0  0  0  0  0  0  0  0  0  0  0  0
    6.3995  -20.8598   23.2058 C   0  0  0  0  0  0  0  0  0  0  0  0
    6.6787  -20.8141   21.9776 O   0  0  0  0  0  0  0  0  0  0  0  0
    7.6900  -17.6988   25.2198 O   0  0  0  0  0  0  0  0  0  0  0  0
    8.0251  -17.8385   23.8703 C   0  0  0  0  0  0  0  0  0  0  0  0
    8.3027  -19.3215   23.6319 C   0  0  2  0  0  0  0  0  0  0  0  0
    7.1915  -20.1125   24.1195 N   0  0  0  0  0  0  0  0  0  0  0  0
    9.5506  -19.6521   24.3410 C   0  0  0  0  0  0  0  0  0  0  0  0
    9.4949  -20.4257   25.3271 O   0  0  0  0  0  0  0  0  0  0  0  0
   10.7876  -19.1516   23.9747 O   0  0  0  0  0  0  0  0  0  0  0  0
  2  1  1  6
  2  3  1  0
  4  2  1  0
  5  4  1  0
  5  6  1  1
  7  5  1  0
  7  8  2  0
  9 10  1  0
 10 11  2  0
 10 12  1  0
 13 12  1  6
 13 14  1  0
 14  7  1  0
 15 20  1  0
 15 13  1  0
 16 15  2  0
 18 17  1  0
 19 18  1  1
 19 20  1  0
 19 21  1  0
 21 22  2  0
 21 23  1  0
M  END
$$$$
