LNS.pdb
     RDKit          3D

 23 22  0  0  1  0  0  0  0  0999 V2000
    8.5696  -12.5462   19.1205 C   0  0  0  0  0  0  0  0  0  0  0  0
    7.7358  -13.5203   19.9276 C   0  0  2  0  0  0  0  0  0  0  0  0
    7.0377  -12.8109   21.0666 C   0  0  0  0  0  0  0  0  0  0  0  0
    8.5554  -14.6878   20.4344 C   0  0  0  0  0  0  0  0  0  0  0  0
    9.1672  -15.4475   19.2780 C   0  0  2  0  0  0  0  0  0  0  0  0
    8.1862  -15.8202   18.2960 N   0  0  0  0  0  0  0  0  0  0  0  0
    9.9588  -16.6040   19.7207 C   0  0  0  0  0  0  0  0  0  0  0  0
   10.1470  -17.6358   19.0512 O   0  0  0  0  0  0  0  0  0  0  0  0
   13.3299  -19.9659   20.5895 N   0  0  0  0  0  0  0  0  0  0  0  0
   13.6491  -18.5993   20.8848 C   0  0  0  0  0  0  0  0  0  0  0  0
   14.7213  -18.3503   21.4500 O   0  0  0  0  0  0  0  0  0  0  0  0
   12.6982  -17.5475   20.5086 C   0  0  0  0  0  0  0  0  0  0  0  0
   11.5266  -17.5402   21.4433 C   0  0  2  0  0  0  0  0  0  0  0  0
   10.5664  -16.5594   21.0151 N   0  0  0  0  0  0  0  0  0  0  0  0
   11.9741  -17.1395   22.8256 C   0  0  0  0  0  0  0  0  0  0  0  0
   12.6221  -16.0791   23.0363 O   0  0  0  0  0  0  0  0  0  0  0  0
    9.9506  -18.2827   26.2105 O   0  0  0  0  0  0  0  0  0  0  0  0
   10.7130  -17.1300   26.0023 C   0  0  0  0  0  0  0  0  0  0  0  0
   11.9836  -17.5625   25.2732 C   0  0  2  0  0  0  0  0  0  0  0  0
   11.6567  -17.9816   23.9258 N   0  0  0  0  0  0  0  0  0  0  0  0
   12.5798  -18.6633   26.0494 C   0  0  0  0  0  0  0  0  0  0  0  0
   12.6306  -19.8050   25.5320 O   0  0  0  0  0  0  0  0  0  0  0  0
   13.0894  -18.5031   27.3259 O   0  0  0  0  0  0  0  0  0  0  0  0
  2  1  1  1
  2  3  1  0
  4  2  1  0
  5  4  1  0
  5  6  1  6
  7  5  1  0
  7  8  2  0
  9 10  1  0
 10 11  2  0
 10 12  1  0
 13 12  1  6
 13 14  1  0
 14  7  1  0
 15 20  1  0
 15 13  1  0
 16 15  2  0
 18 17  1  0
 19 18  1  1
 19 20  1  0
 19 21  1  0
 21 22  2  0
 21 23  1  0
M  END
$$$$
