KGN.pdb
     RDKit          3D

 22 21  0  0  1  0  0  0  0  0999 V2000
    6.2809  -17.2257   20.5827 N   0  0  0  0  0  0  0  0  0  0  0  0
    7.3509  -16.6275   21.3244 C   0  0  1  0  0  0  0  0  0  0  0  0
    7.6339  -15.1906   21.0198 C   0  0  0  0  0  0  0  0  0  0  0  0
    8.1632  -14.8897   19.6779 C   0  0  0  0  0  0  0  0  0  0  0  0
    8.4533  -13.4852   19.3296 C   0  0  0  0  0  0  0  0  0  0  0  0
    8.8703  -13.2165   17.9264 C   0  0  0  0  0  0  0  0  0  0  0  0
    9.0201  -11.8248   17.5944 N   0  0  0  0  0  0  0  0  0  0  0  0
    6.9460  -16.6612   22.7787 C   0  0  0  0  0  0  0  0  0  0  0  0
    5.7774  -16.3670   23.1378 O   0  0  0  0  0  0  0  0  0  0  0  0
    7.8624  -17.0242   23.7941 N   0  0  0  0  0  0  0  0  0  0  0  0
    7.5381  -16.7908   25.2067 C   0  0  0  0  0  0  0  0  0  0  0  0
    8.2944  -15.6552   25.7492 C   0  0  0  0  0  0  0  0  0  0  0  0
    9.3588  -15.3245   25.1840 O   0  0  0  0  0  0  0  0  0  0  0  0
    6.7892  -12.7085   25.7308 N   0  0  0  0  0  0  0  0  0  0  0  0
    6.6451  -12.3908   27.0994 C   0  0  0  0  0  0  0  0  0  0  0  0
    5.7196  -11.6208   27.4533 O   0  0  0  0  0  0  0  0  0  0  0  0
    7.5620  -12.9507   28.0973 C   0  0  0  0  0  0  0  0  0  0  0  0
    8.5662  -13.9180   27.4921 C   0  0  2  0  0  0  0  0  0  0  0  0
    7.8098  -14.9809   26.8712 N   0  0  0  0  0  0  0  0  0  0  0  0
    9.5353  -14.4026   28.4755 C   0  0  0  0  0  0  0  0  0  0  0  0
   10.5297  -13.5796   28.9703 O   0  0  0  0  0  0  0  0  0  0  0  0
    9.4795  -15.5836   28.8898 O   0  0  0  0  0  0  0  0  0  0  0  0
  2  1  1  6
  2  8  1  0
  2  3  1  0
  3  4  1  0
  4  5  1  0
  5  6  1  0
  6  7  1  0
  8  9  2  0
 10 11  1  0
 10  8  1  0
 11 12  1  0
 12 13  2  0
 12 19  1  0
 14 15  1  0
 15 17  1  0
 16 15  2  0
 18 17  1  1
 18 20  1  0
 19 18  1  0
 20 21  1  0
 22 20  2  0
M  END
$$$$
