KGN.pdb
     RDKit          3D

 22 21  0  0  1  0  0  0  0  0999 V2000
    7.3132  -20.2109   22.5638 N   0  0  0  0  0  0  0  0  0  0  0  0
    5.9484  -19.7749   22.5464 C   0  0  1  0  0  0  0  0  0  0  0  0
    5.0050  -20.5453   23.4147 C   0  0  0  0  0  0  0  0  0  0  0  0
    5.3292  -21.9634   23.6499 C   0  0  0  0  0  0  0  0  0  0  0  0
    5.4200  -22.4478   25.0410 C   0  0  0  0  0  0  0  0  0  0  0  0
    5.6031  -23.9128   25.2285 C   0  0  0  0  0  0  0  0  0  0  0  0
    4.4622  -24.7161   24.8784 N   0  0  0  0  0  0  0  0  0  0  0  0
    5.9341  -18.3641   23.0847 C   0  0  0  0  0  0  0  0  0  0  0  0
    4.8618  -17.8121   23.4404 O   0  0  0  0  0  0  0  0  0  0  0  0
    7.1235  -17.6077   23.2105 N   0  0  0  0  0  0  0  0  0  0  0  0
    7.0815  -16.2381   23.7370 C   0  0  0  0  0  0  0  0  0  0  0  0
    8.1642  -16.0011   24.7001 C   0  0  0  0  0  0  0  0  0  0  0  0
    9.3344  -16.2785   24.3602 O   0  0  0  0  0  0  0  0  0  0  0  0
    6.9705  -12.1225   27.1769 N   0  0  0  0  0  0  0  0  0  0  0  0
    8.1886  -12.8289   27.0677 C   0  0  0  0  0  0  0  0  0  0  0  0
    9.0927  -12.3760   26.3246 O   0  0  0  0  0  0  0  0  0  0  0  0
    8.3989  -14.0754   27.8107 C   0  0  0  0  0  0  0  0  0  0  0  0
    8.8986  -15.2067   26.9269 C   0  0  2  0  0  0  0  0  0  0  0  0
    7.8616  -15.4774   25.9581 N   0  0  0  0  0  0  0  0  0  0  0  0
    9.2844  -16.3881   27.6992 C   0  0  0  0  0  0  0  0  0  0  0  0
   10.4275  -16.3965   28.4767 O   0  0  0  0  0  0  0  0  0  0  0  0
    8.5782  -17.4223   27.6685 O   0  0  0  0  0  0  0  0  0  0  0  0
  2  1  1  1
  2  8  1  0
  2  3  1  0
  3  4  1  0
  4  5  1  0
  5  6  1  0
  6  7  1  0
  8  9  2  0
 10 11  1  0
 10  8  1  0
 11 12  1  0
 12 13  2  0
 12 19  1  0
 14 15  1  0
 15 17  1  0
 16 15  2  0
 18 17  1  1
 18 20  1  0
 19 18  1  0
 20 21  1  0
 22 20  2  0
M  END
$$$$
