KGN.pdb
     RDKit          3D

 22 21  0  0  1  0  0  0  0  0999 V2000
    9.4867  -16.4259   20.2185 N   0  0  0  0  0  0  0  0  0  0  0  0
    9.1063  -15.0775   20.5187 C   0  0  1  0  0  0  0  0  0  0  0  0
    8.1448  -14.4420   19.5653 C   0  0  0  0  0  0  0  0  0  0  0  0
    8.3181  -14.7624   18.1375 C   0  0  0  0  0  0  0  0  0  0  0  0
    7.7318  -13.8552   17.1319 C   0  0  0  0  0  0  0  0  0  0  0  0
    8.0101  -14.1700   15.7040 C   0  0  0  0  0  0  0  0  0  0  0  0
    7.3488  -13.3150   14.7547 N   0  0  0  0  0  0  0  0  0  0  0  0
    8.3946  -15.1109   21.8499 C   0  0  0  0  0  0  0  0  0  0  0  0
    7.9686  -14.0578   22.3890 O   0  0  0  0  0  0  0  0  0  0  0  0
    8.1784  -16.3254   22.5435 N   0  0  0  0  0  0  0  0  0  0  0  0
    7.5408  -16.3233   23.8658 C   0  0  0  0  0  0  0  0  0  0  0  0
    8.3489  -15.5907   24.8488 C   0  0  0  0  0  0  0  0  0  0  0  0
    9.5928  -15.6096   24.7294 O   0  0  0  0  0  0  0  0  0  0  0  0
    5.5196  -11.9810   26.6897 N   0  0  0  0  0  0  0  0  0  0  0  0
    6.8804  -12.3314   26.5467 C   0  0  0  0  0  0  0  0  0  0  0  0
    7.5223  -11.8973   25.5597 O   0  0  0  0  0  0  0  0  0  0  0  0
    7.5388  -13.1906   27.5358 C   0  0  0  0  0  0  0  0  0  0  0  0
    8.4712  -14.2083   26.8990 C   0  0  2  0  0  0  0  0  0  0  0  0
    7.7132  -14.8989   25.8812 N   0  0  0  0  0  0  0  0  0  0  0  0
    9.0652  -15.1126   27.8842 C   0  0  0  0  0  0  0  0  0  0  0  0
    8.9110  -16.4829   27.7866 O   0  0  0  0  0  0  0  0  0  0  0  0
    9.7303  -14.6554   28.8424 O   0  0  0  0  0  0  0  0  0  0  0  0
  2  1  1  6
  2  8  1  0
  2  3  1  0
  3  4  1  0
  4  5  1  0
  5  6  1  0
  6  7  1  0
  8  9  2  0
 10 11  1  0
 10  8  1  0
 11 12  1  0
 12 13  2  0
 12 19  1  0
 14 15  1  0
 15 17  1  0
 16 15  2  0
 18 17  1  1
 18 20  1  0
 19 18  1  0
 20 21  1  0
 22 20  2  0
M  END
$$$$
