KGN.pdb
     RDKit          3D

 22 21  0  0  1  0  0  0  0  0999 V2000
    8.0781  -18.4920   21.1268 N   0  0  0  0  0  0  0  0  0  0  0  0
    6.7537  -17.9479   21.0730 C   0  0  1  0  0  0  0  0  0  0  0  0
    5.6967  -18.7290   21.7873 C   0  0  0  0  0  0  0  0  0  0  0  0
    5.9456  -20.1702   21.9668 C   0  0  0  0  0  0  0  0  0  0  0  0
    4.9261  -20.9844   22.6565 C   0  0  0  0  0  0  0  0  0  0  0  0
    5.2753  -22.4058   22.9261 C   0  0  0  0  0  0  0  0  0  0  0  0
    4.3027  -23.1335   23.6968 N   0  0  0  0  0  0  0  0  0  0  0  0
    6.8042  -16.6071   21.7655 C   0  0  0  0  0  0  0  0  0  0  0  0
    5.9154  -16.2619   22.5851 O   0  0  0  0  0  0  0  0  0  0  0  0
    7.8511  -15.6867   21.5212 N   0  0  0  0  0  0  0  0  0  0  0  0
    7.8337  -14.3579   22.1449 C   0  0  0  0  0  0  0  0  0  0  0  0
    8.4402  -14.3859   23.4818 C   0  0  0  0  0  0  0  0  0  0  0  0
    9.6831  -14.2931   23.5736 O   0  0  0  0  0  0  0  0  0  0  0  0
    5.6862  -11.9439   26.3299 N   0  0  0  0  0  0  0  0  0  0  0  0
    6.9460  -12.4820   26.6738 C   0  0  0  0  0  0  0  0  0  0  0  0
    7.9221  -11.7069   26.8189 O   0  0  0  0  0  0  0  0  0  0  0  0
    7.1161  -13.9264   26.8599 C   0  0  0  0  0  0  0  0  0  0  0  0
    8.1733  -14.5149   25.9397 C   0  0  2  0  0  0  0  0  0  0  0  0
    7.6210  -14.5142   24.6047 N   0  0  0  0  0  0  0  0  0  0  0  0
    8.6170  -15.8391   26.3761 C   0  0  0  0  0  0  0  0  0  0  0  0
    9.4320  -15.9956   27.4818 O   0  0  0  0  0  0  0  0  0  0  0  0
    8.2623  -16.8638   25.7487 O   0  0  0  0  0  0  0  0  0  0  0  0
  2  1  1  1
  2  8  1  0
  2  3  1  0
  3  4  1  0
  4  5  1  0
  5  6  1  0
  6  7  1  0
  8  9  2  0
 10 11  1  0
 10  8  1  0
 11 12  1  0
 12 13  2  0
 12 19  1  0
 14 15  1  0
 15 17  1  0
 16 15  2  0
 18 17  1  1
 18 20  1  0
 19 18  1  0
 20 21  1  0
 22 20  2  0
M  END
$$$$
