KGN.pdb
     RDKit          3D

 22 21  0  0  1  0  0  0  0  0999 V2000
    4.6996  -16.8879   22.3068 N   0  0  0  0  0  0  0  0  0  0  0  0
    5.7872  -17.4610   21.5706 C   0  0  1  0  0  0  0  0  0  0  0  0
    6.8933  -16.5237   21.2028 C   0  0  0  0  0  0  0  0  0  0  0  0
    6.4983  -15.2278   20.6230 C   0  0  0  0  0  0  0  0  0  0  0  0
    7.5551  -14.2712   20.2410 C   0  0  0  0  0  0  0  0  0  0  0  0
    7.1062  -12.9505   19.7221 C   0  0  0  0  0  0  0  0  0  0  0  0
    8.1625  -12.0889   19.2623 N   0  0  0  0  0  0  0  0  0  0  0  0
    6.4184  -18.5018   22.4641 C   0  0  0  0  0  0  0  0  0  0  0  0
    7.3459  -19.2424   22.0491 O   0  0  0  0  0  0  0  0  0  0  0  0
    5.9931  -18.6858   23.8013 N   0  0  0  0  0  0  0  0  0  0  0  0
    6.6027  -19.7258   24.6390 C   0  0  0  0  0  0  0  0  0  0  0  0
    7.9186  -19.3080   25.1386 C   0  0  0  0  0  0  0  0  0  0  0  0
    8.6913  -20.1831   25.5846 O   0  0  0  0  0  0  0  0  0  0  0  0
    8.8155  -14.6357   23.3751 N   0  0  0  0  0  0  0  0  0  0  0  0
    9.5597  -15.7369   23.8532 C   0  0  0  0  0  0  0  0  0  0  0  0
   10.1525  -16.4765   23.0309 O   0  0  0  0  0  0  0  0  0  0  0  0
    9.6416  -16.0162   25.2903 C   0  0  0  0  0  0  0  0  0  0  0  0
    9.5447  -17.5002   25.6048 C   0  0  2  0  0  0  0  0  0  0  0  0
    8.2693  -17.9573   25.1029 N   0  0  0  0  0  0  0  0  0  0  0  0
    9.7351  -17.7817   27.0280 C   0  0  0  0  0  0  0  0  0  0  0  0
    8.7082  -18.2851   27.8046 O   0  0  0  0  0  0  0  0  0  0  0  0
   10.8433  -17.5690   27.5722 O   0  0  0  0  0  0  0  0  0  0  0  0
  2  1  1  1
  2  8  1  0
  2  3  1  0
  3  4  1  0
  4  5  1  0
  5  6  1  0
  6  7  1  0
  8  9  2  0
 10 11  1  0
 10  8  1  0
 11 12  1  0
 12 13  2  0
 12 19  1  0
 14 15  1  0
 15 17  1  0
 16 15  2  0
 18 17  1  1
 18 20  1  0
 19 18  1  0
 20 21  1  0
 22 20  2  0
M  END
$$$$
