KGN.pdb
     RDKit          3D

 22 21  0  0  1  0  0  0  0  0999 V2000
    8.5971  -17.6930   19.7936 N   0  0  0  0  0  0  0  0  0  0  0  0
    9.8112  -17.7812   19.0378 C   0  0  1  0  0  0  0  0  0  0  0  0
    9.8514  -16.9874   17.7707 C   0  0  0  0  0  0  0  0  0  0  0  0
    8.8356  -17.3114   16.7535 C   0  0  0  0  0  0  0  0  0  0  0  0
    8.7898  -16.5069   15.5171 C   0  0  0  0  0  0  0  0  0  0  0  0
    7.7657  -16.8901   14.5073 C   0  0  0  0  0  0  0  0  0  0  0  0
    7.7289  -16.0572   13.3349 N   0  0  0  0  0  0  0  0  0  0  0  0
   10.9081  -17.2135   19.9065 C   0  0  0  0  0  0  0  0  0  0  0  0
   12.1030  -17.1882   19.5157 O   0  0  0  0  0  0  0  0  0  0  0  0
   10.6371  -16.6882   21.1923 N   0  0  0  0  0  0  0  0  0  0  0  0
   11.6798  -15.9735   21.9386 C   0  0  0  0  0  0  0  0  0  0  0  0
   12.6117  -16.9068   22.5838 C   0  0  0  0  0  0  0  0  0  0  0  0
   12.2820  -18.1088   22.6757 O   0  0  0  0  0  0  0  0  0  0  0  0
   16.7710  -15.3298   21.6017 N   0  0  0  0  0  0  0  0  0  0  0  0
   16.4647  -16.6007   22.1363 C   0  0  0  0  0  0  0  0  0  0  0  0
   16.4719  -17.6002   21.3777 O   0  0  0  0  0  0  0  0  0  0  0  0
   16.1421  -16.7553   23.5583 C   0  0  0  0  0  0  0  0  0  0  0  0
   14.7408  -17.2988   23.7850 C   0  0  2  0  0  0  0  0  0  0  0  0
   13.8298  -16.4323   23.0731 N   0  0  0  0  0  0  0  0  0  0  0  0
   14.4166  -17.4283   25.2060 C   0  0  0  0  0  0  0  0  0  0  0  0
   13.3829  -16.7085   25.7757 O   0  0  0  0  0  0  0  0  0  0  0  0
   15.0771  -18.2015   25.9376 O   0  0  0  0  0  0  0  0  0  0  0  0
  2  1  1  1
  2  8  1  0
  2  3  1  0
  3  4  1  0
  4  5  1  0
  5  6  1  0
  6  7  1  0
  8  9  2  0
 10 11  1  0
 10  8  1  0
 11 12  1  0
 12 13  2  0
 12 19  1  0
 14 15  1  0
 15 17  1  0
 16 15  2  0
 18 17  1  1
 18 20  1  0
 19 18  1  0
 20 21  1  0
 22 20  2  0
M  END
$$$$
