KGN.pdb
     RDKit          3D

 22 21  0  0  1  0  0  0  0  0999 V2000
    6.9780  -15.6954   19.6123 N   0  0  0  0  0  0  0  0  0  0  0  0
    8.0175  -15.7212   18.6265 C   0  0  1  0  0  0  0  0  0  0  0  0
    8.4090  -14.3957   18.0546 C   0  0  0  0  0  0  0  0  0  0  0  0
    7.7394  -13.9888   16.8066 C   0  0  0  0  0  0  0  0  0  0  0  0
    8.5677  -13.7025   15.6193 C   0  0  0  0  0  0  0  0  0  0  0  0
    7.8433  -13.3634   14.3642 C   0  0  0  0  0  0  0  0  0  0  0  0
    8.6856  -12.9847   13.2613 N   0  0  0  0  0  0  0  0  0  0  0  0
    9.2555  -16.2485   19.3116 C   0  0  0  0  0  0  0  0  0  0  0  0
   10.3601  -16.3019   18.7131 O   0  0  0  0  0  0  0  0  0  0  0  0
    9.2235  -16.7028   20.6515 N   0  0  0  0  0  0  0  0  0  0  0  0
   10.4382  -17.2260   21.2885 C   0  0  0  0  0  0  0  0  0  0  0  0
   10.6552  -16.6187   22.6075 C   0  0  0  0  0  0  0  0  0  0  0  0
   11.7780  -16.1319   22.8612 O   0  0  0  0  0  0  0  0  0  0  0  0
    6.7046  -14.4570   23.9805 N   0  0  0  0  0  0  0  0  0  0  0  0
    8.0018  -14.4409   24.5391 C   0  0  0  0  0  0  0  0  0  0  0  0
    8.7458  -13.4530   24.3270 O   0  0  0  0  0  0  0  0  0  0  0  0
    8.4774  -15.5614   25.3566 C   0  0  0  0  0  0  0  0  0  0  0  0
    9.8122  -16.1096   24.8790 C   0  0  2  0  0  0  0  0  0  0  0  0
    9.6123  -16.6008   23.5351 N   0  0  0  0  0  0  0  0  0  0  0  0
   10.3548  -17.1224   25.7850 C   0  0  0  0  0  0  0  0  0  0  0  0
   10.6290  -18.4048   25.3475 O   0  0  0  0  0  0  0  0  0  0  0  0
   10.5823  -16.8416   26.9845 O   0  0  0  0  0  0  0  0  0  0  0  0
  2  1  1  1
  2  8  1  0
  2  3  1  0
  3  4  1  0
  4  5  1  0
  5  6  1  0
  6  7  1  0
  8  9  2  0
 10 11  1  0
 10  8  1  0
 11 12  1  0
 12 13  2  0
 12 19  1  0
 14 15  1  0
 15 17  1  0
 16 15  2  0
 18 17  1  1
 18 20  1  0
 19 18  1  0
 20 21  1  0
 22 20  2  0
M  END
$$$$
