KGN.pdb
     RDKit          3D

 22 21  0  0  1  0  0  0  0  0999 V2000
    9.2773  -15.1707   23.4031 N   0  0  0  0  0  0  0  0  0  0  0  0
    7.9161  -14.7235   23.3920 C   0  0  1  0  0  0  0  0  0  0  0  0
    7.2421  -14.7142   22.0567 C   0  0  0  0  0  0  0  0  0  0  0  0
    7.9017  -13.9449   20.9870 C   0  0  0  0  0  0  0  0  0  0  0  0
    7.3458  -14.0104   19.6215 C   0  0  0  0  0  0  0  0  0  0  0  0
    8.1168  -13.3206   18.5516 C   0  0  0  0  0  0  0  0  0  0  0  0
    7.6208  -13.5277   17.2172 N   0  0  0  0  0  0  0  0  0  0  0  0
    7.1297  -15.6979   24.2360 C   0  0  0  0  0  0  0  0  0  0  0  0
    5.9063  -15.9014   24.0290 O   0  0  0  0  0  0  0  0  0  0  0  0
    7.7358  -16.4199   25.2915 N   0  0  0  0  0  0  0  0  0  0  0  0
    8.9333  -17.2324   25.0452 C   0  0  0  0  0  0  0  0  0  0  0  0
    9.7045  -17.4371   26.2777 C   0  0  0  0  0  0  0  0  0  0  0  0
   10.5896  -18.3194   26.2864 O   0  0  0  0  0  0  0  0  0  0  0  0
    8.2744  -13.4227   27.8130 N   0  0  0  0  0  0  0  0  0  0  0  0
    9.5321  -14.0311   27.6059 C   0  0  0  0  0  0  0  0  0  0  0  0
   10.0881  -13.9182   26.4866 O   0  0  0  0  0  0  0  0  0  0  0  0
   10.1836  -14.7854   28.6813 C   0  0  0  0  0  0  0  0  0  0  0  0
   10.4859  -16.2224   28.2885 C   0  0  2  0  0  0  0  0  0  0  0  0
    9.4320  -16.6487   27.3969 N   0  0  0  0  0  0  0  0  0  0  0  0
   10.6420  -17.0967   29.4513 C   0  0  0  0  0  0  0  0  0  0  0  0
   11.6268  -16.8690   30.3945 O   0  0  0  0  0  0  0  0  0  0  0  0
    9.8780  -18.0762   29.6135 O   0  0  0  0  0  0  0  0  0  0  0  0
  2  1  1  6
  2  8  1  0
  2  3  1  0
  3  4  1  0
  4  5  1  0
  5  6  1  0
  6  7  1  0
  8  9  2  0
 10 11  1  0
 10  8  1  0
 11 12  1  0
 12 13  2  0
 12 19  1  0
 14 15  1  0
 15 17  1  0
 16 15  2  0
 18 17  1  1
 18 20  1  0
 19 18  1  0
 20 21  1  0
 22 20  2  0
M  END
$$$$
