KGN.pdb
     RDKit          3D

 22 21  0  0  1  0  0  0  0  0999 V2000
    8.3610  -16.2301   20.0439 N   0  0  0  0  0  0  0  0  0  0  0  0
    9.1641  -15.1237   20.4728 C   0  0  1  0  0  0  0  0  0  0  0  0
    9.1874  -13.9399   19.5588 C   0  0  0  0  0  0  0  0  0  0  0  0
    8.2139  -13.9377   18.4526 C   0  0  0  0  0  0  0  0  0  0  0  0
    8.7153  -13.8369   17.0682 C   0  0  0  0  0  0  0  0  0  0  0  0
    7.7205  -14.0405   15.9801 C   0  0  0  0  0  0  0  0  0  0  0  0
    8.2477  -13.9221   14.6468 N   0  0  0  0  0  0  0  0  0  0  0  0
    8.5652  -14.6253   21.7662 C   0  0  0  0  0  0  0  0  0  0  0  0
    9.2062  -13.8590   22.5298 O   0  0  0  0  0  0  0  0  0  0  0  0
    7.2616  -14.9990   22.1708 N   0  0  0  0  0  0  0  0  0  0  0  0
    6.7090  -14.5125   23.4409 C   0  0  0  0  0  0  0  0  0  0  0  0
    6.9794  -15.4511   24.5371 C   0  0  0  0  0  0  0  0  0  0  0  0
    6.3826  -15.2862   25.6227 O   0  0  0  0  0  0  0  0  0  0  0  0
    5.6376  -18.2327   24.6753 N   0  0  0  0  0  0  0  0  0  0  0  0
    6.6901  -19.1366   24.4104 C   0  0  0  0  0  0  0  0  0  0  0  0
    6.4350  -20.2153   23.8222 O   0  0  0  0  0  0  0  0  0  0  0  0
    8.0641  -18.8234   24.8153 C   0  0  0  0  0  0  0  0  0  0  0  0
    8.1984  -17.4262   25.3987 C   0  0  2  0  0  0  0  0  0  0  0  0
    7.8870  -16.4932   24.3404 N   0  0  0  0  0  0  0  0  0  0  0  0
    9.5138  -17.1965   25.9971 C   0  0  0  0  0  0  0  0  0  0  0  0
   10.4805  -16.4545   25.3443 O   0  0  0  0  0  0  0  0  0  0  0  0
    9.7888  -17.6732   27.1225 O   0  0  0  0  0  0  0  0  0  0  0  0
  2  1  1  6
  2  8  1  0
  2  3  1  0
  3  4  1  0
  4  5  1  0
  5  6  1  0
  6  7  1  0
  8  9  2  0
 10 11  1  0
 10  8  1  0
 11 12  1  0
 12 13  2  0
 12 19  1  0
 14 15  1  0
 15 17  1  0
 16 15  2  0
 18 17  1  6
 18 20  1  0
 19 18  1  0
 20 21  1  0
 22 20  2  0
M  END
$$$$
