KGN.pdb
     RDKit          3D

 22 21  0  0  1  0  0  0  0  0999 V2000
    8.6801  -18.0835   19.5091 N   0  0  0  0  0  0  0  0  0  0  0  0
    9.4047  -17.8979   18.2870 C   0  0  1  0  0  0  0  0  0  0  0  0
    9.1384  -16.6199   17.5570 C   0  0  0  0  0  0  0  0  0  0  0  0
    9.0610  -15.3949   18.3723 C   0  0  0  0  0  0  0  0  0  0  0  0
    7.8024  -14.6242   18.3749 C   0  0  0  0  0  0  0  0  0  0  0  0
    7.7566  -13.4210   19.2496 C   0  0  0  0  0  0  0  0  0  0  0  0
    6.4806  -12.7590   19.3039 N   0  0  0  0  0  0  0  0  0  0  0  0
   10.8699  -17.8595   18.6500 C   0  0  0  0  0  0  0  0  0  0  0  0
   11.7575  -17.7303   17.7688 O   0  0  0  0  0  0  0  0  0  0  0  0
   11.3029  -17.9669   19.9931 N   0  0  0  0  0  0  0  0  0  0  0  0
   12.7337  -17.9243   20.3188 C   0  0  0  0  0  0  0  0  0  0  0  0
   12.9540  -17.9648   21.7698 C   0  0  0  0  0  0  0  0  0  0  0  0
   12.5493  -18.9616   22.4057 O   0  0  0  0  0  0  0  0  0  0  0  0
   16.6221  -15.3518   22.4617 N   0  0  0  0  0  0  0  0  0  0  0  0
   16.1067  -16.1563   23.5019 C   0  0  0  0  0  0  0  0  0  0  0  0
   16.7585  -17.1608   23.8772 O   0  0  0  0  0  0  0  0  0  0  0  0
   14.8275  -15.8263   24.1381 C   0  0  0  0  0  0  0  0  0  0  0  0
   13.7416  -16.8451   23.8327 C   0  0  2  0  0  0  0  0  0  0  0  0
   13.6035  -16.8993   22.3956 N   0  0  0  0  0  0  0  0  0  0  0  0
   12.4850  -16.5424   24.5185 C   0  0  0  0  0  0  0  0  0  0  0  0
   12.4002  -16.5478   25.8984 O   0  0  0  0  0  0  0  0  0  0  0  0
   11.4544  -16.2707   23.8602 O   0  0  0  0  0  0  0  0  0  0  0  0
  2  1  1  1
  2  8  1  0
  2  3  1  0
  3  4  1  0
  4  5  1  0
  5  6  1  0
  6  7  1  0
  8  9  2  0
 10 11  1  0
 10  8  1  0
 11 12  1  0
 12 13  2  0
 12 19  1  0
 14 15  1  0
 15 17  1  0
 16 15  2  0
 18 17  1  6
 18 20  1  0
 19 18  1  0
 20 21  1  0
 22 20  2  0
M  END
$$$$
