KGN.pdb
     RDKit          3D

 22 21  0  0  1  0  0  0  0  0999 V2000
    8.7406  -18.7439   21.5615 N   0  0  0  0  0  0  0  0  0  0  0  0
    7.7675  -18.2754   20.6199 C   0  0  1  0  0  0  0  0  0  0  0  0
    6.5022  -19.0690   20.5381 C   0  0  0  0  0  0  0  0  0  0  0  0
    6.4106  -20.2605   21.4002 C   0  0  0  0  0  0  0  0  0  0  0  0
    5.1566  -21.0386   21.4021 C   0  0  0  0  0  0  0  0  0  0  0  0
    5.1404  -22.2792   22.2241 C   0  0  0  0  0  0  0  0  0  0  0  0
    3.8998  -23.0071   22.1989 N   0  0  0  0  0  0  0  0  0  0  0  0
    7.3520  -16.8958   21.0717 C   0  0  0  0  0  0  0  0  0  0  0  0
    6.4350  -16.2657   20.4858 O   0  0  0  0  0  0  0  0  0  0  0  0
    7.9757  -16.2574   22.1700 N   0  0  0  0  0  0  0  0  0  0  0  0
    7.5536  -14.9148   22.5874 C   0  0  0  0  0  0  0  0  0  0  0  0
    8.2997  -14.4617   23.7679 C   0  0  0  0  0  0  0  0  0  0  0  0
    9.5441  -14.3765   23.6890 O   0  0  0  0  0  0  0  0  0  0  0  0
    5.5011  -11.6328   26.3844 N   0  0  0  0  0  0  0  0  0  0  0  0
    6.8821  -11.9015   26.5092 C   0  0  0  0  0  0  0  0  0  0  0  0
    7.7091  -11.0458   26.1110 O   0  0  0  0  0  0  0  0  0  0  0  0
    7.3484  -13.1620   27.0955 C   0  0  0  0  0  0  0  0  0  0  0  0
    8.3024  -13.9149   26.1826 C   0  0  2  0  0  0  0  0  0  0  0  0
    7.6069  -14.1409   24.9365 N   0  0  0  0  0  0  0  0  0  0  0  0
    8.8011  -15.1477   26.7928 C   0  0  0  0  0  0  0  0  0  0  0  0
    9.6845  -15.1170   27.8558 O   0  0  0  0  0  0  0  0  0  0  0  0
    8.4321  -16.2631   26.3580 O   0  0  0  0  0  0  0  0  0  0  0  0
  2  1  1  1
  2  8  1  0
  2  3  1  0
  3  4  1  0
  4  5  1  0
  5  6  1  0
  6  7  1  0
  8  9  2  0
 10 11  1  0
 10  8  1  0
 11 12  1  0
 12 13  2  0
 12 19  1  0
 14 15  1  0
 15 17  1  0
 16 15  2  0
 18 17  1  1
 18 20  1  0
 19 18  1  0
 20 21  1  0
 22 20  2  0
M  END
$$$$
