KGN.pdb
     RDKit          3D

 22 21  0  0  1  0  0  0  0  0999 V2000
    9.4189  -15.5680   22.0362 N   0  0  0  0  0  0  0  0  0  0  0  0
    8.2166  -14.7947   22.1350 C   0  0  1  0  0  0  0  0  0  0  0  0
    7.5043  -14.5266   20.8473 C   0  0  0  0  0  0  0  0  0  0  0  0
    8.3348  -14.1010   19.7069 C   0  0  0  0  0  0  0  0  0  0  0  0
    7.6702  -13.7689   18.4318 C   0  0  0  0  0  0  0  0  0  0  0  0
    8.5560  -13.4533   17.2781 C   0  0  0  0  0  0  0  0  0  0  0  0
    7.8721  -13.2250   16.0333 N   0  0  0  0  0  0  0  0  0  0  0  0
    7.2500  -15.5962   22.9735 C   0  0  0  0  0  0  0  0  0  0  0  0
    6.0858  -15.1807   23.2040 O   0  0  0  0  0  0  0  0  0  0  0  0
    7.6136  -16.8443   23.5328 N   0  0  0  0  0  0  0  0  0  0  0  0
    6.8640  -17.3976   24.6672 C   0  0  0  0  0  0  0  0  0  0  0  0
    7.4433  -16.9758   25.9487 C   0  0  0  0  0  0  0  0  0  0  0  0
    6.8669  -17.3175   27.0037 O   0  0  0  0  0  0  0  0  0  0  0  0
    6.8100  -12.8126   26.7966 N   0  0  0  0  0  0  0  0  0  0  0  0
    8.0184  -13.5438   26.8030 C   0  0  0  0  0  0  0  0  0  0  0  0
    8.9321  -13.2204   26.0060 O   0  0  0  0  0  0  0  0  0  0  0  0
    8.2075  -14.6667   27.7268 C   0  0  0  0  0  0  0  0  0  0  0  0
    9.1725  -15.7109   27.1893 C   0  0  2  0  0  0  0  0  0  0  0  0
    8.6113  -16.2115   25.9557 N   0  0  0  0  0  0  0  0  0  0  0  0
    9.4498  -16.7669   28.1634 C   0  0  0  0  0  0  0  0  0  0  0  0
   10.7439  -17.1656   28.4421 O   0  0  0  0  0  0  0  0  0  0  0  0
    8.5097  -17.3333   28.7673 O   0  0  0  0  0  0  0  0  0  0  0  0
  2  1  1  6
  2  8  1  0
  2  3  1  0
  3  4  1  0
  4  5  1  0
  5  6  1  0
  6  7  1  0
  8  9  2  0
 10 11  1  0
 10  8  1  0
 11 12  1  0
 12 13  2  0
 12 19  1  0
 14 15  1  0
 15 17  1  0
 16 15  2  0
 18 17  1  1
 18 20  1  0
 19 18  1  0
 20 21  1  0
 22 20  2  0
M  END
$$$$
