KGN.pdb
     RDKit          3D

 22 21  0  0  1  0  0  0  0  0999 V2000
    9.2289  -12.7527   19.1421 N   0  0  0  0  0  0  0  0  0  0  0  0
    7.9092  -13.2818   19.3202 C   0  0  1  0  0  0  0  0  0  0  0  0
    7.1279  -13.5244   18.0680 C   0  0  0  0  0  0  0  0  0  0  0  0
    7.9009  -13.8614   16.8595 C   0  0  0  0  0  0  0  0  0  0  0  0
    7.1745  -14.0949   15.5964 C   0  0  0  0  0  0  0  0  0  0  0  0
    8.0025  -14.3230   14.3808 C   0  0  0  0  0  0  0  0  0  0  0  0
    7.2558  -14.5559   13.1735 N   0  0  0  0  0  0  0  0  0  0  0  0
    8.0661  -14.6364   19.9687 C   0  0  0  0  0  0  0  0  0  0  0  0
    7.0650  -15.3253   20.2915 O   0  0  0  0  0  0  0  0  0  0  0  0
    9.3426  -15.1845   20.2389 N   0  0  0  0  0  0  0  0  0  0  0  0
    9.4694  -16.5462   20.7722 C   0  0  0  0  0  0  0  0  0  0  0  0
   10.8753  -16.9040   20.9984 C   0  0  0  0  0  0  0  0  0  0  0  0
   11.1394  -18.0606   21.3914 O   0  0  0  0  0  0  0  0  0  0  0  0
   13.6620  -15.8007   18.7442 N   0  0  0  0  0  0  0  0  0  0  0  0
   14.2064  -14.7985   19.5775 C   0  0  0  0  0  0  0  0  0  0  0  0
   14.9189  -13.9005   19.0670 O   0  0  0  0  0  0  0  0  0  0  0  0
   13.9453  -14.8030   21.0203 C   0  0  0  0  0  0  0  0  0  0  0  0
   13.1366  -16.0107   21.4653 C   0  0  2  0  0  0  0  0  0  0  0  0
   11.8710  -15.9526   20.7708 N   0  0  0  0  0  0  0  0  0  0  0  0
   12.9901  -16.0779   22.9196 C   0  0  0  0  0  0  0  0  0  0  0  0
   12.0384  -15.3247   23.5815 O   0  0  0  0  0  0  0  0  0  0  0  0
   13.7323  -16.8268   23.5962 O   0  0  0  0  0  0  0  0  0  0  0  0
  2  1  1  6
  2  8  1  0
  2  3  1  0
  3  4  1  0
  4  5  1  0
  5  6  1  0
  6  7  1  0
  8  9  2  0
 10 11  1  0
 10  8  1  0
 11 12  1  0
 12 13  2  0
 12 19  1  0
 14 15  1  0
 15 17  1  0
 16 15  2  0
 18 17  1  1
 18 20  1  0
 19 18  1  0
 20 21  1  0
 22 20  2  0
M  END
$$$$
