KGN.pdb
     RDKit          3D

 22 21  0  0  1  0  0  0  0  0999 V2000
    7.8640  -16.7843   20.3886 N   0  0  0  0  0  0  0  0  0  0  0  0
    7.6873  -15.8818   21.4874 C   0  0  1  0  0  0  0  0  0  0  0  0
    6.5909  -14.8756   21.3370 C   0  0  0  0  0  0  0  0  0  0  0  0
    6.5348  -14.1427   20.0598 C   0  0  0  0  0  0  0  0  0  0  0  0
    7.7815  -13.5689   19.5173 C   0  0  0  0  0  0  0  0  0  0  0  0
    7.6970  -12.9362   18.1728 C   0  0  0  0  0  0  0  0  0  0  0  0
    8.9540  -12.4933   17.6310 N   0  0  0  0  0  0  0  0  0  0  0  0
    7.3063  -16.7204   22.6839 C   0  0  0  0  0  0  0  0  0  0  0  0
    7.3440  -17.9765   22.6393 O   0  0  0  0  0  0  0  0  0  0  0  0
    6.8924  -16.1288   23.9010 N   0  0  0  0  0  0  0  0  0  0  0  0
    7.0258  -16.8605   25.1667 C   0  0  0  0  0  0  0  0  0  0  0  0
    8.2508  -16.4779   25.8799 C   0  0  0  0  0  0  0  0  0  0  0  0
    9.3434  -16.9222   25.4667 O   0  0  0  0  0  0  0  0  0  0  0  0
    6.8764  -12.2054   27.4707 N   0  0  0  0  0  0  0  0  0  0  0  0
    8.0369  -12.8933   27.0523 C   0  0  0  0  0  0  0  0  0  0  0  0
    8.3453  -12.8869   25.8360 O   0  0  0  0  0  0  0  0  0  0  0  0
    8.8734  -13.6068   28.0224 C   0  0  0  0  0  0  0  0  0  0  0  0
    9.3312  -14.9643   27.5142 C   0  0  2  0  0  0  0  0  0  0  0  0
    8.1645  -15.6361   26.9900 N   0  0  0  0  0  0  0  0  0  0  0  0
   10.0253  -15.7392   28.5432 C   0  0  0  0  0  0  0  0  0  0  0  0
   11.1929  -15.2797   29.1234 O   0  0  0  0  0  0  0  0  0  0  0  0
    9.5685  -16.8434   28.9194 O   0  0  0  0  0  0  0  0  0  0  0  0
  2  1  1  6
  2  8  1  0
  2  3  1  0
  3  4  1  0
  4  5  1  0
  5  6  1  0
  6  7  1  0
  8  9  2  0
 10 11  1  0
 10  8  1  0
 11 12  1  0
 12 13  2  0
 12 19  1  0
 14 15  1  0
 15 17  1  0
 16 15  2  0
 18 17  1  1
 18 20  1  0
 19 18  1  0
 20 21  1  0
 22 20  2  0
M  END
$$$$
