RPV.pdb
     RDKit          3D

 26 26  0  0  1  0  0  0  0  0999 V2000
    8.0117  -19.9284   24.8361 N   0  0  0  0  0  0  0  0  0  0  0  0
    9.3777  -20.3634   24.7768 C   0  0  0  0  0  0  0  0  0  0  0  0
    9.9883  -20.5805   25.8718 N   0  0  0  0  0  0  0  0  0  0  0  0
   10.0396  -20.5526   23.5303 N   0  0  0  0  0  0  0  0  0  0  0  0
    9.5025  -20.0401   22.2984 C   0  0  0  0  0  0  0  0  0  0  0  0
   10.0998  -18.7416   21.8441 C   0  0  0  0  0  0  0  0  0  0  0  0
    9.4558  -18.2770   20.5607 C   0  0  0  0  0  0  0  0  0  0  0  0
    9.8599  -16.9020   20.1169 C   0  0  2  0  0  0  0  0  0  0  0  0
   11.1669  -17.0242   19.5028 N   0  0  0  0  0  0  0  0  0  0  0  0
    9.9236  -15.9455   21.2553 C   0  0  0  0  0  0  0  0  0  0  0  0
   11.0899  -15.5357   21.5977 O   0  0  0  0  0  0  0  0  0  0  0  0
   10.9775  -20.8763   25.8674 N   0  0  0  0  0  0  0  0  0  0  0  0
    8.7805  -15.4838   21.9541 C   0  0  0  0  0  0  0  0  0  0  0  0
    7.4109  -15.8513   21.6895 C   0  0  0  0  0  0  0  0  0  0  0  0
    6.5441  -14.9549   22.5565 C   0  0  0  0  0  0  0  0  0  0  0  0
    7.4983  -13.7904   22.8449 C   0  0  2  0  0  0  0  0  0  0  0  0
    8.7861  -14.5626   23.0492 C   0  0  0  0  0  0  0  0  0  0  0  0
    8.6027  -15.3233   24.3348 O   0  0  0  0  0  0  0  0  0  0  0  0
    8.3661  -16.5579   24.3258 C   0  0  0  0  0  0  0  0  0  0  0  0
   10.3709  -14.8190   28.9500 C   0  0  2  0  0  0  0  0  0  0  0  0
    9.4476  -14.2569   27.8907 C   0  0  0  0  0  0  0  0  0  0  0  0
    9.7968  -12.8278   27.6262 C   0  0  1  0  0  0  0  0  0  0  0  0
    9.5290  -15.1451   26.6806 N   0  0  0  0  0  0  0  0  0  0  0  0
    8.6863  -14.6885   25.5964 C   0  0  0  0  0  0  0  0  0  0  0  0
    9.0706  -16.4886   27.0834 O   0  0  0  0  0  0  0  0  0  0  0  0
    7.9176  -16.8736   26.7974 O   0  0  0  0  0  0  0  0  0  0  0  0
  2  3  2  0
  2  1  1  0
  4  2  1  0
  5  4  1  0
  6  7  1  0
  6  5  1  0
  7  8  1  0
  8  9  1  1
 10 12  1  0
 10  8  1  0
 11 10  2  0
 12 16  1  0
 13 14  1  0
 13 12  1  0
 14 15  1  0
 16 15  1  0
 16 17  1  1
 17 18  2  0
 20 19  1  1
 20 21  1  0
 20 22  1  0
 22 23  1  1
 23 17  1  0
 24 22  1  0
 25 24  2  0
 26 24  1  0
M  END
$$$$
