RPV.pdb
     RDKit          3D

 26 26  0  0  1  0  0  0  0  0999 V2000
   14.8919  -14.5165   20.3926 N   0  0  0  0  0  0  0  0  0  0  0  0
   13.9887  -14.9308   19.3576 C   0  0  0  0  0  0  0  0  0  0  0  0
   14.4369  -15.6796   18.4317 N   0  0  0  0  0  0  0  0  0  0  0  0
   12.6246  -14.5221   19.3599 N   0  0  0  0  0  0  0  0  0  0  0  0
   12.0985  -13.6334   20.3611 C   0  0  0  0  0  0  0  0  0  0  0  0
   10.6306  -13.3502   20.2415 C   0  0  0  0  0  0  0  0  0  0  0  0
    9.9479  -14.4093   19.4107 C   0  0  0  0  0  0  0  0  0  0  0  0
    8.4629  -14.2426   19.2774 C   0  0  2  0  0  0  0  0  0  0  0  0
    8.2400  -12.9970   18.5711 N   0  0  0  0  0  0  0  0  0  0  0  0
    7.7859  -14.2008   20.6021 C   0  0  0  0  0  0  0  0  0  0  0  0
    7.2646  -13.0805   20.9466 O   0  0  0  0  0  0  0  0  0  0  0  0
   13.8225  -15.9742   17.6560 N   0  0  0  0  0  0  0  0  0  0  0  0
    7.6973  -15.3167   21.4710 C   0  0  0  0  0  0  0  0  0  0  0  0
    8.4077  -16.5647   21.3343 C   0  0  0  0  0  0  0  0  0  0  0  0
    7.8367  -17.5077   22.3790 C   0  0  0  0  0  0  0  0  0  0  0  0
    6.4759  -16.8624   22.6646 C   0  0  1  0  0  0  0  0  0  0  0  0
    6.8784  -15.4016   22.6415 C   0  0  0  0  0  0  0  0  0  0  0  0
    7.7375  -15.1987   23.8605 O   0  0  0  0  0  0  0  0  0  0  0  0
    8.9664  -15.4624   23.8349 C   0  0  0  0  0  0  0  0  0  0  0  0
    6.9745  -11.8036   25.8074 C   0  0  2  0  0  0  0  0  0  0  0  0
    7.1918  -12.9418   26.7811 C   0  0  0  0  0  0  0  0  0  0  0  0
    5.8751  -13.4029   27.3176 C   0  0  2  0  0  0  0  0  0  0  0  0
    7.9804  -14.0125   26.0800 N   0  0  0  0  0  0  0  0  0  0  0  0
    7.2049  -14.7089   25.0762 C   0  0  0  0  0  0  0  0  0  0  0  0
    8.4000  -14.9945   27.0984 O   0  0  0  0  0  0  0  0  0  0  0  0
    7.8300  -16.1027   27.1786 O   0  0  0  0  0  0  0  0  0  0  0  0
  2  3  2  0
  2  1  1  0
  4  2  1  0
  5  4  1  0
  6  7  1  0
  6  5  1  0
  7  8  1  0
  8  9  1  1
 10 12  1  0
 10  8  1  0
 11 10  2  0
 12 16  1  0
 13 14  1  0
 13 12  1  0
 14 15  1  0
 16 15  1  0
 16 17  1  1
 17 18  2  0
 20 19  1  1
 20 21  1  0
 20 22  1  0
 22 23  1  1
 23 17  1  0
 24 22  1  0
 25 24  2  0
 26 24  1  0
M  END
$$$$
