RPV.pdb
     RDKit          3D

 26 26  0  0  1  0  0  0  0  0999 V2000
   11.8885  -16.4549   21.5078 N   0  0  0  0  0  0  0  0  0  0  0  0
   12.6245  -15.6521   20.5737 C   0  0  0  0  0  0  0  0  0  0  0  0
   13.2964  -16.2440   19.6697 N   0  0  0  0  0  0  0  0  0  0  0  0
   12.6070  -14.2301   20.6468 N   0  0  0  0  0  0  0  0  0  0  0  0
   11.6757  -13.4407   19.8864 C   0  0  0  0  0  0  0  0  0  0  0  0
   10.3433  -13.2344   20.5433 C   0  0  0  0  0  0  0  0  0  0  0  0
    9.2709  -12.9862   19.5107 C   0  0  0  0  0  0  0  0  0  0  0  0
    8.2559  -14.0836   19.3831 C   0  0  2  0  0  0  0  0  0  0  0  0
    7.3159  -13.6717   18.3598 N   0  0  0  0  0  0  0  0  0  0  0  0
    7.5358  -14.3279   20.6624 C   0  0  0  0  0  0  0  0  0  0  0  0
    6.5907  -13.5116   20.9554 O   0  0  0  0  0  0  0  0  0  0  0  0
   13.8716  -15.7000   19.0070 N   0  0  0  0  0  0  0  0  0  0  0  0
    7.8442  -15.3950   21.5423 C   0  0  0  0  0  0  0  0  0  0  0  0
    8.9178  -16.3461   21.3888 C   0  0  0  0  0  0  0  0  0  0  0  0
    8.7197  -17.4034   22.4610 C   0  0  0  0  0  0  0  0  0  0  0  0
    7.2328  -17.2309   22.7918 C   0  0  1  0  0  0  0  0  0  0  0  0
    7.1361  -15.7194   22.7429 C   0  0  0  0  0  0  0  0  0  0  0  0
    7.9211  -15.2246   23.9277 O   0  0  0  0  0  0  0  0  0  0  0  0
    9.1767  -15.2858   23.9409 C   0  0  0  0  0  0  0  0  0  0  0  0
    7.0482  -11.7210   25.3710 C   0  0  2  0  0  0  0  0  0  0  0  0
    7.1417  -12.7017   26.5199 C   0  0  0  0  0  0  0  0  0  0  0  0
    5.7682  -13.0591   26.9890 C   0  0  2  0  0  0  0  0  0  0  0  0
    7.9627  -13.8764   26.0662 N   0  0  0  0  0  0  0  0  0  0  0  0
    7.2870  -14.6761   25.0673 C   0  0  0  0  0  0  0  0  0  0  0  0
    8.2098  -14.7283   27.2455 O   0  0  0  0  0  0  0  0  0  0  0  0
    7.5996  -15.8092   27.3818 O   0  0  0  0  0  0  0  0  0  0  0  0
  2  3  2  0
  2  1  1  0
  4  2  1  0
  5  4  1  0
  6  7  1  0
  6  5  1  0
  7  8  1  0
  8  9  1  6
 10 12  1  0
 10  8  1  0
 11 10  2  0
 12 16  1  0
 13 14  1  0
 13 12  1  0
 14 15  1  0
 16 15  1  0
 16 17  1  1
 17 18  2  0
 20 19  1  1
 20 21  1  0
 20 22  1  0
 22 23  1  1
 23 17  1  0
 24 22  1  0
 25 24  2  0
 26 24  1  0
M  END
$$$$
