RPV.pdb
     RDKit          3D

 26 26  0  0  1  0  0  0  0  0999 V2000
   10.7318  -18.3424   21.9907 N   0  0  0  0  0  0  0  0  0  0  0  0
   11.9810  -17.7831   21.5603 C   0  0  0  0  0  0  0  0  0  0  0  0
   13.0496  -18.4199   21.8278 N   0  0  0  0  0  0  0  0  0  0  0  0
   12.0331  -16.5502   20.8497 N   0  0  0  0  0  0  0  0  0  0  0  0
   11.2488  -16.3209   19.6660 C   0  0  0  0  0  0  0  0  0  0  0  0
    9.8120  -15.9746   19.9212 C   0  0  0  0  0  0  0  0  0  0  0  0
    9.4771  -14.6219   19.3415 C   0  0  0  0  0  0  0  0  0  0  0  0
    8.0636  -14.1737   19.5686 C   0  0  2  0  0  0  0  0  0  0  0  0
    7.9493  -12.8405   19.0119 N   0  0  0  0  0  0  0  0  0  0  0  0
    7.7123  -14.1496   21.0146 C   0  0  0  0  0  0  0  0  0  0  0  0
    7.7200  -13.0029   21.5894 O   0  0  0  0  0  0  0  0  0  0  0  0
   13.9637  -18.0626   21.5073 N   0  0  0  0  0  0  0  0  0  0  0  0
    7.3795  -15.3091   21.7582 C   0  0  0  0  0  0  0  0  0  0  0  0
    7.4613  -16.6732   21.2963 C   0  0  0  0  0  0  0  0  0  0  0  0
    6.8154  -17.5352   22.3671 C   0  0  0  0  0  0  0  0  0  0  0  0
    5.9478  -16.5095   23.1054 C   0  0  2  0  0  0  0  0  0  0  0  0
    6.8968  -15.3280   23.1052 C   0  0  0  0  0  0  0  0  0  0  0  0
    8.0223  -15.7123   24.0274 O   0  0  0  0  0  0  0  0  0  0  0  0
    9.0542  -16.2779   23.5851 C   0  0  0  0  0  0  0  0  0  0  0  0
   10.0040  -13.7520   28.0704 C   0  0  2  0  0  0  0  0  0  0  0  0
    8.7759  -13.9999   27.2212 C   0  0  0  0  0  0  0  0  0  0  0  0
    8.3145  -12.7131   26.6168 C   0  0  1  0  0  0  0  0  0  0  0  0
    9.1099  -15.0674   26.2168 N   0  0  0  0  0  0  0  0  0  0  0  0
    7.9682  -15.4579   25.4180 C   0  0  0  0  0  0  0  0  0  0  0  0
    9.5733  -16.2522   26.9646 O   0  0  0  0  0  0  0  0  0  0  0  0
    8.8020  -17.2138   27.1636 O   0  0  0  0  0  0  0  0  0  0  0  0
  2  3  2  0
  2  1  1  0
  4  2  1  0
  5  4  1  0
  6  7  1  0
  6  5  1  0
  7  8  1  0
  8  9  1  1
 10 12  1  0
 10  8  1  0
 11 10  2  0
 12 16  1  0
 13 14  1  0
 13 12  1  0
 14 15  1  0
 16 15  1  0
 16 17  1  1
 17 18  2  0
 20 19  1  1
 20 21  1  0
 20 22  1  0
 22 23  1  1
 23 17  1  0
 24 22  1  0
 25 24  2  0
 26 24  1  0
M  END
$$$$
