RPV.pdb
     RDKit          3D

 26 26  0  0  1  0  0  0  0  0999 V2000
    6.5368  -19.7099   24.4695 N   0  0  0  0  0  0  0  0  0  0  0  0
    7.1971  -19.5750   23.2028 C   0  0  0  0  0  0  0  0  0  0  0  0
    7.0476  -20.5022   22.3443 N   0  0  0  0  0  0  0  0  0  0  0  0
    7.9979  -18.4361   22.9043 N   0  0  0  0  0  0  0  0  0  0  0  0
    7.5234  -17.0953   23.1187 C   0  0  0  0  0  0  0  0  0  0  0  0
    6.7725  -16.5020   21.9639 C   0  0  0  0  0  0  0  0  0  0  0  0
    6.2589  -15.1258   22.3107 C   0  0  0  0  0  0  0  0  0  0  0  0
    7.2334  -14.0116   22.0665 C   0  0  2  0  0  0  0  0  0  0  0  0
    7.9567  -14.3420   20.8549 N   0  0  0  0  0  0  0  0  0  0  0  0
    8.1879  -13.8486   23.1967 C   0  0  0  0  0  0  0  0  0  0  0  0
    9.4330  -13.9914   22.9232 O   0  0  0  0  0  0  0  0  0  0  0  0
    7.5004  -20.4341   21.4190 N   0  0  0  0  0  0  0  0  0  0  0  0
    7.7867  -13.5506   24.5227 C   0  0  0  0  0  0  0  0  0  0  0  0
    6.4405  -13.2887   24.9698 C   0  0  0  0  0  0  0  0  0  0  0  0
    6.5427  -12.8285   26.4135 C   0  0  0  0  0  0  0  0  0  0  0  0
    8.0022  -12.3653   26.4859 C   0  0  2  0  0  0  0  0  0  0  0  0
    8.6546  -13.4528   25.6563 C   0  0  0  0  0  0  0  0  0  0  0  0
    8.5404  -14.7104   26.4751 O   0  0  0  0  0  0  0  0  0  0  0  0
    7.4273  -15.2682   26.6490 C   0  0  0  0  0  0  0  0  0  0  0  0
   10.1438  -17.5706   25.2545 C   0  0  2  0  0  0  0  0  0  0  0  0
   10.6780  -17.5133   26.6694 C   0  0  0  0  0  0  0  0  0  0  0  0
   12.0787  -16.9919   26.6574 C   0  0  2  0  0  0  0  0  0  0  0  0
    9.7240  -16.6974   27.4966 N   0  0  0  0  0  0  0  0  0  0  0  0
    9.6687  -15.3127   27.0798 C   0  0  0  0  0  0  0  0  0  0  0  0
   10.1997  -16.7375   28.8929 O   0  0  0  0  0  0  0  0  0  0  0  0
   10.6934  -15.7190   29.4205 O   0  0  0  0  0  0  0  0  0  0  0  0
  2  3  2  0
  2  1  1  0
  4  2  1  0
  5  4  1  0
  6  7  1  0
  6  5  1  0
  7  8  1  0
  8  9  1  6
 10 12  1  0
 10  8  1  0
 11 10  2  0
 12 16  1  0
 13 14  1  0
 13 12  1  0
 14 15  1  0
 16 15  1  0
 16 17  1  1
 17 18  2  0
 20 19  1  6
 20 21  1  0
 20 22  1  0
 22 23  1  1
 23 17  1  0
 24 22  1  0
 25 24  2  0
 26 24  1  0
M  END
$$$$
