RPV.pdb
     RDKit          3D

 26 26  0  0  1  0  0  0  0  0999 V2000
   15.3847  -14.3251   19.6162 N   0  0  0  0  0  0  0  0  0  0  0  0
   14.0865  -14.7330   19.1612 C   0  0  0  0  0  0  0  0  0  0  0  0
   13.9855  -15.8414   18.5445 N   0  0  0  0  0  0  0  0  0  0  0  0
   12.9356  -13.9267   19.3916 N   0  0  0  0  0  0  0  0  0  0  0  0
   12.1486  -14.0489   20.5893 C   0  0  0  0  0  0  0  0  0  0  0  0
   10.7557  -14.5627   20.3766 C   0  0  0  0  0  0  0  0  0  0  0  0
    9.9941  -13.6664   19.4308 C   0  0  0  0  0  0  0  0  0  0  0  0
    8.5836  -14.0974   19.1557 C   0  0  2  0  0  0  0  0  0  0  0  0
    7.9894  -13.0813   18.3104 N   0  0  0  0  0  0  0  0  0  0  0  0
    7.7910  -14.2411   20.4071 C   0  0  0  0  0  0  0  0  0  0  0  0
    7.1039  -13.2216   20.7730 O   0  0  0  0  0  0  0  0  0  0  0  0
   13.0612  -16.1866   18.2404 N   0  0  0  0  0  0  0  0  0  0  0  0
    7.7664  -15.4247   21.1860 C   0  0  0  0  0  0  0  0  0  0  0  0
    8.5748  -16.6012   20.9786 C   0  0  0  0  0  0  0  0  0  0  0  0
    8.0514  -17.6628   21.9302 C   0  0  0  0  0  0  0  0  0  0  0  0
    6.6376  -17.1459   22.2197 C   0  0  1  0  0  0  0  0  0  0  0  0
    6.9260  -15.6616   22.3198 C   0  0  0  0  0  0  0  0  0  0  0  0
    7.7343  -15.4899   23.5776 O   0  0  0  0  0  0  0  0  0  0  0  0
    8.9868  -15.5953   23.5591 C   0  0  0  0  0  0  0  0  0  0  0  0
    7.3468  -12.8515   27.7358 C   0  0  2  0  0  0  0  0  0  0  0  0
    6.6498  -13.6103   26.6272 C   0  0  0  0  0  0  0  0  0  0  0  0
    5.8055  -12.6707   25.8283 C   0  0  1  0  0  0  0  0  0  0  0  0
    7.6965  -14.3319   25.8249 N   0  0  0  0  0  0  0  0  0  0  0  0
    7.1260  -15.2067   24.8232 C   0  0  0  0  0  0  0  0  0  0  0  0
    8.4832  -15.1580   26.7610 O   0  0  0  0  0  0  0  0  0  0  0  0
    8.1344  -16.3300   27.0140 O   0  0  0  0  0  0  0  0  0  0  0  0
  2  3  2  0
  2  1  1  0
  4  2  1  0
  5  4  1  0
  6  7  1  0
  6  5  1  0
  7  8  1  0
  8  9  1  6
 10 12  1  0
 10  8  1  0
 11 10  2  0
 12 16  1  0
 13 14  1  0
 13 12  1  0
 14 15  1  0
 16 15  1  0
 16 17  1  1
 17 18  2  0
 20 19  1  1
 20 21  1  0
 20 22  1  0
 22 23  1  1
 23 17  1  0
 24 22  1  0
 25 24  2  0
 26 24  1  0
M  END
$$$$
