RPV.pdb
     RDKit          3D

 26 26  0  0  1  0  0  0  0  0999 V2000
    6.4676  -22.0714   26.1333 N   0  0  0  0  0  0  0  0  0  0  0  0
    7.6009  -21.2055   26.2903 C   0  0  0  0  0  0  0  0  0  0  0  0
    8.7423  -21.7359   26.4773 N   0  0  0  0  0  0  0  0  0  0  0  0
    7.4621  -19.7893   26.2367 N   0  0  0  0  0  0  0  0  0  0  0  0
    7.8430  -19.0311   25.0753 C   0  0  0  0  0  0  0  0  0  0  0  0
    7.1058  -19.3915   23.8198 C   0  0  0  0  0  0  0  0  0  0  0  0
    6.5766  -18.1540   23.1368 C   0  0  0  0  0  0  0  0  0  0  0  0
    7.2154  -17.8442   21.8152 C   0  0  2  0  0  0  0  0  0  0  0  0
    7.8796  -19.0543   21.3738 N   0  0  0  0  0  0  0  0  0  0  0  0
    8.2022  -16.7351   21.9198 C   0  0  0  0  0  0  0  0  0  0  0  0
    9.4385  -17.0699   21.9894 O   0  0  0  0  0  0  0  0  0  0  0  0
    9.5881  -21.1465   26.5345 N   0  0  0  0  0  0  0  0  0  0  0  0
    7.8400  -15.3653   21.9443 C   0  0  0  0  0  0  0  0  0  0  0  0
    6.4996  -14.8370   22.0161 C   0  0  0  0  0  0  0  0  0  0  0  0
    6.6117  -13.3359   21.8140 C   0  0  0  0  0  0  0  0  0  0  0  0
    7.9710  -13.2205   21.1149 C   0  0  1  0  0  0  0  0  0  0  0  0
    8.7476  -14.2599   21.8978 C   0  0  0  0  0  0  0  0  0  0  0  0
    8.9038  -13.6910   23.2823 O   0  0  0  0  0  0  0  0  0  0  0  0
    9.3729  -12.5379   23.4569 C   0  0  0  0  0  0  0  0  0  0  0  0
    7.7760  -11.7445   24.8390 C   0  0  2  0  0  0  0  0  0  0  0  0
    7.5263  -12.7586   25.9344 C   0  0  0  0  0  0  0  0  0  0  0  0
    6.0993  -13.2015   25.8939 C   0  0  2  0  0  0  0  0  0  0  0  0
    8.5220  -13.8736   25.7749 N   0  0  0  0  0  0  0  0  0  0  0  0
    8.5348  -14.4221   24.4359 C   0  0  0  0  0  0  0  0  0  0  0  0
    8.1374  -14.9501   26.7080 O   0  0  0  0  0  0  0  0  0  0  0  0
    8.2315  -14.7792   27.9414 O   0  0  0  0  0  0  0  0  0  0  0  0
  2  3  2  0
  2  1  1  0
  4  2  1  0
  5  4  1  0
  6  7  1  0
  6  5  1  0
  7  8  1  0
  8  9  1  1
 10 12  1  0
 10  8  1  0
 11 10  2  0
 12 16  1  0
 13 14  1  0
 13 12  1  0
 14 15  1  0
 16 15  1  0
 16 17  1  1
 17 18  2  0
 20 19  1  1
 20 21  1  0
 20 22  1  0
 22 23  1  1
 23 17  1  0
 24 22  1  0
 25 24  2  0
 26 24  1  0
M  END
$$$$
