RPV.pdb
     RDKit          3D

 26 26  0  0  1  0  0  0  0  0999 V2000
    9.0288  -13.4679   15.2183 N   0  0  0  0  0  0  0  0  0  0  0  0
    8.4770  -13.5008   16.5424 C   0  0  0  0  0  0  0  0  0  0  0  0
    7.2962  -13.0588   16.7136 N   0  0  0  0  0  0  0  0  0  0  0  0
    9.2226  -14.0152   17.6411 N   0  0  0  0  0  0  0  0  0  0  0  0
    8.6062  -14.3112   18.9065 C   0  0  0  0  0  0  0  0  0  0  0  0
    8.2056  -15.7447   19.0906 C   0  0  0  0  0  0  0  0  0  0  0  0
    9.4230  -16.6282   19.2145 C   0  0  0  0  0  0  0  0  0  0  0  0
    9.5957  -17.2750   20.5571 C   0  0  2  0  0  0  0  0  0  0  0  0
    8.5502  -18.2706   20.6832 N   0  0  0  0  0  0  0  0  0  0  0  0
    9.4922  -16.2896   21.6676 C   0  0  0  0  0  0  0  0  0  0  0  0
   10.3336  -15.3215   21.6579 O   0  0  0  0  0  0  0  0  0  0  0  0
    6.8392  -13.1359   17.6362 N   0  0  0  0  0  0  0  0  0  0  0  0
    8.5292  -16.3768   22.7035 C   0  0  0  0  0  0  0  0  0  0  0  0
    7.5536  -17.4250   22.8775 C   0  0  0  0  0  0  0  0  0  0  0  0
    6.6286  -16.9780   23.9960 C   0  0  0  0  0  0  0  0  0  0  0  0
    6.8561  -15.4621   23.9958 C   0  0  1  0  0  0  0  0  0  0  0  0
    8.3532  -15.4306   23.7627 C   0  0  0  0  0  0  0  0  0  0  0  0
    8.9707  -15.9782   25.0211 O   0  0  0  0  0  0  0  0  0  0  0  0
    9.4622  -17.1349   25.0482 C   0  0  0  0  0  0  0  0  0  0  0  0
    8.7446  -13.8931   28.6348 C   0  0  2  0  0  0  0  0  0  0  0  0
   10.1412  -14.0895   28.0858 C   0  0  0  0  0  0  0  0  0  0  0  0
   11.1128  -14.2123   29.2150 C   0  0  1  0  0  0  0  0  0  0  0  0
   10.1178  -15.2751   27.1617 N   0  0  0  0  0  0  0  0  0  0  0  0
    9.0232  -15.2236   26.2167 C   0  0  0  0  0  0  0  0  0  0  0  0
    9.9502  -16.4831   27.9924 O   0  0  0  0  0  0  0  0  0  0  0  0
    8.8335  -17.0342   28.0859 O   0  0  0  0  0  0  0  0  0  0  0  0
  2  3  2  0
  2  1  1  0
  4  2  1  0
  5  4  1  0
  6  7  1  0
  6  5  1  0
  7  8  1  0
  8  9  1  1
 10 12  1  0
 10  8  1  0
 11 10  2  0
 12 16  1  0
 13 14  1  0
 13 12  1  0
 14 15  1  0
 16 15  1  0
 16 17  1  6
 17 18  2  0
 20 19  1  6
 20 21  1  0
 20 22  1  0
 22 23  1  6
 23 17  1  0
 24 22  1  0
 25 24  2  0
 26 24  1  0
M  END
$$$$
