RPV.pdb
     RDKit          3D

 26 26  0  0  1  0  0  0  0  0999 V2000
    9.8134  -18.6132   19.2747 N   0  0  0  0  0  0  0  0  0  0  0  0
    9.8831  -19.2171   20.5744 C   0  0  0  0  0  0  0  0  0  0  0  0
   10.4525  -20.3499   20.6821 N   0  0  0  0  0  0  0  0  0  0  0  0
    9.3350  -18.5719   21.7194 N   0  0  0  0  0  0  0  0  0  0  0  0
    8.1780  -17.7219   21.6326 C   0  0  0  0  0  0  0  0  0  0  0  0
    8.4681  -16.2535   21.7279 C   0  0  0  0  0  0  0  0  0  0  0  0
    7.1940  -15.4498   21.6359 C   0  0  0  0  0  0  0  0  0  0  0  0
    7.3667  -13.9733   21.8376 C   0  0  2  0  0  0  0  0  0  0  0  0
    8.0923  -13.4725   20.6873 N   0  0  0  0  0  0  0  0  0  0  0  0
    8.1200  -13.6656   23.0837 C   0  0  0  0  0  0  0  0  0  0  0  0
    9.3654  -13.3895   22.9496 O   0  0  0  0  0  0  0  0  0  0  0  0
   10.4784  -20.8360   21.5926 N   0  0  0  0  0  0  0  0  0  0  0  0
    7.5324  -13.6655   24.3732 C   0  0  0  0  0  0  0  0  0  0  0  0
    6.1846  -14.0638   24.6982 C   0  0  0  0  0  0  0  0  0  0  0  0
    5.9628  -13.7013   26.1563 C   0  0  0  0  0  0  0  0  0  0  0  0
    7.0460  -12.6394   26.3772 C   0  0  2  0  0  0  0  0  0  0  0  0
    8.1776  -13.2632   25.5855 C   0  0  0  0  0  0  0  0  0  0  0  0
    8.5848  -14.4890   26.3580 O   0  0  0  0  0  0  0  0  0  0  0  0
    7.8985  -15.5410   26.3074 C   0  0  0  0  0  0  0  0  0  0  0  0
   12.6359  -14.9954   26.9509 C   0  0  2  0  0  0  0  0  0  0  0  0
   11.7956  -15.4716   28.1162 C   0  0  0  0  0  0  0  0  0  0  0  0
   11.8782  -14.4820   29.2333 C   0  0  2  0  0  0  0  0  0  0  0  0
   10.4002  -15.7202   27.6154 N   0  0  0  0  0  0  0  0  0  0  0  0
    9.7449  -14.5102   27.1675 C   0  0  0  0  0  0  0  0  0  0  0  0
    9.6183  -16.2775   28.7359 O   0  0  0  0  0  0  0  0  0  0  0  0
    8.7319  -15.5930   29.2883 O   0  0  0  0  0  0  0  0  0  0  0  0
  2  3  2  0
  2  1  1  0
  4  2  1  0
  5  4  1  0
  6  7  1  0
  6  5  1  0
  7  8  1  0
  8  9  1  6
 10 12  1  0
 10  8  1  0
 11 10  2  0
 12 16  1  0
 13 14  1  0
 13 12  1  0
 14 15  1  0
 16 15  1  0
 16 17  1  1
 17 18  2  0
 20 19  1  1
 20 21  1  0
 20 22  1  0
 22 23  1  1
 23 17  1  0
 24 22  1  0
 25 24  2  0
 26 24  1  0
M  END
$$$$
