RPV.pdb
     RDKit          3D

 26 26  0  0  1  0  0  0  0  0999 V2000
    7.8584  -15.1327   16.1463 N   0  0  0  0  0  0  0  0  0  0  0  0
    9.0167  -15.7460   16.7301 C   0  0  0  0  0  0  0  0  0  0  0  0
    9.9114  -16.2060   15.9511 N   0  0  0  0  0  0  0  0  0  0  0  0
    9.1709  -15.8393   18.1426 N   0  0  0  0  0  0  0  0  0  0  0  0
    8.8868  -14.7304   19.0136 C   0  0  0  0  0  0  0  0  0  0  0  0
    7.4292  -14.4951   19.2768 C   0  0  0  0  0  0  0  0  0  0  0  0
    7.1787  -14.2882   20.7507 C   0  0  0  0  0  0  0  0  0  0  0  0
    7.5647  -12.9345   21.2694 C   0  0  2  0  0  0  0  0  0  0  0  0
    8.4621  -12.3490   20.2936 N   0  0  0  0  0  0  0  0  0  0  0  0
    8.2409  -13.0170   22.5926 C   0  0  0  0  0  0  0  0  0  0  0  0
    9.5227  -12.9684   22.5876 O   0  0  0  0  0  0  0  0  0  0  0  0
   10.7539  -16.6621   16.3362 N   0  0  0  0  0  0  0  0  0  0  0  0
    7.5446  -13.1430   23.8204 C   0  0  0  0  0  0  0  0  0  0  0  0
    6.1494  -13.4716   23.9819 C   0  0  0  0  0  0  0  0  0  0  0  0
    5.8271  -13.2918   25.4551 C   0  0  0  0  0  0  0  0  0  0  0  0
    6.9579  -12.3600   25.9056 C   0  0  1  0  0  0  0  0  0  0  0  0
    8.1082  -12.9608   25.1232 C   0  0  0  0  0  0  0  0  0  0  0  0
    8.3608  -14.3080   25.7444 O   0  0  0  0  0  0  0  0  0  0  0  0
    7.8594  -15.3501   25.2514 C   0  0  0  0  0  0  0  0  0  0  0  0
   11.8424  -14.0671   27.8838 C   0  0  2  0  0  0  0  0  0  0  0  0
   11.0436  -15.3037   28.2347 C   0  0  0  0  0  0  0  0  0  0  0  0
   10.4044  -15.1261   29.5741 C   0  0  2  0  0  0  0  0  0  0  0  0
   10.0715  -15.5647   27.1180 N   0  0  0  0  0  0  0  0  0  0  0  0
    9.1640  -14.4590   26.8993 C   0  0  0  0  0  0  0  0  0  0  0  0
    9.2720  -16.7473   27.4917 O   0  0  0  0  0  0  0  0  0  0  0  0
    8.0717  -16.6215   27.8122 O   0  0  0  0  0  0  0  0  0  0  0  0
  2  3  2  0
  2  1  1  0
  4  2  1  0
  5  4  1  0
  6  7  1  0
  6  5  1  0
  7  8  1  0
  8  9  1  6
 10 12  1  0
 10  8  1  0
 11 10  2  0
 12 16  1  0
 13 14  1  0
 13 12  1  0
 14 15  1  0
 16 15  1  0
 16 17  1  1
 17 18  2  0
 20 19  1  1
 20 21  1  0
 20 22  1  0
 22 23  1  6
 23 17  1  0
 24 22  1  0
 25 24  2  0
 26 24  1  0
M  END
$$$$
