RPV.pdb
     RDKit          3D

 26 26  0  0  1  0  0  0  0  0999 V2000
    5.3360  -21.3223   24.0476 N   0  0  0  0  0  0  0  0  0  0  0  0
    6.7512  -21.4408   24.2526 C   0  0  0  0  0  0  0  0  0  0  0  0
    7.1785  -22.4124   24.9543 N   0  0  0  0  0  0  0  0  0  0  0  0
    7.6610  -20.5024   23.6874 N   0  0  0  0  0  0  0  0  0  0  0  0
    7.4268  -19.8932   22.4056 C   0  0  0  0  0  0  0  0  0  0  0  0
    8.5106  -18.9652   21.9433 C   0  0  0  0  0  0  0  0  0  0  0  0
    8.2073  -18.4348   20.5632 C   0  0  0  0  0  0  0  0  0  0  0  0
    9.1864  -17.4200   20.0512 C   0  0  2  0  0  0  0  0  0  0  0  0
   10.3803  -18.1441   19.6631 N   0  0  0  0  0  0  0  0  0  0  0  0
    9.5251  -16.4026   21.0831 C   0  0  0  0  0  0  0  0  0  0  0  0
   10.7072  -16.4570   21.5783 O   0  0  0  0  0  0  0  0  0  0  0  0
    8.1856  -22.5012   25.1636 N   0  0  0  0  0  0  0  0  0  0  0  0
    8.6201  -15.4062   21.5261 C   0  0  0  0  0  0  0  0  0  0  0  0
    7.2729  -15.2036   21.0519 C   0  0  0  0  0  0  0  0  0  0  0  0
    6.7824  -13.9077   21.6737 C   0  0  0  0  0  0  0  0  0  0  0  0
    8.1043  -13.2191   22.0320 C   0  0  2  0  0  0  0  0  0  0  0  0
    8.8889  -14.4179   22.5256 C   0  0  0  0  0  0  0  0  0  0  0  0
    8.2315  -14.8291   23.8155 O   0  0  0  0  0  0  0  0  0  0  0  0
    7.2005  -15.5484   23.8136 C   0  0  0  0  0  0  0  0  0  0  0  0
   10.4506  -14.9190   27.3412 C   0  0  2  0  0  0  0  0  0  0  0  0
    9.0363  -14.4078   27.5109 C   0  0  0  0  0  0  0  0  0  0  0  0
    9.0546  -12.9220   27.6727 C   0  0  2  0  0  0  0  0  0  0  0  0
    8.2217  -14.8902   26.3431 N   0  0  0  0  0  0  0  0  0  0  0  0
    8.7390  -14.4271   25.0734 C   0  0  0  0  0  0  0  0  0  0  0  0
    6.8551  -14.3570   26.5036 O   0  0  0  0  0  0  0  0  0  0  0  0
    6.4877  -13.3570   25.8521 O   0  0  0  0  0  0  0  0  0  0  0  0
  2  3  2  0
  2  1  1  0
  4  2  1  0
  5  4  1  0
  6  7  1  0
  6  5  1  0
  7  8  1  0
  8  9  1  1
 10 12  1  0
 10  8  1  0
 11 10  2  0
 12 16  1  0
 13 14  1  0
 13 12  1  0
 14 15  1  0
 16 15  1  0
 16 17  1  1
 17 18  2  0
 20 19  1  1
 20 21  1  0
 20 22  1  0
 22 23  1  1
 23 17  1  0
 24 22  1  0
 25 24  2  0
 26 24  1  0
M  END
$$$$
