RPV.pdb
     RDKit          3D

 26 26  0  0  1  0  0  0  0  0999 V2000
    6.6391  -21.2519   25.0104 N   0  0  0  0  0  0  0  0  0  0  0  0
    6.0160  -20.9390   23.7564 C   0  0  0  0  0  0  0  0  0  0  0  0
    4.8410  -21.3777   23.5421 N   0  0  0  0  0  0  0  0  0  0  0  0
    6.6859  -20.1568   22.7731 N   0  0  0  0  0  0  0  0  0  0  0  0
    6.8134  -18.7292   22.8941 C   0  0  0  0  0  0  0  0  0  0  0  0
    8.2237  -18.2311   23.0043 C   0  0  0  0  0  0  0  0  0  0  0  0
    8.7416  -17.7898   21.6571 C   0  0  0  0  0  0  0  0  0  0  0  0
    8.5390  -16.3350   21.3520 C   0  0  2  0  0  0  0  0  0  0  0  0
    9.2890  -16.0487   20.1454 N   0  0  0  0  0  0  0  0  0  0  0  0
    9.0123  -15.4622   22.4606 C   0  0  0  0  0  0  0  0  0  0  0  0
   10.2498  -15.1252   22.4392 O   0  0  0  0  0  0  0  0  0  0  0  0
    4.3704  -21.1902   22.6424 N   0  0  0  0  0  0  0  0  0  0  0  0
    8.1743  -15.0027   23.5068 C   0  0  0  0  0  0  0  0  0  0  0  0
    6.7486  -15.1979   23.6081 C   0  0  0  0  0  0  0  0  0  0  0  0
    6.2767  -14.3607   24.7841 C   0  0  0  0  0  0  0  0  0  0  0  0
    7.4174  -13.3451   24.9158 C   0  0  1  0  0  0  0  0  0  0  0  0
    8.5993  -14.2558   24.6512 C   0  0  0  0  0  0  0  0  0  0  0  0
    8.6761  -15.1756   25.8399 O   0  0  0  0  0  0  0  0  0  0  0  0
    8.3468  -16.3848   25.7424 C   0  0  0  0  0  0  0  0  0  0  0  0
   11.3918  -15.5162   29.9861 C   0  0  2  0  0  0  0  0  0  0  0  0
   10.3040  -14.7590   29.2553 C   0  0  0  0  0  0  0  0  0  0  0  0
   10.6597  -13.3089   29.1868 C   0  0  1  0  0  0  0  0  0  0  0  0
   10.1029  -15.4080   27.9143 N   0  0  0  0  0  0  0  0  0  0  0  0
    9.1164  -14.7238   27.1063 C   0  0  0  0  0  0  0  0  0  0  0  0
    9.6260  -16.7839   28.1531 O   0  0  0  0  0  0  0  0  0  0  0  0
    8.4241  -17.0739   27.9786 O   0  0  0  0  0  0  0  0  0  0  0  0
  2  3  2  0
  2  1  1  0
  4  2  1  0
  5  4  1  0
  6  7  1  0
  6  5  1  0
  7  8  1  0
  8  9  1  6
 10 12  1  0
 10  8  1  0
 11 10  2  0
 12 16  1  0
 13 14  1  0
 13 12  1  0
 14 15  1  0
 16 15  1  0
 16 17  1  1
 17 18  2  0
 20 19  1  1
 20 21  1  0
 20 22  1  0
 22 23  1  1
 23 17  1  0
 24 22  1  0
 25 24  2  0
 26 24  1  0
M  END
$$$$
