FQP.pdb
     RDKit          3D

 28 29  0  0  1  0  0  0  0  0999 V2000
   24.6814  -15.8215  -15.7536 N   0  0  0  0  0  0  0  0  0  0  0  0
   24.2449  -17.1600  -16.0931 C   0  0  1  0  0  0  0  0  0  0  0  0
   23.9775  -17.2618  -17.5905 C   0  0  0  0  0  0  0  0  0  0  0  0
   22.7097  -16.5441  -17.8553 C   0  0  0  0  0  0  0  0  0  0  0  0
   22.7608  -15.3461  -18.5397 C   0  0  0  0  0  0  0  0  0  0  0  0
   21.5845  -14.6454  -18.8053 C   0  0  0  0  0  0  0  0  0  0  0  0
   20.3995  -15.2014  -18.3583 C   0  0  0  0  0  0  0  0  0  0  0  0
   20.3696  -16.4046  -17.6734 C   0  0  0  0  0  0  0  0  0  0  0  0
   21.5258  -17.0874  -17.4156 C   0  0  0  0  0  0  0  0  0  0  0  0
   25.3257  -18.1135  -15.7699 C   0  0  0  0  0  0  0  0  0  0  0  0
   26.5316  -17.7849  -15.9883 O   0  0  0  0  0  0  0  0  0  0  0  0
   25.1294  -22.6063  -11.6485 N   0  0  0  0  0  0  0  0  0  0  0  0
   25.2565  -21.2182  -11.3657 C   0  0  0  0  0  0  0  0  0  0  0  0
   25.0245  -20.7712  -10.2323 O   0  0  0  0  0  0  0  0  0  0  0  0
   25.6840  -20.3325  -12.5136 C   0  0  0  0  0  0  0  0  0  0  0  0
   25.7650  -21.1348  -13.7466 C   0  0  0  0  0  0  0  0  0  0  0  0
   26.2632  -20.2789  -14.9298 C   0  0  2  0  0  0  0  0  0  0  0  0
   25.0917  -19.3854  -15.2254 N   0  0  0  0  0  0  0  0  0  0  0  0
   26.4458  -21.0765  -16.1334 C   0  0  0  0  0  0  0  0  0  0  0  0
   25.3923  -21.5294  -16.7164 O   0  0  0  0  0  0  0  0  0  0  0  0
   27.6858  -21.3759  -16.6977 N   0  0  0  0  0  0  0  0  0  0  0  0
   28.9433  -20.8309  -16.1108 C   0  0  0  0  0  0  0  0  0  0  0  0
   29.9322  -21.8905  -16.5221 C   0  0  0  0  0  0  0  0  0  0  0  0
   29.5442  -22.0324  -18.0041 C   0  0  0  0  0  0  0  0  0  0  0  0
   28.0291  -22.1660  -17.8387 C   0  0  1  0  0  0  0  0  0  0  0  0
   27.8185  -23.6380  -17.5596 C   0  0  0  0  0  0  0  0  0  0  0  0
   27.8956  -24.5205  -18.4414 O   0  0  0  0  0  0  0  0  0  0  0  0
   27.5292  -23.9936  -16.2593 O   0  0  0  0  0  0  0  0  0  0  0  0
  2 10  1  0
  2  1  1  6
  3  2  1  0
  4  3  1  0
  5  4  2  0
  6  5  1  0
  7  8  1  0
  7  6  2  0
  8  9  2  0
  9  4  1  0
 10 11  2  0
 13 12  1  0
 14 13  2  0
 15 13  1  0
 16 15  1  0
 17 16  1  1
 18 17  1  0
 18 10  1  0
 19 17  1  0
 20 19  2  0
 21 19  1  0
 21 25  1  0
 22 23  1  0
 22 21  1  0
 23 24  1  0
 24 25  1  0
 25 26  1  1
 26 28  1  0
 27 26  2  0
M  END
$$$$
