FQP.pdb
     RDKit          3D

 28 29  0  0  1  0  0  0  0  0999 V2000
   24.8932  -20.0740   -9.8869 N   0  0  0  0  0  0  0  0  0  0  0  0
   26.0289  -20.0448  -10.7851 C   0  0  1  0  0  0  0  0  0  0  0  0
   26.5500  -21.4581  -11.0198 C   0  0  0  0  0  0  0  0  0  0  0  0
   28.0140  -21.4234  -10.8009 C   0  0  0  0  0  0  0  0  0  0  0  0
   28.4856  -21.3583   -9.5050 C   0  0  0  0  0  0  0  0  0  0  0  0
   29.8591  -21.3244   -9.2649 C   0  0  0  0  0  0  0  0  0  0  0  0
   30.6970  -21.3589  -10.3648 C   0  0  0  0  0  0  0  0  0  0  0  0
   30.2039  -21.4242  -11.6572 C   0  0  0  0  0  0  0  0  0  0  0  0
   28.8565  -21.4571  -11.8869 C   0  0  0  0  0  0  0  0  0  0  0  0
   25.5937  -19.5101  -12.0914 C   0  0  0  0  0  0  0  0  0  0  0  0
   24.3548  -19.3631  -12.3224 O   0  0  0  0  0  0  0  0  0  0  0  0
   26.1062  -16.6852  -17.0720 N   0  0  0  0  0  0  0  0  0  0  0  0
   26.2474  -15.7038  -16.0522 C   0  0  0  0  0  0  0  0  0  0  0  0
   25.9391  -14.5197  -16.2551 O   0  0  0  0  0  0  0  0  0  0  0  0
   26.7895  -16.1834  -14.7252 C   0  0  0  0  0  0  0  0  0  0  0  0
   27.1287  -17.6138  -14.8236 C   0  0  0  0  0  0  0  0  0  0  0  0
   25.9519  -18.4932  -14.3522 C   0  0  2  0  0  0  0  0  0  0  0  0
   26.4878  -19.1487  -13.1107 N   0  0  0  0  0  0  0  0  0  0  0  0
   25.6914  -19.5866  -15.2768 C   0  0  0  0  0  0  0  0  0  0  0  0
   26.6636  -20.3835  -15.5500 O   0  0  0  0  0  0  0  0  0  0  0  0
   24.4572  -19.8295  -15.8797 N   0  0  0  0  0  0  0  0  0  0  0  0
   23.2633  -19.0062  -15.5338 C   0  0  0  0  0  0  0  0  0  0  0  0
   22.4677  -19.1081  -16.8091 C   0  0  0  0  0  0  0  0  0  0  0  0
   22.5560  -20.6269  -17.0379 C   0  0  0  0  0  0  0  0  0  0  0  0
   24.0634  -20.8062  -16.8467 C   0  0  1  0  0  0  0  0  0  0  0  0
   24.6465  -20.4866  -18.2057 C   0  0  0  0  0  0  0  0  0  0  0  0
   24.6274  -21.2875  -19.1650 O   0  0  0  0  0  0  0  0  0  0  0  0
   25.2201  -19.2428  -18.3640 O   0  0  0  0  0  0  0  0  0  0  0  0
  2 10  1  0
  2  1  1  1
  3  2  1  0
  4  3  1  0
  5  4  2  0
  6  5  1  0
  7  8  1  0
  7  6  2  0
  8  9  2  0
  9  4  1  0
 10 11  2  0
 13 12  1  0
 14 13  2  0
 15 13  1  0
 16 15  1  0
 17 16  1  6
 18 17  1  0
 18 10  1  0
 19 17  1  0
 20 19  2  0
 21 19  1  0
 21 25  1  0
 22 23  1  0
 22 21  1  0
 23 24  1  0
 24 25  1  0
 25 26  1  6
 26 28  1  0
 27 26  2  0
M  END
$$$$
