FQP.pdb
     RDKit          3D

 28 29  0  0  1  0  0  0  0  0999 V2000
   25.5848  -21.2813   -6.6481 N   0  0  0  0  0  0  0  0  0  0  0  0
   26.2371  -20.4504   -7.6387 C   0  0  1  0  0  0  0  0  0  0  0  0
   27.7513  -20.5817   -7.5202 C   0  0  0  0  0  0  0  0  0  0  0  0
   28.1503  -19.8979   -6.2690 C   0  0  0  0  0  0  0  0  0  0  0  0
   28.5876  -20.6660   -5.2084 C   0  0  0  0  0  0  0  0  0  0  0  0
   28.9709  -20.0525   -4.0159 C   0  0  0  0  0  0  0  0  0  0  0  0
   28.8909  -18.6729   -3.9573 C   0  0  0  0  0  0  0  0  0  0  0  0
   28.4494  -17.9203   -5.0326 C   0  0  0  0  0  0  0  0  0  0  0  0
   28.0748  -18.5269   -6.1993 C   0  0  0  0  0  0  0  0  0  0  0  0
   25.8553  -20.9205   -8.9859 C   0  0  0  0  0  0  0  0  0  0  0  0
   26.0516  -22.1340   -9.3005 O   0  0  0  0  0  0  0  0  0  0  0  0
   20.9502  -19.7082  -11.9159 N   0  0  0  0  0  0  0  0  0  0  0  0
   21.5898  -20.2900  -13.0452 C   0  0  0  0  0  0  0  0  0  0  0  0
   20.9750  -20.4721  -14.1068 O   0  0  0  0  0  0  0  0  0  0  0  0
   23.0433  -20.6690  -12.8759 C   0  0  0  0  0  0  0  0  0  0  0  0
   23.4824  -20.3270  -11.5118 C   0  0  0  0  0  0  0  0  0  0  0  0
   24.9782  -20.6510  -11.3164 C   0  0  2  0  0  0  0  0  0  0  0  0
   25.2775  -20.0874   -9.9560 N   0  0  0  0  0  0  0  0  0  0  0  0
   25.8181  -19.8953  -12.2338 C   0  0  0  0  0  0  0  0  0  0  0  0
   25.8207  -18.6136  -12.1246 O   0  0  0  0  0  0  0  0  0  0  0  0
   26.6232  -20.4698  -13.2174 N   0  0  0  0  0  0  0  0  0  0  0  0
   26.7181  -21.9511  -13.3573 C   0  0  0  0  0  0  0  0  0  0  0  0
   27.0415  -22.0788  -14.8232 C   0  0  0  0  0  0  0  0  0  0  0  0
   28.1614  -21.0287  -14.9243 C   0  0  0  0  0  0  0  0  0  0  0  0
   27.4638  -19.8713  -14.2070 C   0  0  1  0  0  0  0  0  0  0  0  0
   26.6382  -19.2121  -15.2901 C   0  0  0  0  0  0  0  0  0  0  0  0
   25.4118  -19.4074  -15.4312 O   0  0  0  0  0  0  0  0  0  0  0  0
   27.2984  -18.3587  -16.1485 O   0  0  0  0  0  0  0  0  0  0  0  0
  2 10  1  0
  2  1  1  1
  3  2  1  0
  4  3  1  0
  5  4  2  0
  6  5  1  0
  7  8  1  0
  7  6  2  0
  8  9  2  0
  9  4  1  0
 10 11  2  0
 13 12  1  0
 14 13  2  0
 15 13  1  0
 16 15  1  0
 17 16  1  6
 18 17  1  0
 18 10  1  0
 19 17  1  0
 20 19  2  0
 21 19  1  0
 21 25  1  0
 22 23  1  0
 22 21  1  0
 23 24  1  0
 24 25  1  0
 25 26  1  6
 26 28  1  0
 27 26  2  0
M  END
$$$$
