FQP.pdb
     RDKit          3D

 28 29  0  0  1  0  0  0  0  0999 V2000
   20.5935  -17.3926  -15.1357 N   0  0  0  0  0  0  0  0  0  0  0  0
   21.7221  -17.8520  -15.9183 C   0  0  1  0  0  0  0  0  0  0  0  0
   22.2939  -16.7029  -16.7409 C   0  0  0  0  0  0  0  0  0  0  0  0
   21.6664  -16.7728  -18.0802 C   0  0  0  0  0  0  0  0  0  0  0  0
   20.5975  -15.9422  -18.3516 C   0  0  0  0  0  0  0  0  0  0  0  0
   19.9842  -15.9834  -19.6036 C   0  0  0  0  0  0  0  0  0  0  0  0
   20.4918  -16.8760  -20.5302 C   0  0  0  0  0  0  0  0  0  0  0  0
   21.5651  -17.7009  -20.2383 C   0  0  0  0  0  0  0  0  0  0  0  0
   22.1626  -17.6565  -19.0092 C   0  0  0  0  0  0  0  0  0  0  0  0
   22.7850  -18.3135  -15.0024 C   0  0  0  0  0  0  0  0  0  0  0  0
   23.2317  -17.5212  -14.1177 O   0  0  0  0  0  0  0  0  0  0  0  0
   22.2852  -20.9300  -11.4455 N   0  0  0  0  0  0  0  0  0  0  0  0
   23.6318  -21.0987  -11.0198 C   0  0  0  0  0  0  0  0  0  0  0  0
   23.9351  -21.0497   -9.8182 O   0  0  0  0  0  0  0  0  0  0  0  0
   24.6572  -21.3366  -12.1047 C   0  0  0  0  0  0  0  0  0  0  0  0
   24.0127  -21.2092  -13.4234 C   0  0  0  0  0  0  0  0  0  0  0  0
   24.4925  -19.9362  -14.1511 C   0  0  2  0  0  0  0  0  0  0  0  0
   23.3398  -19.6013  -15.0551 N   0  0  0  0  0  0  0  0  0  0  0  0
   25.6076  -20.2134  -15.0444 C   0  0  0  0  0  0  0  0  0  0  0  0
   25.3453  -20.7720  -16.1731 O   0  0  0  0  0  0  0  0  0  0  0  0
   26.9384  -19.9077  -14.7592 N   0  0  0  0  0  0  0  0  0  0  0  0
   27.3021  -19.1635  -13.5196 C   0  0  0  0  0  0  0  0  0  0  0  0
   28.7019  -19.6685  -13.2844 C   0  0  0  0  0  0  0  0  0  0  0  0
   29.2681  -19.5060  -14.7057 C   0  0  0  0  0  0  0  0  0  0  0  0
   28.1385  -20.1798  -15.4872 C   0  0  1  0  0  0  0  0  0  0  0  0
   28.4814  -21.6524  -15.4324 C   0  0  0  0  0  0  0  0  0  0  0  0
   27.9693  -22.4451  -14.6131 O   0  0  0  0  0  0  0  0  0  0  0  0
   29.4075  -22.1139  -16.3438 O   0  0  0  0  0  0  0  0  0  0  0  0
  2 10  1  0
  2  1  1  1
  3  2  1  0
  4  3  1  0
  5  4  2  0
  6  5  1  0
  7  8  1  0
  7  6  2  0
  8  9  2  0
  9  4  1  0
 10 11  2  0
 13 12  1  0
 14 13  2  0
 15 13  1  0
 16 15  1  0
 17 16  1  6
 18 17  1  0
 18 10  1  0
 19 17  1  0
 20 19  2  0
 21 19  1  0
 21 25  1  0
 22 23  1  0
 22 21  1  0
 23 24  1  0
 24 25  1  0
 25 26  1  1
 26 28  1  0
 27 26  2  0
M  END
$$$$
