FQP.pdb
     RDKit          3D

 28 29  0  0  1  0  0  0  0  0999 V2000
   19.5779  -19.1244  -14.4491 N   0  0  0  0  0  0  0  0  0  0  0  0
   20.5204  -19.0273  -15.5444 C   0  0  1  0  0  0  0  0  0  0  0  0
   20.2083  -17.8043  -16.3995 C   0  0  0  0  0  0  0  0  0  0  0  0
   19.7607  -18.3006  -17.7207 C   0  0  0  0  0  0  0  0  0  0  0  0
   20.7171  -18.6145  -18.6657 C   0  0  0  0  0  0  0  0  0  0  0  0
   20.3284  -19.0847  -19.9200 C   0  0  0  0  0  0  0  0  0  0  0  0
   18.9719  -19.2150  -20.1568 C   0  0  0  0  0  0  0  0  0  0  0  0
   18.0282  -18.8946  -19.1954 C   0  0  0  0  0  0  0  0  0  0  0  0
   18.4148  -18.4340  -17.9674 C   0  0  0  0  0  0  0  0  0  0  0  0
   21.8792  -18.8481  -14.9936 C   0  0  0  0  0  0  0  0  0  0  0  0
   22.0674  -18.0077  -14.0619 O   0  0  0  0  0  0  0  0  0  0  0  0
   25.3168  -22.3450  -12.3749 N   0  0  0  0  0  0  0  0  0  0  0  0
   26.4098  -21.4820  -12.6644 C   0  0  0  0  0  0  0  0  0  0  0  0
   27.4842  -21.5813  -12.0529 O   0  0  0  0  0  0  0  0  0  0  0  0
   26.1860  -20.4500  -13.7460 C   0  0  0  0  0  0  0  0  0  0  0  0
   24.8026  -20.5534  -14.2420 C   0  0  0  0  0  0  0  0  0  0  0  0
   24.3525  -19.2323  -14.8997 C   0  0  2  0  0  0  0  0  0  0  0  0
   22.9947  -19.5668  -15.4498 N   0  0  0  0  0  0  0  0  0  0  0  0
   25.1635  -18.9051  -16.0631 C   0  0  0  0  0  0  0  0  0  0  0  0
   25.0070  -19.6194  -17.1214 O   0  0  0  0  0  0  0  0  0  0  0  0
   26.0928  -17.8658  -16.1066 N   0  0  0  0  0  0  0  0  0  0  0  0
   26.4043  -17.0684  -14.8860 C   0  0  0  0  0  0  0  0  0  0  0  0
   27.8167  -16.6353  -15.1813 C   0  0  0  0  0  0  0  0  0  0  0  0
   27.6309  -16.1471  -16.6284 C   0  0  0  0  0  0  0  0  0  0  0  0
   26.8751  -17.3538  -17.1883 C   0  0  1  0  0  0  0  0  0  0  0  0
   27.9686  -18.3265  -17.5719 C   0  0  0  0  0  0  0  0  0  0  0  0
   28.6431  -18.2211  -18.6188 O   0  0  0  0  0  0  0  0  0  0  0  0
   28.2108  -19.3702  -16.7041 O   0  0  0  0  0  0  0  0  0  0  0  0
  2 10  1  0
  2  1  1  1
  3  2  1  0
  4  3  1  0
  5  4  2  0
  6  5  1  0
  7  8  1  0
  7  6  2  0
  8  9  2  0
  9  4  1  0
 10 11  2  0
 13 12  1  0
 14 13  2  0
 15 13  1  0
 16 15  1  0
 17 16  1  6
 18 17  1  0
 18 10  1  0
 19 17  1  0
 20 19  2  0
 21 19  1  0
 21 25  1  0
 22 23  1  0
 22 21  1  0
 23 24  1  0
 24 25  1  0
 25 26  1  1
 26 28  1  0
 27 26  2  0
M  END
$$$$
