FQP.pdb
     RDKit          3D

 28 29  0  0  1  0  0  0  0  0999 V2000
   21.3246  -18.9942  -14.7634 N   0  0  0  0  0  0  0  0  0  0  0  0
   22.5981  -19.0794  -15.4476 C   0  0  1  0  0  0  0  0  0  0  0  0
   22.8516  -17.8063  -16.2470 C   0  0  0  0  0  0  0  0  0  0  0  0
   22.2688  -18.0145  -17.5922 C   0  0  0  0  0  0  0  0  0  0  0  0
   21.0563  -17.4224  -17.8843 C   0  0  0  0  0  0  0  0  0  0  0  0
   20.4805  -17.5989  -19.1424 C   0  0  0  0  0  0  0  0  0  0  0  0
   21.1716  -18.3768  -20.0535 C   0  0  0  0  0  0  0  0  0  0  0  0
   22.3870  -18.9623  -19.7409 C   0  0  0  0  0  0  0  0  0  0  0  0
   22.9469  -18.7861  -18.5059 C   0  0  0  0  0  0  0  0  0  0  0  0
   23.6754  -19.1943  -14.4436 C   0  0  0  0  0  0  0  0  0  0  0  0
   23.9013  -18.2230  -13.6591 O   0  0  0  0  0  0  0  0  0  0  0  0
   24.2960  -19.2736   -9.9789 N   0  0  0  0  0  0  0  0  0  0  0  0
   24.2560  -20.6755  -10.2154 C   0  0  0  0  0  0  0  0  0  0  0  0
   24.4557  -21.4862   -9.2983 O   0  0  0  0  0  0  0  0  0  0  0  0
   23.9609  -21.1122  -11.6321 C   0  0  0  0  0  0  0  0  0  0  0  0
   25.2246  -21.4319  -12.3188 C   0  0  0  0  0  0  0  0  0  0  0  0
   25.6085  -20.3175  -13.3144 C   0  0  2  0  0  0  0  0  0  0  0  0
   24.4784  -20.3366  -14.3047 N   0  0  0  0  0  0  0  0  0  0  0  0
   26.7936  -20.6663  -14.0838 C   0  0  0  0  0  0  0  0  0  0  0  0
   26.7097  -21.6627  -14.8930 O   0  0  0  0  0  0  0  0  0  0  0  0
   28.0099  -19.9879  -14.0051 N   0  0  0  0  0  0  0  0  0  0  0  0
   28.1412  -18.7482  -13.1874 C   0  0  0  0  0  0  0  0  0  0  0  0
   29.6044  -18.7954  -12.8314 C   0  0  0  0  0  0  0  0  0  0  0  0
   30.1901  -19.0980  -14.2215 C   0  0  0  0  0  0  0  0  0  0  0  0
   29.2745  -20.2590  -14.6146 C   0  0  1  0  0  0  0  0  0  0  0  0
   29.9279  -21.4708  -13.9871 C   0  0  0  0  0  0  0  0  0  0  0  0
   30.8805  -22.0852  -14.5135 O   0  0  0  0  0  0  0  0  0  0  0  0
   29.4268  -21.8947  -12.7745 O   0  0  0  0  0  0  0  0  0  0  0  0
  2 10  1  0
  2  1  1  1
  3  2  1  0
  4  3  1  0
  5  4  2  0
  6  5  1  0
  7  8  1  0
  7  6  2  0
  8  9  2  0
  9  4  1  0
 10 11  2  0
 13 12  1  0
 14 13  2  0
 15 13  1  0
 16 15  1  0
 17 16  1  1
 18 17  1  0
 18 10  1  0
 19 17  1  0
 20 19  2  0
 21 19  1  0
 21 25  1  0
 22 23  1  0
 22 21  1  0
 23 24  1  0
 24 25  1  0
 25 26  1  1
 26 28  1  0
 27 26  2  0
M  END
$$$$
