FQP.pdb
     RDKit          3D

 28 29  0  0  1  0  0  0  0  0999 V2000
   19.3842  -15.0562  -16.7311 N   0  0  0  0  0  0  0  0  0  0  0  0
   18.5631  -13.8819  -16.9410 C   0  0  1  0  0  0  0  0  0  0  0  0
   17.4778  -13.8015  -15.8733 C   0  0  0  0  0  0  0  0  0  0  0  0
   16.4622  -14.8257  -16.2080 C   0  0  0  0  0  0  0  0  0  0  0  0
   15.4774  -14.5040  -17.1206 C   0  0  0  0  0  0  0  0  0  0  0  0
   14.5059  -15.4464  -17.4575 C   0  0  0  0  0  0  0  0  0  0  0  0
   14.5823  -16.6840  -16.8448 C   0  0  0  0  0  0  0  0  0  0  0  0
   15.5784  -16.9871  -15.9318 C   0  0  0  0  0  0  0  0  0  0  0  0
   16.5283  -16.0594  -15.6050 C   0  0  0  0  0  0  0  0  0  0  0  0
   19.4065  -12.6766  -16.8075 C   0  0  0  0  0  0  0  0  0  0  0  0
   20.2882  -12.6317  -15.8962 O   0  0  0  0  0  0  0  0  0  0  0  0
   19.5869   -8.0097  -20.8021 N   0  0  0  0  0  0  0  0  0  0  0  0
   20.5063   -7.4699  -19.8607 C   0  0  0  0  0  0  0  0  0  0  0  0
   20.9665   -6.3263  -19.9975 O   0  0  0  0  0  0  0  0  0  0  0  0
   20.8848   -8.3615  -18.7002 C   0  0  0  0  0  0  0  0  0  0  0  0
   20.0828   -9.5964  -18.7503 C   0  0  0  0  0  0  0  0  0  0  0  0
   20.1975  -10.3825  -17.4277 C   0  0  2  0  0  0  0  0  0  0  0  0
   19.2867  -11.5576  -17.6456 N   0  0  0  0  0  0  0  0  0  0  0  0
   19.6137   -9.6511  -16.3130 C   0  0  0  0  0  0  0  0  0  0  0  0
   18.3306   -9.5944  -16.2412 O   0  0  0  0  0  0  0  0  0  0  0  0
   20.3536   -9.0142  -15.3167 N   0  0  0  0  0  0  0  0  0  0  0  0
   21.8440   -9.0444  -15.3353 C   0  0  0  0  0  0  0  0  0  0  0  0
   22.1641   -7.7635  -14.6095 C   0  0  0  0  0  0  0  0  0  0  0  0
   21.2133   -7.9123  -13.4092 C   0  0  0  0  0  0  0  0  0  0  0  0
   19.9344   -8.2763  -14.1660 C   0  0  1  0  0  0  0  0  0  0  0  0
   19.3505   -6.9388  -14.5652 C   0  0  0  0  0  0  0  0  0  0  0  0
   19.4619   -6.4579  -15.7134 O   0  0  0  0  0  0  0  0  0  0  0  0
   18.6669   -6.2391  -13.5936 O   0  0  0  0  0  0  0  0  0  0  0  0
  2 10  1  0
  2  1  1  1
  3  2  1  0
  4  3  1  0
  5  4  2  0
  6  5  1  0
  7  8  1  0
  7  6  2  0
  8  9  2  0
  9  4  1  0
 10 11  2  0
 13 12  1  0
 14 13  2  0
 15 13  1  0
 16 15  1  0
 17 16  1  6
 18 17  1  0
 18 10  1  0
 19 17  1  0
 20 19  2  0
 21 19  1  0
 21 25  1  0
 22 23  1  0
 22 21  1  0
 23 24  1  0
 24 25  1  0
 25 26  1  6
 26 28  1  0
 27 26  2  0
M  END
$$$$
