FQP.pdb
     RDKit          3D

 28 29  0  0  1  0  0  0  0  0999 V2000
   25.4356  -19.0886  -17.0690 N   0  0  0  0  0  0  0  0  0  0  0  0
   25.4951  -19.9966  -15.9424 C   0  0  1  0  0  0  0  0  0  0  0  0
   26.7915  -19.7886  -15.1676 C   0  0  0  0  0  0  0  0  0  0  0  0
   27.8779  -20.4009  -15.9658 C   0  0  0  0  0  0  0  0  0  0  0  0
   28.0712  -21.7652  -15.8791 C   0  0  0  0  0  0  0  0  0  0  0  0
   29.0859  -22.3729  -16.6183 C   0  0  0  0  0  0  0  0  0  0  0  0
   29.8641  -21.5567  -17.4191 C   0  0  0  0  0  0  0  0  0  0  0  0
   29.6541  -20.1899  -17.4921 C   0  0  0  0  0  0  0  0  0  0  0  0
   28.6579  -19.5993  -16.7652 C   0  0  0  0  0  0  0  0  0  0  0  0
   24.3772  -19.6966  -15.0248 C   0  0  0  0  0  0  0  0  0  0  0  0
   24.0829  -18.4876  -14.7766 O   0  0  0  0  0  0  0  0  0  0  0  0
   19.3260  -21.4175  -16.2561 N   0  0  0  0  0  0  0  0  0  0  0  0
   18.8668  -20.6941  -15.1209 C   0  0  0  0  0  0  0  0  0  0  0  0
   17.6550  -20.5416  -14.9051 O   0  0  0  0  0  0  0  0  0  0  0  0
   19.9295  -20.1288  -14.2064 C   0  0  0  0  0  0  0  0  0  0  0  0
   21.2614  -20.4307  -14.7591 C   0  0  0  0  0  0  0  0  0  0  0  0
   22.3520  -20.2919  -13.6766 C   0  0  2  0  0  0  0  0  0  0  0  0
   23.6076  -20.6897  -14.4000 N   0  0  0  0  0  0  0  0  0  0  0  0
   22.1927  -21.2806  -12.6205 C   0  0  0  0  0  0  0  0  0  0  0  0
   22.2966  -22.5217  -12.9423 O   0  0  0  0  0  0  0  0  0  0  0  0
   21.9413  -20.9700  -11.2840 N   0  0  0  0  0  0  0  0  0  0  0  0
   22.0642  -19.5689  -10.7896 C   0  0  0  0  0  0  0  0  0  0  0  0
   21.0903  -19.5858   -9.6403 C   0  0  0  0  0  0  0  0  0  0  0  0
   21.5342  -20.8903   -8.9560 C   0  0  0  0  0  0  0  0  0  0  0  0
   21.5634  -21.8019  -10.1844 C   0  0  1  0  0  0  0  0  0  0  0  0
   20.1319  -22.2702  -10.3284 C   0  0  0  0  0  0  0  0  0  0  0  0
   19.3137  -21.7421  -11.1117 O   0  0  0  0  0  0  0  0  0  0  0  0
   19.7395  -23.3343   -9.5442 O   0  0  0  0  0  0  0  0  0  0  0  0
  2 10  1  0
  2  1  1  6
  3  2  1  0
  4  3  1  0
  5  4  2  0
  6  5  1  0
  7  8  1  0
  7  6  2  0
  8  9  2  0
  9  4  1  0
 10 11  2  0
 13 12  1  0
 14 13  2  0
 15 13  1  0
 16 15  1  0
 17 16  1  6
 18 17  1  0
 18 10  1  0
 19 17  1  0
 20 19  2  0
 21 19  1  0
 21 25  1  0
 22 23  1  0
 22 21  1  0
 23 24  1  0
 24 25  1  0
 25 26  1  6
 26 28  1  0
 27 26  2  0
M  END
$$$$
