FQP.pdb
     RDKit          3D

 28 29  0  0  1  0  0  0  0  0999 V2000
   25.7726  -18.7540   -7.7208 N   0  0  0  0  0  0  0  0  0  0  0  0
   26.6074  -19.7295   -8.3907 C   0  0  1  0  0  0  0  0  0  0  0  0
   26.8554  -20.9248   -7.4775 C   0  0  0  0  0  0  0  0  0  0  0  0
   27.7742  -20.4716   -6.4084 C   0  0  0  0  0  0  0  0  0  0  0  0
   27.2328  -19.9327   -5.2583 C   0  0  0  0  0  0  0  0  0  0  0  0
   28.0710  -19.4965   -4.2324 C   0  0  0  0  0  0  0  0  0  0  0  0
   29.4340  -19.6303   -4.4259 C   0  0  0  0  0  0  0  0  0  0  0  0
   29.9573  -20.1737   -5.5871 C   0  0  0  0  0  0  0  0  0  0  0  0
   29.1310  -20.5996   -6.5898 C   0  0  0  0  0  0  0  0  0  0  0  0
   25.8989  -20.2258   -9.5879 C   0  0  0  0  0  0  0  0  0  0  0  0
   24.6384  -20.3661   -9.5518 O   0  0  0  0  0  0  0  0  0  0  0  0
   29.3725  -19.4055  -14.4558 N   0  0  0  0  0  0  0  0  0  0  0  0
   28.1366  -19.1748  -15.1210 C   0  0  0  0  0  0  0  0  0  0  0  0
   28.1040  -18.8425  -16.3154 O   0  0  0  0  0  0  0  0  0  0  0  0
   26.8829  -19.3551  -14.2961 C   0  0  0  0  0  0  0  0  0  0  0  0
   27.2478  -19.8215  -12.9470 C   0  0  0  0  0  0  0  0  0  0  0  0
   25.9896  -20.0551  -12.0852 C   0  0  2  0  0  0  0  0  0  0  0  0
   26.5513  -20.5575  -10.7852 N   0  0  0  0  0  0  0  0  0  0  0  0
   25.1802  -21.1506  -12.5979 C   0  0  0  0  0  0  0  0  0  0  0  0
   25.7140  -22.3203  -12.6390 O   0  0  0  0  0  0  0  0  0  0  0  0
   23.8645  -21.0159  -13.0410 N   0  0  0  0  0  0  0  0  0  0  0  0
   23.1921  -19.6853  -13.0431 C   0  0  0  0  0  0  0  0  0  0  0  0
   22.2007  -19.8687  -14.1627 C   0  0  0  0  0  0  0  0  0  0  0  0
   21.6239  -21.2380  -13.7636 C   0  0  0  0  0  0  0  0  0  0  0  0
   22.9372  -21.9876  -13.5309 C   0  0  1  0  0  0  0  0  0  0  0  0
   23.3354  -22.4674  -14.9094 C   0  0  0  0  0  0  0  0  0  0  0  0
   22.7920  -23.4370  -15.4809 O   0  0  0  0  0  0  0  0  0  0  0  0
   24.3505  -21.7814  -15.5420 O   0  0  0  0  0  0  0  0  0  0  0  0
  2 10  1  0
  2  1  1  1
  3  2  1  0
  4  3  1  0
  5  4  2  0
  6  5  1  0
  7  8  1  0
  7  6  2  0
  8  9  2  0
  9  4  1  0
 10 11  2  0
 13 12  1  0
 14 13  2  0
 15 13  1  0
 16 15  1  0
 17 16  1  6
 18 17  1  0
 18 10  1  0
 19 17  1  0
 20 19  2  0
 21 19  1  0
 21 25  1  0
 22 23  1  0
 22 21  1  0
 23 24  1  0
 24 25  1  0
 25 26  1  6
 26 28  1  0
 27 26  2  0
M  END
$$$$
