FQP.pdb
     RDKit          3D

 28 29  0  0  1  0  0  0  0  0999 V2000
   28.5447  -20.9780   -9.3841 N   0  0  0  0  0  0  0  0  0  0  0  0
   27.1145  -20.8762   -9.1803 C   0  0  1  0  0  0  0  0  0  0  0  0
   26.7793  -19.5855   -8.4416 C   0  0  0  0  0  0  0  0  0  0  0  0
   27.2819  -19.7343   -7.0567 C   0  0  0  0  0  0  0  0  0  0  0  0
   28.5287  -19.2268   -6.7498 C   0  0  0  0  0  0  0  0  0  0  0  0
   29.0309  -19.3504   -5.4545 C   0  0  0  0  0  0  0  0  0  0  0  0
   28.2339  -19.9905   -4.5228 C   0  0  0  0  0  0  0  0  0  0  0  0
   26.9858  -20.4927   -4.8509 C   0  0  0  0  0  0  0  0  0  0  0  0
   26.4982  -20.3689   -6.1223 C   0  0  0  0  0  0  0  0  0  0  0  0
   26.4452  -20.8207  -10.4959 C   0  0  0  0  0  0  0  0  0  0  0  0
   26.8241  -19.9638  -11.3514 O   0  0  0  0  0  0  0  0  0  0  0  0
   25.6611  -24.7203  -14.3245 N   0  0  0  0  0  0  0  0  0  0  0  0
   24.4326  -24.1591  -14.7704 C   0  0  0  0  0  0  0  0  0  0  0  0
   23.9581  -24.4534  -15.8778 O   0  0  0  0  0  0  0  0  0  0  0  0
   23.7502  -23.1947  -13.8274 C   0  0  0  0  0  0  0  0  0  0  0  0
   24.5356  -23.0865  -12.5856 C   0  0  0  0  0  0  0  0  0  0  0  0
   24.8551  -21.6122  -12.2618 C   0  0  2  0  0  0  0  0  0  0  0  0
   25.3949  -21.6767  -10.8609 N   0  0  0  0  0  0  0  0  0  0  0  0
   23.6466  -20.8068  -12.1665 C   0  0  0  0  0  0  0  0  0  0  0  0
   22.9445  -20.9062  -11.0932 O   0  0  0  0  0  0  0  0  0  0  0  0
   23.2047  -19.9315  -13.1587 N   0  0  0  0  0  0  0  0  0  0  0  0
   23.9946  -19.7311  -14.4071 C   0  0  0  0  0  0  0  0  0  0  0  0
   22.9052  -19.3502  -15.3756 C   0  0  0  0  0  0  0  0  0  0  0  0
   22.1690  -18.3018  -14.5236 C   0  0  0  0  0  0  0  0  0  0  0  0
   22.0431  -19.1006  -13.2249 C   0  0  1  0  0  0  0  0  0  0  0  0
   20.7949  -19.9320  -13.4246 C   0  0  0  0  0  0  0  0  0  0  0  0
   19.6476  -19.5241  -13.1429 O   0  0  0  0  0  0  0  0  0  0  0  0
   20.9624  -21.1977  -13.9452 O   0  0  0  0  0  0  0  0  0  0  0  0
  2 10  1  0
  2  1  1  6
  3  2  1  0
  4  3  1  0
  5  4  2  0
  6  5  1  0
  7  8  1  0
  7  6  2  0
  8  9  2  0
  9  4  1  0
 10 11  2  0
 13 12  1  0
 14 13  2  0
 15 13  1  0
 16 15  1  0
 17 16  1  1
 18 17  1  0
 18 10  1  0
 19 17  1  0
 20 19  2  0
 21 19  1  0
 21 25  1  0
 22 23  1  0
 22 21  1  0
 23 24  1  0
 24 25  1  0
 25 26  1  6
 26 28  1  0
 27 26  2  0
M  END
$$$$
