FQP.pdb
     RDKit          3D

 28 29  0  0  1  0  0  0  0  0999 V2000
   26.1754  -22.7542  -11.8775 N   0  0  0  0  0  0  0  0  0  0  0  0
   25.6563  -21.5757  -12.5401 C   0  0  1  0  0  0  0  0  0  0  0  0
   25.7316  -20.3721  -11.6074 C   0  0  0  0  0  0  0  0  0  0  0  0
   24.7241  -20.5834  -10.5431 C   0  0  0  0  0  0  0  0  0  0  0  0
   23.3903  -20.6255  -10.8968 C   0  0  0  0  0  0  0  0  0  0  0  0
   22.4164  -20.8231   -9.9180 C   0  0  0  0  0  0  0  0  0  0  0  0
   22.8490  -20.9703   -8.6125 C   0  0  0  0  0  0  0  0  0  0  0  0
   24.1921  -20.9250   -8.2783 C   0  0  0  0  0  0  0  0  0  0  0  0
   25.1426  -20.7309   -9.2418 C   0  0  0  0  0  0  0  0  0  0  0  0
   26.4971  -21.2776  -13.7173 C   0  0  0  0  0  0  0  0  0  0  0  0
   27.7205  -20.9854  -13.5505 O   0  0  0  0  0  0  0  0  0  0  0  0
   25.3094  -24.2375  -16.0231 N   0  0  0  0  0  0  0  0  0  0  0  0
   26.7050  -24.4823  -16.1466 C   0  0  0  0  0  0  0  0  0  0  0  0
   27.2151  -25.5220  -15.7028 O   0  0  0  0  0  0  0  0  0  0  0  0
   27.5183  -23.4136  -16.8404 C   0  0  0  0  0  0  0  0  0  0  0  0
   26.6579  -22.2521  -17.1257 C   0  0  0  0  0  0  0  0  0  0  0  0
   26.9734  -21.0838  -16.1687 C   0  0  2  0  0  0  0  0  0  0  0  0
   26.0122  -21.2992  -15.0339 N   0  0  0  0  0  0  0  0  0  0  0  0
   26.6007  -19.7998  -16.7437 C   0  0  0  0  0  0  0  0  0  0  0  0
   25.3495  -19.5710  -16.9359 O   0  0  0  0  0  0  0  0  0  0  0  0
   27.5097  -18.8011  -17.0932 N   0  0  0  0  0  0  0  0  0  0  0  0
   28.9676  -18.9701  -16.8313 C   0  0  0  0  0  0  0  0  0  0  0  0
   29.5542  -18.1061  -17.9172 C   0  0  0  0  0  0  0  0  0  0  0  0
   28.6828  -16.8512  -17.7360 C   0  0  0  0  0  0  0  0  0  0  0  0
   27.3084  -17.5225  -17.7004 C   0  0  1  0  0  0  0  0  0  0  0  0
   26.9338  -17.6700  -19.1589 C   0  0  0  0  0  0  0  0  0  0  0  0
   27.0639  -18.7379  -19.7950 O   0  0  0  0  0  0  0  0  0  0  0  0
   26.4261  -16.5546  -19.7907 O   0  0  0  0  0  0  0  0  0  0  0  0
  2 10  1  0
  2  1  1  1
  3  2  1  0
  4  3  1  0
  5  4  2  0
  6  5  1  0
  7  8  1  0
  7  6  2  0
  8  9  2  0
  9  4  1  0
 10 11  2  0
 13 12  1  0
 14 13  2  0
 15 13  1  0
 16 15  1  0
 17 16  1  6
 18 17  1  0
 18 10  1  0
 19 17  1  0
 20 19  2  0
 21 19  1  0
 21 25  1  0
 22 23  1  0
 22 21  1  0
 23 24  1  0
 24 25  1  0
 25 26  1  6
 26 28  1  0
 27 26  2  0
M  END
$$$$
