FQP.pdb
     RDKit          3D

 28 29  0  0  1  0  0  0  0  0999 V2000
   25.6058  -21.0709   -7.8098 N   0  0  0  0  0  0  0  0  0  0  0  0
   26.5710  -20.2815   -8.5464 C   0  0  1  0  0  0  0  0  0  0  0  0
   27.9754  -20.5329   -8.0091 C   0  0  0  0  0  0  0  0  0  0  0  0
   28.0603  -19.8701   -6.6877 C   0  0  0  0  0  0  0  0  0  0  0  0
   28.5119  -20.6047   -5.6095 C   0  0  0  0  0  0  0  0  0  0  0  0
   28.6038  -20.0098   -4.3513 C   0  0  0  0  0  0  0  0  0  0  0  0
   28.2285  -18.6826   -4.2476 C   0  0  0  0  0  0  0  0  0  0  0  0
   27.7779  -17.9630   -5.3415 C   0  0  0  0  0  0  0  0  0  0  0  0
   27.6897  -18.5512   -6.5728 C   0  0  0  0  0  0  0  0  0  0  0  0
   26.5557  -20.7035   -9.9618 C   0  0  0  0  0  0  0  0  0  0  0  0
   27.3683  -21.5955  -10.3543 O   0  0  0  0  0  0  0  0  0  0  0  0
   24.8721  -23.2022  -14.5336 N   0  0  0  0  0  0  0  0  0  0  0  0
   24.9026  -23.7411  -13.2177 C   0  0  0  0  0  0  0  0  0  0  0  0
   25.0783  -24.9537  -13.0255 O   0  0  0  0  0  0  0  0  0  0  0  0
   24.7095  -22.7611  -12.0831 C   0  0  0  0  0  0  0  0  0  0  0  0
   24.5686  -21.4005  -12.6305 C   0  0  0  0  0  0  0  0  0  0  0  0
   25.8343  -20.5620  -12.3562 C   0  0  2  0  0  0  0  0  0  0  0  0
   25.6784  -20.1648  -10.9153 N   0  0  0  0  0  0  0  0  0  0  0  0
   25.8234  -19.3101  -13.0985 C   0  0  0  0  0  0  0  0  0  0  0  0
   24.8776  -18.4747  -12.8487 O   0  0  0  0  0  0  0  0  0  0  0  0
   26.7732  -18.9558  -14.0566 N   0  0  0  0  0  0  0  0  0  0  0  0
   27.9110  -19.8645  -14.3763 C   0  0  0  0  0  0  0  0  0  0  0  0
   28.1953  -19.4742  -15.8034 C   0  0  0  0  0  0  0  0  0  0  0  0
   28.2004  -17.9436  -15.6473 C   0  0  0  0  0  0  0  0  0  0  0  0
   26.8956  -17.7827  -14.8648 C   0  0  1  0  0  0  0  0  0  0  0  0
   25.8269  -17.7503  -15.9353 C   0  0  0  0  0  0  0  0  0  0  0  0
   25.5265  -16.7180  -16.5724 O   0  0  0  0  0  0  0  0  0  0  0  0
   25.1694  -18.9331  -16.1995 O   0  0  0  0  0  0  0  0  0  0  0  0
  2 10  1  0
  2  1  1  1
  3  2  1  0
  4  3  1  0
  5  4  2  0
  6  5  1  0
  7  8  1  0
  7  6  2  0
  8  9  2  0
  9  4  1  0
 10 11  2  0
 13 12  1  0
 14 13  2  0
 15 13  1  0
 16 15  1  0
 17 16  1  6
 18 17  1  0
 18 10  1  0
 19 17  1  0
 20 19  2  0
 21 19  1  0
 21 25  1  0
 22 23  1  0
 22 21  1  0
 23 24  1  0
 24 25  1  0
 25 26  1  6
 26 28  1  0
 27 26  2  0
M  END
$$$$
