CAH.pdb
     RDKit          3D

 22 22  0  0  1  0  0  0  0  0999 V2000
    8.2642  -13.5890   17.1904 N   0  0  0  0  0  0  0  0  0  0  0  0
    9.1080  -13.6704   18.3674 C   0  0  1  0  0  0  0  0  0  0  0  0
    8.3107  -14.2900   19.4800 C   0  0  0  0  0  0  0  0  0  0  0  0
    6.7663  -13.4156   19.7820 S   0  0  0  0  0  0  0  0  0  0  0  0
   10.2793  -14.5126   18.0675 C   0  0  0  0  0  0  0  0  0  0  0  0
   10.7788  -14.4732   16.8934 O   0  0  0  0  0  0  0  0  0  0  0  0
   12.6040  -13.8296   19.6356 C   0  0  0  0  0  0  0  0  0  0  0  0
   12.2559  -15.2697   19.3162 C   0  0  2  0  0  0  0  0  0  0  0  0
   10.8628  -15.3613   19.0447 N   0  0  0  0  0  0  0  0  0  0  0  0
   12.7137  -16.1719   20.3998 C   0  0  0  0  0  0  0  0  0  0  0  0
   13.9515  -16.1646   20.6435 O   0  0  0  0  0  0  0  0  0  0  0  0
   11.8285  -17.0022   21.1311 N   0  0  0  0  0  0  0  0  0  0  0  0
   12.3861  -17.8301   22.1811 C   0  0  1  0  0  0  0  0  0  0  0  0
   13.8407  -18.1448   21.9220 C   0  0  0  0  0  0  0  0  0  0  0  0
   13.9290  -19.1391   20.8331 C   0  0  0  0  0  0  0  0  0  0  0  0
   12.9850  -20.1015   20.4866 C   0  0  0  0  0  0  0  0  0  0  0  0
   13.4300  -20.8157   19.4423 N   0  0  0  0  0  0  0  0  0  0  0  0
   14.6319  -20.3386   19.1098 C   0  0  0  0  0  0  0  0  0  0  0  0
   14.9330  -19.3156   19.9606 N   0  0  0  0  0  0  0  0  0  0  0  0
   12.2319  -17.0753   23.4511 C   0  0  0  0  0  0  0  0  0  0  0  0
   11.7030  -15.9490   23.5594 O   0  0  0  0  0  0  0  0  0  0  0  0
   12.7000  -17.6217   24.6630 O   0  0  0  0  0  0  0  0  0  0  0  0
  2  1  1  6
  3  2  1  0
  4  3  1  0
  5  9  1  0
  5  2  1  0
  6  5  2  0
  8  7  1  1
  8  9  1  0
  8 10  1  0
 10 12  1  0
 11 10  2  0
 12 13  1  0
 13 20  1  0
 13 14  1  6
 15 14  1  0
 16 15  2  0
 17 16  1  0
 18 17  1  0
 18 19  2  0
 19 15  1  0
 20 22  1  0
 21 20  2  0
M  END
$$$$
