CAH.pdb
     RDKit          3D

 22 22  0  0  1  0  0  0  0  0999 V2000
    6.7237  -13.5911   17.6412 N   0  0  0  0  0  0  0  0  0  0  0  0
    8.0281  -13.6911   18.2676 C   0  0  1  0  0  0  0  0  0  0  0  0
    8.0939  -12.6910   19.3871 C   0  0  0  0  0  0  0  0  0  0  0  0
    9.5716  -12.8917   20.3957 S   0  0  0  0  0  0  0  0  0  0  0  0
    8.2050  -15.0512   18.8061 C   0  0  0  0  0  0  0  0  0  0  0  0
    7.2768  -15.5516   19.5257 O   0  0  0  0  0  0  0  0  0  0  0  0
    9.7953  -18.1263   18.0946 C   0  0  0  0  0  0  0  0  0  0  0  0
    9.5371  -17.0849   19.1650 C   0  0  2  0  0  0  0  0  0  0  0  0
    9.3736  -15.8144   18.5469 N   0  0  0  0  0  0  0  0  0  0  0  0
   10.6040  -17.1156   20.1939 C   0  0  0  0  0  0  0  0  0  0  0  0
   11.0958  -18.2485   20.4512 O   0  0  0  0  0  0  0  0  0  0  0  0
   11.0591  -15.9513   20.8612 N   0  0  0  0  0  0  0  0  0  0  0  0
   12.1672  -16.0876   21.7844 C   0  0  1  0  0  0  0  0  0  0  0  0
   13.1304  -14.9301   21.6652 C   0  0  0  0  0  0  0  0  0  0  0  0
   13.8050  -15.0016   20.3530 C   0  0  0  0  0  0  0  0  0  0  0  0
   13.8185  -16.0735   19.4650 C   0  0  0  0  0  0  0  0  0  0  0  0
   14.5400  -15.7533   18.3809 N   0  0  0  0  0  0  0  0  0  0  0  0
   14.9894  -14.5072   18.5486 C   0  0  0  0  0  0  0  0  0  0  0  0
   14.5388  -14.0518   19.7531 N   0  0  0  0  0  0  0  0  0  0  0  0
   11.5845  -16.1454   23.1496 C   0  0  0  0  0  0  0  0  0  0  0  0
   12.2387  -16.2624   24.2070 O   0  0  0  0  0  0  0  0  0  0  0  0
   10.1889  -16.0668   23.3297 O   0  0  0  0  0  0  0  0  0  0  0  0
  2  1  1  1
  3  2  1  0
  4  3  1  0
  5  9  1  0
  5  2  1  0
  6  5  2  0
  8  7  1  6
  8  9  1  0
  8 10  1  0
 10 12  1  0
 11 10  2  0
 12 13  1  0
 13 20  1  0
 13 14  1  1
 15 14  1  0
 16 15  2  0
 17 16  1  0
 18 17  1  0
 18 19  2  0
 19 15  1  0
 20 22  1  0
 21 20  2  0
M  END
$$$$
