CAH.pdb
     RDKit          3D

 22 22  0  0  1  0  0  0  0  0999 V2000
    7.7493  -13.1576   18.3385 N   0  0  0  0  0  0  0  0  0  0  0  0
    8.6890  -14.2469   18.5231 C   0  0  1  0  0  0  0  0  0  0  0  0
   10.0738  -13.6694   18.6036 C   0  0  0  0  0  0  0  0  0  0  0  0
   10.2899  -12.6126   20.0450 S   0  0  0  0  0  0  0  0  0  0  0  0
    8.3725  -14.9539   19.7765 C   0  0  0  0  0  0  0  0  0  0  0  0
    7.8090  -14.3058   20.7210 O   0  0  0  0  0  0  0  0  0  0  0  0
    8.5382  -18.4574   21.0442 C   0  0  0  0  0  0  0  0  0  0  0  0
    8.3720  -16.9587   21.1977 C   0  0  2  0  0  0  0  0  0  0  0  0
    8.6763  -16.3286   19.9595 N   0  0  0  0  0  0  0  0  0  0  0  0
    9.1766  -16.4565   22.3371 C   0  0  0  0  0  0  0  0  0  0  0  0
   10.2141  -15.8031   22.0398 O   0  0  0  0  0  0  0  0  0  0  0  0
    8.8184  -16.6863   23.6887 N   0  0  0  0  0  0  0  0  0  0  0  0
    9.7198  -16.2135   24.7195 C   0  0  1  0  0  0  0  0  0  0  0  0
    9.7148  -14.7055   24.8079 C   0  0  0  0  0  0  0  0  0  0  0  0
    8.3872  -14.2576   25.2758 C   0  0  0  0  0  0  0  0  0  0  0  0
    7.1938  -14.9735   25.2484 C   0  0  0  0  0  0  0  0  0  0  0  0
    6.2063  -14.2258   25.7624 N   0  0  0  0  0  0  0  0  0  0  0  0
    6.7325  -13.0515   26.1183 C   0  0  0  0  0  0  0  0  0  0  0  0
    8.0635  -13.0745   25.8199 N   0  0  0  0  0  0  0  0  0  0  0  0
    9.2629  -16.8145   25.9987 C   0  0  0  0  0  0  0  0  0  0  0  0
    8.2388  -17.5155   26.1394 O   0  0  0  0  0  0  0  0  0  0  0  0
   10.0019  -16.6129   27.1818 O   0  0  0  0  0  0  0  0  0  0  0  0
  2  1  1  1
  3  2  1  0
  4  3  1  0
  5  9  1  0
  5  2  1  0
  6  5  2  0
  8  7  1  6
  8  9  1  0
  8 10  1  0
 10 12  1  0
 11 10  2  0
 12 13  1  0
 13 20  1  0
 13 14  1  1
 15 14  1  0
 16 15  2  0
 17 16  1  0
 18 17  1  0
 18 19  2  0
 19 15  1  0
 20 22  1  0
 21 20  2  0
M  END
$$$$
