CAH.pdb
     RDKit          3D

 22 22  0  0  1  0  0  0  0  0999 V2000
    8.2545  -15.7163   16.0932 N   0  0  0  0  0  0  0  0  0  0  0  0
    9.2618  -15.3207   17.0590 C   0  0  1  0  0  0  0  0  0  0  0  0
    8.6491  -14.3232   18.0009 C   0  0  0  0  0  0  0  0  0  0  0  0
    8.2392  -12.7733   17.1819 S   0  0  0  0  0  0  0  0  0  0  0  0
    9.7047  -16.5073   17.8120 C   0  0  0  0  0  0  0  0  0  0  0  0
    9.3910  -17.6644   17.3736 O   0  0  0  0  0  0  0  0  0  0  0  0
   12.2781  -17.8421   18.4068 C   0  0  0  0  0  0  0  0  0  0  0  0
   11.2359  -17.5058   19.4545 C   0  0  2  0  0  0  0  0  0  0  0  0
   10.4665  -16.3973   19.0050 N   0  0  0  0  0  0  0  0  0  0  0  0
   11.8718  -17.2945   20.7769 C   0  0  0  0  0  0  0  0  0  0  0  0
   12.5505  -18.2577   21.2278 O   0  0  0  0  0  0  0  0  0  0  0  0
   11.7373  -16.0881   21.5081 N   0  0  0  0  0  0  0  0  0  0  0  0
   11.0354  -16.1368   22.7745 C   0  0  1  0  0  0  0  0  0  0  0  0
    9.6325  -16.6715   22.6078 C   0  0  0  0  0  0  0  0  0  0  0  0
    8.7860  -15.6179   22.0118 C   0  0  0  0  0  0  0  0  0  0  0  0
    9.1684  -14.3306   21.6455 C   0  0  0  0  0  0  0  0  0  0  0  0
    8.1150  -13.6729   21.1394 N   0  0  0  0  0  0  0  0  0  0  0  0
    7.0686  -14.5016   21.1708 C   0  0  0  0  0  0  0  0  0  0  0  0
    7.4819  -15.6875   21.7038 N   0  0  0  0  0  0  0  0  0  0  0  0
   11.8280  -17.0165   23.6715 C   0  0  0  0  0  0  0  0  0  0  0  0
   12.0000  -18.2428   23.5088 O   0  0  0  0  0  0  0  0  0  0  0  0
   12.4596  -16.4825   24.8127 O   0  0  0  0  0  0  0  0  0  0  0  0
  2  1  1  6
  3  2  1  0
  4  3  1  0
  5  9  1  0
  5  2  1  0
  6  5  2  0
  8  7  1  6
  8  9  1  0
  8 10  1  0
 10 12  1  0
 11 10  2  0
 12 13  1  0
 13 20  1  0
 13 14  1  6
 15 14  1  0
 16 15  2  0
 17 16  1  0
 18 17  1  0
 18 19  2  0
 19 15  1  0
 20 22  1  0
 21 20  2  0
M  END
$$$$
