CAH.pdb
     RDKit          3D

 22 22  0  0  1  0  0  0  0  0999 V2000
    7.5706  -13.5716   18.1686 N   0  0  0  0  0  0  0  0  0  0  0  0
    8.8315  -14.1462   18.5975 C   0  0  1  0  0  0  0  0  0  0  0  0
    9.6825  -13.0477   19.1691 C   0  0  0  0  0  0  0  0  0  0  0  0
    8.8127  -12.0926   20.4230 S   0  0  0  0  0  0  0  0  0  0  0  0
    8.5744  -15.1639   19.6314 C   0  0  0  0  0  0  0  0  0  0  0  0
    7.4812  -15.1086   20.2884 O   0  0  0  0  0  0  0  0  0  0  0  0
   10.0447  -18.3990   20.6831 C   0  0  0  0  0  0  0  0  0  0  0  0
    9.2086  -17.1574   20.9210 C   0  0  2  0  0  0  0  0  0  0  0  0
    9.5053  -16.1979   19.9139 N   0  0  0  0  0  0  0  0  0  0  0  0
    9.4010  -16.6530   22.3017 C   0  0  0  0  0  0  0  0  0  0  0  0
   10.2364  -15.7178   22.4406 O   0  0  0  0  0  0  0  0  0  0  0  0
    8.6974  -17.1773   23.4143 N   0  0  0  0  0  0  0  0  0  0  0  0
    8.9448  -16.5864   24.7136 C   0  0  1  0  0  0  0  0  0  0  0  0
    7.6568  -16.3476   25.4657 C   0  0  0  0  0  0  0  0  0  0  0  0
    7.2778  -14.9266   25.3276 C   0  0  0  0  0  0  0  0  0  0  0  0
    7.9828  -13.9222   24.6708 C   0  0  0  0  0  0  0  0  0  0  0  0
    7.3134  -12.7640   24.7654 N   0  0  0  0  0  0  0  0  0  0  0  0
    6.1997  -12.9974   25.4640 C   0  0  0  0  0  0  0  0  0  0  0  0
    6.1814  -14.3181   25.8053 N   0  0  0  0  0  0  0  0  0  0  0  0
    9.8175  -17.5315   25.4565 C   0  0  0  0  0  0  0  0  0  0  0  0
   10.0289  -18.7199   25.1354 O   0  0  0  0  0  0  0  0  0  0  0  0
   10.4866  -17.1120   26.6238 O   0  0  0  0  0  0  0  0  0  0  0  0
  2  1  1  1
  3  2  1  0
  4  3  1  0
  5  9  1  0
  5  2  1  0
  6  5  2  0
  8  7  1  6
  8  9  1  0
  8 10  1  0
 10 12  1  0
 11 10  2  0
 12 13  1  0
 13 20  1  0
 13 14  1  1
 15 14  1  0
 16 15  2  0
 17 16  1  0
 18 17  1  0
 18 19  2  0
 19 15  1  0
 20 22  1  0
 21 20  2  0
M  END
$$$$
