CAH.pdb
     RDKit          3D

 22 22  0  0  1  0  0  0  0  0999 V2000
    8.0375  -13.8660   19.4159 N   0  0  0  0  0  0  0  0  0  0  0  0
    7.1750  -14.1423   20.5488 C   0  0  1  0  0  0  0  0  0  0  0  0
    6.5815  -15.5110   20.3696 C   0  0  0  0  0  0  0  0  0  0  0  0
    7.8410  -16.7934   20.2688 S   0  0  0  0  0  0  0  0  0  0  0  0
    7.9731  -14.1057   21.7868 C   0  0  0  0  0  0  0  0  0  0  0  0
    9.2377  -14.2607   21.7063 O   0  0  0  0  0  0  0  0  0  0  0  0
    7.3911  -13.4973   25.4170 C   0  0  0  0  0  0  0  0  0  0  0  0
    8.1560  -14.0627   24.2371 C   0  0  2  0  0  0  0  0  0  0  0  0
    7.3756  -13.9038   23.0587 N   0  0  0  0  0  0  0  0  0  0  0  0
    8.5628  -15.4639   24.4996 C   0  0  0  0  0  0  0  0  0  0  0  0
    7.7259  -16.3541   24.1850 O   0  0  0  0  0  0  0  0  0  0  0  0
    9.8144  -15.8047   25.0699 N   0  0  0  0  0  0  0  0  0  0  0  0
   10.0928  -17.2063   25.3078 C   0  0  1  0  0  0  0  0  0  0  0  0
   11.4882  -17.5753   24.8622 C   0  0  0  0  0  0  0  0  0  0  0  0
   11.5474  -17.5308   23.3869 C   0  0  0  0  0  0  0  0  0  0  0  0
   10.5027  -17.2693   22.5050 C   0  0  0  0  0  0  0  0  0  0  0  0
   10.9536  -17.3183   21.2429 N   0  0  0  0  0  0  0  0  0  0  0  0
   12.2570  -17.6036   21.2908 C   0  0  0  0  0  0  0  0  0  0  0  0
   12.6158  -17.7326   22.6006 N   0  0  0  0  0  0  0  0  0  0  0  0
    9.9313  -17.4349   26.7666 C   0  0  0  0  0  0  0  0  0  0  0  0
   10.0819  -18.5320   27.3443 O   0  0  0  0  0  0  0  0  0  0  0  0
    9.5813  -16.3677   27.6180 O   0  0  0  0  0  0  0  0  0  0  0  0
  2  1  1  6
  3  2  1  0
  4  3  1  0
  5  9  1  0
  5  2  1  0
  6  5  2  0
  8  7  1  1
  8  9  1  0
  8 10  1  0
 10 12  1  0
 11 10  2  0
 12 13  1  0
 13 20  1  0
 13 14  1  1
 15 14  1  0
 16 15  2  0
 17 16  1  0
 18 17  1  0
 18 19  2  0
 19 15  1  0
 20 22  1  0
 21 20  2  0
M  END
$$$$
