CAH.pdb
     RDKit          3D

 22 22  0  0  1  0  0  0  0  0999 V2000
    8.5544  -16.6758   15.1722 N   0  0  0  0  0  0  0  0  0  0  0  0
    7.9879  -16.4119   16.4811 C   0  0  1  0  0  0  0  0  0  0  0  0
    8.2026  -17.6236   17.3433 C   0  0  0  0  0  0  0  0  0  0  0  0
    7.6382  -17.3674   19.0335 S   0  0  0  0  0  0  0  0  0  0  0  0
    8.6687  -15.2501   17.0794 C   0  0  0  0  0  0  0  0  0  0  0  0
    9.9215  -15.1046   16.8821 O   0  0  0  0  0  0  0  0  0  0  0  0
    7.7187  -12.2604   19.0995 C   0  0  0  0  0  0  0  0  0  0  0  0
    8.6963  -13.2758   18.5424 C   0  0  2  0  0  0  0  0  0  0  0  0
    7.9715  -14.2946   17.8645 N   0  0  0  0  0  0  0  0  0  0  0  0
    9.5867  -13.7870   19.6117 C   0  0  0  0  0  0  0  0  0  0  0  0
   10.3363  -12.9363   20.1650 O   0  0  0  0  0  0  0  0  0  0  0  0
    9.6097  -15.1483   20.0044 N   0  0  0  0  0  0  0  0  0  0  0  0
   10.4665  -15.5209   21.1115 C   0  0  1  0  0  0  0  0  0  0  0  0
    9.6792  -16.1730   22.2236 C   0  0  0  0  0  0  0  0  0  0  0  0
   10.6110  -16.5805   23.2949 C   0  0  0  0  0  0  0  0  0  0  0  0
   11.9938  -16.4235   23.3195 C   0  0  0  0  0  0  0  0  0  0  0  0
   12.4849  -16.9205   24.4642 N   0  0  0  0  0  0  0  0  0  0  0  0
   11.4566  -17.3914   25.1738 C   0  0  0  0  0  0  0  0  0  0  0  0
   10.3148  -17.1822   24.4571 N   0  0  0  0  0  0  0  0  0  0  0  0
   11.4840  -16.4585   20.5709 C   0  0  0  0  0  0  0  0  0  0  0  0
   12.3592  -17.0389   21.2469 O   0  0  0  0  0  0  0  0  0  0  0  0
   11.5142  -16.7561   19.1936 O   0  0  0  0  0  0  0  0  0  0  0  0
  2  1  1  6
  3  2  1  0
  4  3  1  0
  5  9  1  0
  5  2  1  0
  6  5  2  0
  8  7  1  1
  8  9  1  0
  8 10  1  0
 10 12  1  0
 11 10  2  0
 12 13  1  0
 13 20  1  0
 13 14  1  1
 15 14  1  0
 16 15  2  0
 17 16  1  0
 18 17  1  0
 18 19  2  0
 19 15  1  0
 20 22  1  0
 21 20  2  0
M  END
$$$$
