CAH.pdb
     RDKit          3D

 22 22  0  0  1  0  0  0  0  0999 V2000
    9.3220  -15.9539   16.2316 N   0  0  0  0  0  0  0  0  0  0  0  0
   10.2335  -15.2547   17.1171 C   0  0  1  0  0  0  0  0  0  0  0  0
    9.4346  -14.3096   17.9692 C   0  0  0  0  0  0  0  0  0  0  0  0
    8.3600  -13.2489   16.9888 S   0  0  0  0  0  0  0  0  0  0  0  0
   10.9235  -16.2339   17.9750 C   0  0  0  0  0  0  0  0  0  0  0  0
   10.2249  -17.0945   18.6083 O   0  0  0  0  0  0  0  0  0  0  0  0
   12.7242  -13.8982   18.3794 C   0  0  0  0  0  0  0  0  0  0  0  0
   12.9696  -15.2816   18.9476 C   0  0  2  0  0  0  0  0  0  0  0  0
   12.3363  -16.2448   18.1145 N   0  0  0  0  0  0  0  0  0  0  0  0
   12.5451  -15.3479   20.3665 C   0  0  0  0  0  0  0  0  0  0  0  0
   13.1685  -14.6000   21.1688 O   0  0  0  0  0  0  0  0  0  0  0  0
   11.5021  -16.1954   20.8157 N   0  0  0  0  0  0  0  0  0  0  0  0
   11.0534  -16.0517   22.1856 C   0  0  1  0  0  0  0  0  0  0  0  0
    9.5469  -16.1080   22.2817 C   0  0  0  0  0  0  0  0  0  0  0  0
    8.9746  -15.0021   21.4870 C   0  0  0  0  0  0  0  0  0  0  0  0
    9.6573  -13.9444   20.8933 C   0  0  0  0  0  0  0  0  0  0  0  0
    8.7880  -13.1453   20.2575 N   0  0  0  0  0  0  0  0  0  0  0  0
    7.5679  -13.6606   20.4268 C   0  0  0  0  0  0  0  0  0  0  0  0
    7.6858  -14.7935   21.1775 N   0  0  0  0  0  0  0  0  0  0  0  0
   11.6691  -17.1610   22.9582 C   0  0  0  0  0  0  0  0  0  0  0  0
   12.3879  -18.0616   22.4762 O   0  0  0  0  0  0  0  0  0  0  0  0
   11.4620  -17.2581   24.3489 O   0  0  0  0  0  0  0  0  0  0  0  0
  2  1  1  6
  3  2  1  0
  4  3  1  0
  5  9  1  0
  5  2  1  0
  6  5  2  0
  8  7  1  6
  8  9  1  0
  8 10  1  0
 10 12  1  0
 11 10  2  0
 12 13  1  0
 13 20  1  0
 13 14  1  6
 15 14  1  0
 16 15  2  0
 17 16  1  0
 18 17  1  0
 18 19  2  0
 19 15  1  0
 20 22  1  0
 21 20  2  0
M  END
$$$$
