CAH.pdb
     RDKit          3D

 22 22  0  0  1  0  0  0  0  0999 V2000
    5.4168  -13.0394   26.4341 N   0  0  0  0  0  0  0  0  0  0  0  0
    6.7077  -13.1426   25.7807 C   0  0  1  0  0  0  0  0  0  0  0  0
    7.7775  -13.0894   26.8345 C   0  0  0  0  0  0  0  0  0  0  0  0
    7.9469  -11.4474   27.5530 S   0  0  0  0  0  0  0  0  0  0  0  0
    6.7853  -14.4247   25.0589 C   0  0  0  0  0  0  0  0  0  0  0  0
    6.2093  -15.4473   25.5610 O   0  0  0  0  0  0  0  0  0  0  0  0
    7.6142  -15.6191   21.6898 C   0  0  0  0  0  0  0  0  0  0  0  0
    7.5609  -15.8206   23.1910 C   0  0  2  0  0  0  0  0  0  0  0  0
    7.4799  -14.5512   23.8272 N   0  0  0  0  0  0  0  0  0  0  0  0
    8.7034  -16.6467   23.6494 C   0  0  0  0  0  0  0  0  0  0  0  0
    8.7692  -17.8151   23.1780 O   0  0  0  0  0  0  0  0  0  0  0  0
    9.6757  -16.1702   24.5635 N   0  0  0  0  0  0  0  0  0  0  0  0
   10.7133  -17.0869   24.9896 C   0  0  1  0  0  0  0  0  0  0  0  0
   12.0866  -16.4772   24.8337 C   0  0  0  0  0  0  0  0  0  0  0  0
   12.3699  -16.2966   23.3952 C   0  0  0  0  0  0  0  0  0  0  0  0
   11.5672  -16.6691   22.3208 C   0  0  0  0  0  0  0  0  0  0  0  0
   12.1697  -16.3365   21.1698 N   0  0  0  0  0  0  0  0  0  0  0  0
   13.3354  -15.7617   21.4758 C   0  0  0  0  0  0  0  0  0  0  0  0
   13.4540  -15.7390   22.8346 N   0  0  0  0  0  0  0  0  0  0  0  0
   10.4427  -17.4103   26.4140 C   0  0  0  0  0  0  0  0  0  0  0  0
    9.5000  -16.9481   27.0905 O   0  0  0  0  0  0  0  0  0  0  0  0
   11.2815  -18.3030   27.1111 O   0  0  0  0  0  0  0  0  0  0  0  0
  2  1  1  1
  3  2  1  0
  4  3  1  0
  5  9  1  0
  5  2  1  0
  6  5  2  0
  8  7  1  6
  8  9  1  0
  8 10  1  0
 10 12  1  0
 11 10  2  0
 12 13  1  0
 13 20  1  0
 13 14  1  1
 15 14  1  0
 16 15  2  0
 17 16  1  0
 18 17  1  0
 18 19  2  0
 19 15  1  0
 20 22  1  0
 21 20  2  0
M  END
$$$$
