CAH.pdb
     RDKit          3D

 22 22  0  0  1  0  0  0  0  0999 V2000
    7.6904  -14.4929   18.1167 N   0  0  0  0  0  0  0  0  0  0  0  0
    8.5636  -14.3359   19.2642 C   0  0  1  0  0  0  0  0  0  0  0  0
    8.2904  -12.9963   19.8875 C   0  0  0  0  0  0  0  0  0  0  0  0
    9.0211  -11.6449   18.9489 S   0  0  0  0  0  0  0  0  0  0  0  0
    8.2807  -15.4038   20.2391 C   0  0  0  0  0  0  0  0  0  0  0  0
    7.0675  -15.6322   20.5642 O   0  0  0  0  0  0  0  0  0  0  0  0
    9.7584  -18.4727   21.3486 C   0  0  0  0  0  0  0  0  0  0  0  0
    8.9876  -17.2248   21.7303 C   0  0  2  0  0  0  0  0  0  0  0  0
    9.3162  -16.1804   20.8224 N   0  0  0  0  0  0  0  0  0  0  0  0
    9.2246  -16.8771   23.1517 C   0  0  0  0  0  0  0  0  0  0  0  0
   10.2805  -16.2320   23.3978 O   0  0  0  0  0  0  0  0  0  0  0  0
    8.3295  -17.2390   24.1889 N   0  0  0  0  0  0  0  0  0  0  0  0
    8.6076  -16.7541   25.5254 C   0  0  1  0  0  0  0  0  0  0  0  0
    7.3459  -16.3021   26.2222 C   0  0  0  0  0  0  0  0  0  0  0  0
    7.0026  -14.9427   25.7571 C   0  0  0  0  0  0  0  0  0  0  0  0
    7.7439  -14.1258   24.9082 C   0  0  0  0  0  0  0  0  0  0  0  0
    7.0995  -12.9645   24.7219 N   0  0  0  0  0  0  0  0  0  0  0  0
    5.9667  -13.0139   25.4268 C   0  0  0  0  0  0  0  0  0  0  0  0
    5.9110  -14.2224   26.0571 N   0  0  0  0  0  0  0  0  0  0  0  0
    9.2418  -17.8748   26.2659 C   0  0  0  0  0  0  0  0  0  0  0  0
    9.3265  -19.0516   25.8561 O   0  0  0  0  0  0  0  0  0  0  0  0
    9.8105  -17.6544   27.5365 O   0  0  0  0  0  0  0  0  0  0  0  0
  2  1  1  6
  3  2  1  0
  4  3  1  0
  5  9  1  0
  5  2  1  0
  6  5  2  0
  8  7  1  6
  8  9  1  0
  8 10  1  0
 10 12  1  0
 11 10  2  0
 12 13  1  0
 13 20  1  0
 13 14  1  1
 15 14  1  0
 16 15  2  0
 17 16  1  0
 18 17  1  0
 18 19  2  0
 19 15  1  0
 20 22  1  0
 21 20  2  0
M  END
$$$$
