CAH.pdb
     RDKit          3D

 22 22  0  0  1  0  0  0  0  0999 V2000
    7.2406  -15.8496   19.7959 N   0  0  0  0  0  0  0  0  0  0  0  0
    8.2852  -15.1489   20.5182 C   0  0  1  0  0  0  0  0  0  0  0  0
    7.6724  -13.9591   21.2012 C   0  0  0  0  0  0  0  0  0  0  0  0
    6.3340  -14.4239   22.3119 S   0  0  0  0  0  0  0  0  0  0  0  0
    8.8694  -16.0526   21.5248 C   0  0  0  0  0  0  0  0  0  0  0  0
    8.1549  -17.0074   21.9803 O   0  0  0  0  0  0  0  0  0  0  0  0
   12.2365  -16.6736   22.9761 C   0  0  0  0  0  0  0  0  0  0  0  0
   10.7276  -16.8115   22.9426 C   0  0  2  0  0  0  0  0  0  0  0  0
   10.1979  -15.8896   21.9979 N   0  0  0  0  0  0  0  0  0  0  0  0
   10.1580  -16.6656   24.3035 C   0  0  0  0  0  0  0  0  0  0  0  0
   10.0653  -15.4870   24.7440 O   0  0  0  0  0  0  0  0  0  0  0  0
    9.7362  -17.7728   25.0807 N   0  0  0  0  0  0  0  0  0  0  0  0
    9.2947  -17.5210   26.4373 C   0  0  1  0  0  0  0  0  0  0  0  0
    7.7881  -17.5528   26.5423 C   0  0  0  0  0  0  0  0  0  0  0  0
    7.2800  -18.7172   25.7886 C   0  0  0  0  0  0  0  0  0  0  0  0
    8.0230  -19.6574   25.0805 C   0  0  0  0  0  0  0  0  0  0  0  0
    7.2004  -20.5630   24.5311 N   0  0  0  0  0  0  0  0  0  0  0  0
    5.9517  -20.2300   24.8667 C   0  0  0  0  0  0  0  0  0  0  0  0
    6.0042  -19.1032   25.6340 N   0  0  0  0  0  0  0  0  0  0  0  0
    9.9014  -18.5757   27.2894 C   0  0  0  0  0  0  0  0  0  0  0  0
   10.6828  -19.4638   26.8886 O   0  0  0  0  0  0  0  0  0  0  0  0
    9.6099  -18.6300   28.6673 O   0  0  0  0  0  0  0  0  0  0  0  0
  2  1  1  1
  3  2  1  0
  4  3  1  0
  5  9  1  0
  5  2  1  0
  6  5  2  0
  8  7  1  1
  8  9  1  0
  8 10  1  0
 10 12  1  0
 11 10  2  0
 12 13  1  0
 13 20  1  0
 13 14  1  6
 15 14  1  0
 16 15  2  0
 17 16  1  0
 18 17  1  0
 18 19  2  0
 19 15  1  0
 20 22  1  0
 21 20  2  0
M  END
$$$$
