CAH.pdb
     RDKit          3D

 22 22  0  0  1  0  0  0  0  0999 V2000
    7.8902  -16.7460   15.7506 N   0  0  0  0  0  0  0  0  0  0  0  0
    9.0824  -16.1730   16.3458 C   0  0  1  0  0  0  0  0  0  0  0  0
    8.8536  -14.7008   16.5409 C   0  0  0  0  0  0  0  0  0  0  0  0
    8.7474  -13.8135   14.9780 S   0  0  0  0  0  0  0  0  0  0  0  0
    9.3302  -16.8137   17.6492 C   0  0  0  0  0  0  0  0  0  0  0  0
    8.3388  -17.0351   18.4224 O   0  0  0  0  0  0  0  0  0  0  0  0
   12.0994  -18.6362   19.2843 C   0  0  0  0  0  0  0  0  0  0  0  0
   10.8176  -17.8284   19.3218 C   0  0  2  0  0  0  0  0  0  0  0  0
   10.6349  -17.1888   18.0646 N   0  0  0  0  0  0  0  0  0  0  0  0
   10.8210  -16.8938   20.4725 C   0  0  0  0  0  0  0  0  0  0  0  0
   11.6002  -15.9055   20.3839 O   0  0  0  0  0  0  0  0  0  0  0  0
   10.0041  -17.0816   21.6150 N   0  0  0  0  0  0  0  0  0  0  0  0
   10.1383  -16.1398   22.7076 C   0  0  1  0  0  0  0  0  0  0  0  0
    8.8096  -15.5164   23.0653 C   0  0  0  0  0  0  0  0  0  0  0  0
    8.4205  -14.5725   21.9977 C   0  0  0  0  0  0  0  0  0  0  0  0
    9.1460  -14.2372   20.8580 C   0  0  0  0  0  0  0  0  0  0  0  0
    8.4582  -13.3449   20.1306 N   0  0  0  0  0  0  0  0  0  0  0  0
    7.3129  -13.0987   20.7714 C   0  0  0  0  0  0  0  0  0  0  0  0
    7.2935  -13.8496   21.9102 N   0  0  0  0  0  0  0  0  0  0  0  0
   10.6895  -16.8958   23.8614 C   0  0  0  0  0  0  0  0  0  0  0  0
   10.7380  -18.1407   23.9492 O   0  0  0  0  0  0  0  0  0  0  0  0
   11.2137  -16.2090   24.9749 O   0  0  0  0  0  0  0  0  0  0  0  0
  2  1  1  1
  3  2  1  0
  4  3  1  0
  5  9  1  0
  5  2  1  0
  6  5  2  0
  8  7  1  6
  8  9  1  0
  8 10  1  0
 10 12  1  0
 11 10  2  0
 12 13  1  0
 13 20  1  0
 13 14  1  1
 15 14  1  0
 16 15  2  0
 17 16  1  0
 18 17  1  0
 18 19  2  0
 19 15  1  0
 20 22  1  0
 21 20  2  0
M  END
$$$$
