CAH.pdb
     RDKit          3D

 22 22  0  0  1  0  0  0  0  0999 V2000
    7.7120  -18.1522   18.3909 N   0  0  0  0  0  0  0  0  0  0  0  0
    6.9932  -17.1880   19.2018 C   0  0  1  0  0  0  0  0  0  0  0  0
    6.4334  -17.9006   20.4003 C   0  0  0  0  0  0  0  0  0  0  0  0
    7.7222  -18.4548   21.5285 S   0  0  0  0  0  0  0  0  0  0  0  0
    7.9239  -16.1336   19.6412 C   0  0  0  0  0  0  0  0  0  0  0  0
    9.1790  -16.3587   19.5801 O   0  0  0  0  0  0  0  0  0  0  0  0
    7.7497  -12.5381   20.5179 C   0  0  0  0  0  0  0  0  0  0  0  0
    8.4028  -13.9051   20.5597 C   0  0  2  0  0  0  0  0  0  0  0  0
    7.4636  -14.8819   20.1277 N   0  0  0  0  0  0  0  0  0  0  0  0
    8.9691  -14.1741   21.9031 C   0  0  0  0  0  0  0  0  0  0  0  0
    9.7971  -13.3270   22.3373 O   0  0  0  0  0  0  0  0  0  0  0  0
    8.6140  -15.3108   22.6710 N   0  0  0  0  0  0  0  0  0  0  0  0
    9.1884  -15.4421   23.9945 C   0  0  1  0  0  0  0  0  0  0  0  0
    8.1253  -15.7117   25.0333 C   0  0  0  0  0  0  0  0  0  0  0  0
    7.3317  -14.4825   25.2366 C   0  0  0  0  0  0  0  0  0  0  0  0
    7.6309  -13.4098   26.0716 C   0  0  0  0  0  0  0  0  0  0  0  0
    6.6653  -12.4835   25.9812 N   0  0  0  0  0  0  0  0  0  0  0  0
    5.7560  -12.9318   25.1123 C   0  0  0  0  0  0  0  0  0  0  0  0
    6.1660  -14.1519   24.6600 N   0  0  0  0  0  0  0  0  0  0  0  0
   10.1572  -16.5665   23.9328 C   0  0  0  0  0  0  0  0  0  0  0  0
   10.7768  -17.0371   24.9098 O   0  0  0  0  0  0  0  0  0  0  0  0
   10.4409  -17.1925   22.7024 O   0  0  0  0  0  0  0  0  0  0  0  0
  2  1  1  6
  3  2  1  0
  4  3  1  0
  5  9  1  0
  5  2  1  0
  6  5  2  0
  8  7  1  1
  8  9  1  0
  8 10  1  0
 10 12  1  0
 11 10  2  0
 12 13  1  0
 13 20  1  0
 13 14  1  1
 15 14  1  0
 16 15  2  0
 17 16  1  0
 18 17  1  0
 18 19  2  0
 19 15  1  0
 20 22  1  0
 21 20  2  0
M  END
$$$$
