PLI.pdb
     RDKit          3D

 24 24  0  0  1  0  0  0  0  0999 V2000
    7.4685  -17.3656   21.2057 N   0  0  0  0  0  0  0  0  0  0  0  0
    6.5905  -17.6415   20.0983 C   0  0  0  0  0  0  0  0  0  0  0  0
    7.1002  -16.8733   18.9115 C   0  0  0  0  0  0  0  0  0  0  0  0
    7.8442  -15.7271   19.5927 C   0  0  0  0  0  0  0  0  0  0  0  0
    8.4725  -16.4483   20.7674 C   0  0  1  0  0  0  0  0  0  0  0  0
    8.8717  -15.5060   21.8488 C   0  0  0  0  0  0  0  0  0  0  0  0
    9.8195  -14.6961   21.7170 O   0  0  0  0  0  0  0  0  0  0  0  0
    7.3334  -11.7163   24.9018 C   0  0  0  0  0  0  0  0  0  0  0  0
    6.5894  -12.9996   24.7807 C   0  0  2  0  0  0  0  0  0  0  0  0
    5.4234  -12.9451   25.8074 C   0  0  0  0  0  0  0  0  0  0  0  0
    7.3201  -14.2622   24.9235 C   0  0  0  0  0  0  0  0  0  0  0  0
    8.5413  -14.5878   24.1828 C   0  0  2  0  0  0  0  0  0  0  0  0
    8.1723  -15.5161   23.0575 N   0  0  0  0  0  0  0  0  0  0  0  0
    9.6107  -15.2623   24.9442 C   0  0  0  0  0  0  0  0  0  0  0  0
   10.8247  -15.1722   24.6596 O   0  0  0  0  0  0  0  0  0  0  0  0
   10.2118  -13.5283   29.5651 C   0  0  0  0  0  0  0  0  0  0  0  0
   10.2633  -14.2802   28.2823 C   0  0  0  0  0  0  0  0  0  0  0  0
   10.1938  -15.7643   28.3831 C   0  0  2  0  0  0  0  0  0  0  0  0
   11.4256  -16.1970   29.1915 C   0  0  0  0  0  0  0  0  0  0  0  0
   10.1970  -16.5183   27.1074 C   0  0  2  0  0  0  0  0  0  0  0  0
    9.3118  -16.0846   26.0854 N   0  0  0  0  0  0  0  0  0  0  0  0
   10.1754  -18.0019   27.3711 C   0  0  0  0  0  0  0  0  0  0  0  0
   11.0671  -18.6532   27.9317 O   0  0  0  0  0  0  0  0  0  0  0  0
    9.0565  -18.7547   26.9583 O   0  0  0  0  0  0  0  0  0  0  0  0
  1  2  1  0
  2  3  1  0
  4  3  1  0
  5  1  1  0
  5  4  1  0
  6  7  2  0
  5  6  1  1
  9  8  1  1
  9 11  1  0
  9 10  1  0
 12 11  1  1
 12 13  1  0
 12 14  1  0
 13  6  1  0
 14 15  2  0
 14 21  1  0
 17 16  1  0
 18 20  1  0
 18 17  1  0
 18 19  1  1
 20 22  1  0
 20 21  1  6
 22 23  2  0
 22 24  1  0
M  END
$$$$
