PLI.pdb
     RDKit          3D

 24 24  0  0  1  0  0  0  0  0999 V2000
    7.2408  -15.3224   20.4921 N   0  0  0  0  0  0  0  0  0  0  0  0
    6.5559  -14.8202   19.3294 C   0  0  0  0  0  0  0  0  0  0  0  0
    7.4227  -13.7577   18.7146 C   0  0  0  0  0  0  0  0  0  0  0  0
    8.2285  -13.2903   19.9243 C   0  0  0  0  0  0  0  0  0  0  0  0
    8.4680  -14.6052   20.6374 C   0  0  1  0  0  0  0  0  0  0  0  0
    8.8258  -14.4040   22.0685 C   0  0  0  0  0  0  0  0  0  0  0  0
    9.9119  -13.8877   22.4225 O   0  0  0  0  0  0  0  0  0  0  0  0
    7.3322  -11.6757   25.7476 C   0  0  0  0  0  0  0  0  0  0  0  0
    6.3558  -12.7036   25.2945 C   0  0  2  0  0  0  0  0  0  0  0  0
    5.1896  -12.7038   26.3224 C   0  0  0  0  0  0  0  0  0  0  0  0
    6.8201  -14.0753   25.0679 C   0  0  0  0  0  0  0  0  0  0  0  0
    8.1279  -14.4120   24.5002 C   0  0  2  0  0  0  0  0  0  0  0  0
    7.9267  -14.8011   23.0607 N   0  0  0  0  0  0  0  0  0  0  0  0
    8.8513  -15.5304   25.1359 C   0  0  0  0  0  0  0  0  0  0  0  0
    8.6728  -16.7303   24.8336 O   0  0  0  0  0  0  0  0  0  0  0  0
   10.8204  -14.0631   29.9926 C   0  0  0  0  0  0  0  0  0  0  0  0
   11.0020  -14.3439   28.5428 C   0  0  0  0  0  0  0  0  0  0  0  0
   11.2185  -15.7688   28.1679 C   0  0  2  0  0  0  0  0  0  0  0  0
   12.7223  -15.9160   27.8938 C   0  0  0  0  0  0  0  0  0  0  0  0
   10.4870  -16.2616   26.9772 C   0  0  2  0  0  0  0  0  0  0  0  0
    9.8266  -15.3004   26.1671 N   0  0  0  0  0  0  0  0  0  0  0  0
    9.6532  -17.4661   27.3310 C   0  0  0  0  0  0  0  0  0  0  0  0
    8.4159  -17.5177   27.3342 O   0  0  0  0  0  0  0  0  0  0  0  0
   10.3013  -18.6639   27.6976 O   0  0  0  0  0  0  0  0  0  0  0  0
  1  2  1  0
  2  3  1  0
  4  3  1  0
  5  1  1  0
  5  4  1  0
  6  7  2  0
  5  6  1  1
  9  8  1  1
  9 11  1  0
  9 10  1  0
 12 11  1  1
 12 13  1  0
 12 14  1  0
 13  6  1  0
 14 15  2  0
 14 21  1  0
 17 16  1  0
 18 20  1  0
 18 17  1  0
 18 19  1  6
 20 22  1  0
 20 21  1  1
 22 23  2  0
 22 24  1  0
M  END
$$$$
