PLI.pdb
     RDKit          3D

 24 24  0  0  1  0  0  0  0  0999 V2000
    7.5106  -16.8935   20.6662 N   0  0  0  0  0  0  0  0  0  0  0  0
    6.8191  -16.8086   19.4061 C   0  0  0  0  0  0  0  0  0  0  0  0
    7.6126  -15.8976   18.5124 C   0  0  0  0  0  0  0  0  0  0  0  0
    8.3439  -15.0338   19.5372 C   0  0  0  0  0  0  0  0  0  0  0  0
    8.6705  -16.0617   20.6010 C   0  0  1  0  0  0  0  0  0  0  0  0
    8.9712  -15.4267   21.9136 C   0  0  0  0  0  0  0  0  0  0  0  0
   10.0594  -14.8494   22.1461 O   0  0  0  0  0  0  0  0  0  0  0  0
    5.4192  -13.1386   26.4040 C   0  0  0  0  0  0  0  0  0  0  0  0
    6.7879  -13.3582   25.8623 C   0  0  2  0  0  0  0  0  0  0  0  0
    7.4131  -11.9540   25.6301 C   0  0  0  0  0  0  0  0  0  0  0  0
    6.9545  -14.1823   24.6616 C   0  0  0  0  0  0  0  0  0  0  0  0
    8.2315  -14.7632   24.2400 C   0  0  2  0  0  0  0  0  0  0  0  0
    8.0139  -15.4697   22.9295 N   0  0  0  0  0  0  0  0  0  0  0  0
    8.8343  -15.7550   25.1518 C   0  0  0  0  0  0  0  0  0  0  0  0
    8.5192  -16.9648   25.1637 O   0  0  0  0  0  0  0  0  0  0  0  0
   11.0226  -14.0241   30.2349 C   0  0  0  0  0  0  0  0  0  0  0  0
   10.3127  -14.7698   29.1608 C   0  0  0  0  0  0  0  0  0  0  0  0
   11.1690  -15.5168   28.1983 C   0  0  2  0  0  0  0  0  0  0  0  0
   12.1384  -14.4875   27.5990 C   0  0  0  0  0  0  0  0  0  0  0  0
   10.4749  -16.1959   27.0791 C   0  0  2  0  0  0  0  0  0  0  0  0
    9.8432  -15.3788   26.1048 N   0  0  0  0  0  0  0  0  0  0  0  0
    9.6273  -17.3305   27.5944 C   0  0  0  0  0  0  0  0  0  0  0  0
    8.3965  -17.4223   27.4928 O   0  0  0  0  0  0  0  0  0  0  0  0
   10.2529  -18.4058   28.2589 O   0  0  0  0  0  0  0  0  0  0  0  0
  1  2  1  0
  2  3  1  0
  4  3  1  0
  5  1  1  0
  5  4  1  0
  6  7  2  0
  5  6  1  1
  9  8  1  6
  9 11  1  0
  9 10  1  0
 12 11  1  1
 12 13  1  0
 12 14  1  0
 13  6  1  0
 14 15  2  0
 14 21  1  0
 17 16  1  0
 18 20  1  0
 18 17  1  0
 18 19  1  6
 20 22  1  0
 20 21  1  1
 22 23  2  0
 22 24  1  0
M  END
$$$$
