PLI.pdb
     RDKit          3D

 24 24  0  0  1  0  0  0  0  0999 V2000
    7.4853  -16.7952   20.6290 N   0  0  0  0  0  0  0  0  0  0  0  0
    6.8441  -16.6225   19.3514 C   0  0  0  0  0  0  0  0  0  0  0  0
    7.7407  -15.7632   18.5052 C   0  0  0  0  0  0  0  0  0  0  0  0
    8.5100  -14.9891   19.5730 C   0  0  0  0  0  0  0  0  0  0  0  0
    8.7135  -16.0652   20.6196 C   0  0  1  0  0  0  0  0  0  0  0  0
    9.0251  -15.4883   21.9563 C   0  0  0  0  0  0  0  0  0  0  0  0
   10.1483  -15.0054   22.2334 O   0  0  0  0  0  0  0  0  0  0  0  0
    5.3841  -13.0072   26.2808 C   0  0  0  0  0  0  0  0  0  0  0  0
    6.7609  -13.2745   25.7827 C   0  0  2  0  0  0  0  0  0  0  0  0
    7.4084  -11.8940   25.4805 C   0  0  0  0  0  0  0  0  0  0  0  0
    6.9419  -14.1709   24.6372 C   0  0  0  0  0  0  0  0  0  0  0  0
    8.2330  -14.7364   24.2382 C   0  0  2  0  0  0  0  0  0  0  0  0
    8.0383  -15.4797   22.9445 N   0  0  0  0  0  0  0  0  0  0  0  0
    8.8496  -15.6926   25.1783 C   0  0  0  0  0  0  0  0  0  0  0  0
    8.5609  -16.9085   25.2167 O   0  0  0  0  0  0  0  0  0  0  0  0
   11.0952  -13.6975   30.1279 C   0  0  0  0  0  0  0  0  0  0  0  0
   10.3665  -14.4908   29.1016 C   0  0  0  0  0  0  0  0  0  0  0  0
   11.2016  -15.3375   28.2053 C   0  0  2  0  0  0  0  0  0  0  0  0
   12.2282  -14.3953   27.5599 C   0  0  0  0  0  0  0  0  0  0  0  0
   10.4939  -16.0548   27.1188 C   0  0  2  0  0  0  0  0  0  0  0  0
    9.8418  -15.2716   26.1301 N   0  0  0  0  0  0  0  0  0  0  0  0
    9.6616  -17.1776   27.6824 C   0  0  0  0  0  0  0  0  0  0  0  0
   10.0921  -18.1662   28.2914 O   0  0  0  0  0  0  0  0  0  0  0  0
    8.2607  -17.1379   27.5240 O   0  0  0  0  0  0  0  0  0  0  0  0
  1  2  1  0
  2  3  1  0
  4  3  1  0
  5  1  1  0
  5  4  1  0
  6  7  2  0
  5  6  1  1
  9  8  1  6
  9 11  1  0
  9 10  1  0
 12 11  1  1
 12 13  1  0
 12 14  1  0
 13  6  1  0
 14 15  2  0
 14 21  1  0
 17 16  1  0
 18 20  1  0
 18 17  1  0
 18 19  1  6
 20 22  1  0
 20 21  1  1
 22 23  2  0
 22 24  1  0
M  END
$$$$
