PLI.pdb
     RDKit          3D

 24 24  0  0  1  0  0  0  0  0999 V2000
    7.4654  -18.9150   21.4309 N   0  0  0  0  0  0  0  0  0  0  0  0
    6.6228  -19.7606   20.6259 C   0  0  0  0  0  0  0  0  0  0  0  0
    7.4375  -20.2310   19.4540 C   0  0  0  0  0  0  0  0  0  0  0  0
    8.4714  -19.1134   19.3390 C   0  0  0  0  0  0  0  0  0  0  0  0
    8.7440  -18.8206   20.8002 C   0  0  1  0  0  0  0  0  0  0  0  0
    9.3587  -17.4784   20.9925 C   0  0  0  0  0  0  0  0  0  0  0  0
   10.5903  -17.2803   20.8678 O   0  0  0  0  0  0  0  0  0  0  0  0
    8.9740  -13.1514   18.7926 C   0  0  0  0  0  0  0  0  0  0  0  0
    7.8763  -13.7506   19.5995 C   0  0  2  0  0  0  0  0  0  0  0  0
    6.6458  -12.8114   19.4572 C   0  0  0  0  0  0  0  0  0  0  0  0
    8.1143  -14.0487   21.0148 C   0  0  0  0  0  0  0  0  0  0  0  0
    9.1115  -15.0105   21.4908 C   0  0  2  0  0  0  0  0  0  0  0  0
    8.5437  -16.3939   21.3242 N   0  0  0  0  0  0  0  0  0  0  0  0
    9.5129  -14.8936   22.9062 C   0  0  0  0  0  0  0  0  0  0  0  0
   10.6202  -14.4468   23.2765 O   0  0  0  0  0  0  0  0  0  0  0  0
    6.8196  -12.0097   27.2542 C   0  0  0  0  0  0  0  0  0  0  0  0
    7.7189  -13.1658   26.9926 C   0  0  0  0  0  0  0  0  0  0  0  0
    7.5779  -13.8254   25.6650 C   0  0  2  0  0  0  0  0  0  0  0  0
    6.2132  -14.5294   25.6791 C   0  0  0  0  0  0  0  0  0  0  0  0
    8.6066  -14.8309   25.3094 C   0  0  2  0  0  0  0  0  0  0  0  0
    8.6330  -15.2986   23.9691 N   0  0  0  0  0  0  0  0  0  0  0  0
    8.6699  -15.9139   26.3555 C   0  0  0  0  0  0  0  0  0  0  0  0
    8.7193  -15.7389   27.5804 O   0  0  0  0  0  0  0  0  0  0  0  0
    8.6752  -17.2632   25.9449 O   0  0  0  0  0  0  0  0  0  0  0  0
  1  2  1  0
  2  3  1  0
  4  3  1  0
  5  1  1  0
  5  4  1  0
  6  7  2  0
  5  6  1  6
  9  8  1  1
  9 11  1  0
  9 10  1  0
 12 11  1  1
 12 13  1  0
 12 14  1  0
 13  6  1  0
 14 15  2  0
 14 21  1  0
 17 16  1  0
 18 20  1  0
 18 17  1  0
 18 19  1  1
 20 22  1  0
 20 21  1  6
 22 23  2  0
 22 24  1  0
M  END
$$$$
