PLI.pdb
     RDKit          3D

 24 24  0  0  1  0  0  0  0  0999 V2000
    7.4480  -16.9459   20.5772 N   0  0  0  0  0  0  0  0  0  0  0  0
    6.7965  -16.7530   19.3077 C   0  0  0  0  0  0  0  0  0  0  0  0
    7.7446  -15.9965   18.4204 C   0  0  0  0  0  0  0  0  0  0  0  0
    8.5999  -15.2631   19.4509 C   0  0  0  0  0  0  0  0  0  0  0  0
    8.7334  -16.3245   20.5235 C   0  0  1  0  0  0  0  0  0  0  0  0
    9.1218  -15.7411   21.8371 C   0  0  0  0  0  0  0  0  0  0  0  0
   10.3092  -15.4549   22.1194 O   0  0  0  0  0  0  0  0  0  0  0  0
    5.4853  -13.4101   26.1311 C   0  0  0  0  0  0  0  0  0  0  0  0
    6.9122  -13.4408   25.7088 C   0  0  2  0  0  0  0  0  0  0  0  0
    7.4807  -12.0112   25.9316 C   0  0  0  0  0  0  0  0  0  0  0  0
    7.2450  -13.9042   24.3586 C   0  0  0  0  0  0  0  0  0  0  0  0
    8.4311  -14.7019   24.0377 C   0  0  2  0  0  0  0  0  0  0  0  0
    8.1362  -15.5000   22.7967 N   0  0  0  0  0  0  0  0  0  0  0  0
    8.8667  -15.6715   25.0616 C   0  0  0  0  0  0  0  0  0  0  0  0
    8.5596  -16.8832   25.0419 O   0  0  0  0  0  0  0  0  0  0  0  0
   10.7361  -13.9974   30.3444 C   0  0  0  0  0  0  0  0  0  0  0  0
   10.0834  -14.6984   29.2059 C   0  0  0  0  0  0  0  0  0  0  0  0
   10.9858  -15.4374   28.2801 C   0  0  2  0  0  0  0  0  0  0  0  0
   11.9908  -14.4059   27.7470 C   0  0  0  0  0  0  0  0  0  0  0  0
   10.3487  -16.0977   27.1166 C   0  0  2  0  0  0  0  0  0  0  0  0
    9.6890  -15.2694   26.1707 N   0  0  0  0  0  0  0  0  0  0  0  0
    9.5566  -17.3004   27.5606 C   0  0  0  0  0  0  0  0  0  0  0  0
    8.3317  -17.4450   27.4498 O   0  0  0  0  0  0  0  0  0  0  0  0
   10.2331  -18.3822   28.1618 O   0  0  0  0  0  0  0  0  0  0  0  0
  1  2  1  0
  2  3  1  0
  4  3  1  0
  5  1  1  0
  5  4  1  0
  6  7  2  0
  5  6  1  1
  9  8  1  6
  9 11  1  0
  9 10  1  0
 12 11  1  1
 12 13  1  0
 12 14  1  0
 13  6  1  0
 14 15  2  0
 14 21  1  0
 17 16  1  0
 18 20  1  0
 18 17  1  0
 18 19  1  6
 20 22  1  0
 20 21  1  1
 22 23  2  0
 22 24  1  0
M  END
$$$$
