PLI.pdb
     RDKit          3D

 24 24  0  0  1  0  0  0  0  0999 V2000
    7.2452  -16.3012   21.0131 N   0  0  0  0  0  0  0  0  0  0  0  0
    6.5205  -15.9478   19.8202 C   0  0  0  0  0  0  0  0  0  0  0  0
    7.3824  -15.0067   19.0265 C   0  0  0  0  0  0  0  0  0  0  0  0
    8.2513  -14.3973   20.1241 C   0  0  0  0  0  0  0  0  0  0  0  0
    8.4932  -15.6055   21.0054 C   0  0  1  0  0  0  0  0  0  0  0  0
    8.9186  -15.2159   22.3779 C   0  0  0  0  0  0  0  0  0  0  0  0
   10.0417  -14.7117   22.6145 O   0  0  0  0  0  0  0  0  0  0  0  0
    7.4055  -11.9022   25.4348 C   0  0  0  0  0  0  0  0  0  0  0  0
    6.5432  -13.0961   25.2201 C   0  0  2  0  0  0  0  0  0  0  0  0
    5.2825  -12.9094   26.1103 C   0  0  0  0  0  0  0  0  0  0  0  0
    7.1098  -14.4310   25.4330 C   0  0  0  0  0  0  0  0  0  0  0  0
    8.3588  -14.8951   24.8240 C   0  0  2  0  0  0  0  0  0  0  0  0
    8.0431  -15.4147   23.4477 N   0  0  0  0  0  0  0  0  0  0  0  0
    9.0671  -15.9827   25.5265 C   0  0  0  0  0  0  0  0  0  0  0  0
    8.8403  -17.1963   25.3295 O   0  0  0  0  0  0  0  0  0  0  0  0
   10.7425  -14.1049   29.8278 C   0  0  0  0  0  0  0  0  0  0  0  0
   11.5156  -14.5842   28.6504 C   0  0  0  0  0  0  0  0  0  0  0  0
   11.5759  -16.0594   28.4557 C   0  0  2  0  0  0  0  0  0  0  0  0
   13.0446  -16.3922   28.1552 C   0  0  0  0  0  0  0  0  0  0  0  0
   10.7478  -16.6201   27.3623 C   0  0  2  0  0  0  0  0  0  0  0  0
   10.0838  -15.7039   26.5046 N   0  0  0  0  0  0  0  0  0  0  0  0
    9.8819  -17.7408   27.8775 C   0  0  0  0  0  0  0  0  0  0  0  0
    8.6446  -17.7380   27.9294 O   0  0  0  0  0  0  0  0  0  0  0  0
   10.4964  -18.9179   28.3531 O   0  0  0  0  0  0  0  0  0  0  0  0
  1  2  1  0
  2  3  1  0
  4  3  1  0
  5  1  1  0
  5  4  1  0
  6  7  2  0
  5  6  1  1
  9  8  1  1
  9 11  1  0
  9 10  1  0
 12 11  1  1
 12 13  1  0
 12 14  1  0
 13  6  1  0
 14 15  2  0
 14 21  1  0
 17 16  1  0
 18 20  1  0
 18 17  1  0
 18 19  1  6
 20 22  1  0
 20 21  1  1
 22 23  2  0
 22 24  1  0
M  END
$$$$
