PLI.pdb
     RDKit          3D

 24 24  0  0  1  0  0  0  0  0999 V2000
    7.2214  -16.2225   20.9814 N   0  0  0  0  0  0  0  0  0  0  0  0
    6.5114  -15.9475   19.7594 C   0  0  0  0  0  0  0  0  0  0  0  0
    7.3743  -15.0427   18.9258 C   0  0  0  0  0  0  0  0  0  0  0  0
    8.2187  -14.3601   19.9993 C   0  0  0  0  0  0  0  0  0  0  0  0
    8.4611  -15.5125   20.9522 C   0  0  1  0  0  0  0  0  0  0  0  0
    8.8603  -15.0393   22.3062 C   0  0  0  0  0  0  0  0  0  0  0  0
    9.9503  -14.4579   22.5194 O   0  0  0  0  0  0  0  0  0  0  0  0
    7.4525  -11.7685   25.4939 C   0  0  0  0  0  0  0  0  0  0  0  0
    6.5399  -12.9239   25.2764 C   0  0  2  0  0  0  0  0  0  0  0  0
    5.3444  -12.7462   26.2540 C   0  0  0  0  0  0  0  0  0  0  0  0
    7.0750  -14.2841   25.3861 C   0  0  0  0  0  0  0  0  0  0  0  0
    8.3232  -14.7242   24.7581 C   0  0  2  0  0  0  0  0  0  0  0  0
    7.9973  -15.2453   23.3847 N   0  0  0  0  0  0  0  0  0  0  0  0
    9.0606  -15.8011   25.4472 C   0  0  0  0  0  0  0  0  0  0  0  0
    8.9013  -17.0162   25.2000 O   0  0  0  0  0  0  0  0  0  0  0  0
   10.6421  -14.9747   30.1258 C   0  0  0  0  0  0  0  0  0  0  0  0
   11.4510  -14.6803   28.9123 C   0  0  0  0  0  0  0  0  0  0  0  0
   11.8703  -15.8539   28.0971 C   0  0  2  0  0  0  0  0  0  0  0  0
   13.0654  -15.3852   27.2543 C   0  0  0  0  0  0  0  0  0  0  0  0
   10.8567  -16.4204   27.1766 C   0  0  2  0  0  0  0  0  0  0  0  0
   10.0282  -15.5092   26.4700 N   0  0  0  0  0  0  0  0  0  0  0  0
   10.1211  -17.5579   27.8370 C   0  0  0  0  0  0  0  0  0  0  0  0
   10.6402  -18.5589   28.3491 O   0  0  0  0  0  0  0  0  0  0  0  0
    8.7126  -17.5184   27.8992 O   0  0  0  0  0  0  0  0  0  0  0  0
  1  2  1  0
  2  3  1  0
  4  3  1  0
  5  1  1  0
  5  4  1  0
  6  7  2  0
  5  6  1  1
  9  8  1  1
  9 11  1  0
  9 10  1  0
 12 11  1  1
 12 13  1  0
 12 14  1  0
 13  6  1  0
 14 15  2  0
 14 21  1  0
 17 16  1  0
 18 20  1  0
 18 17  1  0
 18 19  1  6
 20 22  1  0
 20 21  1  1
 22 23  2  0
 22 24  1  0
M  END
$$$$
