PLI.pdb
     RDKit          3D

 24 24  0  0  1  0  0  0  0  0999 V2000
    7.3041  -16.2558   20.8582 N   0  0  0  0  0  0  0  0  0  0  0  0
    6.5992  -15.9710   19.6354 C   0  0  0  0  0  0  0  0  0  0  0  0
    7.4607  -15.0505   18.8176 C   0  0  0  0  0  0  0  0  0  0  0  0
    8.2943  -14.3752   19.9041 C   0  0  0  0  0  0  0  0  0  0  0  0
    8.5390  -15.5372   20.8446 C   0  0  1  0  0  0  0  0  0  0  0  0
    8.9273  -15.0775   22.2064 C   0  0  0  0  0  0  0  0  0  0  0  0
   10.0279  -14.5245   22.4395 O   0  0  0  0  0  0  0  0  0  0  0  0
    7.5620  -11.6608   25.2845 C   0  0  0  0  0  0  0  0  0  0  0  0
    6.5858  -12.7521   25.0173 C   0  0  2  0  0  0  0  0  0  0  0  0
    5.3623  -12.5009   25.9428 C   0  0  0  0  0  0  0  0  0  0  0  0
    7.0246  -14.1453   25.1392 C   0  0  0  0  0  0  0  0  0  0  0  0
    8.2979  -14.6493   24.6189 C   0  0  2  0  0  0  0  0  0  0  0  0
    8.0414  -15.2641   23.2698 N   0  0  0  0  0  0  0  0  0  0  0  0
    8.9730  -15.6845   25.4257 C   0  0  0  0  0  0  0  0  0  0  0  0
    8.8630  -16.9110   25.2094 O   0  0  0  0  0  0  0  0  0  0  0  0
   10.9115  -14.4106   30.7916 C   0  0  0  0  0  0  0  0  0  0  0  0
   10.2733  -15.1174   29.6485 C   0  0  0  0  0  0  0  0  0  0  0  0
   11.1892  -15.6156   28.5852 C   0  0  2  0  0  0  0  0  0  0  0  0
   12.0224  -14.4063   28.1362 C   0  0  0  0  0  0  0  0  0  0  0  0
   10.5542  -16.2044   27.3828 C   0  0  2  0  0  0  0  0  0  0  0  0
    9.8164  -15.3350   26.5367 N   0  0  0  0  0  0  0  0  0  0  0  0
    9.8491  -17.4892   27.7339 C   0  0  0  0  0  0  0  0  0  0  0  0
    8.6379  -17.7123   27.6039 O   0  0  0  0  0  0  0  0  0  0  0  0
   10.5998  -18.5605   28.2612 O   0  0  0  0  0  0  0  0  0  0  0  0
  1  2  1  0
  2  3  1  0
  4  3  1  0
  5  1  1  0
  5  4  1  0
  6  7  2  0
  5  6  1  1
  9  8  1  1
  9 11  1  0
  9 10  1  0
 12 11  1  1
 12 13  1  0
 12 14  1  0
 13  6  1  0
 14 15  2  0
 14 21  1  0
 17 16  1  0
 18 20  1  0
 18 17  1  0
 18 19  1  6
 20 22  1  0
 20 21  1  1
 22 23  2  0
 22 24  1  0
M  END
$$$$
