PLI.pdb
     RDKit          3D

 24 24  0  0  1  0  0  0  0  0999 V2000
    6.8394  -18.9771   21.9335 N   0  0  0  0  0  0  0  0  0  0  0  0
    5.9050  -19.7725   21.1803 C   0  0  0  0  0  0  0  0  0  0  0  0
    6.6302  -20.3099   19.9788 C   0  0  0  0  0  0  0  0  0  0  0  0
    7.7304  -19.2663   19.8004 C   0  0  0  0  0  0  0  0  0  0  0  0
    8.0904  -18.9766   21.2431 C   0  0  1  0  0  0  0  0  0  0  0  0
    8.8024  -17.6771   21.3878 C   0  0  0  0  0  0  0  0  0  0  0  0
   10.0371  -17.5643   21.2029 O   0  0  0  0  0  0  0  0  0  0  0  0
    8.9566  -13.3740   19.1309 C   0  0  0  0  0  0  0  0  0  0  0  0
    7.7484  -13.8903   19.8301 C   0  0  2  0  0  0  0  0  0  0  0  0
    6.6050  -12.8695   19.5709 C   0  0  0  0  0  0  0  0  0  0  0  0
    7.8299  -14.1939   21.2618 C   0  0  0  0  0  0  0  0  0  0  0  0
    8.7399  -15.1881   21.8358 C   0  0  2  0  0  0  0  0  0  0  0  0
    8.0787  -16.5364   21.7421 N   0  0  0  0  0  0  0  0  0  0  0  0
    9.1056  -15.0021   23.2535 C   0  0  0  0  0  0  0  0  0  0  0  0
   10.1890  -14.5035   23.6287 O   0  0  0  0  0  0  0  0  0  0  0  0
    5.7826  -12.4486   26.6187 C   0  0  0  0  0  0  0  0  0  0  0  0
    6.4257  -13.5552   25.8601 C   0  0  0  0  0  0  0  0  0  0  0  0
    7.8140  -13.9127   26.2628 C   0  0  2  0  0  0  0  0  0  0  0  0
    8.7082  -12.7569   25.7908 C   0  0  0  0  0  0  0  0  0  0  0  0
    8.3641  -15.1716   25.7075 C   0  0  2  0  0  0  0  0  0  0  0  0
    8.2163  -15.3948   24.3131 N   0  0  0  0  0  0  0  0  0  0  0  0
    7.9831  -16.3426   26.5763 C   0  0  0  0  0  0  0  0  0  0  0  0
    7.4141  -17.3746   26.1960 O   0  0  0  0  0  0  0  0  0  0  0  0
    8.2839  -16.3000   27.9536 O   0  0  0  0  0  0  0  0  0  0  0  0
  1  2  1  0
  2  3  1  0
  4  3  1  0
  5  1  1  0
  5  4  1  0
  6  7  2  0
  5  6  1  6
  9  8  1  1
  9 11  1  0
  9 10  1  0
 12 11  1  1
 12 13  1  0
 12 14  1  0
 13  6  1  0
 14 15  2  0
 14 21  1  0
 17 16  1  0
 18 20  1  0
 18 17  1  0
 18 19  1  6
 20 22  1  0
 20 21  1  6
 22 23  2  0
 22 24  1  0
M  END
$$$$
