PLI.pdb
     RDKit          3D

 24 24  0  0  1  0  0  0  0  0999 V2000
    6.9144  -14.8670   20.8505 N   0  0  0  0  0  0  0  0  0  0  0  0
    6.3189  -14.0665   19.8123 C   0  0  0  0  0  0  0  0  0  0  0  0
    7.4109  -13.2423   19.1907 C   0  0  0  0  0  0  0  0  0  0  0  0
    8.4156  -13.1609   20.3377 C   0  0  0  0  0  0  0  0  0  0  0  0
    8.3076  -14.5569   20.9159 C   0  0  1  0  0  0  0  0  0  0  0  0
    8.8246  -14.6221   22.3105 C   0  0  0  0  0  0  0  0  0  0  0  0
   10.0500  -14.5972   22.5737 O   0  0  0  0  0  0  0  0  0  0  0  0
    8.1939  -11.6545   26.0161 C   0  0  0  0  0  0  0  0  0  0  0  0
    7.1104  -12.5791   25.5845 C   0  0  2  0  0  0  0  0  0  0  0  0
    5.8608  -12.2454   26.4469 C   0  0  0  0  0  0  0  0  0  0  0  0
    7.3577  -14.0238   25.6042 C   0  0  0  0  0  0  0  0  0  0  0  0
    8.3879  -14.6874   24.8015 C   0  0  2  0  0  0  0  0  0  0  0  0
    7.9210  -14.7146   23.3714 N   0  0  0  0  0  0  0  0  0  0  0  0
    8.7033  -16.0833   25.1623 C   0  0  0  0  0  0  0  0  0  0  0  0
    7.8782  -17.0198   25.0896 O   0  0  0  0  0  0  0  0  0  0  0  0
   13.4713  -18.0743   23.4829 C   0  0  0  0  0  0  0  0  0  0  0  0
   12.1213  -17.7228   24.0001 C   0  0  0  0  0  0  0  0  0  0  0  0
   11.8203  -18.1389   25.3979 C   0  0  2  0  0  0  0  0  0  0  0  0
   11.9180  -19.6712   25.4193 C   0  0  0  0  0  0  0  0  0  0  0  0
   10.4920  -17.7586   25.9335 C   0  0  2  0  0  0  0  0  0  0  0  0
   10.0098  -16.4575   25.6322 N   0  0  0  0  0  0  0  0  0  0  0  0
   10.3747  -18.1533   27.3831 C   0  0  0  0  0  0  0  0  0  0  0  0
   10.3467  -17.3770   28.3476 O   0  0  0  0  0  0  0  0  0  0  0  0
   10.2860  -19.5211   27.7155 O   0  0  0  0  0  0  0  0  0  0  0  0
  1  2  1  0
  2  3  1  0
  4  3  1  0
  5  1  1  0
  5  4  1  0
  6  7  2  0
  5  6  1  1
  9  8  1  1
  9 11  1  0
  9 10  1  0
 12 11  1  1
 12 13  1  0
 12 14  1  0
 13  6  1  0
 14 15  2  0
 14 21  1  0
 17 16  1  0
 18 20  1  0
 18 17  1  0
 18 19  1  6
 20 22  1  0
 20 21  1  1
 22 23  2  0
 22 24  1  0
M  END
$$$$
