PLI.pdb
     RDKit          3D

 24 24  0  0  1  0  0  0  0  0999 V2000
    9.4545  -15.8513   19.8271 N   0  0  0  0  0  0  0  0  0  0  0  0
    9.7364  -16.9186   18.9026 C   0  0  0  0  0  0  0  0  0  0  0  0
    8.9874  -18.1347   19.3699 C   0  0  0  0  0  0  0  0  0  0  0  0
    8.8532  -17.8491   20.8639 C   0  0  0  0  0  0  0  0  0  0  0  0
    8.5948  -16.3565   20.8505 C   0  0  1  0  0  0  0  0  0  0  0  0
    8.8796  -15.7315   22.1715 C   0  0  0  0  0  0  0  0  0  0  0  0
   10.0257  -15.3401   22.4955 O   0  0  0  0  0  0  0  0  0  0  0  0
    7.7708  -12.1849   25.8500 C   0  0  0  0  0  0  0  0  0  0  0  0
    6.6025  -12.9078   25.2776 C   0  0  2  0  0  0  0  0  0  0  0  0
    5.4642  -12.8355   26.3339 C   0  0  0  0  0  0  0  0  0  0  0  0
    6.7738  -14.2910   24.8239 C   0  0  0  0  0  0  0  0  0  0  0  0
    8.0555  -14.8584   24.3982 C   0  0  2  0  0  0  0  0  0  0  0  0
    7.8403  -15.5707   23.0904 N   0  0  0  0  0  0  0  0  0  0  0  0
    8.6735  -15.8410   25.3098 C   0  0  0  0  0  0  0  0  0  0  0  0
    8.5294  -17.0775   25.1946 O   0  0  0  0  0  0  0  0  0  0  0  0
   11.1009  -13.2978   29.5045 C   0  0  0  0  0  0  0  0  0  0  0  0
   11.2419  -14.1117   28.2670 C   0  0  0  0  0  0  0  0  0  0  0  0
   10.9741  -15.5704   28.4014 C   0  0  2  0  0  0  0  0  0  0  0  0
   12.3414  -16.2407   28.5992 C   0  0  0  0  0  0  0  0  0  0  0  0
   10.3028  -16.2313   27.2575 C   0  0  2  0  0  0  0  0  0  0  0  0
    9.4967  -15.4237   26.4125 N   0  0  0  0  0  0  0  0  0  0  0  0
    9.6590  -17.5211   27.6968 C   0  0  0  0  0  0  0  0  0  0  0  0
    8.4708  -17.6691   28.0132 O   0  0  0  0  0  0  0  0  0  0  0  0
   10.4454  -18.6897   27.7678 O   0  0  0  0  0  0  0  0  0  0  0  0
  1  2  1  0
  2  3  1  0
  4  3  1  0
  5  1  1  0
  5  4  1  0
  6  7  2  0
  5  6  1  1
  9  8  1  1
  9 11  1  0
  9 10  1  0
 12 11  1  1
 12 13  1  0
 12 14  1  0
 13  6  1  0
 14 15  2  0
 14 21  1  0
 17 16  1  0
 18 20  1  0
 18 17  1  0
 18 19  1  6
 20 22  1  0
 20 21  1  1
 22 23  2  0
 22 24  1  0
M  END
$$$$
