PLI.pdb
     RDKit          3D

 24 24  0  0  1  0  0  0  0  0999 V2000
   10.1400  -18.5566   19.8101 N   0  0  0  0  0  0  0  0  0  0  0  0
   10.3073  -18.8220   18.4049 C   0  0  0  0  0  0  0  0  0  0  0  0
   11.6707  -18.3300   18.0084 C   0  0  0  0  0  0  0  0  0  0  0  0
   11.9190  -17.2522   19.0611 C   0  0  0  0  0  0  0  0  0  0  0  0
   11.3173  -17.9039   20.2891 C   0  0  1  0  0  0  0  0  0  0  0  0
   11.0052  -16.9074   21.3503 C   0  0  0  0  0  0  0  0  0  0  0  0
   11.8962  -16.2408   21.9278 O   0  0  0  0  0  0  0  0  0  0  0  0
    8.3662  -13.1130   20.7840 C   0  0  0  0  0  0  0  0  0  0  0  0
    7.6646  -14.3969   21.0569 C   0  0  2  0  0  0  0  0  0  0  0  0
    6.1400  -14.1084   20.9615 C   0  0  0  0  0  0  0  0  0  0  0  0
    7.9581  -15.1186   22.2985 C   0  0  0  0  0  0  0  0  0  0  0  0
    9.2925  -15.5949   22.6708 C   0  0  2  0  0  0  0  0  0  0  0  0
    9.6757  -16.6997   21.7239 N   0  0  0  0  0  0  0  0  0  0  0  0
    9.4366  -16.1457   24.0324 C   0  0  0  0  0  0  0  0  0  0  0  0
    9.2533  -17.3499   24.3144 O   0  0  0  0  0  0  0  0  0  0  0  0
    9.3165  -12.1729   28.0749 C   0  0  0  0  0  0  0  0  0  0  0  0
    9.7281  -13.2098   27.0906 C   0  0  0  0  0  0  0  0  0  0  0  0
    9.5659  -14.6273   27.5173 C   0  0  2  0  0  0  0  0  0  0  0  0
   10.4960  -14.8207   28.7238 C   0  0  0  0  0  0  0  0  0  0  0  0
    9.8977  -15.6659   26.5139 C   0  0  2  0  0  0  0  0  0  0  0  0
    9.8036  -15.3090   25.1428 N   0  0  0  0  0  0  0  0  0  0  0  0
    9.2395  -16.9738   26.8705 C   0  0  0  0  0  0  0  0  0  0  0  0
    8.0900  -17.3165   26.5626 O   0  0  0  0  0  0  0  0  0  0  0  0
    9.9635  -17.9223   27.6225 O   0  0  0  0  0  0  0  0  0  0  0  0
  1  2  1  0
  2  3  1  0
  4  3  1  0
  5  1  1  0
  5  4  1  0
  6  7  2  0
  5  6  1  1
  9  8  1  1
  9 11  1  0
  9 10  1  0
 12 11  1  6
 12 13  1  0
 12 14  1  0
 13  6  1  0
 14 15  2  0
 14 21  1  0
 17 16  1  0
 18 20  1  0
 18 17  1  0
 18 19  1  1
 20 22  1  0
 20 21  1  6
 22 23  2  0
 22 24  1  0
M  END
$$$$
