PKD.pdb
     RDKit          3D

 25 25  0  0  1  0  0  0  0  0999 V2000
   25.6910  -13.9044  -17.2397 N   0  0  0  0  0  0  0  0  0  0  0  0
   26.3743  -15.1266  -16.7746 C   0  0  0  0  0  0  0  0  0  0  0  0
   27.5298  -14.5598  -15.9377 C   0  0  0  0  0  0  0  0  0  0  0  0
   27.0920  -13.1665  -15.5893 C   0  0  0  0  0  0  0  0  0  0  0  0
   25.6044  -13.1993  -15.9736 C   0  0  1  0  0  0  0  0  0  0  0  0
   25.1862  -11.8027  -16.1234 C   0  0  0  0  0  0  0  0  0  0  0  0
   25.1652  -10.9769  -15.1784 O   0  0  0  0  0  0  0  0  0  0  0  0
   24.7833  -11.3557  -17.4086 N   0  0  0  0  0  0  0  0  0  0  0  0
   24.2864  -10.0030  -17.5951 C   0  0  1  0  0  0  0  0  0  0  0  0
   24.3338   -9.7075  -19.0743 C   0  0  0  0  0  0  0  0  0  0  0  0
   23.8726   -8.3336  -19.4490 C   0  0  0  0  0  0  0  0  0  0  0  0
   24.7399   -7.6949  -20.5000 C   0  0  0  0  0  0  0  0  0  0  0  0
   24.3077   -6.2867  -20.7991 C   0  0  0  0  0  0  0  0  0  0  0  0
   25.0182   -5.7591  -21.9557 N   0  0  0  0  0  0  0  0  0  0  0  0
   22.8912   -9.8809  -17.1099 C   0  0  0  0  0  0  0  0  0  0  0  0
   22.0057  -10.6819  -17.4962 O   0  0  0  0  0  0  0  0  0  0  0  0
   22.5099   -8.8658  -16.2002 N   0  0  0  0  0  0  0  0  0  0  0  0
   21.1468   -8.8714  -15.6632 C   0  0  1  0  0  0  0  0  0  0  0  0
   20.8583  -10.1029  -14.8786 C   0  0  0  0  0  0  0  0  0  0  0  0
   19.5467  -10.1387  -14.2059 C   0  0  0  0  0  0  0  0  0  0  0  0
   18.5911   -9.5137  -14.7482 O   0  0  0  0  0  0  0  0  0  0  0  0
   20.9188   -7.6764  -14.8268 C   0  0  0  0  0  0  0  0  0  0  0  0
   19.9085   -6.9622  -14.8597 O   0  0  0  0  0  0  0  0  0  0  0  0
   19.2578  -10.7932  -13.0283 O   0  0  0  0  0  0  0  0  0  0  0  0
   21.9324   -7.3199  -13.9206 O   0  0  0  0  0  0  0  0  0  0  0  0
  1  2  1  0
  3  2  1  0
  4  5  1  0
  4  3  1  0
  5  1  1  0
  5  6  1  6
  7  6  2  0
  8  6  1  0
  9  8  1  0
 10 11  1  0
  9 10  1  6
 11 12  1  0
 12 13  1  0
 13 14  1  0
 15  9  1  0
 15 17  1  0
 16 15  2  0
 18 17  1  0
 18 22  1  0
 18 19  1  1
 20 19  1  0
 21 20  2  0
 22 25  1  0
 23 22  2  0
 24 20  1  0
M  END
$$$$
