PKD.pdb
     RDKit          3D

 25 25  0  0  1  0  0  0  0  0999 V2000
   26.5955  -20.6552  -14.5831 N   0  0  0  0  0  0  0  0  0  0  0  0
   27.9299  -21.2809  -14.6538 C   0  0  0  0  0  0  0  0  0  0  0  0
   27.8188  -22.1525  -15.9126 C   0  0  0  0  0  0  0  0  0  0  0  0
   26.6810  -21.5508  -16.6858 C   0  0  0  0  0  0  0  0  0  0  0  0
   26.4821  -20.2107  -15.9604 C   0  0  1  0  0  0  0  0  0  0  0  0
   25.1336  -19.7514  -16.3047 C   0  0  0  0  0  0  0  0  0  0  0  0
   24.7700  -19.4728  -17.4733 O   0  0  0  0  0  0  0  0  0  0  0  0
   24.1828  -19.6147  -15.2601 N   0  0  0  0  0  0  0  0  0  0  0  0
   22.8071  -19.2553  -15.5595 C   0  0  1  0  0  0  0  0  0  0  0  0
   21.9634  -19.6948  -14.3879 C   0  0  0  0  0  0  0  0  0  0  0  0
   21.5849  -21.1429  -14.4027 C   0  0  0  0  0  0  0  0  0  0  0  0
   20.7581  -21.5407  -13.2097 C   0  0  0  0  0  0  0  0  0  0  0  0
   20.3173  -22.9755  -13.2904 C   0  0  0  0  0  0  0  0  0  0  0  0
   19.6070  -23.3701  -12.0818 N   0  0  0  0  0  0  0  0  0  0  0  0
   22.6719  -17.7910  -15.7457 C   0  0  0  0  0  0  0  0  0  0  0  0
   22.9913  -16.9960  -14.8288 O   0  0  0  0  0  0  0  0  0  0  0  0
   22.1829  -17.2405  -16.9545 N   0  0  0  0  0  0  0  0  0  0  0  0
   22.0488  -15.7859  -17.0672 C   0  0  1  0  0  0  0  0  0  0  0  0
   23.0316  -15.2046  -18.0219 C   0  0  0  0  0  0  0  0  0  0  0  0
   22.9083  -13.7549  -18.2613 C   0  0  0  0  0  0  0  0  0  0  0  0
   22.7602  -13.0038  -17.2553 O   0  0  0  0  0  0  0  0  0  0  0  0
   20.6764  -15.4263  -17.4756 C   0  0  0  0  0  0  0  0  0  0  0  0
   19.8060  -16.2265  -17.8416 O   0  0  0  0  0  0  0  0  0  0  0  0
   22.9371  -13.1313  -19.4896 O   0  0  0  0  0  0  0  0  0  0  0  0
   20.3308  -14.0641  -17.4481 O   0  0  0  0  0  0  0  0  0  0  0  0
  1  2  1  0
  3  2  1  0
  4  5  1  0
  4  3  1  0
  5  1  1  0
  5  6  1  1
  7  6  2  0
  8  6  1  0
  9  8  1  0
 10 11  1  0
  9 10  1  1
 11 12  1  0
 12 13  1  0
 13 14  1  0
 15  9  1  0
 15 17  1  0
 16 15  2  0
 18 17  1  0
 18 22  1  0
 18 19  1  6
 20 19  1  0
 21 20  2  0
 22 25  1  0
 23 22  2  0
 24 20  1  0
M  END
$$$$
