PKD.pdb
     RDKit          3D

 25 25  0  0  1  0  0  0  0  0999 V2000
   24.4102  -12.9277  -15.7225 N   0  0  0  0  0  0  0  0  0  0  0  0
   25.4157  -14.0043  -15.8050 C   0  0  0  0  0  0  0  0  0  0  0  0
   25.6429  -14.1277  -17.3182 C   0  0  0  0  0  0  0  0  0  0  0  0
   25.1719  -12.8157  -17.8761 C   0  0  0  0  0  0  0  0  0  0  0  0
   25.0409  -11.9626  -16.6046 C   0  0  1  0  0  0  0  0  0  0  0  0
   24.1619  -10.8415  -16.9489 C   0  0  0  0  0  0  0  0  0  0  0  0
   24.5265   -9.8561  -17.6356 O   0  0  0  0  0  0  0  0  0  0  0  0
   22.8220  -10.8699  -16.4823 N   0  0  0  0  0  0  0  0  0  0  0  0
   21.8938   -9.8123  -16.8448 C   0  0  1  0  0  0  0  0  0  0  0  0
   20.5540  -10.4587  -17.0988 C   0  0  0  0  0  0  0  0  0  0  0  0
   19.4602   -9.5021  -17.4582 C   0  0  0  0  0  0  0  0  0  0  0  0
   18.1180  -10.1719  -17.5807 C   0  0  0  0  0  0  0  0  0  0  0  0
   17.0363   -9.1914  -17.9380 C   0  0  0  0  0  0  0  0  0  0  0  0
   15.7699   -9.8738  -18.1647 N   0  0  0  0  0  0  0  0  0  0  0  0
   21.7664   -8.8223  -15.7490 C   0  0  0  0  0  0  0  0  0  0  0  0
   21.7691   -9.1902  -14.5492 O   0  0  0  0  0  0  0  0  0  0  0  0
   21.6394   -7.4377  -16.0134 N   0  0  0  0  0  0  0  0  0  0  0  0
   21.5956   -6.5025  -14.8864 C   0  0  1  0  0  0  0  0  0  0  0  0
   22.3899   -5.2713  -15.1483 C   0  0  0  0  0  0  0  0  0  0  0  0
   22.3562   -4.2513  -14.0840 C   0  0  0  0  0  0  0  0  0  0  0  0
   21.8249   -4.5695  -12.9820 O   0  0  0  0  0  0  0  0  0  0  0  0
   20.1990   -6.1431  -14.5706 C   0  0  0  0  0  0  0  0  0  0  0  0
   19.7866   -5.7813  -13.4611 O   0  0  0  0  0  0  0  0  0  0  0  0
   22.8514   -2.9688  -14.1751 O   0  0  0  0  0  0  0  0  0  0  0  0
   19.2609   -6.2197  -15.6146 O   0  0  0  0  0  0  0  0  0  0  0  0
  1  2  1  0
  3  2  1  0
  4  5  1  0
  4  3  1  0
  5  1  1  0
  5  6  1  6
  7  6  2  0
  8  6  1  0
  9  8  1  0
 10 11  1  0
  9 10  1  1
 11 12  1  0
 12 13  1  0
 13 14  1  0
 15  9  1  0
 15 17  1  0
 16 15  2  0
 18 17  1  0
 18 22  1  0
 18 19  1  6
 20 19  1  0
 21 20  2  0
 22 25  1  0
 23 22  2  0
 24 20  1  0
M  END
$$$$
