PKD.pdb
     RDKit          3D

 25 25  0  0  1  0  0  0  0  0999 V2000
   20.3666  -11.9819  -20.8503 N   0  0  0  0  0  0  0  0  0  0  0  0
   21.1537  -12.7257  -21.8525 C   0  0  0  0  0  0  0  0  0  0  0  0
   20.3469  -12.4998  -23.1389 C   0  0  0  0  0  0  0  0  0  0  0  0
   19.5267  -11.2742  -22.8565 C   0  0  0  0  0  0  0  0  0  0  0  0
   20.1920  -10.7385  -21.5790 C   0  0  1  0  0  0  0  0  0  0  0  0
   19.2185   -9.8397  -20.9527 C   0  0  0  0  0  0  0  0  0  0  0  0
   18.0864   -9.5936  -21.4358 O   0  0  0  0  0  0  0  0  0  0  0  0
   19.5724   -9.2119  -19.7301 N   0  0  0  0  0  0  0  0  0  0  0  0
   18.6366   -8.3247  -19.0604 C   0  0  1  0  0  0  0  0  0  0  0  0
   18.1043   -9.0609  -17.8554 C   0  0  0  0  0  0  0  0  0  0  0  0
   16.9571   -9.9782  -18.1439 C   0  0  0  0  0  0  0  0  0  0  0  0
   16.4656  -10.6991  -16.9176 C   0  0  0  0  0  0  0  0  0  0  0  0
   15.3108  -11.6087  -17.2311 C   0  0  0  0  0  0  0  0  0  0  0  0
   14.9113  -12.3668  -16.0535 N   0  0  0  0  0  0  0  0  0  0  0  0
   19.3104   -7.0792  -18.6222 C   0  0  0  0  0  0  0  0  0  0  0  0
   20.4615   -7.1144  -18.1236 O   0  0  0  0  0  0  0  0  0  0  0  0
   18.6861   -5.8154  -18.7502 N   0  0  0  0  0  0  0  0  0  0  0  0
   19.3879   -4.6259  -18.2612 C   0  0  1  0  0  0  0  0  0  0  0  0
   18.9428   -3.3872  -18.9560 C   0  0  0  0  0  0  0  0  0  0  0  0
   19.3079   -3.2883  -20.3812 C   0  0  0  0  0  0  0  0  0  0  0  0
   18.4662   -2.7692  -21.1686 O   0  0  0  0  0  0  0  0  0  0  0  0
   19.2005   -4.4812  -16.8041 C   0  0  0  0  0  0  0  0  0  0  0  0
   18.5392   -5.2444  -16.0884 O   0  0  0  0  0  0  0  0  0  0  0  0
   20.4906   -3.7135  -20.9459 O   0  0  0  0  0  0  0  0  0  0  0  0
   19.8225   -3.3867  -16.1788 O   0  0  0  0  0  0  0  0  0  0  0  0
  1  2  1  0
  3  2  1  0
  4  5  1  0
  4  3  1  0
  5  1  1  0
  5  6  1  1
  7  6  2  0
  8  6  1  0
  9  8  1  0
 10 11  1  0
  9 10  1  1
 11 12  1  0
 12 13  1  0
 13 14  1  0
 15  9  1  0
 15 17  1  0
 16 15  2  0
 18 17  1  0
 18 22  1  0
 18 19  1  6
 20 19  1  0
 21 20  2  0
 22 25  1  0
 23 22  2  0
 24 20  1  0
M  END
$$$$
