PKD.pdb
     RDKit          3D

 25 25  0  0  1  0  0  0  0  0999 V2000
   26.0802  -21.4545  -12.0931 N   0  0  0  0  0  0  0  0  0  0  0  0
   26.5195  -21.8169  -10.7319 C   0  0  0  0  0  0  0  0  0  0  0  0
   26.5896  -20.4515  -10.0338 C   0  0  0  0  0  0  0  0  0  0  0  0
   25.7133  -19.5599  -10.8655 C   0  0  0  0  0  0  0  0  0  0  0  0
   24.9749  -20.5792  -11.7473 C   0  0  1  0  0  0  0  0  0  0  0  0
   24.4557  -19.8313  -12.8958 C   0  0  0  0  0  0  0  0  0  0  0  0
   23.6124  -18.9066  -12.8011 O   0  0  0  0  0  0  0  0  0  0  0  0
   24.9330  -20.1686  -14.1890 N   0  0  0  0  0  0  0  0  0  0  0  0
   24.5038  -19.4114  -15.3526 C   0  0  1  0  0  0  0  0  0  0  0  0
   25.4053  -19.8004  -16.4987 C   0  0  0  0  0  0  0  0  0  0  0  0
   25.1059  -19.1039  -17.7894 C   0  0  0  0  0  0  0  0  0  0  0  0
   26.0745  -19.4641  -18.8835 C   0  0  0  0  0  0  0  0  0  0  0  0
   25.7501  -18.7576  -20.1700 C   0  0  0  0  0  0  0  0  0  0  0  0
   26.5849  -19.2485  -21.2577 N   0  0  0  0  0  0  0  0  0  0  0  0
   23.0976  -19.7269  -15.6992 C   0  0  0  0  0  0  0  0  0  0  0  0
   22.6810  -20.9104  -15.6732 O   0  0  0  0  0  0  0  0  0  0  0  0
   22.1808  -18.7136  -16.0681 N   0  0  0  0  0  0  0  0  0  0  0  0
   20.7533  -19.0377  -16.1284 C   0  0  1  0  0  0  0  0  0  0  0  0
   19.8968  -17.8454  -15.8829 C   0  0  0  0  0  0  0  0  0  0  0  0
   18.4448  -18.0638  -16.0174 C   0  0  0  0  0  0  0  0  0  0  0  0
   18.0460  -19.2429  -16.2382 O   0  0  0  0  0  0  0  0  0  0  0  0
   20.4174  -19.6390  -17.4342 C   0  0  0  0  0  0  0  0  0  0  0  0
   19.6424  -20.5885  -17.6065 O   0  0  0  0  0  0  0  0  0  0  0  0
   17.4682  -17.0961  -15.9268 O   0  0  0  0  0  0  0  0  0  0  0  0
   21.0286  -19.0892  -18.5743 O   0  0  0  0  0  0  0  0  0  0  0  0
  1  2  1  0
  3  2  1  0
  4  5  1  0
  4  3  1  0
  5  1  1  0
  5  6  1  6
  7  6  2  0
  8  6  1  0
  9  8  1  0
 10 11  1  0
  9 10  1  6
 11 12  1  0
 12 13  1  0
 13 14  1  0
 15  9  1  0
 15 17  1  0
 16 15  2  0
 18 17  1  0
 18 22  1  0
 18 19  1  6
 20 19  1  0
 21 20  2  0
 22 25  1  0
 23 22  2  0
 24 20  1  0
M  END
$$$$
