PKD.pdb
     RDKit          3D

 25 25  0  0  1  0  0  0  0  0999 V2000
   25.4228  -33.8936   -8.9096 N   0  0  0  0  0  0  0  0  0  0  0  0
   24.9213  -32.6249   -9.4717 C   0  0  0  0  0  0  0  0  0  0  0  0
   25.0832  -31.6553   -8.2925 C   0  0  0  0  0  0  0  0  0  0  0  0
   26.1035  -32.3099   -7.4064 C   0  0  0  0  0  0  0  0  0  0  0  0
   26.6602  -33.4078   -8.3263 C   0  0  1  0  0  0  0  0  0  0  0  0
   27.3056  -34.3908   -7.4516 C   0  0  0  0  0  0  0  0  0  0  0  0
   26.7489  -35.4448   -7.0585 O   0  0  0  0  0  0  0  0  0  0  0  0
   28.6356  -34.1400   -7.0247 N   0  0  0  0  0  0  0  0  0  0  0  0
   29.2915  -35.0409   -6.0921 C   0  0  1  0  0  0  0  0  0  0  0  0
   30.7614  -34.6994   -6.0968 C   0  0  0  0  0  0  0  0  0  0  0  0
   31.6092  -35.5890   -5.2421 C   0  0  0  0  0  0  0  0  0  0  0  0
   33.0703  -35.2330   -5.3014 C   0  0  0  0  0  0  0  0  0  0  0  0
   33.9088  -36.1834   -4.4933 C   0  0  0  0  0  0  0  0  0  0  0  0
   35.2917  -35.7313   -4.4291 N   0  0  0  0  0  0  0  0  0  0  0  0
   28.7480  -34.8722   -4.7234 C   0  0  0  0  0  0  0  0  0  0  0  0
   28.4436  -33.7345   -4.2903 O   0  0  0  0  0  0  0  0  0  0  0  0
   28.5531  -35.9788   -3.8627 N   0  0  0  0  0  0  0  0  0  0  0  0
   27.8889  -35.7657   -2.5743 C   0  0  1  0  0  0  0  0  0  0  0  0
   26.9549  -36.8738   -2.2350 C   0  0  0  0  0  0  0  0  0  0  0  0
   26.2950  -36.7726   -0.9203 C   0  0  0  0  0  0  0  0  0  0  0  0
   26.5544  -35.7601   -0.2092 O   0  0  0  0  0  0  0  0  0  0  0  0
   28.8892  -35.6035   -1.5008 C   0  0  0  0  0  0  0  0  0  0  0  0
   28.7097  -34.9870   -0.4427 O   0  0  0  0  0  0  0  0  0  0  0  0
   25.4141  -37.6859   -0.3835 O   0  0  0  0  0  0  0  0  0  0  0  0
   30.1485  -36.1963   -1.6971 O   0  0  0  0  0  0  0  0  0  0  0  0
  1  2  1  0
  3  2  1  0
  4  5  1  0
  4  3  1  0
  5  1  1  0
  5  6  1  1
  7  6  2  0
  8  6  1  0
  9  8  1  0
 10 11  1  0
  9 10  1  1
 11 12  1  0
 12 13  1  0
 13 14  1  0
 15  9  1  0
 15 17  1  0
 16 15  2  0
 18 17  1  0
 18 22  1  0
 18 19  1  1
 20 19  1  0
 21 20  2  0
 22 25  1  0
 23 22  2  0
 24 20  1  0
M  END
$$$$
