PKD.pdb
     RDKit          3D

 25 25  0  0  1  0  0  0  0  0999 V2000
   22.4807  -17.2139  -18.4645 N   0  0  0  0  0  0  0  0  0  0  0  0
   23.8875  -17.1507  -18.9053 C   0  0  0  0  0  0  0  0  0  0  0  0
   23.7757  -16.4438  -20.2634 C   0  0  0  0  0  0  0  0  0  0  0  0
   22.4526  -15.7359  -20.2097 C   0  0  0  0  0  0  0  0  0  0  0  0
   22.1039  -15.8347  -18.7163 C   0  0  1  0  0  0  0  0  0  0  0  0
   20.6596  -15.6080  -18.6142 C   0  0  0  0  0  0  0  0  0  0  0  0
   20.1283  -14.4717  -18.6563 O   0  0  0  0  0  0  0  0  0  0  0  0
   19.8113  -16.7354  -18.4606 N   0  0  0  0  0  0  0  0  0  0  0  0
   18.3670  -16.5757  -18.4650 C   0  0  1  0  0  0  0  0  0  0  0  0
   17.7704  -17.9007  -18.8724 C   0  0  0  0  0  0  0  0  0  0  0  0
   17.8728  -18.2057  -20.3342 C   0  0  0  0  0  0  0  0  0  0  0  0
   17.2825  -19.5428  -20.6927 C   0  0  0  0  0  0  0  0  0  0  0  0
   17.4334  -19.8442  -22.1576 C   0  0  0  0  0  0  0  0  0  0  0  0
   16.8997  -21.1614  -22.4753 N   0  0  0  0  0  0  0  0  0  0  0  0
   17.8724  -16.2027  -17.1184 C   0  0  0  0  0  0  0  0  0  0  0  0
   18.4030  -16.6793  -16.0859 O   0  0  0  0  0  0  0  0  0  0  0  0
   16.7936  -15.3023  -16.9493 N   0  0  0  0  0  0  0  0  0  0  0  0
   16.3726  -14.9483  -15.5913 C   0  0  1  0  0  0  0  0  0  0  0  0
   16.2405  -13.4768  -15.4109 C   0  0  0  0  0  0  0  0  0  0  0  0
   15.6948  -13.0392  -14.1128 C   0  0  0  0  0  0  0  0  0  0  0  0
   15.7640  -13.8480  -13.1438 O   0  0  0  0  0  0  0  0  0  0  0  0
   15.0971  -15.6131  -15.2588 C   0  0  0  0  0  0  0  0  0  0  0  0
   14.2581  -16.0033  -16.0809 O   0  0  0  0  0  0  0  0  0  0  0  0
   15.1079  -11.8207  -13.8501 O   0  0  0  0  0  0  0  0  0  0  0  0
   14.8116  -15.8181  -13.8979 O   0  0  0  0  0  0  0  0  0  0  0  0
  1  2  1  0
  3  2  1  0
  4  5  1  0
  4  3  1  0
  5  1  1  0
  5  6  1  6
  7  6  2  0
  8  6  1  0
  9  8  1  0
 10 11  1  0
  9 10  1  1
 11 12  1  0
 12 13  1  0
 13 14  1  0
 15  9  1  0
 15 17  1  0
 16 15  2  0
 18 17  1  0
 18 22  1  0
 18 19  1  6
 20 19  1  0
 21 20  2  0
 22 25  1  0
 23 22  2  0
 24 20  1  0
M  END
$$$$
