PKD.pdb
     RDKit          3D

 25 25  0  0  1  0  0  0  0  0999 V2000
   19.0210  -24.7767   -9.3608 N   0  0  0  0  0  0  0  0  0  0  0  0
   19.3739  -24.4376  -10.7528 C   0  0  0  0  0  0  0  0  0  0  0  0
   18.3231  -25.2151  -11.5578 C   0  0  0  0  0  0  0  0  0  0  0  0
   17.2131  -25.4685  -10.5789 C   0  0  0  0  0  0  0  0  0  0  0  0
   17.5921  -24.5283   -9.4239 C   0  0  1  0  0  0  0  0  0  0  0  0
   16.8735  -25.0151   -8.2430 C   0  0  0  0  0  0  0  0  0  0  0  0
   15.6222  -25.0328   -8.1475 O   0  0  0  0  0  0  0  0  0  0  0  0
   17.6329  -25.4957   -7.1447 N   0  0  0  0  0  0  0  0  0  0  0  0
   16.9725  -25.9118   -5.9191 C   0  0  1  0  0  0  0  0  0  0  0  0
   18.0515  -26.2871   -4.9330 C   0  0  0  0  0  0  0  0  0  0  0  0
   17.5447  -26.8289   -3.6330 C   0  0  0  0  0  0  0  0  0  0  0  0
   18.6535  -27.2219   -2.6943 C   0  0  0  0  0  0  0  0  0  0  0  0
   18.1209  -27.8124   -1.4187 C   0  0  0  0  0  0  0  0  0  0  0  0
   19.2072  -28.1590   -0.5127 N   0  0  0  0  0  0  0  0  0  0  0  0
   16.1522  -24.8108   -5.3607 C   0  0  0  0  0  0  0  0  0  0  0  0
   16.5754  -23.6294   -5.3669 O   0  0  0  0  0  0  0  0  0  0  0  0
   14.8721  -25.0493   -4.8058 N   0  0  0  0  0  0  0  0  0  0  0  0
   13.9997  -23.9073   -4.5207 C   0  0  1  0  0  0  0  0  0  0  0  0
   13.8035  -23.0400   -5.7143 C   0  0  0  0  0  0  0  0  0  0  0  0
   12.7767  -21.9903   -5.5790 C   0  0  0  0  0  0  0  0  0  0  0  0
   12.9967  -21.0559   -4.7565 O   0  0  0  0  0  0  0  0  0  0  0  0
   12.6928  -24.3723   -4.0157 C   0  0  0  0  0  0  0  0  0  0  0  0
   12.0799  -25.3664   -4.4256 O   0  0  0  0  0  0  0  0  0  0  0  0
   11.5854  -21.9289   -6.2683 O   0  0  0  0  0  0  0  0  0  0  0  0
   12.0952  -23.6242   -2.9866 O   0  0  0  0  0  0  0  0  0  0  0  0
  1  2  1  0
  3  2  1  0
  4  5  1  0
  4  3  1  0
  5  1  1  0
  5  6  1  1
  7  6  2  0
  8  6  1  0
  9  8  1  0
 10 11  1  0
  9 10  1  1
 11 12  1  0
 12 13  1  0
 13 14  1  0
 15  9  1  0
 15 17  1  0
 16 15  2  0
 18 17  1  0
 18 22  1  0
 18 19  1  6
 20 19  1  0
 21 20  2  0
 22 25  1  0
 23 22  2  0
 24 20  1  0
M  END
$$$$
