PKD.pdb
     RDKit          3D

 25 25  0  0  1  0  0  0  0  0999 V2000
   23.1142  -11.9547  -17.3981 N   0  0  0  0  0  0  0  0  0  0  0  0
   24.0735  -12.7152  -18.2218 C   0  0  0  0  0  0  0  0  0  0  0  0
   23.3526  -12.7986  -19.5746 C   0  0  0  0  0  0  0  0  0  0  0  0
   22.3556  -11.6765  -19.5378 C   0  0  0  0  0  0  0  0  0  0  0  0
   22.8357  -10.8695  -18.3212 C   0  0  1  0  0  0  0  0  0  0  0  0
   21.7025  -10.0391  -17.9037 C   0  0  0  0  0  0  0  0  0  0  0  0
   21.2430   -9.0929  -18.5884 O   0  0  0  0  0  0  0  0  0  0  0  0
   21.0871  -10.3197  -16.6561 N   0  0  0  0  0  0  0  0  0  0  0  0
   19.9457   -9.5408  -16.2068 C   0  0  1  0  0  0  0  0  0  0  0  0
   18.9970  -10.4911  -15.5182 C   0  0  0  0  0  0  0  0  0  0  0  0
   18.2379  -11.3907  -16.4429 C   0  0  0  0  0  0  0  0  0  0  0  0
   17.3971  -12.4020  -15.7113 C   0  0  0  0  0  0  0  0  0  0  0  0
   16.6529  -13.2993  -16.6601 C   0  0  0  0  0  0  0  0  0  0  0  0
   15.9694  -14.3649  -15.9402 N   0  0  0  0  0  0  0  0  0  0  0  0
   20.3676   -8.4857  -15.2549 C   0  0  0  0  0  0  0  0  0  0  0  0
   21.2454   -8.7176  -14.3886 O   0  0  0  0  0  0  0  0  0  0  0  0
   19.8017   -7.1888  -15.2888 N   0  0  0  0  0  0  0  0  0  0  0  0
   20.3043   -6.1722  -14.3613 C   0  0  1  0  0  0  0  0  0  0  0  0
   21.7778   -5.9926  -14.4711 C   0  0  0  0  0  0  0  0  0  0  0  0
   22.3644   -4.9720  -13.5831 C   0  0  0  0  0  0  0  0  0  0  0  0
   22.9454   -3.9876  -14.1228 O   0  0  0  0  0  0  0  0  0  0  0  0
   19.6214   -4.8837  -14.5914 C   0  0  0  0  0  0  0  0  0  0  0  0
   18.8663   -4.6335  -15.5396 O   0  0  0  0  0  0  0  0  0  0  0  0
   22.3428   -4.9877  -12.2055 O   0  0  0  0  0  0  0  0  0  0  0  0
   19.8484   -3.8572  -13.6584 O   0  0  0  0  0  0  0  0  0  0  0  0
  1  2  1  0
  3  2  1  0
  4  5  1  0
  4  3  1  0
  5  1  1  0
  5  6  1  1
  7  6  2  0
  8  6  1  0
  9  8  1  0
 10 11  1  0
  9 10  1  1
 11 12  1  0
 12 13  1  0
 13 14  1  0
 15  9  1  0
 15 17  1  0
 16 15  2  0
 18 17  1  0
 18 22  1  0
 18 19  1  6
 20 19  1  0
 21 20  2  0
 22 25  1  0
 23 22  2  0
 24 20  1  0
M  END
$$$$
