PKD.pdb
     RDKit          3D

 25 25  0  0  1  0  0  0  0  0999 V2000
   20.5533  -12.8738  -16.2502 N   0  0  0  0  0  0  0  0  0  0  0  0
   21.0180  -14.1279  -16.8735 C   0  0  0  0  0  0  0  0  0  0  0  0
   19.8915  -14.4379  -17.8694 C   0  0  0  0  0  0  0  0  0  0  0  0
   19.2054  -13.1193  -18.0816 C   0  0  0  0  0  0  0  0  0  0  0  0
   20.2082  -12.1388  -17.4535 C   0  0  1  0  0  0  0  0  0  0  0  0
   19.4634  -10.9069  -17.1783 C   0  0  0  0  0  0  0  0  0  0  0  0
   19.2361  -10.0232  -18.0401 O   0  0  0  0  0  0  0  0  0  0  0  0
   18.9687  -10.6998  -15.8644 N   0  0  0  0  0  0  0  0  0  0  0  0
   18.2165   -9.4991  -15.5419 C   0  0  1  0  0  0  0  0  0  0  0  0
   17.0238   -9.9237  -14.7206 C   0  0  0  0  0  0  0  0  0  0  0  0
   15.8531  -10.3983  -15.5236 C   0  0  0  0  0  0  0  0  0  0  0  0
   14.6627  -10.7430  -14.6696 C   0  0  0  0  0  0  0  0  0  0  0  0
   13.4993  -11.2116  -15.4980 C   0  0  0  0  0  0  0  0  0  0  0  0
   12.3437  -11.4951  -14.6583 N   0  0  0  0  0  0  0  0  0  0  0  0
   19.0446   -8.5509  -14.7593 C   0  0  0  0  0  0  0  0  0  0  0  0
   19.4996   -8.8739  -13.6353 O   0  0  0  0  0  0  0  0  0  0  0  0
   19.3509   -7.2582  -15.2475 N   0  0  0  0  0  0  0  0  0  0  0  0
   20.1229   -6.3456  -14.4003 C   0  0  1  0  0  0  0  0  0  0  0  0
   21.5272   -6.1969  -14.8705 C   0  0  0  0  0  0  0  0  0  0  0  0
   22.3487   -5.2221  -14.1295 C   0  0  0  0  0  0  0  0  0  0  0  0
   22.2701   -5.2263  -12.8679 O   0  0  0  0  0  0  0  0  0  0  0  0
   19.4692   -5.0233  -14.3400 C   0  0  0  0  0  0  0  0  0  0  0  0
   18.6576   -4.5880  -15.1669 O   0  0  0  0  0  0  0  0  0  0  0  0
   23.2026   -4.2943  -14.6847 O   0  0  0  0  0  0  0  0  0  0  0  0
   19.7965   -4.1903  -13.2561 O   0  0  0  0  0  0  0  0  0  0  0  0
  1  2  1  0
  3  2  1  0
  4  5  1  0
  4  3  1  0
  5  1  1  0
  5  6  1  1
  7  6  2  0
  8  6  1  0
  9  8  1  0
 10 11  1  0
  9 10  1  1
 11 12  1  0
 12 13  1  0
 13 14  1  0
 15  9  1  0
 15 17  1  0
 16 15  2  0
 18 17  1  0
 18 22  1  0
 18 19  1  6
 20 19  1  0
 21 20  2  0
 22 25  1  0
 23 22  2  0
 24 20  1  0
M  END
$$$$
