PKD.pdb
     RDKit          3D

 25 25  0  0  1  0  0  0  0  0999 V2000
   28.1736  -20.9554   -7.7695 N   0  0  0  0  0  0  0  0  0  0  0  0
   28.8037  -20.6122   -6.4802 C   0  0  0  0  0  0  0  0  0  0  0  0
   28.6483  -19.0856   -6.4337 C   0  0  0  0  0  0  0  0  0  0  0  0
   27.5303  -18.7933   -7.3923 C   0  0  0  0  0  0  0  0  0  0  0  0
   26.9453  -20.1945   -7.6293 C   0  0  1  0  0  0  0  0  0  0  0  0
   26.1757  -20.1150   -8.8740 C   0  0  0  0  0  0  0  0  0  0  0  0
   25.1638  -19.3873   -9.0219 O   0  0  0  0  0  0  0  0  0  0  0  0
   26.5971  -20.9030   -9.9765 N   0  0  0  0  0  0  0  0  0  0  0  0
   26.3184  -20.4746  -11.3367 C   0  0  1  0  0  0  0  0  0  0  0  0
   27.2688  -21.2164  -12.2444 C   0  0  0  0  0  0  0  0  0  0  0  0
   27.1381  -20.8731  -13.6955 C   0  0  0  0  0  0  0  0  0  0  0  0
   28.0268  -21.7115  -14.5744 C   0  0  0  0  0  0  0  0  0  0  0  0
   27.9725  -21.2659  -16.0089 C   0  0  0  0  0  0  0  0  0  0  0  0
   28.7534  -22.1537  -16.8592 N   0  0  0  0  0  0  0  0  0  0  0  0
   24.9212  -20.7935  -11.7154 C   0  0  0  0  0  0  0  0  0  0  0  0
   24.3283  -21.7769  -11.2092 O   0  0  0  0  0  0  0  0  0  0  0  0
   24.2103  -20.0065  -12.6528 N   0  0  0  0  0  0  0  0  0  0  0  0
   22.7986  -20.3073  -12.9042 C   0  0  1  0  0  0  0  0  0  0  0  0
   22.0585  -19.1267  -13.4276 C   0  0  0  0  0  0  0  0  0  0  0  0
   20.6222  -19.3370  -13.6864 C   0  0  0  0  0  0  0  0  0  0  0  0
   20.1031  -20.4144  -13.2769 O   0  0  0  0  0  0  0  0  0  0  0  0
   22.6736  -21.4379  -13.8452 C   0  0  0  0  0  0  0  0  0  0  0  0
   23.3913  -21.6273  -14.8356 O   0  0  0  0  0  0  0  0  0  0  0  0
   19.7806  -18.4641  -14.3407 O   0  0  0  0  0  0  0  0  0  0  0  0
   21.6555  -22.3747  -13.5969 O   0  0  0  0  0  0  0  0  0  0  0  0
  1  2  1  0
  3  2  1  0
  4  5  1  0
  4  3  1  0
  5  1  1  0
  5  6  1  6
  7  6  2  0
  8  6  1  0
  9  8  1  0
 10 11  1  0
  9 10  1  6
 11 12  1  0
 12 13  1  0
 13 14  1  0
 15  9  1  0
 15 17  1  0
 16 15  2  0
 18 17  1  0
 18 22  1  0
 18 19  1  6
 20 19  1  0
 21 20  2  0
 22 25  1  0
 23 22  2  0
 24 20  1  0
M  END
$$$$
