PKD.pdb
     RDKit          3D

 25 25  0  0  1  0  0  0  0  0999 V2000
   27.4530  -22.4332  -15.6921 N   0  0  0  0  0  0  0  0  0  0  0  0
   28.7072  -21.9064  -16.2636 C   0  0  0  0  0  0  0  0  0  0  0  0
   28.2883  -21.5376  -17.6937 C   0  0  0  0  0  0  0  0  0  0  0  0
   26.7949  -21.3983  -17.6226 C   0  0  0  0  0  0  0  0  0  0  0  0
   26.5539  -21.3710  -16.1051 C   0  0  1  0  0  0  0  0  0  0  0  0
   25.1413  -21.7067  -15.9058 C   0  0  0  0  0  0  0  0  0  0  0  0
   24.1919  -21.0122  -16.3438 O   0  0  0  0  0  0  0  0  0  0  0  0
   24.8262  -22.8836  -15.1782 N   0  0  0  0  0  0  0  0  0  0  0  0
   23.4531  -23.3518  -15.0945 C   0  0  1  0  0  0  0  0  0  0  0  0
   23.4974  -24.7983  -14.6667 C   0  0  0  0  0  0  0  0  0  0  0  0
   22.1597  -25.4657  -14.5911 C   0  0  0  0  0  0  0  0  0  0  0  0
   22.2376  -26.8655  -14.0438 C   0  0  0  0  0  0  0  0  0  0  0  0
   20.8726  -27.4594  -13.8356 C   0  0  0  0  0  0  0  0  0  0  0  0
   20.9647  -28.7599  -13.1867 N   0  0  0  0  0  0  0  0  0  0  0  0
   22.6859  -22.5644  -14.1003 C   0  0  0  0  0  0  0  0  0  0  0  0
   23.1480  -22.3572  -12.9521 O   0  0  0  0  0  0  0  0  0  0  0  0
   21.4155  -22.0211  -14.4072 N   0  0  0  0  0  0  0  0  0  0  0  0
   20.6888  -21.2877  -13.3677 C   0  0  1  0  0  0  0  0  0  0  0  0
   20.4661  -19.8634  -13.7381 C   0  0  0  0  0  0  0  0  0  0  0  0
   21.6588  -18.9976  -13.6913 C   0  0  0  0  0  0  0  0  0  0  0  0
   22.7252  -19.4913  -13.2253 O   0  0  0  0  0  0  0  0  0  0  0  0
   19.3963  -21.9425  -13.0847 C   0  0  0  0  0  0  0  0  0  0  0  0
   18.8914  -22.8501  -13.7580 O   0  0  0  0  0  0  0  0  0  0  0  0
   21.7249  -17.6864  -14.1091 O   0  0  0  0  0  0  0  0  0  0  0  0
   18.6801  -21.4979  -11.9599 O   0  0  0  0  0  0  0  0  0  0  0  0
  1  2  1  0
  3  2  1  0
  4  5  1  0
  4  3  1  0
  5  1  1  0
  5  6  1  6
  7  6  2  0
  8  6  1  0
  9  8  1  0
 10 11  1  0
  9 10  1  1
 11 12  1  0
 12 13  1  0
 13 14  1  0
 15  9  1  0
 15 17  1  0
 16 15  2  0
 18 17  1  0
 18 22  1  0
 18 19  1  6
 20 19  1  0
 21 20  2  0
 22 25  1  0
 23 22  2  0
 24 20  1  0
M  END
$$$$
