PKD.pdb
     RDKit          3D

 25 25  0  0  1  0  0  0  0  0999 V2000
   27.1559  -19.9288  -14.7314 N   0  0  0  0  0  0  0  0  0  0  0  0
   28.3676  -20.0711  -15.5612 C   0  0  0  0  0  0  0  0  0  0  0  0
   28.7144  -21.5562  -15.3859 C   0  0  0  0  0  0  0  0  0  0  0  0
   27.4303  -22.1903  -14.9348 C   0  0  0  0  0  0  0  0  0  0  0  0
   26.4120  -21.0754  -15.2207 C   0  0  1  0  0  0  0  0  0  0  0  0
   25.2294  -21.3791  -14.4102 C   0  0  0  0  0  0  0  0  0  0  0  0
   24.4471  -22.3312  -14.6490 O   0  0  0  0  0  0  0  0  0  0  0  0
   24.9514  -20.5526  -13.2905 N   0  0  0  0  0  0  0  0  0  0  0  0
   23.7962  -20.8166  -12.4495 C   0  0  1  0  0  0  0  0  0  0  0  0
   24.0056  -20.0731  -11.1531 C   0  0  0  0  0  0  0  0  0  0  0  0
   22.8311  -20.0976  -10.2255 C   0  0  0  0  0  0  0  0  0  0  0  0
   22.9372  -21.1753   -9.1803 C   0  0  0  0  0  0  0  0  0  0  0  0
   21.6941  -21.2608   -8.3396 C   0  0  0  0  0  0  0  0  0  0  0  0
   21.8332  -22.2788   -7.3075 N   0  0  0  0  0  0  0  0  0  0  0  0
   22.5509  -20.3410  -13.0978 C   0  0  0  0  0  0  0  0  0  0  0  0
   22.5090  -19.2203  -13.6609 O   0  0  0  0  0  0  0  0  0  0  0  0
   21.3740  -21.1272  -13.1063 N   0  0  0  0  0  0  0  0  0  0  0  0
   20.1818  -20.6103  -13.7831 C   0  0  1  0  0  0  0  0  0  0  0  0
   19.9825  -21.2321  -15.1206 C   0  0  0  0  0  0  0  0  0  0  0  0
   18.7845  -20.7902  -15.8580 C   0  0  0  0  0  0  0  0  0  0  0  0
   18.0834  -19.8726  -15.3437 O   0  0  0  0  0  0  0  0  0  0  0  0
   18.9838  -20.8207  -12.9463 C   0  0  0  0  0  0  0  0  0  0  0  0
   18.7060  -21.8659  -12.3445 O   0  0  0  0  0  0  0  0  0  0  0  0
   18.3479  -21.2873  -17.0666 O   0  0  0  0  0  0  0  0  0  0  0  0
   18.0848  -19.7470  -12.8246 O   0  0  0  0  0  0  0  0  0  0  0  0
  1  2  1  0
  3  2  1  0
  4  5  1  0
  4  3  1  0
  5  1  1  0
  5  6  1  1
  7  6  2  0
  8  6  1  0
  9  8  1  0
 10 11  1  0
  9 10  1  1
 11 12  1  0
 12 13  1  0
 13 14  1  0
 15  9  1  0
 15 17  1  0
 16 15  2  0
 18 17  1  0
 18 22  1  0
 18 19  1  6
 20 19  1  0
 21 20  2  0
 22 25  1  0
 23 22  2  0
 24 20  1  0
M  END
$$$$
