PKD.pdb
     RDKit          3D

 25 25  0  0  1  0  0  0  0  0999 V2000
   25.3643  -12.0169  -15.5819 N   0  0  0  0  0  0  0  0  0  0  0  0
   26.6538  -12.6723  -15.8731 C   0  0  0  0  0  0  0  0  0  0  0  0
   26.5751  -12.8951  -17.3899 C   0  0  0  0  0  0  0  0  0  0  0  0
   25.5412  -11.9128  -17.8598 C   0  0  0  0  0  0  0  0  0  0  0  0
   25.3830  -11.0093  -16.6268 C   0  0  1  0  0  0  0  0  0  0  0  0
   24.0984  -10.3212  -16.7818 C   0  0  0  0  0  0  0  0  0  0  0  0
   23.9011   -9.3906  -17.6007 O   0  0  0  0  0  0  0  0  0  0  0  0
   23.0140  -10.7291  -15.9622 N   0  0  0  0  0  0  0  0  0  0  0  0
   21.7255  -10.0650  -16.0620 C   0  0  1  0  0  0  0  0  0  0  0  0
   20.6719  -11.0664  -15.6564 C   0  0  0  0  0  0  0  0  0  0  0  0
   19.2633  -10.5831  -15.8082 C   0  0  0  0  0  0  0  0  0  0  0  0
   18.2459  -11.6471  -15.4956 C   0  0  0  0  0  0  0  0  0  0  0  0
   16.8588  -11.2259  -15.8929 C   0  0  0  0  0  0  0  0  0  0  0  0
   15.9100  -12.3141  -15.7016 N   0  0  0  0  0  0  0  0  0  0  0  0
   21.6653   -8.8899  -15.1605 C   0  0  0  0  0  0  0  0  0  0  0  0
   22.4014   -8.8215  -14.1465 O   0  0  0  0  0  0  0  0  0  0  0  0
   20.7838   -7.8107  -15.4089 N   0  0  0  0  0  0  0  0  0  0  0  0
   20.9208   -6.5871  -14.6148 C   0  0  1  0  0  0  0  0  0  0  0  0
   22.3058   -6.0436  -14.6569 C   0  0  0  0  0  0  0  0  0  0  0  0
   22.5059   -4.7523  -13.9737 C   0  0  0  0  0  0  0  0  0  0  0  0
   22.2444   -4.6946  -12.7383 O   0  0  0  0  0  0  0  0  0  0  0  0
   19.9636   -5.5634  -15.0788 C   0  0  0  0  0  0  0  0  0  0  0  0
   19.3981   -5.5593  -16.1797 O   0  0  0  0  0  0  0  0  0  0  0  0
   22.9536   -3.5875  -14.5579 O   0  0  0  0  0  0  0  0  0  0  0  0
   19.6721   -4.5065  -14.1991 O   0  0  0  0  0  0  0  0  0  0  0  0
  1  2  1  0
  3  2  1  0
  4  5  1  0
  4  3  1  0
  5  1  1  0
  5  6  1  6
  7  6  2  0
  8  6  1  0
  9  8  1  0
 10 11  1  0
  9 10  1  1
 11 12  1  0
 12 13  1  0
 13 14  1  0
 15  9  1  0
 15 17  1  0
 16 15  2  0
 18 17  1  0
 18 22  1  0
 18 19  1  6
 20 19  1  0
 21 20  2  0
 22 25  1  0
 23 22  2  0
 24 20  1  0
M  END
$$$$
