APS.pdb
     RDKit          3D

 19 19  0  0  1  0  0  0  0  0999 V2000
   18.4490   -9.9726  -19.0919 C   0  0  0  0  0  0  0  0  0  0  0  0
   19.1358  -10.8303  -18.0604 C   0  0  2  0  0  0  0  0  0  0  0  0
   18.1224  -11.6783  -17.4660 N   0  0  0  0  0  0  0  0  0  0  0  0
   19.8250  -10.0845  -17.0169 C   0  0  0  0  0  0  0  0  0  0  0  0
   19.1506   -9.5016  -16.1457 O   0  0  0  0  0  0  0  0  0  0  0  0
   21.2614   -9.9780  -16.9292 N   0  0  0  0  0  0  0  0  0  0  0  0
   22.2315  -10.7546  -17.6240 C   0  0  0  0  0  0  0  0  0  0  0  0
   23.3779   -9.8154  -17.8512 C   0  0  0  0  0  0  0  0  0  0  0  0
   23.3994   -9.1453  -16.4599 C   0  0  0  0  0  0  0  0  0  0  0  0
   21.9503   -9.0438  -16.0897 C   0  0  1  0  0  0  0  0  0  0  0  0
   21.4524   -7.6481  -16.1952 C   0  0  0  0  0  0  0  0  0  0  0  0
   20.9052   -7.1731  -17.1903 O   0  0  0  0  0  0  0  0  0  0  0  0
   19.3162   -4.0464  -14.5582 O   0  0  0  0  0  0  0  0  0  0  0  0
   19.7482   -5.3839  -14.4298 C   0  0  0  0  0  0  0  0  0  0  0  0
   21.1561   -5.4792  -14.9882 C   0  0  2  0  0  0  0  0  0  0  0  0
   21.6365   -6.8221  -15.0415 N   0  0  0  0  0  0  0  0  0  0  0  0
   22.0075   -4.5963  -14.1529 C   0  0  0  0  0  0  0  0  0  0  0  0
   22.5451   -5.0804  -13.1328 O   0  0  0  0  0  0  0  0  0  0  0  0
   22.2314   -3.2638  -14.4538 O   0  0  0  0  0  0  0  0  0  0  0  0
  2  3  1  0
  2  1  1  6
  4  5  2  0
  4  2  1  0
  6  4  1  0
  7  6  1  0
  8  7  1  0
  9 10  1  0
  9  8  1  0
 10  6  1  0
 10 11  1  6
 11 12  2  0
 14 13  1  0
 15 14  1  1
 16 11  1  0
 16 15  1  0
 17 15  1  0
 17 19  1  0
 18 17  2  0
M  END
$$$$
