APS.pdb
     RDKit          3D

 19 19  0  0  1  0  0  0  0  0999 V2000
   17.9986   -9.8876  -18.7184 C   0  0  0  0  0  0  0  0  0  0  0  0
   18.4326  -10.3103  -17.3385 C   0  0  2  0  0  0  0  0  0  0  0  0
   17.3196  -11.0173  -16.7379 N   0  0  0  0  0  0  0  0  0  0  0  0
   18.8424   -9.2142  -16.4721 C   0  0  0  0  0  0  0  0  0  0  0  0
   17.9744   -8.4344  -16.0336 O   0  0  0  0  0  0  0  0  0  0  0  0
   20.2114   -8.9727  -16.0851 N   0  0  0  0  0  0  0  0  0  0  0  0
   21.3379   -9.8119  -16.3169 C   0  0  0  0  0  0  0  0  0  0  0  0
   22.4849   -8.8646  -16.5036 C   0  0  0  0  0  0  0  0  0  0  0  0
   22.1522   -7.8798  -15.3615 C   0  0  0  0  0  0  0  0  0  0  0  0
   20.6547   -7.8107  -15.3740 C   0  0  1  0  0  0  0  0  0  0  0  0
   20.1682   -6.5270  -15.9418 C   0  0  0  0  0  0  0  0  0  0  0  0
   19.8691   -6.3524  -17.1231 O   0  0  0  0  0  0  0  0  0  0  0  0
   18.0469   -2.3845  -15.1929 O   0  0  0  0  0  0  0  0  0  0  0  0
   18.3998   -3.6538  -14.6866 C   0  0  0  0  0  0  0  0  0  0  0  0
   19.6222   -4.1390  -15.4438 C   0  0  2  0  0  0  0  0  0  0  0  0
   20.0495   -5.4348  -15.0251 N   0  0  0  0  0  0  0  0  0  0  0  0
   20.6708   -3.1034  -15.2705 C   0  0  0  0  0  0  0  0  0  0  0  0
   21.5407   -3.2798  -14.3893 O   0  0  0  0  0  0  0  0  0  0  0  0
   20.7272   -1.9542  -16.0399 O   0  0  0  0  0  0  0  0  0  0  0  0
  2  3  1  0
  2  1  1  6
  4  5  2  0
  4  2  1  0
  6  4  1  0
  7  6  1  0
  8  7  1  0
  9 10  1  0
  9  8  1  0
 10  6  1  0
 10 11  1  6
 11 12  2  0
 14 13  1  0
 15 14  1  1
 16 11  1  0
 16 15  1  0
 17 15  1  0
 17 19  1  0
 18 17  2  0
M  END
$$$$
