APS.pdb
     RDKit          3D

 19 19  0  0  1  0  0  0  0  0999 V2000
   24.7954  -19.3825   -9.1874 C   0  0  0  0  0  0  0  0  0  0  0  0
   26.1824  -19.9514   -9.3418 C   0  0  2  0  0  0  0  0  0  0  0  0
   26.1026  -21.0121  -10.3255 N   0  0  0  0  0  0  0  0  0  0  0  0
   26.7641  -20.4671   -8.1106 C   0  0  0  0  0  0  0  0  0  0  0  0
   26.2890  -21.5031   -7.6061 O   0  0  0  0  0  0  0  0  0  0  0  0
   27.8728  -19.8427   -7.4299 N   0  0  0  0  0  0  0  0  0  0  0  0
   28.6720  -18.7581   -7.8903 C   0  0  0  0  0  0  0  0  0  0  0  0
   29.0427  -18.0055   -6.6478 C   0  0  0  0  0  0  0  0  0  0  0  0
   29.3687  -19.2128   -5.7416 C   0  0  0  0  0  0  0  0  0  0  0  0
   28.3576  -20.2442   -6.1431 C   0  0  1  0  0  0  0  0  0  0  0  0
   27.2967  -20.4034   -5.1153 C   0  0  0  0  0  0  0  0  0  0  0  0
   26.2744  -19.7206   -5.0525 O   0  0  0  0  0  0  0  0  0  0  0  0
   27.6607  -23.7028   -2.8964 O   0  0  0  0  0  0  0  0  0  0  0  0
   26.5248  -22.9640   -2.5014 C   0  0  0  0  0  0  0  0  0  0  0  0
   26.7127  -21.5303   -2.9617 C   0  0  2  0  0  0  0  0  0  0  0  0
   27.5073  -21.4320   -4.1433 N   0  0  0  0  0  0  0  0  0  0  0  0
   27.2915  -20.7861   -1.8156 C   0  0  0  0  0  0  0  0  0  0  0  0
   28.4410  -20.3085   -1.9364 O   0  0  0  0  0  0  0  0  0  0  0  0
   26.6155  -20.5986   -0.6223 O   0  0  0  0  0  0  0  0  0  0  0  0
  2  3  1  0
  2  1  1  1
  4  5  2  0
  4  2  1  0
  6  4  1  0
  7  6  1  0
  8  7  1  0
  9 10  1  0
  9  8  1  0
 10  6  1  0
 10 11  1  1
 11 12  2  0
 14 13  1  0
 15 14  1  1
 16 11  1  0
 16 15  1  0
 17 15  1  0
 17 19  1  0
 18 17  2  0
M  END
$$$$
