APS.pdb
     RDKit          3D

 19 19  0  0  1  0  0  0  0  0999 V2000
   22.5040  -19.6978  -15.1917 C   0  0  0  0  0  0  0  0  0  0  0  0
   23.2399  -20.4447  -14.1091 C   0  0  2  0  0  0  0  0  0  0  0  0
   24.1989  -21.3115  -14.7636 N   0  0  0  0  0  0  0  0  0  0  0  0
   22.3860  -21.2324  -13.2314 C   0  0  0  0  0  0  0  0  0  0  0  0
   21.8323  -22.2530  -13.6846 O   0  0  0  0  0  0  0  0  0  0  0  0
   22.1387  -20.8983  -11.8496 N   0  0  0  0  0  0  0  0  0  0  0  0
   22.7522  -19.8660  -11.0848 C   0  0  0  0  0  0  0  0  0  0  0  0
   21.6842  -19.4100  -10.1367 C   0  0  0  0  0  0  0  0  0  0  0  0
   21.1295  -20.7952   -9.7387 C   0  0  0  0  0  0  0  0  0  0  0  0
   21.2086  -21.5898  -11.0074 C   0  0  1  0  0  0  0  0  0  0  0  0
   19.8681  -21.7892  -11.6159 C   0  0  0  0  0  0  0  0  0  0  0  0
   19.2980  -20.9712  -12.3379 O   0  0  0  0  0  0  0  0  0  0  0  0
   18.0482  -25.3122  -10.5243 O   0  0  0  0  0  0  0  0  0  0  0  0
   17.6582  -24.8584  -11.8025 C   0  0  0  0  0  0  0  0  0  0  0  0
   17.9517  -23.3718  -11.8837 C   0  0  2  0  0  0  0  0  0  0  0  0
   19.2191  -23.0303  -11.3232 N   0  0  0  0  0  0  0  0  0  0  0  0
   16.8222  -22.6765  -11.2180 C   0  0  0  0  0  0  0  0  0  0  0  0
   17.0548  -22.0300  -10.1730 O   0  0  0  0  0  0  0  0  0  0  0  0
   15.5261  -22.7129  -11.7028 O   0  0  0  0  0  0  0  0  0  0  0  0
  2  3  1  0
  2  1  1  6
  4  5  2  0
  4  2  1  0
  6  4  1  0
  7  6  1  0
  8  7  1  0
  9 10  1  0
  9  8  1  0
 10  6  1  0
 10 11  1  6
 11 12  2  0
 14 13  1  0
 15 14  1  1
 16 11  1  0
 16 15  1  0
 17 15  1  0
 17 19  1  0
 18 17  2  0
M  END
$$$$
