APS.pdb
     RDKit          3D

 19 19  0  0  1  0  0  0  0  0999 V2000
   19.5317  -10.4507  -19.3762 C   0  0  0  0  0  0  0  0  0  0  0  0
   20.8841  -10.8614  -18.8530 C   0  0  2  0  0  0  0  0  0  0  0  0
   20.7058  -12.1103  -18.1405 N   0  0  0  0  0  0  0  0  0  0  0  0
   21.5157   -9.8836  -17.9784 C   0  0  0  0  0  0  0  0  0  0  0  0
   21.0798   -9.7396  -16.8196 O   0  0  0  0  0  0  0  0  0  0  0  0
   22.6312   -9.0598  -18.3776 N   0  0  0  0  0  0  0  0  0  0  0  0
   23.3791   -9.1410  -19.5863 C   0  0  0  0  0  0  0  0  0  0  0  0
   23.7759   -7.7260  -19.8831 C   0  0  0  0  0  0  0  0  0  0  0  0
   24.1729   -7.2985  -18.4533 C   0  0  0  0  0  0  0  0  0  0  0  0
   23.1779   -8.0024  -17.5805 C   0  0  1  0  0  0  0  0  0  0  0  0
   22.1634   -7.0638  -17.0355 C   0  0  0  0  0  0  0  0  0  0  0  0
   21.0987   -6.7858  -17.5872 O   0  0  0  0  0  0  0  0  0  0  0  0
   22.5102   -5.9760  -12.9994 O   0  0  0  0  0  0  0  0  0  0  0  0
   21.2869   -5.9248  -13.7015 C   0  0  0  0  0  0  0  0  0  0  0  0
   21.5853   -5.5413  -15.1391 C   0  0  2  0  0  0  0  0  0  0  0  0
   22.4753   -6.4558  -15.7785 N   0  0  0  0  0  0  0  0  0  0  0  0
   22.1092   -4.1532  -15.1109 C   0  0  0  0  0  0  0  0  0  0  0  0
   23.2912   -3.9564  -15.4688 O   0  0  0  0  0  0  0  0  0  0  0  0
   21.3478   -3.0702  -14.7066 O   0  0  0  0  0  0  0  0  0  0  0  0
  2  3  1  0
  2  1  1  1
  4  5  2  0
  4  2  1  0
  6  4  1  0
  7  6  1  0
  8  7  1  0
  9 10  1  0
  9  8  1  0
 10  6  1  0
 10 11  1  6
 11 12  2  0
 14 13  1  0
 15 14  1  1
 16 11  1  0
 16 15  1  0
 17 15  1  0
 17 19  1  0
 18 17  2  0
M  END
$$$$
