APS.pdb
     RDKit          3D

 19 19  0  0  1  0  0  0  0  0999 V2000
   28.1214  -17.6732  -15.8703 C   0  0  0  0  0  0  0  0  0  0  0  0
   28.4294  -19.1461  -15.9531 C   0  0  2  0  0  0  0  0  0  0  0  0
   27.9321  -19.6160  -17.2302 N   0  0  0  0  0  0  0  0  0  0  0  0
   27.8551  -19.9444  -14.8793 C   0  0  0  0  0  0  0  0  0  0  0  0
   26.6327  -20.1873  -14.8951 O   0  0  0  0  0  0  0  0  0  0  0  0
   28.6263  -20.4788  -13.7830 N   0  0  0  0  0  0  0  0  0  0  0  0
   30.0436  -20.4966  -13.6485 C   0  0  0  0  0  0  0  0  0  0  0  0
   30.2870  -20.3553  -12.1759 C   0  0  0  0  0  0  0  0  0  0  0  0
   29.1926  -21.3218  -11.6727 C   0  0  0  0  0  0  0  0  0  0  0  0
   28.0568  -21.1033  -12.6262 C   0  0  1  0  0  0  0  0  0  0  0  0
   26.9530  -20.3316  -11.9990 C   0  0  0  0  0  0  0  0  0  0  0  0
   26.9644  -19.1141  -11.8181 O   0  0  0  0  0  0  0  0  0  0  0  0
   23.2180  -21.9653  -12.0590 O   0  0  0  0  0  0  0  0  0  0  0  0
   23.4130  -20.5996  -11.7609 C   0  0  0  0  0  0  0  0  0  0  0  0
   24.6888  -20.4728  -10.9491 C   0  0  2  0  0  0  0  0  0  0  0  0
   25.8091  -21.0857  -11.5867 N   0  0  0  0  0  0  0  0  0  0  0  0
   24.4027  -21.0475   -9.6112 C   0  0  0  0  0  0  0  0  0  0  0  0
   25.0921  -22.0148   -9.2198 O   0  0  0  0  0  0  0  0  0  0  0  0
   23.4085  -20.5602   -8.7805 O   0  0  0  0  0  0  0  0  0  0  0  0
  2  3  1  0
  2  1  1  1
  4  5  2  0
  4  2  1  0
  6  4  1  0
  7  6  1  0
  8  7  1  0
  9 10  1  0
  9  8  1  0
 10  6  1  0
 10 11  1  1
 11 12  2  0
 14 13  1  0
 15 14  1  6
 16 11  1  0
 16 15  1  0
 17 15  1  0
 17 19  1  0
 18 17  2  0
M  END
$$$$
