APS.pdb
     RDKit          3D

 19 19  0  0  1  0  0  0  0  0999 V2000
   19.5470   -9.2905  -19.4628 C   0  0  0  0  0  0  0  0  0  0  0  0
   19.3765  -10.1059  -18.2069 C   0  0  2  0  0  0  0  0  0  0  0  0
   17.9862  -10.5091  -18.1442 N   0  0  0  0  0  0  0  0  0  0  0  0
   19.7410   -9.4101  -16.9810 C   0  0  0  0  0  0  0  0  0  0  0  0
   18.9529   -8.5686  -16.5072 O   0  0  0  0  0  0  0  0  0  0  0  0
   20.9766   -9.6390  -16.2715 N   0  0  0  0  0  0  0  0  0  0  0  0
   21.9023  -10.7031  -16.4653 C   0  0  0  0  0  0  0  0  0  0  0  0
   23.2424  -10.0990  -16.1704 C   0  0  0  0  0  0  0  0  0  0  0  0
   22.8530   -9.2887  -14.9147 C   0  0  0  0  0  0  0  0  0  0  0  0
   21.4688   -8.8005  -15.2194 C   0  0  1  0  0  0  0  0  0  0  0  0
   21.4556   -7.3500  -15.5402 C   0  0  0  0  0  0  0  0  0  0  0  0
   21.6481   -6.8788  -16.6610 O   0  0  0  0  0  0  0  0  0  0  0  0
   19.8790   -3.0602  -14.3091 O   0  0  0  0  0  0  0  0  0  0  0  0
   19.8780   -4.4420  -14.0218 C   0  0  0  0  0  0  0  0  0  0  0  0
   21.1339   -5.0478  -14.6208 C   0  0  2  0  0  0  0  0  0  0  0  0
   21.1979   -6.4631  -14.4474 N   0  0  0  0  0  0  0  0  0  0  0  0
   22.2844   -4.3402  -14.0063 C   0  0  0  0  0  0  0  0  0  0  0  0
   22.8120   -4.8365  -12.9867 O   0  0  0  0  0  0  0  0  0  0  0  0
   22.7971   -3.1579  -14.5117 O   0  0  0  0  0  0  0  0  0  0  0  0
  2  3  1  0
  2  1  1  6
  4  5  2  0
  4  2  1  0
  6  4  1  0
  7  6  1  0
  8  7  1  0
  9 10  1  0
  9  8  1  0
 10  6  1  0
 10 11  1  6
 11 12  2  0
 14 13  1  0
 15 14  1  1
 16 11  1  0
 16 15  1  0
 17 15  1  0
 17 19  1  0
 18 17  2  0
M  END
$$$$
