APS.pdb
     RDKit          3D

 19 19  0  0  1  0  0  0  0  0999 V2000
   19.9230  -19.4469  -12.6909 C   0  0  0  0  0  0  0  0  0  0  0  0
   21.0750  -20.4018  -12.5108 C   0  0  2  0  0  0  0  0  0  0  0  0
   21.2105  -21.1464  -13.7463 N   0  0  0  0  0  0  0  0  0  0  0  0
   20.9248  -21.3256  -11.3954 C   0  0  0  0  0  0  0  0  0  0  0  0
   20.0599  -22.2204  -11.4648 O   0  0  0  0  0  0  0  0  0  0  0  0
   21.7280  -21.2670  -10.1980 N   0  0  0  0  0  0  0  0  0  0  0  0
   22.8338  -20.4088   -9.9379 C   0  0  0  0  0  0  0  0  0  0  0  0
   22.7674  -20.1400   -8.4644 C   0  0  0  0  0  0  0  0  0  0  0  0
   22.4413  -21.5725   -7.9883 C   0  0  0  0  0  0  0  0  0  0  0  0
   21.5286  -22.1037   -9.0523 C   0  0  1  0  0  0  0  0  0  0  0  0
   20.1199  -22.1707   -8.5851 C   0  0  0  0  0  0  0  0  0  0  0  0
   19.3426  -21.2163   -8.5649 O   0  0  0  0  0  0  0  0  0  0  0  0
   18.4807  -25.8431   -8.5601 O   0  0  0  0  0  0  0  0  0  0  0  0
   17.6040  -24.7455   -8.4231 C   0  0  0  0  0  0  0  0  0  0  0  0
   18.3325  -23.6539   -7.6611 C   0  0  2  0  0  0  0  0  0  0  0  0
   19.6639  -23.4491   -8.1327 N   0  0  0  0  0  0  0  0  0  0  0  0
   18.2815  -24.0279   -6.2260 C   0  0  0  0  0  0  0  0  0  0  0  0
   19.3596  -24.2351   -5.6269 O   0  0  0  0  0  0  0  0  0  0  0  0
   17.0954  -24.1570   -5.5242 O   0  0  0  0  0  0  0  0  0  0  0  0
  2  3  1  0
  2  1  1  6
  4  5  2  0
  4  2  1  0
  6  4  1  0
  7  6  1  0
  8  7  1  0
  9 10  1  0
  9  8  1  0
 10  6  1  0
 10 11  1  1
 11 12  2  0
 14 13  1  0
 15 14  1  6
 16 11  1  0
 16 15  1  0
 17 15  1  0
 17 19  1  0
 18 17  2  0
M  END
$$$$
