APS.pdb
     RDKit          3D

 19 19  0  0  1  0  0  0  0  0999 V2000
   15.0631  -15.7663    4.0344 C   0  0  0  0  0  0  0  0  0  0  0  0
   15.1033  -17.2105    3.6053 C   0  0  2  0  0  0  0  0  0  0  0  0
   13.7656  -17.7426    3.7687 N   0  0  0  0  0  0  0  0  0  0  0  0
   16.0519  -18.0332    4.3425 C   0  0  0  0  0  0  0  0  0  0  0  0
   15.8654  -18.2259    5.5598 O   0  0  0  0  0  0  0  0  0  0  0  0
   17.2106  -18.6475    3.7407 N   0  0  0  0  0  0  0  0  0  0  0  0
   17.4967  -18.7828    2.3526 C   0  0  0  0  0  0  0  0  0  0  0  0
   18.9901  -18.6873    2.2616 C   0  0  0  0  0  0  0  0  0  0  0  0
   19.3469  -19.5703    3.4773 C   0  0  0  0  0  0  0  0  0  0  0  0
   18.2825  -19.2436    4.4810 C   0  0  1  0  0  0  0  0  0  0  0  0
   18.8070  -18.3959    5.5825 C   0  0  0  0  0  0  0  0  0  0  0  0
   18.5803  -17.1925    5.7088 O   0  0  0  0  0  0  0  0  0  0  0  0
   19.0748  -17.4596    9.7858 O   0  0  0  0  0  0  0  0  0  0  0  0
   18.6813  -18.1569    8.6235 C   0  0  0  0  0  0  0  0  0  0  0  0
   19.9281  -18.4660    7.8156 C   0  0  2  0  0  0  0  0  0  0  0  0
   19.6309  -19.0540    6.5495 N   0  0  0  0  0  0  0  0  0  0  0  0
   20.7839  -19.3310    8.6651 C   0  0  0  0  0  0  0  0  0  0  0  0
   20.6909  -20.5714    8.5344 O   0  0  0  0  0  0  0  0  0  0  0  0
   21.6778  -18.8254    9.5931 O   0  0  0  0  0  0  0  0  0  0  0  0
  2  3  1  0
  2  1  1  1
  4  5  2  0
  4  2  1  0
  6  4  1  0
  7  6  1  0
  8  7  1  0
  9 10  1  0
  9  8  1  0
 10  6  1  0
 10 11  1  1
 11 12  2  0
 14 13  1  0
 15 14  1  1
 16 11  1  0
 16 15  1  0
 17 15  1  0
 17 19  1  0
 18 17  2  0
M  END
$$$$
