APS.pdb
     RDKit          3D

 19 19  0  0  1  0  0  0  0  0999 V2000
   26.9979  -17.5504  -15.0544 C   0  0  0  0  0  0  0  0  0  0  0  0
   27.3340  -19.0176  -15.1285 C   0  0  2  0  0  0  0  0  0  0  0  0
   27.7855  -19.2853  -16.4790 N   0  0  0  0  0  0  0  0  0  0  0  0
   26.2308  -19.9074  -14.7948 C   0  0  0  0  0  0  0  0  0  0  0  0
   25.2981  -20.0448  -15.6102 O   0  0  0  0  0  0  0  0  0  0  0  0
   26.1510  -20.6501  -13.5602 N   0  0  0  0  0  0  0  0  0  0  0  0
   27.1577  -20.7821  -12.5621 C   0  0  0  0  0  0  0  0  0  0  0  0
   26.4019  -20.8795  -11.2710 C   0  0  0  0  0  0  0  0  0  0  0  0
   25.2820  -21.8355  -11.7369 C   0  0  0  0  0  0  0  0  0  0  0  0
   25.0042  -21.4015  -13.1446 C   0  0  1  0  0  0  0  0  0  0  0  0
   23.7206  -20.6609  -13.2485 C   0  0  0  0  0  0  0  0  0  0  0  0
   23.5335  -19.5209  -12.8234 O   0  0  0  0  0  0  0  0  0  0  0  0
   19.6456  -20.2202  -15.6448 O   0  0  0  0  0  0  0  0  0  0  0  0
   20.8434  -20.9542  -15.5091 C   0  0  0  0  0  0  0  0  0  0  0  0
   21.3730  -20.7347  -14.1040 C   0  0  2  0  0  0  0  0  0  0  0  0
   22.6444  -21.3483  -13.8938 N   0  0  0  0  0  0  0  0  0  0  0  0
   20.3318  -21.2346  -13.1723 C   0  0  0  0  0  0  0  0  0  0  0  0
   20.4293  -22.4059  -12.7447 O   0  0  0  0  0  0  0  0  0  0  0  0
   19.2606  -20.4623  -12.7574 O   0  0  0  0  0  0  0  0  0  0  0  0
  2  3  1  0
  2  1  1  6
  4  5  2  0
  4  2  1  0
  6  4  1  0
  7  6  1  0
  8  7  1  0
  9 10  1  0
  9  8  1  0
 10  6  1  0
 10 11  1  1
 11 12  2  0
 14 13  1  0
 15 14  1  6
 16 11  1  0
 16 15  1  0
 17 15  1  0
 17 19  1  0
 18 17  2  0
M  END
$$$$
