APS.pdb
     RDKit          3D

 19 19  0  0  1  0  0  0  0  0999 V2000
   20.2709   -9.2587  -20.1808 C   0  0  0  0  0  0  0  0  0  0  0  0
   21.1641  -10.1197  -19.3251 C   0  0  2  0  0  0  0  0  0  0  0  0
   20.4477  -11.3517  -19.0637 N   0  0  0  0  0  0  0  0  0  0  0  0
   21.5652   -9.5089  -18.0657 C   0  0  0  0  0  0  0  0  0  0  0  0
   20.7245   -9.4024  -17.1516 O   0  0  0  0  0  0  0  0  0  0  0  0
   22.8955   -9.0127  -17.8082 N   0  0  0  0  0  0  0  0  0  0  0  0
   24.0702   -9.2434  -18.5788 C   0  0  0  0  0  0  0  0  0  0  0  0
   24.8709   -7.9839  -18.4368 C   0  0  0  0  0  0  0  0  0  0  0  0
   24.6603   -7.7521  -16.9246 C   0  0  0  0  0  0  0  0  0  0  0  0
   23.2458   -8.1893  -16.6895 C   0  0  1  0  0  0  0  0  0  0  0  0
   22.3400   -7.0307  -16.4789 C   0  0  0  0  0  0  0  0  0  0  0  0
   21.7820   -6.4051  -17.3803 O   0  0  0  0  0  0  0  0  0  0  0  0
   20.2587   -6.7429  -13.0425 O   0  0  0  0  0  0  0  0  0  0  0  0
   19.9845   -5.9206  -14.1562 C   0  0  0  0  0  0  0  0  0  0  0  0
   21.3077   -5.5160  -14.7793 C   0  0  2  0  0  0  0  0  0  0  0  0
   22.1206   -6.6384  -15.1205 N   0  0  0  0  0  0  0  0  0  0  0  0
   21.9688   -4.5976  -13.8192 C   0  0  0  0  0  0  0  0  0  0  0  0
   23.0435   -4.9607  -13.2928 O   0  0  0  0  0  0  0  0  0  0  0  0
   21.4483   -3.3599  -13.4825 O   0  0  0  0  0  0  0  0  0  0  0  0
  2  3  1  0
  2  1  1  1
  4  5  2  0
  4  2  1  0
  6  4  1  0
  7  6  1  0
  8  7  1  0
  9 10  1  0
  9  8  1  0
 10  6  1  0
 10 11  1  6
 11 12  2  0
 14 13  1  0
 15 14  1  1
 16 11  1  0
 16 15  1  0
 17 15  1  0
 17 19  1  0
 18 17  2  0
M  END
$$$$
