APS.pdb
     RDKit          3D

 19 19  0  0  1  0  0  0  0  0999 V2000
   24.3874  -23.9701  -14.5703 C   0  0  0  0  0  0  0  0  0  0  0  0
   23.9227  -22.6148  -14.1029 C   0  0  2  0  0  0  0  0  0  0  0  0
   22.6065  -22.3958  -14.6677 N   0  0  0  0  0  0  0  0  0  0  0  0
   24.8031  -21.5148  -14.4700 C   0  0  0  0  0  0  0  0  0  0  0  0
   24.6605  -20.9731  -15.5835 O   0  0  0  0  0  0  0  0  0  0  0  0
   25.8452  -21.0068  -13.6107 N   0  0  0  0  0  0  0  0  0  0  0  0
   26.0349  -21.2778  -12.2260 C   0  0  0  0  0  0  0  0  0  0  0  0
   27.5216  -21.2527  -12.0343 C   0  0  0  0  0  0  0  0  0  0  0  0
   27.8387  -20.0089  -12.8931 C   0  0  0  0  0  0  0  0  0  0  0  0
   26.8785  -20.1120  -14.0397 C   0  0  1  0  0  0  0  0  0  0  0  0
   27.5608  -20.5258  -15.2928 C   0  0  0  0  0  0  0  0  0  0  0  0
   28.0938  -21.6210  -15.4711 O   0  0  0  0  0  0  0  0  0  0  0  0
   26.1486  -19.4919  -18.7749 O   0  0  0  0  0  0  0  0  0  0  0  0
   27.2050  -20.4143  -18.6153 C   0  0  0  0  0  0  0  0  0  0  0  0
   28.1866  -19.8363  -17.6126 C   0  0  2  0  0  0  0  0  0  0  0  0
   27.5832  -19.5608  -16.3489 N   0  0  0  0  0  0  0  0  0  0  0  0
   28.7799  -18.6306  -18.2421 C   0  0  0  0  0  0  0  0  0  0  0  0
   28.5915  -17.5212  -17.6963 O   0  0  0  0  0  0  0  0  0  0  0  0
   29.5307  -18.6811  -19.4040 O   0  0  0  0  0  0  0  0  0  0  0  0
  2  3  1  0
  2  1  1  6
  4  5  2  0
  4  2  1  0
  6  4  1  0
  7  6  1  0
  8  7  1  0
  9 10  1  0
  9  8  1  0
 10  6  1  0
 10 11  1  6
 11 12  2  0
 14 13  1  0
 15 14  1  6
 16 11  1  0
 16 15  1  0
 17 15  1  0
 17 19  1  0
 18 17  2  0
M  END
$$$$
