APS.pdb
     RDKit          3D

 19 19  0  0  1  0  0  0  0  0999 V2000
   20.6238  -11.5161  -19.0596 C   0  0  0  0  0  0  0  0  0  0  0  0
   20.7181  -12.1420  -17.6920 C   0  0  2  0  0  0  0  0  0  0  0  0
   19.4787  -12.8563  -17.4621 N   0  0  0  0  0  0  0  0  0  0  0  0
   20.9469  -11.1957  -16.6093 C   0  0  0  0  0  0  0  0  0  0  0  0
   20.0577  -10.3667  -16.3341 O   0  0  0  0  0  0  0  0  0  0  0  0
   22.1574  -11.1593  -15.8247 N   0  0  0  0  0  0  0  0  0  0  0  0
   23.1963  -12.1321  -15.7892 C   0  0  0  0  0  0  0  0  0  0  0  0
   24.4490  -11.3416  -15.5580 C   0  0  0  0  0  0  0  0  0  0  0  0
   23.9089  -10.3722  -14.4840 C   0  0  0  0  0  0  0  0  0  0  0  0
   22.5015  -10.1006  -14.9229 C   0  0  1  0  0  0  0  0  0  0  0  0
   22.3585   -8.7389  -15.4996 C   0  0  0  0  0  0  0  0  0  0  0  0
   22.5958   -8.4463  -16.6716 O   0  0  0  0  0  0  0  0  0  0  0  0
   20.1590   -4.7041  -15.6968 O   0  0  0  0  0  0  0  0  0  0  0  0
   20.2431   -6.0308  -15.2229 C   0  0  0  0  0  0  0  0  0  0  0  0
   21.7099   -6.3704  -15.0330 C   0  0  2  0  0  0  0  0  0  0  0  0
   21.9114   -7.7167  -14.6040 N   0  0  0  0  0  0  0  0  0  0  0  0
   22.2589   -5.3745  -14.0795 C   0  0  0  0  0  0  0  0  0  0  0  0
   22.3142   -5.6791  -12.8678 O   0  0  0  0  0  0  0  0  0  0  0  0
   22.7109   -4.1267  -14.4727 O   0  0  0  0  0  0  0  0  0  0  0  0
  2  3  1  0
  2  1  1  6
  4  5  2  0
  4  2  1  0
  6  4  1  0
  7  6  1  0
  8  7  1  0
  9 10  1  0
  9  8  1  0
 10  6  1  0
 10 11  1  6
 11 12  2  0
 14 13  1  0
 15 14  1  1
 16 11  1  0
 16 15  1  0
 17 15  1  0
 17 19  1  0
 18 17  2  0
M  END
$$$$
