APS.pdb
     RDKit          3D

 19 19  0  0  1  0  0  0  0  0999 V2000
   42.9950  -10.2883   -8.0668 C   0  0  0  0  0  0  0  0  0  0  0  0
   41.8972  -10.9227   -8.8813 C   0  0  2  0  0  0  0  0  0  0  0  0
   42.4854  -11.3454  -10.1362 N   0  0  0  0  0  0  0  0  0  0  0  0
   40.7588  -10.0531   -9.1416 C   0  0  0  0  0  0  0  0  0  0  0  0
   40.8080   -9.2671  -10.1078 O   0  0  0  0  0  0  0  0  0  0  0  0
   39.5605  -10.0462   -8.3377 N   0  0  0  0  0  0  0  0  0  0  0  0
   39.1677  -11.0039   -7.3602 C   0  0  0  0  0  0  0  0  0  0  0  0
   38.4234  -10.2103   -6.3288 C   0  0  0  0  0  0  0  0  0  0  0  0
   37.6015   -9.3157   -7.2824 C   0  0  0  0  0  0  0  0  0  0  0  0
   38.5446   -9.0389   -8.4143 C   0  0  1  0  0  0  0  0  0  0  0  0
   39.0625   -7.6472   -8.3707 C   0  0  0  0  0  0  0  0  0  0  0  0
   40.0982   -7.3029   -7.8012 O   0  0  0  0  0  0  0  0  0  0  0  0
   38.0496   -5.1638  -11.3799 O   0  0  0  0  0  0  0  0  0  0  0  0
   37.9063   -4.4988  -10.1433 C   0  0  0  0  0  0  0  0  0  0  0  0
   38.6684   -5.2872   -9.0942 C   0  0  2  0  0  0  0  0  0  0  0  0
   38.2796   -6.6597   -9.0481 N   0  0  0  0  0  0  0  0  0  0  0  0
   38.4634   -4.5874   -7.8017 C   0  0  0  0  0  0  0  0  0  0  0  0
   37.5658   -5.0030   -7.0364 O   0  0  0  0  0  0  0  0  0  0  0  0
   39.2210   -3.4978   -7.4081 O   0  0  0  0  0  0  0  0  0  0  0  0
  2  3  1  0
  2  1  1  1
  4  5  2  0
  4  2  1  0
  6  4  1  0
  7  6  1  0
  8  7  1  0
  9 10  1  0
  9  8  1  0
 10  6  1  0
 10 11  1  1
 11 12  2  0
 14 13  1  0
 15 14  1  6
 16 11  1  0
 16 15  1  0
 17 15  1  0
 17 19  1  0
 18 17  2  0
M  END
$$$$
