APS.pdb
     RDKit          3D

 19 19  0  0  1  0  0  0  0  0999 V2000
   20.3548  -11.2258  -19.0802 C   0  0  0  0  0  0  0  0  0  0  0  0
   20.4415  -11.9068  -17.7386 C   0  0  2  0  0  0  0  0  0  0  0  0
   19.1795  -12.5843  -17.5205 N   0  0  0  0  0  0  0  0  0  0  0  0
   20.7167  -11.0116  -16.6237 C   0  0  0  0  0  0  0  0  0  0  0  0
   19.8361  -10.2056  -16.2651 O   0  0  0  0  0  0  0  0  0  0  0  0
   21.9643  -11.0010  -15.8988 N   0  0  0  0  0  0  0  0  0  0  0  0
   23.0253  -11.9462  -15.9869 C   0  0  0  0  0  0  0  0  0  0  0  0
   24.2701  -11.1422  -15.7592 C   0  0  0  0  0  0  0  0  0  0  0  0
   23.7636  -10.2686  -14.5907 C   0  0  0  0  0  0  0  0  0  0  0  0
   22.3299  -10.0026  -14.9387 C   0  0  1  0  0  0  0  0  0  0  0  0
   22.1272   -8.6066  -15.4046 C   0  0  0  0  0  0  0  0  0  0  0  0
   22.1141   -8.2572  -16.5849 O   0  0  0  0  0  0  0  0  0  0  0  0
   20.0445   -4.6071  -15.1992 O   0  0  0  0  0  0  0  0  0  0  0  0
   20.1923   -5.9394  -14.7575 C   0  0  0  0  0  0  0  0  0  0  0  0
   21.6759   -6.2525  -14.6952 C   0  0  2  0  0  0  0  0  0  0  0  0
   21.9363   -7.6211  -14.3851 N   0  0  0  0  0  0  0  0  0  0  0  0
   22.2690   -5.3160  -13.7085 C   0  0  0  0  0  0  0  0  0  0  0  0
   22.3539   -5.6839  -12.5162 O   0  0  0  0  0  0  0  0  0  0  0  0
   22.7307   -4.0567  -14.0503 O   0  0  0  0  0  0  0  0  0  0  0  0
  2  3  1  0
  2  1  1  6
  4  5  2  0
  4  2  1  0
  6  4  1  0
  7  6  1  0
  8  7  1  0
  9 10  1  0
  9  8  1  0
 10  6  1  0
 10 11  1  6
 11 12  2  0
 14 13  1  0
 15 14  1  1
 16 11  1  0
 16 15  1  0
 17 15  1  0
 17 19  1  0
 18 17  2  0
M  END
$$$$
