ECD.pdb
     RDKit          3D

 24 23  0  0  1  0  0  0  0  0999 V2000
   18.4416  -13.0977  -16.3913 N   0  0  0  0  0  0  0  0  0  0  0  0
   18.5793  -11.7121  -16.8970 C   0  0  1  0  0  0  0  0  0  0  0  0
   17.2062  -11.1110  -17.0514 C   0  0  0  0  0  0  0  0  0  0  0  0
   16.4547  -11.7627  -18.1668 C   0  0  0  0  0  0  0  0  0  0  0  0
   15.1238  -11.1277  -18.3904 C   0  0  0  0  0  0  0  0  0  0  0  0
   14.8278  -10.6850  -19.5373 O   0  0  0  0  0  0  0  0  0  0  0  0
   19.4586  -11.0075  -15.9469 C   0  0  0  0  0  0  0  0  0  0  0  0
   19.1705  -11.0042  -14.7089 O   0  0  0  0  0  0  0  0  0  0  0  0
   14.1607  -10.9825  -17.4103 O   0  0  0  0  0  0  0  0  0  0  0  0
   20.6430  -10.3065  -16.2850 N   0  0  0  0  0  0  0  0  0  0  0  0
   21.4518   -9.6322  -15.2647 C   0  0  1  0  0  0  0  0  0  0  0  0
   22.8893  -10.1706  -15.3587 C   0  0  0  0  0  0  0  0  0  0  0  0
   24.0102   -9.2537  -14.3013 S   0  0  0  0  0  0  0  0  0  0  0  0
   21.5392   -8.2103  -15.6568 C   0  0  0  0  0  0  0  0  0  0  0  0
   21.9623   -7.8802  -16.7808 O   0  0  0  0  0  0  0  0  0  0  0  0
   21.1455   -7.1515  -14.7733 N   0  0  0  0  0  0  0  0  0  0  0  0
   21.3740   -5.7708  -15.0624 C   0  0  1  0  0  0  0  0  0  0  0  0
   20.0513   -5.0419  -15.0683 C   0  0  0  0  0  0  0  0  0  0  0  0
   20.2264   -3.6218  -15.3857 C   0  0  0  0  0  0  0  0  0  0  0  0
   19.9724   -2.7392  -14.5604 O   0  0  0  0  0  0  0  0  0  0  0  0
   22.2455   -5.1042  -14.0804 C   0  0  0  0  0  0  0  0  0  0  0  0
   22.7709   -3.8613  -14.3852 O   0  0  0  0  0  0  0  0  0  0  0  0
   20.6906   -3.2231  -16.6451 O   0  0  0  0  0  0  0  0  0  0  0  0
   22.5403   -5.6128  -12.9678 O   0  0  0  0  0  0  0  0  0  0  0  0
  2  1  1  1
  3  4  1  0
  3  2  1  0
  4  5  1  0
  5  6  2  0
  5  9  1  0
  7  8  2  0
  7  2  1  0
 10  7  1  0
 11 10  1  0
 11 14  1  0
 11 12  1  6
 13 12  1  0
 14 16  1  0
 15 14  2  0
 16 17  1  0
 17 21  1  0
 17 18  1  1
 19 18  1  0
 20 19  2  0
 21 24  2  0
 21 22  1  0
 23 19  1  0
M  END
$$$$
