ECD.pdb
     RDKit          3D

 24 23  0  0  1  0  0  0  0  0999 V2000
   24.5749  -16.6463  -19.4028 N   0  0  0  0  0  0  0  0  0  0  0  0
   26.0198  -16.5135  -19.7012 C   0  0  1  0  0  0  0  0  0  0  0  0
   26.4482  -17.6735  -20.5621 C   0  0  0  0  0  0  0  0  0  0  0  0
   26.1552  -18.9779  -19.8942 C   0  0  0  0  0  0  0  0  0  0  0  0
   27.2596  -19.4015  -18.9856 C   0  0  0  0  0  0  0  0  0  0  0  0
   27.0282  -19.5589  -17.7524 O   0  0  0  0  0  0  0  0  0  0  0  0
   26.1973  -15.1872  -20.3190 C   0  0  0  0  0  0  0  0  0  0  0  0
   27.3572  -14.8133  -20.6806 O   0  0  0  0  0  0  0  0  0  0  0  0
   28.5550  -19.6425  -19.4015 O   0  0  0  0  0  0  0  0  0  0  0  0
   25.1649  -14.2478  -20.5641 N   0  0  0  0  0  0  0  0  0  0  0  0
   25.4516  -12.9230  -21.1233 C   0  0  1  0  0  0  0  0  0  0  0  0
   24.1512  -12.3645  -21.7251 C   0  0  0  0  0  0  0  0  0  0  0  0
   23.8328  -13.0391  -23.3556 S   0  0  0  0  0  0  0  0  0  0  0  0
   25.7696  -12.0362  -19.9851 C   0  0  0  0  0  0  0  0  0  0  0  0
   25.2684  -12.2308  -18.8615 O   0  0  0  0  0  0  0  0  0  0  0  0
   26.6608  -10.9202  -20.1155 N   0  0  0  0  0  0  0  0  0  0  0  0
   27.0232  -10.0809  -19.0172 C   0  0  1  0  0  0  0  0  0  0  0  0
   28.4108  -10.4508  -18.5496 C   0  0  0  0  0  0  0  0  0  0  0  0
   28.7899   -9.6939  -17.3532 C   0  0  0  0  0  0  0  0  0  0  0  0
   28.0126   -8.8962  -16.8201 O   0  0  0  0  0  0  0  0  0  0  0  0
   27.0344   -8.6478  -19.3553 C   0  0  0  0  0  0  0  0  0  0  0  0
   26.7844   -7.7219  -18.3583 O   0  0  0  0  0  0  0  0  0  0  0  0
   30.0555   -9.8557  -16.7765 O   0  0  0  0  0  0  0  0  0  0  0  0
   27.2610   -8.2184  -20.5162 O   0  0  0  0  0  0  0  0  0  0  0  0
  2  1  1  6
  3  4  1  0
  3  2  1  0
  4  5  1  0
  5  6  2  0
  5  9  1  0
  7  8  2  0
  7  2  1  0
 10  7  1  0
 11 10  1  0
 11 14  1  0
 11 12  1  1
 13 12  1  0
 14 16  1  0
 15 14  2  0
 16 17  1  0
 17 21  1  0
 17 18  1  6
 19 18  1  0
 20 19  2  0
 21 24  2  0
 21 22  1  0
 23 19  1  0
M  END
$$$$
