ECD.pdb
     RDKit          3D

 24 23  0  0  1  0  0  0  0  0999 V2000
   19.4433   -4.9251  -12.6645 N   0  0  0  0  0  0  0  0  0  0  0  0
   18.6418   -6.1198  -13.0179 C   0  0  1  0  0  0  0  0  0  0  0  0
   19.5031   -7.0668  -13.8127 C   0  0  0  0  0  0  0  0  0  0  0  0
   20.6194   -6.3404  -14.4908 C   0  0  0  0  0  0  0  0  0  0  0  0
   21.8911   -6.4202  -13.7154 C   0  0  0  0  0  0  0  0  0  0  0  0
   22.1219   -7.4350  -12.9971 O   0  0  0  0  0  0  0  0  0  0  0  0
   18.1294   -6.6678  -11.7493 C   0  0  0  0  0  0  0  0  0  0  0  0
   18.8985   -6.7375  -10.7395 O   0  0  0  0  0  0  0  0  0  0  0  0
   22.8654   -5.4404  -13.7231 O   0  0  0  0  0  0  0  0  0  0  0  0
   16.8123   -7.1422  -11.5291 N   0  0  0  0  0  0  0  0  0  0  0  0
   16.4071   -7.7062  -10.2377 C   0  0  1  0  0  0  0  0  0  0  0  0
   16.1150   -6.5421   -9.2761 C   0  0  0  0  0  0  0  0  0  0  0  0
   15.3452   -7.1125   -7.7604 S   0  0  0  0  0  0  0  0  0  0  0  0
   15.1068   -8.3749  -10.4503 C   0  0  0  0  0  0  0  0  0  0  0  0
   14.1551   -7.7717  -10.9812 O   0  0  0  0  0  0  0  0  0  0  0  0
   14.8782   -9.7361  -10.0608 N   0  0  0  0  0  0  0  0  0  0  0  0
   13.6403  -10.4131  -10.2870 C   0  0  1  0  0  0  0  0  0  0  0  0
   13.8858  -11.9033  -10.2915 C   0  0  0  0  0  0  0  0  0  0  0  0
   14.1907  -12.3895  -11.6400 C   0  0  0  0  0  0  0  0  0  0  0  0
   14.0303  -11.6768  -12.6355 O   0  0  0  0  0  0  0  0  0  0  0  0
   12.6239  -10.1323   -9.2592 C   0  0  0  0  0  0  0  0  0  0  0  0
   11.2884  -10.3188   -9.5684 O   0  0  0  0  0  0  0  0  0  0  0  0
   14.6766  -13.6877  -11.8386 O   0  0  0  0  0  0  0  0  0  0  0  0
   12.9109   -9.7265   -8.1032 O   0  0  0  0  0  0  0  0  0  0  0  0
  2  1  1  1
  3  4  1  0
  3  2  1  0
  4  5  1  0
  5  6  2  0
  5  9  1  0
  7  8  2  0
  7  2  1  0
 10  7  1  0
 11 10  1  0
 11 14  1  0
 11 12  1  1
 13 12  1  0
 14 16  1  0
 15 14  2  0
 16 17  1  0
 17 21  1  0
 17 18  1  1
 19 18  1  0
 20 19  2  0
 21 24  2  0
 21 22  1  0
 23 19  1  0
M  END
$$$$
