ECD.pdb
     RDKit          3D

 24 23  0  0  1  0  0  0  0  0999 V2000
   22.3114  -13.8412  -16.6818 N   0  0  0  0  0  0  0  0  0  0  0  0
   21.8842  -12.5231  -17.2058 C   0  0  1  0  0  0  0  0  0  0  0  0
   20.3801  -12.4974  -17.2923 C   0  0  0  0  0  0  0  0  0  0  0  0
   19.8918  -11.1811  -17.8046 C   0  0  0  0  0  0  0  0  0  0  0  0
   19.1664  -10.4071  -16.7561 C   0  0  0  0  0  0  0  0  0  0  0  0
   19.4950   -9.2080  -16.5255 O   0  0  0  0  0  0  0  0  0  0  0  0
   22.4687  -11.5093  -16.3098 C   0  0  0  0  0  0  0  0  0  0  0  0
   22.2195  -11.5540  -15.0641 O   0  0  0  0  0  0  0  0  0  0  0  0
   18.1313  -10.9160  -15.9952 O   0  0  0  0  0  0  0  0  0  0  0  0
   23.3174  -10.4472  -16.7101 N   0  0  0  0  0  0  0  0  0  0  0  0
   23.8319   -9.4720  -15.7436 C   0  0  1  0  0  0  0  0  0  0  0  0
   25.3167   -9.2229  -16.0573 C   0  0  0  0  0  0  0  0  0  0  0  0
   26.3648  -10.4964  -15.3539 S   0  0  0  0  0  0  0  0  0  0  0  0
   23.1517   -8.1905  -16.0233 C   0  0  0  0  0  0  0  0  0  0  0  0
   22.6840   -7.9461  -17.1516 O   0  0  0  0  0  0  0  0  0  0  0  0
   22.9976   -7.1760  -15.0215 N   0  0  0  0  0  0  0  0  0  0  0  0
   22.2520   -5.9761  -15.2369 C   0  0  1  0  0  0  0  0  0  0  0  0
   20.7977   -6.3281  -15.4417 C   0  0  0  0  0  0  0  0  0  0  0  0
   19.9846   -5.1288  -15.6621 C   0  0  0  0  0  0  0  0  0  0  0  0
   20.2312   -4.3407  -16.5800 O   0  0  0  0  0  0  0  0  0  0  0  0
   22.3270   -5.0308  -14.1103 C   0  0  0  0  0  0  0  0  0  0  0  0
   21.8017   -3.7605  -14.2650 O   0  0  0  0  0  0  0  0  0  0  0  0
   18.8960   -4.8409  -14.8299 O   0  0  0  0  0  0  0  0  0  0  0  0
   22.8505   -5.3223  -13.0037 O   0  0  0  0  0  0  0  0  0  0  0  0
  2  1  1  1
  3  4  1  0
  3  2  1  0
  4  5  1  0
  5  6  2  0
  5  9  1  0
  7  8  2  0
  7  2  1  0
 10  7  1  0
 11 10  1  0
 11 14  1  0
 11 12  1  6
 13 12  1  0
 14 16  1  0
 15 14  2  0
 16 17  1  0
 17 21  1  0
 17 18  1  1
 19 18  1  0
 20 19  2  0
 21 24  2  0
 21 22  1  0
 23 19  1  0
M  END
$$$$
