ECD.pdb
     RDKit          3D

 24 23  0  0  1  0  0  0  0  0999 V2000
   23.9357  -11.1403  -16.6341 N   0  0  0  0  0  0  0  0  0  0  0  0
   23.9335   -9.6595  -16.6758 C   0  0  1  0  0  0  0  0  0  0  0  0
   24.1079   -9.2120  -18.1040 C   0  0  0  0  0  0  0  0  0  0  0  0
   25.5292   -9.3536  -18.5437 C   0  0  0  0  0  0  0  0  0  0  0  0
   26.3587   -8.1813  -18.1410 C   0  0  0  0  0  0  0  0  0  0  0  0
   27.6089   -8.2067  -18.3291 O   0  0  0  0  0  0  0  0  0  0  0  0
   22.6750   -9.2269  -16.0422 C   0  0  0  0  0  0  0  0  0  0  0  0
   21.5977   -9.8525  -16.2948 O   0  0  0  0  0  0  0  0  0  0  0  0
   25.8494   -7.0351  -17.5611 O   0  0  0  0  0  0  0  0  0  0  0  0
   22.5370   -8.1421  -15.1409 N   0  0  0  0  0  0  0  0  0  0  0  0
   21.2531   -7.8349  -14.5028 C   0  0  1  0  0  0  0  0  0  0  0  0
   21.3102   -8.3286  -13.0474 C   0  0  0  0  0  0  0  0  0  0  0  0
   19.8688   -7.8104  -12.1153 S   0  0  0  0  0  0  0  0  0  0  0  0
   21.1588   -6.3631  -14.4143 C   0  0  0  0  0  0  0  0  0  0  0  0
   22.0253   -5.7004  -13.8130 O   0  0  0  0  0  0  0  0  0  0  0  0
   20.0778   -5.6324  -15.0095 N   0  0  0  0  0  0  0  0  0  0  0  0
   19.9203   -4.2195  -14.8644 C   0  0  1  0  0  0  0  0  0  0  0  0
   20.3310   -3.5420  -16.1502 C   0  0  0  0  0  0  0  0  0  0  0  0
   20.2654   -2.0829  -16.0288 C   0  0  0  0  0  0  0  0  0  0  0  0
   19.2074   -1.4679  -16.1925 O   0  0  0  0  0  0  0  0  0  0  0  0
   18.5361   -3.8128  -14.5692 C   0  0  0  0  0  0  0  0  0  0  0  0
   18.3031   -2.5468  -14.0624 O   0  0  0  0  0  0  0  0  0  0  0  0
   21.4114   -1.3394  -15.7213 O   0  0  0  0  0  0  0  0  0  0  0  0
   17.5452   -4.5657  -14.7552 O   0  0  0  0  0  0  0  0  0  0  0  0
  2  1  1  6
  3  4  1  0
  3  2  1  0
  4  5  1  0
  5  6  2  0
  5  9  1  0
  7  8  2  0
  7  2  1  0
 10  7  1  0
 11 10  1  0
 11 14  1  0
 11 12  1  1
 13 12  1  0
 14 16  1  0
 15 14  2  0
 16 17  1  0
 17 21  1  0
 17 18  1  6
 19 18  1  0
 20 19  2  0
 21 24  2  0
 21 22  1  0
 23 19  1  0
M  END
$$$$
