ECD.pdb
     RDKit          3D

 24 23  0  0  1  0  0  0  0  0999 V2000
   19.3303  -12.2074  -17.1454 N   0  0  0  0  0  0  0  0  0  0  0  0
   19.5748  -10.8120  -17.5785 C   0  0  1  0  0  0  0  0  0  0  0  0
   18.2602  -10.1837  -17.9627 C   0  0  0  0  0  0  0  0  0  0  0  0
   17.7553  -10.7374  -19.2557 C   0  0  0  0  0  0  0  0  0  0  0  0
   16.6926  -11.7632  -19.0478 C   0  0  0  0  0  0  0  0  0  0  0  0
   15.5204  -11.3961  -18.7476 O   0  0  0  0  0  0  0  0  0  0  0  0
   20.2753  -10.1470  -16.4652 C   0  0  0  0  0  0  0  0  0  0  0  0
   19.8202  -10.2552  -15.2833 O   0  0  0  0  0  0  0  0  0  0  0  0
   16.8979  -13.1248  -19.1623 O   0  0  0  0  0  0  0  0  0  0  0  0
   21.4544   -9.3695  -16.5810 N   0  0  0  0  0  0  0  0  0  0  0  0
   22.1036   -8.7826  -15.4046 C   0  0  1  0  0  0  0  0  0  0  0  0
   23.5787   -9.2175  -15.4034 C   0  0  0  0  0  0  0  0  0  0  0  0
   23.8521  -10.6287  -14.3315 S   0  0  0  0  0  0  0  0  0  0  0  0
   22.1262   -7.3198  -15.6117 C   0  0  0  0  0  0  0  0  0  0  0  0
   22.5777   -6.8283  -16.6635 O   0  0  0  0  0  0  0  0  0  0  0  0
   21.6351   -6.4034  -14.6239 N   0  0  0  0  0  0  0  0  0  0  0  0
   21.7044   -4.9842  -14.7759 C   0  0  1  0  0  0  0  0  0  0  0  0
   20.3214   -4.4501  -15.0637 C   0  0  0  0  0  0  0  0  0  0  0  0
   20.3512   -3.0095  -15.3319 C   0  0  0  0  0  0  0  0  0  0  0  0
   21.3590   -2.4571  -15.7832 O   0  0  0  0  0  0  0  0  0  0  0  0
   22.2088   -4.2919  -13.5781 C   0  0  0  0  0  0  0  0  0  0  0  0
   22.4292   -5.0227  -12.4244 O   0  0  0  0  0  0  0  0  0  0  0  0
   19.2274   -2.2126  -15.0811 O   0  0  0  0  0  0  0  0  0  0  0  0
   22.4510   -3.0574  -13.5501 O   0  0  0  0  0  0  0  0  0  0  0  0
  2  1  1  1
  3  4  1  0
  3  2  1  0
  4  5  1  0
  5  6  2  0
  5  9  1  0
  7  8  2  0
  7  2  1  0
 10  7  1  0
 11 10  1  0
 11 14  1  0
 11 12  1  6
 13 12  1  0
 14 16  1  0
 15 14  2  0
 16 17  1  0
 17 21  1  0
 17 18  1  1
 19 18  1  0
 20 19  2  0
 21 24  2  0
 21 22  1  0
 23 19  1  0
M  END
$$$$
