ECD.pdb
     RDKit          3D

 24 23  0  0  1  0  0  0  0  0999 V2000
   20.8838  -10.3641  -19.2430 N   0  0  0  0  0  0  0  0  0  0  0  0
   19.7373   -9.9648  -18.3942 C   0  0  1  0  0  0  0  0  0  0  0  0
   18.7864  -11.1282  -18.2810 C   0  0  0  0  0  0  0  0  0  0  0  0
   19.2685  -12.2981  -19.0763 C   0  0  0  0  0  0  0  0  0  0  0  0
   19.1568  -13.5760  -18.3153 C   0  0  0  0  0  0  0  0  0  0  0  0
   20.1773  -14.0513  -17.7395 O   0  0  0  0  0  0  0  0  0  0  0  0
   20.3064   -9.5056  -17.1146 C   0  0  0  0  0  0  0  0  0  0  0  0
   19.5442   -9.3457  -16.1099 O   0  0  0  0  0  0  0  0  0  0  0  0
   17.9876  -14.3013  -18.1875 O   0  0  0  0  0  0  0  0  0  0  0  0
   21.6731   -9.2144  -16.8781 N   0  0  0  0  0  0  0  0  0  0  0  0
   22.1388   -8.7307  -15.5747 C   0  0  1  0  0  0  0  0  0  0  0  0
   23.5561   -9.2787  -15.3379 C   0  0  0  0  0  0  0  0  0  0  0  0
   23.6739  -10.1597  -13.7806 S   0  0  0  0  0  0  0  0  0  0  0  0
   22.2991   -7.2666  -15.6924 C   0  0  0  0  0  0  0  0  0  0  0  0
   23.0571   -6.7715  -16.5478 O   0  0  0  0  0  0  0  0  0  0  0  0
   21.5979   -6.3529  -14.8378 N   0  0  0  0  0  0  0  0  0  0  0  0
   21.7416   -4.9342  -14.9302 C   0  0  1  0  0  0  0  0  0  0  0  0
   20.3718   -4.3029  -15.0073 C   0  0  0  0  0  0  0  0  0  0  0  0
   19.7494   -4.5369  -16.3134 C   0  0  0  0  0  0  0  0  0  0  0  0
   20.4272   -4.6873  -17.3344 O   0  0  0  0  0  0  0  0  0  0  0  0
   22.4412   -4.3410  -13.7782 C   0  0  0  0  0  0  0  0  0  0  0  0
   22.7218   -5.1368  -12.6820 O   0  0  0  0  0  0  0  0  0  0  0  0
   18.3562   -4.5965  -16.4406 O   0  0  0  0  0  0  0  0  0  0  0  0
   22.7993   -3.1353  -13.7394 O   0  0  0  0  0  0  0  0  0  0  0  0
  2  1  1  6
  3  4  1  0
  3  2  1  0
  4  5  1  0
  5  6  2  0
  5  9  1  0
  7  8  2  0
  7  2  1  0
 10  7  1  0
 11 10  1  0
 11 14  1  0
 11 12  1  6
 13 12  1  0
 14 16  1  0
 15 14  2  0
 16 17  1  0
 17 21  1  0
 17 18  1  1
 19 18  1  0
 20 19  2  0
 21 24  2  0
 21 22  1  0
 23 19  1  0
M  END
$$$$
