ECD.pdb
     RDKit          3D

 24 23  0  0  1  0  0  0  0  0999 V2000
   18.0820  -10.7413  -14.1648 N   0  0  0  0  0  0  0  0  0  0  0  0
   18.3356   -9.7731  -15.2570 C   0  0  1  0  0  0  0  0  0  0  0  0
   17.0397   -9.4979  -15.9748 C   0  0  0  0  0  0  0  0  0  0  0  0
   16.8793  -10.3934  -17.1605 C   0  0  0  0  0  0  0  0  0  0  0  0
   15.6535  -10.0680  -17.9454 C   0  0  0  0  0  0  0  0  0  0  0  0
   15.0582  -10.9840  -18.5823 O   0  0  0  0  0  0  0  0  0  0  0  0
   18.9577   -8.5926  -14.6311 C   0  0  0  0  0  0  0  0  0  0  0  0
   18.5170   -8.1673  -13.5172 O   0  0  0  0  0  0  0  0  0  0  0  0
   15.1021   -8.8039  -18.0316 O   0  0  0  0  0  0  0  0  0  0  0  0
   20.0434   -7.8538  -15.1637 N   0  0  0  0  0  0  0  0  0  0  0  0
   20.5654   -6.6630  -14.4861 C   0  0  1  0  0  0  0  0  0  0  0  0
   22.0974   -6.7806  -14.4211 C   0  0  0  0  0  0  0  0  0  0  0  0
   22.8499   -5.2847  -13.7797 S   0  0  0  0  0  0  0  0  0  0  0  0
   20.2978   -5.5122  -15.3732 C   0  0  0  0  0  0  0  0  0  0  0  0
   20.3475   -5.6327  -16.6120 O   0  0  0  0  0  0  0  0  0  0  0  0
   19.9708   -4.2141  -14.8585 N   0  0  0  0  0  0  0  0  0  0  0  0
   19.5785   -3.1221  -15.6926 C   0  0  1  0  0  0  0  0  0  0  0  0
   18.2950   -3.4799  -16.4036 C   0  0  0  0  0  0  0  0  0  0  0  0
   17.8623   -2.4023  -17.2977 C   0  0  0  0  0  0  0  0  0  0  0  0
   18.5273   -1.3711  -17.4357 O   0  0  0  0  0  0  0  0  0  0  0  0
   19.3423   -1.8735  -14.9486 C   0  0  0  0  0  0  0  0  0  0  0  0
   19.0376   -0.7217  -15.6517 O   0  0  0  0  0  0  0  0  0  0  0  0
   16.6718   -2.5131  -18.0265 O   0  0  0  0  0  0  0  0  0  0  0  0
   19.4051   -1.8000  -13.6940 O   0  0  0  0  0  0  0  0  0  0  0  0
  2  1  1  1
  3  4  1  0
  3  2  1  0
  4  5  1  0
  5  6  2  0
  5  9  1  0
  7  8  2  0
  7  2  1  0
 10  7  1  0
 11 10  1  0
 11 14  1  0
 11 12  1  6
 13 12  1  0
 14 16  1  0
 15 14  2  0
 16 17  1  0
 17 21  1  0
 17 18  1  1
 19 18  1  0
 20 19  2  0
 21 24  2  0
 21 22  1  0
 23 19  1  0
M  END
$$$$
