ECD.pdb
     RDKit          3D

 24 23  0  0  1  0  0  0  0  0999 V2000
   17.4422  -13.4946  -16.7179 N   0  0  0  0  0  0  0  0  0  0  0  0
   17.1955  -12.1020  -16.2770 C   0  0  1  0  0  0  0  0  0  0  0  0
   16.0540  -12.0973  -15.2934 C   0  0  0  0  0  0  0  0  0  0  0  0
   14.7446  -12.2947  -15.9861 C   0  0  0  0  0  0  0  0  0  0  0  0
   13.6107  -12.3912  -15.0218 C   0  0  0  0  0  0  0  0  0  0  0  0
   12.4484  -12.6484  -15.4483 O   0  0  0  0  0  0  0  0  0  0  0  0
   18.4744  -11.6020  -15.7414 C   0  0  0  0  0  0  0  0  0  0  0  0
   19.3211  -12.4239  -15.2687 O   0  0  0  0  0  0  0  0  0  0  0  0
   13.7379  -12.2161  -13.6571 O   0  0  0  0  0  0  0  0  0  0  0  0
   18.8751  -10.2433  -15.6998 N   0  0  0  0  0  0  0  0  0  0  0  0
   20.2132   -9.8530  -15.2446 C   0  0  1  0  0  0  0  0  0  0  0  0
   21.2460  -10.4850  -16.1928 C   0  0  0  0  0  0  0  0  0  0  0  0
   22.9162   -9.9724  -15.7891 S   0  0  0  0  0  0  0  0  0  0  0  0
   20.3294   -8.3950  -15.4538 C   0  0  0  0  0  0  0  0  0  0  0  0
   19.8674   -7.8554  -16.4770 O   0  0  0  0  0  0  0  0  0  0  0  0
   20.9722   -7.5380  -14.5003 N   0  0  0  0  0  0  0  0  0  0  0  0
   21.1380   -6.1333  -14.7036 C   0  0  1  0  0  0  0  0  0  0  0  0
   21.2910   -5.4548  -13.3630 C   0  0  0  0  0  0  0  0  0  0  0  0
   21.4301   -4.0035  -13.5127 C   0  0  0  0  0  0  0  0  0  0  0  0
   20.4787   -3.2952  -13.8555 O   0  0  0  0  0  0  0  0  0  0  0  0
   22.3217   -5.7951  -15.5116 C   0  0  0  0  0  0  0  0  0  0  0  0
   22.2904   -4.6623  -16.3050 O   0  0  0  0  0  0  0  0  0  0  0  0
   22.6572   -3.3745  -13.2690 O   0  0  0  0  0  0  0  0  0  0  0  0
   23.3699   -6.4914  -15.5179 O   0  0  0  0  0  0  0  0  0  0  0  0
  2  1  1  1
  3  4  1  0
  3  2  1  0
  4  5  1  0
  5  6  2  0
  5  9  1  0
  7  8  2  0
  7  2  1  0
 10  7  1  0
 11 10  1  0
 11 14  1  0
 11 12  1  6
 13 12  1  0
 14 16  1  0
 15 14  2  0
 16 17  1  0
 17 21  1  0
 17 18  1  1
 19 18  1  0
 20 19  2  0
 21 24  2  0
 21 22  1  0
 23 19  1  0
M  END
$$$$
