ECD.pdb
     RDKit          3D

 24 23  0  0  1  0  0  0  0  0999 V2000
   24.9470  -10.4159  -19.0484 N   0  0  0  0  0  0  0  0  0  0  0  0
   23.5580   -9.9872  -19.3334 C   0  0  1  0  0  0  0  0  0  0  0  0
   22.8109  -11.1382  -19.9558 C   0  0  0  0  0  0  0  0  0  0  0  0
   23.7344  -12.0296  -20.7213 C   0  0  0  0  0  0  0  0  0  0  0  0
   23.0038  -13.1320  -21.4110 C   0  0  0  0  0  0  0  0  0  0  0  0
   22.6721  -14.1643  -20.7604 O   0  0  0  0  0  0  0  0  0  0  0  0
   23.0000   -9.5070  -18.0565 C   0  0  0  0  0  0  0  0  0  0  0  0
   21.7928   -9.1117  -18.0082 O   0  0  0  0  0  0  0  0  0  0  0  0
   22.6509  -13.1099  -22.7468 O   0  0  0  0  0  0  0  0  0  0  0  0
   23.6987   -9.4405  -16.8254 N   0  0  0  0  0  0  0  0  0  0  0  0
   23.0221   -9.0652  -15.5799 C   0  0  1  0  0  0  0  0  0  0  0  0
   23.7645   -9.7329  -14.4103 C   0  0  0  0  0  0  0  0  0  0  0  0
   23.6848  -11.5215  -14.5101 S   0  0  0  0  0  0  0  0  0  0  0  0
   23.2301   -7.6136  -15.3988 C   0  0  0  0  0  0  0  0  0  0  0  0
   24.2832   -7.0652  -15.7752 O   0  0  0  0  0  0  0  0  0  0  0  0
   22.2414   -6.7733  -14.7881 N   0  0  0  0  0  0  0  0  0  0  0  0
   22.3330   -5.3473  -14.7740 C   0  0  1  0  0  0  0  0  0  0  0  0
   22.4282   -4.8443  -16.1949 C   0  0  0  0  0  0  0  0  0  0  0  0
   22.5693   -3.3861  -16.2361 C   0  0  0  0  0  0  0  0  0  0  0  0
   21.5905   -2.6394  -16.1411 O   0  0  0  0  0  0  0  0  0  0  0  0
   21.1723   -4.6930  -14.1469 C   0  0  0  0  0  0  0  0  0  0  0  0
   21.2977   -3.3895  -13.7009 O   0  0  0  0  0  0  0  0  0  0  0  0
   23.8293   -2.7941  -16.3860 O   0  0  0  0  0  0  0  0  0  0  0  0
   20.0621   -5.2650  -13.9936 O   0  0  0  0  0  0  0  0  0  0  0  0
  2  1  1  1
  3  4  1  0
  3  2  1  0
  4  5  1  0
  5  6  2  0
  5  9  1  0
  7  8  2  0
  7  2  1  0
 10  7  1  0
 11 10  1  0
 11 14  1  0
 11 12  1  1
 13 12  1  0
 14 16  1  0
 15 14  2  0
 16 17  1  0
 17 21  1  0
 17 18  1  6
 19 18  1  0
 20 19  2  0
 21 24  2  0
 21 22  1  0
 23 19  1  0
M  END
$$$$
