ECD.pdb
     RDKit          3D

 24 23  0  0  1  0  0  0  0  0999 V2000
   20.3216  -11.8224  -16.1376 N   0  0  0  0  0  0  0  0  0  0  0  0
   20.5942  -10.5849  -16.9050 C   0  0  1  0  0  0  0  0  0  0  0  0
   19.6381  -10.5118  -18.0673 C   0  0  0  0  0  0  0  0  0  0  0  0
   20.0250  -11.4721  -19.1451 C   0  0  0  0  0  0  0  0  0  0  0  0
   19.1271  -11.3724  -20.3318 C   0  0  0  0  0  0  0  0  0  0  0  0
   19.4723  -10.6604  -21.3182 O   0  0  0  0  0  0  0  0  0  0  0  0
   20.4888   -9.4694  -15.9475 C   0  0  0  0  0  0  0  0  0  0  0  0
   19.4977   -9.4152  -15.1534 O   0  0  0  0  0  0  0  0  0  0  0  0
   17.9104  -12.0187  -20.4386 O   0  0  0  0  0  0  0  0  0  0  0  0
   21.4186   -8.4083  -15.8134 N   0  0  0  0  0  0  0  0  0  0  0  0
   21.2097   -7.3241  -14.8487 C   0  0  1  0  0  0  0  0  0  0  0  0
   22.4494   -7.2429  -13.9421 C   0  0  0  0  0  0  0  0  0  0  0  0
   22.4392   -5.7574  -12.9379 S   0  0  0  0  0  0  0  0  0  0  0  0
   21.2021   -6.0618  -15.6165 C   0  0  0  0  0  0  0  0  0  0  0  0
   22.1399   -5.7724  -16.3835 O   0  0  0  0  0  0  0  0  0  0  0  0
   20.1270   -5.1176  -15.5185 N   0  0  0  0  0  0  0  0  0  0  0  0
   20.0924   -3.8973  -16.2612 C   0  0  1  0  0  0  0  0  0  0  0  0
   18.6541   -3.4877  -16.4717 C   0  0  0  0  0  0  0  0  0  0  0  0
   18.5601   -2.2602  -17.2669 C   0  0  0  0  0  0  0  0  0  0  0  0
   19.5660   -1.7028  -17.7162 O   0  0  0  0  0  0  0  0  0  0  0  0
   20.7788   -2.7827  -15.5868 C   0  0  0  0  0  0  0  0  0  0  0  0
   21.2652   -2.9718  -14.3057 O   0  0  0  0  0  0  0  0  0  0  0  0
   17.3155   -1.6802  -17.5412 O   0  0  0  0  0  0  0  0  0  0  0  0
   20.9460   -1.6558  -16.1213 O   0  0  0  0  0  0  0  0  0  0  0  0
  2  1  1  1
  3  4  1  0
  3  2  1  0
  4  5  1  0
  5  6  2  0
  5  9  1  0
  7  8  2  0
  7  2  1  0
 10  7  1  0
 11 10  1  0
 11 14  1  0
 11 12  1  1
 13 12  1  0
 14 16  1  0
 15 14  2  0
 16 17  1  0
 17 21  1  0
 17 18  1  1
 19 18  1  0
 20 19  2  0
 21 24  2  0
 21 22  1  0
 23 19  1  0
M  END
$$$$
