ECD.pdb
     RDKit          3D

 24 23  0  0  1  0  0  0  0  0999 V2000
   24.7158  -13.6325  -18.2193 N   0  0  0  0  0  0  0  0  0  0  0  0
   23.8236  -12.4725  -18.4491 C   0  0  1  0  0  0  0  0  0  0  0  0
   22.4198  -12.9736  -18.6697 C   0  0  0  0  0  0  0  0  0  0  0  0
   22.3174  -13.7470  -19.9445 C   0  0  0  0  0  0  0  0  0  0  0  0
   20.9275  -14.2246  -20.1988 C   0  0  0  0  0  0  0  0  0  0  0  0
   20.6953  -14.9692  -21.1941 O   0  0  0  0  0  0  0  0  0  0  0  0
   23.9865  -11.5845  -17.2841 C   0  0  0  0  0  0  0  0  0  0  0  0
   23.5365  -11.9460  -16.1515 O   0  0  0  0  0  0  0  0  0  0  0  0
   19.8420  -13.9060  -19.4054 O   0  0  0  0  0  0  0  0  0  0  0  0
   24.6219  -10.3178  -17.2963 N   0  0  0  0  0  0  0  0  0  0  0  0
   24.7514   -9.5140  -16.0768 C   0  0  1  0  0  0  0  0  0  0  0  0
   26.2386   -9.1751  -15.8811 C   0  0  0  0  0  0  0  0  0  0  0  0
   27.1816  -10.6088  -15.3610 S   0  0  0  0  0  0  0  0  0  0  0  0
   24.0863   -8.2216  -16.3418 C   0  0  0  0  0  0  0  0  0  0  0  0
   23.9931   -7.7744  -17.5006 O   0  0  0  0  0  0  0  0  0  0  0  0
   23.5211   -7.4267  -15.2904 N   0  0  0  0  0  0  0  0  0  0  0  0
   22.8324   -6.1973  -15.5282 C   0  0  1  0  0  0  0  0  0  0  0  0
   21.6068   -6.4720  -16.3668 C   0  0  0  0  0  0  0  0  0  0  0  0
   20.8750   -5.2369  -16.6622 C   0  0  0  0  0  0  0  0  0  0  0  0
   21.3441   -4.3701  -17.4059 O   0  0  0  0  0  0  0  0  0  0  0  0
   22.3870   -5.5285  -14.2943 C   0  0  0  0  0  0  0  0  0  0  0  0
   21.9376   -4.2220  -14.3647 O   0  0  0  0  0  0  0  0  0  0  0  0
   19.6123   -5.0037  -16.1039 O   0  0  0  0  0  0  0  0  0  0  0  0
   22.3953   -6.0898  -13.1681 O   0  0  0  0  0  0  0  0  0  0  0  0
  2  1  1  1
  3  4  1  0
  3  2  1  0
  4  5  1  0
  5  6  2  0
  5  9  1  0
  7  8  2  0
  7  2  1  0
 10  7  1  0
 11 10  1  0
 11 14  1  0
 11 12  1  6
 13 12  1  0
 14 16  1  0
 15 14  2  0
 16 17  1  0
 17 21  1  0
 17 18  1  6
 19 18  1  0
 20 19  2  0
 21 24  2  0
 21 22  1  0
 23 19  1  0
M  END
$$$$
