WEA.pdb
     RDKit          3D

 29 30  0  0  1  0  0  0  0  0999 V2000
    6.4794  -17.2675   23.7862 N   0  0  0  0  0  0  0  0  0  0  0  0
    7.6976  -16.6313   24.0976 C   0  0  1  0  0  0  0  0  0  0  0  0
    7.7882  -16.1279   25.5107 C   0  0  0  0  0  0  0  0  0  0  0  0
    6.9020  -14.9606   25.7934 C   0  0  0  0  0  0  0  0  0  0  0  0
    5.5595  -15.0363   26.1204 C   0  0  0  0  0  0  0  0  0  0  0  0
    5.1254  -13.7887   26.2776 N   0  0  0  0  0  0  0  0  0  0  0  0
    6.1141  -12.8858   26.0713 C   0  0  0  0  0  0  0  0  0  0  0  0
    6.1005  -11.5076   26.1364 C   0  0  0  0  0  0  0  0  0  0  0  0
    7.2945  -10.8571   25.8768 C   0  0  0  0  0  0  0  0  0  0  0  0
    8.4303  -11.5728   25.5700 C   0  0  0  0  0  0  0  0  0  0  0  0
    8.4139  -12.9397   25.5123 C   0  0  0  0  0  0  0  0  0  0  0  0
    7.2210  -13.6233   25.7698 C   0  0  0  0  0  0  0  0  0  0  0  0
    8.9025  -17.4033   23.7006 C   0  0  0  0  0  0  0  0  0  0  0  0
    8.9677  -18.6300   23.5859 O   0  0  0  0  0  0  0  0  0  0  0  0
   10.0695  -16.6476   23.4357 N   0  0  0  0  0  0  0  0  0  0  0  0
   11.4044  -17.2859   23.2510 C   0  0  1  0  0  0  0  0  0  0  0  0
   12.2515  -16.4140   22.4505 C   0  0  0  0  0  0  0  0  0  0  0  0
   13.6244  -16.8427   22.1254 C   0  0  0  0  0  0  0  0  0  0  0  0
   13.8337  -17.5982   20.8869 C   0  0  0  0  0  0  0  0  0  0  0  0
   13.8479  -18.8486   20.8964 O   0  0  0  0  0  0  0  0  0  0  0  0
   11.7969  -17.7260   24.5620 C   0  0  0  0  0  0  0  0  0  0  0  0
   12.1984  -16.8571   25.4250 O   0  0  0  0  0  0  0  0  0  0  0  0
   14.0273  -16.9700   19.6523 O   0  0  0  0  0  0  0  0  0  0  0  0
   11.8706  -20.7129   26.8882 C   0  0  0  0  0  0  0  0  0  0  0  0
   12.3411  -19.3313   26.4242 C   0  0  2  0  0  0  0  0  0  0  0  0
   11.7946  -19.0603   25.0918 N   0  0  0  0  0  0  0  0  0  0  0  0
   13.7928  -19.2386   26.4080 C   0  0  0  0  0  0  0  0  0  0  0  0
   14.4468  -19.0962   27.4524 O   0  0  0  0  0  0  0  0  0  0  0  0
   14.4882  -19.3072   25.2158 O   0  0  0  0  0  0  0  0  0  0  0  0
  2  1  1  1
  2 13  1  0
  2  3  1  0
  3  4  1  0
  4 12  1  0
  5  4  2  0
  5  6  1  0
  6  7  1  0
  7  8  1  0
  8  9  2  0
 10  9  1  0
 11 10  2  0
 12  7  2  0
 12 11  1  0
 13 15  1  0
 14 13  2  0
 15 16  1  0
 16 17  1  1
 17 18  1  0
 19 20  2  0
 19 18  1  0
 21 22  2  0
 21 16  1  0
 23 19  1  0
 25 24  1  6
 25 27  1  0
 25 26  1  0
 26 21  1  0
 27 29  1  0
 28 27  2  0
M  END
$$$$
