WEA.pdb
     RDKit          3D

 29 30  0  0  1  0  0  0  0  0999 V2000
    7.6380  -15.5080   20.5003 N   0  0  0  0  0  0  0  0  0  0  0  0
    7.7796  -15.3067   21.8879 C   0  0  1  0  0  0  0  0  0  0  0  0
    6.4863  -15.0543   22.6106 C   0  0  0  0  0  0  0  0  0  0  0  0
    6.6470  -14.8435   24.0794 C   0  0  0  0  0  0  0  0  0  0  0  0
    6.6550  -15.8445   25.0350 C   0  0  0  0  0  0  0  0  0  0  0  0
    6.8021  -15.2534   26.2176 N   0  0  0  0  0  0  0  0  0  0  0  0
    6.8927  -13.9073   26.0959 C   0  0  0  0  0  0  0  0  0  0  0  0
    7.0553  -12.9272   27.0534 C   0  0  0  0  0  0  0  0  0  0  0  0
    7.1220  -11.6193   26.6050 C   0  0  0  0  0  0  0  0  0  0  0  0
    7.0279  -11.3333   25.2613 C   0  0  0  0  0  0  0  0  0  0  0  0
    6.8665  -12.3264   24.3339 C   0  0  0  0  0  0  0  0  0  0  0  0
    6.7957  -13.6572   24.7587 C   0  0  0  0  0  0  0  0  0  0  0  0
    8.6085  -16.3347   22.5672 C   0  0  0  0  0  0  0  0  0  0  0  0
    8.3548  -17.5405   22.6289 O   0  0  0  0  0  0  0  0  0  0  0  0
    9.7893  -15.8705   23.1945 N   0  0  0  0  0  0  0  0  0  0  0  0
   10.8309  -16.8018   23.7154 C   0  0  1  0  0  0  0  0  0  0  0  0
   12.1365  -16.3962   23.2161 C   0  0  0  0  0  0  0  0  0  0  0  0
   13.3313  -17.1620   23.6166 C   0  0  0  0  0  0  0  0  0  0  0  0
   14.6306  -16.7343   23.0901 C   0  0  0  0  0  0  0  0  0  0  0  0
   15.6928  -17.2114   23.5461 O   0  0  0  0  0  0  0  0  0  0  0  0
   10.5625  -16.9192   25.1227 C   0  0  0  0  0  0  0  0  0  0  0  0
   10.5250  -15.8549   25.8485 O   0  0  0  0  0  0  0  0  0  0  0  0
   14.7473  -15.7849   22.0696 O   0  0  0  0  0  0  0  0  0  0  0  0
    9.2854  -19.1397   27.8512 C   0  0  0  0  0  0  0  0  0  0  0  0
   10.2427  -18.0558   27.3469 C   0  0  2  0  0  0  0  0  0  0  0  0
   10.2990  -18.1079   25.8835 N   0  0  0  0  0  0  0  0  0  0  0  0
   11.5732  -18.2118   27.9139 C   0  0  0  0  0  0  0  0  0  0  0  0
   12.5580  -18.4620   27.2023 O   0  0  0  0  0  0  0  0  0  0  0  0
   11.7766  -18.0842   29.2748 O   0  0  0  0  0  0  0  0  0  0  0  0
  2  1  1  6
  2 13  1  0
  2  3  1  0
  3  4  1  0
  4 12  1  0
  5  4  2  0
  5  6  1  0
  6  7  1  0
  7  8  1  0
  8  9  2  0
 10  9  1  0
 11 10  2  0
 12  7  2  0
 12 11  1  0
 13 15  1  0
 14 13  2  0
 15 16  1  0
 16 17  1  1
 17 18  1  0
 19 20  2  0
 19 18  1  0
 21 22  2  0
 21 16  1  0
 23 19  1  0
 25 24  1  1
 25 27  1  0
 25 26  1  0
 26 21  1  0
 27 29  1  0
 28 27  2  0
M  END
$$$$
