WEA.pdb
     RDKit          3D

 29 30  0  0  1  0  0  0  0  0999 V2000
    6.5867  -17.4037   24.4581 N   0  0  0  0  0  0  0  0  0  0  0  0
    7.7539  -16.6892   24.1221 C   0  0  1  0  0  0  0  0  0  0  0  0
    8.2316  -15.7480   25.1920 C   0  0  0  0  0  0  0  0  0  0  0  0
    7.1899  -14.7863   25.6587 C   0  0  0  0  0  0  0  0  0  0  0  0
    5.9364  -15.1325   26.1321 C   0  0  0  0  0  0  0  0  0  0  0  0
    5.3048  -13.9997   26.4281 N   0  0  0  0  0  0  0  0  0  0  0  0
    6.0771  -12.9159   26.1748 C   0  0  0  0  0  0  0  0  0  0  0  0
    5.8198  -11.5705   26.3404 C   0  0  0  0  0  0  0  0  0  0  0  0
    6.8317  -10.6924   25.9924 C   0  0  0  0  0  0  0  0  0  0  0  0
    8.0310  -11.1625   25.5057 C   0  0  0  0  0  0  0  0  0  0  0  0
    8.2580  -12.5030   25.3517 C   0  0  0  0  0  0  0  0  0  0  0  0
    7.2530  -13.4132   25.6951 C   0  0  0  0  0  0  0  0  0  0  0  0
    8.8518  -17.5376   23.5927 C   0  0  0  0  0  0  0  0  0  0  0  0
    9.0057  -18.7409   23.8172 O   0  0  0  0  0  0  0  0  0  0  0  0
    9.7956  -16.8902   22.7600 N   0  0  0  0  0  0  0  0  0  0  0  0
   11.2189  -17.3280   22.6827 C   0  0  1  0  0  0  0  0  0  0  0  0
   11.8429  -16.7408   21.5061 C   0  0  0  0  0  0  0  0  0  0  0  0
   13.2551  -17.0457   21.2110 C   0  0  0  0  0  0  0  0  0  0  0  0
   13.5803  -17.5842   19.8872 C   0  0  0  0  0  0  0  0  0  0  0  0
   13.0974  -18.6722   19.5042 O   0  0  0  0  0  0  0  0  0  0  0  0
   11.7496  -17.1217   24.0027 C   0  0  0  0  0  0  0  0  0  0  0  0
   12.8853  -16.5282   24.1400 O   0  0  0  0  0  0  0  0  0  0  0  0
   14.4347  -16.9210   19.0002 O   0  0  0  0  0  0  0  0  0  0  0  0
   11.2058  -16.2469   27.3701 C   0  0  0  0  0  0  0  0  0  0  0  0
   11.9160  -17.2957   26.5092 C   0  0  2  0  0  0  0  0  0  0  0  0
   11.1664  -17.4824   25.2639 N   0  0  0  0  0  0  0  0  0  0  0  0
   12.0558  -18.5604   27.2144 C   0  0  0  0  0  0  0  0  0  0  0  0
   11.5423  -19.6046   26.7846 O   0  0  0  0  0  0  0  0  0  0  0  0
   12.7717  -18.6318   28.3942 O   0  0  0  0  0  0  0  0  0  0  0  0
  2  1  1  1
  2 13  1  0
  2  3  1  0
  3  4  1  0
  4 12  1  0
  5  4  2  0
  5  6  1  0
  6  7  1  0
  7  8  1  0
  8  9  2  0
 10  9  1  0
 11 10  2  0
 12  7  2  0
 12 11  1  0
 13 15  1  0
 14 13  2  0
 15 16  1  0
 16 17  1  6
 17 18  1  0
 19 20  2  0
 19 18  1  0
 21 22  2  0
 21 16  1  0
 23 19  1  0
 25 24  1  1
 25 27  1  0
 25 26  1  0
 26 21  1  0
 27 29  1  0
 28 27  2  0
M  END
$$$$
