WEA.pdb
     RDKit          3D

 29 30  0  0  1  0  0  0  0  0999 V2000
    7.6150  -17.1750   23.6835 N   0  0  0  0  0  0  0  0  0  0  0  0
    8.6823  -16.2575   23.6124 C   0  0  1  0  0  0  0  0  0  0  0  0
    8.9930  -15.5694   24.9119 C   0  0  0  0  0  0  0  0  0  0  0  0
    7.8070  -14.9316   25.5556 C   0  0  0  0  0  0  0  0  0  0  0  0
    6.7301  -15.6105   26.0985 C   0  0  0  0  0  0  0  0  0  0  0  0
    5.8809  -14.6936   26.5545 N   0  0  0  0  0  0  0  0  0  0  0  0
    6.3402  -13.4370   26.3417 C   0  0  0  0  0  0  0  0  0  0  0  0
    5.7876  -12.2127   26.6569 C   0  0  0  0  0  0  0  0  0  0  0  0
    6.5174  -11.0888   26.3101 C   0  0  0  0  0  0  0  0  0  0  0  0
    7.7359  -11.2112   25.6802 C   0  0  0  0  0  0  0  0  0  0  0  0
    8.2593  -12.4391   25.3795 C   0  0  0  0  0  0  0  0  0  0  0  0
    7.5433  -13.5919   25.7181 C   0  0  0  0  0  0  0  0  0  0  0  0
    9.9021  -16.7972   22.9597 C   0  0  0  0  0  0  0  0  0  0  0  0
   10.3785  -17.9211   23.1383 O   0  0  0  0  0  0  0  0  0  0  0  0
   10.5633  -15.9303   22.0572 N   0  0  0  0  0  0  0  0  0  0  0  0
   11.8546  -16.2952   21.4069 C   0  0  1  0  0  0  0  0  0  0  0  0
   12.1077  -15.3932   20.2929 C   0  0  0  0  0  0  0  0  0  0  0  0
   13.4171  -15.4333   19.6159 C   0  0  0  0  0  0  0  0  0  0  0  0
   13.6192  -14.5586   18.4573 C   0  0  0  0  0  0  0  0  0  0  0  0
   13.5331  -15.0095   17.2941 O   0  0  0  0  0  0  0  0  0  0  0  0
   12.7918  -16.4451   22.4866 C   0  0  0  0  0  0  0  0  0  0  0  0
   12.8904  -15.5121   23.3702 O   0  0  0  0  0  0  0  0  0  0  0  0
   13.9159  -13.1983   18.5910 O   0  0  0  0  0  0  0  0  0  0  0  0
   14.8796  -18.9238   24.3704 C   0  0  0  0  0  0  0  0  0  0  0  0
   14.5985  -17.4969   23.8903 C   0  0  2  0  0  0  0  0  0  0  0  0
   13.6738  -17.5458   22.7546 N   0  0  0  0  0  0  0  0  0  0  0  0
   15.8241  -16.8063   23.5202 C   0  0  0  0  0  0  0  0  0  0  0  0
   16.6185  -16.3878   24.3762 O   0  0  0  0  0  0  0  0  0  0  0  0
   16.1384  -16.5960   22.1910 O   0  0  0  0  0  0  0  0  0  0  0  0
  2  1  1  1
  2 13  1  0
  2  3  1  0
  3  4  1  0
  4 12  1  0
  5  4  2  0
  5  6  1  0
  6  7  1  0
  7  8  1  0
  8  9  2  0
 10  9  1  0
 11 10  2  0
 12  7  2  0
 12 11  1  0
 13 15  1  0
 14 13  2  0
 15 16  1  0
 16 17  1  6
 17 18  1  0
 19 20  2  0
 19 18  1  0
 21 22  2  0
 21 16  1  0
 23 19  1  0
 25 24  1  6
 25 27  1  0
 25 26  1  0
 26 21  1  0
 27 29  1  0
 28 27  2  0
M  END
$$$$
