WEA.pdb
     RDKit          3D

 29 30  0  0  1  0  0  0  0  0999 V2000
    6.3816  -17.2258   24.8505 N   0  0  0  0  0  0  0  0  0  0  0  0
    7.5642  -16.4679   24.7370 C   0  0  1  0  0  0  0  0  0  0  0  0
    7.7825  -15.4921   25.8590 C   0  0  0  0  0  0  0  0  0  0  0  0
    6.7340  -14.4338   25.9509 C   0  0  0  0  0  0  0  0  0  0  0  0
    5.4465  -14.6225   26.4220 C   0  0  0  0  0  0  0  0  0  0  0  0
    4.8213  -13.4520   26.3276 N   0  0  0  0  0  0  0  0  0  0  0  0
    5.6303  -12.4930   25.8166 C   0  0  0  0  0  0  0  0  0  0  0  0
    5.3912  -11.1586   25.5598 C   0  0  0  0  0  0  0  0  0  0  0  0
    6.4410  -10.4244   25.0352 C   0  0  0  0  0  0  0  0  0  0  0  0
    7.6583  -11.0193   24.7892 C   0  0  0  0  0  0  0  0  0  0  0  0
    7.8665  -12.3456   25.0536 C   0  0  0  0  0  0  0  0  0  0  0  0
    6.8233  -13.1117   25.5838 C   0  0  0  0  0  0  0  0  0  0  0  0
    8.7772  -17.2771   24.4556 C   0  0  0  0  0  0  0  0  0  0  0  0
    8.9244  -18.4727   24.7218 O   0  0  0  0  0  0  0  0  0  0  0  0
    9.8487  -16.5987   23.8272 N   0  0  0  0  0  0  0  0  0  0  0  0
   11.2520  -17.0992   23.8906 C   0  0  1  0  0  0  0  0  0  0  0  0
   11.9877  -16.6262   22.7272 C   0  0  0  0  0  0  0  0  0  0  0  0
   13.4046  -17.0027   22.5682 C   0  0  0  0  0  0  0  0  0  0  0  0
   14.2223  -16.2239   21.6338 C   0  0  0  0  0  0  0  0  0  0  0  0
   15.2160  -15.5810   22.0377 O   0  0  0  0  0  0  0  0  0  0  0  0
   11.6928  -16.8183   25.2297 C   0  0  0  0  0  0  0  0  0  0  0  0
   12.8699  -17.1923   25.5976 O   0  0  0  0  0  0  0  0  0  0  0  0
   13.9368  -16.1592   20.2661 O   0  0  0  0  0  0  0  0  0  0  0  0
   10.8839  -14.8273   28.3367 C   0  0  0  0  0  0  0  0  0  0  0  0
   11.5975  -15.9620   27.5959 C   0  0  2  0  0  0  0  0  0  0  0  0
   10.9872  -16.1313   26.2744 N   0  0  0  0  0  0  0  0  0  0  0  0
   11.5429  -17.2074   28.3457 C   0  0  0  0  0  0  0  0  0  0  0  0
   12.0507  -17.3104   29.4728 O   0  0  0  0  0  0  0  0  0  0  0  0
   10.9176  -18.3199   27.8158 O   0  0  0  0  0  0  0  0  0  0  0  0
  2  1  1  1
  2 13  1  0
  2  3  1  0
  3  4  1  0
  4 12  1  0
  5  4  2  0
  5  6  1  0
  6  7  1  0
  7  8  1  0
  8  9  2  0
 10  9  1  0
 11 10  2  0
 12  7  2  0
 12 11  1  0
 13 15  1  0
 14 13  2  0
 15 16  1  0
 16 17  1  6
 17 18  1  0
 19 20  2  0
 19 18  1  0
 21 22  2  0
 21 16  1  0
 23 19  1  0
 25 24  1  1
 25 27  1  0
 25 26  1  0
 26 21  1  0
 27 29  1  0
 28 27  2  0
M  END
$$$$
