WEA.pdb
     RDKit          3D

 29 30  0  0  1  0  0  0  0  0999 V2000
    6.2879  -17.7418   24.3088 N   0  0  0  0  0  0  0  0  0  0  0  0
    7.5091  -17.0654   24.1164 C   0  0  1  0  0  0  0  0  0  0  0  0
    7.9764  -16.2824   25.3111 C   0  0  0  0  0  0  0  0  0  0  0  0
    7.0567  -15.1745   25.7039 C   0  0  0  0  0  0  0  0  0  0  0  0
    5.7911  -15.3376   26.2396 C   0  0  0  0  0  0  0  0  0  0  0  0
    5.2908  -14.1206   26.4355 N   0  0  0  0  0  0  0  0  0  0  0  0
    6.1621  -13.1550   26.0564 C   0  0  0  0  0  0  0  0  0  0  0  0
    6.0514  -11.7801   26.0923 C   0  0  0  0  0  0  0  0  0  0  0  0
    7.1362  -11.0528   25.6339 C   0  0  0  0  0  0  0  0  0  0  0  0
    8.2629  -11.6930   25.1681 C   0  0  0  0  0  0  0  0  0  0  0  0
    8.3444  -13.0587   25.1439 C   0  0  0  0  0  0  0  0  0  0  0  0
    7.2629  -13.8189   25.6008 C   0  0  0  0  0  0  0  0  0  0  0  0
    8.5873  -17.9128   23.5465 C   0  0  0  0  0  0  0  0  0  0  0  0
    8.8024  -19.0940   23.8302 O   0  0  0  0  0  0  0  0  0  0  0  0
    9.4332  -17.2922   22.5964 N   0  0  0  0  0  0  0  0  0  0  0  0
   10.8472  -17.7196   22.3929 C   0  0  1  0  0  0  0  0  0  0  0  0
   11.4290  -16.9614   21.2950 C   0  0  0  0  0  0  0  0  0  0  0  0
   12.8160  -17.2420   20.8803 C   0  0  0  0  0  0  0  0  0  0  0  0
   13.0315  -17.8346   19.5572 C   0  0  0  0  0  0  0  0  0  0  0  0
   12.2972  -17.5275   18.5927 O   0  0  0  0  0  0  0  0  0  0  0  0
   11.4338  -17.7212   23.7053 C   0  0  0  0  0  0  0  0  0  0  0  0
   11.7947  -16.6036   24.2360 O   0  0  0  0  0  0  0  0  0  0  0  0
   14.0509  -18.7599   19.3102 O   0  0  0  0  0  0  0  0  0  0  0  0
   11.7364  -19.2377   26.9796 C   0  0  0  0  0  0  0  0  0  0  0  0
   12.5004  -18.6833   25.7735 C   0  0  2  0  0  0  0  0  0  0  0  0
   11.6781  -18.8403   24.5707 N   0  0  0  0  0  0  0  0  0  0  0  0
   13.7841  -19.3460   25.6033 C   0  0  0  0  0  0  0  0  0  0  0  0
   14.6702  -19.2790   26.4688 O   0  0  0  0  0  0  0  0  0  0  0  0
   14.0527  -20.0749   24.4603 O   0  0  0  0  0  0  0  0  0  0  0  0
  2  1  1  1
  2 13  1  0
  2  3  1  0
  3  4  1  0
  4 12  1  0
  5  4  2  0
  5  6  1  0
  6  7  1  0
  7  8  1  0
  8  9  2  0
 10  9  1  0
 11 10  2  0
 12  7  2  0
 12 11  1  0
 13 15  1  0
 14 13  2  0
 15 16  1  0
 16 17  1  6
 17 18  1  0
 19 20  2  0
 19 18  1  0
 21 22  2  0
 21 16  1  0
 23 19  1  0
 25 24  1  1
 25 27  1  0
 25 26  1  0
 26 21  1  0
 27 29  1  0
 28 27  2  0
M  END
$$$$
