WEA.pdb
     RDKit          3D

 29 30  0  0  1  0  0  0  0  0999 V2000
    6.9080  -17.5051   23.9298 N   0  0  0  0  0  0  0  0  0  0  0  0
    7.9689  -16.6590   24.3095 C   0  0  1  0  0  0  0  0  0  0  0  0
    7.8525  -16.1099   25.7037 C   0  0  0  0  0  0  0  0  0  0  0  0
    6.7658  -15.0996   25.8656 C   0  0  0  0  0  0  0  0  0  0  0  0
    5.4266  -15.3896   26.0592 C   0  0  0  0  0  0  0  0  0  0  0  0
    4.7837  -14.2277   26.1391 N   0  0  0  0  0  0  0  0  0  0  0  0
    5.6300  -13.1780   26.0082 C   0  0  0  0  0  0  0  0  0  0  0  0
    5.3883  -11.8198   26.0348 C   0  0  0  0  0  0  0  0  0  0  0  0
    6.4822  -10.9863   25.8781 C   0  0  0  0  0  0  0  0  0  0  0  0
    7.7438  -11.5107   25.7051 C   0  0  0  0  0  0  0  0  0  0  0  0
    7.9536  -12.8626   25.6825 C   0  0  0  0  0  0  0  0  0  0  0  0
    6.8662  -13.7285   25.8381 C   0  0  0  0  0  0  0  0  0  0  0  0
    9.3172  -17.2204   24.0403 C   0  0  0  0  0  0  0  0  0  0  0  0
    9.6156  -18.4174   24.0524 O   0  0  0  0  0  0  0  0  0  0  0  0
   10.3368  -16.2836   23.7471 N   0  0  0  0  0  0  0  0  0  0  0  0
   11.7841  -16.6185   23.8757 C   0  0  1  0  0  0  0  0  0  0  0  0
   12.5485  -15.8411   22.9113 C   0  0  0  0  0  0  0  0  0  0  0  0
   12.3004  -16.0345   21.4706 C   0  0  0  0  0  0  0  0  0  0  0  0
   13.1512  -16.9843   20.7477 C   0  0  0  0  0  0  0  0  0  0  0  0
   14.3334  -17.1820   21.1042 O   0  0  0  0  0  0  0  0  0  0  0  0
   12.0616  -16.5591   25.2849 C   0  0  0  0  0  0  0  0  0  0  0  0
   13.2517  -16.8201   25.7048 O   0  0  0  0  0  0  0  0  0  0  0  0
   12.6929  -17.7043   19.6397 O   0  0  0  0  0  0  0  0  0  0  0  0
   11.0233  -14.8129   28.3474 C   0  0  0  0  0  0  0  0  0  0  0  0
   11.6740  -16.0495   27.7202 C   0  0  2  0  0  0  0  0  0  0  0  0
   11.1677  -16.2183   26.3554 N   0  0  0  0  0  0  0  0  0  0  0  0
   11.4207  -17.2450   28.5093 C   0  0  0  0  0  0  0  0  0  0  0  0
   10.7988  -18.2119   28.0433 O   0  0  0  0  0  0  0  0  0  0  0  0
   11.8709  -17.3353   29.8127 O   0  0  0  0  0  0  0  0  0  0  0  0
  2  1  1  1
  2 13  1  0
  2  3  1  0
  3  4  1  0
  4 12  1  0
  5  4  2  0
  5  6  1  0
  6  7  1  0
  7  8  1  0
  8  9  2  0
 10  9  1  0
 11 10  2  0
 12  7  2  0
 12 11  1  0
 13 15  1  0
 14 13  2  0
 15 16  1  0
 16 17  1  6
 17 18  1  0
 19 20  2  0
 19 18  1  0
 21 22  2  0
 21 16  1  0
 23 19  1  0
 25 24  1  1
 25 27  1  0
 25 26  1  0
 26 21  1  0
 27 29  1  0
 28 27  2  0
M  END
$$$$
