WEA.pdb
     RDKit          3D

 29 30  0  0  1  0  0  0  0  0999 V2000
    6.3838  -17.7432   24.3925 N   0  0  0  0  0  0  0  0  0  0  0  0
    7.5677  -17.0026   24.2036 C   0  0  1  0  0  0  0  0  0  0  0  0
    8.0209  -16.2420   25.4180 C   0  0  0  0  0  0  0  0  0  0  0  0
    7.0974  -15.1403   25.8195 C   0  0  0  0  0  0  0  0  0  0  0  0
    5.8670  -15.3105   26.4298 C   0  0  0  0  0  0  0  0  0  0  0  0
    5.3489  -14.0982   26.6076 N   0  0  0  0  0  0  0  0  0  0  0  0
    6.1748  -13.1289   26.1454 C   0  0  0  0  0  0  0  0  0  0  0  0
    6.0332  -11.7565   26.1363 C   0  0  0  0  0  0  0  0  0  0  0  0
    7.0737  -11.0236   25.5921 C   0  0  0  0  0  0  0  0  0  0  0  0
    8.1886  -11.6563   25.0890 C   0  0  0  0  0  0  0  0  0  0  0  0
    8.3015  -13.0197   25.1111 C   0  0  0  0  0  0  0  0  0  0  0  0
    7.2650  -13.7855   25.6549 C   0  0  0  0  0  0  0  0  0  0  0  0
    8.6733  -17.7762   23.5834 C   0  0  0  0  0  0  0  0  0  0  0  0
    8.9391  -18.9600   23.8068 O   0  0  0  0  0  0  0  0  0  0  0  0
    9.4832  -17.0758   22.6578 N   0  0  0  0  0  0  0  0  0  0  0  0
   10.7561  -17.6433   22.1275 C   0  0  1  0  0  0  0  0  0  0  0  0
   11.1088  -16.9663   20.8882 C   0  0  0  0  0  0  0  0  0  0  0  0
   12.3615  -17.3290   20.1999 C   0  0  0  0  0  0  0  0  0  0  0  0
   12.6733  -16.6523   18.9377 C   0  0  0  0  0  0  0  0  0  0  0  0
   13.0464  -15.4588   18.9283 O   0  0  0  0  0  0  0  0  0  0  0  0
   11.6513  -17.6777   23.2517 C   0  0  0  0  0  0  0  0  0  0  0  0
   11.8514  -16.6013   23.9316 O   0  0  0  0  0  0  0  0  0  0  0  0
   12.5691  -17.2951   17.6998 O   0  0  0  0  0  0  0  0  0  0  0  0
   13.6542  -19.9799   25.4905 C   0  0  0  0  0  0  0  0  0  0  0  0
   13.3314  -18.6144   24.8766 C   0  0  2  0  0  0  0  0  0  0  0  0
   12.3860  -18.7961   23.7718 N   0  0  0  0  0  0  0  0  0  0  0  0
   14.5336  -17.9393   24.4128 C   0  0  0  0  0  0  0  0  0  0  0  0
   14.8712  -17.9594   23.2194 O   0  0  0  0  0  0  0  0  0  0  0  0
   15.3395  -17.2509   25.2996 O   0  0  0  0  0  0  0  0  0  0  0  0
  2  1  1  1
  2 13  1  0
  2  3  1  0
  3  4  1  0
  4 12  1  0
  5  4  2  0
  5  6  1  0
  6  7  1  0
  7  8  1  0
  8  9  2  0
 10  9  1  0
 11 10  2  0
 12  7  2  0
 12 11  1  0
 13 15  1  0
 14 13  2  0
 15 16  1  0
 16 17  1  6
 17 18  1  0
 19 20  2  0
 19 18  1  0
 21 22  2  0
 21 16  1  0
 23 19  1  0
 25 24  1  6
 25 27  1  0
 25 26  1  0
 26 21  1  0
 27 29  1  0
 28 27  2  0
M  END
$$$$
