WEA.pdb
     RDKit          3D

 29 30  0  0  1  0  0  0  0  0999 V2000
    7.9482  -16.5733   21.6480 N   0  0  0  0  0  0  0  0  0  0  0  0
    8.4920  -16.1611   22.8810 C   0  0  1  0  0  0  0  0  0  0  0  0
    7.4735  -15.9514   23.9661 C   0  0  0  0  0  0  0  0  0  0  0  0
    6.9221  -14.5653   24.0164 C   0  0  0  0  0  0  0  0  0  0  0  0
    6.2771  -13.9229   22.9740 C   0  0  0  0  0  0  0  0  0  0  0  0
    5.9550  -12.7064   23.4054 N   0  0  0  0  0  0  0  0  0  0  0  0
    6.3541  -12.5077   24.6847 C   0  0  0  0  0  0  0  0  0  0  0  0
    6.2187  -11.4088   25.5080 C   0  0  0  0  0  0  0  0  0  0  0  0
    6.7328  -11.5191   26.7885 C   0  0  0  0  0  0  0  0  0  0  0  0
    7.3467  -12.6812   27.1995 C   0  0  0  0  0  0  0  0  0  0  0  0
    7.4671  -13.7555   26.3607 C   0  0  0  0  0  0  0  0  0  0  0  0
    6.9569  -13.6718   25.0610 C   0  0  0  0  0  0  0  0  0  0  0  0
    9.6391  -16.9839   23.3420 C   0  0  0  0  0  0  0  0  0  0  0  0
    9.6151  -18.1983   23.5578 O   0  0  0  0  0  0  0  0  0  0  0  0
   10.8588  -16.2958   23.5476 N   0  0  0  0  0  0  0  0  0  0  0  0
   12.0891  -16.9867   24.0297 C   0  0  1  0  0  0  0  0  0  0  0  0
   13.2592  -16.1997   23.6690 C   0  0  0  0  0  0  0  0  0  0  0  0
   14.6029  -16.7227   23.9777 C   0  0  0  0  0  0  0  0  0  0  0  0
   15.7623  -15.9268   23.5643 C   0  0  0  0  0  0  0  0  0  0  0  0
   16.4987  -15.3817   24.4154 O   0  0  0  0  0  0  0  0  0  0  0  0
   11.8104  -17.3460   25.3934 C   0  0  0  0  0  0  0  0  0  0  0  0
   11.5400  -16.4192   26.2471 O   0  0  0  0  0  0  0  0  0  0  0  0
   16.0973  -15.7375   22.2196 O   0  0  0  0  0  0  0  0  0  0  0  0
   10.9945  -20.2281   27.6797 C   0  0  0  0  0  0  0  0  0  0  0  0
   11.5365  -18.8201   27.4165 C   0  0  2  0  0  0  0  0  0  0  0  0
   11.7695  -18.6562   25.9790 N   0  0  0  0  0  0  0  0  0  0  0  0
   12.7598  -18.5701   28.1629 C   0  0  0  0  0  0  0  0  0  0  0  0
   13.8493  -18.4116   27.5913 O   0  0  0  0  0  0  0  0  0  0  0  0
   12.7396  -18.5023   29.5430 O   0  0  0  0  0  0  0  0  0  0  0  0
  2  1  1  6
  2 13  1  0
  2  3  1  0
  3  4  1  0
  4 12  1  0
  5  4  2  0
  5  6  1  0
  6  7  1  0
  7  8  1  0
  8  9  2  0
 10  9  1  0
 11 10  2  0
 12  7  2  0
 12 11  1  0
 13 15  1  0
 14 13  2  0
 15 16  1  0
 16 17  1  1
 17 18  1  0
 19 20  2  0
 19 18  1  0
 21 22  2  0
 21 16  1  0
 23 19  1  0
 25 24  1  6
 25 27  1  0
 25 26  1  0
 26 21  1  0
 27 29  1  0
 28 27  2  0
M  END
$$$$
