WEA.pdb
     RDKit          3D

 29 30  0  0  1  0  0  0  0  0999 V2000
    6.5727  -17.5354   24.0599 N   0  0  0  0  0  0  0  0  0  0  0  0
    7.8573  -16.9582   24.1103 C   0  0  1  0  0  0  0  0  0  0  0  0
    8.1236  -16.1510   25.3498 C   0  0  0  0  0  0  0  0  0  0  0  0
    7.1395  -15.0521   25.5773 C   0  0  0  0  0  0  0  0  0  0  0  0
    5.8114  -15.2271   25.9245 C   0  0  0  0  0  0  0  0  0  0  0  0
    5.2695  -14.0156   26.0166 N   0  0  0  0  0  0  0  0  0  0  0  0
    6.1726  -13.0423   25.7476 C   0  0  0  0  0  0  0  0  0  0  0  0
    6.0373  -11.6693   25.7351 C   0  0  0  0  0  0  0  0  0  0  0  0
    7.1669  -10.9319   25.4246 C   0  0  0  0  0  0  0  0  0  0  0  0
    8.3595  -11.5611   25.1446 C   0  0  0  0  0  0  0  0  0  0  0  0
    8.4640  -12.9252   25.1641 C   0  0  0  0  0  0  0  0  0  0  0  0
    7.3384  -13.6954   25.4744 C   0  0  0  0  0  0  0  0  0  0  0  0
    8.9598  -17.9078   23.8137 C   0  0  0  0  0  0  0  0  0  0  0  0
    8.9335  -19.1262   24.0058 O   0  0  0  0  0  0  0  0  0  0  0  0
   10.1368  -17.3464   23.2635 N   0  0  0  0  0  0  0  0  0  0  0  0
   11.4210  -18.1014   23.1968 C   0  0  1  0  0  0  0  0  0  0  0  0
   12.2299  -17.5851   22.1025 C   0  0  0  0  0  0  0  0  0  0  0  0
   11.7210  -17.6815   20.7219 C   0  0  0  0  0  0  0  0  0  0  0  0
   12.5052  -17.0536   19.6545 C   0  0  0  0  0  0  0  0  0  0  0  0
   12.0211  -16.1289   18.9660 O   0  0  0  0  0  0  0  0  0  0  0  0
   11.9098  -18.1349   24.5483 C   0  0  0  0  0  0  0  0  0  0  0  0
   12.5231  -17.1055   25.0227 O   0  0  0  0  0  0  0  0  0  0  0  0
   13.8122  -17.4515   19.3550 O   0  0  0  0  0  0  0  0  0  0  0  0
   11.4992  -19.7894   27.8597 C   0  0  0  0  0  0  0  0  0  0  0  0
   12.3778  -19.0476   26.8480 C   0  0  2  0  0  0  0  0  0  0  0  0
   11.7985  -19.1950   25.5100 N   0  0  0  0  0  0  0  0  0  0  0  0
   13.7469  -19.5388   26.8676 C   0  0  0  0  0  0  0  0  0  0  0  0
   14.4670  -19.4169   27.8703 O   0  0  0  0  0  0  0  0  0  0  0  0
   14.2865  -20.1602   25.7575 O   0  0  0  0  0  0  0  0  0  0  0  0
  2  1  1  1
  2 13  1  0
  2  3  1  0
  3  4  1  0
  4 12  1  0
  5  4  2  0
  5  6  1  0
  6  7  1  0
  7  8  1  0
  8  9  2  0
 10  9  1  0
 11 10  2  0
 12  7  2  0
 12 11  1  0
 13 15  1  0
 14 13  2  0
 15 16  1  0
 16 17  1  6
 17 18  1  0
 19 20  2  0
 19 18  1  0
 21 22  2  0
 21 16  1  0
 23 19  1  0
 25 24  1  1
 25 27  1  0
 25 26  1  0
 26 21  1  0
 27 29  1  0
 28 27  2  0
M  END
$$$$
