WEA.pdb
     RDKit          3D

 29 30  0  0  1  0  0  0  0  0999 V2000
    6.3473  -17.4637   24.0895 N   0  0  0  0  0  0  0  0  0  0  0  0
    7.6407  -16.9046   24.1038 C   0  0  1  0  0  0  0  0  0  0  0  0
    7.9935  -16.1963   25.3815 C   0  0  0  0  0  0  0  0  0  0  0  0
    7.0901  -15.0537   25.7072 C   0  0  0  0  0  0  0  0  0  0  0  0
    5.7737  -15.1670   26.1188 C   0  0  0  0  0  0  0  0  0  0  0  0
    5.3109  -13.9317   26.2900 N   0  0  0  0  0  0  0  0  0  0  0  0
    6.2555  -13.0010   26.0125 C   0  0  0  0  0  0  0  0  0  0  0  0
    6.2021  -11.6233   26.0640 C   0  0  0  0  0  0  0  0  0  0  0  0
    7.3562  -10.9392   25.7231 C   0  0  0  0  0  0  0  0  0  0  0  0
    8.4928  -11.6230   25.3529 C   0  0  0  0  0  0  0  0  0  0  0  0
    8.5164  -12.9904   25.3106 C   0  0  0  0  0  0  0  0  0  0  0  0
    7.3643  -13.7074   25.6496 C   0  0  0  0  0  0  0  0  0  0  0  0
    8.7094  -17.8398   23.6694 C   0  0  0  0  0  0  0  0  0  0  0  0
    8.8243  -19.0169   24.0207 O   0  0  0  0  0  0  0  0  0  0  0  0
    9.6723  -17.3158   22.7742 N   0  0  0  0  0  0  0  0  0  0  0  0
   10.9648  -18.0082   22.5032 C   0  0  1  0  0  0  0  0  0  0  0  0
   11.6278  -17.3717   21.3745 C   0  0  0  0  0  0  0  0  0  0  0  0
   12.9377  -17.8804   20.9274 C   0  0  0  0  0  0  0  0  0  0  0  0
   13.5651  -17.2392   19.7682 C   0  0  0  0  0  0  0  0  0  0  0  0
   14.8097  -17.2075   19.6520 O   0  0  0  0  0  0  0  0  0  0  0  0
   11.6038  -18.1299   23.7852 C   0  0  0  0  0  0  0  0  0  0  0  0
   11.9751  -17.0647   24.4084 O   0  0  0  0  0  0  0  0  0  0  0  0
   12.8166  -16.6381   18.7510 O   0  0  0  0  0  0  0  0  0  0  0  0
   12.0128  -20.2588   26.7797 C   0  0  0  0  0  0  0  0  0  0  0  0
   12.6194  -19.2524   25.7974 C   0  0  2  0  0  0  0  0  0  0  0  0
   11.8936  -19.3247   24.5264 N   0  0  0  0  0  0  0  0  0  0  0  0
   14.0380  -19.4976   25.5889 C   0  0  0  0  0  0  0  0  0  0  0  0
   14.4736  -19.9117   24.5037 O   0  0  0  0  0  0  0  0  0  0  0  0
   14.9469  -19.2735   26.6054 O   0  0  0  0  0  0  0  0  0  0  0  0
  2  1  1  1
  2 13  1  0
  2  3  1  0
  3  4  1  0
  4 12  1  0
  5  4  2  0
  5  6  1  0
  6  7  1  0
  7  8  1  0
  8  9  2  0
 10  9  1  0
 11 10  2  0
 12  7  2  0
 12 11  1  0
 13 15  1  0
 14 13  2  0
 15 16  1  0
 16 17  1  6
 17 18  1  0
 19 20  2  0
 19 18  1  0
 21 22  2  0
 21 16  1  0
 23 19  1  0
 25 24  1  1
 25 27  1  0
 25 26  1  0
 26 21  1  0
 27 29  1  0
 28 27  2  0
M  END
$$$$
