WEA.pdb
     RDKit          3D

 29 30  0  0  1  0  0  0  0  0999 V2000
    6.2774  -17.3150   24.1586 N   0  0  0  0  0  0  0  0  0  0  0  0
    7.5612  -16.7338   24.1540 C   0  0  1  0  0  0  0  0  0  0  0  0
    7.9221  -16.0230   25.4280 C   0  0  0  0  0  0  0  0  0  0  0  0
    7.0436  -14.8570   25.7382 C   0  0  0  0  0  0  0  0  0  0  0  0
    5.7410  -14.9372   26.1989 C   0  0  0  0  0  0  0  0  0  0  0  0
    5.2984  -13.6902   26.3359 N   0  0  0  0  0  0  0  0  0  0  0  0
    6.2432  -12.7834   25.9890 C   0  0  0  0  0  0  0  0  0  0  0  0
    6.2073  -11.4041   25.9868 C   0  0  0  0  0  0  0  0  0  0  0  0
    7.3565  -10.7489   25.5793 C   0  0  0  0  0  0  0  0  0  0  0  0
    8.4718  -11.4612   25.1983 C   0  0  0  0  0  0  0  0  0  0  0  0
    8.4784  -12.8294   25.2102 C   0  0  0  0  0  0  0  0  0  0  0  0
    7.3308  -13.5177   25.6172 C   0  0  0  0  0  0  0  0  0  0  0  0
    8.6386  -17.6494   23.6998 C   0  0  0  0  0  0  0  0  0  0  0  0
    8.6633  -18.8718   23.8644 O   0  0  0  0  0  0  0  0  0  0  0  0
    9.7251  -17.0475   23.0211 N   0  0  0  0  0  0  0  0  0  0  0  0
   11.0336  -17.7404   22.8449 C   0  0  1  0  0  0  0  0  0  0  0  0
   11.8100  -17.0559   21.8215 C   0  0  0  0  0  0  0  0  0  0  0  0
   13.1530  -17.5590   21.4785 C   0  0  0  0  0  0  0  0  0  0  0  0
   13.8813  -16.8919   20.3955 C   0  0  0  0  0  0  0  0  0  0  0  0
   13.3101  -16.0548   19.6629 O   0  0  0  0  0  0  0  0  0  0  0  0
   11.5408  -17.9335   24.1761 C   0  0  0  0  0  0  0  0  0  0  0  0
   11.8093  -16.9044   24.9041 O   0  0  0  0  0  0  0  0  0  0  0  0
   15.2291  -17.1544   20.1291 O   0  0  0  0  0  0  0  0  0  0  0  0
   11.8028  -20.3638   26.9927 C   0  0  0  0  0  0  0  0  0  0  0  0
   12.3547  -19.1643   26.2166 C   0  0  2  0  0  0  0  0  0  0  0  0
   11.7931  -19.1686   24.8630 N   0  0  0  0  0  0  0  0  0  0  0  0
   13.8083  -19.1838   26.1652 C   0  0  0  0  0  0  0  0  0  0  0  0
   14.4190  -19.3510   25.0985 O   0  0  0  0  0  0  0  0  0  0  0  0
   14.5545  -19.0152   27.3161 O   0  0  0  0  0  0  0  0  0  0  0  0
  2  1  1  1
  2 13  1  0
  2  3  1  0
  3  4  1  0
  4 12  1  0
  5  4  2  0
  5  6  1  0
  6  7  1  0
  7  8  1  0
  8  9  2  0
 10  9  1  0
 11 10  2  0
 12  7  2  0
 12 11  1  0
 13 15  1  0
 14 13  2  0
 15 16  1  0
 16 17  1  6
 17 18  1  0
 19 20  2  0
 19 18  1  0
 21 22  2  0
 21 16  1  0
 23 19  1  0
 25 24  1  1
 25 27  1  0
 25 26  1  0
 26 21  1  0
 27 29  1  0
 28 27  2  0
M  END
$$$$
