YQY.pdb
     RDKit          3D

 34 35  0  0  1  0  0  0  0  0999 V2000
   15.9012   -1.0608  -14.8917 O   0  0  0  0  0  0  0  0  0  0  0  0
   16.5894   -2.2820  -14.9778 C   0  0  0  0  0  0  0  0  0  0  0  0
   17.9109   -2.3624  -15.3314 C   0  0  0  0  0  0  0  0  0  0  0  0
   18.5983   -3.5543  -15.4197 C   0  0  0  0  0  0  0  0  0  0  0  0
   17.9158   -4.7140  -15.1372 C   0  0  0  0  0  0  0  0  0  0  0  0
   18.6005   -6.0358  -15.2140 C   0  0  0  0  0  0  0  0  0  0  0  0
   18.3902   -6.5723  -16.6114 C   0  0  2  0  0  0  0  0  0  0  0  0
   17.0067   -6.9349  -16.7778 N   0  0  0  0  0  0  0  0  0  0  0  0
   19.2990   -7.6878  -16.9409 C   0  0  0  0  0  0  0  0  0  0  0  0
   18.8234   -8.7787  -17.3313 O   0  0  0  0  0  0  0  0  0  0  0  0
   16.5758   -4.6485  -14.7773 C   0  0  0  0  0  0  0  0  0  0  0  0
   15.9142   -3.4480  -14.6967 C   0  0  0  0  0  0  0  0  0  0  0  0
   22.0224   -9.2283  -21.3203 N   0  0  0  0  0  0  0  0  0  0  0  0
   22.6913  -10.1259  -20.4543 C   0  0  0  0  0  0  0  0  0  0  0  0
   23.4003  -11.0066  -20.9881 O   0  0  0  0  0  0  0  0  0  0  0  0
   22.5613  -10.0279  -19.0056 C   0  0  0  0  0  0  0  0  0  0  0  0
   21.6184   -8.9530  -18.5842 C   0  0  0  0  0  0  0  0  0  0  0  0
   21.6898   -8.5250  -17.1691 C   0  0  2  0  0  0  0  0  0  0  0  0
   20.6905   -7.5367  -16.8205 N   0  0  0  0  0  0  0  0  0  0  0  0
   23.0869   -8.0364  -16.8852 C   0  0  0  0  0  0  0  0  0  0  0  0
   23.4944   -6.8929  -17.2499 O   0  0  0  0  0  0  0  0  0  0  0  0
   26.6550  -14.4220  -17.8142 O   0  0  0  0  0  0  0  0  0  0  0  0
   26.4921  -13.2274  -17.1215 C   0  0  0  0  0  0  0  0  0  0  0  0
   25.2912  -12.9516  -16.4803 C   0  0  0  0  0  0  0  0  0  0  0  0
   25.1378  -11.7661  -15.7962 C   0  0  0  0  0  0  0  0  0  0  0  0
   26.1706  -10.8564  -15.7477 C   0  0  0  0  0  0  0  0  0  0  0  0
   25.9804   -9.5967  -15.0211 C   0  0  0  0  0  0  0  0  0  0  0  0
   25.3120   -8.5393  -15.8292 C   0  0  2  0  0  0  0  0  0  0  0  0
   23.9485   -8.9120  -16.1824 N   0  0  0  0  0  0  0  0  0  0  0  0
   26.0604   -8.3102  -17.0759 C   0  0  0  0  0  0  0  0  0  0  0  0
   25.6002   -8.7776  -18.1497 O   0  0  0  0  0  0  0  0  0  0  0  0
   27.3899  -11.1163  -16.3880 C   0  0  0  0  0  0  0  0  0  0  0  0
   27.5199  -12.3063  -17.0645 C   0  0  0  0  0  0  0  0  0  0  0  0
   27.2495   -7.6101  -17.1793 O   0  0  0  0  0  0  0  0  0  0  0  0
  2  1  1  0
  3  2  2  0
  4  3  1  0
  5 11  1  0
  5  4  2  0
  6  5  1  0
  7  6  1  0
  7  8  1  1
  9  7  1  0
  9 10  2  0
 11 12  2  0
 12  2  1  0
 13 14  1  0
 14 15  2  0
 16 17  1  0
 16 14  1  0
 18 17  1  6
 18 19  1  0
 18 20  1  0
 19  9  1  0
 20 29  1  0
 21 20  2  0
 23 22  1  0
 23 24  2  0
 25 24  1  0
 26 25  2  0
 27 26  1  0
 28 27  1  6
 28 30  1  0
 29 28  1  0
 30 31  2  0
 30 34  1  0
 32 33  2  0
 32 26  1  0
 33 23  1  0
M  END
$$$$
