YQY.pdb
     RDKit          3D

 34 35  0  0  1  0  0  0  0  0999 V2000
   34.4137  -26.8758  -16.4816 O   0  0  0  0  0  0  0  0  0  0  0  0
   33.5281  -25.8037  -16.6781 C   0  0  0  0  0  0  0  0  0  0  0  0
   33.4286  -25.1362  -17.8707 C   0  0  0  0  0  0  0  0  0  0  0  0
   32.5637  -24.0825  -18.0770 C   0  0  0  0  0  0  0  0  0  0  0  0
   31.7657  -23.6893  -17.0286 C   0  0  0  0  0  0  0  0  0  0  0  0
   30.8091  -22.5571  -17.1856 C   0  0  0  0  0  0  0  0  0  0  0  0
   29.4303  -23.0827  -16.8579 C   0  0  2  0  0  0  0  0  0  0  0  0
   29.1264  -24.1919  -17.7244 N   0  0  0  0  0  0  0  0  0  0  0  0
   28.3897  -22.0371  -16.9106 C   0  0  0  0  0  0  0  0  0  0  0  0
   28.5137  -21.0052  -16.2117 O   0  0  0  0  0  0  0  0  0  0  0  0
   31.8553  -24.3563  -15.8135 C   0  0  0  0  0  0  0  0  0  0  0  0
   32.7254  -25.4032  -15.6342 C   0  0  0  0  0  0  0  0  0  0  0  0
   22.3010  -21.1160  -20.7281 N   0  0  0  0  0  0  0  0  0  0  0  0
   23.6034  -20.5857  -20.5684 C   0  0  0  0  0  0  0  0  0  0  0  0
   24.1968  -20.2175  -21.6054 O   0  0  0  0  0  0  0  0  0  0  0  0
   24.2250  -20.4721  -19.2546 C   0  0  0  0  0  0  0  0  0  0  0  0
   25.4251  -21.3443  -19.1089 C   0  0  0  0  0  0  0  0  0  0  0  0
   26.1304  -21.2905  -17.8087 C   0  0  2  0  0  0  0  0  0  0  0  0
   27.2635  -22.1892  -17.7365 N   0  0  0  0  0  0  0  0  0  0  0  0
   25.1329  -21.5539  -16.7102 C   0  0  0  0  0  0  0  0  0  0  0  0
   24.8229  -22.7258  -16.3400 O   0  0  0  0  0  0  0  0  0  0  0  0
   19.2728  -19.5138  -10.4366 O   0  0  0  0  0  0  0  0  0  0  0  0
   20.3071  -19.4791  -11.3655 C   0  0  0  0  0  0  0  0  0  0  0  0
   21.5314  -20.0637  -11.0675 C   0  0  0  0  0  0  0  0  0  0  0  0
   22.5507  -20.0251  -11.9928 C   0  0  0  0  0  0  0  0  0  0  0  0
   22.3582  -19.4091  -13.2094 C   0  0  0  0  0  0  0  0  0  0  0  0
   23.4616  -19.3724  -14.1749 C   0  0  0  0  0  0  0  0  0  0  0  0
   23.5040  -20.5584  -15.0746 C   0  0  2  0  0  0  0  0  0  0  0  0
   24.5407  -20.4279  -16.0899 N   0  0  0  0  0  0  0  0  0  0  0  0
   22.2109  -20.7167  -15.7599 C   0  0  0  0  0  0  0  0  0  0  0  0
   22.0198  -20.0958  -16.8374 O   0  0  0  0  0  0  0  0  0  0  0  0
   21.1303  -18.8138  -13.5289 C   0  0  0  0  0  0  0  0  0  0  0  0
   20.1274  -18.8649  -12.5896 C   0  0  0  0  0  0  0  0  0  0  0  0
   21.1624  -21.5053  -15.3199 O   0  0  0  0  0  0  0  0  0  0  0  0
  2  1  1  0
  3  2  2  0
  4  3  1  0
  5 11  1  0
  5  4  2  0
  6  5  1  0
  7  6  1  0
  7  8  1  6
  9  7  1  0
  9 10  2  0
 11 12  2  0
 12  2  1  0
 13 14  1  0
 14 15  2  0
 16 17  1  0
 16 14  1  0
 18 17  1  6
 18 19  1  0
 18 20  1  0
 19  9  1  0
 20 29  1  0
 21 20  2  0
 23 22  1  0
 23 24  2  0
 25 24  1  0
 26 25  2  0
 27 26  1  0
 28 27  1  1
 28 30  1  0
 29 28  1  0
 30 31  2  0
 30 34  1  0
 32 33  2  0
 32 26  1  0
 33 23  1  0
M  END
$$$$
