YQY.pdb
     RDKit          3D

 34 35  0  0  1  0  0  0  0  0999 V2000
   30.4804   -1.7458  -21.1878 O   0  0  0  0  0  0  0  0  0  0  0  0
   29.3019   -2.4936  -21.0325 C   0  0  0  0  0  0  0  0  0  0  0  0
   28.8481   -3.3651  -21.9878 C   0  0  0  0  0  0  0  0  0  0  0  0
   27.6932   -4.1051  -21.8481 C   0  0  0  0  0  0  0  0  0  0  0  0
   26.9677   -3.9544  -20.6899 C   0  0  0  0  0  0  0  0  0  0  0  0
   25.7098   -4.7249  -20.4763 C   0  0  0  0  0  0  0  0  0  0  0  0
   26.0756   -5.9881  -19.7310 C   0  0  2  0  0  0  0  0  0  0  0  0
   26.8686   -6.8319  -20.5869 N   0  0  0  0  0  0  0  0  0  0  0  0
   24.8991   -6.6967  -19.1901 C   0  0  0  0  0  0  0  0  0  0  0  0
   24.2248   -7.4388  -19.9407 O   0  0  0  0  0  0  0  0  0  0  0  0
   27.4150   -3.0746  -19.7124 C   0  0  0  0  0  0  0  0  0  0  0  0
   28.5691   -2.3492  -19.8763 C   0  0  0  0  0  0  0  0  0  0  0  0
   24.5154  -10.1298  -14.6112 N   0  0  0  0  0  0  0  0  0  0  0  0
   23.1497   -9.7617  -14.5618 C   0  0  0  0  0  0  0  0  0  0  0  0
   22.3764  -10.5323  -13.9524 O   0  0  0  0  0  0  0  0  0  0  0  0
   22.6660   -8.5390  -15.1912 C   0  0  0  0  0  0  0  0  0  0  0  0
   23.7473   -7.7823  -15.8842 C   0  0  0  0  0  0  0  0  0  0  0  0
   23.4023   -7.1792  -17.1912 C   0  0  2  0  0  0  0  0  0  0  0  0
   24.5298   -6.5462  -17.8431 N   0  0  0  0  0  0  0  0  0  0  0  0
   22.2577   -6.2198  -16.9901 C   0  0  0  0  0  0  0  0  0  0  0  0
   22.4106   -5.0823  -16.4523 O   0  0  0  0  0  0  0  0  0  0  0  0
   14.0453   -3.1198  -17.5589 O   0  0  0  0  0  0  0  0  0  0  0  0
   15.1814   -3.9130  -17.6760 C   0  0  0  0  0  0  0  0  0  0  0  0
   16.4305   -3.3237  -17.8246 C   0  0  0  0  0  0  0  0  0  0  0  0
   17.5509   -4.1163  -17.9399 C   0  0  0  0  0  0  0  0  0  0  0  0
   17.4346   -5.4881  -17.9085 C   0  0  0  0  0  0  0  0  0  0  0  0
   18.6410   -6.3114  -18.0427 C   0  0  0  0  0  0  0  0  0  0  0  0
   19.7858   -5.8266  -17.2228 C   0  0  2  0  0  0  0  0  0  0  0  0
   20.9789   -6.6363  -17.4311 N   0  0  0  0  0  0  0  0  0  0  0  0
   19.4399   -5.8820  -15.7931 C   0  0  0  0  0  0  0  0  0  0  0  0
   19.4729   -6.9952  -15.2077 O   0  0  0  0  0  0  0  0  0  0  0  0
   16.1833   -6.1015  -17.7592 C   0  0  0  0  0  0  0  0  0  0  0  0
   15.0790   -5.2901  -17.6458 C   0  0  0  0  0  0  0  0  0  0  0  0
   19.0759   -4.7975  -15.0144 O   0  0  0  0  0  0  0  0  0  0  0  0
  2  1  1  0
  3  2  2  0
  4  3  1  0
  5 11  1  0
  5  4  2  0
  6  5  1  0
  7  6  1  0
  7  8  1  6
  9  7  1  0
  9 10  2  0
 11 12  2  0
 12  2  1  0
 13 14  1  0
 14 15  2  0
 16 17  1  0
 16 14  1  0
 18 17  1  1
 18 19  1  0
 18 20  1  0
 19  9  1  0
 20 29  1  0
 21 20  2  0
 23 22  1  0
 23 24  2  0
 25 24  1  0
 26 25  2  0
 27 26  1  0
 28 27  1  6
 28 30  1  0
 29 28  1  0
 30 31  2  0
 30 34  1  0
 32 33  2  0
 32 26  1  0
 33 23  1  0
M  END
$$$$
