YQY.pdb
     RDKit          3D

 34 35  0  0  1  0  0  0  0  0999 V2000
   26.9296  -31.6508  -17.1500 O   0  0  0  0  0  0  0  0  0  0  0  0
   26.6532  -32.1136  -15.8532 C   0  0  0  0  0  0  0  0  0  0  0  0
   25.3785  -32.2162  -15.3610 C   0  0  0  0  0  0  0  0  0  0  0  0
   25.0933  -32.6688  -14.0902 C   0  0  0  0  0  0  0  0  0  0  0  0
   26.1464  -33.0328  -13.2846 C   0  0  0  0  0  0  0  0  0  0  0  0
   25.9066  -33.5303  -11.9001 C   0  0  0  0  0  0  0  0  0  0  0  0
   26.2435  -35.0038  -11.8856 C   0  0  2  0  0  0  0  0  0  0  0  0
   25.2680  -35.7218  -12.6642 N   0  0  0  0  0  0  0  0  0  0  0  0
   26.3735  -35.5495  -10.5203 C   0  0  0  0  0  0  0  0  0  0  0  0
   25.3438  -35.8479   -9.8726 O   0  0  0  0  0  0  0  0  0  0  0  0
   27.4443  -32.9343  -13.7696 C   0  0  0  0  0  0  0  0  0  0  0  0
   27.7012  -32.4802  -15.0396 C   0  0  0  0  0  0  0  0  0  0  0  0
   30.5313  -39.5570   -8.5118 N   0  0  0  0  0  0  0  0  0  0  0  0
   30.0851  -39.0346   -7.2744 C   0  0  0  0  0  0  0  0  0  0  0  0
   30.4783  -39.6149   -6.2391 O   0  0  0  0  0  0  0  0  0  0  0  0
   29.2082  -37.8719   -7.2090 C   0  0  0  0  0  0  0  0  0  0  0  0
   28.8881  -37.3166   -8.5549 C   0  0  0  0  0  0  0  0  0  0  0  0
   27.9038  -36.2120   -8.5998 C   0  0  2  0  0  0  0  0  0  0  0  0
   27.6400  -35.7368   -9.9420 N   0  0  0  0  0  0  0  0  0  0  0  0
   28.3822  -35.1055   -7.6954 C   0  0  0  0  0  0  0  0  0  0  0  0
   29.4703  -34.4869   -7.8950 O   0  0  0  0  0  0  0  0  0  0  0  0
   21.5531  -33.7330   -5.7643 O   0  0  0  0  0  0  0  0  0  0  0  0
   22.9096  -33.4273   -5.7817 C   0  0  0  0  0  0  0  0  0  0  0  0
   23.5807  -33.3038   -6.9915 C   0  0  0  0  0  0  0  0  0  0  0  0
   24.9242  -33.0008   -7.0002 C   0  0  0  0  0  0  0  0  0  0  0  0
   25.6010  -32.8211   -5.8144 C   0  0  0  0  0  0  0  0  0  0  0  0
   27.0335  -32.5084   -5.8487 C   0  0  0  0  0  0  0  0  0  0  0  0
   27.9067  -33.7008   -5.6657 C   0  0  2  0  0  0  0  0  0  0  0  0
   27.5605  -34.7699   -6.5929 N   0  0  0  0  0  0  0  0  0  0  0  0
   27.7673  -34.2212   -4.2958 C   0  0  0  0  0  0  0  0  0  0  0  0
   27.2270  -35.3454   -4.1303 O   0  0  0  0  0  0  0  0  0  0  0  0
   24.9415  -32.9413   -4.5835 C   0  0  0  0  0  0  0  0  0  0  0  0
   23.6003  -33.2442   -4.5996 C   0  0  0  0  0  0  0  0  0  0  0  0
   28.1872  -33.5747   -3.1466 O   0  0  0  0  0  0  0  0  0  0  0  0
  2  1  1  0
  3  2  2  0
  4  3  1  0
  5 11  1  0
  5  4  2  0
  6  5  1  0
  7  6  1  0
  7  8  1  1
  9  7  1  0
  9 10  2  0
 11 12  2  0
 12  2  1  0
 13 14  1  0
 14 15  2  0
 16 17  1  0
 16 14  1  0
 18 17  1  6
 18 19  1  0
 18 20  1  0
 19  9  1  0
 20 29  1  0
 21 20  2  0
 23 22  1  0
 23 24  2  0
 25 24  1  0
 26 25  2  0
 27 26  1  0
 28 27  1  1
 28 30  1  0
 29 28  1  0
 30 31  2  0
 30 34  1  0
 32 33  2  0
 32 26  1  0
 33 23  1  0
M  END
$$$$
