YQY.pdb
     RDKit          3D

 34 35  0  0  1  0  0  0  0  0999 V2000
   36.9935  -10.4541  -15.1089 O   0  0  0  0  0  0  0  0  0  0  0  0
   37.5761  -10.5514  -13.8348 C   0  0  0  0  0  0  0  0  0  0  0  0
   38.1272  -11.7130  -13.3607 C   0  0  0  0  0  0  0  0  0  0  0  0
   38.7021  -11.8222  -12.1123 C   0  0  0  0  0  0  0  0  0  0  0  0
   38.7186  -10.7051  -11.3108 C   0  0  0  0  0  0  0  0  0  0  0  0
   39.3251  -10.7559   -9.9501 C   0  0  0  0  0  0  0  0  0  0  0  0
   40.7367  -10.2278  -10.0654 C   0  0  2  0  0  0  0  0  0  0  0  0
   41.5373  -11.1696  -10.8040 N   0  0  0  0  0  0  0  0  0  0  0  0
   41.3349   -9.8981   -8.7568 C   0  0  0  0  0  0  0  0  0  0  0  0
   41.6217  -10.8191   -7.9580 O   0  0  0  0  0  0  0  0  0  0  0  0
   38.1639   -9.5203  -11.7776 C   0  0  0  0  0  0  0  0  0  0  0  0
   37.5972   -9.4382  -13.0255 C   0  0  0  0  0  0  0  0  0  0  0  0
   44.4575   -9.2036   -4.8991 N   0  0  0  0  0  0  0  0  0  0  0  0
   44.8429   -9.7916   -6.1274 C   0  0  0  0  0  0  0  0  0  0  0  0
   45.5382  -10.8290   -6.0660 O   0  0  0  0  0  0  0  0  0  0  0  0
   44.4466   -9.2155   -7.4065 C   0  0  0  0  0  0  0  0  0  0  0  0
   43.6577   -7.9602   -7.2521 C   0  0  0  0  0  0  0  0  0  0  0  0
   42.1874   -8.1071   -7.1649 C   0  0  2  0  0  0  0  0  0  0  0  0
   41.5850   -8.5624   -8.4005 N   0  0  0  0  0  0  0  0  0  0  0  0
   41.6007   -6.7983   -6.7022 C   0  0  0  0  0  0  0  0  0  0  0  0
   41.2122   -5.9035   -7.5116 O   0  0  0  0  0  0  0  0  0  0  0  0
   37.6367   -1.0913   -1.3996 O   0  0  0  0  0  0  0  0  0  0  0  0
   38.1318   -2.2120   -2.0571 C   0  0  0  0  0  0  0  0  0  0  0  0
   38.7263   -3.2383   -1.3342 C   0  0  0  0  0  0  0  0  0  0  0  0
   39.2142   -4.3450   -1.9929 C   0  0  0  0  0  0  0  0  0  0  0  0
   39.1139   -4.4349   -3.3634 C   0  0  0  0  0  0  0  0  0  0  0  0
   39.6492   -5.6189   -4.0436 C   0  0  0  0  0  0  0  0  0  0  0  0
   40.9412   -5.3704   -4.7413 C   0  0  2  0  0  0  0  0  0  0  0  0
   41.4932   -6.5948   -5.3057 N   0  0  0  0  0  0  0  0  0  0  0  0
   41.9256   -4.8187   -3.7961 C   0  0  0  0  0  0  0  0  0  0  0  0
   42.6748   -5.6148   -3.1731 O   0  0  0  0  0  0  0  0  0  0  0  0
   38.5173   -3.4101   -4.1106 C   0  0  0  0  0  0  0  0  0  0  0  0
   38.0373   -2.3151   -3.4313 C   0  0  0  0  0  0  0  0  0  0  0  0
   42.1095   -3.4743   -3.5247 O   0  0  0  0  0  0  0  0  0  0  0  0
  2  1  1  0
  3  2  2  0
  4  3  1  0
  5 11  1  0
  5  4  2  0
  6  5  1  0
  7  6  1  0
  7  8  1  1
  9  7  1  0
  9 10  2  0
 11 12  2  0
 12  2  1  0
 13 14  1  0
 14 15  2  0
 16 17  1  0
 16 14  1  0
 18 17  1  6
 18 19  1  0
 18 20  1  0
 19  9  1  0
 20 29  1  0
 21 20  2  0
 23 22  1  0
 23 24  2  0
 25 24  1  0
 26 25  2  0
 27 26  1  0
 28 27  1  1
 28 30  1  0
 29 28  1  0
 30 31  2  0
 30 34  1  0
 32 33  2  0
 32 26  1  0
 33 23  1  0
M  END
$$$$
