YQY.pdb
     RDKit          3D

 34 35  0  0  1  0  0  0  0  0999 V2000
   28.1033  -40.8936  -11.6862 O   0  0  0  0  0  0  0  0  0  0  0  0
   28.5482  -40.2212  -10.5363 C   0  0  0  0  0  0  0  0  0  0  0  0
   27.7048  -39.5117   -9.7220 C   0  0  0  0  0  0  0  0  0  0  0  0
   28.1283  -38.8471   -8.5907 C   0  0  0  0  0  0  0  0  0  0  0  0
   29.4646  -38.9050   -8.2719 C   0  0  0  0  0  0  0  0  0  0  0  0
   29.9874  -38.2086   -7.0622 C   0  0  0  0  0  0  0  0  0  0  0  0
   30.1468  -36.7477   -7.4162 C   0  0  2  0  0  0  0  0  0  0  0  0
   31.1996  -36.6067   -8.3885 N   0  0  0  0  0  0  0  0  0  0  0  0
   30.3656  -35.8911   -6.2342 C   0  0  0  0  0  0  0  0  0  0  0  0
   31.5306  -35.6999   -5.8159 O   0  0  0  0  0  0  0  0  0  0  0  0
   30.3318  -39.6203   -9.0878 C   0  0  0  0  0  0  0  0  0  0  0  0
   29.8842  -40.2736  -10.2094 C   0  0  0  0  0  0  0  0  0  0  0  0
   25.8159  -32.0467   -4.1640 N   0  0  0  0  0  0  0  0  0  0  0  0
   25.8098  -33.3316   -3.5707 C   0  0  0  0  0  0  0  0  0  0  0  0
   24.7563  -33.6869   -2.9986 O   0  0  0  0  0  0  0  0  0  0  0  0
   26.9776  -34.2024   -3.6248 C   0  0  0  0  0  0  0  0  0  0  0  0
   28.1495  -33.5530   -4.2783 C   0  0  0  0  0  0  0  0  0  0  0  0
   29.3612  -34.3862   -4.4467 C   0  0  2  0  0  0  0  0  0  0  0  0
   29.2803  -35.2896   -5.5755 N   0  0  0  0  0  0  0  0  0  0  0  0
   29.6223  -35.1201   -3.1567 C   0  0  0  0  0  0  0  0  0  0  0  0
   29.1443  -36.2700   -2.9200 O   0  0  0  0  0  0  0  0  0  0  0  0
   36.3909  -37.0807   -3.0449 O   0  0  0  0  0  0  0  0  0  0  0  0
   35.3260  -36.4747   -2.3872 C   0  0  0  0  0  0  0  0  0  0  0  0
   34.0209  -36.8454   -2.6850 C   0  0  0  0  0  0  0  0  0  0  0  0
   32.9718  -36.2405   -2.0293 C   0  0  0  0  0  0  0  0  0  0  0  0
   33.2144  -35.2710   -1.0817 C   0  0  0  0  0  0  0  0  0  0  0  0
   32.0805  -34.6343   -0.4034 C   0  0  0  0  0  0  0  0  0  0  0  0
   30.7550  -35.0828   -0.9128 C   0  0  2  0  0  0  0  0  0  0  0  0
   30.4365  -34.4727   -2.1969 N   0  0  0  0  0  0  0  0  0  0  0  0
   29.6976  -34.7143    0.0427 C   0  0  0  0  0  0  0  0  0  0  0  0
   28.7729  -33.9543   -0.3451 O   0  0  0  0  0  0  0  0  0  0  0  0
   34.5239  -34.8833   -0.7671 C   0  0  0  0  0  0  0  0  0  0  0  0
   35.5552  -35.5012   -1.4345 C   0  0  0  0  0  0  0  0  0  0  0  0
   29.6233  -35.1381    1.3579 O   0  0  0  0  0  0  0  0  0  0  0  0
  2  1  1  0
  3  2  2  0
  4  3  1  0
  5 11  1  0
  5  4  2  0
  6  5  1  0
  7  6  1  0
  7  8  1  6
  9  7  1  0
  9 10  2  0
 11 12  2  0
 12  2  1  0
 13 14  1  0
 14 15  2  0
 16 17  1  0
 16 14  1  0
 18 17  1  1
 18 19  1  0
 18 20  1  0
 19  9  1  0
 20 29  1  0
 21 20  2  0
 23 22  1  0
 23 24  2  0
 25 24  1  0
 26 25  2  0
 27 26  1  0
 28 27  1  1
 28 30  1  0
 29 28  1  0
 30 31  2  0
 30 34  1  0
 32 33  2  0
 32 26  1  0
 33 23  1  0
M  END
$$$$
