YQY.pdb
     RDKit          3D

 34 35  0  0  1  0  0  0  0  0999 V2000
   36.4939  -34.6040  -24.2145 O   0  0  0  0  0  0  0  0  0  0  0  0
   35.9998  -34.2215  -22.9568 C   0  0  0  0  0  0  0  0  0  0  0  0
   36.8072  -34.0716  -21.8598 C   0  0  0  0  0  0  0  0  0  0  0  0
   36.3353  -33.6967  -20.6198 C   0  0  0  0  0  0  0  0  0  0  0  0
   34.9867  -33.4638  -20.4872 C   0  0  0  0  0  0  0  0  0  0  0  0
   34.4122  -33.0556  -19.1737 C   0  0  0  0  0  0  0  0  0  0  0  0
   34.3437  -31.5456  -19.1610 C   0  0  2  0  0  0  0  0  0  0  0  0
   35.6350  -31.0145  -18.8089 N   0  0  0  0  0  0  0  0  0  0  0  0
   33.2738  -31.0268  -18.2864 C   0  0  0  0  0  0  0  0  0  0  0  0
   33.5460  -30.6835  -17.1130 O   0  0  0  0  0  0  0  0  0  0  0  0
   34.1555  -33.6116  -21.5903 C   0  0  0  0  0  0  0  0  0  0  0  0
   34.6511  -33.9862  -22.8147 C   0  0  0  0  0  0  0  0  0  0  0  0
   31.5027  -27.5953  -20.4008 N   0  0  0  0  0  0  0  0  0  0  0  0
   30.6692  -28.5632  -21.0103 C   0  0  0  0  0  0  0  0  0  0  0  0
   30.6048  -28.5506  -22.2589 O   0  0  0  0  0  0  0  0  0  0  0  0
   29.9207  -29.5323  -20.2193 C   0  0  0  0  0  0  0  0  0  0  0  0
   30.0920  -29.3320  -18.7521 C   0  0  0  0  0  0  0  0  0  0  0  0
   30.8265  -30.3879  -18.0196 C   0  0  2  0  0  0  0  0  0  0  0  0
   31.9552  -30.9150  -18.7579 N   0  0  0  0  0  0  0  0  0  0  0  0
   29.8521  -31.4708  -17.6334 C   0  0  0  0  0  0  0  0  0  0  0  0
   29.5188  -32.4004  -18.4280 O   0  0  0  0  0  0  0  0  0  0  0  0
   24.5087  -36.0380  -12.3080 O   0  0  0  0  0  0  0  0  0  0  0  0
   25.3687  -35.0798  -12.8331 C   0  0  0  0  0  0  0  0  0  0  0  0
   26.7290  -35.3431  -12.9315 C   0  0  0  0  0  0  0  0  0  0  0  0
   27.5741  -34.3888  -13.4529 C   0  0  0  0  0  0  0  0  0  0  0  0
   27.0736  -33.1773  -13.8751 C   0  0  0  0  0  0  0  0  0  0  0  0
   27.9946  -32.1731  -14.4179 C   0  0  0  0  0  0  0  0  0  0  0  0
   28.3537  -32.4054  -15.8444 C   0  0  2  0  0  0  0  0  0  0  0  0
   29.3097  -31.4176  -16.3272 N   0  0  0  0  0  0  0  0  0  0  0  0
   27.1489  -32.3247  -16.6863 C   0  0  0  0  0  0  0  0  0  0  0  0
   26.5309  -33.3866  -16.9575 O   0  0  0  0  0  0  0  0  0  0  0  0
   25.7043  -32.8927  -13.7842 C   0  0  0  0  0  0  0  0  0  0  0  0
   24.8799  -33.8606  -13.2606 C   0  0  0  0  0  0  0  0  0  0  0  0
   26.6193  -31.1618  -17.2175 O   0  0  0  0  0  0  0  0  0  0  0  0
  2  1  1  0
  3  2  2  0
  4  3  1  0
  5 11  1  0
  5  4  2  0
  6  5  1  0
  7  6  1  0
  7  8  1  1
  9  7  1  0
  9 10  2  0
 11 12  2  0
 12  2  1  0
 13 14  1  0
 14 15  2  0
 16 17  1  0
 16 14  1  0
 18 17  1  6
 18 19  1  0
 18 20  1  0
 19  9  1  0
 20 29  1  0
 21 20  2  0
 23 22  1  0
 23 24  2  0
 25 24  1  0
 26 25  2  0
 27 26  1  0
 28 27  1  1
 28 30  1  0
 29 28  1  0
 30 31  2  0
 30 34  1  0
 32 33  2  0
 32 26  1  0
 33 23  1  0
M  END
$$$$
