YQY.pdb
     RDKit          3D

 34 35  0  0  1  0  0  0  0  0999 V2000
   20.7409  -13.7070  -17.5074 O   0  0  0  0  0  0  0  0  0  0  0  0
   21.1451  -14.9320  -16.9523 C   0  0  0  0  0  0  0  0  0  0  0  0
   22.0323  -15.0150  -15.9113 C   0  0  0  0  0  0  0  0  0  0  0  0
   22.4373  -16.2107  -15.3570 C   0  0  0  0  0  0  0  0  0  0  0  0
   21.9201  -17.3718  -15.8814 C   0  0  0  0  0  0  0  0  0  0  0  0
   22.3169  -18.6977  -15.3280 C   0  0  0  0  0  0  0  0  0  0  0  0
   23.6638  -19.0480  -15.9179 C   0  0  2  0  0  0  0  0  0  0  0  0
   23.5892  -18.9664  -17.3536 N   0  0  0  0  0  0  0  0  0  0  0  0
   24.1664  -20.3591  -15.4627 C   0  0  0  0  0  0  0  0  0  0  0  0
   23.4647  -21.3829  -15.6306 O   0  0  0  0  0  0  0  0  0  0  0  0
   21.0196  -17.3037  -16.9369 C   0  0  0  0  0  0  0  0  0  0  0  0
   20.6324  -16.0995  -17.4708 C   0  0  0  0  0  0  0  0  0  0  0  0
   29.2357  -23.1506  -16.6854 N   0  0  0  0  0  0  0  0  0  0  0  0
   28.4390  -22.1112  -17.2220 C   0  0  0  0  0  0  0  0  0  0  0  0
   28.7617  -21.6730  -18.3477 O   0  0  0  0  0  0  0  0  0  0  0  0
   27.2932  -21.5763  -16.4967 C   0  0  0  0  0  0  0  0  0  0  0  0
   27.1200  -22.2006  -15.1542 C   0  0  0  0  0  0  0  0  0  0  0  0
   26.0134  -21.6819  -14.3192 C   0  0  2  0  0  0  0  0  0  0  0  0
   25.4228  -20.4683  -14.8439 N   0  0  0  0  0  0  0  0  0  0  0  0
   26.5195  -21.4980  -12.9116 C   0  0  0  0  0  0  0  0  0  0  0  0
   27.7528  -21.3840  -12.6421 O   0  0  0  0  0  0  0  0  0  0  0  0
   28.2125  -19.0729   -4.9603 O   0  0  0  0  0  0  0  0  0  0  0  0
   27.8606  -19.3208   -6.2825 C   0  0  0  0  0  0  0  0  0  0  0  0
   28.6273  -20.1810   -7.0583 C   0  0  0  0  0  0  0  0  0  0  0  0
   28.2721  -20.4213   -8.3671 C   0  0  0  0  0  0  0  0  0  0  0  0
   27.1612  -19.8113   -8.9060 C   0  0  0  0  0  0  0  0  0  0  0  0
   26.8083  -20.0754  -10.3049 C   0  0  0  0  0  0  0  0  0  0  0  0
   25.9230  -21.2598  -10.4812 C   0  0  2  0  0  0  0  0  0  0  0  0
   25.5543  -21.4540  -11.8773 N   0  0  0  0  0  0  0  0  0  0  0  0
   24.6863  -21.0841   -9.7024 C   0  0  0  0  0  0  0  0  0  0  0  0
   24.6895  -21.4050   -8.4858 O   0  0  0  0  0  0  0  0  0  0  0  0
   26.3749  -18.9405   -8.1395 C   0  0  0  0  0  0  0  0  0  0  0  0
   26.7488  -18.7159   -6.8355 C   0  0  0  0  0  0  0  0  0  0  0  0
   23.4934  -20.5849  -10.1952 O   0  0  0  0  0  0  0  0  0  0  0  0
  2  1  1  0
  3  2  2  0
  4  3  1  0
  5 11  1  0
  5  4  2  0
  6  5  1  0
  7  6  1  0
  7  8  1  6
  9  7  1  0
  9 10  2  0
 11 12  2  0
 12  2  1  0
 13 14  1  0
 14 15  2  0
 16 17  1  0
 16 14  1  0
 18 17  1  6
 18 19  1  0
 18 20  1  0
 19  9  1  0
 20 29  1  0
 21 20  2  0
 23 22  1  0
 23 24  2  0
 25 24  1  0
 26 25  2  0
 27 26  1  0
 28 27  1  6
 28 30  1  0
 29 28  1  0
 30 31  2  0
 30 34  1  0
 32 33  2  0
 32 26  1  0
 33 23  1  0
M  END
$$$$
