YQY.pdb
     RDKit          3D

 34 35  0  0  1  0  0  0  0  0999 V2000
   24.3892  -10.6638  -25.4238 O   0  0  0  0  0  0  0  0  0  0  0  0
   24.9025  -10.7579  -24.1201 C   0  0  0  0  0  0  0  0  0  0  0  0
   25.8586  -11.6737  -23.7664 C   0  0  0  0  0  0  0  0  0  0  0  0
   26.3710  -11.7768  -22.4906 C   0  0  0  0  0  0  0  0  0  0  0  0
   25.8930  -10.9139  -21.5327 C   0  0  0  0  0  0  0  0  0  0  0  0
   26.4051  -10.9729  -20.1341 C   0  0  0  0  0  0  0  0  0  0  0  0
   25.5890  -12.0108  -19.3983 C   0  0  2  0  0  0  0  0  0  0  0  0
   25.7499  -13.2874  -20.0447 N   0  0  0  0  0  0  0  0  0  0  0  0
   24.1684  -11.6335  -19.2624 C   0  0  0  0  0  0  0  0  0  0  0  0
   23.2943  -12.2806  -19.8836 O   0  0  0  0  0  0  0  0  0  0  0  0
   24.9237   -9.9801  -21.8761 C   0  0  0  0  0  0  0  0  0  0  0  0
   24.4299   -9.8982  -23.1546 C   0  0  0  0  0  0  0  0  0  0  0  0
   20.0542  -13.0077  -16.1704 N   0  0  0  0  0  0  0  0  0  0  0  0
   19.4019  -11.8739  -16.7108 C   0  0  0  0  0  0  0  0  0  0  0  0
   18.1593  -11.8198  -16.5825 O   0  0  0  0  0  0  0  0  0  0  0  0
   20.1442  -10.8159  -17.3851 C   0  0  0  0  0  0  0  0  0  0  0  0
   21.5847  -11.1522  -17.5701 C   0  0  0  0  0  0  0  0  0  0  0  0
   22.4343  -10.1118  -18.1919 C   0  0  2  0  0  0  0  0  0  0  0  0
   23.7891  -10.5567  -18.4438 N   0  0  0  0  0  0  0  0  0  0  0  0
   22.3990   -8.8809  -17.3232 C   0  0  0  0  0  0  0  0  0  0  0  0
   23.0463   -8.7968  -16.2367 O   0  0  0  0  0  0  0  0  0  0  0  0
   16.6285   -6.2720  -21.0271 O   0  0  0  0  0  0  0  0  0  0  0  0
   17.7858   -6.0508  -20.2886 C   0  0  0  0  0  0  0  0  0  0  0  0
   19.0219   -6.4220  -20.8020 C   0  0  0  0  0  0  0  0  0  0  0  0
   20.1634   -6.1995  -20.0643 C   0  0  0  0  0  0  0  0  0  0  0  0
   20.0809   -5.6115  -18.8218 C   0  0  0  0  0  0  0  0  0  0  0  0
   21.3094   -5.3934  -18.0508 C   0  0  0  0  0  0  0  0  0  0  0  0
   21.6219   -6.5002  -17.1047 C   0  0  2  0  0  0  0  0  0  0  0  0
   21.6046   -7.7972  -17.7681 N   0  0  0  0  0  0  0  0  0  0  0  0
   20.6289   -6.5293  -16.0185 C   0  0  0  0  0  0  0  0  0  0  0  0
   20.5389   -5.5316  -15.2573 O   0  0  0  0  0  0  0  0  0  0  0  0
   18.8432   -5.2297  -18.2865 C   0  0  0  0  0  0  0  0  0  0  0  0
   17.7174   -5.4616  -19.0411 C   0  0  0  0  0  0  0  0  0  0  0  0
   19.7633   -7.5757  -15.7524 O   0  0  0  0  0  0  0  0  0  0  0  0
  2  1  1  0
  3  2  2  0
  4  3  1  0
  5 11  1  0
  5  4  2  0
  6  5  1  0
  7  6  1  0
  7  8  1  6
  9  7  1  0
  9 10  2  0
 11 12  2  0
 12  2  1  0
 13 14  1  0
 14 15  2  0
 16 17  1  0
 16 14  1  0
 18 17  1  1
 18 19  1  0
 18 20  1  0
 19  9  1  0
 20 29  1  0
 21 20  2  0
 23 22  1  0
 23 24  2  0
 25 24  1  0
 26 25  2  0
 27 26  1  0
 28 27  1  6
 28 30  1  0
 29 28  1  0
 30 31  2  0
 30 34  1  0
 32 33  2  0
 32 26  1  0
 33 23  1  0
M  END
$$$$
