YQY.pdb
     RDKit          3D

 34 35  0  0  1  0  0  0  0  0999 V2000
   28.7423  -14.8814  -16.1894 O   0  0  0  0  0  0  0  0  0  0  0  0
   27.6997  -14.0111  -16.5471 C   0  0  0  0  0  0  0  0  0  0  0  0
   27.3273  -12.9451  -15.7707 C   0  0  0  0  0  0  0  0  0  0  0  0
   26.3060  -12.0834  -16.1101 C   0  0  0  0  0  0  0  0  0  0  0  0
   25.6339  -12.3130  -17.2874 C   0  0  0  0  0  0  0  0  0  0  0  0
   24.5197  -11.4186  -17.7124 C   0  0  0  0  0  0  0  0  0  0  0  0
   23.2997  -11.8041  -16.9074 C   0  0  2  0  0  0  0  0  0  0  0  0
   23.0197  -13.2021  -17.1093 N   0  0  0  0  0  0  0  0  0  0  0  0
   22.1274  -10.9562  -17.2001 C   0  0  0  0  0  0  0  0  0  0  0  0
   21.2302  -11.3829  -17.9627 O   0  0  0  0  0  0  0  0  0  0  0  0
   25.9999  -13.3896  -18.0850 C   0  0  0  0  0  0  0  0  0  0  0  0
   27.0212  -14.2333  -17.7239 C   0  0  0  0  0  0  0  0  0  0  0  0
   17.8030   -9.1252  -13.9696 N   0  0  0  0  0  0  0  0  0  0  0  0
   19.1359   -9.0246  -13.5045 C   0  0  0  0  0  0  0  0  0  0  0  0
   19.3011   -8.9582  -12.2669 O   0  0  0  0  0  0  0  0  0  0  0  0
   20.2655   -9.0007  -14.4256 C   0  0  0  0  0  0  0  0  0  0  0  0
   19.8446   -8.8547  -15.8482 C   0  0  0  0  0  0  0  0  0  0  0  0
   20.9266   -8.7414  -16.8519 C   0  0  2  0  0  0  0  0  0  0  0  0
   22.0097   -9.6769  -16.6317 N   0  0  0  0  0  0  0  0  0  0  0  0
   21.4119   -7.3148  -16.8757 C   0  0  0  0  0  0  0  0  0  0  0  0
   22.4197   -6.9284  -16.2111 O   0  0  0  0  0  0  0  0  0  0  0  0
   22.0238    0.9536  -19.8562 O   0  0  0  0  0  0  0  0  0  0  0  0
   21.6763   -0.3801  -19.6722 C   0  0  0  0  0  0  0  0  0  0  0  0
   22.5660   -1.3871  -20.0244 C   0  0  0  0  0  0  0  0  0  0  0  0
   22.2143   -2.7057  -19.8390 C   0  0  0  0  0  0  0  0  0  0  0  0
   20.9852   -3.0261  -19.3068 C   0  0  0  0  0  0  0  0  0  0  0  0
   20.6294   -4.4376  -19.1276 C   0  0  0  0  0  0  0  0  0  0  0  0
   21.1112   -5.0135  -17.8415 C   0  0  2  0  0  0  0  0  0  0  0  0
   20.6930   -6.3999  -17.6815 N   0  0  0  0  0  0  0  0  0  0  0  0
   20.5723   -4.2404  -16.7107 C   0  0  0  0  0  0  0  0  0  0  0  0
   21.1583   -3.1797  -16.3721 O   0  0  0  0  0  0  0  0  0  0  0  0
   20.0739   -2.0246  -18.9451 C   0  0  0  0  0  0  0  0  0  0  0  0
   20.4469   -0.7155  -19.1391 C   0  0  0  0  0  0  0  0  0  0  0  0
   19.4536   -4.5787  -15.9698 O   0  0  0  0  0  0  0  0  0  0  0  0
  2  1  1  0
  3  2  2  0
  4  3  1  0
  5 11  1  0
  5  4  2  0
  6  5  1  0
  7  6  1  0
  7  8  1  6
  9  7  1  0
  9 10  2  0
 11 12  2  0
 12  2  1  0
 13 14  1  0
 14 15  2  0
 16 17  1  0
 16 14  1  0
 18 17  1  1
 18 19  1  0
 18 20  1  0
 19  9  1  0
 20 29  1  0
 21 20  2  0
 23 22  1  0
 23 24  2  0
 25 24  1  0
 26 25  2  0
 27 26  1  0
 28 27  1  6
 28 30  1  0
 29 28  1  0
 30 31  2  0
 30 34  1  0
 32 33  2  0
 32 26  1  0
 33 23  1  0
M  END
$$$$
