YQY.pdb
     RDKit          3D

 34 35  0  0  1  0  0  0  0  0999 V2000
   17.0842  -33.3958  -18.7221 O   0  0  0  0  0  0  0  0  0  0  0  0
   18.2735  -33.0781  -18.0464 C   0  0  0  0  0  0  0  0  0  0  0  0
   18.3428  -32.0950  -17.0943 C   0  0  0  0  0  0  0  0  0  0  0  0
   19.5036  -31.7731  -16.4236 C   0  0  0  0  0  0  0  0  0  0  0  0
   20.6427  -32.4788  -16.7321 C   0  0  0  0  0  0  0  0  0  0  0  0
   21.9305  -32.1804  -16.0435 C   0  0  0  0  0  0  0  0  0  0  0  0
   22.0042  -33.0662  -14.8209 C   0  0  2  0  0  0  0  0  0  0  0  0
   21.1815  -32.5078  -13.7794 N   0  0  0  0  0  0  0  0  0  0  0  0
   23.3885  -33.3034  -14.3664 C   0  0  0  0  0  0  0  0  0  0  0  0
   23.7627  -32.8505  -13.2603 O   0  0  0  0  0  0  0  0  0  0  0  0
   20.5881  -33.4783  -17.6950 C   0  0  0  0  0  0  0  0  0  0  0  0
   19.4188  -33.7793  -18.3487 C   0  0  0  0  0  0  0  0  0  0  0  0
   26.8936  -35.4774  -12.0644 N   0  0  0  0  0  0  0  0  0  0  0  0
   25.6951  -36.2190  -12.1939 C   0  0  0  0  0  0  0  0  0  0  0  0
   25.1804  -36.6532  -11.1404 O   0  0  0  0  0  0  0  0  0  0  0  0
   25.0870  -36.4648  -13.4958 C   0  0  0  0  0  0  0  0  0  0  0  0
   25.8459  -35.8342  -14.6132 C   0  0  0  0  0  0  0  0  0  0  0  0
   25.6490  -34.3806  -14.8117 C   0  0  2  0  0  0  0  0  0  0  0  0
   24.2882  -34.0316  -15.1626 N   0  0  0  0  0  0  0  0  0  0  0  0
   26.6368  -33.8988  -15.8428 C   0  0  0  0  0  0  0  0  0  0  0  0
   26.5418  -34.2030  -17.0696 O   0  0  0  0  0  0  0  0  0  0  0  0
   24.4469  -28.0298  -17.9334 O   0  0  0  0  0  0  0  0  0  0  0  0
   25.5296  -28.7694  -17.4703 C   0  0  0  0  0  0  0  0  0  0  0  0
   26.5383  -29.1512  -18.3455 C   0  0  0  0  0  0  0  0  0  0  0  0
   27.6073  -29.8836  -17.8789 C   0  0  0  0  0  0  0  0  0  0  0  0
   27.6768  -30.2371  -16.5497 C   0  0  0  0  0  0  0  0  0  0  0  0
   28.8202  -31.0254  -16.0782 C   0  0  0  0  0  0  0  0  0  0  0  0
   28.6666  -32.4893  -16.3041 C   0  0  2  0  0  0  0  0  0  0  0  0
   27.6963  -33.0769  -15.3898 N   0  0  0  0  0  0  0  0  0  0  0  0
   29.9566  -33.1682  -16.0993 C   0  0  0  0  0  0  0  0  0  0  0  0
   30.0423  -34.0396  -15.1957 O   0  0  0  0  0  0  0  0  0  0  0  0
   26.6691  -29.8613  -15.6510 C   0  0  0  0  0  0  0  0  0  0  0  0
   25.6119  -29.1303  -16.1395 C   0  0  0  0  0  0  0  0  0  0  0  0
   31.1099  -32.9332  -16.8270 O   0  0  0  0  0  0  0  0  0  0  0  0
  2  1  1  0
  3  2  2  0
  4  3  1  0
  5 11  1  0
  5  4  2  0
  6  5  1  0
  7  6  1  0
  7  8  1  1
  9  7  1  0
  9 10  2  0
 11 12  2  0
 12  2  1  0
 13 14  1  0
 14 15  2  0
 16 17  1  0
 16 14  1  0
 18 17  1  6
 18 19  1  0
 18 20  1  0
 19  9  1  0
 20 29  1  0
 21 20  2  0
 23 22  1  0
 23 24  2  0
 25 24  1  0
 26 25  2  0
 27 26  1  0
 28 27  1  1
 28 30  1  0
 29 28  1  0
 30 31  2  0
 30 34  1  0
 32 33  2  0
 32 26  1  0
 33 23  1  0
M  END
$$$$
