YQY.pdb
     RDKit          3D

 34 35  0  0  1  0  0  0  0  0999 V2000
   23.3500  -14.0488  -24.4552 O   0  0  0  0  0  0  0  0  0  0  0  0
   23.4162  -15.0422  -23.4648 C   0  0  0  0  0  0  0  0  0  0  0  0
   23.6252  -14.7539  -22.1415 C   0  0  0  0  0  0  0  0  0  0  0  0
   23.6923  -15.7192  -21.1593 C   0  0  0  0  0  0  0  0  0  0  0  0
   23.5411  -17.0329  -21.5358 C   0  0  0  0  0  0  0  0  0  0  0  0
   23.6032  -18.1249  -20.5230 C   0  0  0  0  0  0  0  0  0  0  0  0
   25.0233  -18.1829  -20.0086 C   0  0  2  0  0  0  0  0  0  0  0  0
   25.9047  -18.5484  -21.0870 N   0  0  0  0  0  0  0  0  0  0  0  0
   25.1754  -19.0746  -18.8421 C   0  0  0  0  0  0  0  0  0  0  0  0
   25.2725  -20.3109  -19.0170 O   0  0  0  0  0  0  0  0  0  0  0  0
   23.3287  -17.3408  -22.8735 C   0  0  0  0  0  0  0  0  0  0  0  0
   23.2660  -16.3601  -23.8324 C   0  0  0  0  0  0  0  0  0  0  0  0
   27.7010  -21.4304  -15.4806 N   0  0  0  0  0  0  0  0  0  0  0  0
   28.3970  -20.3879  -16.1377 C   0  0  0  0  0  0  0  0  0  0  0  0
   29.4837  -20.6853  -16.6797 O   0  0  0  0  0  0  0  0  0  0  0  0
   27.8709  -19.0291  -16.1823 C   0  0  0  0  0  0  0  0  0  0  0  0
   26.5416  -18.9051  -15.5191 C   0  0  0  0  0  0  0  0  0  0  0  0
   25.3620  -19.3095  -16.3165 C   0  0  2  0  0  0  0  0  0  0  0  0
   25.2121  -18.5492  -17.5397 N   0  0  0  0  0  0  0  0  0  0  0  0
   24.1374  -19.2168  -15.4431 C   0  0  0  0  0  0  0  0  0  0  0  0
   23.3727  -18.2059  -15.4495 O   0  0  0  0  0  0  0  0  0  0  0  0
   18.2847  -19.7359   -9.2024 O   0  0  0  0  0  0  0  0  0  0  0  0
   19.3889  -19.6698  -10.0451 C   0  0  0  0  0  0  0  0  0  0  0  0
   20.2854  -20.7291  -10.1036 C   0  0  0  0  0  0  0  0  0  0  0  0
   21.3765  -20.6559  -10.9407 C   0  0  0  0  0  0  0  0  0  0  0  0
   21.5793  -19.5368  -11.7173 C   0  0  0  0  0  0  0  0  0  0  0  0
   22.7536  -19.4780  -12.5940 C   0  0  0  0  0  0  0  0  0  0  0  0
   22.6595  -20.3801  -13.7751 C   0  0  2  0  0  0  0  0  0  0  0  0
   23.8603  -20.3178  -14.5979 N   0  0  0  0  0  0  0  0  0  0  0  0
   21.5116  -19.9951  -14.6123 C   0  0  0  0  0  0  0  0  0  0  0  0
   20.6035  -19.2892  -14.1022 O   0  0  0  0  0  0  0  0  0  0  0  0
   20.6861  -18.4577  -11.6725 C   0  0  0  0  0  0  0  0  0  0  0  0
   19.6040  -18.5534  -10.8295 C   0  0  0  0  0  0  0  0  0  0  0  0
   21.3358  -20.3436  -15.9399 O   0  0  0  0  0  0  0  0  0  0  0  0
  2  1  1  0
  3  2  2  0
  4  3  1  0
  5 11  1  0
  5  4  2  0
  6  5  1  0
  7  6  1  0
  7  8  1  6
  9  7  1  0
  9 10  2  0
 11 12  2  0
 12  2  1  0
 13 14  1  0
 14 15  2  0
 16 17  1  0
 16 14  1  0
 18 17  1  1
 18 19  1  0
 18 20  1  0
 19  9  1  0
 20 29  1  0
 21 20  2  0
 23 22  1  0
 23 24  2  0
 25 24  1  0
 26 25  2  0
 27 26  1  0
 28 27  1  1
 28 30  1  0
 29 28  1  0
 30 31  2  0
 30 34  1  0
 32 33  2  0
 32 26  1  0
 33 23  1  0
M  END
$$$$
