YQY.pdb
     RDKit          3D

 34 35  0  0  1  0  0  0  0  0999 V2000
   32.0769  -16.6205  -18.5216 O   0  0  0  0  0  0  0  0  0  0  0  0
   30.9507  -17.3390  -18.0883 C   0  0  0  0  0  0  0  0  0  0  0  0
   30.5738  -17.3995  -16.7722 C   0  0  0  0  0  0  0  0  0  0  0  0
   29.4709  -18.1010  -16.3335 C   0  0  0  0  0  0  0  0  0  0  0  0
   28.7184  -18.7696  -17.2700 C   0  0  0  0  0  0  0  0  0  0  0  0
   27.5137  -19.5467  -16.8619 C   0  0  0  0  0  0  0  0  0  0  0  0
   27.9889  -20.7011  -16.0096 C   0  0  2  0  0  0  0  0  0  0  0  0
   28.6202  -21.6845  -16.8510 N   0  0  0  0  0  0  0  0  0  0  0  0
   26.9140  -21.2859  -15.1841 C   0  0  0  0  0  0  0  0  0  0  0  0
   26.2561  -22.2572  -15.6227 O   0  0  0  0  0  0  0  0  0  0  0  0
   29.0879  -18.7176  -18.6080 C   0  0  0  0  0  0  0  0  0  0  0  0
   30.1914  -18.0114  -19.0188 C   0  0  0  0  0  0  0  0  0  0  0  0
   24.4701  -21.3340   -8.1315 N   0  0  0  0  0  0  0  0  0  0  0  0
   25.0238  -20.7288   -9.2849 C   0  0  0  0  0  0  0  0  0  0  0  0
   25.7284  -19.7111   -9.1084 O   0  0  0  0  0  0  0  0  0  0  0  0
   24.7853  -21.2676  -10.6182 C   0  0  0  0  0  0  0  0  0  0  0  0
   25.8054  -20.8218  -11.6096 C   0  0  0  0  0  0  0  0  0  0  0  0
   25.5858  -21.2281  -13.0159 C   0  0  2  0  0  0  0  0  0  0  0  0
   26.6231  -20.7633  -13.9130 N   0  0  0  0  0  0  0  0  0  0  0  0
   24.2197  -20.7572  -13.4439 C   0  0  0  0  0  0  0  0  0  0  0  0
   23.8748  -19.5384  -13.3959 O   0  0  0  0  0  0  0  0  0  0  0  0
   16.4089  -21.3179  -17.4575 O   0  0  0  0  0  0  0  0  0  0  0  0
   17.6139  -21.6293  -16.8373 C   0  0  0  0  0  0  0  0  0  0  0  0
   18.8175  -21.3121  -17.4539 C   0  0  0  0  0  0  0  0  0  0  0  0
   20.0067  -21.6238  -16.8330 C   0  0  0  0  0  0  0  0  0  0  0  0
   20.0038  -22.2480  -15.6054 C   0  0  0  0  0  0  0  0  0  0  0  0
   21.2828  -22.5785  -14.9682 C   0  0  0  0  0  0  0  0  0  0  0  0
   21.9778  -21.3986  -14.3830 C   0  0  2  0  0  0  0  0  0  0  0  0
   23.3142  -21.7387  -13.9129 N   0  0  0  0  0  0  0  0  0  0  0  0
   21.2102  -20.8781  -13.2399 C   0  0  0  0  0  0  0  0  0  0  0  0
   20.4773  -19.8704  -13.4149 O   0  0  0  0  0  0  0  0  0  0  0  0
   18.7999  -22.5760  -14.9671 C   0  0  0  0  0  0  0  0  0  0  0  0
   17.6254  -22.2550  -15.6059 C   0  0  0  0  0  0  0  0  0  0  0  0
   21.2181  -21.4081  -11.9617 O   0  0  0  0  0  0  0  0  0  0  0  0
  2  1  1  0
  3  2  2  0
  4  3  1  0
  5 11  1  0
  5  4  2  0
  6  5  1  0
  7  6  1  0
  7  8  1  6
  9  7  1  0
  9 10  2  0
 11 12  2  0
 12  2  1  0
 13 14  1  0
 14 15  2  0
 16 17  1  0
 16 14  1  0
 18 17  1  1
 18 19  1  0
 18 20  1  0
 19  9  1  0
 20 29  1  0
 21 20  2  0
 23 22  1  0
 23 24  2  0
 25 24  1  0
 26 25  2  0
 27 26  1  0
 28 27  1  1
 28 30  1  0
 29 28  1  0
 30 31  2  0
 30 34  1  0
 32 33  2  0
 32 26  1  0
 33 23  1  0
M  END
$$$$
