YQY.pdb
     RDKit          3D

 34 35  0  0  1  0  0  0  0  0999 V2000
   31.1556  -16.6376  -18.8420 O   0  0  0  0  0  0  0  0  0  0  0  0
   30.0562  -17.2437  -18.2125 C   0  0  0  0  0  0  0  0  0  0  0  0
   28.9437  -17.6526  -18.9002 C   0  0  0  0  0  0  0  0  0  0  0  0
   27.8578  -18.2487  -18.2947 C   0  0  0  0  0  0  0  0  0  0  0  0
   27.9027  -18.4379  -16.9336 C   0  0  0  0  0  0  0  0  0  0  0  0
   26.7618  -19.0765  -16.2178 C   0  0  0  0  0  0  0  0  0  0  0  0
   27.2177  -20.4480  -15.7753 C   0  0  2  0  0  0  0  0  0  0  0  0
   27.5810  -21.2241  -16.9325 N   0  0  0  0  0  0  0  0  0  0  0  0
   26.2217  -21.1404  -14.9341 C   0  0  0  0  0  0  0  0  0  0  0  0
   25.2475  -21.7135  -15.4737 O   0  0  0  0  0  0  0  0  0  0  0  0
   29.0237  -18.0285  -16.2229 C   0  0  0  0  0  0  0  0  0  0  0  0
   30.0923  -17.4371  -16.8502 C   0  0  0  0  0  0  0  0  0  0  0  0
   24.8684  -21.0289   -8.8074 N   0  0  0  0  0  0  0  0  0  0  0  0
   25.9356  -20.2865   -9.3668 C   0  0  0  0  0  0  0  0  0  0  0  0
   26.2811  -19.2475   -8.7632 O   0  0  0  0  0  0  0  0  0  0  0  0
   26.6033  -20.7138  -10.5902 C   0  0  0  0  0  0  0  0  0  0  0  0
   25.9301  -21.8759  -11.2369 C   0  0  0  0  0  0  0  0  0  0  0  0
   25.3755  -21.6521  -12.5909 C   0  0  2  0  0  0  0  0  0  0  0  0
   26.3570  -21.1620  -13.5360 N   0  0  0  0  0  0  0  0  0  0  0  0
   24.1922  -20.7257  -12.4779 C   0  0  0  0  0  0  0  0  0  0  0  0
   24.3019  -19.5289  -12.0750 O   0  0  0  0  0  0  0  0  0  0  0  0
   17.2017  -16.3605  -14.8375 O   0  0  0  0  0  0  0  0  0  0  0  0
   18.3207  -17.1714  -14.6832 C   0  0  0  0  0  0  0  0  0  0  0  0
   19.4881  -16.6519  -14.1385 C   0  0  0  0  0  0  0  0  0  0  0  0
   20.5922  -17.4615  -13.9890 C   0  0  0  0  0  0  0  0  0  0  0  0
   20.5403  -18.7815  -14.3782 C   0  0  0  0  0  0  0  0  0  0  0  0
   21.7318  -19.6217  -14.2179 C   0  0  0  0  0  0  0  0  0  0  0  0
   21.7444  -20.3993  -12.9479 C   0  0  2  0  0  0  0  0  0  0  0  0
   22.9272  -21.2437  -12.8447 N   0  0  0  0  0  0  0  0  0  0  0  0
   20.5567  -21.2660  -12.8767 C   0  0  0  0  0  0  0  0  0  0  0  0
   19.6034  -20.9219  -12.1312 O   0  0  0  0  0  0  0  0  0  0  0  0
   19.3718  -19.3243  -14.9297 C   0  0  0  0  0  0  0  0  0  0  0  0
   18.2823  -18.4971  -15.0691 C   0  0  0  0  0  0  0  0  0  0  0  0
   20.3866  -22.4505  -13.5716 O   0  0  0  0  0  0  0  0  0  0  0  0
  2  1  1  0
  3  2  2  0
  4  3  1  0
  5 11  1  0
  5  4  2  0
  6  5  1  0
  7  6  1  0
  7  8  1  6
  9  7  1  0
  9 10  2  0
 11 12  2  0
 12  2  1  0
 13 14  1  0
 14 15  2  0
 16 17  1  0
 16 14  1  0
 18 17  1  1
 18 19  1  0
 18 20  1  0
 19  9  1  0
 20 29  1  0
 21 20  2  0
 23 22  1  0
 23 24  2  0
 25 24  1  0
 26 25  2  0
 27 26  1  0
 28 27  1  6
 28 30  1  0
 29 28  1  0
 30 31  2  0
 30 34  1  0
 32 33  2  0
 32 26  1  0
 33 23  1  0
M  END
$$$$
