YQY.pdb
     RDKit          3D

 34 35  0  0  1  0  0  0  0  0999 V2000
   23.4496  -15.1919  -19.3830 O   0  0  0  0  0  0  0  0  0  0  0  0
   22.7994  -14.0561  -18.8736 C   0  0  0  0  0  0  0  0  0  0  0  0
   23.0089  -12.7978  -19.3742 C   0  0  0  0  0  0  0  0  0  0  0  0
   22.3774  -11.6746  -18.8837 C   0  0  0  0  0  0  0  0  0  0  0  0
   21.4959  -11.8350  -17.8408 C   0  0  0  0  0  0  0  0  0  0  0  0
   20.7802  -10.6614  -17.2643 C   0  0  0  0  0  0  0  0  0  0  0  0
   21.7951   -9.8479  -16.4941 C   0  0  2  0  0  0  0  0  0  0  0  0
   22.2789  -10.6227  -15.3809 N   0  0  0  0  0  0  0  0  0  0  0  0
   21.2745   -8.5334  -16.0697 C   0  0  0  0  0  0  0  0  0  0  0  0
   20.6052   -8.4443  -15.0149 O   0  0  0  0  0  0  0  0  0  0  0  0
   21.2731  -13.1044  -17.3227 C   0  0  0  0  0  0  0  0  0  0  0  0
   21.9152  -14.2071  -17.8297 C   0  0  0  0  0  0  0  0  0  0  0  0
   24.1003   -3.1319  -17.3216 N   0  0  0  0  0  0  0  0  0  0  0  0
   22.8962   -2.6901  -16.7232 C   0  0  0  0  0  0  0  0  0  0  0  0
   22.8109   -1.4723  -16.4529 O   0  0  0  0  0  0  0  0  0  0  0  0
   21.8040   -3.6119  -16.4360 C   0  0  0  0  0  0  0  0  0  0  0  0
   22.1033   -5.0087  -16.8623 C   0  0  0  0  0  0  0  0  0  0  0  0
   21.0947   -6.0369  -16.5212 C   0  0  2  0  0  0  0  0  0  0  0  0
   21.5229   -7.3835  -16.8376 N   0  0  0  0  0  0  0  0  0  0  0  0
   19.7989   -5.6837  -17.2048 C   0  0  0  0  0  0  0  0  0  0  0  0
   19.5743   -5.9611  -18.4211 O   0  0  0  0  0  0  0  0  0  0  0  0
   11.3475   -3.8286  -18.2025 O   0  0  0  0  0  0  0  0  0  0  0  0
   12.5979   -4.2021  -17.7222 C   0  0  0  0  0  0  0  0  0  0  0  0
   13.7258   -3.4709  -18.0722 C   0  0  0  0  0  0  0  0  0  0  0  0
   14.9607   -3.8473  -17.5924 C   0  0  0  0  0  0  0  0  0  0  0  0
   15.0781   -4.9448  -16.7688 C   0  0  0  0  0  0  0  0  0  0  0  0
   16.4049   -5.3319  -16.2779 C   0  0  0  0  0  0  0  0  0  0  0  0
   17.5228   -4.6410  -16.9784 C   0  0  2  0  0  0  0  0  0  0  0  0
   18.8184   -5.0194  -16.4299 N   0  0  0  0  0  0  0  0  0  0  0  0
   17.3773   -3.1826  -16.8421 C   0  0  0  0  0  0  0  0  0  0  0  0
   16.9552   -2.5242  -17.8278 O   0  0  0  0  0  0  0  0  0  0  0  0
   13.9520   -5.6953  -16.4042 C   0  0  0  0  0  0  0  0  0  0  0  0
   12.7298   -5.3005  -16.8952 C   0  0  0  0  0  0  0  0  0  0  0  0
   17.6662   -2.4518  -15.7031 O   0  0  0  0  0  0  0  0  0  0  0  0
  2  1  1  0
  3  2  2  0
  4  3  1  0
  5 11  1  0
  5  4  2  0
  6  5  1  0
  7  6  1  0
  7  8  1  1
  9  7  1  0
  9 10  2  0
 11 12  2  0
 12  2  1  0
 13 14  1  0
 14 15  2  0
 16 17  1  0
 16 14  1  0
 18 17  1  6
 18 19  1  0
 18 20  1  0
 19  9  1  0
 20 29  1  0
 21 20  2  0
 23 22  1  0
 23 24  2  0
 25 24  1  0
 26 25  2  0
 27 26  1  0
 28 27  1  1
 28 30  1  0
 29 28  1  0
 30 31  2  0
 30 34  1  0
 32 33  2  0
 32 26  1  0
 33 23  1  0
M  END
$$$$
