EQS.pdb
     RDKit          3D

 25 24  0  0  1  0  0  0  0  0999 V2000
   10.2045  -17.2105   20.4229 N   0  0  0  0  0  0  0  0  0  0  0  0
    9.0208  -16.3727   20.2624 C   0  0  1  0  0  0  0  0  0  0  0  0
    8.0587  -17.1711   19.4077 C   0  0  0  0  0  0  0  0  0  0  0  0
    8.6247  -17.3178   18.0096 C   0  0  0  0  0  0  0  0  0  0  0  0
    7.6359  -18.0354   17.1792 C   0  0  0  0  0  0  0  0  0  0  0  0
    7.7166  -19.2601   17.0092 O   0  0  0  0  0  0  0  0  0  0  0  0
    8.4871  -16.1149   21.6226 C   0  0  0  0  0  0  0  0  0  0  0  0
    7.4135  -15.4888   21.8300 O   0  0  0  0  0  0  0  0  0  0  0  0
    6.5908  -17.2908   16.5848 O   0  0  0  0  0  0  0  0  0  0  0  0
   11.2677  -17.5137   27.5555 N   0  0  0  0  0  0  0  0  0  0  0  0
    9.9206  -17.9606   27.4061 C   0  0  0  0  0  0  0  0  0  0  0  0
    9.5603  -18.9583   28.0568 O   0  0  0  0  0  0  0  0  0  0  0  0
    9.0599  -17.1866   26.4786 C   0  0  0  0  0  0  0  0  0  0  0  0
    9.5317  -17.2446   25.0581 C   0  0  0  0  0  0  0  0  0  0  0  0
    8.6210  -16.4413   24.1202 C   0  0  2  0  0  0  0  0  0  0  0  0
    9.1782  -16.5737   22.8010 N   0  0  0  0  0  0  0  0  0  0  0  0
    8.6571  -15.0504   24.6256 C   0  0  0  0  0  0  0  0  0  0  0  0
    9.7383  -14.4298   24.4776 O   0  0  0  0  0  0  0  0  0  0  0  0
    5.4388  -13.0659   26.2939 O   0  0  0  0  0  0  0  0  0  0  0  0
    6.3749  -12.3020   25.5948 C   0  0  0  0  0  0  0  0  0  0  0  0
    7.6857  -13.0346   25.6976 C   0  0  2  0  0  0  0  0  0  0  0  0
    7.5781  -14.4007   25.2446 N   0  0  0  0  0  0  0  0  0  0  0  0
    8.1625  -12.9672   27.1186 C   0  0  0  0  0  0  0  0  0  0  0  0
    8.3188  -14.0381   27.7455 O   0  0  0  0  0  0  0  0  0  0  0  0
    8.4245  -11.7381   27.7170 O   0  0  0  0  0  0  0  0  0  0  0  0
  2  1  1  1
  2  7  1  0
  3  2  1  0
  4  3  1  0
  5  4  1  0
  5  6  2  0
  7  8  2  0
  9  5  1  0
 10 11  1  0
 11 12  2  0
 13 11  1  0
 13 14  1  0
 15 14  1  1
 16  7  1  0
 16 15  1  0
 17 18  2  0
 17 15  1  0
 19 20  1  0
 21 20  1  1
 21 22  1  0
 21 23  1  0
 22 17  1  0
 23 25  1  0
 24 23  2  0
M  END
$$$$
