EQS.pdb
     RDKit          3D

 25 24  0  0  1  0  0  0  0  0999 V2000
    8.3610  -19.0123   19.6659 N   0  0  0  0  0  0  0  0  0  0  0  0
    9.4009  -19.9040   20.1680 C   0  0  1  0  0  0  0  0  0  0  0  0
    9.5647  -20.9843   19.1193 C   0  0  0  0  0  0  0  0  0  0  0  0
    8.1998  -21.4709   18.6757 C   0  0  0  0  0  0  0  0  0  0  0  0
    8.2779  -22.9270   18.4395 C   0  0  0  0  0  0  0  0  0  0  0  0
    7.7922  -23.7301   19.2485 O   0  0  0  0  0  0  0  0  0  0  0  0
   10.6280  -19.0862   20.3323 C   0  0  0  0  0  0  0  0  0  0  0  0
   11.7154  -19.5601   20.7572 O   0  0  0  0  0  0  0  0  0  0  0  0
    8.9180  -23.3837   17.2640 O   0  0  0  0  0  0  0  0  0  0  0  0
   11.3917  -13.3747   17.7951 N   0  0  0  0  0  0  0  0  0  0  0  0
   12.6561  -13.5439   18.4350 C   0  0  0  0  0  0  0  0  0  0  0  0
   13.5515  -12.7159   18.1880 O   0  0  0  0  0  0  0  0  0  0  0  0
   12.7914  -14.7046   19.3488 C   0  0  0  0  0  0  0  0  0  0  0  0
   11.6020  -15.6146   19.3173 C   0  0  0  0  0  0  0  0  0  0  0  0
   11.8187  -16.8680   20.1753 C   0  0  2  0  0  0  0  0  0  0  0  0
   10.6445  -17.6817   20.0097 N   0  0  0  0  0  0  0  0  0  0  0  0
   11.9904  -16.3769   21.5611 C   0  0  0  0  0  0  0  0  0  0  0  0
   11.0210  -15.7518   22.0568 O   0  0  0  0  0  0  0  0  0  0  0  0
   12.3260  -17.1350   25.8153 O   0  0  0  0  0  0  0  0  0  0  0  0
   12.1662  -17.3246   24.4416 C   0  0  0  0  0  0  0  0  0  0  0  0
   13.1276  -16.3839   23.7663 C   0  0  2  0  0  0  0  0  0  0  0  0
   13.1460  -16.5660   22.3347 N   0  0  0  0  0  0  0  0  0  0  0  0
   14.4913  -16.5848   24.3591 C   0  0  0  0  0  0  0  0  0  0  0  0
   15.3848  -17.0849   23.6410 O   0  0  0  0  0  0  0  0  0  0  0  0
   14.7481  -16.2187   25.6772 O   0  0  0  0  0  0  0  0  0  0  0  0
  2  1  1  6
  2  7  1  0
  3  2  1  0
  4  3  1  0
  5  4  1  0
  5  6  2  0
  7  8  2  0
  9  5  1  0
 10 11  1  0
 11 12  2  0
 13 11  1  0
 13 14  1  0
 15 14  1  6
 16  7  1  0
 16 15  1  0
 17 18  2  0
 17 15  1  0
 19 20  1  0
 21 20  1  1
 21 22  1  0
 21 23  1  0
 22 17  1  0
 23 25  1  0
 24 23  2  0
M  END
$$$$
