EQS.pdb
     RDKit          3D

 25 24  0  0  1  0  0  0  0  0999 V2000
   12.3109  -16.8388   18.4517 N   0  0  0  0  0  0  0  0  0  0  0  0
   13.3366  -15.8157   18.6245 C   0  0  1  0  0  0  0  0  0  0  0  0
   13.6846  -15.3358   17.2309 C   0  0  0  0  0  0  0  0  0  0  0  0
   13.1678  -16.3287   16.2092 C   0  0  0  0  0  0  0  0  0  0  0  0
   13.6496  -15.9180   14.8746 C   0  0  0  0  0  0  0  0  0  0  0  0
   14.7230  -16.3448   14.4263 O   0  0  0  0  0  0  0  0  0  0  0  0
   12.7398  -14.7431   19.4581 C   0  0  0  0  0  0  0  0  0  0  0  0
   13.3990  -13.7548   19.8779 O   0  0  0  0  0  0  0  0  0  0  0  0
   12.8536  -15.0274   14.1175 O   0  0  0  0  0  0  0  0  0  0  0  0
    6.8574  -13.5281   19.2460 N   0  0  0  0  0  0  0  0  0  0  0  0
    7.9013  -13.4024   18.2810 C   0  0  0  0  0  0  0  0  0  0  0  0
    7.5804  -13.2932   17.0837 O   0  0  0  0  0  0  0  0  0  0  0  0
    9.2919  -13.4124   18.7974 C   0  0  0  0  0  0  0  0  0  0  0  0
    9.3606  -13.5444   20.2879 C   0  0  0  0  0  0  0  0  0  0  0  0
   10.7883  -13.8315   20.7709 C   0  0  2  0  0  0  0  0  0  0  0  0
   11.3505  -14.7728   19.8403 N   0  0  0  0  0  0  0  0  0  0  0  0
   10.6428  -14.3854   22.1359 C   0  0  0  0  0  0  0  0  0  0  0  0
    9.7426  -13.8809   22.8509 O   0  0  0  0  0  0  0  0  0  0  0  0
    9.2226  -17.9896   23.9381 O   0  0  0  0  0  0  0  0  0  0  0  0
    9.6495  -17.0565   22.9917 C   0  0  0  0  0  0  0  0  0  0  0  0
   10.8788  -16.4017   23.5624 C   0  0  2  0  0  0  0  0  0  0  0  0
   11.4333  -15.4178   22.6639 N   0  0  0  0  0  0  0  0  0  0  0  0
   11.8820  -17.4684   23.8896 C   0  0  0  0  0  0  0  0  0  0  0  0
   11.5732  -18.3371   24.7345 O   0  0  0  0  0  0  0  0  0  0  0  0
   13.1241  -17.4847   23.2614 O   0  0  0  0  0  0  0  0  0  0  0  0
  2  1  1  6
  2  7  1  0
  3  2  1  0
  4  3  1  0
  5  4  1  0
  5  6  2  0
  7  8  2  0
  9  5  1  0
 10 11  1  0
 11 12  2  0
 13 11  1  0
 13 14  1  0
 15 14  1  6
 16  7  1  0
 16 15  1  0
 17 18  2  0
 17 15  1  0
 19 20  1  0
 21 20  1  6
 21 22  1  0
 21 23  1  0
 22 17  1  0
 23 25  1  0
 24 23  2  0
M  END
$$$$
