EQS.pdb
     RDKit          3D

 25 24  0  0  1  0  0  0  0  0999 V2000
    8.4957  -12.6374   19.1385 N   0  0  0  0  0  0  0  0  0  0  0  0
    7.5454  -13.3483   19.9872 C   0  0  1  0  0  0  0  0  0  0  0  0
    7.1200  -14.5713   19.2018 C   0  0  0  0  0  0  0  0  0  0  0  0
    8.3442  -15.2568   18.6291 C   0  0  0  0  0  0  0  0  0  0  0  0
    7.9036  -16.4590   17.8924 C   0  0  0  0  0  0  0  0  0  0  0  0
    7.9933  -16.5176   16.6580 O   0  0  0  0  0  0  0  0  0  0  0  0
    8.2634  -13.7015   21.2367 C   0  0  0  0  0  0  0  0  0  0  0  0
    9.5187  -13.7864   21.3049 O   0  0  0  0  0  0  0  0  0  0  0  0
    7.3796  -17.5453   18.6310 O   0  0  0  0  0  0  0  0  0  0  0  0
    5.3288  -13.3242   26.6975 N   0  0  0  0  0  0  0  0  0  0  0  0
    6.0174  -12.1925   26.1667 C   0  0  0  0  0  0  0  0  0  0  0  0
    5.7260  -11.0684   26.6138 O   0  0  0  0  0  0  0  0  0  0  0  0
    7.0315  -12.4602   25.1176 C   0  0  0  0  0  0  0  0  0  0  0  0
    7.1861  -13.9187   24.8133 C   0  0  0  0  0  0  0  0  0  0  0  0
    8.2294  -14.1660   23.7158 C   0  0  2  0  0  0  0  0  0  0  0  0
    7.5534  -13.9715   22.4614 N   0  0  0  0  0  0  0  0  0  0  0  0
    8.6921  -15.5582   23.9128 C   0  0  0  0  0  0  0  0  0  0  0  0
    7.9462  -16.4636   23.4657 O   0  0  0  0  0  0  0  0  0  0  0  0
   12.2588  -16.6180   23.7392 O   0  0  0  0  0  0  0  0  0  0  0  0
   11.3750  -17.6974   23.7864 C   0  0  0  0  0  0  0  0  0  0  0  0
   10.2644  -17.2990   24.7210 C   0  0  2  0  0  0  0  0  0  0  0  0
    9.8880  -15.9158   24.5542 N   0  0  0  0  0  0  0  0  0  0  0  0
   10.6992  -17.5799   26.1294 C   0  0  0  0  0  0  0  0  0  0  0  0
   10.6716  -16.6442   26.9587 O   0  0  0  0  0  0  0  0  0  0  0  0
   11.1197  -18.8550   26.4965 O   0  0  0  0  0  0  0  0  0  0  0  0
  2  1  1  6
  2  7  1  0
  3  2  1  0
  4  3  1  0
  5  4  1  0
  5  6  2  0
  7  8  2  0
  9  5  1  0
 10 11  1  0
 11 12  2  0
 13 11  1  0
 13 14  1  0
 15 14  1  1
 16  7  1  0
 16 15  1  0
 17 18  2  0
 17 15  1  0
 19 20  1  0
 21 20  1  6
 21 22  1  0
 21 23  1  0
 22 17  1  0
 23 25  1  0
 24 23  2  0
M  END
$$$$
