EQS.pdb
     RDKit          3D

 25 24  0  0  1  0  0  0  0  0999 V2000
    6.7470  -16.4017   20.3967 N   0  0  0  0  0  0  0  0  0  0  0  0
    8.1051  -16.9196   20.5231 C   0  0  1  0  0  0  0  0  0  0  0  0
    8.7665  -16.6850   19.1810 C   0  0  0  0  0  0  0  0  0  0  0  0
    7.7140  -16.3160   18.1550 C   0  0  0  0  0  0  0  0  0  0  0  0
    8.3769  -16.1521   16.8451 C   0  0  0  0  0  0  0  0  0  0  0  0
    8.7301  -15.0334   16.4461 O   0  0  0  0  0  0  0  0  0  0  0  0
    8.7580  -16.1563   21.6152 C   0  0  0  0  0  0  0  0  0  0  0  0
   10.0090  -16.0600   21.7308 O   0  0  0  0  0  0  0  0  0  0  0  0
    8.6030  -17.3046   16.0574 O   0  0  0  0  0  0  0  0  0  0  0  0
    5.6663  -12.6952   25.9342 N   0  0  0  0  0  0  0  0  0  0  0  0
    6.9991  -12.6252   26.4396 C   0  0  0  0  0  0  0  0  0  0  0  0
    7.2218  -11.8621   27.3969 O   0  0  0  0  0  0  0  0  0  0  0  0
    8.0116  -13.4790   25.7715 C   0  0  0  0  0  0  0  0  0  0  0  0
    7.4923  -14.1396   24.5315 C   0  0  0  0  0  0  0  0  0  0  0  0
    8.5681  -14.9905   23.8439 C   0  0  2  0  0  0  0  0  0  0  0  0
    7.9850  -15.4718   22.6206 N   0  0  0  0  0  0  0  0  0  0  0  0
    8.8868  -16.0763   24.7983 C   0  0  0  0  0  0  0  0  0  0  0  0
    7.9707  -16.9026   25.0310 O   0  0  0  0  0  0  0  0  0  0  0  0
   12.5449  -17.4663   25.4871 O   0  0  0  0  0  0  0  0  0  0  0  0
   11.4377  -18.2670   25.7722 C   0  0  0  0  0  0  0  0  0  0  0  0
   10.3771  -17.3497   26.3192 C   0  0  2  0  0  0  0  0  0  0  0  0
   10.1243  -16.2323   25.4416 N   0  0  0  0  0  0  0  0  0  0  0  0
   10.7998  -16.8875   27.6827 C   0  0  0  0  0  0  0  0  0  0  0  0
   10.9096  -15.6586   27.8871 O   0  0  0  0  0  0  0  0  0  0  0  0
   11.0596  -17.8110   28.6912 O   0  0  0  0  0  0  0  0  0  0  0  0
  2  1  1  6
  2  7  1  0
  3  2  1  0
  4  3  1  0
  5  4  1  0
  5  6  2  0
  7  8  2  0
  9  5  1  0
 10 11  1  0
 11 12  2  0
 13 11  1  0
 13 14  1  0
 15 14  1  1
 16  7  1  0
 16 15  1  0
 17 18  2  0
 17 15  1  0
 19 20  1  0
 21 20  1  6
 21 22  1  0
 21 23  1  0
 22 17  1  0
 23 25  1  0
 24 23  2  0
M  END
$$$$
