EQS.pdb
     RDKit          3D

 25 24  0  0  1  0  0  0  0  0999 V2000
   10.3185  -20.1040   16.1664 N   0  0  0  0  0  0  0  0  0  0  0  0
   11.1462  -20.9312   17.0378 C   0  0  1  0  0  0  0  0  0  0  0  0
   12.5773  -20.6875   16.6062 C   0  0  0  0  0  0  0  0  0  0  0  0
   12.9732  -19.2642   16.9442 C   0  0  0  0  0  0  0  0  0  0  0  0
   14.3221  -19.0130   16.3969 C   0  0  0  0  0  0  0  0  0  0  0  0
   14.9231  -19.8884   15.7584 O   0  0  0  0  0  0  0  0  0  0  0  0
   10.8918  -20.4815   18.4286 C   0  0  0  0  0  0  0  0  0  0  0  0
   10.1225  -19.5238   18.7091 O   0  0  0  0  0  0  0  0  0  0  0  0
   14.9108  -17.7459   16.6159 O   0  0  0  0  0  0  0  0  0  0  0  0
   12.8022  -23.7254   23.4918 N   0  0  0  0  0  0  0  0  0  0  0  0
   12.1425  -22.6352   24.1345 C   0  0  0  0  0  0  0  0  0  0  0  0
   12.0823  -22.6393   25.3774 O   0  0  0  0  0  0  0  0  0  0  0  0
   11.5818  -21.5817   23.2534 C   0  0  0  0  0  0  0  0  0  0  0  0
   11.8973  -21.8020   21.8057 C   0  0  0  0  0  0  0  0  0  0  0  0
   11.2560  -20.7323   20.9120 C   0  0  2  0  0  0  0  0  0  0  0  0
   11.5207  -21.1253   19.5541 N   0  0  0  0  0  0  0  0  0  0  0  0
   11.9121  -19.4583   21.2829 C   0  0  0  0  0  0  0  0  0  0  0  0
   13.0600  -19.2633   20.8133 O   0  0  0  0  0  0  0  0  0  0  0  0
   10.0724  -16.5026   23.4266 O   0  0  0  0  0  0  0  0  0  0  0  0
   11.0347  -16.0862   22.5052 C   0  0  0  0  0  0  0  0  0  0  0  0
   12.0078  -17.2254   22.3604 C   0  0  2  0  0  0  0  0  0  0  0  0
   11.3385  -18.4789   22.1084 N   0  0  0  0  0  0  0  0  0  0  0  0
   12.8504  -17.2966   23.5998 C   0  0  0  0  0  0  0  0  0  0  0  0
   12.7698  -18.3183   24.3165 O   0  0  0  0  0  0  0  0  0  0  0  0
   13.7007  -16.2470   23.9357 O   0  0  0  0  0  0  0  0  0  0  0  0
  2  1  1  6
  2  7  1  0
  3  2  1  0
  4  3  1  0
  5  4  1  0
  5  6  2  0
  7  8  2  0
  9  5  1  0
 10 11  1  0
 11 12  2  0
 13 11  1  0
 13 14  1  0
 15 14  1  1
 16  7  1  0
 16 15  1  0
 17 18  2  0
 17 15  1  0
 19 20  1  0
 21 20  1  1
 21 22  1  0
 21 23  1  0
 22 17  1  0
 23 25  1  0
 24 23  2  0
M  END
$$$$
