EQS.pdb
     RDKit          3D

 25 24  0  0  1  0  0  0  0  0999 V2000
   13.7934  -15.4249   17.1656 N   0  0  0  0  0  0  0  0  0  0  0  0
   12.5062  -16.0941   17.0104 C   0  0  1  0  0  0  0  0  0  0  0  0
   12.6198  -16.9277   15.7511 C   0  0  0  0  0  0  0  0  0  0  0  0
   13.8707  -16.5321   14.9926 C   0  0  0  0  0  0  0  0  0  0  0  0
   13.9502  -17.3503   13.7653 C   0  0  0  0  0  0  0  0  0  0  0  0
   14.8744  -18.1584   13.5978 O   0  0  0  0  0  0  0  0  0  0  0  0
   12.3039  -16.9264   18.2219 C   0  0  0  0  0  0  0  0  0  0  0  0
   11.3423  -17.7308   18.3478 O   0  0  0  0  0  0  0  0  0  0  0  0
   12.9425  -17.1921   12.7857 O   0  0  0  0  0  0  0  0  0  0  0  0
   15.9555  -21.0662   19.2585 N   0  0  0  0  0  0  0  0  0  0  0  0
   15.7711  -20.1465   20.3341 C   0  0  0  0  0  0  0  0  0  0  0  0
   16.7717  -19.8089   20.9924 O   0  0  0  0  0  0  0  0  0  0  0  0
   14.3874  -19.6687   20.5736 C   0  0  0  0  0  0  0  0  0  0  0  0
   14.3260  -18.2190   20.9457 C   0  0  0  0  0  0  0  0  0  0  0  0
   12.9824  -17.5865   20.5600 C   0  0  2  0  0  0  0  0  0  0  0  0
   13.2107  -16.8599   19.3401 N   0  0  0  0  0  0  0  0  0  0  0  0
   12.6152  -16.7095   21.6946 C   0  0  0  0  0  0  0  0  0  0  0  0
   13.3377  -15.6990   21.8766 O   0  0  0  0  0  0  0  0  0  0  0  0
    9.0100  -16.6833   23.4234 O   0  0  0  0  0  0  0  0  0  0  0  0
    9.8045  -15.5474   23.5881 C   0  0  0  0  0  0  0  0  0  0  0  0
   11.2302  -16.0274   23.6369 C   0  0  2  0  0  0  0  0  0  0  0  0
   11.5316  -16.9362   22.5571 N   0  0  0  0  0  0  0  0  0  0  0  0
   11.4755  -16.6665   24.9721 C   0  0  0  0  0  0  0  0  0  0  0  0
   11.7542  -17.8852   25.0065 O   0  0  0  0  0  0  0  0  0  0  0  0
   11.3950  -15.9132   26.1398 O   0  0  0  0  0  0  0  0  0  0  0  0
  2  1  1  1
  2  7  1  0
  3  2  1  0
  4  3  1  0
  5  4  1  0
  5  6  2  0
  7  8  2  0
  9  5  1  0
 10 11  1  0
 11 12  2  0
 13 11  1  0
 13 14  1  0
 15 14  1  1
 16  7  1  0
 16 15  1  0
 17 18  2  0
 17 15  1  0
 19 20  1  0
 21 20  1  1
 21 22  1  0
 21 23  1  0
 22 17  1  0
 23 25  1  0
 24 23  2  0
M  END
$$$$
