EQS.pdb
     RDKit          3D

 25 24  0  0  1  0  0  0  0  0999 V2000
   11.2323  -18.4072   20.9128 N   0  0  0  0  0  0  0  0  0  0  0  0
   12.1751  -18.2540   22.0157 C   0  0  1  0  0  0  0  0  0  0  0  0
   13.0981  -17.1205   21.6197 C   0  0  0  0  0  0  0  0  0  0  0  0
   14.1336  -17.6299   20.6374 C   0  0  0  0  0  0  0  0  0  0  0  0
   15.4690  -17.4902   21.2533 C   0  0  0  0  0  0  0  0  0  0  0  0
   15.9138  -18.3620   22.0132 O   0  0  0  0  0  0  0  0  0  0  0  0
   11.3763  -17.9353   23.2248 C   0  0  0  0  0  0  0  0  0  0  0  0
   10.2457  -17.3816   23.1726 O   0  0  0  0  0  0  0  0  0  0  0  0
   16.2310  -16.3376   20.9516 O   0  0  0  0  0  0  0  0  0  0  0  0
   12.7290  -20.2300   28.9366 N   0  0  0  0  0  0  0  0  0  0  0  0
   11.5591  -19.4735   29.2464 C   0  0  0  0  0  0  0  0  0  0  0  0
   11.1080  -19.5427   30.4041 O   0  0  0  0  0  0  0  0  0  0  0  0
   10.9790  -18.6623   28.1484 C   0  0  0  0  0  0  0  0  0  0  0  0
   11.6807  -18.8629   26.8403 C   0  0  0  0  0  0  0  0  0  0  0  0
   11.0762  -17.9951   25.7286 C   0  0  2  0  0  0  0  0  0  0  0  0
   11.8572  -18.2461   24.5473 N   0  0  0  0  0  0  0  0  0  0  0  0
   11.1871  -16.5993   26.2086 C   0  0  0  0  0  0  0  0  0  0  0  0
   12.1818  -15.9472   25.8064 O   0  0  0  0  0  0  0  0  0  0  0  0
    8.1367  -14.2884   26.9230 O   0  0  0  0  0  0  0  0  0  0  0  0
    9.3917  -13.7277   26.6798 C   0  0  0  0  0  0  0  0  0  0  0  0
   10.3903  -14.5820   27.4135 C   0  0  2  0  0  0  0  0  0  0  0  0
   10.2663  -15.9772   27.0658 N   0  0  0  0  0  0  0  0  0  0  0  0
   10.2112  -14.3695   28.8880 C   0  0  0  0  0  0  0  0  0  0  0  0
    9.9199  -15.3552   29.6005 O   0  0  0  0  0  0  0  0  0  0  0  0
   10.3697  -13.1025   29.4422 O   0  0  0  0  0  0  0  0  0  0  0  0
  2  1  1  6
  2  7  1  0
  3  2  1  0
  4  3  1  0
  5  4  1  0
  5  6  2  0
  7  8  2  0
  9  5  1  0
 10 11  1  0
 11 12  2  0
 13 11  1  0
 13 14  1  0
 15 14  1  1
 16  7  1  0
 16 15  1  0
 17 18  2  0
 17 15  1  0
 19 20  1  0
 21 20  1  6
 21 22  1  0
 21 23  1  0
 22 17  1  0
 23 25  1  0
 24 23  2  0
M  END
$$$$
