EQS.pdb
     RDKit          3D

 25 24  0  0  1  0  0  0  0  0999 V2000
    9.5094  -17.5796   20.3889 N   0  0  0  0  0  0  0  0  0  0  0  0
   10.2768  -17.8865   21.5913 C   0  0  1  0  0  0  0  0  0  0  0  0
   11.5995  -17.1654   21.4360 C   0  0  0  0  0  0  0  0  0  0  0  0
   12.4252  -17.8467   20.3633 C   0  0  0  0  0  0  0  0  0  0  0  0
   13.7398  -17.1768   20.2909 C   0  0  0  0  0  0  0  0  0  0  0  0
   14.4441  -17.0461   21.3020 O   0  0  0  0  0  0  0  0  0  0  0  0
    9.4912  -17.3826   22.7447 C   0  0  0  0  0  0  0  0  0  0  0  0
    8.7230  -16.3868   22.6677 O   0  0  0  0  0  0  0  0  0  0  0  0
   14.1782  -16.6907   19.0373 O   0  0  0  0  0  0  0  0  0  0  0  0
    8.2871  -20.7954   27.8720 N   0  0  0  0  0  0  0  0  0  0  0  0
    7.4457  -19.6646   28.0960 C   0  0  0  0  0  0  0  0  0  0  0  0
    6.6291  -19.7202   29.0333 O   0  0  0  0  0  0  0  0  0  0  0  0
    7.6222  -18.5101   27.1814 C   0  0  0  0  0  0  0  0  0  0  0  0
    8.5387  -18.8081   26.0347 C   0  0  0  0  0  0  0  0  0  0  0  0
    8.7744  -17.5728   25.1556 C   0  0  2  0  0  0  0  0  0  0  0  0
    9.5645  -18.0141   24.0380 N   0  0  0  0  0  0  0  0  0  0  0  0
    9.4846  -16.6009   26.0172 C   0  0  0  0  0  0  0  0  0  0  0  0
   10.7240  -16.7613   26.1367 O   0  0  0  0  0  0  0  0  0  0  0  0
    8.5064  -12.8768   26.4340 O   0  0  0  0  0  0  0  0  0  0  0  0
    8.9090  -13.3091   27.6987 C   0  0  0  0  0  0  0  0  0  0  0  0
    9.6333  -14.6125   27.4937 C   0  0  2  0  0  0  0  0  0  0  0  0
    8.8676  -15.5357   26.6910 N   0  0  0  0  0  0  0  0  0  0  0  0
    9.9579  -15.1970   28.8369 C   0  0  0  0  0  0  0  0  0  0  0  0
    9.6245  -16.3801   29.0675 O   0  0  0  0  0  0  0  0  0  0  0  0
   10.6166  -14.4346   29.7973 O   0  0  0  0  0  0  0  0  0  0  0  0
  2  1  1  6
  2  7  1  0
  3  2  1  0
  4  3  1  0
  5  4  1  0
  5  6  2  0
  7  8  2  0
  9  5  1  0
 10 11  1  0
 11 12  2  0
 13 11  1  0
 13 14  1  0
 15 14  1  1
 16  7  1  0
 16 15  1  0
 17 18  2  0
 17 15  1  0
 19 20  1  0
 21 20  1  1
 21 22  1  0
 21 23  1  0
 22 17  1  0
 23 25  1  0
 24 23  2  0
M  END
$$$$
