EQS.pdb
     RDKit          3D

 25 24  0  0  1  0  0  0  0  0999 V2000
    7.6533  -13.8682   16.7203 N   0  0  0  0  0  0  0  0  0  0  0  0
    8.1397  -15.1314   17.2647 C   0  0  1  0  0  0  0  0  0  0  0  0
    9.5765  -15.2578   16.8027 C   0  0  0  0  0  0  0  0  0  0  0  0
    9.6162  -15.9467   15.4534 C   0  0  0  0  0  0  0  0  0  0  0  0
   11.0192  -15.9903   14.9932 C   0  0  0  0  0  0  0  0  0  0  0  0
   11.2916  -16.1668   13.7974 O   0  0  0  0  0  0  0  0  0  0  0  0
    8.0279  -15.0364   18.7411 C   0  0  0  0  0  0  0  0  0  0  0  0
    8.4010  -14.0246   19.3927 O   0  0  0  0  0  0  0  0  0  0  0  0
   12.0461  -15.8215   15.9508 O   0  0  0  0  0  0  0  0  0  0  0  0
    3.6730  -17.6928   22.0915 N   0  0  0  0  0  0  0  0  0  0  0  0
    4.5259  -18.5656   21.3515 C   0  0  0  0  0  0  0  0  0  0  0  0
    4.1129  -19.7124   21.1011 O   0  0  0  0  0  0  0  0  0  0  0  0
    5.8434  -18.0212   20.9413 C   0  0  0  0  0  0  0  0  0  0  0  0
    6.0445  -16.5981   21.3632 C   0  0  0  0  0  0  0  0  0  0  0  0
    7.4291  -16.0732   20.9613 C   0  0  2  0  0  0  0  0  0  0  0  0
    7.4776  -16.1136   19.5245 N   0  0  0  0  0  0  0  0  0  0  0  0
    8.4022  -16.9890   21.5981 C   0  0  0  0  0  0  0  0  0  0  0  0
    9.5644  -16.9875   21.1234 O   0  0  0  0  0  0  0  0  0  0  0  0
    8.4171  -16.5613   25.4321 O   0  0  0  0  0  0  0  0  0  0  0  0
    9.3905  -16.7484   24.4494 C   0  0  0  0  0  0  0  0  0  0  0  0
    9.0500  -18.0377   23.7514 C   0  0  2  0  0  0  0  0  0  0  0  0
    8.1080  -17.8377   22.6764 N   0  0  0  0  0  0  0  0  0  0  0  0
    8.5208  -19.0073   24.7668 C   0  0  0  0  0  0  0  0  0  0  0  0
    7.3383  -19.3990   24.6561 O   0  0  0  0  0  0  0  0  0  0  0  0
    9.3340  -19.4570   25.8032 O   0  0  0  0  0  0  0  0  0  0  0  0
  2  1  1  6
  2  7  1  0
  3  2  1  0
  4  3  1  0
  5  4  1  0
  5  6  2  0
  7  8  2  0
  9  5  1  0
 10 11  1  0
 11 12  2  0
 13 11  1  0
 13 14  1  0
 15 14  1  6
 16  7  1  0
 16 15  1  0
 17 18  2  0
 17 15  1  0
 19 20  1  0
 21 20  1  1
 21 22  1  0
 21 23  1  0
 22 17  1  0
 23 25  1  0
 24 23  2  0
M  END
$$$$
