EQS.pdb
     RDKit          3D

 25 24  0  0  1  0  0  0  0  0999 V2000
    9.7742  -17.4757   21.1372 N   0  0  0  0  0  0  0  0  0  0  0  0
    8.8457  -16.3777   20.8902 C   0  0  1  0  0  0  0  0  0  0  0  0
    7.8753  -16.8812   19.8421 C   0  0  0  0  0  0  0  0  0  0  0  0
    7.5114  -18.3221   20.1390 C   0  0  0  0  0  0  0  0  0  0  0  0
    6.5507  -18.7809   19.1151 C   0  0  0  0  0  0  0  0  0  0  0  0
    6.3807  -18.1392   18.0688 O   0  0  0  0  0  0  0  0  0  0  0  0
    8.1777  -16.0791   22.1809 C   0  0  0  0  0  0  0  0  0  0  0  0
    7.2468  -15.2372   22.2918 O   0  0  0  0  0  0  0  0  0  0  0  0
    5.8308  -19.9742   19.3557 O   0  0  0  0  0  0  0  0  0  0  0  0
    6.1799  -21.1321   24.4419 N   0  0  0  0  0  0  0  0  0  0  0  0
    6.8200  -20.1073   25.2014 C   0  0  0  0  0  0  0  0  0  0  0  0
    7.0942  -20.3466   26.3914 O   0  0  0  0  0  0  0  0  0  0  0  0
    7.1055  -18.8339   24.4963 C   0  0  0  0  0  0  0  0  0  0  0  0
    7.7711  -17.8174   25.3724 C   0  0  0  0  0  0  0  0  0  0  0  0
    7.9320  -16.4675   24.6611 C   0  0  2  0  0  0  0  0  0  0  0  0
    8.5628  -16.7459   23.3990 N   0  0  0  0  0  0  0  0  0  0  0  0
    8.7729  -15.6429   25.5577 C   0  0  0  0  0  0  0  0  0  0  0  0
   10.0151  -15.7916   25.4521 O   0  0  0  0  0  0  0  0  0  0  0  0
    7.6501  -12.1685   26.9573 O   0  0  0  0  0  0  0  0  0  0  0  0
    8.4326  -12.7656   27.9471 C   0  0  0  0  0  0  0  0  0  0  0  0
    9.1600  -13.9055   27.2862 C   0  0  2  0  0  0  0  0  0  0  0  0
    8.2741  -14.7259   26.4957 N   0  0  0  0  0  0  0  0  0  0  0  0
    9.8501  -14.7127   28.3462 C   0  0  0  0  0  0  0  0  0  0  0  0
    9.6403  -15.9449   28.3871 O   0  0  0  0  0  0  0  0  0  0  0  0
   10.7038  -14.0973   29.2572 O   0  0  0  0  0  0  0  0  0  0  0  0
  2  1  1  1
  2  7  1  0
  3  2  1  0
  4  3  1  0
  5  4  1  0
  5  6  2  0
  7  8  2  0
  9  5  1  0
 10 11  1  0
 11 12  2  0
 13 11  1  0
 13 14  1  0
 15 14  1  1
 16  7  1  0
 16 15  1  0
 17 18  2  0
 17 15  1  0
 19 20  1  0
 21 20  1  1
 21 22  1  0
 21 23  1  0
 22 17  1  0
 23 25  1  0
 24 23  2  0
M  END
$$$$
