EQS.pdb
     RDKit          3D

 25 24  0  0  1  0  0  0  0  0999 V2000
    9.8013  -14.5623   16.2998 N   0  0  0  0  0  0  0  0  0  0  0  0
    8.8676  -15.5535   16.8237 C   0  0  1  0  0  0  0  0  0  0  0  0
    8.6387  -16.5438   15.7010 C   0  0  0  0  0  0  0  0  0  0  0  0
    8.3730  -15.7946   14.4108 C   0  0  0  0  0  0  0  0  0  0  0  0
    8.0730  -16.7805   13.3524 C   0  0  0  0  0  0  0  0  0  0  0  0
    8.9576  -17.1721   12.5781 O   0  0  0  0  0  0  0  0  0  0  0  0
    9.5173  -16.1772   18.0029 C   0  0  0  0  0  0  0  0  0  0  0  0
    8.9814  -17.1010   18.6715 O   0  0  0  0  0  0  0  0  0  0  0  0
    6.7508  -17.2709   13.2460 O   0  0  0  0  0  0  0  0  0  0  0  0
   15.2283  -13.6081   17.8989 N   0  0  0  0  0  0  0  0  0  0  0  0
   14.8163  -14.7170   18.6972 C   0  0  0  0  0  0  0  0  0  0  0  0
   15.6898  -15.5125   19.0880 O   0  0  0  0  0  0  0  0  0  0  0  0
   13.3668  -14.8233   18.9942 C   0  0  0  0  0  0  0  0  0  0  0  0
   12.9546  -16.2030   19.4067 C   0  0  0  0  0  0  0  0  0  0  0  0
   11.4400  -16.3039   19.6306 C   0  0  2  0  0  0  0  0  0  0  0  0
   10.8182  -15.7541   18.4562 N   0  0  0  0  0  0  0  0  0  0  0  0
   11.1650  -15.5154   20.8528 C   0  0  0  0  0  0  0  0  0  0  0  0
   11.0506  -14.2741   20.7031 O   0  0  0  0  0  0  0  0  0  0  0  0
    8.2829  -16.2409   23.0098 O   0  0  0  0  0  0  0  0  0  0  0  0
    8.9585  -15.0225   22.9224 C   0  0  0  0  0  0  0  0  0  0  0  0
   10.4070  -15.3165   23.2069 C   0  0  2  0  0  0  0  0  0  0  0  0
   11.0270  -16.0620   22.1380 N   0  0  0  0  0  0  0  0  0  0  0  0
   10.4996  -16.0532   24.5107 C   0  0  0  0  0  0  0  0  0  0  0  0
   10.8901  -17.2412   24.4967 O   0  0  0  0  0  0  0  0  0  0  0  0
   10.1592  -15.4214   25.7034 O   0  0  0  0  0  0  0  0  0  0  0  0
  2  1  1  6
  2  7  1  0
  3  2  1  0
  4  3  1  0
  5  4  1  0
  5  6  2  0
  7  8  2  0
  9  5  1  0
 10 11  1  0
 11 12  2  0
 13 11  1  0
 13 14  1  0
 15 14  1  6
 16  7  1  0
 16 15  1  0
 17 18  2  0
 17 15  1  0
 19 20  1  0
 21 20  1  6
 21 22  1  0
 21 23  1  0
 22 17  1  0
 23 25  1  0
 24 23  2  0
M  END
$$$$
