TGP.pdb
     RDKit          3D

 19 19  0  0  1  0  0  0  0  0999 V2000
   22.8776  -17.0269  -18.4994 C   0  0  0  0  0  0  0  0  0  0  0  0
   23.4871  -17.9488  -17.4997 C   0  0  1  0  0  0  0  0  0  0  0  0
   22.9971  -19.2456  -17.7409 O   0  0  0  0  0  0  0  0  0  0  0  0
   24.9808  -17.9910  -17.5617 C   0  0  2  0  0  0  0  0  0  0  0  0
   25.3827  -18.5480  -18.8343 N   0  0  0  0  0  0  0  0  0  0  0  0
   25.5066  -18.7640  -16.4049 C   0  0  0  0  0  0  0  0  0  0  0  0
   25.8133  -19.9812  -16.5466 O   0  0  0  0  0  0  0  0  0  0  0  0
   25.6986  -18.2263  -15.1052 N   0  0  0  0  0  0  0  0  0  0  0  0
   26.1459  -19.0191  -13.9830 C   0  0  0  0  0  0  0  0  0  0  0  0
   25.0251  -19.7821  -13.3399 C   0  0  0  0  0  0  0  0  0  0  0  0
   23.9144  -19.6336  -13.8685 O   0  0  0  0  0  0  0  0  0  0  0  0
   25.2302  -20.6026  -12.2198 N   0  0  0  0  0  0  0  0  0  0  0  0
   26.5913  -21.1302  -11.9148 C   0  0  0  0  0  0  0  0  0  0  0  0
   26.6473  -21.2666  -10.4132 C   0  0  0  0  0  0  0  0  0  0  0  0
   25.2990  -20.7638   -9.9486 C   0  0  0  0  0  0  0  0  0  0  0  0
   24.4386  -21.1581  -11.1819 C   0  0  1  0  0  0  0  0  0  0  0  0
   23.0733  -20.7295  -11.0016 C   0  0  0  0  0  0  0  0  0  0  0  0
   22.1275  -21.4996  -10.8404 O   0  0  0  0  0  0  0  0  0  0  0  0
   22.7553  -19.3572  -11.0028 O   0  0  0  0  0  0  0  0  0  0  0  0
  2  1  1  6
  3  2  1  0
  4  2  1  0
  4  5  1  6
  6  8  1  0
  6  4  1  0
  7  6  2  0
  9  8  1  0
 10  9  1  0
 11 10  2  0
 12 10  1  0
 12 16  1  0
 13 14  1  0
 13 12  1  0
 14 15  1  0
 16 15  1  0
 17 19  1  0
 16 17  1  1
 18 17  2  0
M  END
$$$$
