TGP.pdb
     RDKit          3D

 19 19  0  0  1  0  0  0  0  0999 V2000
   40.7659   -3.1501  -10.9686 C   0  0  0  0  0  0  0  0  0  0  0  0
   39.4107   -3.6164  -10.5602 C   0  0  1  0  0  0  0  0  0  0  0  0
   38.4668   -3.0426  -11.4318 O   0  0  0  0  0  0  0  0  0  0  0  0
   39.2529   -5.1029  -10.6082 C   0  0  2  0  0  0  0  0  0  0  0  0
   37.8604   -5.4344  -10.4023 N   0  0  0  0  0  0  0  0  0  0  0  0
   40.1479   -5.7324   -9.6009 C   0  0  0  0  0  0  0  0  0  0  0  0
   39.9008   -5.6030   -8.3689 O   0  0  0  0  0  0  0  0  0  0  0  0
   41.3014   -6.4950   -9.9222 N   0  0  0  0  0  0  0  0  0  0  0  0
   42.1682   -7.0722   -8.9206 C   0  0  0  0  0  0  0  0  0  0  0  0
   41.4935   -8.1628   -8.1414 C   0  0  0  0  0  0  0  0  0  0  0  0
   40.2705   -8.0276   -7.9952 O   0  0  0  0  0  0  0  0  0  0  0  0
   42.2052   -9.2541   -7.6195 N   0  0  0  0  0  0  0  0  0  0  0  0
   43.3347   -9.8509   -8.3889 C   0  0  0  0  0  0  0  0  0  0  0  0
   44.2945  -10.3843   -7.3541 C   0  0  0  0  0  0  0  0  0  0  0  0
   43.6529  -10.0173   -6.0349 C   0  0  0  0  0  0  0  0  0  0  0  0
   42.1569  -10.0630   -6.4551 C   0  0  1  0  0  0  0  0  0  0  0  0
   41.3109   -9.6913   -5.3476 C   0  0  0  0  0  0  0  0  0  0  0  0
   41.2672   -8.5599   -4.8665 O   0  0  0  0  0  0  0  0  0  0  0  0
   40.4670  -10.6469   -4.7485 O   0  0  0  0  0  0  0  0  0  0  0  0
  2  1  1  6
  3  2  1  0
  4  2  1  0
  4  5  1  1
  6  8  1  0
  6  4  1  0
  7  6  2  0
  9  8  1  0
 10  9  1  0
 11 10  2  0
 12 10  1  0
 12 16  1  0
 13 14  1  0
 13 12  1  0
 14 15  1  0
 16 15  1  0
 17 19  1  0
 16 17  1  1
 18 17  2  0
M  END
$$$$
