TGP.pdb
     RDKit          3D

 19 19  0  0  1  0  0  0  0  0999 V2000
   17.8176  -10.8587  -21.6354 C   0  0  0  0  0  0  0  0  0  0  0  0
   19.1727  -10.6502  -21.0512 C   0  0  1  0  0  0  0  0  0  0  0  0
   19.1669   -9.4297  -20.3511 O   0  0  0  0  0  0  0  0  0  0  0  0
   19.5868  -11.7329  -20.1063 C   0  0  2  0  0  0  0  0  0  0  0  0
   18.6001  -11.8415  -19.0547 N   0  0  0  0  0  0  0  0  0  0  0  0
   20.9506  -11.4469  -19.5866 C   0  0  0  0  0  0  0  0  0  0  0  0
   21.9442  -11.4885  -20.3655 O   0  0  0  0  0  0  0  0  0  0  0  0
   21.2388  -11.1193  -18.2356 N   0  0  0  0  0  0  0  0  0  0  0  0
   22.5761  -10.8529  -17.7578 C   0  0  0  0  0  0  0  0  0  0  0  0
   22.5827  -10.2649  -16.3772 C   0  0  0  0  0  0  0  0  0  0  0  0
   21.5070   -9.7729  -16.0082 O   0  0  0  0  0  0  0  0  0  0  0  0
   23.7302  -10.2762  -15.5691 N   0  0  0  0  0  0  0  0  0  0  0  0
   24.8599  -11.1979  -15.8824 C   0  0  0  0  0  0  0  0  0  0  0  0
   26.1052  -10.4910  -15.4066 C   0  0  0  0  0  0  0  0  0  0  0  0
   25.5965   -9.1701  -14.8747 C   0  0  0  0  0  0  0  0  0  0  0  0
   24.1830   -9.6107  -14.4009 C   0  0  1  0  0  0  0  0  0  0  0  0
   23.4520   -8.4823  -13.8789 C   0  0  0  0  0  0  0  0  0  0  0  0
   22.8233   -8.5011  -12.8215 O   0  0  0  0  0  0  0  0  0  0  0  0
   23.4276   -7.2647  -14.5868 O   0  0  0  0  0  0  0  0  0  0  0  0
  2  1  1  1
  3  2  1  0
  4  2  1  0
  4  5  1  1
  6  8  1  0
  6  4  1  0
  7  6  2  0
  9  8  1  0
 10  9  1  0
 11 10  2  0
 12 10  1  0
 12 16  1  0
 13 14  1  0
 13 12  1  0
 14 15  1  0
 16 15  1  0
 17 19  1  0
 16 17  1  6
 18 17  2  0
M  END
$$$$
