TGP.pdb
     RDKit          3D

 19 19  0  0  1  0  0  0  0  0999 V2000
   14.8029   -4.6353  -14.8651 C   0  0  0  0  0  0  0  0  0  0  0  0
   15.8945   -5.5636  -14.4555 C   0  0  1  0  0  0  0  0  0  0  0  0
   15.3121   -6.7861  -14.0732 O   0  0  0  0  0  0  0  0  0  0  0  0
   16.8854   -5.8340  -15.5426 C   0  0  2  0  0  0  0  0  0  0  0  0
   16.2131   -6.4995  -16.6363 N   0  0  0  0  0  0  0  0  0  0  0  0
   18.0195   -6.6273  -14.9979 C   0  0  0  0  0  0  0  0  0  0  0  0
   18.7929   -6.1155  -14.1402 O   0  0  0  0  0  0  0  0  0  0  0  0
   18.3161   -7.9626  -15.3776 N   0  0  0  0  0  0  0  0  0  0  0  0
   19.3893   -8.7294  -14.7876 C   0  0  0  0  0  0  0  0  0  0  0  0
   20.6964   -8.5199  -15.4943 C   0  0  0  0  0  0  0  0  0  0  0  0
   20.6224   -7.9105  -16.5706 O   0  0  0  0  0  0  0  0  0  0  0  0
   21.9107   -8.9848  -14.9660 N   0  0  0  0  0  0  0  0  0  0  0  0
   22.0274   -9.2937  -13.5117 C   0  0  0  0  0  0  0  0  0  0  0  0
   23.0465  -10.4019  -13.4120 C   0  0  0  0  0  0  0  0  0  0  0  0
   23.4254  -10.6821  -14.8489 C   0  0  0  0  0  0  0  0  0  0  0  0
   23.2139   -9.2649  -15.4517 C   0  0  1  0  0  0  0  0  0  0  0  0
   23.4726   -9.2771  -16.8706 C   0  0  0  0  0  0  0  0  0  0  0  0
   24.3571   -8.6159  -17.4129 O   0  0  0  0  0  0  0  0  0  0  0  0
   22.6919  -10.0785  -17.7265 O   0  0  0  0  0  0  0  0  0  0  0  0
  2  1  1  6
  3  2  1  0
  4  2  1  0
  4  5  1  6
  6  8  1  0
  6  4  1  0
  7  6  2  0
  9  8  1  0
 10  9  1  0
 11 10  2  0
 12 10  1  0
 12 16  1  0
 13 14  1  0
 13 12  1  0
 14 15  1  0
 16 15  1  0
 17 19  1  0
 16 17  1  6
 18 17  2  0
M  END
$$$$
