TGP.pdb
     RDKit          3D

 19 19  0  0  1  0  0  0  0  0999 V2000
   19.4078  -15.8417  -18.3436 C   0  0  0  0  0  0  0  0  0  0  0  0
   19.0736  -15.0605  -19.5680 C   0  0  1  0  0  0  0  0  0  0  0  0
   18.0429  -15.7323  -20.2508 O   0  0  0  0  0  0  0  0  0  0  0  0
   18.6157  -13.6665  -19.2784 C   0  0  2  0  0  0  0  0  0  0  0  0
   18.1612  -13.0563  -20.5081 N   0  0  0  0  0  0  0  0  0  0  0  0
   19.7168  -12.9039  -18.6318 C   0  0  0  0  0  0  0  0  0  0  0  0
   20.5659  -12.2965  -19.3429 O   0  0  0  0  0  0  0  0  0  0  0  0
   19.8994  -12.7992  -17.2278 N   0  0  0  0  0  0  0  0  0  0  0  0
   20.9894  -12.0643  -16.6280 C   0  0  0  0  0  0  0  0  0  0  0  0
   20.5417  -10.7592  -16.0380 C   0  0  0  0  0  0  0  0  0  0  0  0
   19.4891  -10.3023  -16.5055 O   0  0  0  0  0  0  0  0  0  0  0  0
   21.2700  -10.1101  -15.0290 N   0  0  0  0  0  0  0  0  0  0  0  0
   22.3833  -10.8175  -14.3333 C   0  0  0  0  0  0  0  0  0  0  0  0
   23.3695   -9.7427  -13.9473 C   0  0  0  0  0  0  0  0  0  0  0  0
   22.7579   -8.4712  -14.4911 C   0  0  0  0  0  0  0  0  0  0  0  0
   21.2526   -8.8450  -14.3871 C   0  0  1  0  0  0  0  0  0  0  0  0
   20.4316   -7.7789  -14.9064 C   0  0  0  0  0  0  0  0  0  0  0  0
   19.4779   -7.2900  -14.3021 O   0  0  0  0  0  0  0  0  0  0  0  0
   20.6993   -7.2327  -16.1769 O   0  0  0  0  0  0  0  0  0  0  0  0
  2  1  1  1
  3  2  1  0
  4  2  1  0
  4  5  1  6
  6  8  1  0
  6  4  1  0
  7  6  2  0
  9  8  1  0
 10  9  1  0
 11 10  2  0
 12 10  1  0
 12 16  1  0
 13 14  1  0
 13 12  1  0
 14 15  1  0
 16 15  1  0
 17 19  1  0
 16 17  1  6
 18 17  2  0
M  END
$$$$
