TGP.pdb
     RDKit          3D

 19 19  0  0  1  0  0  0  0  0999 V2000
   20.9466  -19.3060  -19.2491 C   0  0  0  0  0  0  0  0  0  0  0  0
   21.7753  -19.6670  -18.0643 C   0  0  1  0  0  0  0  0  0  0  0  0
   21.8577  -21.0700  -17.9959 O   0  0  0  0  0  0  0  0  0  0  0  0
   23.1646  -19.1160  -18.1192 C   0  0  2  0  0  0  0  0  0  0  0  0
   23.8258  -19.6257  -19.3000 N   0  0  0  0  0  0  0  0  0  0  0  0
   23.8867  -19.4572  -16.8645 C   0  0  0  0  0  0  0  0  0  0  0  0
   24.5582  -20.5248  -16.7934 O   0  0  0  0  0  0  0  0  0  0  0  0
   23.8824  -18.6517  -15.6955 N   0  0  0  0  0  0  0  0  0  0  0  0
   24.6078  -19.0011  -14.4957 C   0  0  0  0  0  0  0  0  0  0  0  0
   23.9245  -20.0813  -13.7094 C   0  0  0  0  0  0  0  0  0  0  0  0
   22.7812  -20.3687  -14.0910 O   0  0  0  0  0  0  0  0  0  0  0  0
   24.5442  -20.7148  -12.6212 N   0  0  0  0  0  0  0  0  0  0  0  0
   26.0274  -20.8660  -12.5857 C   0  0  0  0  0  0  0  0  0  0  0  0
   26.4041  -20.8378  -11.1249 C   0  0  0  0  0  0  0  0  0  0  0  0
   25.0873  -20.6325  -10.4104 C   0  0  0  0  0  0  0  0  0  0  0  0
   24.1362  -21.3411  -11.4154 C   0  0  1  0  0  0  0  0  0  0  0  0
   22.7677  -21.2392  -10.9716 C   0  0  0  0  0  0  0  0  0  0  0  0
   22.1071  -22.1913  -10.5583 O   0  0  0  0  0  0  0  0  0  0  0  0
   22.1059  -19.9958  -10.9943 O   0  0  0  0  0  0  0  0  0  0  0  0
  2  1  1  6
  3  2  1  0
  4  2  1  0
  4  5  1  6
  6  8  1  0
  6  4  1  0
  7  6  2  0
  9  8  1  0
 10  9  1  0
 11 10  2  0
 12 10  1  0
 12 16  1  0
 13 14  1  0
 13 12  1  0
 14 15  1  0
 16 15  1  0
 17 19  1  0
 16 17  1  1
 18 17  2  0
M  END
$$$$
