TGP.pdb
     RDKit          3D

 19 19  0  0  1  0  0  0  0  0999 V2000
   15.3378  -14.2733  -17.8444 C   0  0  0  0  0  0  0  0  0  0  0  0
   16.4770  -13.5750  -17.1844 C   0  0  1  0  0  0  0  0  0  0  0  0
   15.9639  -12.7911  -16.1346 O   0  0  0  0  0  0  0  0  0  0  0  0
   17.4999  -14.5079  -16.6186 C   0  0  2  0  0  0  0  0  0  0  0  0
   16.8641  -15.3682  -15.6455 N   0  0  0  0  0  0  0  0  0  0  0  0
   18.6258  -13.7245  -16.0436 C   0  0  0  0  0  0  0  0  0  0  0  0
   18.8523  -13.7641  -14.8015 O   0  0  0  0  0  0  0  0  0  0  0  0
   19.4995  -12.9040  -16.8045 N   0  0  0  0  0  0  0  0  0  0  0  0
   20.6634  -12.2587  -16.2417 C   0  0  0  0  0  0  0  0  0  0  0  0
   20.3202  -10.9853  -15.5259 C   0  0  0  0  0  0  0  0  0  0  0  0
   19.1700  -10.5661  -15.7172 O   0  0  0  0  0  0  0  0  0  0  0  0
   21.2428  -10.3236  -14.7008 N   0  0  0  0  0  0  0  0  0  0  0  0
   22.4282  -11.0526  -14.1649 C   0  0  0  0  0  0  0  0  0  0  0  0
   23.5141  -10.0145  -14.0235 C   0  0  0  0  0  0  0  0  0  0  0  0
   22.8740   -8.7425  -14.5322 C   0  0  0  0  0  0  0  0  0  0  0  0
   21.3951   -9.0267  -14.1464 C   0  0  1  0  0  0  0  0  0  0  0  0
   20.5443   -7.9466  -14.5820 C   0  0  0  0  0  0  0  0  0  0  0  0
   19.7967   -7.3172  -13.8346 O   0  0  0  0  0  0  0  0  0  0  0  0
   20.5346   -7.5532  -15.9345 O   0  0  0  0  0  0  0  0  0  0  0  0
  2  1  1  1
  3  2  1  0
  4  2  1  0
  4  5  1  1
  6  8  1  0
  6  4  1  0
  7  6  2  0
  9  8  1  0
 10  9  1  0
 11 10  2  0
 12 10  1  0
 12 16  1  0
 13 14  1  0
 13 12  1  0
 14 15  1  0
 16 15  1  0
 17 19  1  0
 16 17  1  6
 18 17  2  0
M  END
$$$$
