TGP.pdb
     RDKit          3D

 19 19  0  0  1  0  0  0  0  0999 V2000
   23.9813  -20.2887  -16.8611 C   0  0  0  0  0  0  0  0  0  0  0  0
   24.4027  -20.1471  -15.4386 C   0  0  1  0  0  0  0  0  0  0  0  0
   24.0604  -21.3304  -14.7585 O   0  0  0  0  0  0  0  0  0  0  0  0
   25.8711  -19.9168  -15.2727 C   0  0  2  0  0  0  0  0  0  0  0  0
   26.5883  -21.0524  -15.8087 N   0  0  0  0  0  0  0  0  0  0  0  0
   26.1783  -19.6685  -13.8388 C   0  0  0  0  0  0  0  0  0  0  0  0
   25.6608  -18.6812  -13.2445 O   0  0  0  0  0  0  0  0  0  0  0  0
   27.0385  -20.4800  -13.0535 N   0  0  0  0  0  0  0  0  0  0  0  0
   27.3273  -20.2073  -11.6642 C   0  0  0  0  0  0  0  0  0  0  0  0
   26.4198  -20.9579  -10.7342 C   0  0  0  0  0  0  0  0  0  0  0  0
   25.5963  -21.7010  -11.2864 O   0  0  0  0  0  0  0  0  0  0  0  0
   26.5054  -20.8214   -9.3400 N   0  0  0  0  0  0  0  0  0  0  0  0
   27.8229  -20.5646   -8.6903 C   0  0  0  0  0  0  0  0  0  0  0  0
   27.5162  -19.7527   -7.4561 C   0  0  0  0  0  0  0  0  0  0  0  0
   26.0164  -19.5658   -7.5033 C   0  0  0  0  0  0  0  0  0  0  0  0
   25.6167  -20.8775   -8.2356 C   0  0  1  0  0  0  0  0  0  0  0  0
   24.1914  -20.9195   -8.4522 C   0  0  0  0  0  0  0  0  0  0  0  0
   23.4321  -21.6985   -7.8774 O   0  0  0  0  0  0  0  0  0  0  0  0
   23.5872  -20.0351   -9.3671 O   0  0  0  0  0  0  0  0  0  0  0  0
  2  1  1  6
  3  2  1  0
  4  2  1  0
  4  5  1  1
  6  8  1  0
  6  4  1  0
  7  6  2  0
  9  8  1  0
 10  9  1  0
 11 10  2  0
 12 10  1  0
 12 16  1  0
 13 14  1  0
 13 12  1  0
 14 15  1  0
 16 15  1  0
 17 19  1  0
 16 17  1  6
 18 17  2  0
M  END
$$$$
