TGP.pdb
     RDKit          3D

 19 19  0  0  1  0  0  0  0  0999 V2000
   43.9895  -12.5917  -10.8473 C   0  0  0  0  0  0  0  0  0  0  0  0
   44.2446  -13.4361   -9.6461 C   0  0  1  0  0  0  0  0  0  0  0  0
   45.4516  -14.1314   -9.8454 O   0  0  0  0  0  0  0  0  0  0  0  0
   44.3580  -12.6501   -8.3789 C   0  0  2  0  0  0  0  0  0  0  0  0
   44.7709  -13.5352   -7.3124 N   0  0  0  0  0  0  0  0  0  0  0  0
   43.0648  -11.9727   -8.0945 C   0  0  0  0  0  0  0  0  0  0  0  0
   42.0226  -12.6593   -7.8992 O   0  0  0  0  0  0  0  0  0  0  0  0
   42.8988  -10.5647   -8.0226 N   0  0  0  0  0  0  0  0  0  0  0  0
   41.6222   -9.9335   -7.7783 C   0  0  0  0  0  0  0  0  0  0  0  0
   40.8397   -9.7203   -9.0409 C   0  0  0  0  0  0  0  0  0  0  0  0
   41.4787   -9.8783  -10.0906 O   0  0  0  0  0  0  0  0  0  0  0  0
   39.4815   -9.3672   -9.0238 N   0  0  0  0  0  0  0  0  0  0  0  0
   38.6477   -9.6490   -7.8199 C   0  0  0  0  0  0  0  0  0  0  0  0
   37.6014   -8.5624   -7.7867 C   0  0  0  0  0  0  0  0  0  0  0  0
   37.9363   -7.6941   -8.9785 C   0  0  0  0  0  0  0  0  0  0  0  0
   38.5534   -8.7702   -9.9153 C   0  0  1  0  0  0  0  0  0  0  0  0
   39.0111   -8.1669  -11.1429 C   0  0  0  0  0  0  0  0  0  0  0  0
   38.6037   -8.4868  -12.2588 O   0  0  0  0  0  0  0  0  0  0  0  0
   39.9818   -7.1466  -11.1122 O   0  0  0  0  0  0  0  0  0  0  0  0
  2  1  1  6
  3  2  1  0
  4  2  1  0
  4  5  1  1
  6  8  1  0
  6  4  1  0
  7  6  2  0
  9  8  1  0
 10  9  1  0
 11 10  2  0
 12 10  1  0
 12 16  1  0
 13 14  1  0
 13 12  1  0
 14 15  1  0
 16 15  1  0
 17 19  1  0
 16 17  1  6
 18 17  2  0
M  END
$$$$
