TGP.pdb
     RDKit          3D

 19 19  0  0  1  0  0  0  0  0999 V2000
   18.7928   -9.4266  -15.6883 C   0  0  0  0  0  0  0  0  0  0  0  0
   19.4494   -8.1491  -16.0857 C   0  0  1  0  0  0  0  0  0  0  0  0
   18.4435   -7.2115  -16.3836 O   0  0  0  0  0  0  0  0  0  0  0  0
   20.3278   -7.5746  -15.0203 C   0  0  2  0  0  0  0  0  0  0  0  0
   20.7024   -6.2291  -15.3953 N   0  0  0  0  0  0  0  0  0  0  0  0
   21.5038   -8.4608  -14.8116 C   0  0  0  0  0  0  0  0  0  0  0  0
   21.3476   -9.6079  -14.3060 O   0  0  0  0  0  0  0  0  0  0  0  0
   22.8383   -8.1102  -15.1456 N   0  0  0  0  0  0  0  0  0  0  0  0
   23.9626   -8.9906  -14.9256 C   0  0  0  0  0  0  0  0  0  0  0  0
   24.3158   -9.7828  -16.1502 C   0  0  0  0  0  0  0  0  0  0  0  0
   23.3779   -9.9904  -16.9328 O   0  0  0  0  0  0  0  0  0  0  0  0
   25.6182  -10.2509  -16.3835 N   0  0  0  0  0  0  0  0  0  0  0  0
   26.7622   -9.7131  -15.5923 C   0  0  0  0  0  0  0  0  0  0  0  0
   27.7591  -10.8420  -15.5003 C   0  0  0  0  0  0  0  0  0  0  0  0
   27.0884  -11.9841  -16.2298 C   0  0  0  0  0  0  0  0  0  0  0  0
   26.2477  -11.1748  -17.2568 C   0  0  1  0  0  0  0  0  0  0  0  0
   25.4529  -12.0632  -18.0690 C   0  0  0  0  0  0  0  0  0  0  0  0
   25.5678  -12.1649  -19.2896 O   0  0  0  0  0  0  0  0  0  0  0  0
   24.4742  -12.8828  -17.4734 O   0  0  0  0  0  0  0  0  0  0  0  0
  2  1  1  1
  3  2  1  0
  4  2  1  0
  4  5  1  6
  6  8  1  0
  6  4  1  0
  7  6  2  0
  9  8  1  0
 10  9  1  0
 11 10  2  0
 12 10  1  0
 12 16  1  0
 13 14  1  0
 13 12  1  0
 14 15  1  0
 16 15  1  0
 17 19  1  0
 16 17  1  1
 18 17  2  0
M  END
$$$$
