TGP.pdb
     RDKit          3D

 19 19  0  0  1  0  0  0  0  0999 V2000
   25.1545  -18.8279  -14.4014 C   0  0  0  0  0  0  0  0  0  0  0  0
   25.1230  -20.1774  -15.0331 C   0  0  1  0  0  0  0  0  0  0  0  0
   24.5267  -20.0555  -16.3018 O   0  0  0  0  0  0  0  0  0  0  0  0
   26.4782  -20.7856  -15.2064 C   0  0  2  0  0  0  0  0  0  0  0  0
   26.3646  -21.9532  -16.0521 N   0  0  0  0  0  0  0  0  0  0  0  0
   27.0598  -21.0966  -13.8734 C   0  0  0  0  0  0  0  0  0  0  0  0
   26.8438  -22.2198  -13.3373 O   0  0  0  0  0  0  0  0  0  0  0  0
   27.8676  -20.2007  -13.1250 N   0  0  0  0  0  0  0  0  0  0  0  0
   28.3802  -20.5128  -11.8106 C   0  0  0  0  0  0  0  0  0  0  0  0
   27.2934  -20.5983  -10.7793 C   0  0  0  0  0  0  0  0  0  0  0  0
   26.1400  -20.4855  -11.2178 O   0  0  0  0  0  0  0  0  0  0  0  0
   27.5732  -20.7922   -9.4178 N   0  0  0  0  0  0  0  0  0  0  0  0
   28.9260  -21.2487   -8.9870 C   0  0  0  0  0  0  0  0  0  0  0  0
   29.1416  -20.6480   -7.6198 C   0  0  0  0  0  0  0  0  0  0  0  0
   27.8862  -19.8425   -7.3710 C   0  0  0  0  0  0  0  0  0  0  0  0
   26.8712  -20.6890   -8.1894 C   0  0  1  0  0  0  0  0  0  0  0  0
   25.5627  -20.0836   -8.1498 C   0  0  0  0  0  0  0  0  0  0  0  0
   25.3263  -18.9345   -8.5202 O   0  0  0  0  0  0  0  0  0  0  0  0
   24.4587  -20.8128   -7.6662 O   0  0  0  0  0  0  0  0  0  0  0  0
  2  1  1  6
  3  2  1  0
  4  2  1  0
  4  5  1  6
  6  8  1  0
  6  4  1  0
  7  6  2  0
  9  8  1  0
 10  9  1  0
 11 10  2  0
 12 10  1  0
 12 16  1  0
 13 14  1  0
 13 12  1  0
 14 15  1  0
 16 15  1  0
 17 19  1  0
 16 17  1  6
 18 17  2  0
M  END
$$$$
