YHR.pdb
     RDKit          3D

 34 35  0  0  1  0  0  0  0  0999 V2000
    5.7313   -9.8171   27.6083 O   0  0  0  0  0  0  0  0  0  0  0  0
    6.2760  -11.0109   27.1338 C   0  0  0  0  0  0  0  0  0  0  0  0
    7.0781  -11.0032   25.9971 C   0  0  0  0  0  0  0  0  0  0  0  0
    7.6030  -12.1958   25.5503 C   0  0  0  0  0  0  0  0  0  0  0  0
    7.3346  -13.3917   26.2267 C   0  0  0  0  0  0  0  0  0  0  0  0
    7.9273  -14.6200   25.6983 C   0  0  0  0  0  0  0  0  0  0  0  0
    7.1173  -15.1715   24.5540 C   0  0  2  0  0  0  0  0  0  0  0  0
    5.8528  -15.6751   24.9714 N   0  0  0  0  0  0  0  0  0  0  0  0
    7.8550  -16.2150   23.7927 C   0  0  0  0  0  0  0  0  0  0  0  0
    7.5378  -17.4101   23.9889 O   0  0  0  0  0  0  0  0  0  0  0  0
    6.5400  -13.4091   27.3554 C   0  0  0  0  0  0  0  0  0  0  0  0
    6.0237  -12.2100   27.7883 C   0  0  0  0  0  0  0  0  0  0  0  0
    8.8779  -15.9327   22.8755 N   0  0  0  0  0  0  0  0  0  0  0  0
    9.6628  -16.8231   22.1043 C   0  0  1  0  0  0  0  0  0  0  0  0
   10.2088  -16.2832   20.7966 C   0  0  0  0  0  0  0  0  0  0  0  0
    9.2393  -15.3509   20.1428 C   0  0  0  0  0  0  0  0  0  0  0  0
    7.8523  -15.4731   20.3413 C   0  0  0  0  0  0  0  0  0  0  0  0
    7.3051  -14.4914   19.6191 N   0  0  0  0  0  0  0  0  0  0  0  0
    8.2531  -13.7779   18.9940 C   0  0  0  0  0  0  0  0  0  0  0  0
    9.4211  -14.3231   19.3306 N   0  0  0  0  0  0  0  0  0  0  0  0
   10.6688  -17.5499   22.8572 C   0  0  0  0  0  0  0  0  0  0  0  0
   11.4036  -16.8813   23.6729 O   0  0  0  0  0  0  0  0  0  0  0  0
   16.9713  -18.9381   21.2366 N   0  0  0  0  0  0  0  0  0  0  0  0
   17.4216  -20.0627   21.9848 C   0  0  0  0  0  0  0  0  0  0  0  0
   18.6711  -20.3127   22.0655 N   0  0  0  0  0  0  0  0  0  0  0  0
   16.4958  -20.9228   22.6530 N   0  0  0  0  0  0  0  0  0  0  0  0
   15.0615  -20.7333   22.5892 C   0  0  0  0  0  0  0  0  0  0  0  0
   14.5951  -19.5569   23.4207 C   0  0  0  0  0  0  0  0  0  0  0  0
   13.3683  -18.9862   22.7457 C   0  0  0  0  0  0  0  0  0  0  0  0
   12.0919  -19.4881   23.3724 C   0  0  2  0  0  0  0  0  0  0  0  0
   10.9177  -18.9270   22.7792 N   0  0  0  0  0  0  0  0  0  0  0  0
   12.0476  -19.2354   24.8324 C   0  0  0  0  0  0  0  0  0  0  0  0
   11.8783  -18.0767   25.2888 O   0  0  0  0  0  0  0  0  0  0  0  0
   12.1895  -20.2567   25.7570 O   0  0  0  0  0  0  0  0  0  0  0  0
  2  1  1  0
  3  2  2  0
  4  3  1  0
  5  4  2  0
  5 11  1  0
  6  5  1  0
  7  6  1  0
  7  8  1  1
  9  7  1  0
 10  9  2  0
 11 12  2  0
 12  2  1  0
 13  9  1  0
 14 13  1  0
 14 21  1  0
 14 15  1  6
 16 15  1  0
 17 16  2  0
 18 19  1  0
 18 17  1  0
 19 20  2  0
 20 16  1  0
 21 22  2  0
 23 24  1  0
 24 26  1  0
 24 25  2  0
 26 27  1  0
 27 28  1  0
 29 28  1  0
 30 29  1  6
 31 21  1  0
 31 30  1  0
 32 30  1  0
 32 34  1  0
 33 32  2  0
M  END
$$$$
