YHR.pdb
     RDKit          3D

 34 35  0  0  1  0  0  0  0  0999 V2000
    5.5264  -13.6502   19.9886 O   0  0  0  0  0  0  0  0  0  0  0  0
    6.7685  -14.0556   19.4988 C   0  0  0  0  0  0  0  0  0  0  0  0
    7.4421  -15.1107   20.1059 C   0  0  0  0  0  0  0  0  0  0  0  0
    8.6666  -15.4904   19.6022 C   0  0  0  0  0  0  0  0  0  0  0  0
    9.2222  -14.8278   18.5013 C   0  0  0  0  0  0  0  0  0  0  0  0
   10.5242  -15.2858   18.0174 C   0  0  0  0  0  0  0  0  0  0  0  0
   11.6062  -15.0369   19.0358 C   0  0  2  0  0  0  0  0  0  0  0  0
   11.7325  -13.6599   19.3744 N   0  0  0  0  0  0  0  0  0  0  0  0
   12.9225  -15.5779   18.6031 C   0  0  0  0  0  0  0  0  0  0  0  0
   12.9735  -16.7836   18.2698 O   0  0  0  0  0  0  0  0  0  0  0  0
    8.5611  -13.7799   17.8924 C   0  0  0  0  0  0  0  0  0  0  0  0
    7.3397  -13.4131   18.4076 C   0  0  0  0  0  0  0  0  0  0  0  0
   14.0985  -14.8152   18.5499 N   0  0  0  0  0  0  0  0  0  0  0  0
   15.4100  -15.2115   18.1945 C   0  0  1  0  0  0  0  0  0  0  0  0
   16.3063  -14.1360   17.6117 C   0  0  0  0  0  0  0  0  0  0  0  0
   16.2279  -14.1093   16.1185 C   0  0  0  0  0  0  0  0  0  0  0  0
   15.4983  -15.0748   15.4020 C   0  0  0  0  0  0  0  0  0  0  0  0
   15.6460  -14.7454   14.1158 N   0  0  0  0  0  0  0  0  0  0  0  0
   16.4109  -13.6509   13.9917 C   0  0  0  0  0  0  0  0  0  0  0  0
   16.7513  -13.2848   15.2265 N   0  0  0  0  0  0  0  0  0  0  0  0
   16.0938  -16.0076   19.1974 C   0  0  0  0  0  0  0  0  0  0  0  0
   15.9161  -15.6953   20.4316 O   0  0  0  0  0  0  0  0  0  0  0  0
   14.9003  -22.9548   20.6513 N   0  0  0  0  0  0  0  0  0  0  0  0
   15.8471  -23.0536   21.7101 C   0  0  0  0  0  0  0  0  0  0  0  0
   15.5163  -23.6167   22.8073 N   0  0  0  0  0  0  0  0  0  0  0  0
   17.1704  -22.5322   21.5675 N   0  0  0  0  0  0  0  0  0  0  0  0
   17.5711  -21.7026   20.4502 C   0  0  0  0  0  0  0  0  0  0  0  0
   17.7861  -20.2579   20.8492 C   0  0  0  0  0  0  0  0  0  0  0  0
   17.3467  -19.3986   19.6852 C   0  0  0  0  0  0  0  0  0  0  0  0
   17.3919  -17.9285   20.0175 C   0  0  2  0  0  0  0  0  0  0  0  0
   16.9387  -17.0973   18.9455 N   0  0  0  0  0  0  0  0  0  0  0  0
   18.7497  -17.4853   20.4141 C   0  0  0  0  0  0  0  0  0  0  0  0
   19.4804  -16.8358   19.6244 O   0  0  0  0  0  0  0  0  0  0  0  0
   19.2746  -17.7638   21.6652 O   0  0  0  0  0  0  0  0  0  0  0  0
  2  1  1  0
  3  2  2  0
  4  3  1  0
  5  4  2  0
  5 11  1  0
  6  5  1  0
  7  6  1  0
  7  8  1  6
  9  7  1  0
 10  9  2  0
 11 12  2  0
 12  2  1  0
 13  9  1  0
 14 13  1  0
 14 21  1  0
 14 15  1  1
 16 15  1  0
 17 16  2  0
 18 19  1  0
 18 17  1  0
 19 20  2  0
 20 16  1  0
 21 22  2  0
 23 24  1  0
 24 26  1  0
 24 25  2  0
 26 27  1  0
 27 28  1  0
 29 28  1  0
 30 29  1  6
 31 21  1  0
 31 30  1  0
 32 30  1  0
 32 34  1  0
 33 32  2  0
M  END
$$$$
