YHR.pdb
     RDKit          3D

 34 35  0  0  1  0  0  0  0  0999 V2000
    7.8071  -11.4704   17.7125 O   0  0  0  0  0  0  0  0  0  0  0  0
    7.6358  -12.6498   18.4382 C   0  0  0  0  0  0  0  0  0  0  0  0
    7.9030  -13.8770   17.8397 C   0  0  0  0  0  0  0  0  0  0  0  0
    7.7255  -15.0256   18.5789 C   0  0  0  0  0  0  0  0  0  0  0  0
    7.2850  -14.9594   19.9061 C   0  0  0  0  0  0  0  0  0  0  0  0
    7.1213  -16.2184   20.6323 C   0  0  0  0  0  0  0  0  0  0  0  0
    7.7027  -16.1309   22.0194 C   0  0  2  0  0  0  0  0  0  0  0  0
    8.8906  -15.3477   22.0664 N   0  0  0  0  0  0  0  0  0  0  0  0
    7.9533  -17.4724   22.6111 C   0  0  0  0  0  0  0  0  0  0  0  0
    7.0130  -18.2989   22.5950 O   0  0  0  0  0  0  0  0  0  0  0  0
    7.0174  -13.7464   20.5083 C   0  0  0  0  0  0  0  0  0  0  0  0
    7.1996  -12.6091   19.7566 C   0  0  0  0  0  0  0  0  0  0  0  0
    9.1761  -17.8560   23.1810 N   0  0  0  0  0  0  0  0  0  0  0  0
    9.5374  -19.0819   23.7895 C   0  0  1  0  0  0  0  0  0  0  0  0
   11.0180  -19.4082   23.8247 C   0  0  0  0  0  0  0  0  0  0  0  0
   11.5694  -19.5949   22.4471 C   0  0  0  0  0  0  0  0  0  0  0  0
   10.8460  -20.2740   21.4503 C   0  0  0  0  0  0  0  0  0  0  0  0
   11.6291  -20.2496   20.3682 N   0  0  0  0  0  0  0  0  0  0  0  0
   12.7769  -19.6065   20.6282 C   0  0  0  0  0  0  0  0  0  0  0  0
   12.7137  -19.2186   21.9011 N   0  0  0  0  0  0  0  0  0  0  0  0
    8.8917  -19.3379   25.0641 C   0  0  0  0  0  0  0  0  0  0  0  0
    8.6551  -18.3307   25.8271 O   0  0  0  0  0  0  0  0  0  0  0  0
    3.5154  -25.6935   28.1703 N   0  0  0  0  0  0  0  0  0  0  0  0
    3.7986  -24.8715   29.2979 C   0  0  0  0  0  0  0  0  0  0  0  0
    3.2808  -25.1485   30.4317 N   0  0  0  0  0  0  0  0  0  0  0  0
    4.6582  -23.7351   29.1850 N   0  0  0  0  0  0  0  0  0  0  0  0
    5.2013  -23.2840   27.9205 C   0  0  0  0  0  0  0  0  0  0  0  0
    6.1839  -22.1438   28.0859 C   0  0  0  0  0  0  0  0  0  0  0  0
    6.7012  -21.7916   26.7094 C   0  0  0  0  0  0  0  0  0  0  0  0
    7.7410  -20.7006   26.7572 C   0  0  2  0  0  0  0  0  0  0  0  0
    8.4963  -20.5927   25.5475 N   0  0  0  0  0  0  0  0  0  0  0  0
    8.6849  -20.8753   27.8867 C   0  0  0  0  0  0  0  0  0  0  0  0
    9.8702  -21.2461   27.6947 O   0  0  0  0  0  0  0  0  0  0  0  0
    8.3085  -20.6399   29.1986 O   0  0  0  0  0  0  0  0  0  0  0  0
  2  1  1  0
  3  2  2  0
  4  3  1  0
  5  4  2  0
  5 11  1  0
  6  5  1  0
  7  6  1  0
  7  8  1  6
  9  7  1  0
 10  9  2  0
 11 12  2  0
 12  2  1  0
 13  9  1  0
 14 13  1  0
 14 21  1  0
 14 15  1  1
 16 15  1  0
 17 16  2  0
 18 19  1  0
 18 17  1  0
 19 20  2  0
 20 16  1  0
 21 22  2  0
 23 24  1  0
 24 26  1  0
 24 25  2  0
 26 27  1  0
 27 28  1  0
 29 28  1  0
 30 29  1  6
 31 21  1  0
 31 30  1  0
 32 30  1  0
 32 34  1  0
 33 32  2  0
M  END
$$$$
