YHR.pdb
     RDKit          3D

 34 35  0  0  1  0  0  0  0  0999 V2000
    5.5858  -12.2807   20.2826 O   0  0  0  0  0  0  0  0  0  0  0  0
    6.8827  -12.7940   20.2406 C   0  0  0  0  0  0  0  0  0  0  0  0
    7.8675  -12.1307   19.5156 C   0  0  0  0  0  0  0  0  0  0  0  0
    9.1393  -12.6593   19.4910 C   0  0  0  0  0  0  0  0  0  0  0  0
    9.4348  -13.8404   20.1820 C   0  0  0  0  0  0  0  0  0  0  0  0
   10.8068  -14.3428   20.1147 C   0  0  0  0  0  0  0  0  0  0  0  0
   11.1901  -14.7035   18.7030 C   0  0  2  0  0  0  0  0  0  0  0  0
   10.2463  -15.5716   18.0847 N   0  0  0  0  0  0  0  0  0  0  0  0
   12.5534  -15.2929   18.6224 C   0  0  0  0  0  0  0  0  0  0  0  0
   12.6499  -16.5405   18.6624 O   0  0  0  0  0  0  0  0  0  0  0  0
    8.4642  -14.5054   20.9041 C   0  0  0  0  0  0  0  0  0  0  0  0
    7.1997  -13.9645   20.9183 C   0  0  0  0  0  0  0  0  0  0  0  0
   13.7254  -14.5312   18.5051 N   0  0  0  0  0  0  0  0  0  0  0  0
   15.0731  -14.9604   18.4522 C   0  0  1  0  0  0  0  0  0  0  0  0
   16.0987  -13.9184   18.0495 C   0  0  0  0  0  0  0  0  0  0  0  0
   16.2295  -13.8263   16.5626 C   0  0  0  0  0  0  0  0  0  0  0  0
   15.4699  -14.6420   15.7047 C   0  0  0  0  0  0  0  0  0  0  0  0
   15.8385  -14.2932   14.4689 N   0  0  0  0  0  0  0  0  0  0  0  0
   16.7663  -13.3255   14.5064 C   0  0  0  0  0  0  0  0  0  0  0  0
   16.9854  -13.0606   15.7934 N   0  0  0  0  0  0  0  0  0  0  0  0
   15.5059  -15.7373   19.5995 C   0  0  0  0  0  0  0  0  0  0  0  0
   15.0577  -15.3970   20.7552 O   0  0  0  0  0  0  0  0  0  0  0  0
   18.9436  -22.7570   22.4765 N   0  0  0  0  0  0  0  0  0  0  0  0
   17.6276  -22.9701   22.9765 C   0  0  0  0  0  0  0  0  0  0  0  0
   17.4418  -23.7680   23.9558 N   0  0  0  0  0  0  0  0  0  0  0  0
   16.5026  -22.3025   22.4003 N   0  0  0  0  0  0  0  0  0  0  0  0
   16.6148  -21.4157   21.2609 C   0  0  0  0  0  0  0  0  0  0  0  0
   16.7478  -19.9634   21.6682 C   0  0  0  0  0  0  0  0  0  0  0  0
   16.5384  -19.1262   20.4266 C   0  0  0  0  0  0  0  0  0  0  0  0
   16.5633  -17.6491   20.7285 C   0  0  2  0  0  0  0  0  0  0  0  0
   16.3754  -16.8362   19.5669 N   0  0  0  0  0  0  0  0  0  0  0  0
   17.8212  -17.2344   21.3940 C   0  0  0  0  0  0  0  0  0  0  0  0
   18.6528  -16.4929   20.8126 O   0  0  0  0  0  0  0  0  0  0  0  0
   18.1382  -17.6412   22.6794 O   0  0  0  0  0  0  0  0  0  0  0  0
  2  1  1  0
  3  2  2  0
  4  3  1  0
  5  4  2  0
  5 11  1  0
  6  5  1  0
  7  6  1  0
  7  8  1  1
  9  7  1  0
 10  9  2  0
 11 12  2  0
 12  2  1  0
 13  9  1  0
 14 13  1  0
 14 21  1  0
 14 15  1  1
 16 15  1  0
 17 16  2  0
 18 19  1  0
 18 17  1  0
 19 20  2  0
 20 16  1  0
 21 22  2  0
 23 24  1  0
 24 26  1  0
 24 25  2  0
 26 27  1  0
 27 28  1  0
 29 28  1  0
 30 29  1  6
 31 21  1  0
 31 30  1  0
 32 30  1  0
 32 34  1  0
 33 32  2  0
M  END
$$$$
