YHR.pdb
     RDKit          3D

 34 35  0  0  1  0  0  0  0  0999 V2000
   16.8017  -14.5066   15.7193 O   0  0  0  0  0  0  0  0  0  0  0  0
   15.8309  -14.6604   16.7096 C   0  0  0  0  0  0  0  0  0  0  0  0
   14.8960  -15.6860   16.6105 C   0  0  0  0  0  0  0  0  0  0  0  0
   13.9487  -15.8151   17.6021 C   0  0  0  0  0  0  0  0  0  0  0  0
   13.9271  -14.9319   18.6880 C   0  0  0  0  0  0  0  0  0  0  0  0
   12.8952  -15.1297   19.7056 C   0  0  0  0  0  0  0  0  0  0  0  0
   11.5298  -14.7727   19.1784 C   0  0  2  0  0  0  0  0  0  0  0  0
   11.3911  -13.3802   18.9168 N   0  0  0  0  0  0  0  0  0  0  0  0
   10.4397  -15.2326   20.0800 C   0  0  0  0  0  0  0  0  0  0  0  0
   10.3008  -14.6382   21.1731 O   0  0  0  0  0  0  0  0  0  0  0  0
   14.8507  -13.9114   18.7949 C   0  0  0  0  0  0  0  0  0  0  0  0
   15.7897  -13.7962   17.7965 C   0  0  0  0  0  0  0  0  0  0  0  0
    9.5679  -16.2875   19.7726 N   0  0  0  0  0  0  0  0  0  0  0  0
    8.5278  -16.8483   20.5518 C   0  0  1  0  0  0  0  0  0  0  0  0
    7.6447  -17.8715   19.8640 C   0  0  0  0  0  0  0  0  0  0  0  0
    6.6084  -18.4137   20.7960 C   0  0  0  0  0  0  0  0  0  0  0  0
    5.8221  -17.5658   21.5965 C   0  0  0  0  0  0  0  0  0  0  0  0
    5.0189  -18.3789   22.2881 N   0  0  0  0  0  0  0  0  0  0  0  0
    5.2547  -19.6604   21.9707 C   0  0  0  0  0  0  0  0  0  0  0  0
    6.2270  -19.6523   21.0602 N   0  0  0  0  0  0  0  0  0  0  0  0
    8.9306  -17.2787   21.8783 C   0  0  0  0  0  0  0  0  0  0  0  0
    9.9741  -18.0232   21.9739 O   0  0  0  0  0  0  0  0  0  0  0  0
    9.4720  -15.3789   31.1132 N   0  0  0  0  0  0  0  0  0  0  0  0
    9.9245  -14.8755   29.8606 C   0  0  0  0  0  0  0  0  0  0  0  0
   10.2589  -13.6479   29.7530 N   0  0  0  0  0  0  0  0  0  0  0  0
   10.0136  -15.7236   28.7134 N   0  0  0  0  0  0  0  0  0  0  0  0
    8.8965  -15.9590   27.8224 C   0  0  0  0  0  0  0  0  0  0  0  0
    9.2172  -16.9764   26.7477 C   0  0  0  0  0  0  0  0  0  0  0  0
    8.6823  -16.4353   25.4410 C   0  0  0  0  0  0  0  0  0  0  0  0
    8.7790  -17.4470   24.3271 C   0  0  2  0  0  0  0  0  0  0  0  0
    8.2832  -16.9556   23.0788 N   0  0  0  0  0  0  0  0  0  0  0  0
    8.0690  -18.7072   24.6515 C   0  0  0  0  0  0  0  0  0  0  0  0
    8.6569  -19.6575   25.2266 O   0  0  0  0  0  0  0  0  0  0  0  0
    6.7331  -18.8964   24.3387 O   0  0  0  0  0  0  0  0  0  0  0  0
  2  1  1  0
  3  2  2  0
  4  3  1  0
  5  4  2  0
  5 11  1  0
  6  5  1  0
  7  6  1  0
  7  8  1  1
  9  7  1  0
 10  9  2  0
 11 12  2  0
 12  2  1  0
 13  9  1  0
 14 13  1  0
 14 21  1  0
 14 15  1  6
 16 15  1  0
 17 16  2  0
 18 19  1  0
 18 17  1  0
 19 20  2  0
 20 16  1  0
 21 22  2  0
 23 24  1  0
 24 26  1  0
 24 25  2  0
 26 27  1  0
 27 28  1  0
 29 28  1  0
 30 29  1  1
 31 21  1  0
 31 30  1  0
 32 30  1  0
 32 34  1  0
 33 32  2  0
M  END
$$$$
