YHR.pdb
     RDKit          3D

 34 35  0  0  1  0  0  0  0  0999 V2000
    4.8831  -10.2863   27.6194 O   0  0  0  0  0  0  0  0  0  0  0  0
    5.6787  -11.2714   27.0333 C   0  0  0  0  0  0  0  0  0  0  0  0
    6.4695  -10.9592   25.9320 C   0  0  0  0  0  0  0  0  0  0  0  0
    7.2453  -11.9506   25.3729 C   0  0  0  0  0  0  0  0  0  0  0  0
    7.2382  -13.2465   25.9024 C   0  0  0  0  0  0  0  0  0  0  0  0
    8.0886  -14.2485   25.2605 C   0  0  0  0  0  0  0  0  0  0  0  0
    7.3900  -14.8931   24.0917 C   0  0  2  0  0  0  0  0  0  0  0  0
    6.2703  -15.6777   24.4885 N   0  0  0  0  0  0  0  0  0  0  0  0
    8.3160  -15.7099   23.2622 C   0  0  0  0  0  0  0  0  0  0  0  0
    8.3559  -16.9423   23.4792 O   0  0  0  0  0  0  0  0  0  0  0  0
    6.4569  -13.5655   26.9949 C   0  0  0  0  0  0  0  0  0  0  0  0
    5.6881  -12.5644   27.5412 C   0  0  0  0  0  0  0  0  0  0  0  0
    9.1391  -15.1766   22.2595 N   0  0  0  0  0  0  0  0  0  0  0  0
   10.2173  -15.7795   21.5686 C   0  0  1  0  0  0  0  0  0  0  0  0
   10.4995  -15.2604   20.1719 C   0  0  0  0  0  0  0  0  0  0  0  0
    9.2339  -15.0183   19.4127 C   0  0  0  0  0  0  0  0  0  0  0  0
    7.9823  -15.4025   19.9263 C   0  0  0  0  0  0  0  0  0  0  0  0
    7.0933  -15.0365   18.9987 N   0  0  0  0  0  0  0  0  0  0  0  0
    7.7070  -14.4573   17.9564 C   0  0  0  0  0  0  0  0  0  0  0  0
    9.0097  -14.4594   18.2352 N   0  0  0  0  0  0  0  0  0  0  0  0
   11.4307  -15.9267   22.3516 C   0  0  0  0  0  0  0  0  0  0  0  0
   11.6982  -15.0142   23.2166 O   0  0  0  0  0  0  0  0  0  0  0  0
   11.1468  -18.4465   28.8010 N   0  0  0  0  0  0  0  0  0  0  0  0
   11.4028  -19.8240   28.5474 C   0  0  0  0  0  0  0  0  0  0  0  0
   11.8617  -20.5667   29.4792 N   0  0  0  0  0  0  0  0  0  0  0  0
   11.1532  -20.3960   27.2614 N   0  0  0  0  0  0  0  0  0  0  0  0
   10.8334  -19.5982   26.0959 C   0  0  0  0  0  0  0  0  0  0  0  0
   12.0689  -19.0587   25.4066 C   0  0  0  0  0  0  0  0  0  0  0  0
   11.6060  -18.2833   24.1938 C   0  0  0  0  0  0  0  0  0  0  0  0
   12.7608  -17.6968   23.4217 C   0  0  2  0  0  0  0  0  0  0  0  0
   12.3486  -16.9814   22.2539 N   0  0  0  0  0  0  0  0  0  0  0  0
   13.7461  -18.7280   23.0179 C   0  0  0  0  0  0  0  0  0  0  0  0
   13.4658  -19.5940   22.1514 O   0  0  0  0  0  0  0  0  0  0  0  0
   15.0140  -18.7861   23.5722 O   0  0  0  0  0  0  0  0  0  0  0  0
  2  1  1  0
  3  2  2  0
  4  3  1  0
  5  4  2  0
  5 11  1  0
  6  5  1  0
  7  6  1  0
  7  8  1  1
  9  7  1  0
 10  9  2  0
 11 12  2  0
 12  2  1  0
 13  9  1  0
 14 13  1  0
 14 21  1  0
 14 15  1  6
 16 15  1  0
 17 16  2  0
 18 19  1  0
 18 17  1  0
 19 20  2  0
 20 16  1  0
 21 22  2  0
 23 24  1  0
 24 26  1  0
 24 25  2  0
 26 27  1  0
 27 28  1  0
 29 28  1  0
 30 29  1  6
 31 21  1  0
 31 30  1  0
 32 30  1  0
 32 34  1  0
 33 32  2  0
M  END
$$$$
