YHR.pdb
     RDKit          3D

 34 35  0  0  1  0  0  0  0  0999 V2000
    4.8721  -10.5755   27.9864 O   0  0  0  0  0  0  0  0  0  0  0  0
    5.6012  -11.5651   27.3260 C   0  0  0  0  0  0  0  0  0  0  0  0
    5.6708  -12.8477   27.8605 C   0  0  0  0  0  0  0  0  0  0  0  0
    6.3973  -13.8056   27.1882 C   0  0  0  0  0  0  0  0  0  0  0  0
    7.0526  -13.4945   25.9908 C   0  0  0  0  0  0  0  0  0  0  0  0
    7.8032  -14.5612   25.3289 C   0  0  0  0  0  0  0  0  0  0  0  0
    7.1000  -15.0352   24.0837 C   0  0  2  0  0  0  0  0  0  0  0  0
    5.9547  -15.8305   24.3712 N   0  0  0  0  0  0  0  0  0  0  0  0
    8.0122  -15.7689   23.1660 C   0  0  0  0  0  0  0  0  0  0  0  0
    7.9913  -17.0201   23.2045 O   0  0  0  0  0  0  0  0  0  0  0  0
    6.9891  -12.2247   25.4528 C   0  0  0  0  0  0  0  0  0  0  0  0
    6.2598  -11.2801   26.1365 C   0  0  0  0  0  0  0  0  0  0  0  0
    8.8865  -15.1383   22.2686 N   0  0  0  0  0  0  0  0  0  0  0  0
    9.9045  -15.7011   21.4621 C   0  0  1  0  0  0  0  0  0  0  0  0
   10.3682  -14.8698   20.2816 C   0  0  0  0  0  0  0  0  0  0  0  0
    9.2426  -14.5819   19.3400 C   0  0  0  0  0  0  0  0  0  0  0  0
    8.3458  -13.5225   19.5665 C   0  0  0  0  0  0  0  0  0  0  0  0
    7.4883  -13.5616   18.5428 N   0  0  0  0  0  0  0  0  0  0  0  0
    7.7933  -14.5651   17.7072 C   0  0  0  0  0  0  0  0  0  0  0  0
    8.8654  -15.1697   18.2168 N   0  0  0  0  0  0  0  0  0  0  0  0
   11.0177  -16.2680   22.2014 C   0  0  0  0  0  0  0  0  0  0  0  0
   11.6408  -15.5017   23.0241 O   0  0  0  0  0  0  0  0  0  0  0  0
    9.3046  -22.4882   27.2772 N   0  0  0  0  0  0  0  0  0  0  0  0
    8.5214  -21.7045   26.3829 C   0  0  0  0  0  0  0  0  0  0  0  0
    7.3103  -22.0321   26.1455 N   0  0  0  0  0  0  0  0  0  0  0  0
    9.0678  -20.5495   25.7422 N   0  0  0  0  0  0  0  0  0  0  0  0
   10.2952  -20.5844   24.9745 C   0  0  0  0  0  0  0  0  0  0  0  0
   10.7240  -19.2102   24.5049 C   0  0  0  0  0  0  0  0  0  0  0  0
   11.9859  -19.3856   23.6905 C   0  0  0  0  0  0  0  0  0  0  0  0
   12.4288  -18.0958   23.0472 C   0  0  2  0  0  0  0  0  0  0  0  0
   11.4828  -17.5865   22.1031 N   0  0  0  0  0  0  0  0  0  0  0  0
   13.7418  -18.2284   22.3721 C   0  0  0  0  0  0  0  0  0  0  0  0
   14.8017  -18.3774   23.0308 O   0  0  0  0  0  0  0  0  0  0  0  0
   13.8628  -18.1946   20.9928 O   0  0  0  0  0  0  0  0  0  0  0  0
  2  1  1  0
  3  2  2  0
  4  3  1  0
  5  4  2  0
  5 11  1  0
  6  5  1  0
  7  6  1  0
  7  8  1  1
  9  7  1  0
 10  9  2  0
 11 12  2  0
 12  2  1  0
 13  9  1  0
 14 13  1  0
 14 21  1  0
 14 15  1  6
 16 15  1  0
 17 16  2  0
 18 19  1  0
 18 17  1  0
 19 20  2  0
 20 16  1  0
 21 22  2  0
 23 24  1  0
 24 26  1  0
 24 25  2  0
 26 27  1  0
 27 28  1  0
 29 28  1  0
 30 29  1  6
 31 21  1  0
 31 30  1  0
 32 30  1  0
 32 34  1  0
 33 32  2  0
M  END
$$$$
