YHR.pdb
     RDKit          3D

 34 35  0  0  1  0  0  0  0  0999 V2000
    7.5195  -11.2558   18.1933 O   0  0  0  0  0  0  0  0  0  0  0  0
    7.8570  -12.2843   19.0737 C   0  0  0  0  0  0  0  0  0  0  0  0
    9.1950  -12.5881   19.3043 C   0  0  0  0  0  0  0  0  0  0  0  0
    9.5002  -13.6082   20.1782 C   0  0  0  0  0  0  0  0  0  0  0  0
    8.4841  -14.3249   20.8216 C   0  0  0  0  0  0  0  0  0  0  0  0
    8.8807  -15.3929   21.7388 C   0  0  0  0  0  0  0  0  0  0  0  0
    9.4102  -16.5890   20.9914 C   0  0  2  0  0  0  0  0  0  0  0  0
    8.4455  -17.1549   20.1106 N   0  0  0  0  0  0  0  0  0  0  0  0
    9.9407  -17.6354   21.9059 C   0  0  0  0  0  0  0  0  0  0  0  0
    9.1377  -18.4974   22.3296 O   0  0  0  0  0  0  0  0  0  0  0  0
    7.1538  -14.0305   20.5991 C   0  0  0  0  0  0  0  0  0  0  0  0
    6.8662  -13.0093   19.7236 C   0  0  0  0  0  0  0  0  0  0  0  0
   11.2805  -17.7060   22.3146 N   0  0  0  0  0  0  0  0  0  0  0  0
   11.9198  -18.6678   23.1331 C   0  0  1  0  0  0  0  0  0  0  0  0
   13.1173  -19.3779   22.5319 C   0  0  0  0  0  0  0  0  0  0  0  0
   12.7620  -20.0569   21.2476 C   0  0  0  0  0  0  0  0  0  0  0  0
   13.1313  -19.5169   20.0026 C   0  0  0  0  0  0  0  0  0  0  0  0
   12.6578  -20.3729   19.0928 N   0  0  0  0  0  0  0  0  0  0  0  0
   12.0268  -21.3959   19.6877 C   0  0  0  0  0  0  0  0  0  0  0  0
   12.1055  -21.1779   20.9995 N   0  0  0  0  0  0  0  0  0  0  0  0
   12.1705  -18.2323   24.4949 C   0  0  0  0  0  0  0  0  0  0  0  0
   13.2284  -17.5357   24.7144 O   0  0  0  0  0  0  0  0  0  0  0  0
    6.2469  -21.9582   28.4516 N   0  0  0  0  0  0  0  0  0  0  0  0
    6.4677  -21.3180   27.1991 C   0  0  0  0  0  0  0  0  0  0  0  0
    5.7826  -21.6649   26.1790 N   0  0  0  0  0  0  0  0  0  0  0  0
    7.4475  -20.2864   27.0606 N   0  0  0  0  0  0  0  0  0  0  0  0
    8.8586  -20.5619   26.8877 C   0  0  0  0  0  0  0  0  0  0  0  0
    9.7313  -19.6846   27.7604 C   0  0  0  0  0  0  0  0  0  0  0  0
   11.1691  -20.0636   27.4855 C   0  0  0  0  0  0  0  0  0  0  0  0
   11.9376  -18.9390   26.8388 C   0  0  2  0  0  0  0  0  0  0  0  0
   11.3595  -18.5013   25.6060 N   0  0  0  0  0  0  0  0  0  0  0  0
   13.3545  -19.2978   26.5923 C   0  0  0  0  0  0  0  0  0  0  0  0
   14.2920  -18.5554   26.9786 O   0  0  0  0  0  0  0  0  0  0  0  0
   13.7108  -20.4603   25.9289 O   0  0  0  0  0  0  0  0  0  0  0  0
  2  1  1  0
  3  2  2  0
  4  3  1  0
  5  4  2  0
  5 11  1  0
  6  5  1  0
  7  6  1  0
  7  8  1  1
  9  7  1  0
 10  9  2  0
 11 12  2  0
 12  2  1  0
 13  9  1  0
 14 13  1  0
 14 21  1  0
 14 15  1  6
 16 15  1  0
 17 16  2  0
 18 19  1  0
 18 17  1  0
 19 20  2  0
 20 16  1  0
 21 22  2  0
 23 24  1  0
 24 26  1  0
 24 25  2  0
 26 27  1  0
 27 28  1  0
 29 28  1  0
 30 29  1  6
 31 21  1  0
 31 30  1  0
 32 30  1  0
 32 34  1  0
 33 32  2  0
M  END
$$$$
