YHR.pdb
     RDKit          3D

 34 35  0  0  1  0  0  0  0  0999 V2000
    5.5295   -9.9279   28.4647 O   0  0  0  0  0  0  0  0  0  0  0  0
    6.0312  -11.0430   27.7925 C   0  0  0  0  0  0  0  0  0  0  0  0
    6.5685  -12.1038   28.5147 C   0  0  0  0  0  0  0  0  0  0  0  0
    7.0567  -13.1923   27.8260 C   0  0  0  0  0  0  0  0  0  0  0  0
    7.0130  -13.2302   26.4273 C   0  0  0  0  0  0  0  0  0  0  0  0
    7.5464  -14.4185   25.7618 C   0  0  0  0  0  0  0  0  0  0  0  0
    6.4665  -15.1631   25.0207 C   0  0  2  0  0  0  0  0  0  0  0  0
    5.9855  -16.2916   25.7430 N   0  0  0  0  0  0  0  0  0  0  0  0
    6.8999  -15.5767   23.6592 C   0  0  0  0  0  0  0  0  0  0  0  0
    7.2678  -16.7631   23.5025 O   0  0  0  0  0  0  0  0  0  0  0  0
    6.4817  -12.1824   25.7023 C   0  0  0  0  0  0  0  0  0  0  0  0
    5.9987  -11.1032   26.4050 C   0  0  0  0  0  0  0  0  0  0  0  0
    6.9179  -14.7153   22.5524 N   0  0  0  0  0  0  0  0  0  0  0  0
    7.5678  -14.8707   21.3047 C   0  0  1  0  0  0  0  0  0  0  0  0
    7.3453  -13.7702   20.2853 C   0  0  0  0  0  0  0  0  0  0  0  0
    8.0324  -14.0755   18.9926 C   0  0  0  0  0  0  0  0  0  0  0  0
    9.0828  -13.2744   18.5099 C   0  0  0  0  0  0  0  0  0  0  0  0
    9.4504  -13.8342   17.3539 N   0  0  0  0  0  0  0  0  0  0  0  0
    8.7040  -14.9174   17.0933 C   0  0  0  0  0  0  0  0  0  0  0  0
    7.8490  -15.0409   18.1074 N   0  0  0  0  0  0  0  0  0  0  0  0
    8.9640  -15.2577   21.3941 C   0  0  0  0  0  0  0  0  0  0  0  0
    9.6645  -14.7521   22.3460 O   0  0  0  0  0  0  0  0  0  0  0  0
   11.9004  -22.4652   24.1992 N   0  0  0  0  0  0  0  0  0  0  0  0
   13.0740  -21.6703   24.0640 C   0  0  0  0  0  0  0  0  0  0  0  0
   14.1644  -22.0500   24.6093 N   0  0  0  0  0  0  0  0  0  0  0  0
   13.0556  -20.4478   23.3235 N   0  0  0  0  0  0  0  0  0  0  0  0
   11.8349  -19.8528   22.8207 C   0  0  0  0  0  0  0  0  0  0  0  0
   12.0951  -18.6247   21.9739 C   0  0  0  0  0  0  0  0  0  0  0  0
   10.7512  -18.0328   21.6135 C   0  0  0  0  0  0  0  0  0  0  0  0
   10.8872  -16.7096   20.9033 C   0  0  2  0  0  0  0  0  0  0  0  0
    9.6286  -16.1407   20.5320 N   0  0  0  0  0  0  0  0  0  0  0  0
   11.7341  -16.8090   19.6908 C   0  0  0  0  0  0  0  0  0  0  0  0
   12.9425  -16.4642   19.7093 O   0  0  0  0  0  0  0  0  0  0  0  0
   11.2379  -17.2832   18.4878 O   0  0  0  0  0  0  0  0  0  0  0  0
  2  1  1  0
  3  2  2  0
  4  3  1  0
  5  4  2  0
  5 11  1  0
  6  5  1  0
  7  6  1  0
  7  8  1  1
  9  7  1  0
 10  9  2  0
 11 12  2  0
 12  2  1  0
 13  9  1  0
 14 13  1  0
 14 21  1  0
 14 15  1  1
 16 15  1  0
 17 16  2  0
 18 19  1  0
 18 17  1  0
 19 20  2  0
 20 16  1  0
 21 22  2  0
 23 24  1  0
 24 26  1  0
 24 25  2  0
 26 27  1  0
 27 28  1  0
 29 28  1  0
 30 29  1  6
 31 21  1  0
 31 30  1  0
 32 30  1  0
 32 34  1  0
 33 32  2  0
M  END
$$$$
