YHR.pdb
     RDKit          3D

 34 35  0  0  1  0  0  0  0  0999 V2000
    5.7194  -11.7157   19.9966 O   0  0  0  0  0  0  0  0  0  0  0  0
    6.9581  -12.3567   19.9583 C   0  0  0  0  0  0  0  0  0  0  0  0
    7.9897  -11.8260   19.1902 C   0  0  0  0  0  0  0  0  0  0  0  0
    9.2024  -12.4790   19.1703 C   0  0  0  0  0  0  0  0  0  0  0  0
    9.3930  -13.6532   19.9083 C   0  0  0  0  0  0  0  0  0  0  0  0
   10.7072  -14.2920   19.8432 C   0  0  0  0  0  0  0  0  0  0  0  0
   11.0654  -14.6660   18.4284 C   0  0  2  0  0  0  0  0  0  0  0  0
   10.0722  -15.4756   17.8082 N   0  0  0  0  0  0  0  0  0  0  0  0
   12.3928  -15.3315   18.3404 C   0  0  0  0  0  0  0  0  0  0  0  0
   12.4130  -16.5824   18.2907 O   0  0  0  0  0  0  0  0  0  0  0  0
    8.3754  -14.1870   20.6734 C   0  0  0  0  0  0  0  0  0  0  0  0
    7.1709  -13.5231   20.6823 C   0  0  0  0  0  0  0  0  0  0  0  0
   13.6114  -14.6377   18.3108 N   0  0  0  0  0  0  0  0  0  0  0  0
   14.9320  -15.1386   18.4046 C   0  0  1  0  0  0  0  0  0  0  0  0
   16.0485  -14.1648   18.0808 C   0  0  0  0  0  0  0  0  0  0  0  0
   16.3160  -14.1091   16.6105 C   0  0  0  0  0  0  0  0  0  0  0  0
   15.6020  -14.9103   15.7014 C   0  0  0  0  0  0  0  0  0  0  0  0
   16.0947  -14.6028   14.4983 N   0  0  0  0  0  0  0  0  0  0  0  0
   17.0562  -13.6739   14.6031 C   0  0  0  0  0  0  0  0  0  0  0  0
   17.1702  -13.3916   15.9000 N   0  0  0  0  0  0  0  0  0  0  0  0
   15.2053  -15.9016   19.6088 C   0  0  0  0  0  0  0  0  0  0  0  0
   14.6398  -15.5210   20.6986 O   0  0  0  0  0  0  0  0  0  0  0  0
   13.5500  -22.9321   23.4253 N   0  0  0  0  0  0  0  0  0  0  0  0
   13.0713  -22.2744   22.2567 C   0  0  0  0  0  0  0  0  0  0  0  0
   11.8331  -22.3420   21.9522 N   0  0  0  0  0  0  0  0  0  0  0  0
   13.9557  -21.5338   21.4125 N   0  0  0  0  0  0  0  0  0  0  0  0
   15.3845  -21.4669   21.6386 C   0  0  0  0  0  0  0  0  0  0  0  0
   15.8564  -20.0624   21.9509 C   0  0  0  0  0  0  0  0  0  0  0  0
   15.6993  -19.2433   20.6896 C   0  0  0  0  0  0  0  0  0  0  0  0
   16.0855  -17.8009   20.8992 C   0  0  2  0  0  0  0  0  0  0  0  0
   16.0360  -17.0271   19.6974 N   0  0  0  0  0  0  0  0  0  0  0  0
   17.4374  -17.6633   21.4914 C   0  0  0  0  0  0  0  0  0  0  0  0
   18.4305  -17.3557   20.7854 O   0  0  0  0  0  0  0  0  0  0  0  0
   17.6694  -17.8657   22.8418 O   0  0  0  0  0  0  0  0  0  0  0  0
  2  1  1  0
  3  2  2  0
  4  3  1  0
  5  4  2  0
  5 11  1  0
  6  5  1  0
  7  6  1  0
  7  8  1  1
  9  7  1  0
 10  9  2  0
 11 12  2  0
 12  2  1  0
 13  9  1  0
 14 13  1  0
 14 21  1  0
 14 15  1  1
 16 15  1  0
 17 16  2  0
 18 19  1  0
 18 17  1  0
 19 20  2  0
 20 16  1  0
 21 22  2  0
 23 24  1  0
 24 26  1  0
 24 25  2  0
 26 27  1  0
 27 28  1  0
 29 28  1  0
 30 29  1  6
 31 21  1  0
 31 30  1  0
 32 30  1  0
 32 34  1  0
 33 32  2  0
M  END
$$$$
