EYV.pdb
     RDKit          3D

 29 29  0  0  1  0  0  0  0  0999 V2000
   10.7355  -16.8395   19.2979 N   0  0  0  0  0  0  0  0  0  0  0  0
   11.2395  -17.2515   20.5987 C   0  0  1  0  0  0  0  0  0  0  0  0
   12.7425  -17.2097   20.5227 C   0  0  0  0  0  0  0  0  0  0  0  0
   13.3655  -18.3811   19.8375 C   0  0  0  0  0  0  0  0  0  0  0  0
   14.8330  -18.3955   19.8939 C   0  0  0  0  0  0  0  0  0  0  0  0
   15.5324  -18.2227   20.9235 O   0  0  0  0  0  0  0  0  0  0  0  0
   10.7685  -16.3435   21.6656 C   0  0  0  0  0  0  0  0  0  0  0  0
   11.1161  -15.1564   21.6951 O   0  0  0  0  0  0  0  0  0  0  0  0
   15.5329  -18.6190   18.7125 O   0  0  0  0  0  0  0  0  0  0  0  0
    5.6134  -11.8996   27.1080 O   0  0  0  0  0  0  0  0  0  0  0  0
    6.1564  -12.8635   26.2627 C   0  0  0  0  0  0  0  0  0  0  0  0
    6.9244  -12.4894   25.1684 C   0  0  0  0  0  0  0  0  0  0  0  0
    7.4798  -13.4187   24.3070 C   0  0  0  0  0  0  0  0  0  0  0  0
    7.2882  -14.7621   24.5070 C   0  0  0  0  0  0  0  0  0  0  0  0
    7.8588  -15.7788   23.6195 C   0  0  0  0  0  0  0  0  0  0  0  0
    9.3426  -15.9105   23.6885 C   0  0  2  0  0  0  0  0  0  0  0  0
    9.8915  -16.7947   22.7101 N   0  0  0  0  0  0  0  0  0  0  0  0
    9.6734  -16.3727   25.0855 C   0  0  0  0  0  0  0  0  0  0  0  0
    9.7804  -17.5963   25.3515 O   0  0  0  0  0  0  0  0  0  0  0  0
    6.5225  -15.1570   25.5967 C   0  0  0  0  0  0  0  0  0  0  0  0
    5.9671  -14.2148   26.4590 C   0  0  0  0  0  0  0  0  0  0  0  0
   11.0210  -13.4969   27.8038 C   0  0  0  0  0  0  0  0  0  0  0  0
   10.3343  -14.6883   28.4351 C   0  0  1  0  0  0  0  0  0  0  0  0
    8.8761  -14.3511   28.6615 C   0  0  0  0  0  0  0  0  0  0  0  0
   10.3908  -15.8216   27.4505 C   0  0  2  0  0  0  0  0  0  0  0  0
    9.8757  -15.4496   26.1480 N   0  0  0  0  0  0  0  0  0  0  0  0
    9.7452  -17.0540   27.9434 C   0  0  0  0  0  0  0  0  0  0  0  0
    8.6515  -17.4171   27.4006 O   0  0  0  0  0  0  0  0  0  0  0  0
   10.2311  -17.8446   28.9450 O   0  0  0  0  0  0  0  0  0  0  0  0
  2  7  1  0
  2  1  1  6
  3  2  1  0
  4  3  1  0
  4  5  1  0
  5  6  2  0
  7  8  2  0
  9  5  1  0
 10 11  1  0
 11 21  2  0
 11 12  1  0
 12 13  2  0
 13 14  1  0
 14 15  1  0
 16 15  1  1
 17 16  1  0
 17  7  1  0
 18 19  2  0
 18 16  1  0
 20 14  2  0
 21 20  1  0
 23 22  1  6
 23 25  1  0
 24 23  1  0
 25 27  1  0
 25 26  1  6
 26 18  1  0
 27 29  1  0
 28 27  2  0
M  END
$$$$
