EYV.pdb
     RDKit          3D

 29 29  0  0  1  0  0  0  0  0999 V2000
   12.1560  -16.7102   20.0661 N   0  0  0  0  0  0  0  0  0  0  0  0
   11.1378  -17.3209   20.9065 C   0  0  1  0  0  0  0  0  0  0  0  0
   11.7223  -18.5971   21.4505 C   0  0  0  0  0  0  0  0  0  0  0  0
   12.5241  -19.3850   20.4676 C   0  0  0  0  0  0  0  0  0  0  0  0
   12.7703  -20.7746   20.8742 C   0  0  0  0  0  0  0  0  0  0  0  0
   12.3803  -21.3098   21.9421 O   0  0  0  0  0  0  0  0  0  0  0  0
   10.7617  -16.4285   22.0232 C   0  0  0  0  0  0  0  0  0  0  0  0
   11.5536  -15.5857   22.4631 O   0  0  0  0  0  0  0  0  0  0  0  0
   13.4991  -21.5905   20.0147 O   0  0  0  0  0  0  0  0  0  0  0  0
    5.9507  -11.3316   27.3924 O   0  0  0  0  0  0  0  0  0  0  0  0
    6.3500  -12.3000   26.4752 C   0  0  0  0  0  0  0  0  0  0  0  0
    7.0677  -11.9438   25.3415 C   0  0  0  0  0  0  0  0  0  0  0  0
    7.4812  -12.8781   24.4086 C   0  0  0  0  0  0  0  0  0  0  0  0
    7.1920  -14.2088   24.5737 C   0  0  0  0  0  0  0  0  0  0  0  0
    7.6113  -15.2302   23.6105 C   0  0  0  0  0  0  0  0  0  0  0  0
    9.0571  -15.5908   23.6679 C   0  0  2  0  0  0  0  0  0  0  0  0
    9.4685  -16.4986   22.6446 N   0  0  0  0  0  0  0  0  0  0  0  0
    9.3072  -16.1674   25.0389 C   0  0  0  0  0  0  0  0  0  0  0  0
    9.2080  -17.4029   25.2468 O   0  0  0  0  0  0  0  0  0  0  0  0
    6.4744  -14.5856   25.7018 C   0  0  0  0  0  0  0  0  0  0  0  0
    6.0621  -13.6385   26.6360 C   0  0  0  0  0  0  0  0  0  0  0  0
   11.3080  -13.7113   27.7149 C   0  0  0  0  0  0  0  0  0  0  0  0
   10.4535  -14.7617   28.3902 C   0  0  1  0  0  0  0  0  0  0  0  0
    9.1182  -14.1484   28.7540 C   0  0  0  0  0  0  0  0  0  0  0  0
   10.1949  -15.8517   27.3892 C   0  0  2  0  0  0  0  0  0  0  0  0
    9.6622  -15.3424   26.1414 N   0  0  0  0  0  0  0  0  0  0  0  0
    9.3525  -16.9415   27.9195 C   0  0  0  0  0  0  0  0  0  0  0  0
    9.7808  -17.5965   28.9245 O   0  0  0  0  0  0  0  0  0  0  0  0
    8.1381  -17.3080   27.4141 O   0  0  0  0  0  0  0  0  0  0  0  0
  2  7  1  0
  2  1  1  6
  3  2  1  0
  4  3  1  0
  4  5  1  0
  5  6  2  0
  7  8  2  0
  9  5  1  0
 10 11  1  0
 11 21  2  0
 11 12  1  0
 12 13  2  0
 13 14  1  0
 14 15  1  0
 16 15  1  6
 17 16  1  0
 17  7  1  0
 18 19  2  0
 18 16  1  0
 20 14  2  0
 21 20  1  0
 23 22  1  6
 23 25  1  0
 24 23  1  0
 25 27  1  0
 25 26  1  6
 26 18  1  0
 27 29  1  0
 28 27  2  0
M  END
$$$$
