EYV.pdb
     RDKit          3D

 29 29  0  0  1  0  0  0  0  0999 V2000
   11.4919  -17.3716   19.7324 N   0  0  0  0  0  0  0  0  0  0  0  0
   11.9625  -17.5766   21.0935 C   0  0  1  0  0  0  0  0  0  0  0  0
   13.4658  -17.5073   21.0554 C   0  0  0  0  0  0  0  0  0  0  0  0
   14.1348  -18.7414   20.5462 C   0  0  0  0  0  0  0  0  0  0  0  0
   15.4251  -19.0292   21.1859 C   0  0  0  0  0  0  0  0  0  0  0  0
   15.5936  -19.6972   22.2368 O   0  0  0  0  0  0  0  0  0  0  0  0
   11.4379  -16.5355   22.0021 C   0  0  0  0  0  0  0  0  0  0  0  0
   11.9277  -15.3994   22.0239 O   0  0  0  0  0  0  0  0  0  0  0  0
   16.5784  -18.5268   20.5919 O   0  0  0  0  0  0  0  0  0  0  0  0
    7.0506  -13.3085   18.4241 O   0  0  0  0  0  0  0  0  0  0  0  0
    7.3568  -13.8725   19.6597 C   0  0  0  0  0  0  0  0  0  0  0  0
    7.9049  -13.0970   20.6722 C   0  0  0  0  0  0  0  0  0  0  0  0
    8.2218  -13.6227   21.9121 C   0  0  0  0  0  0  0  0  0  0  0  0
    8.0023  -14.9482   22.1884 C   0  0  0  0  0  0  0  0  0  0  0  0
    8.3229  -15.5445   23.4878 C   0  0  0  0  0  0  0  0  0  0  0  0
    9.7755  -15.7810   23.7283 C   0  0  2  0  0  0  0  0  0  0  0  0
   10.3429  -16.7933   22.8955 N   0  0  0  0  0  0  0  0  0  0  0  0
    9.9229  -16.1318   25.1877 C   0  0  0  0  0  0  0  0  0  0  0  0
    9.9872  -17.3306   25.5595 O   0  0  0  0  0  0  0  0  0  0  0  0
    7.4543  -15.7412   21.1881 C   0  0  0  0  0  0  0  0  0  0  0  0
    7.1382  -15.2039   19.9427 C   0  0  0  0  0  0  0  0  0  0  0  0
   10.4047  -14.5248   29.8575 C   0  0  0  0  0  0  0  0  0  0  0  0
    9.8787  -14.2249   28.4709 C   0  0  1  0  0  0  0  0  0  0  0  0
   10.6300  -13.0378   27.9071 C   0  0  0  0  0  0  0  0  0  0  0  0
   10.1847  -15.4108   27.6009 C   0  0  2  0  0  0  0  0  0  0  0  0
    9.9945  -15.1279   26.1923 N   0  0  0  0  0  0  0  0  0  0  0  0
    9.4543  -16.6298   27.9999 C   0  0  0  0  0  0  0  0  0  0  0  0
    9.9277  -17.3277   28.9546 O   0  0  0  0  0  0  0  0  0  0  0  0
    8.2998  -17.0742   27.4221 O   0  0  0  0  0  0  0  0  0  0  0  0
  2  7  1  0
  2  1  1  6
  3  2  1  0
  4  3  1  0
  4  5  1  0
  5  6  2  0
  7  8  2  0
  9  5  1  0
 10 11  1  0
 11 21  2  0
 11 12  1  0
 12 13  2  0
 13 14  1  0
 14 15  1  0
 16 15  1  6
 17 16  1  0
 17  7  1  0
 18 19  2  0
 18 16  1  0
 20 14  2  0
 21 20  1  0
 23 22  1  1
 23 25  1  0
 24 23  1  0
 25 27  1  0
 25 26  1  6
 26 18  1  0
 27 29  1  0
 28 27  2  0
M  END
$$$$
