EYV.pdb
     RDKit          3D

 29 29  0  0  1  0  0  0  0  0999 V2000
    8.7070  -14.8072   20.6833 N   0  0  0  0  0  0  0  0  0  0  0  0
    8.3060  -15.9447   21.4964 C   0  0  1  0  0  0  0  0  0  0  0  0
    8.8966  -17.1733   20.8578 C   0  0  0  0  0  0  0  0  0  0  0  0
    8.4663  -17.4120   19.4479 C   0  0  0  0  0  0  0  0  0  0  0  0
    9.0628  -18.6057   18.8347 C   0  0  0  0  0  0  0  0  0  0  0  0
   10.0022  -18.6140   18.0002 O   0  0  0  0  0  0  0  0  0  0  0  0
    8.8054  -15.8133   22.8814 C   0  0  0  0  0  0  0  0  0  0  0  0
    9.8520  -15.2014   23.1287 O   0  0  0  0  0  0  0  0  0  0  0  0
    8.5578  -19.8508   19.1957 O   0  0  0  0  0  0  0  0  0  0  0  0
    6.6756  -10.0863   26.1616 O   0  0  0  0  0  0  0  0  0  0  0  0
    6.8817  -11.4628   26.1956 C   0  0  0  0  0  0  0  0  0  0  0  0
    6.0158  -12.3219   25.5327 C   0  0  0  0  0  0  0  0  0  0  0  0
    6.1890  -13.6945   25.5443 C   0  0  0  0  0  0  0  0  0  0  0  0
    7.2378  -14.2630   26.2213 C   0  0  0  0  0  0  0  0  0  0  0  0
    7.4577  -15.7111   26.2584 C   0  0  0  0  0  0  0  0  0  0  0  0
    8.5293  -16.2066   25.3475 C   0  0  2  0  0  0  0  0  0  0  0  0
    8.1032  -16.3861   23.9960 N   0  0  0  0  0  0  0  0  0  0  0  0
    9.0349  -17.5006   25.9346 C   0  0  0  0  0  0  0  0  0  0  0  0
    8.3433  -18.5483   25.8776 O   0  0  0  0  0  0  0  0  0  0  0  0
    8.1157  -13.4202   26.8912 C   0  0  0  0  0  0  0  0  0  0  0  0
    7.9340  -12.0394   26.8743 C   0  0  0  0  0  0  0  0  0  0  0  0
   12.1862  -19.1822   25.1704 C   0  0  0  0  0  0  0  0  0  0  0  0
   12.2223  -19.1111   26.6814 C   0  0  1  0  0  0  0  0  0  0  0  0
   13.1146  -17.9612   27.0974 C   0  0  0  0  0  0  0  0  0  0  0  0
   10.8312  -18.8013   27.1566 C   0  0  2  0  0  0  0  0  0  0  0  0
   10.3040  -17.5852   26.5706 N   0  0  0  0  0  0  0  0  0  0  0  0
   10.7101  -18.7765   28.6274 C   0  0  0  0  0  0  0  0  0  0  0  0
   10.3071  -17.7011   29.1785 O   0  0  0  0  0  0  0  0  0  0  0  0
   10.9984  -19.8246   29.4537 O   0  0  0  0  0  0  0  0  0  0  0  0
  2  7  1  0
  2  1  1  6
  3  2  1  0
  4  3  1  0
  4  5  1  0
  5  6  2  0
  7  8  2  0
  9  5  1  0
 10 11  1  0
 11 21  2  0
 11 12  1  0
 12 13  2  0
 13 14  1  0
 14 15  1  0
 16 15  1  1
 17 16  1  0
 17  7  1  0
 18 19  2  0
 18 16  1  0
 20 14  2  0
 21 20  1  0
 23 22  1  6
 23 25  1  0
 24 23  1  0
 25 27  1  0
 25 26  1  1
 26 18  1  0
 27 29  1  0
 28 27  2  0
M  END
$$$$
