EYV.pdb
     RDKit          3D

 29 29  0  0  1  0  0  0  0  0999 V2000
    9.3455  -16.8288   20.0459 N   0  0  0  0  0  0  0  0  0  0  0  0
    8.0126  -16.5518   20.5584 C   0  0  1  0  0  0  0  0  0  0  0  0
    7.1264  -17.6864   20.1184 C   0  0  0  0  0  0  0  0  0  0  0  0
    7.6546  -18.4818   18.9703 C   0  0  0  0  0  0  0  0  0  0  0  0
    6.7693  -19.5721   18.5409 C   0  0  0  0  0  0  0  0  0  0  0  0
    7.1349  -20.6583   18.0255 O   0  0  0  0  0  0  0  0  0  0  0  0
    8.0157  -16.4644   22.0339 C   0  0  0  0  0  0  0  0  0  0  0  0
    6.9700  -16.2674   22.6653 O   0  0  0  0  0  0  0  0  0  0  0  0
    5.3981  -19.4095   18.7105 O   0  0  0  0  0  0  0  0  0  0  0  0
   10.5937  -16.9904   30.5146 O   0  0  0  0  0  0  0  0  0  0  0  0
   10.5576  -17.0345   29.1235 C   0  0  0  0  0  0  0  0  0  0  0  0
    9.9630  -18.1035   28.4673 C   0  0  0  0  0  0  0  0  0  0  0  0
    9.9085  -18.1815   27.0870 C   0  0  0  0  0  0  0  0  0  0  0  0
   10.4480  -17.1904   26.3072 C   0  0  0  0  0  0  0  0  0  0  0  0
   10.4111  -17.2337   24.8431 C   0  0  0  0  0  0  0  0  0  0  0  0
    9.2444  -16.5414   24.2241 C   0  0  2  0  0  0  0  0  0  0  0  0
    9.2247  -16.6032   22.7971 N   0  0  0  0  0  0  0  0  0  0  0  0
    9.2811  -15.1126   24.7059 C   0  0  0  0  0  0  0  0  0  0  0  0
   10.2323  -14.3519   24.3962 O   0  0  0  0  0  0  0  0  0  0  0  0
   11.0477  -16.1118   26.9449 C   0  0  0  0  0  0  0  0  0  0  0  0
   11.0982  -16.0413   28.3350 C   0  0  0  0  0  0  0  0  0  0  0  0
    7.0182  -12.4972   24.0838 C   0  0  0  0  0  0  0  0  0  0  0  0
    7.0728  -12.4223   25.5941 C   0  0  1  0  0  0  0  0  0  0  0  0
    5.8330  -13.0787   26.1631 C   0  0  0  0  0  0  0  0  0  0  0  0
    8.2598  -13.2237   26.0477 C   0  0  2  0  0  0  0  0  0  0  0  0
    8.2491  -14.5745   25.5228 N   0  0  0  0  0  0  0  0  0  0  0  0
    8.4352  -13.2260   27.5132 C   0  0  0  0  0  0  0  0  0  0  0  0
    8.3222  -14.3351   28.1295 O   0  0  0  0  0  0  0  0  0  0  0  0
    8.7118  -12.1234   28.2696 O   0  0  0  0  0  0  0  0  0  0  0  0
  2  7  1  0
  2  1  1  1
  3  2  1  0
  4  3  1  0
  4  5  1  0
  5  6  2  0
  7  8  2  0
  9  5  1  0
 10 11  1  0
 11 21  2  0
 11 12  1  0
 12 13  2  0
 13 14  1  0
 14 15  1  0
 16 15  1  6
 17 16  1  0
 17  7  1  0
 18 19  2  0
 18 16  1  0
 20 14  2  0
 21 20  1  0
 23 22  1  6
 23 25  1  0
 24 23  1  0
 25 27  1  0
 25 26  1  1
 26 18  1  0
 27 29  1  0
 28 27  2  0
M  END
$$$$
