EYV.pdb
     RDKit          3D

 29 29  0  0  1  0  0  0  0  0999 V2000
   11.6132  -16.5142   19.3420 N   0  0  0  0  0  0  0  0  0  0  0  0
   11.2075  -17.2449   20.5326 C   0  0  1  0  0  0  0  0  0  0  0  0
   12.3817  -18.0871   20.9546 C   0  0  0  0  0  0  0  0  0  0  0  0
   12.7153  -19.2047   20.0221 C   0  0  0  0  0  0  0  0  0  0  0  0
   13.8398  -20.0385   20.4664 C   0  0  0  0  0  0  0  0  0  0  0  0
   14.9827  -20.0724   19.9452 O   0  0  0  0  0  0  0  0  0  0  0  0
   10.8377  -16.3210   21.6256 C   0  0  0  0  0  0  0  0  0  0  0  0
   11.4651  -15.2718   21.8161 O   0  0  0  0  0  0  0  0  0  0  0  0
   13.6446  -20.8741   21.5614 O   0  0  0  0  0  0  0  0  0  0  0  0
    5.7560  -11.5737   27.0294 O   0  0  0  0  0  0  0  0  0  0  0  0
    6.2569  -12.5098   26.1287 C   0  0  0  0  0  0  0  0  0  0  0  0
    6.0384  -13.8663   26.3274 C   0  0  0  0  0  0  0  0  0  0  0  0
    6.5206  -14.8249   25.4540 C   0  0  0  0  0  0  0  0  0  0  0  0
    7.2420  -14.4632   24.3449 C   0  0  0  0  0  0  0  0  0  0  0  0
    7.7699  -15.4460   23.3950 C   0  0  0  0  0  0  0  0  0  0  0  0
    9.2478  -15.6380   23.4472 C   0  0  2  0  0  0  0  0  0  0  0  0
    9.7404  -16.5974   22.5106 N   0  0  0  0  0  0  0  0  0  0  0  0
    9.5845  -16.0370   24.8622 C   0  0  0  0  0  0  0  0  0  0  0  0
    9.5204  -17.2382   25.2261 O   0  0  0  0  0  0  0  0  0  0  0  0
    7.4715  -13.1104   24.1283 C   0  0  0  0  0  0  0  0  0  0  0  0
    6.9825  -12.1519   25.0126 C   0  0  0  0  0  0  0  0  0  0  0  0
    9.4925  -13.3336   27.9303 C   0  0  0  0  0  0  0  0  0  0  0  0
   10.7221  -14.2121   28.0067 C   0  0  1  0  0  0  0  0  0  0  0  0
   10.8981  -14.6869   29.4333 C   0  0  0  0  0  0  0  0  0  0  0  0
   10.4714  -15.4225   27.1529 C   0  0  2  0  0  0  0  0  0  0  0  0
    9.9846  -15.0773   25.8323 N   0  0  0  0  0  0  0  0  0  0  0  0
    9.5933  -16.4183   27.7978 C   0  0  0  0  0  0  0  0  0  0  0  0
    8.3601  -16.4273   27.4788 O   0  0  0  0  0  0  0  0  0  0  0  0
   10.0007  -17.3405   28.7187 O   0  0  0  0  0  0  0  0  0  0  0  0
  2  7  1  0
  2  1  1  6
  3  2  1  0
  4  3  1  0
  4  5  1  0
  5  6  2  0
  7  8  2  0
  9  5  1  0
 10 11  1  0
 11 21  2  0
 11 12  1  0
 12 13  2  0
 13 14  1  0
 14 15  1  0
 16 15  1  1
 17 16  1  0
 17  7  1  0
 18 19  2  0
 18 16  1  0
 20 14  2  0
 21 20  1  0
 23 22  1  1
 23 25  1  0
 24 23  1  0
 25 27  1  0
 25 26  1  6
 26 18  1  0
 27 29  1  0
 28 27  2  0
M  END
$$$$
