EYV.pdb
     RDKit          3D

 29 29  0  0  1  0  0  0  0  0999 V2000
   11.9098  -16.7676   19.7809 N   0  0  0  0  0  0  0  0  0  0  0  0
   11.2215  -17.4762   20.8487 C   0  0  1  0  0  0  0  0  0  0  0  0
   12.1841  -18.4982   21.3918 C   0  0  0  0  0  0  0  0  0  0  0  0
   12.4101  -19.6769   20.5032 C   0  0  0  0  0  0  0  0  0  0  0  0
   13.3436  -20.6689   21.0520 C   0  0  0  0  0  0  0  0  0  0  0  0
   14.1380  -21.3799   20.3868 O   0  0  0  0  0  0  0  0  0  0  0  0
   10.8147  -16.5512   21.9274 C   0  0  0  0  0  0  0  0  0  0  0  0
   11.5161  -15.5796   22.2354 O   0  0  0  0  0  0  0  0  0  0  0  0
   13.3677  -20.8552   22.4305 O   0  0  0  0  0  0  0  0  0  0  0  0
    5.8931  -11.5354   27.2095 O   0  0  0  0  0  0  0  0  0  0  0  0
    6.3367  -12.5247   26.3360 C   0  0  0  0  0  0  0  0  0  0  0  0
    6.0789  -13.8634   26.5977 C   0  0  0  0  0  0  0  0  0  0  0  0
    6.5038  -14.8734   25.7530 C   0  0  0  0  0  0  0  0  0  0  0  0
    7.2049  -14.5830   24.6104 C   0  0  0  0  0  0  0  0  0  0  0  0
    7.6725  -15.6218   23.6889 C   0  0  0  0  0  0  0  0  0  0  0  0
    9.1507  -15.8161   23.6605 C   0  0  2  0  0  0  0  0  0  0  0  0
    9.5946  -16.7368   22.6626 N   0  0  0  0  0  0  0  0  0  0  0  0
    9.5558  -16.2724   25.0398 C   0  0  0  0  0  0  0  0  0  0  0  0
    9.6948  -17.4940   25.3000 O   0  0  0  0  0  0  0  0  0  0  0  0
    7.4731  -13.2490   24.3306 C   0  0  0  0  0  0  0  0  0  0  0  0
    7.0416  -12.2385   25.1865 C   0  0  0  0  0  0  0  0  0  0  0  0
   11.1818  -13.4765   27.5372 C   0  0  0  0  0  0  0  0  0  0  0  0
   10.4453  -14.5436   28.3173 C   0  0  1  0  0  0  0  0  0  0  0  0
    9.0696  -14.0257   28.6788 C   0  0  0  0  0  0  0  0  0  0  0  0
   10.2612  -15.7265   27.4096 C   0  0  2  0  0  0  0  0  0  0  0  0
    9.7944  -15.3456   26.0916 N   0  0  0  0  0  0  0  0  0  0  0  0
    9.4054  -16.7791   27.9912 C   0  0  0  0  0  0  0  0  0  0  0  0
    9.8113  -17.3686   29.0449 O   0  0  0  0  0  0  0  0  0  0  0  0
    8.2010  -17.1762   27.4852 O   0  0  0  0  0  0  0  0  0  0  0  0
  2  7  1  0
  2  1  1  6
  3  2  1  0
  4  3  1  0
  4  5  1  0
  5  6  2  0
  7  8  2  0
  9  5  1  0
 10 11  1  0
 11 21  2  0
 11 12  1  0
 12 13  2  0
 13 14  1  0
 14 15  1  0
 16 15  1  1
 17 16  1  0
 17  7  1  0
 18 19  2  0
 18 16  1  0
 20 14  2  0
 21 20  1  0
 23 22  1  6
 23 25  1  0
 24 23  1  0
 25 27  1  0
 25 26  1  6
 26 18  1  0
 27 29  1  0
 28 27  2  0
M  END
$$$$
