EYV.pdb
     RDKit          3D

 29 29  0  0  1  0  0  0  0  0999 V2000
   10.3541  -16.7787   19.0164 N   0  0  0  0  0  0  0  0  0  0  0  0
    9.2845  -17.1282   19.9384 C   0  0  1  0  0  0  0  0  0  0  0  0
    9.4394  -18.5908   20.2594 C   0  0  0  0  0  0  0  0  0  0  0  0
   10.7215  -19.1993   19.7949 C   0  0  0  0  0  0  0  0  0  0  0  0
   11.2588  -20.2243   20.6991 C   0  0  0  0  0  0  0  0  0  0  0  0
   10.5887  -20.9298   21.4942 O   0  0  0  0  0  0  0  0  0  0  0  0
    9.3702  -16.3328   21.1813 C   0  0  0  0  0  0  0  0  0  0  0  0
   10.4632  -15.9766   21.6388 O   0  0  0  0  0  0  0  0  0  0  0  0
   12.6314  -20.4516   20.6916 O   0  0  0  0  0  0  0  0  0  0  0  0
    7.1655  -11.3150   28.1624 O   0  0  0  0  0  0  0  0  0  0  0  0
    7.1274  -12.0810   27.0005 C   0  0  0  0  0  0  0  0  0  0  0  0
    6.4990  -13.3188   26.9924 C   0  0  0  0  0  0  0  0  0  0  0  0
    6.4414  -14.1074   25.8570 C   0  0  0  0  0  0  0  0  0  0  0  0
    7.0117  -13.6876   24.6823 C   0  0  0  0  0  0  0  0  0  0  0  0
    6.9728  -14.4912   23.4578 C   0  0  0  0  0  0  0  0  0  0  0  0
    8.2584  -15.1591   23.1046 C   0  0  2  0  0  0  0  0  0  0  0  0
    8.1962  -15.9398   21.9100 N   0  0  0  0  0  0  0  0  0  0  0  0
    8.6469  -16.0081   24.2892 C   0  0  0  0  0  0  0  0  0  0  0  0
    7.9295  -16.9734   24.6537 O   0  0  0  0  0  0  0  0  0  0  0  0
    7.6455  -12.4515   24.6698 C   0  0  0  0  0  0  0  0  0  0  0  0
    7.6988  -11.6640   25.8173 C   0  0  0  0  0  0  0  0  0  0  0  0
   12.2648  -17.6457   27.1660 C   0  0  0  0  0  0  0  0  0  0  0  0
   11.8441  -16.7387   26.0303 C   0  0  1  0  0  0  0  0  0  0  0  0
   12.2353  -17.3825   24.7173 C   0  0  0  0  0  0  0  0  0  0  0  0
   10.3454  -16.6384   26.0582 C   0  0  2  0  0  0  0  0  0  0  0  0
    9.8307  -15.7516   25.0341 N   0  0  0  0  0  0  0  0  0  0  0  0
    9.8102  -16.2811   27.3865 C   0  0  0  0  0  0  0  0  0  0  0  0
    9.4973  -15.0649   27.6003 O   0  0  0  0  0  0  0  0  0  0  0  0
    9.6215  -17.1585   28.4156 O   0  0  0  0  0  0  0  0  0  0  0  0
  2  7  1  0
  2  1  1  6
  3  2  1  0
  4  3  1  0
  4  5  1  0
  5  6  2  0
  7  8  2  0
  9  5  1  0
 10 11  1  0
 11 21  2  0
 11 12  1  0
 12 13  2  0
 13 14  1  0
 14 15  1  0
 16 15  1  1
 17 16  1  0
 17  7  1  0
 18 19  2  0
 18 16  1  0
 20 14  2  0
 21 20  1  0
 23 22  1  1
 23 25  1  0
 24 23  1  0
 25 27  1  0
 25 26  1  6
 26 18  1  0
 27 29  1  0
 28 27  2  0
M  END
$$$$
