EYV.pdb
     RDKit          3D

 29 29  0  0  1  0  0  0  0  0999 V2000
   10.3951  -16.9051   19.3189 N   0  0  0  0  0  0  0  0  0  0  0  0
    9.3753  -17.3074   20.2751 C   0  0  1  0  0  0  0  0  0  0  0  0
    9.6510  -18.7427   20.6361 C   0  0  0  0  0  0  0  0  0  0  0  0
    9.2544  -19.7356   19.5936 C   0  0  0  0  0  0  0  0  0  0  0  0
    9.5189  -21.1314   19.9662 C   0  0  0  0  0  0  0  0  0  0  0  0
   10.0974  -21.5176   21.0127 O   0  0  0  0  0  0  0  0  0  0  0  0
    9.4236  -16.4689   21.4914 C   0  0  0  0  0  0  0  0  0  0  0  0
   10.5029  -16.1160   21.9826 O   0  0  0  0  0  0  0  0  0  0  0  0
    9.0998  -22.1333   19.0967 O   0  0  0  0  0  0  0  0  0  0  0  0
    6.9700  -11.4088   28.3675 O   0  0  0  0  0  0  0  0  0  0  0  0
    6.9803  -12.1615   27.1963 C   0  0  0  0  0  0  0  0  0  0  0  0
    6.2626  -13.3470   27.1138 C   0  0  0  0  0  0  0  0  0  0  0  0
    6.2493  -14.1209   25.9671 C   0  0  0  0  0  0  0  0  0  0  0  0
    6.9552  -13.7382   24.8550 C   0  0  0  0  0  0  0  0  0  0  0  0
    6.9675  -14.5279   23.6209 C   0  0  0  0  0  0  0  0  0  0  0  0
    8.2546  -15.2245   23.3346 C   0  0  2  0  0  0  0  0  0  0  0  0
    8.2276  -16.0286   22.1542 N   0  0  0  0  0  0  0  0  0  0  0  0
    8.5791  -16.0551   24.5509 C   0  0  0  0  0  0  0  0  0  0  0  0
    7.8214  -16.9894   24.9147 O   0  0  0  0  0  0  0  0  0  0  0  0
    7.6800  -12.5548   24.9174 C   0  0  0  0  0  0  0  0  0  0  0  0
    7.6879  -11.7817   26.0758 C   0  0  0  0  0  0  0  0  0  0  0  0
   11.5165  -17.9621   24.9135 C   0  0  0  0  0  0  0  0  0  0  0  0
   11.5193  -17.2423   26.2444 C   0  0  1  0  0  0  0  0  0  0  0  0
   12.5129  -16.1018   26.1833 C   0  0  0  0  0  0  0  0  0  0  0  0
   10.1549  -16.6457   26.4429 C   0  0  2  0  0  0  0  0  0  0  0  0
    9.7460  -15.8156   25.3276 N   0  0  0  0  0  0  0  0  0  0  0  0
   10.0165  -15.9212   27.7214 C   0  0  0  0  0  0  0  0  0  0  0  0
   10.1660  -16.5778   28.8027 O   0  0  0  0  0  0  0  0  0  0  0  0
    9.7382  -14.5897   27.8398 O   0  0  0  0  0  0  0  0  0  0  0  0
  2  7  1  0
  2  1  1  6
  3  2  1  0
  4  3  1  0
  4  5  1  0
  5  6  2  0
  7  8  2  0
  9  5  1  0
 10 11  1  0
 11 21  2  0
 11 12  1  0
 12 13  2  0
 13 14  1  0
 14 15  1  0
 16 15  1  1
 17 16  1  0
 17  7  1  0
 18 19  2  0
 18 16  1  0
 20 14  2  0
 21 20  1  0
 23 22  1  6
 23 25  1  0
 24 23  1  0
 25 27  1  0
 25 26  1  6
 26 18  1  0
 27 29  1  0
 28 27  2  0
M  END
$$$$
