EYV.pdb
     RDKit          3D

 29 29  0  0  1  0  0  0  0  0999 V2000
    4.3219  -20.9801   23.1258 N   0  0  0  0  0  0  0  0  0  0  0  0
    5.6675  -20.5276   23.4427 C   0  0  1  0  0  0  0  0  0  0  0  0
    6.5585  -20.9679   22.3119 C   0  0  0  0  0  0  0  0  0  0  0  0
    7.2983  -22.2411   22.5598 C   0  0  0  0  0  0  0  0  0  0  0  0
    8.1732  -22.6493   21.4531 C   0  0  0  0  0  0  0  0  0  0  0  0
    8.3127  -22.0421   20.3618 O   0  0  0  0  0  0  0  0  0  0  0  0
    5.7187  -19.0563   23.5743 C   0  0  0  0  0  0  0  0  0  0  0  0
    5.0868  -18.3227   22.8040 O   0  0  0  0  0  0  0  0  0  0  0  0
    8.9249  -23.8101   21.6046 O   0  0  0  0  0  0  0  0  0  0  0  0
    7.3041  -10.8246   26.4090 O   0  0  0  0  0  0  0  0  0  0  0  0
    7.2669  -12.2124   26.3038 C   0  0  0  0  0  0  0  0  0  0  0  0
    6.0539  -12.8874   26.3067 C   0  0  0  0  0  0  0  0  0  0  0  0
    5.9781  -14.2650   26.2041 C   0  0  0  0  0  0  0  0  0  0  0  0
    7.1157  -15.0234   26.0943 C   0  0  0  0  0  0  0  0  0  0  0  0
    7.0798  -16.4839   25.9829 C   0  0  0  0  0  0  0  0  0  0  0  0
    6.6984  -17.0013   24.6373 C   0  0  2  0  0  0  0  0  0  0  0  0
    6.4993  -18.4152   24.5958 N   0  0  0  0  0  0  0  0  0  0  0  0
    7.7874  -16.5774   23.6839 C   0  0  0  0  0  0  0  0  0  0  0  0
    8.8411  -17.2523   23.5672 O   0  0  0  0  0  0  0  0  0  0  0  0
    8.3398  -14.3667   26.0895 C   0  0  0  0  0  0  0  0  0  0  0  0
    8.4071  -12.9794   26.1932 C   0  0  0  0  0  0  0  0  0  0  0  0
    6.6352  -14.1811   20.6182 C   0  0  0  0  0  0  0  0  0  0  0  0
    8.0785  -13.9121   20.9842 C   0  0  1  0  0  0  0  0  0  0  0  0
    8.1409  -12.6799   21.8613 C   0  0  0  0  0  0  0  0  0  0  0  0
    8.5664  -15.0754   21.8000 C   0  0  2  0  0  0  0  0  0  0  0  0
    7.6656  -15.4067   22.8858 N   0  0  0  0  0  0  0  0  0  0  0  0
    9.9478  -14.9038   22.2910 C   0  0  0  0  0  0  0  0  0  0  0  0
   10.1389  -14.8825   23.5503 O   0  0  0  0  0  0  0  0  0  0  0  0
   11.0489  -14.7645   21.4958 O   0  0  0  0  0  0  0  0  0  0  0  0
  2  7  1  0
  2  1  1  6
  3  2  1  0
  4  3  1  0
  4  5  1  0
  5  6  2  0
  7  8  2  0
  9  5  1  0
 10 11  1  0
 11 21  2  0
 11 12  1  0
 12 13  2  0
 13 14  1  0
 14 15  1  0
 16 15  1  1
 17 16  1  0
 17  7  1  0
 18 19  2  0
 18 16  1  0
 20 14  2  0
 21 20  1  0
 23 22  1  1
 23 25  1  0
 24 23  1  0
 25 27  1  0
 25 26  1  1
 26 18  1  0
 27 29  1  0
 28 27  2  0
M  END
$$$$
