EYV.pdb
     RDKit          3D

 29 29  0  0  1  0  0  0  0  0999 V2000
   10.7111  -16.8407   18.9015 N   0  0  0  0  0  0  0  0  0  0  0  0
    9.6769  -17.3316   19.7990 C   0  0  1  0  0  0  0  0  0  0  0  0
    9.9695  -18.7859   20.0553 C   0  0  0  0  0  0  0  0  0  0  0  0
    9.1396  -19.7391   19.2599 C   0  0  0  0  0  0  0  0  0  0  0  0
    9.3861  -21.1524   19.5741 C   0  0  0  0  0  0  0  0  0  0  0  0
   10.2625  -21.5901   20.3610 O   0  0  0  0  0  0  0  0  0  0  0  0
    9.6826  -16.5888   21.0769 C   0  0  0  0  0  0  0  0  0  0  0  0
   10.7441  -16.2668   21.6250 O   0  0  0  0  0  0  0  0  0  0  0  0
    8.5891  -22.1107   18.9561 O   0  0  0  0  0  0  0  0  0  0  0  0
    6.9776  -11.8346   28.0841 O   0  0  0  0  0  0  0  0  0  0  0  0
    7.0136  -12.5649   26.8993 C   0  0  0  0  0  0  0  0  0  0  0  0
    7.6658  -12.0630   25.7813 C   0  0  0  0  0  0  0  0  0  0  0  0
    7.7222  -12.7600   24.5875 C   0  0  0  0  0  0  0  0  0  0  0  0
    7.1267  -13.9896   24.4650 C   0  0  0  0  0  0  0  0  0  0  0  0
    7.1633  -14.7607   23.2197 C   0  0  0  0  0  0  0  0  0  0  0  0
    8.4495  -15.4682   22.9574 C   0  0  2  0  0  0  0  0  0  0  0  0
    8.4641  -16.2094   21.7364 N   0  0  0  0  0  0  0  0  0  0  0  0
    8.7004  -16.3673   24.1421 C   0  0  0  0  0  0  0  0  0  0  0  0
    7.8972  -17.2887   24.4340 O   0  0  0  0  0  0  0  0  0  0  0  0
    6.4688  -14.5093   25.5725 C   0  0  0  0  0  0  0  0  0  0  0  0
    6.4168  -13.8009   26.7706 C   0  0  0  0  0  0  0  0  0  0  0  0
   11.3765  -18.6140   24.5687 C   0  0  0  0  0  0  0  0  0  0  0  0
   11.4938  -17.8044   25.8416 C   0  0  1  0  0  0  0  0  0  0  0  0
   12.5551  -16.7419   25.6512 C   0  0  0  0  0  0  0  0  0  0  0  0
   10.1830  -17.1031   26.0584 C   0  0  2  0  0  0  0  0  0  0  0  0
    9.8466  -16.2089   24.9687 N   0  0  0  0  0  0  0  0  0  0  0  0
   10.1022  -16.4085   27.3582 C   0  0  0  0  0  0  0  0  0  0  0  0
    9.9924  -15.1394   27.3547 O   0  0  0  0  0  0  0  0  0  0  0  0
   10.1360  -17.0231   28.5770 O   0  0  0  0  0  0  0  0  0  0  0  0
  2  7  1  0
  2  1  1  6
  3  2  1  0
  4  3  1  0
  4  5  1  0
  5  6  2  0
  7  8  2  0
  9  5  1  0
 10 11  1  0
 11 21  2  0
 11 12  1  0
 12 13  2  0
 13 14  1  0
 14 15  1  0
 16 15  1  1
 17 16  1  0
 17  7  1  0
 18 19  2  0
 18 16  1  0
 20 14  2  0
 21 20  1  0
 23 22  1  6
 23 25  1  0
 24 23  1  0
 25 27  1  0
 25 26  1  6
 26 18  1  0
 27 29  1  0
 28 27  2  0
M  END
$$$$
