EYV.pdb
     RDKit          3D

 29 29  0  0  1  0  0  0  0  0999 V2000
   11.6335  -16.7582   19.7075 N   0  0  0  0  0  0  0  0  0  0  0  0
   10.8994  -17.4179   20.7761 C   0  0  1  0  0  0  0  0  0  0  0  0
   11.7890  -18.5056   21.3161 C   0  0  0  0  0  0  0  0  0  0  0  0
   11.9077  -19.7079   20.4385 C   0  0  0  0  0  0  0  0  0  0  0  0
   12.6873  -20.8040   21.0283 C   0  0  0  0  0  0  0  0  0  0  0  0
   13.3041  -20.7637   22.1223 O   0  0  0  0  0  0  0  0  0  0  0  0
   10.5610  -16.4678   21.8566 C   0  0  0  0  0  0  0  0  0  0  0  0
   11.3380  -15.5595   22.1765 O   0  0  0  0  0  0  0  0  0  0  0  0
   12.7636  -22.0048   20.3299 O   0  0  0  0  0  0  0  0  0  0  0  0
    6.0385  -11.5103   27.6225 O   0  0  0  0  0  0  0  0  0  0  0  0
    6.3959  -12.4373   26.6472 C   0  0  0  0  0  0  0  0  0  0  0  0
    7.1616  -12.0520   25.5552 C   0  0  0  0  0  0  0  0  0  0  0  0
    7.5358  -12.9450   24.5669 C   0  0  0  0  0  0  0  0  0  0  0  0
    7.1576  -14.2619   24.6325 C   0  0  0  0  0  0  0  0  0  0  0  0
    7.5328  -15.2399   23.6080 C   0  0  0  0  0  0  0  0  0  0  0  0
    8.9706  -15.6351   23.6145 C   0  0  2  0  0  0  0  0  0  0  0  0
    9.3230  -16.5550   22.5800 N   0  0  0  0  0  0  0  0  0  0  0  0
    9.2560  -16.2145   24.9775 C   0  0  0  0  0  0  0  0  0  0  0  0
    9.1414  -17.4477   25.1909 O   0  0  0  0  0  0  0  0  0  0  0  0
    6.3910  -14.6674   25.7175 C   0  0  0  0  0  0  0  0  0  0  0  0
    6.0187  -13.7618   26.7080 C   0  0  0  0  0  0  0  0  0  0  0  0
   11.7176  -13.9348   27.3256 C   0  0  0  0  0  0  0  0  0  0  0  0
   10.8051  -14.8097   28.1571 C   0  0  1  0  0  0  0  0  0  0  0  0
    9.6156  -13.9891   28.6080 C   0  0  0  0  0  0  0  0  0  0  0  0
   10.2900  -15.9057   27.2681 C   0  0  2  0  0  0  0  0  0  0  0  0
    9.6626  -15.3947   26.0659 N   0  0  0  0  0  0  0  0  0  0  0  0
    9.4010  -16.8537   27.9679 C   0  0  0  0  0  0  0  0  0  0  0  0
    8.1863  -16.9270   27.5914 O   0  0  0  0  0  0  0  0  0  0  0  0
    9.7797  -17.6669   28.9972 O   0  0  0  0  0  0  0  0  0  0  0  0
  2  7  1  0
  2  1  1  6
  3  2  1  0
  4  3  1  0
  4  5  1  0
  5  6  2  0
  7  8  2  0
  9  5  1  0
 10 11  1  0
 11 21  2  0
 11 12  1  0
 12 13  2  0
 13 14  1  0
 14 15  1  0
 16 15  1  1
 17 16  1  0
 17  7  1  0
 18 19  2  0
 18 16  1  0
 20 14  2  0
 21 20  1  0
 23 22  1  6
 23 25  1  0
 24 23  1  0
 25 27  1  0
 25 26  1  6
 26 18  1  0
 27 29  1  0
 28 27  2  0
M  END
$$$$
