EYV.pdb
     RDKit          3D

 29 29  0  0  1  0  0  0  0  0999 V2000
   11.2253  -16.3195   19.3173 N   0  0  0  0  0  0  0  0  0  0  0  0
   10.9906  -17.0825   20.5333 C   0  0  1  0  0  0  0  0  0  0  0  0
   12.2699  -17.8092   20.8518 C   0  0  0  0  0  0  0  0  0  0  0  0
   12.6046  -18.9233   19.9155 C   0  0  0  0  0  0  0  0  0  0  0  0
   13.8026  -19.6834   20.2948 C   0  0  0  0  0  0  0  0  0  0  0  0
   13.9307  -20.3906   21.3255 O   0  0  0  0  0  0  0  0  0  0  0  0
   10.6273  -16.1954   21.6583 C   0  0  0  0  0  0  0  0  0  0  0  0
   11.2921  -15.1842   21.9161 O   0  0  0  0  0  0  0  0  0  0  0  0
   14.9078  -19.6301   19.4514 O   0  0  0  0  0  0  0  0  0  0  0  0
    5.8937  -11.7318   27.6265 O   0  0  0  0  0  0  0  0  0  0  0  0
    6.3111  -12.6090   26.6291 C   0  0  0  0  0  0  0  0  0  0  0  0
    7.0484  -12.1470   25.5474 C   0  0  0  0  0  0  0  0  0  0  0  0
    7.4802  -12.9889   24.5379 C   0  0  0  0  0  0  0  0  0  0  0  0
    7.1907  -14.3292   24.5712 C   0  0  0  0  0  0  0  0  0  0  0  0
    7.6291  -15.2549   23.5234 C   0  0  0  0  0  0  0  0  0  0  0  0
    9.0839  -15.5816   23.5435 C   0  0  2  0  0  0  0  0  0  0  0  0
    9.4935  -16.4648   22.4982 N   0  0  0  0  0  0  0  0  0  0  0  0
    9.3782  -16.1715   24.9001 C   0  0  0  0  0  0  0  0  0  0  0  0
    9.2204  -17.3992   25.1175 O   0  0  0  0  0  0  0  0  0  0  0  0
    6.4538  -14.8112   25.6455 C   0  0  0  0  0  0  0  0  0  0  0  0
    6.0230  -13.9567   26.6575 C   0  0  0  0  0  0  0  0  0  0  0  0
   11.7675  -13.9643   27.4673 C   0  0  0  0  0  0  0  0  0  0  0  0
   10.7602  -14.8324   28.1892 C   0  0  1  0  0  0  0  0  0  0  0  0
    9.5461  -13.9951   28.5306 C   0  0  0  0  0  0  0  0  0  0  0  0
   10.3179  -15.9063   27.2364 C   0  0  2  0  0  0  0  0  0  0  0  0
    9.8422  -15.3681   25.9777 N   0  0  0  0  0  0  0  0  0  0  0  0
    9.3313  -16.8346   27.8224 C   0  0  0  0  0  0  0  0  0  0  0  0
    8.1422  -16.8133   27.3661 O   0  0  0  0  0  0  0  0  0  0  0  0
    9.5934  -17.7239   28.8249 O   0  0  0  0  0  0  0  0  0  0  0  0
  2  7  1  0
  2  1  1  6
  3  2  1  0
  4  3  1  0
  4  5  1  0
  5  6  2  0
  7  8  2  0
  9  5  1  0
 10 11  1  0
 11 21  2  0
 11 12  1  0
 12 13  2  0
 13 14  1  0
 14 15  1  0
 16 15  1  1
 17 16  1  0
 17  7  1  0
 18 19  2  0
 18 16  1  0
 20 14  2  0
 21 20  1  0
 23 22  1  6
 23 25  1  0
 24 23  1  0
 25 27  1  0
 25 26  1  6
 26 18  1  0
 27 29  1  0
 28 27  2  0
M  END
$$$$
