PCH.pdb
     RDKit          3D

 24 25  0  0  1  0  0  0  0  0999 V2000
    8.0430  -14.9319   18.6740 N   0  0  0  0  0  0  0  0  0  0  0  0
    6.8820  -14.1308   18.9167 C   0  0  0  0  0  0  0  0  0  0  0  0
    7.2600  -12.6962   18.7190 C   0  0  0  0  0  0  0  0  0  0  0  0
    8.7073  -12.6880   18.3374 C   0  0  0  0  0  0  0  0  0  0  0  0
    9.1841  -14.0635   18.6533 C   0  0  1  0  0  0  0  0  0  0  0  0
    9.8401  -14.1546   19.9979 C   0  0  0  0  0  0  0  0  0  0  0  0
   10.8232  -13.4280   20.3151 O   0  0  0  0  0  0  0  0  0  0  0  0
    9.3838  -15.0693   20.9868 N   0  0  0  0  0  0  0  0  0  0  0  0
   10.0277  -15.2641   22.2620 C   0  0  1  0  0  0  0  0  0  0  0  0
    9.0324  -15.9837   23.1647 C   0  0  0  0  0  0  0  0  0  0  0  0
    9.6914  -16.2314   24.8242 S   0  0  0  0  0  0  0  0  0  0  0  0
   11.2829  -16.0365   22.1174 C   0  0  0  0  0  0  0  0  0  0  0  0
   11.2447  -17.1219   21.4839 O   0  0  0  0  0  0  0  0  0  0  0  0
   12.5203  -15.6282   22.6477 N   0  0  0  0  0  0  0  0  0  0  0  0
   13.7292  -16.4272   22.5438 C   0  0  1  0  0  0  0  0  0  0  0  0
   14.8180  -15.4904   22.0718 C   0  0  0  0  0  0  0  0  0  0  0  0
   14.7038  -15.1057   20.6618 C   0  0  0  0  0  0  0  0  0  0  0  0
   13.7399  -15.5228   19.7793 C   0  0  0  0  0  0  0  0  0  0  0  0
   13.9778  -14.9554   18.5932 N   0  0  0  0  0  0  0  0  0  0  0  0
   15.0762  -14.1896   18.7208 C   0  0  0  0  0  0  0  0  0  0  0  0
   15.5172  -14.2826   19.9825 N   0  0  0  0  0  0  0  0  0  0  0  0
   14.0592  -17.1016   23.8021 C   0  0  0  0  0  0  0  0  0  0  0  0
   15.0906  -18.0209   23.9435 O   0  0  0  0  0  0  0  0  0  0  0  0
   13.3829  -16.8477   24.8224 O   0  0  0  0  0  0  0  0  0  0  0  0
  1  5  1  0
  1  2  1  0
  2  3  1  0
  4  3  1  0
  5  4  1  0
  6  8  1  0
  5  6  1  1
  7  6  2  0
  9  8  1  0
  9 12  1  0
  9 10  1  1
 11 10  1  0
 12 14  1  0
 13 12  2  0
 14 15  1  0
 15 16  1  1
 15 22  1  0
 17 16  1  0
 18 17  2  0
 19 20  1  0
 19 18  1  0
 20 21  2  0
 21 17  1  0
 22 23  1  0
 24 22  2  0
M  END
$$$$
