PCH.pdb
     RDKit          3D

 24 25  0  0  1  0  0  0  0  0999 V2000
   10.4991  -18.8297   20.4107 N   0  0  0  0  0  0  0  0  0  0  0  0
    9.2788  -18.2354   19.9564 C   0  0  0  0  0  0  0  0  0  0  0  0
    9.6280  -17.0626   19.0945 C   0  0  0  0  0  0  0  0  0  0  0  0
   11.1228  -16.9964   19.0543 C   0  0  0  0  0  0  0  0  0  0  0  0
   11.5661  -17.9090   20.1450 C   0  0  1  0  0  0  0  0  0  0  0  0
   11.8598  -17.1837   21.4234 C   0  0  0  0  0  0  0  0  0  0  0  0
   12.6248  -16.1796   21.4643 O   0  0  0  0  0  0  0  0  0  0  0  0
   11.2874  -17.5942   22.6590 N   0  0  0  0  0  0  0  0  0  0  0  0
   11.5915  -16.9842   23.9296 C   0  0  1  0  0  0  0  0  0  0  0  0
   10.2635  -16.6550   24.6013 C   0  0  0  0  0  0  0  0  0  0  0  0
   10.4897  -15.6222   26.0613 S   0  0  0  0  0  0  0  0  0  0  0  0
   12.4159  -17.8807   24.7721 C   0  0  0  0  0  0  0  0  0  0  0  0
   12.9400  -17.4058   25.8116 O   0  0  0  0  0  0  0  0  0  0  0  0
   12.6493  -19.2367   24.4790 N   0  0  0  0  0  0  0  0  0  0  0  0
   13.5069  -20.0858   25.2877 C   0  0  1  0  0  0  0  0  0  0  0  0
   14.7872  -19.3116   25.5054 C   0  0  0  0  0  0  0  0  0  0  0  0
   15.6363  -19.2163   24.3142 C   0  0  0  0  0  0  0  0  0  0  0  0
   15.2994  -19.6001   23.0410 C   0  0  0  0  0  0  0  0  0  0  0  0
   16.3379  -19.3563   22.2365 N   0  0  0  0  0  0  0  0  0  0  0  0
   17.3195  -18.8256   22.9876 C   0  0  0  0  0  0  0  0  0  0  0  0
   16.8897  -18.7411   24.2538 N   0  0  0  0  0  0  0  0  0  0  0  0
   12.8638  -20.4935   26.5396 C   0  0  0  0  0  0  0  0  0  0  0  0
   11.6104  -20.0558   26.9474 O   0  0  0  0  0  0  0  0  0  0  0  0
   13.4635  -21.2829   27.3011 O   0  0  0  0  0  0  0  0  0  0  0  0
  1  5  1  0
  1  2  1  0
  2  3  1  0
  4  3  1  0
  5  4  1  0
  6  8  1  0
  5  6  1  1
  7  6  2  0
  9  8  1  0
  9 12  1  0
  9 10  1  1
 11 10  1  0
 12 14  1  0
 13 12  2  0
 14 15  1  0
 15 16  1  1
 15 22  1  0
 17 16  1  0
 18 17  2  0
 19 20  1  0
 19 18  1  0
 20 21  2  0
 21 17  1  0
 22 23  1  0
 24 22  2  0
M  END
$$$$
