PCH.pdb
     RDKit          3D

 24 25  0  0  1  0  0  0  0  0999 V2000
    7.6448  -15.1126   20.4169 N   0  0  0  0  0  0  0  0  0  0  0  0
    6.3211  -14.6095   20.2086 C   0  0  0  0  0  0  0  0  0  0  0  0
    6.4262  -13.1539   19.8767 C   0  0  0  0  0  0  0  0  0  0  0  0
    7.8852  -12.8201   19.8910 C   0  0  0  0  0  0  0  0  0  0  0  0
    8.5293  -13.9913   20.5485 C   0  0  1  0  0  0  0  0  0  0  0  0
    8.7644  -13.7764   22.0132 C   0  0  0  0  0  0  0  0  0  0  0  0
    8.9033  -12.6227   22.5079 O   0  0  0  0  0  0  0  0  0  0  0  0
    8.8426  -14.8683   22.9212 N   0  0  0  0  0  0  0  0  0  0  0  0
    8.9749  -14.7202   24.3493 C   0  0  1  0  0  0  0  0  0  0  0  0
    7.7700  -13.9221   24.8337 C   0  0  0  0  0  0  0  0  0  0  0  0
    7.8283  -13.6350   26.6124 S   0  0  0  0  0  0  0  0  0  0  0  0
    9.0561  -16.0377   25.0207 C   0  0  0  0  0  0  0  0  0  0  0  0
    7.9918  -16.6843   25.1941 O   0  0  0  0  0  0  0  0  0  0  0  0
   10.2561  -16.6121   25.4780 N   0  0  0  0  0  0  0  0  0  0  0  0
   10.3142  -17.9039   26.1401 C   0  0  1  0  0  0  0  0  0  0  0  0
   11.7152  -18.4292   25.9237 C   0  0  0  0  0  0  0  0  0  0  0  0
   12.0578  -18.6520   24.5158 C   0  0  0  0  0  0  0  0  0  0  0  0
   11.2219  -18.4947   23.4395 C   0  0  0  0  0  0  0  0  0  0  0  0
   11.9010  -18.7945   22.3286 N   0  0  0  0  0  0  0  0  0  0  0  0
   13.1494  -19.1370   22.6941 C   0  0  0  0  0  0  0  0  0  0  0  0
   13.2428  -19.0494   24.0277 N   0  0  0  0  0  0  0  0  0  0  0  0
    9.9461  -17.8194   27.5559 C   0  0  0  0  0  0  0  0  0  0  0  0
    9.7997  -18.9221   28.3875 O   0  0  0  0  0  0  0  0  0  0  0  0
    9.7473  -16.6953   28.0654 O   0  0  0  0  0  0  0  0  0  0  0  0
  1  5  1  0
  1  2  1  0
  2  3  1  0
  4  3  1  0
  5  4  1  0
  6  8  1  0
  5  6  1  1
  7  6  2  0
  9  8  1  0
  9 12  1  0
  9 10  1  1
 11 10  1  0
 12 14  1  0
 13 12  2  0
 14 15  1  0
 15 16  1  1
 15 22  1  0
 17 16  1  0
 18 17  2  0
 19 20  1  0
 19 18  1  0
 20 21  2  0
 21 17  1  0
 22 23  1  0
 24 22  2  0
M  END
$$$$
