PCH.pdb
     RDKit          3D

 24 25  0  0  1  0  0  0  0  0999 V2000
    6.9715  -15.0094   21.0719 N   0  0  0  0  0  0  0  0  0  0  0  0
    6.2745  -13.8605   20.5791 C   0  0  0  0  0  0  0  0  0  0  0  0
    7.2779  -12.9446   19.9511 C   0  0  0  0  0  0  0  0  0  0  0  0
    8.6090  -13.6150   20.0898 C   0  0  0  0  0  0  0  0  0  0  0  0
    8.3742  -14.7106   21.0716 C   0  0  1  0  0  0  0  0  0  0  0  0
    8.7498  -14.3251   22.4704 C   0  0  0  0  0  0  0  0  0  0  0  0
    9.9228  -13.9705   22.7764 O   0  0  0  0  0  0  0  0  0  0  0  0
    7.7973  -14.3403   23.5265 N   0  0  0  0  0  0  0  0  0  0  0  0
    8.0561  -13.8347   24.8518 C   0  0  1  0  0  0  0  0  0  0  0  0
    6.7144  -13.4257   25.4485 C   0  0  0  0  0  0  0  0  0  0  0  0
    6.4860  -14.0976   27.1056 S   0  0  0  0  0  0  0  0  0  0  0  0
    8.7340  -14.8494   25.6908 C   0  0  0  0  0  0  0  0  0  0  0  0
    8.1945  -15.9785   25.8126 O   0  0  0  0  0  0  0  0  0  0  0  0
    9.9498  -14.6260   26.3624 N   0  0  0  0  0  0  0  0  0  0  0  0
   10.5773  -15.6196   27.2164 C   0  0  1  0  0  0  0  0  0  0  0  0
   12.0639  -15.5236   26.9581 C   0  0  0  0  0  0  0  0  0  0  0  0
   12.4684  -15.9809   25.6253 C   0  0  0  0  0  0  0  0  0  0  0  0
   11.6404  -16.4641   24.6441 C   0  0  0  0  0  0  0  0  0  0  0  0
   12.3839  -16.7768   23.5788 N   0  0  0  0  0  0  0  0  0  0  0  0
   13.6647  -16.4964   23.8793 C   0  0  0  0  0  0  0  0  0  0  0  0
   13.7139  -16.0113   25.1272 N   0  0  0  0  0  0  0  0  0  0  0  0
   10.2281  -15.4391   28.6280 C   0  0  0  0  0  0  0  0  0  0  0  0
   10.5339  -16.3541   29.6271 O   0  0  0  0  0  0  0  0  0  0  0  0
    9.6173  -14.4049   28.9747 O   0  0  0  0  0  0  0  0  0  0  0  0
  1  5  1  0
  1  2  1  0
  2  3  1  0
  4  3  1  0
  5  4  1  0
  6  8  1  0
  5  6  1  1
  7  6  2  0
  9  8  1  0
  9 12  1  0
  9 10  1  1
 11 10  1  0
 12 14  1  0
 13 12  2  0
 14 15  1  0
 15 16  1  1
 15 22  1  0
 17 16  1  0
 18 17  2  0
 19 20  1  0
 19 18  1  0
 20 21  2  0
 21 17  1  0
 22 23  1  0
 24 22  2  0
M  END
$$$$
