PCH.pdb
     RDKit          3D

 24 25  0  0  1  0  0  0  0  0999 V2000
    7.9151  -17.7372   18.0027 N   0  0  0  0  0  0  0  0  0  0  0  0
    8.1392  -17.5528   16.6012 C   0  0  0  0  0  0  0  0  0  0  0  0
    9.2209  -18.4964   16.1774 C   0  0  0  0  0  0  0  0  0  0  0  0
    9.6225  -19.2581   17.4017 C   0  0  0  0  0  0  0  0  0  0  0  0
    9.0071  -18.5035   18.5291 C   0  0  1  0  0  0  0  0  0  0  0  0
    9.9606  -17.5413   19.1707 C   0  0  0  0  0  0  0  0  0  0  0  0
   10.8760  -16.9675   18.5167 O   0  0  0  0  0  0  0  0  0  0  0  0
    9.8793  -17.2267   20.5554 N   0  0  0  0  0  0  0  0  0  0  0  0
   10.8502  -16.4245   21.2574 C   0  0  1  0  0  0  0  0  0  0  0  0
   10.0777  -15.4508   22.1397 C   0  0  0  0  0  0  0  0  0  0  0  0
    8.8635  -16.2980   23.1681 S   0  0  0  0  0  0  0  0  0  0  0  0
   11.7667  -17.2688   22.0576 C   0  0  0  0  0  0  0  0  0  0  0  0
   11.2904  -18.2721   22.6469 O   0  0  0  0  0  0  0  0  0  0  0  0
   13.1433  -17.0156   22.1991 N   0  0  0  0  0  0  0  0  0  0  0  0
   14.0300  -17.8672   22.9729 C   0  0  1  0  0  0  0  0  0  0  0  0
   15.0615  -18.3984   22.0036 C   0  0  0  0  0  0  0  0  0  0  0  0
   14.5040  -19.2432   20.9431 C   0  0  0  0  0  0  0  0  0  0  0  0
   13.5055  -20.1734   21.0833 C   0  0  0  0  0  0  0  0  0  0  0  0
   13.2801  -20.7354   19.8922 N   0  0  0  0  0  0  0  0  0  0  0  0
   14.1229  -20.1705   19.0091 C   0  0  0  0  0  0  0  0  0  0  0  0
   14.8680  -19.2612   19.6518 N   0  0  0  0  0  0  0  0  0  0  0  0
   14.6236  -17.1618   24.1118 C   0  0  0  0  0  0  0  0  0  0  0  0
   14.3910  -15.8240   24.4038 O   0  0  0  0  0  0  0  0  0  0  0  0
   15.3890  -17.7843   24.8795 O   0  0  0  0  0  0  0  0  0  0  0  0
  1  5  1  0
  1  2  1  0
  2  3  1  0
  4  3  1  0
  5  4  1  0
  6  8  1  0
  5  6  1  6
  7  6  2  0
  9  8  1  0
  9 12  1  0
  9 10  1  1
 11 10  1  0
 12 14  1  0
 13 12  2  0
 14 15  1  0
 15 16  1  6
 15 22  1  0
 17 16  1  0
 18 17  2  0
 19 20  1  0
 19 18  1  0
 20 21  2  0
 21 17  1  0
 22 23  1  0
 24 22  2  0
M  END
$$$$
