PCH.pdb
     RDKit          3D

 24 25  0  0  1  0  0  0  0  0999 V2000
    6.9906  -14.8547   20.5052 N   0  0  0  0  0  0  0  0  0  0  0  0
    6.4466  -13.5722   20.1771 C   0  0  0  0  0  0  0  0  0  0  0  0
    7.5417  -12.7434   19.5820 C   0  0  0  0  0  0  0  0  0  0  0  0
    8.7651  -13.6057   19.5666 C   0  0  0  0  0  0  0  0  0  0  0  0
    8.4203  -14.7581   20.4453 C   0  0  1  0  0  0  0  0  0  0  0  0
    8.9162  -14.5848   21.8490 C   0  0  0  0  0  0  0  0  0  0  0  0
   10.1428  -14.4422   22.1142 O   0  0  0  0  0  0  0  0  0  0  0  0
    8.0236  -14.5726   22.9562 N   0  0  0  0  0  0  0  0  0  0  0  0
    8.4482  -14.5006   24.3323 C   0  0  1  0  0  0  0  0  0  0  0  0
    7.3711  -13.7404   25.0975 C   0  0  0  0  0  0  0  0  0  0  0  0
    5.9618  -14.7927   25.4926 S   0  0  0  0  0  0  0  0  0  0  0  0
    8.6628  -15.8516   24.8995 C   0  0  0  0  0  0  0  0  0  0  0  0
    7.7241  -16.6847   24.8252 O   0  0  0  0  0  0  0  0  0  0  0  0
    9.8576  -16.2612   25.5189 N   0  0  0  0  0  0  0  0  0  0  0  0
   10.0415  -17.5850   26.0882 C   0  0  1  0  0  0  0  0  0  0  0  0
   11.4254  -18.0350   25.6782 C   0  0  0  0  0  0  0  0  0  0  0  0
   11.5960  -18.1955   24.2311 C   0  0  0  0  0  0  0  0  0  0  0  0
   10.6031  -18.1610   23.2852 C   0  0  0  0  0  0  0  0  0  0  0  0
   11.1564  -18.3482   22.0835 N   0  0  0  0  0  0  0  0  0  0  0  0
   12.4808  -18.4992   22.2638 C   0  0  0  0  0  0  0  0  0  0  0  0
   12.7466  -18.4058   23.5736 N   0  0  0  0  0  0  0  0  0  0  0  0
    9.8411  -17.5981   27.5396 C   0  0  0  0  0  0  0  0  0  0  0  0
    9.5253  -16.4732   28.2904 O   0  0  0  0  0  0  0  0  0  0  0  0
    9.9570  -18.6780   28.1586 O   0  0  0  0  0  0  0  0  0  0  0  0
  1  5  1  0
  1  2  1  0
  2  3  1  0
  4  3  1  0
  5  4  1  0
  6  8  1  0
  5  6  1  1
  7  6  2  0
  9  8  1  0
  9 12  1  0
  9 10  1  1
 11 10  1  0
 12 14  1  0
 13 12  2  0
 14 15  1  0
 15 16  1  1
 15 22  1  0
 17 16  1  0
 18 17  2  0
 19 20  1  0
 19 18  1  0
 20 21  2  0
 21 17  1  0
 22 23  1  0
 24 22  2  0
M  END
$$$$
