PCH.pdb
     RDKit          3D

 24 25  0  0  1  0  0  0  0  0999 V2000
    8.5707  -14.4869   18.3530 N   0  0  0  0  0  0  0  0  0  0  0  0
    7.4066  -13.7101   18.0527 C   0  0  0  0  0  0  0  0  0  0  0  0
    7.3090  -12.6123   19.0654 C   0  0  0  0  0  0  0  0  0  0  0  0
    8.4831  -12.7735   19.9797 C   0  0  0  0  0  0  0  0  0  0  0  0
    9.0139  -14.1304   19.6695 C   0  0  1  0  0  0  0  0  0  0  0  0
    8.5070  -15.1800   20.6118 C   0  0  0  0  0  0  0  0  0  0  0  0
    7.4043  -15.7684   20.4299 O   0  0  0  0  0  0  0  0  0  0  0  0
    9.2481  -15.5657   21.7627 N   0  0  0  0  0  0  0  0  0  0  0  0
    8.8782  -16.6560   22.6308 C   0  0  1  0  0  0  0  0  0  0  0  0
    9.6654  -17.8802   22.1781 C   0  0  0  0  0  0  0  0  0  0  0  0
   11.4329  -17.5402   22.0784 S   0  0  0  0  0  0  0  0  0  0  0  0
    9.1532  -16.3304   24.0490 C   0  0  0  0  0  0  0  0  0  0  0  0
   10.1180  -15.5671   24.3086 O   0  0  0  0  0  0  0  0  0  0  0  0
    8.3978  -16.8251   25.1278 N   0  0  0  0  0  0  0  0  0  0  0  0
    8.7544  -16.5933   26.5169 C   0  0  1  0  0  0  0  0  0  0  0  0
    7.5478  -15.9516   27.1636 C   0  0  0  0  0  0  0  0  0  0  0  0
    7.3144  -14.5656   26.7470 C   0  0  0  0  0  0  0  0  0  0  0  0
    8.2711  -13.6022   26.5503 C   0  0  0  0  0  0  0  0  0  0  0  0
    7.6635  -12.4720   26.1779 N   0  0  0  0  0  0  0  0  0  0  0  0
    6.3409  -12.7141   26.1388 C   0  0  0  0  0  0  0  0  0  0  0  0
    6.1303  -13.9908   26.4860 N   0  0  0  0  0  0  0  0  0  0  0  0
    9.1819  -17.8210   27.1930 C   0  0  0  0  0  0  0  0  0  0  0  0
    9.2489  -19.0640   26.5770 O   0  0  0  0  0  0  0  0  0  0  0  0
    9.5104  -17.7675   28.3979 O   0  0  0  0  0  0  0  0  0  0  0  0
  1  5  1  0
  1  2  1  0
  2  3  1  0
  4  3  1  0
  5  4  1  0
  6  8  1  0
  5  6  1  1
  7  6  2  0
  9  8  1  0
  9 12  1  0
  9 10  1  6
 11 10  1  0
 12 14  1  0
 13 12  2  0
 14 15  1  0
 15 16  1  1
 15 22  1  0
 17 16  1  0
 18 17  2  0
 19 20  1  0
 19 18  1  0
 20 21  2  0
 21 17  1  0
 22 23  1  0
 24 22  2  0
M  END
$$$$
