PCH.pdb
     RDKit          3D

 24 25  0  0  1  0  0  0  0  0999 V2000
    7.6124  -15.0662   19.5494 N   0  0  0  0  0  0  0  0  0  0  0  0
    6.8127  -13.9105   19.2780 C   0  0  0  0  0  0  0  0  0  0  0  0
    7.7324  -12.7847   18.9218 C   0  0  0  0  0  0  0  0  0  0  0  0
    9.1225  -13.3358   18.9881 C   0  0  0  0  0  0  0  0  0  0  0  0
    8.9738  -14.6390   19.6942 C   0  0  1  0  0  0  0  0  0  0  0  0
    9.2571  -14.5378   21.1626 C   0  0  0  0  0  0  0  0  0  0  0  0
   10.3851  -14.1815   21.6049 O   0  0  0  0  0  0  0  0  0  0  0  0
    8.2630  -14.8402   22.1337 N   0  0  0  0  0  0  0  0  0  0  0  0
    8.5078  -14.8709   23.5543 C   0  0  1  0  0  0  0  0  0  0  0  0
    7.1917  -14.5353   24.2462 C   0  0  0  0  0  0  0  0  0  0  0  0
    7.3561  -14.5511   26.0413 S   0  0  0  0  0  0  0  0  0  0  0  0
    9.0221  -16.1920   23.9822 C   0  0  0  0  0  0  0  0  0  0  0  0
    8.3052  -17.2046   23.7786 O   0  0  0  0  0  0  0  0  0  0  0  0
   10.2688  -16.3838   24.6052 N   0  0  0  0  0  0  0  0  0  0  0  0
   10.6858  -17.6565   25.1679 C   0  0  1  0  0  0  0  0  0  0  0  0
   12.1142  -17.8706   24.7212 C   0  0  0  0  0  0  0  0  0  0  0  0
   12.2525  -18.1871   23.2965 C   0  0  0  0  0  0  0  0  0  0  0  0
   11.2303  -18.3778   22.4017 C   0  0  0  0  0  0  0  0  0  0  0  0
   11.7599  -18.6486   21.2053 N   0  0  0  0  0  0  0  0  0  0  0  0
   13.0983  -18.6301   21.3385 C   0  0  0  0  0  0  0  0  0  0  0  0
   13.3964  -18.3486   22.6140 N   0  0  0  0  0  0  0  0  0  0  0  0
   10.5283  -17.6983   26.6241 C   0  0  0  0  0  0  0  0  0  0  0  0
   10.0172  -16.6517   27.3805 O   0  0  0  0  0  0  0  0  0  0  0  0
   10.8691  -18.7302   27.2421 O   0  0  0  0  0  0  0  0  0  0  0  0
  1  5  1  0
  1  2  1  0
  2  3  1  0
  4  3  1  0
  5  4  1  0
  6  8  1  0
  5  6  1  1
  7  6  2  0
  9  8  1  0
  9 12  1  0
  9 10  1  1
 11 10  1  0
 12 14  1  0
 13 12  2  0
 14 15  1  0
 15 16  1  1
 15 22  1  0
 17 16  1  0
 18 17  2  0
 19 20  1  0
 19 18  1  0
 20 21  2  0
 21 17  1  0
 22 23  1  0
 24 22  2  0
M  END
$$$$
