PCH.pdb
     RDKit          3D

 24 25  0  0  1  0  0  0  0  0999 V2000
    6.7762  -14.6492   20.7206 N   0  0  0  0  0  0  0  0  0  0  0  0
    6.3071  -13.3520   20.3389 C   0  0  0  0  0  0  0  0  0  0  0  0
    7.4487  -12.6123   19.7145 C   0  0  0  0  0  0  0  0  0  0  0  0
    8.6205  -13.5432   19.7383 C   0  0  0  0  0  0  0  0  0  0  0  0
    8.2091  -14.6373   20.6618 C   0  0  1  0  0  0  0  0  0  0  0  0
    8.7125  -14.4357   22.0591 C   0  0  0  0  0  0  0  0  0  0  0  0
    9.9415  -14.2991   22.3160 O   0  0  0  0  0  0  0  0  0  0  0  0
    7.8247  -14.3885   23.1692 N   0  0  0  0  0  0  0  0  0  0  0  0
    8.2518  -14.2136   24.5352 C   0  0  1  0  0  0  0  0  0  0  0  0
    7.1062  -13.5421   25.2836 C   0  0  0  0  0  0  0  0  0  0  0  0
    7.5568  -13.1489   26.9841 S   0  0  0  0  0  0  0  0  0  0  0  0
    8.6161  -15.5088   25.1540 C   0  0  0  0  0  0  0  0  0  0  0  0
    7.7398  -16.4085   25.2123 O   0  0  0  0  0  0  0  0  0  0  0  0
    9.8881  -15.7949   25.6826 N   0  0  0  0  0  0  0  0  0  0  0  0
   10.2178  -17.0623   26.3114 C   0  0  1  0  0  0  0  0  0  0  0  0
   11.6219  -17.4042   25.8669 C   0  0  0  0  0  0  0  0  0  0  0  0
   11.7389  -17.7002   24.4359 C   0  0  0  0  0  0  0  0  0  0  0  0
   10.7575  -18.2162   23.6281 C   0  0  0  0  0  0  0  0  0  0  0  0
   11.2498  -18.3436   22.3925 N   0  0  0  0  0  0  0  0  0  0  0  0
   12.5246  -17.9149   22.4155 C   0  0  0  0  0  0  0  0  0  0  0  0
   12.8207  -17.5232   23.6620 N   0  0  0  0  0  0  0  0  0  0  0  0
   10.0741  -17.0132   27.7688 C   0  0  0  0  0  0  0  0  0  0  0  0
   10.2583  -18.1069   28.6048 O   0  0  0  0  0  0  0  0  0  0  0  0
    9.7673  -15.9301   28.3124 O   0  0  0  0  0  0  0  0  0  0  0  0
  1  5  1  0
  1  2  1  0
  2  3  1  0
  4  3  1  0
  5  4  1  0
  6  8  1  0
  5  6  1  1
  7  6  2  0
  9  8  1  0
  9 12  1  0
  9 10  1  1
 11 10  1  0
 12 14  1  0
 13 12  2  0
 14 15  1  0
 15 16  1  1
 15 22  1  0
 17 16  1  0
 18 17  2  0
 19 20  1  0
 19 18  1  0
 20 21  2  0
 21 17  1  0
 22 23  1  0
 24 22  2  0
M  END
$$$$
