PCH.pdb
     RDKit          3D

 24 25  0  0  1  0  0  0  0  0999 V2000
    6.8613  -14.8900   19.9767 N   0  0  0  0  0  0  0  0  0  0  0  0
    6.2227  -13.6128   19.8794 C   0  0  0  0  0  0  0  0  0  0  0  0
    7.2557  -12.6087   19.4735 C   0  0  0  0  0  0  0  0  0  0  0  0
    8.5421  -13.3597   19.3267 C   0  0  0  0  0  0  0  0  0  0  0  0
    8.2797  -14.6781   19.9686 C   0  0  1  0  0  0  0  0  0  0  0  0
    8.7485  -14.7331   21.3912 C   0  0  0  0  0  0  0  0  0  0  0  0
    9.9647  -14.5951   21.7024 O   0  0  0  0  0  0  0  0  0  0  0  0
    7.8403  -14.9448   22.4651 N   0  0  0  0  0  0  0  0  0  0  0  0
    8.2330  -15.0103   23.8509 C   0  0  1  0  0  0  0  0  0  0  0  0
    6.9614  -14.9092   24.6853 C   0  0  0  0  0  0  0  0  0  0  0  0
    6.5813  -13.2021   25.1222 S   0  0  0  0  0  0  0  0  0  0  0  0
    8.9722  -16.2602   24.1412 C   0  0  0  0  0  0  0  0  0  0  0  0
    8.4221  -17.3559   23.8626 O   0  0  0  0  0  0  0  0  0  0  0  0
   10.2575  -16.2964   24.7118 N   0  0  0  0  0  0  0  0  0  0  0  0
   10.9457  -17.5340   25.0363 C   0  0  1  0  0  0  0  0  0  0  0  0
   12.3646  -17.3737   24.5397 C   0  0  0  0  0  0  0  0  0  0  0  0
   13.2142  -18.5453   24.7733 C   0  0  0  0  0  0  0  0  0  0  0  0
   12.8226  -19.7379   25.3266 C   0  0  0  0  0  0  0  0  0  0  0  0
   13.8817  -20.5512   25.3730 N   0  0  0  0  0  0  0  0  0  0  0  0
   14.9300  -19.8849   24.8568 C   0  0  0  0  0  0  0  0  0  0  0  0
   14.5209  -18.6624   24.4919 N   0  0  0  0  0  0  0  0  0  0  0  0
   10.8710  -17.8531   26.4645 C   0  0  0  0  0  0  0  0  0  0  0  0
   11.2009  -19.0904   27.0023 O   0  0  0  0  0  0  0  0  0  0  0  0
   10.4894  -16.9714   27.2643 O   0  0  0  0  0  0  0  0  0  0  0  0
  1  5  1  0
  1  2  1  0
  2  3  1  0
  4  3  1  0
  5  4  1  0
  6  8  1  0
  5  6  1  1
  7  6  2  0
  9  8  1  0
  9 12  1  0
  9 10  1  1
 11 10  1  0
 12 14  1  0
 13 12  2  0
 14 15  1  0
 15 16  1  1
 15 22  1  0
 17 16  1  0
 18 17  2  0
 19 20  1  0
 19 18  1  0
 20 21  2  0
 21 17  1  0
 22 23  1  0
 24 22  2  0
M  END
$$$$
