PCH.pdb
     RDKit          3D

 24 25  0  0  1  0  0  0  0  0999 V2000
    9.2259  -14.3695   18.7277 N   0  0  0  0  0  0  0  0  0  0  0  0
    8.1032  -14.3434   17.8402 C   0  0  0  0  0  0  0  0  0  0  0  0
    7.1352  -13.3214   18.3485 C   0  0  0  0  0  0  0  0  0  0  0  0
    7.7468  -12.7350   19.5824 C   0  0  0  0  0  0  0  0  0  0  0  0
    8.8644  -13.6601   19.9205 C   0  0  1  0  0  0  0  0  0  0  0  0
    8.4804  -14.6807   20.9489 C   0  0  0  0  0  0  0  0  0  0  0  0
    7.4785  -14.5290   21.7028 O   0  0  0  0  0  0  0  0  0  0  0  0
    9.2307  -15.8759   21.1259 N   0  0  0  0  0  0  0  0  0  0  0  0
    8.9211  -16.8828   22.1104 C   0  0  1  0  0  0  0  0  0  0  0  0
    9.5712  -18.1814   21.6473 C   0  0  0  0  0  0  0  0  0  0  0  0
    8.6418  -18.9557   20.3109 S   0  0  0  0  0  0  0  0  0  0  0  0
    9.4023  -16.4864   23.4537 C   0  0  0  0  0  0  0  0  0  0  0  0
   10.5175  -15.9125   23.5415 O   0  0  0  0  0  0  0  0  0  0  0  0
    8.6847  -16.7137   24.6422 N   0  0  0  0  0  0  0  0  0  0  0  0
    9.2119  -16.3980   25.9586 C   0  0  1  0  0  0  0  0  0  0  0  0
    8.0612  -15.8171   26.7486 C   0  0  0  0  0  0  0  0  0  0  0  0
    7.5600  -14.5435   26.2235 C   0  0  0  0  0  0  0  0  0  0  0  0
    8.2258  -13.6927   25.3781 C   0  0  0  0  0  0  0  0  0  0  0  0
    7.4398  -12.6409   25.1306 N   0  0  0  0  0  0  0  0  0  0  0  0
    6.2922  -12.8212   25.8088 C   0  0  0  0  0  0  0  0  0  0  0  0
    6.3676  -13.9816   26.4742 N   0  0  0  0  0  0  0  0  0  0  0  0
    9.8220  -17.5621   26.6064 C   0  0  0  0  0  0  0  0  0  0  0  0
   10.4924  -17.5122   27.8217 O   0  0  0  0  0  0  0  0  0  0  0  0
    9.7454  -18.6775   26.0472 O   0  0  0  0  0  0  0  0  0  0  0  0
  1  5  1  0
  1  2  1  0
  2  3  1  0
  4  3  1  0
  5  4  1  0
  6  8  1  0
  5  6  1  1
  7  6  2  0
  9  8  1  0
  9 12  1  0
  9 10  1  6
 11 10  1  0
 12 14  1  0
 13 12  2  0
 14 15  1  0
 15 16  1  1
 15 22  1  0
 17 16  1  0
 18 17  2  0
 19 20  1  0
 19 18  1  0
 20 21  2  0
 21 17  1  0
 22 23  1  0
 24 22  2  0
M  END
$$$$
