RVE.pdb
     RDKit          3D

 28 27  0  0  1  0  0  0  0  0999 V2000
   20.5907  -22.6832   -7.1297 N   0  0  0  0  0  0  0  0  0  0  0  0
   19.5379  -22.8834   -8.0592 C   0  0  0  0  0  0  0  0  0  0  0  0
   18.7757  -23.9162   -7.9275 N   0  0  0  0  0  0  0  0  0  0  0  0
   19.3273  -21.9468   -9.1312 N   0  0  0  0  0  0  0  0  0  0  0  0
   20.2930  -20.9043   -9.3741 C   0  0  0  0  0  0  0  0  0  0  0  0
   21.6898  -21.4570   -9.5161 C   0  0  0  0  0  0  0  0  0  0  0  0
   22.7114  -20.3869   -9.8105 C   0  0  0  0  0  0  0  0  0  0  0  0
   24.0538  -20.9864  -10.1937 C   0  0  2  0  0  0  0  0  0  0  0  0
   24.9366  -20.7035   -9.0662 N   0  0  0  0  0  0  0  0  0  0  0  0
   24.6268  -20.3099  -11.3797 C   0  0  0  0  0  0  0  0  0  0  0  0
   25.1797  -19.1938  -11.2609 O   0  0  0  0  0  0  0  0  0  0  0  0
   17.9577  -24.1228   -8.5299 C   0  0  0  0  0  0  0  0  0  0  0  0
   25.8838  -22.4061  -14.8365 C   0  0  1  0  0  0  0  0  0  0  0  0
   26.3175  -21.0365  -14.3642 C   0  0  0  0  0  0  0  0  0  0  0  0
   27.4542  -21.1701  -13.3910 C   0  0  1  0  0  0  0  0  0  0  0  0
   25.1571  -20.2386  -13.8445 N   0  0  0  0  0  0  0  0  0  0  0  0
   24.5734  -20.8940  -12.6908 C   0  0  0  0  0  0  0  0  0  0  0  0
   24.1523  -19.8997  -14.8687 O   0  0  0  0  0  0  0  0  0  0  0  0
   23.2298  -20.7154  -15.1214 N   0  0  0  0  0  0  0  0  0  0  0  0
   24.1384  -18.6994  -15.6106 C   0  0  1  0  0  0  0  0  0  0  0  0
   23.0318  -18.3793  -16.4970 C   0  0  0  0  0  0  0  0  0  0  0  0
   22.2679  -17.1966  -16.1080 C   0  0  0  0  0  0  0  0  0  0  0  0
   21.1641  -16.8660  -17.0620 C   0  0  0  0  0  0  0  0  0  0  0  0
   20.4330  -15.6327  -16.8088 O   0  0  0  0  0  0  0  0  0  0  0  0
   20.7034  -14.9468  -15.7949 C   0  0  0  0  0  0  0  0  0  0  0  0
   23.4920  -18.3312  -17.9057 O   0  0  0  0  0  0  0  0  0  0  0  0
   24.7051  -18.2986  -18.1889 O   0  0  0  0  0  0  0  0  0  0  0  0
   19.4448  -15.2028  -17.6611 O   0  0  0  0  0  0  0  0  0  0  0  0
  2  1  1  0
  3  2  2  0
  4  2  1  0
  5  4  1  0
  6  7  1  0
  6  5  1  0
  7  8  1  0
  8 10  1  0
  8  9  1  1
 10 11  2  0
 13 14  1  1
 13 12  1  0
 15 13  1  0
 15 16  1  1
 16 10  1  0
 17 15  1  0
 18 17  2  0
 19 17  1  0
 20 19  1  0
 20 21  1  6
 21 22  1  0
 23 22  1  0
 23 27  1  0
 24 23  2  0
 25 20  1  0
 25 28  1  0
 26 25  2  0
M  END
$$$$
