RVE.pdb
     RDKit          3D

 28 27  0  0  1  0  0  0  0  0999 V2000
   29.8272  -18.3034  -17.7822 N   0  0  0  0  0  0  0  0  0  0  0  0
   29.1979  -18.6175  -19.0141 C   0  0  0  0  0  0  0  0  0  0  0  0
   29.9010  -18.6059  -20.0960 N   0  0  0  0  0  0  0  0  0  0  0  0
   27.7966  -18.9427  -19.0520 N   0  0  0  0  0  0  0  0  0  0  0  0
   27.1712  -19.5588  -17.9086 C   0  0  0  0  0  0  0  0  0  0  0  0
   25.6885  -19.7480  -18.1156 C   0  0  0  0  0  0  0  0  0  0  0  0
   25.0033  -20.3368  -16.9077 C   0  0  0  0  0  0  0  0  0  0  0  0
   25.9883  -21.0567  -16.0021 C   0  0  2  0  0  0  0  0  0  0  0  0
   26.3188  -22.2946  -16.7014 N   0  0  0  0  0  0  0  0  0  0  0  0
   25.3602  -21.4341  -14.7154 C   0  0  0  0  0  0  0  0  0  0  0  0
   24.6789  -22.4802  -14.6314 O   0  0  0  0  0  0  0  0  0  0  0  0
   29.5283  -18.8143  -21.0406 C   0  0  0  0  0  0  0  0  0  0  0  0
   26.8252  -21.1216  -11.0152 C   0  0  1  0  0  0  0  0  0  0  0  0
   25.4804  -20.4379  -11.1194 C   0  0  0  0  0  0  0  0  0  0  0  0
   24.7235  -20.6049   -9.8324 C   0  0  2  0  0  0  0  0  0  0  0  0
   24.7254  -20.8873  -12.3365 N   0  0  0  0  0  0  0  0  0  0  0  0
   25.5033  -20.6318  -13.5327 C   0  0  0  0  0  0  0  0  0  0  0  0
   23.3561  -20.3488  -12.4287 O   0  0  0  0  0  0  0  0  0  0  0  0
   23.1828  -19.1689  -12.8260 N   0  0  0  0  0  0  0  0  0  0  0  0
   22.1884  -21.0695  -12.0993 C   0  0  1  0  0  0  0  0  0  0  0  0
   20.8782  -20.6102  -12.5297 C   0  0  0  0  0  0  0  0  0  0  0  0
   20.7538  -20.4004  -13.9700 C   0  0  0  0  0  0  0  0  0  0  0  0
   19.4224  -19.8513  -14.3743 C   0  0  0  0  0  0  0  0  0  0  0  0
   19.1770  -19.7269  -15.8040 O   0  0  0  0  0  0  0  0  0  0  0  0
   20.1346  -19.8113  -16.6087 C   0  0  0  0  0  0  0  0  0  0  0  0
   19.8149  -21.4853  -11.9804 O   0  0  0  0  0  0  0  0  0  0  0  0
   19.9776  -22.7169  -11.8819 O   0  0  0  0  0  0  0  0  0  0  0  0
   17.9108  -19.5150  -16.2935 O   0  0  0  0  0  0  0  0  0  0  0  0
  2  1  1  0
  3  2  2  0
  4  2  1  0
  5  4  1  0
  6  7  1  0
  6  5  1  0
  7  8  1  0
  8 10  1  0
  8  9  1  6
 10 11  2  0
 13 14  1  6
 13 12  1  0
 15 13  1  0
 15 16  1  6
 16 10  1  0
 17 15  1  0
 18 17  2  0
 19 17  1  0
 20 19  1  0
 20 21  1  1
 21 22  1  0
 23 22  1  0
 23 27  1  0
 24 23  2  0
 25 20  1  0
 25 28  1  0
 26 25  2  0
M  END
$$$$
