RVE.pdb
     RDKit          3D

 28 27  0  0  1  0  0  0  0  0999 V2000
   18.9957  -23.2153   -9.3714 N   0  0  0  0  0  0  0  0  0  0  0  0
   18.6650  -23.0362  -10.7392 C   0  0  0  0  0  0  0  0  0  0  0  0
   17.5108  -23.4306  -11.1601 N   0  0  0  0  0  0  0  0  0  0  0  0
   19.6058  -22.4244  -11.6400 N   0  0  0  0  0  0  0  0  0  0  0  0
   21.0120  -22.4295  -11.3223 C   0  0  0  0  0  0  0  0  0  0  0  0
   21.3866  -21.2786  -10.4213 C   0  0  0  0  0  0  0  0  0  0  0  0
   22.4539  -20.3959  -11.0189 C   0  0  0  0  0  0  0  0  0  0  0  0
   23.8441  -20.8279  -10.5842 C   0  0  2  0  0  0  0  0  0  0  0  0
   24.0073  -20.2958   -9.2348 N   0  0  0  0  0  0  0  0  0  0  0  0
   24.8897  -20.2077  -11.4296 C   0  0  0  0  0  0  0  0  0  0  0  0
   25.2115  -19.0113  -11.2548 O   0  0  0  0  0  0  0  0  0  0  0  0
   17.1893  -23.3612  -12.1432 C   0  0  0  0  0  0  0  0  0  0  0  0
   28.3490  -21.0771  -11.6662 C   0  0  1  0  0  0  0  0  0  0  0  0
   27.8957  -21.0717  -13.1089 C   0  0  0  0  0  0  0  0  0  0  0  0
   29.0064  -20.5734  -13.9893 C   0  0  2  0  0  0  0  0  0  0  0  0
   26.6011  -20.3312  -13.2782 N   0  0  0  0  0  0  0  0  0  0  0  0
   25.5654  -20.9380  -12.4654 C   0  0  0  0  0  0  0  0  0  0  0  0
   26.1861  -20.1566  -14.6820 O   0  0  0  0  0  0  0  0  0  0  0  0
   25.7958  -21.1550  -15.3385 N   0  0  0  0  0  0  0  0  0  0  0  0
   26.1896  -18.9250  -15.3708 C   0  0  1  0  0  0  0  0  0  0  0  0
   25.7365  -18.8362  -16.7491 C   0  0  0  0  0  0  0  0  0  0  0  0
   25.2592  -17.5135  -17.1448 C   0  0  0  0  0  0  0  0  0  0  0  0
   24.8540  -17.4375  -18.5827 C   0  0  0  0  0  0  0  0  0  0  0  0
   24.3872  -16.1434  -19.0595 O   0  0  0  0  0  0  0  0  0  0  0  0
   24.5648  -15.1209  -18.3562 C   0  0  0  0  0  0  0  0  0  0  0  0
   26.7650  -19.3775  -17.6697 O   0  0  0  0  0  0  0  0  0  0  0  0
   27.9733  -19.1140  -17.5162 O   0  0  0  0  0  0  0  0  0  0  0  0
   23.7498  -16.0180  -20.2701 O   0  0  0  0  0  0  0  0  0  0  0  0
  2  1  1  0
  3  2  2  0
  4  2  1  0
  5  4  1  0
  6  7  1  0
  6  5  1  0
  7  8  1  0
  8 10  1  0
  8  9  1  1
 10 11  2  0
 13 14  1  1
 13 12  1  0
 15 13  1  0
 15 16  1  1
 16 10  1  0
 17 15  1  0
 18 17  2  0
 19 17  1  0
 20 19  1  0
 20 21  1  6
 21 22  1  0
 23 22  1  0
 23 27  1  0
 24 23  2  0
 25 20  1  0
 25 28  1  0
 26 25  2  0
M  END
$$$$
