RVE.pdb
     RDKit          3D

 28 27  0  0  1  0  0  0  0  0999 V2000
   21.1932  -26.9314  -15.8713 N   0  0  0  0  0  0  0  0  0  0  0  0
   22.5454  -26.7262  -15.4946 C   0  0  0  0  0  0  0  0  0  0  0  0
   23.4821  -27.1029  -16.2981 N   0  0  0  0  0  0  0  0  0  0  0  0
   22.8627  -26.1078  -14.2346 N   0  0  0  0  0  0  0  0  0  0  0  0
   22.6957  -24.6853  -14.0705 C   0  0  0  0  0  0  0  0  0  0  0  0
   23.9872  -23.9398  -14.3009 C   0  0  0  0  0  0  0  0  0  0  0  0
   23.8143  -22.4428  -14.2331 C   0  0  0  0  0  0  0  0  0  0  0  0
   25.0874  -21.7148  -14.6301 C   0  0  2  0  0  0  0  0  0  0  0  0
   26.0877  -22.1286  -13.6508 N   0  0  0  0  0  0  0  0  0  0  0  0
   24.9306  -20.2479  -14.5038 C   0  0  0  0  0  0  0  0  0  0  0  0
   24.5970  -19.7433  -13.4086 O   0  0  0  0  0  0  0  0  0  0  0  0
   24.4949  -27.0558  -16.0821 C   0  0  0  0  0  0  0  0  0  0  0  0
   27.3638  -17.5354  -15.1719 C   0  0  1  0  0  0  0  0  0  0  0  0
   26.1338  -17.1772  -15.9755 C   0  0  0  0  0  0  0  0  0  0  0  0
   25.9560  -15.6855  -15.9960 C   0  0  2  0  0  0  0  0  0  0  0  0
   24.9256  -17.9314  -15.5016 N   0  0  0  0  0  0  0  0  0  0  0  0
   25.1503  -19.3594  -15.6107 C   0  0  0  0  0  0  0  0  0  0  0  0
   23.6643  -17.5090  -16.1372 O   0  0  0  0  0  0  0  0  0  0  0  0
   23.4280  -17.8482  -17.3243 N   0  0  0  0  0  0  0  0  0  0  0  0
   22.6696  -16.7332  -15.5048 C   0  0  1  0  0  0  0  0  0  0  0  0
   21.4130  -16.4372  -16.1729 C   0  0  0  0  0  0  0  0  0  0  0  0
   20.3024  -17.3024  -15.7831 C   0  0  0  0  0  0  0  0  0  0  0  0
   19.1415  -16.5520  -15.2113 C   0  0  0  0  0  0  0  0  0  0  0  0
   18.1209  -17.3450  -14.5410 O   0  0  0  0  0  0  0  0  0  0  0  0
   17.1460  -16.7731  -13.9986 C   0  0  0  0  0  0  0  0  0  0  0  0
   21.0895  -14.9950  -16.0553 O   0  0  0  0  0  0  0  0  0  0  0  0
   21.6095  -14.2855  -15.1726 O   0  0  0  0  0  0  0  0  0  0  0  0
   18.2050  -18.7153  -14.4871 O   0  0  0  0  0  0  0  0  0  0  0  0
  2  1  1  0
  3  2  2  0
  4  2  1  0
  5  4  1  0
  6  7  1  0
  6  5  1  0
  7  8  1  0
  8 10  1  0
  8  9  1  1
 10 11  2  0
 13 14  1  1
 13 12  1  0
 15 13  1  0
 15 16  1  1
 16 10  1  0
 17 15  1  0
 18 17  2  0
 19 17  1  0
 20 19  1  0
 20 21  1  6
 21 22  1  0
 23 22  1  0
 23 27  1  0
 24 23  2  0
 25 20  1  0
 25 28  1  0
 26 25  2  0
M  END
$$$$
