RVE.pdb
     RDKit          3D

 28 27  0  0  1  0  0  0  0  0999 V2000
   21.3256  -17.2931  -15.9693 N   0  0  0  0  0  0  0  0  0  0  0  0
   21.2670  -15.8781  -16.0521 C   0  0  0  0  0  0  0  0  0  0  0  0
   20.1778  -15.3205  -16.4615 N   0  0  0  0  0  0  0  0  0  0  0  0
   22.4074  -15.0810  -15.6849 N   0  0  0  0  0  0  0  0  0  0  0  0
   23.5812  -15.7153  -15.1388 C   0  0  0  0  0  0  0  0  0  0  0  0
   24.6404  -15.9336  -16.1910 C   0  0  0  0  0  0  0  0  0  0  0  0
   25.0249  -17.3849  -16.3366 C   0  0  0  0  0  0  0  0  0  0  0  0
   26.3792  -17.6697  -15.7096 C   0  0  2  0  0  0  0  0  0  0  0  0
   27.3240  -17.6746  -16.8222 N   0  0  0  0  0  0  0  0  0  0  0  0
   26.4163  -19.0172  -15.0969 C   0  0  0  0  0  0  0  0  0  0  0  0
   26.5157  -20.0339  -15.8194 O   0  0  0  0  0  0  0  0  0  0  0  0
   20.0251  -14.2964  -16.5106 C   0  0  0  0  0  0  0  0  0  0  0  0
   28.7263  -20.1099  -12.4653 C   0  0  1  0  0  0  0  0  0  0  0  0
   27.3791  -20.6086  -11.9929 C   0  0  0  0  0  0  0  0  0  0  0  0
   27.5271  -21.9732  -11.3823 C   0  0  2  0  0  0  0  0  0  0  0  0
   26.3494  -20.5337  -13.0826 N   0  0  0  0  0  0  0  0  0  0  0  0
   26.3412  -19.2110  -13.6757 C   0  0  0  0  0  0  0  0  0  0  0  0
   25.0044  -20.9758  -12.6717 O   0  0  0  0  0  0  0  0  0  0  0  0
   24.1059  -20.1184  -12.4773 N   0  0  0  0  0  0  0  0  0  0  0  0
   24.6297  -22.3217  -12.4735 C   0  0  1  0  0  0  0  0  0  0  0  0
   23.3089  -22.7953  -12.8531 C   0  0  0  0  0  0  0  0  0  0  0  0
   22.3547  -21.7359  -13.1709 C   0  0  0  0  0  0  0  0  0  0  0  0
   20.9900  -22.2501  -13.5035 C   0  0  0  0  0  0  0  0  0  0  0  0
   19.9990  -21.2585  -13.8964 O   0  0  0  0  0  0  0  0  0  0  0  0
   19.6459  -21.1741  -15.0963 C   0  0  0  0  0  0  0  0  0  0  0  0
   23.4113  -23.8188  -13.9210 O   0  0  0  0  0  0  0  0  0  0  0  0
   24.2901  -23.7487  -14.8017 O   0  0  0  0  0  0  0  0  0  0  0  0
   19.4408  -20.4057  -12.9750 O   0  0  0  0  0  0  0  0  0  0  0  0
  2  1  1  0
  3  2  2  0
  4  2  1  0
  5  4  1  0
  6  7  1  0
  6  5  1  0
  7  8  1  0
  8 10  1  0
  8  9  1  6
 10 11  2  0
 13 14  1  6
 13 12  1  0
 15 13  1  0
 15 16  1  6
 16 10  1  0
 17 15  1  0
 18 17  2  0
 19 17  1  0
 20 19  1  0
 20 21  1  1
 21 22  1  0
 23 22  1  0
 23 27  1  0
 24 23  2  0
 25 20  1  0
 25 28  1  0
 26 25  2  0
M  END
$$$$
