RVE.pdb
     RDKit          3D

 28 27  0  0  1  0  0  0  0  0999 V2000
   28.4468  -24.0631  -16.2184 N   0  0  0  0  0  0  0  0  0  0  0  0
   28.0502  -25.3994  -16.4817 C   0  0  0  0  0  0  0  0  0  0  0  0
   28.9397  -26.3335  -16.4485 N   0  0  0  0  0  0  0  0  0  0  0  0
   26.6760  -25.7038  -16.7813 N   0  0  0  0  0  0  0  0  0  0  0  0
   25.6901  -24.6520  -16.7770 C   0  0  0  0  0  0  0  0  0  0  0  0
   24.4214  -25.0767  -16.0793 C   0  0  0  0  0  0  0  0  0  0  0  0
   24.0968  -24.2126  -14.8863 C   0  0  0  0  0  0  0  0  0  0  0  0
   23.4220  -22.9165  -15.3022 C   0  0  2  0  0  0  0  0  0  0  0  0
   24.4984  -21.9347  -15.3920 N   0  0  0  0  0  0  0  0  0  0  0  0
   22.4809  -22.4415  -14.2623 C   0  0  0  0  0  0  0  0  0  0  0  0
   22.9025  -21.7787  -13.2884 O   0  0  0  0  0  0  0  0  0  0  0  0
   28.7538  -27.3293  -16.6685 C   0  0  0  0  0  0  0  0  0  0  0  0
   19.7920  -20.0311  -14.4246 C   0  0  1  0  0  0  0  0  0  0  0  0
   19.1453  -21.3048  -13.9285 C   0  0  0  0  0  0  0  0  0  0  0  0
   17.9902  -20.9716  -13.0275 C   0  0  2  0  0  0  0  0  0  0  0  0
   20.1529  -22.2328  -13.3145 N   0  0  0  0  0  0  0  0  0  0  0  0
   21.0725  -22.7157  -14.3258 C   0  0  0  0  0  0  0  0  0  0  0  0
   19.5607  -23.3262  -12.5227 O   0  0  0  0  0  0  0  0  0  0  0  0
   19.0316  -24.3004  -13.1153 N   0  0  0  0  0  0  0  0  0  0  0  0
   19.5385  -23.3726  -11.1125 C   0  0  1  0  0  0  0  0  0  0  0  0
   18.8801  -24.4609  -10.4090 C   0  0  0  0  0  0  0  0  0  0  0  0
   19.1358  -24.4940   -8.9712 C   0  0  0  0  0  0  0  0  0  0  0  0
   18.5046  -25.6640   -8.2855 C   0  0  0  0  0  0  0  0  0  0  0  0
   18.7410  -25.7844   -6.8540 O   0  0  0  0  0  0  0  0  0  0  0  0
   19.4312  -24.9205   -6.2632 C   0  0  0  0  0  0  0  0  0  0  0  0
   17.4349  -24.4934  -10.7387 O   0  0  0  0  0  0  0  0  0  0  0  0
   16.8908  -25.5324  -11.1599 O   0  0  0  0  0  0  0  0  0  0  0  0
   18.2230  -26.8324   -6.1322 O   0  0  0  0  0  0  0  0  0  0  0  0
  2  1  1  0
  3  2  2  0
  4  2  1  0
  5  4  1  0
  6  7  1  0
  6  5  1  0
  7  8  1  0
  8 10  1  0
  8  9  1  1
 10 11  2  0
 13 14  1  1
 13 12  1  0
 15 13  1  0
 15 16  1  1
 16 10  1  0
 17 15  1  0
 18 17  2  0
 19 17  1  0
 20 19  1  0
 20 21  1  1
 21 22  1  0
 23 22  1  0
 23 27  1  0
 24 23  2  0
 25 20  1  0
 25 28  1  0
 26 25  2  0
M  END
$$$$
