RVE.pdb
     RDKit          3D

 28 27  0  0  1  0  0  0  0  0999 V2000
   27.6174  -19.8540  -11.7406 N   0  0  0  0  0  0  0  0  0  0  0  0
   27.2427  -21.2188  -11.6444 C   0  0  0  0  0  0  0  0  0  0  0  0
   27.2334  -21.7843  -10.4847 N   0  0  0  0  0  0  0  0  0  0  0  0
   26.8800  -21.9575  -12.8250 N   0  0  0  0  0  0  0  0  0  0  0  0
   26.3323  -21.2657  -13.9650 C   0  0  0  0  0  0  0  0  0  0  0  0
   25.1409  -20.4202  -13.5876 C   0  0  0  0  0  0  0  0  0  0  0  0
   23.9888  -20.5772  -14.5486 C   0  0  0  0  0  0  0  0  0  0  0  0
   23.1763  -21.8252  -14.2477 C   0  0  2  0  0  0  0  0  0  0  0  0
   23.9747  -22.9355  -14.7580 N   0  0  0  0  0  0  0  0  0  0  0  0
   21.8963  -21.8270  -14.9921 C   0  0  0  0  0  0  0  0  0  0  0  0
   21.8933  -21.9505  -16.2372 O   0  0  0  0  0  0  0  0  0  0  0  0
   26.9794  -22.7751  -10.3167 C   0  0  0  0  0  0  0  0  0  0  0  0
   19.3029  -24.2196  -14.9889 C   0  0  2  0  0  0  0  0  0  0  0  0
   18.5781  -22.9348  -14.6560 C   0  0  0  0  0  0  0  0  0  0  0  0
   17.1901  -22.9703  -15.2297 C   0  0  2  0  0  0  0  0  0  0  0  0
   19.3769  -21.7296  -15.0596 N   0  0  0  0  0  0  0  0  0  0  0  0
   20.6290  -21.6898  -14.3302 C   0  0  0  0  0  0  0  0  0  0  0  0
   18.6343  -20.4589  -14.9748 O   0  0  0  0  0  0  0  0  0  0  0  0
   18.2702  -20.0311  -13.8503 N   0  0  0  0  0  0  0  0  0  0  0  0
   18.2889  -19.6578  -16.0839 C   0  0  1  0  0  0  0  0  0  0  0  0
   17.5706  -18.4062  -15.9094 C   0  0  0  0  0  0  0  0  0  0  0  0
   17.6857  -17.4809  -17.0339 C   0  0  0  0  0  0  0  0  0  0  0  0
   16.9485  -16.1970  -16.8203 C   0  0  0  0  0  0  0  0  0  0  0  0
   17.0810  -15.1896  -17.8631 O   0  0  0  0  0  0  0  0  0  0  0  0
   17.8272  -15.4074  -18.8466 C   0  0  0  0  0  0  0  0  0  0  0  0
   16.1645  -18.6648  -15.5167 O   0  0  0  0  0  0  0  0  0  0  0  0
   15.5045  -19.5820  -16.0422 O   0  0  0  0  0  0  0  0  0  0  0  0
   16.4036  -13.9964  -17.7908 O   0  0  0  0  0  0  0  0  0  0  0  0
  2  1  1  0
  3  2  2  0
  4  2  1  0
  5  4  1  0
  6  7  1  0
  6  5  1  0
  7  8  1  0
  8 10  1  0
  8  9  1  6
 10 11  2  0
 13 14  1  6
 13 12  1  0
 15 13  1  0
 15 16  1  6
 16 10  1  0
 17 15  1  0
 18 17  2  0
 19 17  1  0
 20 19  1  0
 20 21  1  6
 21 22  1  0
 23 22  1  0
 23 27  1  0
 24 23  2  0
 25 20  1  0
 25 28  1  0
 26 25  2  0
M  END
$$$$
