RVE.pdb
     RDKit          3D

 28 27  0  0  1  0  0  0  0  0999 V2000
   17.8093  -24.8275   -8.8076 N   0  0  0  0  0  0  0  0  0  0  0  0
   17.7192  -24.2553   -7.5127 C   0  0  0  0  0  0  0  0  0  0  0  0
   16.5850  -24.2754   -6.8978 N   0  0  0  0  0  0  0  0  0  0  0  0
   18.8775  -23.6619   -6.8985 N   0  0  0  0  0  0  0  0  0  0  0  0
   19.8775  -23.0241   -7.7179 C   0  0  0  0  0  0  0  0  0  0  0  0
   19.6403  -23.2739   -9.1869 C   0  0  0  0  0  0  0  0  0  0  0  0
   20.7049  -22.6587  -10.0606 C   0  0  0  0  0  0  0  0  0  0  0  0
   21.0177  -21.2327   -9.6398 C   0  0  2  0  0  0  0  0  0  0  0  0
   19.9385  -20.4225  -10.1962 N   0  0  0  0  0  0  0  0  0  0  0  0
   22.2814  -20.7568  -10.2474 C   0  0  0  0  0  0  0  0  0  0  0  0
   22.2540  -19.9894  -11.2353 O   0  0  0  0  0  0  0  0  0  0  0  0
   16.4365  -23.9385   -5.9288 C   0  0  0  0  0  0  0  0  0  0  0  0
   25.6674  -19.9233   -8.1875 C   0  0  2  0  0  0  0  0  0  0  0  0
   25.9365  -20.7870   -9.3993 C   0  0  0  0  0  0  0  0  0  0  0  0
   27.2717  -20.4328   -9.9902 C   0  0  2  0  0  0  0  0  0  0  0  0
   24.8001  -20.7340  -10.3785 N   0  0  0  0  0  0  0  0  0  0  0  0
   23.5666  -21.1478   -9.7392 C   0  0  0  0  0  0  0  0  0  0  0  0
   25.0544  -21.4601  -11.6361 O   0  0  0  0  0  0  0  0  0  0  0  0
   24.9515  -22.7128  -11.6567 N   0  0  0  0  0  0  0  0  0  0  0  0
   25.4132  -20.8477  -12.8557 C   0  0  1  0  0  0  0  0  0  0  0  0
   25.5926  -21.6345  -14.0648 C   0  0  0  0  0  0  0  0  0  0  0  0
   24.4012  -22.3618  -14.4955 C   0  0  0  0  0  0  0  0  0  0  0  0
   23.4183  -21.5044  -15.2279 C   0  0  0  0  0  0  0  0  0  0  0  0
   22.2125  -22.1631  -15.7094 O   0  0  0  0  0  0  0  0  0  0  0  0
   22.2957  -23.0302  -16.6109 C   0  0  0  0  0  0  0  0  0  0  0  0
   26.1823  -20.8039  -15.1421 O   0  0  0  0  0  0  0  0  0  0  0  0
   26.1508  -19.5593  -15.0897 O   0  0  0  0  0  0  0  0  0  0  0  0
   20.9769  -21.8511  -15.1957 O   0  0  0  0  0  0  0  0  0  0  0  0
  2  1  1  0
  3  2  2  0
  4  2  1  0
  5  4  1  0
  6  7  1  0
  6  5  1  0
  7  8  1  0
  8 10  1  0
  8  9  1  6
 10 11  2  0
 13 14  1  6
 13 12  1  0
 15 13  1  0
 15 16  1  6
 16 10  1  0
 17 15  1  0
 18 17  2  0
 19 17  1  0
 20 19  1  0
 20 21  1  6
 21 22  1  0
 23 22  1  0
 23 27  1  0
 24 23  2  0
 25 20  1  0
 25 28  1  0
 26 25  2  0
M  END
$$$$
