RVE.pdb
     RDKit          3D

 28 27  0  0  1  0  0  0  0  0999 V2000
   16.7117  -14.4647  -16.9945 N   0  0  0  0  0  0  0  0  0  0  0  0
   17.4659  -15.5024  -17.6000 C   0  0  0  0  0  0  0  0  0  0  0  0
   17.0277  -16.7142  -17.5337 N   0  0  0  0  0  0  0  0  0  0  0  0
   18.7006  -15.2036  -18.2762 N   0  0  0  0  0  0  0  0  0  0  0  0
   19.3707  -13.9516  -18.0278 C   0  0  0  0  0  0  0  0  0  0  0  0
   19.8010  -13.8231  -16.5872 C   0  0  0  0  0  0  0  0  0  0  0  0
   20.5121  -12.5227  -16.3067 C   0  0  0  0  0  0  0  0  0  0  0  0
   22.0037  -12.6326  -16.5738 C   0  0  2  0  0  0  0  0  0  0  0  0
   22.4196  -13.8724  -15.9252 N   0  0  0  0  0  0  0  0  0  0  0  0
   22.7493  -11.5283  -15.9279 C   0  0  0  0  0  0  0  0  0  0  0  0
   22.5048  -11.2141  -14.7417 O   0  0  0  0  0  0  0  0  0  0  0  0
   17.5017  -17.5338  -17.9557 C   0  0  0  0  0  0  0  0  0  0  0  0
   26.5233  -11.0692  -15.8881 C   0  0  1  0  0  0  0  0  0  0  0  0
   25.9274   -9.7440  -16.3073 C   0  0  0  0  0  0  0  0  0  0  0  0
   26.7294   -8.6172  -15.7206 C   0  0  2  0  0  0  0  0  0  0  0  0
   24.4599   -9.6762  -15.9992 N   0  0  0  0  0  0  0  0  0  0  0  0
   23.7644  -10.7857  -16.6213 C   0  0  0  0  0  0  0  0  0  0  0  0
   23.8386   -8.3759  -16.3100 O   0  0  0  0  0  0  0  0  0  0  0  0
   23.3632   -8.1778  -17.4566 N   0  0  0  0  0  0  0  0  0  0  0  0
   23.7287   -7.3031  -15.3998 C   0  0  1  0  0  0  0  0  0  0  0  0
   22.9664   -6.1117  -15.7348 C   0  0  0  0  0  0  0  0  0  0  0  0
   21.6131   -6.3753  -16.2173 C   0  0  0  0  0  0  0  0  0  0  0  0
   20.8594   -5.1326  -16.5713 C   0  0  0  0  0  0  0  0  0  0  0  0
   19.4614   -5.3025  -16.9403 O   0  0  0  0  0  0  0  0  0  0  0  0
   18.5925   -5.4245  -16.0449 C   0  0  0  0  0  0  0  0  0  0  0  0
   23.0004   -5.1414  -14.6142 O   0  0  0  0  0  0  0  0  0  0  0  0
   22.9099   -3.9152  -14.8174 O   0  0  0  0  0  0  0  0  0  0  0  0
   19.0713   -5.3349  -18.2574 O   0  0  0  0  0  0  0  0  0  0  0  0
  2  1  1  0
  3  2  2  0
  4  2  1  0
  5  4  1  0
  6  7  1  0
  6  5  1  0
  7  8  1  0
  8 10  1  0
  8  9  1  1
 10 11  2  0
 13 14  1  1
 13 12  1  0
 15 13  1  0
 15 16  1  1
 16 10  1  0
 17 15  1  0
 18 17  2  0
 19 17  1  0
 20 19  1  0
 20 21  1  6
 21 22  1  0
 23 22  1  0
 23 27  1  0
 24 23  2  0
 25 20  1  0
 25 28  1  0
 26 25  2  0
M  END
$$$$
