EYT.pdb
     RDKit          3D

 29 29  0  0  1  0  0  0  0  0999 V2000
   27.6185  -22.7875  -17.6853 N   0  0  0  0  0  0  0  0  0  0  0  0
   27.4607  -21.4813  -17.0306 C   0  0  1  0  0  0  0  0  0  0  0  0
   26.6569  -20.6218  -17.9655 C   0  0  0  0  0  0  0  0  0  0  0  0
   27.3392  -20.2433  -19.2256 C   0  0  0  0  0  0  0  0  0  0  0  0
   28.5222  -19.4148  -18.9904 C   0  0  0  0  0  0  0  0  0  0  0  0
   29.6395  -19.6815  -19.4692 O   0  0  0  0  0  0  0  0  0  0  0  0
   26.6973  -21.6364  -15.7649 C   0  0  0  0  0  0  0  0  0  0  0  0
   25.7263  -22.4271  -15.7565 O   0  0  0  0  0  0  0  0  0  0  0  0
   28.4519  -18.2617  -18.2009 O   0  0  0  0  0  0  0  0  0  0  0  0
   24.3353  -20.5391   -7.2836 O   0  0  0  0  0  0  0  0  0  0  0  0
   24.9985  -20.6007   -8.5006 C   0  0  0  0  0  0  0  0  0  0  0  0
   25.0846  -21.7143   -9.2886 C   0  0  0  0  0  0  0  0  0  0  0  0
   25.7589  -21.7181  -10.4921 C   0  0  0  0  0  0  0  0  0  0  0  0
   26.3731  -20.5921  -10.9448 C   0  0  0  0  0  0  0  0  0  0  0  0
   27.1172  -20.4822  -12.2119 C   0  0  0  0  0  0  0  0  0  0  0  0
   26.3746  -21.0220  -13.3946 C   0  0  2  0  0  0  0  0  0  0  0  0
   27.0881  -20.8946  -14.6249 N   0  0  0  0  0  0  0  0  0  0  0  0
   25.0584  -20.2894  -13.4521 C   0  0  0  0  0  0  0  0  0  0  0  0
   25.0135  -19.0373  -13.6061 O   0  0  0  0  0  0  0  0  0  0  0  0
   26.2944  -19.4574  -10.1582 C   0  0  0  0  0  0  0  0  0  0  0  0
   25.6199  -19.4461   -8.9500 C   0  0  0  0  0  0  0  0  0  0  0  0
   22.6384  -19.8128  -15.7539 C   0  0  0  0  0  0  0  0  0  0  0  0
   21.8367  -20.4629  -14.6428 C   0  0  1  0  0  0  0  0  0  0  0  0
   21.6133  -21.7837  -14.9509 O   0  0  0  0  0  0  0  0  0  0  0  0
   22.5663  -20.3202  -13.3225 C   0  0  2  0  0  0  0  0  0  0  0  0
   23.8355  -21.0024  -13.3329 N   0  0  0  0  0  0  0  0  0  0  0  0
   21.7253  -20.8801  -12.2390 C   0  0  0  0  0  0  0  0  0  0  0  0
   22.0929  -22.0392  -11.5462 O   0  0  0  0  0  0  0  0  0  0  0  0
   20.6593  -20.3227  -11.9184 O   0  0  0  0  0  0  0  0  0  0  0  0
  2  1  1  6
  3  2  1  0
  4  3  1  0
  4  5  1  0
  5  9  1  0
  5  6  2  0
  7  2  1  0
  7  8  2  0
 10 11  1  0
 11 12  2  0
 12 13  1  0
 14 13  2  0
 14 15  1  0
 16 15  1  1
 16 17  1  0
 17  7  1  0
 18 16  1  0
 19 18  2  0
 20 14  1  0
 21 11  1  0
 21 20  2  0
 23 22  1  6
 23 25  1  0
 24 23  1  0
 25 27  1  0
 25 26  1  6
 26 18  1  0
 27 28  1  0
 29 27  2  0
M  END
$$$$
