EYT.pdb
     RDKit          3D

 29 29  0  0  1  0  0  0  0  0999 V2000
   28.9208  -22.5834  -17.7530 N   0  0  0  0  0  0  0  0  0  0  0  0
   28.3926  -21.2925  -17.2902 C   0  0  1  0  0  0  0  0  0  0  0  0
   27.4786  -20.7856  -18.3702 C   0  0  0  0  0  0  0  0  0  0  0  0
   28.0825  -19.8089  -19.3072 C   0  0  0  0  0  0  0  0  0  0  0  0
   27.8809  -20.1834  -20.7073 C   0  0  0  0  0  0  0  0  0  0  0  0
   28.8231  -20.3836  -21.4952 O   0  0  0  0  0  0  0  0  0  0  0  0
   27.5925  -21.4851  -16.0526 C   0  0  0  0  0  0  0  0  0  0  0  0
   27.0653  -22.6046  -15.8611 O   0  0  0  0  0  0  0  0  0  0  0  0
   26.5947  -20.3370  -21.2365 O   0  0  0  0  0  0  0  0  0  0  0  0
   24.6352  -20.7762   -7.8687 O   0  0  0  0  0  0  0  0  0  0  0  0
   25.2402  -20.4849   -9.0828 C   0  0  0  0  0  0  0  0  0  0  0  0
   24.8639  -19.4727   -9.9208 C   0  0  0  0  0  0  0  0  0  0  0  0
   25.5029  -19.2285  -11.1188 C   0  0  0  0  0  0  0  0  0  0  0  0
   26.5498  -20.0015  -11.5148 C   0  0  0  0  0  0  0  0  0  0  0  0
   27.3044  -19.8304  -12.7688 C   0  0  0  0  0  0  0  0  0  0  0  0
   26.7199  -20.5743  -13.9292 C   0  0  2  0  0  0  0  0  0  0  0  0
   27.4547  -20.4102  -15.1425 N   0  0  0  0  0  0  0  0  0  0  0  0
   25.3006  -20.0906  -14.0845 C   0  0  0  0  0  0  0  0  0  0  0  0
   25.0491  -18.9172  -14.4758 O   0  0  0  0  0  0  0  0  0  0  0  0
   26.9419  -21.0295  -10.6770 C   0  0  0  0  0  0  0  0  0  0  0  0
   26.3057  -21.2804   -9.4741 C   0  0  0  0  0  0  0  0  0  0  0  0
   22.6009  -21.1682  -16.2936 C   0  0  0  0  0  0  0  0  0  0  0  0
   22.0604  -21.3585  -14.8894 C   0  0  1  0  0  0  0  0  0  0  0  0
   22.1134  -22.6905  -14.5542 O   0  0  0  0  0  0  0  0  0  0  0  0
   22.8470  -20.5115  -13.9097 C   0  0  2  0  0  0  0  0  0  0  0  0
   24.2126  -20.9554  -13.7905 N   0  0  0  0  0  0  0  0  0  0  0  0
   22.1988  -20.5784  -12.5793 C   0  0  0  0  0  0  0  0  0  0  0  0
   20.9286  -20.0370  -12.3513 O   0  0  0  0  0  0  0  0  0  0  0  0
   22.7794  -21.1256  -11.6235 O   0  0  0  0  0  0  0  0  0  0  0  0
  2  1  1  6
  3  2  1  0
  4  3  1  0
  4  5  1  0
  5  9  1  0
  5  6  2  0
  7  2  1  0
  7  8  2  0
 10 11  1  0
 11 12  2  0
 12 13  1  0
 14 13  2  0
 14 15  1  0
 16 15  1  1
 16 17  1  0
 17  7  1  0
 18 16  1  0
 19 18  2  0
 20 14  1  0
 21 11  1  0
 21 20  2  0
 23 22  1  6
 23 25  1  0
 24 23  1  0
 25 27  1  0
 25 26  1  1
 26 18  1  0
 27 28  1  0
 29 27  2  0
M  END
$$$$
