EYT.pdb
     RDKit          3D

 29 29  0  0  1  0  0  0  0  0999 V2000
   17.4474  -13.3354  -15.9435 N   0  0  0  0  0  0  0  0  0  0  0  0
   17.7470  -12.1671  -16.7830 C   0  0  1  0  0  0  0  0  0  0  0  0
   16.4586  -11.7674  -17.4456 C   0  0  0  0  0  0  0  0  0  0  0  0
   15.9271  -12.7334  -18.4361 C   0  0  0  0  0  0  0  0  0  0  0  0
   14.7886  -12.1957  -19.1818 C   0  0  0  0  0  0  0  0  0  0  0  0
   14.8299  -11.1087  -19.7863 O   0  0  0  0  0  0  0  0  0  0  0  0
   18.2072  -11.0367  -15.9349 C   0  0  0  0  0  0  0  0  0  0  0  0
   17.7458  -10.9459  -14.7744 O   0  0  0  0  0  0  0  0  0  0  0  0
   13.5766  -12.8915  -19.2517 O   0  0  0  0  0  0  0  0  0  0  0  0
   22.8486   -4.0770  -13.1779 O   0  0  0  0  0  0  0  0  0  0  0  0
   22.3853   -5.2908  -13.6646 C   0  0  0  0  0  0  0  0  0  0  0  0
   21.8617   -6.2927  -12.8962 C   0  0  0  0  0  0  0  0  0  0  0  0
   21.4156   -7.4816  -13.4353 C   0  0  0  0  0  0  0  0  0  0  0  0
   21.4825   -7.7019  -14.7759 C   0  0  0  0  0  0  0  0  0  0  0  0
   21.0349   -8.9292  -15.4576 C   0  0  0  0  0  0  0  0  0  0  0  0
   19.5571   -8.9828  -15.6917 C   0  0  2  0  0  0  0  0  0  0  0  0
   19.1403  -10.1116  -16.4605 N   0  0  0  0  0  0  0  0  0  0  0  0
   19.1784   -7.6924  -16.3727 C   0  0  0  0  0  0  0  0  0  0  0  0
   19.5633   -7.4358  -17.5472 O   0  0  0  0  0  0  0  0  0  0  0  0
   22.0098   -6.6970  -15.5661 C   0  0  0  0  0  0  0  0  0  0  0  0
   22.4593   -5.5020  -15.0326 C   0  0  0  0  0  0  0  0  0  0  0  0
   15.8019   -6.1512  -17.1815 C   0  0  0  0  0  0  0  0  0  0  0  0
   16.5400   -5.2082  -16.2509 C   0  0  1  0  0  0  0  0  0  0  0  0
   16.0568   -5.3540  -14.9724 O   0  0  0  0  0  0  0  0  0  0  0  0
   18.0300   -5.4776  -16.3116 C   0  0  2  0  0  0  0  0  0  0  0  0
   18.3745   -6.7350  -15.6980 N   0  0  0  0  0  0  0  0  0  0  0  0
   18.7502   -4.3862  -15.6152 C   0  0  0  0  0  0  0  0  0  0  0  0
   18.7591   -3.0772  -16.1102 O   0  0  0  0  0  0  0  0  0  0  0  0
   19.3709   -4.6149  -14.5606 O   0  0  0  0  0  0  0  0  0  0  0  0
  2  1  1  1
  3  2  1  0
  4  3  1  0
  4  5  1  0
  5  9  1  0
  5  6  2  0
  7  2  1  0
  7  8  2  0
 10 11  1  0
 11 12  2  0
 12 13  1  0
 14 13  2  0
 14 15  1  0
 16 15  1  6
 16 17  1  0
 17  7  1  0
 18 16  1  0
 19 18  2  0
 20 14  1  0
 21 11  1  0
 21 20  2  0
 23 22  1  6
 23 25  1  0
 24 23  1  0
 25 27  1  0
 25 26  1  1
 26 18  1  0
 27 28  1  0
 29 27  2  0
M  END
$$$$
