EYT.pdb
     RDKit          3D

 29 29  0  0  1  0  0  0  0  0999 V2000
   27.0193  -22.6152  -19.2125 N   0  0  0  0  0  0  0  0  0  0  0  0
   26.3757  -21.3897  -18.7192 C   0  0  1  0  0  0  0  0  0  0  0  0
   25.3365  -21.0065  -19.7351 C   0  0  0  0  0  0  0  0  0  0  0  0
   25.7505  -19.9661  -20.7062 C   0  0  0  0  0  0  0  0  0  0  0  0
   27.0075  -20.2999  -21.3768 C   0  0  0  0  0  0  0  0  0  0  0  0
   27.1097  -21.2323  -22.1947 O   0  0  0  0  0  0  0  0  0  0  0  0
   25.6904  -21.6600  -17.4283 C   0  0  0  0  0  0  0  0  0  0  0  0
   25.1723  -22.7877  -17.2620 O   0  0  0  0  0  0  0  0  0  0  0  0
   28.1763  -19.5728  -21.1253 O   0  0  0  0  0  0  0  0  0  0  0  0
   23.7573  -21.6045   -8.9137 O   0  0  0  0  0  0  0  0  0  0  0  0
   24.1690  -21.2149  -10.1799 C   0  0  0  0  0  0  0  0  0  0  0  0
   23.4668  -20.3864  -11.0099 C   0  0  0  0  0  0  0  0  0  0  0  0
   23.9256  -20.0318  -12.2618 C   0  0  0  0  0  0  0  0  0  0  0  0
   25.1154  -20.5036  -12.7220 C   0  0  0  0  0  0  0  0  0  0  0  0
   25.7012  -20.1899  -14.0372 C   0  0  0  0  0  0  0  0  0  0  0  0
   25.0279  -20.8879  -15.1778 C   0  0  2  0  0  0  0  0  0  0  0  0
   25.6468  -20.6463  -16.4418 N   0  0  0  0  0  0  0  0  0  0  0  0
   23.5918  -20.4298  -15.1802 C   0  0  0  0  0  0  0  0  0  0  0  0
   23.2908  -19.2237  -15.3990 O   0  0  0  0  0  0  0  0  0  0  0  0
   25.8372  -21.3430  -11.8931 C   0  0  0  0  0  0  0  0  0  0  0  0
   25.3834  -21.7029  -10.6365 C   0  0  0  0  0  0  0  0  0  0  0  0
   20.8029  -21.3027  -17.3923 C   0  0  0  0  0  0  0  0  0  0  0  0
   20.3663  -21.7133  -15.9992 C   0  0  1  0  0  0  0  0  0  0  0  0
   20.5216  -23.0710  -15.8514 O   0  0  0  0  0  0  0  0  0  0  0  0
   21.1612  -20.9507  -14.9587 C   0  0  2  0  0  0  0  0  0  0  0  0
   22.5436  -21.3565  -14.9341 N   0  0  0  0  0  0  0  0  0  0  0  0
   20.5646  -21.1848  -13.6230 C   0  0  0  0  0  0  0  0  0  0  0  0
   19.2962  -20.6974  -13.2878 O   0  0  0  0  0  0  0  0  0  0  0  0
   21.1884  -21.8292  -12.7596 O   0  0  0  0  0  0  0  0  0  0  0  0
  2  1  1  6
  3  2  1  0
  4  3  1  0
  4  5  1  0
  5  9  1  0
  5  6  2  0
  7  2  1  0
  7  8  2  0
 10 11  1  0
 11 12  2  0
 12 13  1  0
 14 13  2  0
 14 15  1  0
 16 15  1  1
 16 17  1  0
 17  7  1  0
 18 16  1  0
 19 18  2  0
 20 14  1  0
 21 11  1  0
 21 20  2  0
 23 22  1  6
 23 25  1  0
 24 23  1  0
 25 27  1  0
 25 26  1  1
 26 18  1  0
 27 28  1  0
 29 27  2  0
M  END
$$$$
