EYT.pdb
     RDKit          3D

 29 29  0  0  1  0  0  0  0  0999 V2000
   28.9476  -22.9489  -17.7437 N   0  0  0  0  0  0  0  0  0  0  0  0
   28.6880  -21.6460  -17.1155 C   0  0  1  0  0  0  0  0  0  0  0  0
   28.1303  -20.7514  -18.1867 C   0  0  0  0  0  0  0  0  0  0  0  0
   27.7329  -21.4337  -19.4411 C   0  0  0  0  0  0  0  0  0  0  0  0
   26.3368  -21.1764  -19.7959 C   0  0  0  0  0  0  0  0  0  0  0  0
   25.5989  -22.0401  -20.3039 O   0  0  0  0  0  0  0  0  0  0  0  0
   27.6642  -21.7917  -16.0480 C   0  0  0  0  0  0  0  0  0  0  0  0
   27.0020  -22.8538  -16.0088 O   0  0  0  0  0  0  0  0  0  0  0  0
   25.7544  -19.9231  -19.5766 O   0  0  0  0  0  0  0  0  0  0  0  0
   23.6412  -20.9585   -8.3376 O   0  0  0  0  0  0  0  0  0  0  0  0
   24.5181  -20.7927   -9.3998 C   0  0  0  0  0  0  0  0  0  0  0  0
   25.7522  -21.3730   -9.4927 C   0  0  0  0  0  0  0  0  0  0  0  0
   26.5840  -21.1722  -10.5749 C   0  0  0  0  0  0  0  0  0  0  0  0
   26.1972  -20.3746  -11.6066 C   0  0  0  0  0  0  0  0  0  0  0  0
   27.0011  -20.0924  -12.8088 C   0  0  0  0  0  0  0  0  0  0  0  0
   26.6024  -20.9023  -14.0032 C   0  0  2  0  0  0  0  0  0  0  0  0
   27.4740  -20.7384  -15.1223 N   0  0  0  0  0  0  0  0  0  0  0  0
   25.1919  -20.4989  -14.3500 C   0  0  0  0  0  0  0  0  0  0  0  0
   24.9269  -19.3343  -14.7585 O   0  0  0  0  0  0  0  0  0  0  0  0
   24.9508  -19.7807  -11.5266 C   0  0  0  0  0  0  0  0  0  0  0  0
   24.1112  -19.9774  -10.4444 C   0  0  0  0  0  0  0  0  0  0  0  0
   22.9950  -21.7670  -16.9330 C   0  0  0  0  0  0  0  0  0  0  0  0
   22.2089  -21.9594  -15.6504 C   0  0  1  0  0  0  0  0  0  0  0  0
   22.2402  -23.2848  -15.2877 O   0  0  0  0  0  0  0  0  0  0  0  0
   22.7725  -21.0748  -14.5569 C   0  0  2  0  0  0  0  0  0  0  0  0
   24.1278  -21.4313  -14.2218 N   0  0  0  0  0  0  0  0  0  0  0  0
   21.9267  -21.1985  -13.3469 C   0  0  0  0  0  0  0  0  0  0  0  0
   22.3695  -21.8767  -12.2056 O   0  0  0  0  0  0  0  0  0  0  0  0
   20.7887  -20.6944  -13.3207 O   0  0  0  0  0  0  0  0  0  0  0  0
  2  1  1  6
  3  2  1  0
  4  3  1  0
  4  5  1  0
  5  9  1  0
  5  6  2  0
  7  2  1  0
  7  8  2  0
 10 11  1  0
 11 12  2  0
 12 13  1  0
 14 13  2  0
 14 15  1  0
 16 15  1  1
 16 17  1  0
 17  7  1  0
 18 16  1  0
 19 18  2  0
 20 14  1  0
 21 11  1  0
 21 20  2  0
 23 22  1  6
 23 25  1  0
 24 23  1  0
 25 27  1  0
 25 26  1  1
 26 18  1  0
 27 28  1  0
 29 27  2  0
M  END
$$$$
