EYT.pdb
     RDKit          3D

 29 29  0  0  1  0  0  0  0  0999 V2000
   29.2074  -20.8461  -10.8460 N   0  0  0  0  0  0  0  0  0  0  0  0
   27.7755  -21.0070  -10.5575 C   0  0  1  0  0  0  0  0  0  0  0  0
   27.3204  -19.7356   -9.8978 C   0  0  0  0  0  0  0  0  0  0  0  0
   27.8146  -19.5243   -8.5166 C   0  0  0  0  0  0  0  0  0  0  0  0
   26.8916  -20.0483   -7.5093 C   0  0  0  0  0  0  0  0  0  0  0  0
   25.7954  -20.5609   -7.7994 O   0  0  0  0  0  0  0  0  0  0  0  0
   27.0175  -21.1735  -11.8251 C   0  0  0  0  0  0  0  0  0  0  0  0
   27.4323  -20.5722  -12.8420 O   0  0  0  0  0  0  0  0  0  0  0  0
   27.2037  -19.9967   -6.1462 O   0  0  0  0  0  0  0  0  0  0  0  0
   21.9537  -24.8066  -17.9791 O   0  0  0  0  0  0  0  0  0  0  0  0
   22.6909  -24.5655  -16.8289 C   0  0  0  0  0  0  0  0  0  0  0  0
   24.0156  -24.8640  -16.6725 C   0  0  0  0  0  0  0  0  0  0  0  0
   24.6996  -24.6015  -15.5035 C   0  0  0  0  0  0  0  0  0  0  0  0
   24.0672  -24.0254  -14.4460 C   0  0  0  0  0  0  0  0  0  0  0  0
   24.6978  -23.6995  -13.1548 C   0  0  0  0  0  0  0  0  0  0  0  0
   25.2001  -22.2917  -13.0687 C   0  0  2  0  0  0  0  0  0  0  0  0
   25.8661  -21.9961  -11.8406 N   0  0  0  0  0  0  0  0  0  0  0  0
   24.0073  -21.3921  -13.2696 C   0  0  0  0  0  0  0  0  0  0  0  0
   23.2382  -21.1028  -12.3114 O   0  0  0  0  0  0  0  0  0  0  0  0
   22.7266  -23.7176  -14.5897 C   0  0  0  0  0  0  0  0  0  0  0  0
   22.0340  -23.9780  -15.7590 C   0  0  0  0  0  0  0  0  0  0  0  0
   23.4746  -19.4494  -17.0720 C   0  0  0  0  0  0  0  0  0  0  0  0
   23.1564  -18.7874  -15.7451 C   0  0  1  0  0  0  0  0  0  0  0  0
   22.1819  -17.8358  -15.9295 O   0  0  0  0  0  0  0  0  0  0  0  0
   22.7250  -19.8299  -14.7336 C   0  0  2  0  0  0  0  0  0  0  0  0
   23.7265  -20.8500  -14.5522 N   0  0  0  0  0  0  0  0  0  0  0  0
   21.4675  -20.4633  -15.1940 C   0  0  0  0  0  0  0  0  0  0  0  0
   20.2347  -19.8079  -15.0968 O   0  0  0  0  0  0  0  0  0  0  0  0
   21.4822  -21.6077  -15.6839 O   0  0  0  0  0  0  0  0  0  0  0  0
  2  1  1  6
  3  2  1  0
  4  3  1  0
  4  5  1  0
  5  9  1  0
  5  6  2  0
  7  2  1  0
  7  8  2  0
 10 11  1  0
 11 12  2  0
 12 13  1  0
 14 13  2  0
 14 15  1  0
 16 15  1  1
 16 17  1  0
 17  7  1  0
 18 16  1  0
 19 18  2  0
 20 14  1  0
 21 11  1  0
 21 20  2  0
 23 22  1  6
 23 25  1  0
 24 23  1  0
 25 27  1  0
 25 26  1  6
 26 18  1  0
 27 28  1  0
 29 27  2  0
M  END
$$$$
