EYT.pdb
     RDKit          3D

 29 29  0  0  1  0  0  0  0  0999 V2000
   20.8025  -10.2181  -20.5431 N   0  0  0  0  0  0  0  0  0  0  0  0
   21.7902   -9.3999  -19.8259 C   0  0  1  0  0  0  0  0  0  0  0  0
   22.1908   -8.2892  -20.7558 C   0  0  0  0  0  0  0  0  0  0  0  0
   21.4107   -8.2007  -22.0129 C   0  0  0  0  0  0  0  0  0  0  0  0
   21.8510   -7.0946  -22.8639 C   0  0  0  0  0  0  0  0  0  0  0  0
   22.3778   -7.2679  -23.9778 O   0  0  0  0  0  0  0  0  0  0  0  0
   21.1693   -8.7972  -18.6175 C   0  0  0  0  0  0  0  0  0  0  0  0
   19.9521   -8.5072  -18.6639 O   0  0  0  0  0  0  0  0  0  0  0  0
   21.6975   -5.7645  -22.4575 O   0  0  0  0  0  0  0  0  0  0  0  0
   17.7964  -13.4647  -16.1150 O   0  0  0  0  0  0  0  0  0  0  0  0
   18.7309  -12.4577  -15.9215 C   0  0  0  0  0  0  0  0  0  0  0  0
   20.0241  -12.4960  -16.3625 C   0  0  0  0  0  0  0  0  0  0  0  0
   20.9117  -11.4634  -16.1408 C   0  0  0  0  0  0  0  0  0  0  0  0
   20.5229  -10.3502  -15.4628 C   0  0  0  0  0  0  0  0  0  0  0  0
   21.3835   -9.1901  -15.1715 C   0  0  0  0  0  0  0  0  0  0  0  0
   21.3684   -8.1452  -16.2436 C   0  0  2  0  0  0  0  0  0  0  0  0
   21.9645   -8.5737  -17.4684 N   0  0  0  0  0  0  0  0  0  0  0  0
   22.0814   -6.9401  -15.6854 C   0  0  0  0  0  0  0  0  0  0  0  0
   23.3419   -6.8757  -15.6695 O   0  0  0  0  0  0  0  0  0  0  0  0
   19.2171  -10.2972  -15.0106 C   0  0  0  0  0  0  0  0  0  0  0  0
   18.3213  -11.3289  -15.2291 C   0  0  0  0  0  0  0  0  0  0  0  0
   21.4402   -3.3450  -16.7991 C   0  0  0  0  0  0  0  0  0  0  0  0
   21.2925   -3.4005  -15.2908 C   0  0  1  0  0  0  0  0  0  0  0  0
   19.9585   -3.3926  -14.9599 O   0  0  0  0  0  0  0  0  0  0  0  0
   21.9890   -4.6305  -14.7446 C   0  0  2  0  0  0  0  0  0  0  0  0
   21.3397   -5.8467  -15.1634 N   0  0  0  0  0  0  0  0  0  0  0  0
   21.9937   -4.5697  -13.2644 C   0  0  0  0  0  0  0  0  0  0  0  0
   22.6625   -3.5542  -12.5716 O   0  0  0  0  0  0  0  0  0  0  0  0
   21.3940   -5.4331  -12.5975 O   0  0  0  0  0  0  0  0  0  0  0  0
  2  1  1  6
  3  2  1  0
  4  3  1  0
  4  5  1  0
  5  9  1  0
  5  6  2  0
  7  2  1  0
  7  8  2  0
 10 11  1  0
 11 12  2  0
 12 13  1  0
 14 13  2  0
 14 15  1  0
 16 15  1  1
 16 17  1  0
 17  7  1  0
 18 16  1  0
 19 18  2  0
 20 14  1  0
 21 11  1  0
 21 20  2  0
 23 22  1  6
 23 25  1  0
 24 23  1  0
 25 27  1  0
 25 26  1  1
 26 18  1  0
 27 28  1  0
 29 27  2  0
M  END
$$$$
