EYT.pdb
     RDKit          3D

 29 29  0  0  1  0  0  0  0  0999 V2000
   22.1699  -22.3402  -13.2313 N   0  0  0  0  0  0  0  0  0  0  0  0
   22.1867  -20.8839  -13.4276 C   0  0  1  0  0  0  0  0  0  0  0  0
   21.4761  -20.2792  -12.2494 C   0  0  0  0  0  0  0  0  0  0  0  0
   20.0859  -20.7471  -12.0372 C   0  0  0  0  0  0  0  0  0  0  0  0
   19.2571  -20.5887  -13.2327 C   0  0  0  0  0  0  0  0  0  0  0  0
   19.0692  -19.4887  -13.7833 O   0  0  0  0  0  0  0  0  0  0  0  0
   23.5879  -20.3883  -13.4336 C   0  0  0  0  0  0  0  0  0  0  0  0
   23.7746  -19.1512  -13.3823 O   0  0  0  0  0  0  0  0  0  0  0  0
   18.6246  -21.6877  -13.8246 O   0  0  0  0  0  0  0  0  0  0  0  0
   25.3416  -19.6963   -7.2204 O   0  0  0  0  0  0  0  0  0  0  0  0
   25.6508  -20.1844   -8.4817 C   0  0  0  0  0  0  0  0  0  0  0  0
   25.0201  -21.2332   -9.0905 C   0  0  0  0  0  0  0  0  0  0  0  0
   25.3703  -21.6769  -10.3489 C   0  0  0  0  0  0  0  0  0  0  0  0
   26.3747  -21.0744  -11.0406 C   0  0  0  0  0  0  0  0  0  0  0  0
   26.8296  -21.4626  -12.3872 C   0  0  0  0  0  0  0  0  0  0  0  0
   26.0086  -20.8746  -13.4926 C   0  0  2  0  0  0  0  0  0  0  0  0
   24.6517  -21.3194  -13.4962 N   0  0  0  0  0  0  0  0  0  0  0  0
   26.7001  -21.2309  -14.7838 C   0  0  0  0  0  0  0  0  0  0  0  0
   27.3478  -22.3078  -14.9027 O   0  0  0  0  0  0  0  0  0  0  0  0
   27.0220  -20.0116  -10.4373 C   0  0  0  0  0  0  0  0  0  0  0  0
   26.6763  -19.5610   -9.1755 C   0  0  0  0  0  0  0  0  0  0  0  0
   25.7668  -22.4205  -18.0055 C   0  0  0  0  0  0  0  0  0  0  0  0
   26.3095  -21.0227  -18.2326 C   0  0  1  0  0  0  0  0  0  0  0  0
   25.2671  -20.1280  -18.2797 O   0  0  0  0  0  0  0  0  0  0  0  0
   27.2959  -20.6635  -17.1398 C   0  0  2  0  0  0  0  0  0  0  0  0
   26.6336  -20.3528  -15.8984 N   0  0  0  0  0  0  0  0  0  0  0  0
   28.0922  -19.4906  -17.5698 C   0  0  0  0  0  0  0  0  0  0  0  0
   28.9925  -19.5642  -18.6388 O   0  0  0  0  0  0  0  0  0  0  0  0
   27.9748  -18.4003  -16.9806 O   0  0  0  0  0  0  0  0  0  0  0  0
  2  1  1  1
  3  2  1  0
  4  3  1  0
  4  5  1  0
  5  9  1  0
  5  6  2  0
  7  2  1  0
  7  8  2  0
 10 11  1  0
 11 12  2  0
 12 13  1  0
 14 13  2  0
 14 15  1  0
 16 15  1  1
 16 17  1  0
 17  7  1  0
 18 16  1  0
 19 18  2  0
 20 14  1  0
 21 11  1  0
 21 20  2  0
 23 22  1  1
 23 25  1  0
 24 23  1  0
 25 27  1  0
 25 26  1  1
 26 18  1  0
 27 28  1  0
 29 27  2  0
M  END
$$$$
