EYT.pdb
     RDKit          3D

 29 29  0  0  1  0  0  0  0  0999 V2000
   23.0828  -13.1068  -17.2151 N   0  0  0  0  0  0  0  0  0  0  0  0
   22.5182  -11.8993  -17.8337 C   0  0  1  0  0  0  0  0  0  0  0  0
   21.0391  -12.1308  -17.9661 C   0  0  0  0  0  0  0  0  0  0  0  0
   20.6467  -13.2184  -18.8933 C   0  0  0  0  0  0  0  0  0  0  0  0
   19.1999  -13.4370  -18.9136 C   0  0  0  0  0  0  0  0  0  0  0  0
   18.6560  -14.4088  -18.3583 O   0  0  0  0  0  0  0  0  0  0  0  0
   22.7304  -10.7267  -16.9454 C   0  0  0  0  0  0  0  0  0  0  0  0
   22.5568  -10.8816  -15.7151 O   0  0  0  0  0  0  0  0  0  0  0  0
   18.3434  -12.5468  -19.5708 O   0  0  0  0  0  0  0  0  0  0  0  0
   28.6173  -11.8403  -15.6648 O   0  0  0  0  0  0  0  0  0  0  0  0
   27.7000  -10.8596  -16.0134 C   0  0  0  0  0  0  0  0  0  0  0  0
   27.5586  -10.3312  -17.2660 C   0  0  0  0  0  0  0  0  0  0  0  0
   26.6274   -9.3554  -17.5560 C   0  0  0  0  0  0  0  0  0  0  0  0
   25.8020   -8.8765  -16.5867 C   0  0  0  0  0  0  0  0  0  0  0  0
   24.7733   -7.8401  -16.7838 C   0  0  0  0  0  0  0  0  0  0  0  0
   23.3717   -8.3563  -16.6813 C   0  0  2  0  0  0  0  0  0  0  0  0
   23.1171   -9.4891  -17.5125 N   0  0  0  0  0  0  0  0  0  0  0  0
   22.4597   -7.2088  -17.0334 C   0  0  0  0  0  0  0  0  0  0  0  0
   22.6763   -6.4892  -18.0475 O   0  0  0  0  0  0  0  0  0  0  0  0
   25.9336   -9.4019  -15.3142 C   0  0  0  0  0  0  0  0  0  0  0  0
   26.8652  -10.3806  -15.0159 C   0  0  0  0  0  0  0  0  0  0  0  0
   19.1395   -7.3253  -18.2541 C   0  0  0  0  0  0  0  0  0  0  0  0
   19.0264   -6.5376  -16.9631 C   0  0  1  0  0  0  0  0  0  0  0  0
   18.5772   -7.3630  -15.9600 O   0  0  0  0  0  0  0  0  0  0  0  0
   20.3647   -5.9200  -16.6114 C   0  0  2  0  0  0  0  0  0  0  0  0
   21.3309   -6.9156  -16.2222 N   0  0  0  0  0  0  0  0  0  0  0  0
   20.1805   -4.9629  -15.4957 C   0  0  0  0  0  0  0  0  0  0  0  0
   20.7679   -5.1712  -14.2426 O   0  0  0  0  0  0  0  0  0  0  0  0
   19.4896   -3.9392  -15.6527 O   0  0  0  0  0  0  0  0  0  0  0  0
  2  1  1  1
  3  2  1  0
  4  3  1  0
  4  5  1  0
  5  9  1  0
  5  6  2  0
  7  2  1  0
  7  8  2  0
 10 11  1  0
 11 12  2  0
 12 13  1  0
 14 13  2  0
 14 15  1  0
 16 15  1  6
 16 17  1  0
 17  7  1  0
 18 16  1  0
 19 18  2  0
 20 14  1  0
 21 11  1  0
 21 20  2  0
 23 22  1  6
 23 25  1  0
 24 23  1  0
 25 27  1  0
 25 26  1  1
 26 18  1  0
 27 28  1  0
 29 27  2  0
M  END
$$$$
