EYT.pdb
     RDKit          3D

 29 29  0  0  1  0  0  0  0  0999 V2000
   25.8697  -18.3206  -18.7353 N   0  0  0  0  0  0  0  0  0  0  0  0
   24.5005  -18.1446  -18.2316 C   0  0  1  0  0  0  0  0  0  0  0  0
   23.6023  -18.0689  -19.4343 C   0  0  0  0  0  0  0  0  0  0  0  0
   23.6609  -16.7965  -20.1920 C   0  0  0  0  0  0  0  0  0  0  0  0
   24.2792  -16.9608  -21.5080 C   0  0  0  0  0  0  0  0  0  0  0  0
   24.7298  -18.0484  -21.9114 O   0  0  0  0  0  0  0  0  0  0  0  0
   24.1008  -19.3258  -17.4230 C   0  0  0  0  0  0  0  0  0  0  0  0
   23.8367  -20.3904  -18.0271 O   0  0  0  0  0  0  0  0  0  0  0  0
   24.3954  -15.8823  -22.3919 O   0  0  0  0  0  0  0  0  0  0  0  0
   29.6107  -22.3872  -16.8822 O   0  0  0  0  0  0  0  0  0  0  0  0
   28.4208  -22.0501  -16.2535 C   0  0  0  0  0  0  0  0  0  0  0  0
   27.3739  -22.9054  -16.0510 C   0  0  0  0  0  0  0  0  0  0  0  0
   26.2118  -22.5148  -15.4185 C   0  0  0  0  0  0  0  0  0  0  0  0
   26.0649  -21.2405  -14.9657 C   0  0  0  0  0  0  0  0  0  0  0  0
   24.8723  -20.7168  -14.2769 C   0  0  0  0  0  0  0  0  0  0  0  0
   23.7542  -20.3517  -15.2032 C   0  0  2  0  0  0  0  0  0  0  0  0
   24.0329  -19.2100  -16.0142 N   0  0  0  0  0  0  0  0  0  0  0  0
   22.5362  -20.1235  -14.3448 C   0  0  0  0  0  0  0  0  0  0  0  0
   22.5486  -19.2833  -13.4029 O   0  0  0  0  0  0  0  0  0  0  0  0
   27.1160  -20.3638  -15.1634 C   0  0  0  0  0  0  0  0  0  0  0  0
   28.2845  -20.7484  -15.7970 C   0  0  0  0  0  0  0  0  0  0  0  0
   18.7342  -20.8983  -15.7963 C   0  0  0  0  0  0  0  0  0  0  0  0
   19.0313  -20.0463  -14.5773 C   0  0  1  0  0  0  0  0  0  0  0  0
   17.8935  -19.9220  -13.8163 O   0  0  0  0  0  0  0  0  0  0  0  0
   20.1650  -20.6575  -13.7789 C   0  0  2  0  0  0  0  0  0  0  0  0
   21.3433  -20.8569  -14.5840 N   0  0  0  0  0  0  0  0  0  0  0  0
   19.7263  -21.9625  -13.2321 C   0  0  0  0  0  0  0  0  0  0  0  0
   18.7195  -22.0541  -12.2643 O   0  0  0  0  0  0  0  0  0  0  0  0
   20.2519  -23.0192  -13.6283 O   0  0  0  0  0  0  0  0  0  0  0  0
  2  1  1  6
  3  2  1  0
  4  3  1  0
  4  5  1  0
  5  9  1  0
  5  6  2  0
  7  2  1  0
  7  8  2  0
 10 11  1  0
 11 12  2  0
 12 13  1  0
 14 13  2  0
 14 15  1  0
 16 15  1  1
 16 17  1  0
 17  7  1  0
 18 16  1  0
 19 18  2  0
 20 14  1  0
 21 11  1  0
 21 20  2  0
 23 22  1  6
 23 25  1  0
 24 23  1  0
 25 27  1  0
 25 26  1  6
 26 18  1  0
 27 28  1  0
 29 27  2  0
M  END
$$$$
