EYT.pdb
     RDKit          3D

 29 29  0  0  1  0  0  0  0  0999 V2000
   19.4771  -11.8254  -17.9471 N   0  0  0  0  0  0  0  0  0  0  0  0
   20.3379  -10.6353  -17.9006 C   0  0  1  0  0  0  0  0  0  0  0  0
   20.1013   -9.8787  -19.1774 C   0  0  0  0  0  0  0  0  0  0  0  0
   20.6840  -10.4898  -20.3954 C   0  0  0  0  0  0  0  0  0  0  0  0
   22.1339  -10.3070  -20.4703 C   0  0  0  0  0  0  0  0  0  0  0  0
   22.6688   -9.1889  -20.5817 O   0  0  0  0  0  0  0  0  0  0  0  0
   19.9421   -9.7662  -16.7617 C   0  0  0  0  0  0  0  0  0  0  0  0
   18.7324   -9.7324  -16.4400 O   0  0  0  0  0  0  0  0  0  0  0  0
   23.0042  -11.4015  -20.4194 O   0  0  0  0  0  0  0  0  0  0  0  0
   19.5692   -5.4127   -9.2874 O   0  0  0  0  0  0  0  0  0  0  0  0
   19.9318   -6.2099  -10.3634 C   0  0  0  0  0  0  0  0  0  0  0  0
   19.2594   -7.3287  -10.7692 C   0  0  0  0  0  0  0  0  0  0  0  0
   19.6665   -8.0851  -11.8487 C   0  0  0  0  0  0  0  0  0  0  0  0
   20.7721   -7.7367  -12.5603 C   0  0  0  0  0  0  0  0  0  0  0  0
   21.2950   -8.4678  -13.7279 C   0  0  0  0  0  0  0  0  0  0  0  0
   20.5807   -8.1517  -15.0052 C   0  0  2  0  0  0  0  0  0  0  0  0
   20.9333   -9.0149  -16.0866 N   0  0  0  0  0  0  0  0  0  0  0  0
   20.8941   -6.7142  -15.3337 C   0  0  0  0  0  0  0  0  0  0  0  0
   22.0612   -6.3569  -15.6555 O   0  0  0  0  0  0  0  0  0  0  0  0
   21.4627   -6.6069  -12.1615 C   0  0  0  0  0  0  0  0  0  0  0  0
   21.0604   -5.8434  -11.0798 C   0  0  0  0  0  0  0  0  0  0  0  0
   17.7362   -3.7610  -15.3466 C   0  0  0  0  0  0  0  0  0  0  0  0
   18.9002   -3.7307  -16.3183 C   0  0  1  0  0  0  0  0  0  0  0  0
   19.1505   -2.4324  -16.6938 O   0  0  0  0  0  0  0  0  0  0  0  0
   20.1218   -4.3677  -15.6872 C   0  0  2  0  0  0  0  0  0  0  0  0
   19.8719   -5.7289  -15.2862 N   0  0  0  0  0  0  0  0  0  0  0  0
   20.5221   -3.5792  -14.4986 C   0  0  0  0  0  0  0  0  0  0  0  0
   21.2188   -2.3712  -14.6173 O   0  0  0  0  0  0  0  0  0  0  0  0
   20.2427   -3.9809  -13.3539 O   0  0  0  0  0  0  0  0  0  0  0  0
  2  1  1  6
  3  2  1  0
  4  3  1  0
  4  5  1  0
  5  9  1  0
  5  6  2  0
  7  2  1  0
  7  8  2  0
 10 11  1  0
 11 12  2  0
 12 13  1  0
 14 13  2  0
 14 15  1  0
 16 15  1  1
 16 17  1  0
 17  7  1  0
 18 16  1  0
 19 18  2  0
 20 14  1  0
 21 11  1  0
 21 20  2  0
 23 22  1  1
 23 25  1  0
 24 23  1  0
 25 27  1  0
 25 26  1  1
 26 18  1  0
 27 28  1  0
 29 27  2  0
M  END
$$$$
