EYT.pdb
     RDKit          3D

 29 29  0  0  1  0  0  0  0  0999 V2000
   24.4341   -6.0896  -16.0808 N   0  0  0  0  0  0  0  0  0  0  0  0
   24.4574   -7.5078  -16.4649 C   0  0  1  0  0  0  0  0  0  0  0  0
   23.1285   -7.8072  -17.0997 C   0  0  0  0  0  0  0  0  0  0  0  0
   21.9768   -7.8597  -16.1682 C   0  0  0  0  0  0  0  0  0  0  0  0
   20.7086   -8.0814  -16.8637 C   0  0  0  0  0  0  0  0  0  0  0  0
   19.9931   -9.0793  -16.6617 O   0  0  0  0  0  0  0  0  0  0  0  0
   25.5219   -7.7431  -17.4752 C   0  0  0  0  0  0  0  0  0  0  0  0
   25.6855   -6.8816  -18.3691 O   0  0  0  0  0  0  0  0  0  0  0  0
   20.2314   -7.1644  -17.8068 O   0  0  0  0  0  0  0  0  0  0  0  0
   32.8333   -5.6930  -18.0779 O   0  0  0  0  0  0  0  0  0  0  0  0
   31.7921   -6.6095  -18.0515 C   0  0  0  0  0  0  0  0  0  0  0  0
   30.9457   -6.8614  -19.0949 C   0  0  0  0  0  0  0  0  0  0  0  0
   29.9250   -7.7859  -19.0122 C   0  0  0  0  0  0  0  0  0  0  0  0
   29.7219   -8.4921  -17.8676 C   0  0  0  0  0  0  0  0  0  0  0  0
   28.6675   -9.5021  -17.6693 C   0  0  0  0  0  0  0  0  0  0  0  0
   27.3667   -9.1502  -18.3218 C   0  0  2  0  0  0  0  0  0  0  0  0
   26.3059   -8.9185  -17.3945 N   0  0  0  0  0  0  0  0  0  0  0  0
   27.0309  -10.2820  -19.2591 C   0  0  0  0  0  0  0  0  0  0  0  0
   26.5447  -11.3645  -18.8288 O   0  0  0  0  0  0  0  0  0  0  0  0
   30.5707   -8.2479  -16.8034 C   0  0  0  0  0  0  0  0  0  0  0  0
   31.5964   -7.3223  -16.8789 C   0  0  0  0  0  0  0  0  0  0  0  0
   28.3805  -10.2907  -23.3653 C   0  0  0  0  0  0  0  0  0  0  0  0
   26.9732  -10.7352  -23.0163 C   0  0  1  0  0  0  0  0  0  0  0  0
   26.5784  -11.7287  -23.8803 O   0  0  0  0  0  0  0  0  0  0  0  0
   26.9171  -11.2024  -21.5759 C   0  0  2  0  0  0  0  0  0  0  0  0
   27.2579  -10.1479  -20.6550 N   0  0  0  0  0  0  0  0  0  0  0  0
   27.8619  -12.3286  -21.3928 C   0  0  0  0  0  0  0  0  0  0  0  0
   27.5518  -13.6259  -21.8166 O   0  0  0  0  0  0  0  0  0  0  0  0
   28.9668  -12.1410  -20.8506 O   0  0  0  0  0  0  0  0  0  0  0  0
  2  1  1  6
  3  2  1  0
  4  3  1  0
  4  5  1  0
  5  9  1  0
  5  6  2  0
  7  2  1  0
  7  8  2  0
 10 11  1  0
 11 12  2  0
 12 13  1  0
 14 13  2  0
 14 15  1  0
 16 15  1  1
 16 17  1  0
 17  7  1  0
 18 16  1  0
 19 18  2  0
 20 14  1  0
 21 11  1  0
 21 20  2  0
 23 22  1  6
 23 25  1  0
 24 23  1  0
 25 27  1  0
 25 26  1  1
 26 18  1  0
 27 28  1  0
 29 27  2  0
M  END
$$$$
