EYT.pdb
     RDKit          3D

 29 29  0  0  1  0  0  0  0  0999 V2000
   18.3808   -9.5540  -16.4757 N   0  0  0  0  0  0  0  0  0  0  0  0
   17.8531   -8.2110  -16.1976 C   0  0  1  0  0  0  0  0  0  0  0  0
   16.3548   -8.3128  -16.2568 C   0  0  0  0  0  0  0  0  0  0  0  0
   15.7824   -8.4802  -17.6136 C   0  0  0  0  0  0  0  0  0  0  0  0
   15.7731   -9.8785  -18.0447 C   0  0  0  0  0  0  0  0  0  0  0  0
   16.0153  -10.2262  -19.2148 O   0  0  0  0  0  0  0  0  0  0  0  0
   18.2393   -7.7873  -14.8264 C   0  0  0  0  0  0  0  0  0  0  0  0
   17.9438   -8.5422  -13.8721 O   0  0  0  0  0  0  0  0  0  0  0  0
   15.4857  -10.9106  -17.1446 O   0  0  0  0  0  0  0  0  0  0  0  0
   23.8772  -10.4757  -15.0133 O   0  0  0  0  0  0  0  0  0  0  0  0
   23.1282   -9.4151  -14.5245 C   0  0  0  0  0  0  0  0  0  0  0  0
   22.5246   -9.3838  -13.2985 C   0  0  0  0  0  0  0  0  0  0  0  0
   21.7900   -8.3001  -12.8635 C   0  0  0  0  0  0  0  0  0  0  0  0
   21.6383   -7.2043  -13.6549 C   0  0  0  0  0  0  0  0  0  0  0  0
   20.8796   -5.9942  -13.2926 C   0  0  0  0  0  0  0  0  0  0  0  0
   19.3946   -6.1734  -13.3565 C   0  0  2  0  0  0  0  0  0  0  0  0
   18.9200   -6.5597  -14.6466 N   0  0  0  0  0  0  0  0  0  0  0  0
   18.7806   -4.8673  -12.9209 C   0  0  0  0  0  0  0  0  0  0  0  0
   19.1561   -3.7702  -13.4194 O   0  0  0  0  0  0  0  0  0  0  0  0
   22.2436   -7.2215  -14.8983 C   0  0  0  0  0  0  0  0  0  0  0  0
   22.9817   -8.3048  -15.3413 C   0  0  0  0  0  0  0  0  0  0  0  0
   15.8034   -3.2631  -13.5589 C   0  0  0  0  0  0  0  0  0  0  0  0
   15.7516   -3.4514  -12.0549 C   0  0  1  0  0  0  0  0  0  0  0  0
   14.9652   -4.5382  -11.7556 O   0  0  0  0  0  0  0  0  0  0  0  0
   17.1530   -3.6156  -11.5024 C   0  0  2  0  0  0  0  0  0  0  0  0
   17.7597   -4.8495  -11.9332 N   0  0  0  0  0  0  0  0  0  0  0  0
   17.0977   -3.5948  -10.0222 C   0  0  0  0  0  0  0  0  0  0  0  0
   16.7112   -2.4500   -9.3161 O   0  0  0  0  0  0  0  0  0  0  0  0
   17.3981   -4.6100   -9.3671 O   0  0  0  0  0  0  0  0  0  0  0  0
  2  1  1  1
  3  2  1  0
  4  3  1  0
  4  5  1  0
  5  9  1  0
  5  6  2  0
  7  2  1  0
  7  8  2  0
 10 11  1  0
 11 12  2  0
 12 13  1  0
 14 13  2  0
 14 15  1  0
 16 15  1  6
 16 17  1  0
 17  7  1  0
 18 16  1  0
 19 18  2  0
 20 14  1  0
 21 11  1  0
 21 20  2  0
 23 22  1  6
 23 25  1  0
 24 23  1  0
 25 27  1  0
 25 26  1  1
 26 18  1  0
 27 28  1  0
 29 27  2  0
M  END
$$$$
