RAE.pdb
     RDKit          3D

 26 25  0  0  1  0  0  0  0  0999 V2000
   26.7598  -20.8902  -10.6088 N   0  0  0  0  0  0  0  0  0  0  0  0
   25.4032  -20.7661  -10.9950 C   0  0  0  0  0  0  0  0  0  0  0  0
   24.4618  -20.8097  -10.1252 N   0  0  0  0  0  0  0  0  0  0  0  0
   25.0952  -20.5896  -12.3885 N   0  0  0  0  0  0  0  0  0  0  0  0
   26.0904  -20.8882  -13.3933 C   0  0  0  0  0  0  0  0  0  0  0  0
   27.2079  -19.9233  -13.4733 C   0  0  0  0  0  0  0  0  0  0  0  0
   27.4093  -19.1774  -14.7499 C   0  0  0  0  0  0  0  0  0  0  0  0
   27.3400  -19.9473  -16.0119 C   0  0  2  0  0  0  0  0  0  0  0  0
   28.5355  -19.6169  -16.8145 N   0  0  0  0  0  0  0  0  0  0  0  0
   26.1805  -19.7362  -16.8834 C   0  0  0  0  0  0  0  0  0  0  0  0
   25.9802  -18.6077  -17.4206 O   0  0  0  0  0  0  0  0  0  0  0  0
   23.4544  -20.7646  -10.3050 C   0  0  0  0  0  0  0  0  0  0  0  0
   23.7252  -21.5879  -18.9651 C   0  0  1  0  0  0  0  0  0  0  0  0
   24.0441  -20.4103  -18.0336 N   0  0  0  0  0  0  0  0  0  0  0  0
   25.1982  -20.7334  -17.2020 C   0  0  0  0  0  0  0  0  0  0  0  0
   22.8683  -20.2891  -17.1365 O   0  0  0  0  0  0  0  0  0  0  0  0
   22.8998  -20.8063  -15.9944 N   0  0  0  0  0  0  0  0  0  0  0  0
   21.6952  -19.6127  -17.5007 C   0  0  1  0  0  0  0  0  0  0  0  0
   20.5494  -19.4033  -16.5916 C   0  0  0  0  0  0  0  0  0  0  0  0
   20.1445  -17.9905  -16.7343 C   0  0  0  0  0  0  0  0  0  0  0  0
   18.9185  -17.6148  -16.0041 C   0  0  0  0  0  0  0  0  0  0  0  0
   18.4674  -16.2606  -16.3755 O   0  0  0  0  0  0  0  0  0  0  0  0
   17.2940  -15.9231  -16.0648 C   0  0  0  0  0  0  0  0  0  0  0  0
   19.6221  -20.4854  -16.8152 O   0  0  0  0  0  0  0  0  0  0  0  0
   19.5395  -21.0881  -17.9444 O   0  0  0  0  0  0  0  0  0  0  0  0
   19.2958  -15.3430  -17.0510 O   0  0  0  0  0  0  0  0  0  0  0  0
  2  1  1  0
  3  2  2  0
  4  2  1  0
  5  4  1  0
  6  5  1  0
  7  6  1  0
  8 10  1  0
  8  7  1  0
  8  9  1  6
 10 14  1  0
 11 10  2  0
 13 12  1  6
 14 13  1  0
 15 17  1  0
 15 13  1  0
 16 15  2  0
 18 17  1  0
 18 19  1  6
 19 20  1  0
 20 21  1  0
 21 25  1  0
 22 21  2  0
 23 18  1  0
 24 23  2  0
 26 23  1  0
M  END
$$$$
