RAE.pdb
     RDKit          3D

 26 25  0  0  1  0  0  0  0  0999 V2000
   20.7885  -22.3028   -6.4799 N   0  0  0  0  0  0  0  0  0  0  0  0
   20.1948  -22.1370   -7.7546 C   0  0  0  0  0  0  0  0  0  0  0  0
   18.9318  -22.2864   -7.9200 N   0  0  0  0  0  0  0  0  0  0  0  0
   21.0366  -21.7965   -8.8696 N   0  0  0  0  0  0  0  0  0  0  0  0
   22.4340  -21.4949   -8.6560 C   0  0  0  0  0  0  0  0  0  0  0  0
   22.9048  -20.2379   -9.2761 C   0  0  0  0  0  0  0  0  0  0  0  0
   23.2788  -20.2576  -10.7206 C   0  0  0  0  0  0  0  0  0  0  0  0
   24.5076  -20.9896  -11.1005 C   0  0  2  0  0  0  0  0  0  0  0  0
   25.3748  -21.0760   -9.9075 N   0  0  0  0  0  0  0  0  0  0  0  0
   25.3330  -20.4352  -12.1774 C   0  0  0  0  0  0  0  0  0  0  0  0
   25.2009  -19.2261  -12.5279 O   0  0  0  0  0  0  0  0  0  0  0  0
   18.4104  -22.1963   -8.7971 C   0  0  0  0  0  0  0  0  0  0  0  0
   28.0758  -21.5015  -14.5961 C   0  0  1  0  0  0  0  0  0  0  0  0
   26.9053  -20.6217  -14.1358 N   0  0  0  0  0  0  0  0  0  0  0  0
   26.3254  -21.1665  -12.9132 C   0  0  0  0  0  0  0  0  0  0  0  0
   25.8823  -20.7375  -15.2044 O   0  0  0  0  0  0  0  0  0  0  0  0
   24.7489  -21.2017  -14.9346 N   0  0  0  0  0  0  0  0  0  0  0  0
   26.1150  -20.3479  -16.5312 C   0  0  1  0  0  0  0  0  0  0  0  0
   25.0538  -19.8985  -17.4557 C   0  0  0  0  0  0  0  0  0  0  0  0
   23.9256  -19.4412  -16.6199 C   0  0  0  0  0  0  0  0  0  0  0  0
   22.5906  -19.8619  -17.0871 C   0  0  0  0  0  0  0  0  0  0  0  0
   21.7403  -18.6976  -17.3980 O   0  0  0  0  0  0  0  0  0  0  0  0
   22.2707  -17.5551  -17.3715 C   0  0  0  0  0  0  0  0  0  0  0  0
   25.6734  -19.0367  -18.4325 O   0  0  0  0  0  0  0  0  0  0  0  0
   26.9341  -18.8010  -18.4293 O   0  0  0  0  0  0  0  0  0  0  0  0
   20.3756  -18.8199  -17.7250 O   0  0  0  0  0  0  0  0  0  0  0  0
  2  1  1  0
  3  2  2  0
  4  2  1  0
  5  4  1  0
  6  5  1  0
  7  6  1  0
  8 10  1  0
  8  7  1  0
  8  9  1  1
 10 14  1  0
 11 10  2  0
 13 12  1  1
 14 13  1  0
 15 17  1  0
 15 13  1  0
 16 15  2  0
 18 17  1  0
 18 19  1  6
 19 20  1  0
 20 21  1  0
 21 25  1  0
 22 21  2  0
 23 18  1  0
 24 23  2  0
 26 23  1  0
M  END
$$$$
