RAE.pdb
     RDKit          3D

 26 25  0  0  1  0  0  0  0  0999 V2000
   17.1866  -14.2855  -14.4217 N   0  0  0  0  0  0  0  0  0  0  0  0
   15.9751  -14.3991  -13.6974 C   0  0  0  0  0  0  0  0  0  0  0  0
   15.0343  -15.1719  -14.1003 N   0  0  0  0  0  0  0  0  0  0  0  0
   15.8148  -13.6281  -12.4943 N   0  0  0  0  0  0  0  0  0  0  0  0
   15.1948  -12.3235  -12.5479 C   0  0  0  0  0  0  0  0  0  0  0  0
   15.6572  -11.4557  -13.6521 C   0  0  0  0  0  0  0  0  0  0  0  0
   16.2983  -10.1530  -13.3081 C   0  0  0  0  0  0  0  0  0  0  0  0
   15.4153   -9.0490  -12.8701 C   0  0  2  0  0  0  0  0  0  0  0  0
   14.6438   -8.5889  -14.0430 N   0  0  0  0  0  0  0  0  0  0  0  0
   16.0406   -7.8578  -12.2883 C   0  0  0  0  0  0  0  0  0  0  0  0
   16.5092   -6.9504  -13.0361 O   0  0  0  0  0  0  0  0  0  0  0  0
   14.1444  -15.3571  -13.6279 C   0  0  0  0  0  0  0  0  0  0  0  0
   16.7903   -6.3540   -8.8647 C   0  0  1  0  0  0  0  0  0  0  0  0
   16.8322   -6.3935  -10.3985 N   0  0  0  0  0  0  0  0  0  0  0  0
   16.1837   -7.6074  -10.8819 C   0  0  0  0  0  0  0  0  0  0  0  0
   18.2707   -6.4863  -10.7504 O   0  0  0  0  0  0  0  0  0  0  0  0
   18.9511   -7.4571  -10.3411 N   0  0  0  0  0  0  0  0  0  0  0  0
   18.9297   -5.5279  -11.5338 C   0  0  1  0  0  0  0  0  0  0  0  0
   20.3162   -5.6757  -12.0222 C   0  0  0  0  0  0  0  0  0  0  0  0
   20.3881   -6.9782  -12.7141 C   0  0  0  0  0  0  0  0  0  0  0  0
   21.6556   -7.2405  -13.4227 C   0  0  0  0  0  0  0  0  0  0  0  0
   21.6304   -8.5515  -14.0981 O   0  0  0  0  0  0  0  0  0  0  0  0
   22.5857   -8.8374  -14.8682 C   0  0  0  0  0  0  0  0  0  0  0  0
   20.6708   -4.4438  -12.6838 O   0  0  0  0  0  0  0  0  0  0  0  0
   21.8920   -4.0990  -12.8703 O   0  0  0  0  0  0  0  0  0  0  0  0
   20.5913   -9.4835  -13.9083 O   0  0  0  0  0  0  0  0  0  0  0  0
  2  1  1  0
  3  2  2  0
  4  2  1  0
  5  4  1  0
  6  5  1  0
  7  6  1  0
  8 10  1  0
  8  7  1  0
  8  9  1  6
 10 14  1  0
 11 10  2  0
 13 12  1  6
 14 13  1  0
 15 17  1  0
 15 13  1  0
 16 15  2  0
 18 17  1  0
 18 19  1  1
 19 20  1  0
 20 21  1  0
 21 25  1  0
 22 21  2  0
 23 18  1  0
 24 23  2  0
 26 23  1  0
M  END
$$$$
