RAE.pdb
     RDKit          3D

 26 25  0  0  1  0  0  0  0  0999 V2000
   23.9824  -19.2047  -18.7212 N   0  0  0  0  0  0  0  0  0  0  0  0
   23.3743  -18.4407  -17.6958 C   0  0  0  0  0  0  0  0  0  0  0  0
   23.0485  -17.2155  -17.8894 N   0  0  0  0  0  0  0  0  0  0  0  0
   23.1264  -19.0645  -16.4242 N   0  0  0  0  0  0  0  0  0  0  0  0
   23.4547  -20.4580  -16.2252 C   0  0  0  0  0  0  0  0  0  0  0  0
   23.1582  -20.9842  -14.8756 C   0  0  0  0  0  0  0  0  0  0  0  0
   22.4478  -20.0962  -13.9096 C   0  0  0  0  0  0  0  0  0  0  0  0
   23.0083  -19.9806  -12.5448 C   0  0  2  0  0  0  0  0  0  0  0  0
   24.4324  -20.3700  -12.6018 N   0  0  0  0  0  0  0  0  0  0  0  0
   22.3983  -20.7829  -11.4806 C   0  0  0  0  0  0  0  0  0  0  0  0
   22.5012  -22.0444  -11.4907 O   0  0  0  0  0  0  0  0  0  0  0  0
   22.6642  -16.5637  -17.1989 C   0  0  0  0  0  0  0  0  0  0  0  0
   20.4198  -20.2979   -8.2564 C   0  0  1  0  0  0  0  0  0  0  0  0
   21.1159  -21.1311   -9.3415 N   0  0  0  0  0  0  0  0  0  0  0  0
   21.6555  -20.2519  -10.3728 C   0  0  0  0  0  0  0  0  0  0  0  0
   20.0407  -21.9419   -9.9648 O   0  0  0  0  0  0  0  0  0  0  0  0
   19.4197  -21.4951  -10.9586 N   0  0  0  0  0  0  0  0  0  0  0  0
   19.6699  -23.2103   -9.4957 C   0  0  1  0  0  0  0  0  0  0  0  0
   18.6013  -24.0320  -10.1004 C   0  0  0  0  0  0  0  0  0  0  0  0
   18.7357  -25.3895   -9.5354 C   0  0  0  0  0  0  0  0  0  0  0  0
   17.7767  -26.3819  -10.0579 C   0  0  0  0  0  0  0  0  0  0  0  0
   18.0133  -27.7151   -9.4731 O   0  0  0  0  0  0  0  0  0  0  0  0
   18.8987  -28.4415   -9.9981 C   0  0  0  0  0  0  0  0  0  0  0  0
   17.3730  -23.2831   -9.9936 O   0  0  0  0  0  0  0  0  0  0  0  0
   16.4755  -23.3142  -10.9093 O   0  0  0  0  0  0  0  0  0  0  0  0
   17.2962  -28.1936   -8.3590 O   0  0  0  0  0  0  0  0  0  0  0  0
  2  1  1  0
  3  2  2  0
  4  2  1  0
  5  4  1  0
  6  5  1  0
  7  6  1  0
  8 10  1  0
  8  7  1  0
  8  9  1  6
 10 14  1  0
 11 10  2  0
 13 12  1  1
 14 13  1  0
 15 17  1  0
 15 13  1  0
 16 15  2  0
 18 17  1  0
 18 19  1  1
 19 20  1  0
 20 21  1  0
 21 25  1  0
 22 21  2  0
 23 18  1  0
 24 23  2  0
 26 23  1  0
M  END
$$$$
