RAE.pdb
     RDKit          3D

 26 25  0  0  1  0  0  0  0  0999 V2000
   29.1627  -20.5335  -12.6271 N   0  0  0  0  0  0  0  0  0  0  0  0
   28.6047  -21.1478  -11.4799 C   0  0  0  0  0  0  0  0  0  0  0  0
   29.2913  -21.2891  -10.4059 N   0  0  0  0  0  0  0  0  0  0  0  0
   27.2459  -21.6148  -11.5384 N   0  0  0  0  0  0  0  0  0  0  0  0
   26.4997  -21.5179  -12.7725 C   0  0  0  0  0  0  0  0  0  0  0  0
   25.5042  -20.4256  -12.8176 C   0  0  0  0  0  0  0  0  0  0  0  0
   24.1289  -20.6994  -12.3075 C   0  0  0  0  0  0  0  0  0  0  0  0
   23.0845  -21.0379  -13.3000 C   0  0  2  0  0  0  0  0  0  0  0  0
   23.6586  -20.8512  -14.6484 N   0  0  0  0  0  0  0  0  0  0  0  0
   21.8336  -20.2745  -13.2694 C   0  0  0  0  0  0  0  0  0  0  0  0
   21.1298  -20.2401  -12.2178 O   0  0  0  0  0  0  0  0  0  0  0  0
   29.0114  -21.7897   -9.5572 C   0  0  0  0  0  0  0  0  0  0  0  0
   20.2292  -17.3248  -14.5091 C   0  0  2  0  0  0  0  0  0  0  0  0
   20.0255  -18.8247  -14.2548 N   0  0  0  0  0  0  0  0  0  0  0  0
   21.2994  -19.5257  -14.3716 C   0  0  0  0  0  0  0  0  0  0  0  0
   19.1544  -19.2962  -15.3598 O   0  0  0  0  0  0  0  0  0  0  0  0
   19.6272  -20.0392  -16.2526 N   0  0  0  0  0  0  0  0  0  0  0  0
   17.7994  -18.9507  -15.4658 C   0  0  2  0  0  0  0  0  0  0  0  0
   16.9162  -19.4079  -16.5584 C   0  0  0  0  0  0  0  0  0  0  0  0
   17.3940  -18.7559  -17.7941 C   0  0  0  0  0  0  0  0  0  0  0  0
   17.3667  -17.2807  -17.7733 C   0  0  0  0  0  0  0  0  0  0  0  0
   17.7735  -16.7189  -19.0749 O   0  0  0  0  0  0  0  0  0  0  0  0
   17.6885  -17.4598  -20.0903 C   0  0  0  0  0  0  0  0  0  0  0  0
   16.8078  -20.8422  -16.4497 O   0  0  0  0  0  0  0  0  0  0  0  0
   17.1740  -21.6258  -17.3968 O   0  0  0  0  0  0  0  0  0  0  0  0
   18.2413  -15.3980  -19.2188 O   0  0  0  0  0  0  0  0  0  0  0  0
  2  1  1  0
  3  2  2  0
  4  2  1  0
  5  4  1  0
  6  5  1  0
  7  6  1  0
  8 10  1  0
  8  7  1  0
  8  9  1  6
 10 14  1  0
 11 10  2  0
 13 12  1  1
 14 13  1  0
 15 17  1  0
 15 13  1  0
 16 15  2  0
 18 17  1  0
 18 19  1  1
 19 20  1  0
 20 21  1  0
 21 25  1  0
 22 21  2  0
 23 18  1  0
 24 23  2  0
 26 23  1  0
M  END
$$$$
