RAE.pdb
     RDKit          3D

 26 25  0  0  1  0  0  0  0  0999 V2000
   21.2441  -20.7390   -9.5548 N   0  0  0  0  0  0  0  0  0  0  0  0
   22.1178  -21.3213   -8.6048 C   0  0  0  0  0  0  0  0  0  0  0  0
   21.7077  -22.2333   -7.8017 N   0  0  0  0  0  0  0  0  0  0  0  0
   23.4822  -20.8702   -8.5535 N   0  0  0  0  0  0  0  0  0  0  0  0
   24.2758  -20.8259   -9.7608 C   0  0  0  0  0  0  0  0  0  0  0  0
   25.6514  -20.3124   -9.5869 C   0  0  0  0  0  0  0  0  0  0  0  0
   26.4924  -20.1145  -10.8035 C   0  0  0  0  0  0  0  0  0  0  0  0
   25.9968  -20.6791  -12.0786 C   0  0  2  0  0  0  0  0  0  0  0  0
   26.8277  -21.8547  -12.4109 N   0  0  0  0  0  0  0  0  0  0  0  0
   26.0041  -19.8147  -13.2623 C   0  0  0  0  0  0  0  0  0  0  0  0
   25.2564  -18.7947  -13.3151 O   0  0  0  0  0  0  0  0  0  0  0  0
   22.2685  -22.7481   -7.1163 C   0  0  0  0  0  0  0  0  0  0  0  0
   28.0163  -19.2722  -16.4289 C   0  0  1  0  0  0  0  0  0  0  0  0
   26.7725  -19.0892  -15.5482 N   0  0  0  0  0  0  0  0  0  0  0  0
   26.8152  -20.0230  -14.4284 C   0  0  0  0  0  0  0  0  0  0  0  0
   25.6237  -19.4734  -16.4053 O   0  0  0  0  0  0  0  0  0  0  0  0
   25.4694  -20.6721  -16.7402 N   0  0  0  0  0  0  0  0  0  0  0  0
   24.6771  -18.5510  -16.8737 C   0  0  1  0  0  0  0  0  0  0  0  0
   23.4298  -18.9318  -17.5680 C   0  0  0  0  0  0  0  0  0  0  0  0
   22.5414  -19.5302  -16.5515 C   0  0  0  0  0  0  0  0  0  0  0  0
   21.9240  -18.5691  -15.6174 C   0  0  0  0  0  0  0  0  0  0  0  0
   20.9956  -19.2436  -14.6908 O   0  0  0  0  0  0  0  0  0  0  0  0
   20.6117  -20.4075  -14.9828 C   0  0  0  0  0  0  0  0  0  0  0  0
   23.0198  -17.8004  -18.3634 O   0  0  0  0  0  0  0  0  0  0  0  0
   23.6132  -16.6657  -18.2888 O   0  0  0  0  0  0  0  0  0  0  0  0
   20.5355  -18.6401  -13.5040 O   0  0  0  0  0  0  0  0  0  0  0  0
  2  1  1  0
  3  2  2  0
  4  2  1  0
  5  4  1  0
  6  5  1  0
  7  6  1  0
  8 10  1  0
  8  7  1  0
  8  9  1  6
 10 14  1  0
 11 10  2  0
 13 12  1  1
 14 13  1  0
 15 17  1  0
 15 13  1  0
 16 15  2  0
 18 17  1  0
 18 19  1  6
 19 20  1  0
 20 21  1  0
 21 25  1  0
 22 21  2  0
 23 18  1  0
 24 23  2  0
 26 23  1  0
M  END
$$$$
