RAE.pdb
     RDKit          3D

 26 25  0  0  1  0  0  0  0  0999 V2000
   24.9381  -19.1177  -19.2140 N   0  0  0  0  0  0  0  0  0  0  0  0
   23.6771  -18.5018  -19.4020 C   0  0  0  0  0  0  0  0  0  0  0  0
   23.0713  -18.5674  -20.5305 N   0  0  0  0  0  0  0  0  0  0  0  0
   23.0820  -17.7958  -18.2997 N   0  0  0  0  0  0  0  0  0  0  0  0
   22.8700  -18.4692  -17.0384 C   0  0  0  0  0  0  0  0  0  0  0  0
   22.0174  -19.6752  -17.1086 C   0  0  0  0  0  0  0  0  0  0  0  0
   21.7207  -20.4073  -15.8426 C   0  0  0  0  0  0  0  0  0  0  0  0
   22.6265  -20.1845  -14.6936 C   0  0  2  0  0  0  0  0  0  0  0  0
   23.8928  -20.8953  -14.9661 N   0  0  0  0  0  0  0  0  0  0  0  0
   22.1779  -20.6236  -13.3691 C   0  0  0  0  0  0  0  0  0  0  0  0
   22.1467  -21.8554  -13.0793 O   0  0  0  0  0  0  0  0  0  0  0  0
   22.1815  -18.1246  -20.7786 C   0  0  0  0  0  0  0  0  0  0  0  0
   20.9652  -19.1436  -10.0721 C   0  0  1  0  0  0  0  0  0  0  0  0
   21.2165  -20.2859  -11.0662 N   0  0  0  0  0  0  0  0  0  0  0  0
   21.7459  -19.7498  -12.3152 C   0  0  0  0  0  0  0  0  0  0  0  0
   19.8775  -20.8553  -11.3576 O   0  0  0  0  0  0  0  0  0  0  0  0
   19.2704  -20.5175  -12.4017 N   0  0  0  0  0  0  0  0  0  0  0  0
   19.2360  -21.7721  -10.5124 C   0  0  1  0  0  0  0  0  0  0  0  0
   17.8805  -22.3073  -10.7555 C   0  0  0  0  0  0  0  0  0  0  0  0
   17.7137  -23.4691   -9.8595 C   0  0  0  0  0  0  0  0  0  0  0  0
   18.7293  -24.5285  -10.0139 C   0  0  0  0  0  0  0  0  0  0  0  0
   18.5439  -25.5980   -9.0154 O   0  0  0  0  0  0  0  0  0  0  0  0
   17.9450  -26.6459   -9.3769 C   0  0  0  0  0  0  0  0  0  0  0  0
   16.9680  -21.1904  -10.7286 O   0  0  0  0  0  0  0  0  0  0  0  0
   17.2291  -20.1141  -10.0816 O   0  0  0  0  0  0  0  0  0  0  0  0
   19.0131  -25.4904   -7.6915 O   0  0  0  0  0  0  0  0  0  0  0  0
  2  1  1  0
  3  2  2  0
  4  2  1  0
  5  4  1  0
  6  5  1  0
  7  6  1  0
  8 10  1  0
  8  7  1  0
  8  9  1  6
 10 14  1  0
 11 10  2  0
 13 12  1  1
 14 13  1  0
 15 17  1  0
 15 13  1  0
 16 15  2  0
 18 17  1  0
 18 19  1  1
 19 20  1  0
 20 21  1  0
 21 25  1  0
 22 21  2  0
 23 18  1  0
 24 23  2  0
 26 23  1  0
M  END
$$$$
