RAE.pdb
     RDKit          3D

 26 25  0  0  1  0  0  0  0  0999 V2000
   19.6995  -25.2438  -10.5748 N   0  0  0  0  0  0  0  0  0  0  0  0
   18.9699  -24.1252  -11.0454 C   0  0  0  0  0  0  0  0  0  0  0  0
   18.0257  -23.6105  -10.3466 N   0  0  0  0  0  0  0  0  0  0  0  0
   19.3064  -23.5715  -12.3291 N   0  0  0  0  0  0  0  0  0  0  0  0
   20.4041  -24.1235  -13.0903 C   0  0  0  0  0  0  0  0  0  0  0  0
   21.7509  -23.7621  -12.5985 C   0  0  0  0  0  0  0  0  0  0  0  0
   22.3409  -22.4642  -13.0390 C   0  0  0  0  0  0  0  0  0  0  0  0
   23.7655  -22.2166  -12.7234 C   0  0  2  0  0  0  0  0  0  0  0  0
   23.8744  -21.9660  -11.2714 N   0  0  0  0  0  0  0  0  0  0  0  0
   24.4332  -21.0960  -13.3918 C   0  0  0  0  0  0  0  0  0  0  0  0
   24.3534  -19.9263  -12.9148 O   0  0  0  0  0  0  0  0  0  0  0  0
   17.4138  -22.8340  -10.6148 C   0  0  0  0  0  0  0  0  0  0  0  0
   26.9258  -20.4487  -16.1744 C   0  0  1  0  0  0  0  0  0  0  0  0
   25.8238  -20.0210  -15.1952 N   0  0  0  0  0  0  0  0  0  0  0  0
   25.2060  -21.1993  -14.5972 C   0  0  0  0  0  0  0  0  0  0  0  0
   24.7944  -19.3528  -16.0292 O   0  0  0  0  0  0  0  0  0  0  0  0
   23.5782  -19.5505  -15.7954 N   0  0  0  0  0  0  0  0  0  0  0  0
   25.1105  -18.4913  -17.0896 C   0  0  1  0  0  0  0  0  0  0  0  0
   24.1027  -17.7593  -17.8843 C   0  0  0  0  0  0  0  0  0  0  0  0
   23.2780  -16.9950  -16.9272 C   0  0  0  0  0  0  0  0  0  0  0  0
   22.2155  -17.7707  -16.2588 C   0  0  0  0  0  0  0  0  0  0  0  0
   20.8768  -17.3367  -16.7005 O   0  0  0  0  0  0  0  0  0  0  0  0
   20.5639  -16.1275  -16.5357 C   0  0  0  0  0  0  0  0  0  0  0  0
   24.7996  -17.1145  -18.9703 O   0  0  0  0  0  0  0  0  0  0  0  0
   26.0514  -16.8416  -18.9086 O   0  0  0  0  0  0  0  0  0  0  0  0
   19.9523  -18.2160  -17.2975 O   0  0  0  0  0  0  0  0  0  0  0  0
  2  1  1  0
  3  2  2  0
  4  2  1  0
  5  4  1  0
  6  5  1  0
  7  6  1  0
  8 10  1  0
  8  7  1  0
  8  9  1  1
 10 14  1  0
 11 10  2  0
 13 12  1  1
 14 13  1  0
 15 17  1  0
 15 13  1  0
 16 15  2  0
 18 17  1  0
 18 19  1  6
 19 20  1  0
 20 21  1  0
 21 25  1  0
 22 21  2  0
 23 18  1  0
 24 23  2  0
 26 23  1  0
M  END
$$$$
