RAE.pdb
     RDKit          3D

 26 25  0  0  1  0  0  0  0  0999 V2000
   34.5000  -30.1926    1.2400 N   0  0  0  0  0  0  0  0  0  0  0  0
   35.6384  -30.9564    1.5948 C   0  0  0  0  0  0  0  0  0  0  0  0
   35.6699  -32.2240    1.4023 N   0  0  0  0  0  0  0  0  0  0  0  0
   36.7668  -30.2836    2.1792 N   0  0  0  0  0  0  0  0  0  0  0  0
   36.5599  -29.1748    3.0832 C   0  0  0  0  0  0  0  0  0  0  0  0
   37.7951  -28.5815    3.6388 C   0  0  0  0  0  0  0  0  0  0  0  0
   37.6659  -27.4435    4.5952 C   0  0  0  0  0  0  0  0  0  0  0  0
   37.7361  -26.0724    4.0427 C   0  0  2  0  0  0  0  0  0  0  0  0
   39.1596  -25.7368    3.8336 N   0  0  0  0  0  0  0  0  0  0  0  0
   37.1619  -24.9813    4.8354 C   0  0  0  0  0  0  0  0  0  0  0  0
   37.8031  -24.4925    5.8111 O   0  0  0  0  0  0  0  0  0  0  0  0
   36.4320  -32.8648    1.6427 C   0  0  0  0  0  0  0  0  0  0  0  0
   34.0629  -22.7604    4.8888 C   0  0  1  0  0  0  0  0  0  0  0  0
   35.4141  -23.2635    5.4153 N   0  0  0  0  0  0  0  0  0  0  0  0
   35.8773  -24.3837    4.6039 C   0  0  0  0  0  0  0  0  0  0  0  0
   35.1364  -23.7843    6.7768 O   0  0  0  0  0  0  0  0  0  0  0  0
   34.7689  -24.9739    6.9262 N   0  0  0  0  0  0  0  0  0  0  0  0
   35.2648  -23.0039    7.9348 C   0  0  1  0  0  0  0  0  0  0  0  0
   35.0455  -23.5177    9.3026 C   0  0  0  0  0  0  0  0  0  0  0  0
   36.1215  -22.9592   10.1456 C   0  0  0  0  0  0  0  0  0  0  0  0
   36.0223  -23.2833   11.5818 C   0  0  0  0  0  0  0  0  0  0  0  0
   37.1242  -22.6701   12.3467 O   0  0  0  0  0  0  0  0  0  0  0  0
   37.1541  -22.8573   13.5923 C   0  0  0  0  0  0  0  0  0  0  0  0
   33.6522  -23.3164    9.6174 O   0  0  0  0  0  0  0  0  0  0  0  0
   33.0908  -23.8912   10.6171 O   0  0  0  0  0  0  0  0  0  0  0  0
   38.1333  -21.8982   11.7381 O   0  0  0  0  0  0  0  0  0  0  0  0
  2  1  1  0
  3  2  2  0
  4  2  1  0
  5  4  1  0
  6  5  1  0
  7  6  1  0
  8 10  1  0
  8  7  1  0
  8  9  1  1
 10 14  1  0
 11 10  2  0
 13 12  1  6
 14 13  1  0
 15 17  1  0
 15 13  1  0
 16 15  2  0
 18 17  1  0
 18 19  1  1
 19 20  1  0
 20 21  1  0
 21 25  1  0
 22 21  2  0
 23 18  1  0
 24 23  2  0
 26 23  1  0
M  END
$$$$
