RAE.pdb
     RDKit          3D

 26 25  0  0  1  0  0  0  0  0999 V2000
   27.8430  -32.4134  -14.4818 N   0  0  0  0  0  0  0  0  0  0  0  0
   27.9191  -32.8083  -15.8394 C   0  0  0  0  0  0  0  0  0  0  0  0
   27.2638  -33.8231  -16.2702 N   0  0  0  0  0  0  0  0  0  0  0  0
   28.7494  -32.0484  -16.7343 N   0  0  0  0  0  0  0  0  0  0  0  0
   29.1901  -30.7228  -16.3629 C   0  0  0  0  0  0  0  0  0  0  0  0
   28.1175  -29.7093  -16.2717 C   0  0  0  0  0  0  0  0  0  0  0  0
   28.5047  -28.2876  -16.0359 C   0  0  0  0  0  0  0  0  0  0  0  0
   29.0888  -27.5390  -17.1711 C   0  0  2  0  0  0  0  0  0  0  0  0
   30.2339  -26.7570  -16.6613 N   0  0  0  0  0  0  0  0  0  0  0  0
   28.2264  -26.5964  -17.8897 C   0  0  0  0  0  0  0  0  0  0  0  0
   28.2714  -25.3591  -17.6269 O   0  0  0  0  0  0  0  0  0  0  0  0
   27.2885  -34.2161  -17.2158 C   0  0  0  0  0  0  0  0  0  0  0  0
   26.2554  -26.3237  -21.0444 C   0  0  1  0  0  0  0  0  0  0  0  0
   26.4707  -25.9437  -19.5729 N   0  0  0  0  0  0  0  0  0  0  0  0
   27.2858  -26.9572  -18.9125 C   0  0  0  0  0  0  0  0  0  0  0  0
   25.1222  -25.9842  -18.9550 O   0  0  0  0  0  0  0  0  0  0  0  0
   24.7168  -27.0395  -18.4120 N   0  0  0  0  0  0  0  0  0  0  0  0
   24.2535  -24.8834  -18.9424 C   0  0  1  0  0  0  0  0  0  0  0  0
   22.9421  -24.8771  -18.2620 C   0  0  0  0  0  0  0  0  0  0  0  0
   22.5278  -23.4644  -18.1477 C   0  0  0  0  0  0  0  0  0  0  0  0
   21.1789  -23.2518  -17.5883 C   0  0  0  0  0  0  0  0  0  0  0  0
   20.7723  -21.8380  -17.6926 O   0  0  0  0  0  0  0  0  0  0  0  0
   21.6182  -21.0107  -18.1255 C   0  0  0  0  0  0  0  0  0  0  0  0
   22.1148  -25.8604  -18.9174 O   0  0  0  0  0  0  0  0  0  0  0  0
   22.1354  -26.0282  -20.1888 O   0  0  0  0  0  0  0  0  0  0  0  0
   19.4856  -21.3896  -17.3351 O   0  0  0  0  0  0  0  0  0  0  0  0
  2  1  1  0
  3  2  2  0
  4  2  1  0
  5  4  1  0
  6  5  1  0
  7  6  1  0
  8 10  1  0
  8  7  1  0
  8  9  1  1
 10 14  1  0
 11 10  2  0
 13 12  1  6
 14 13  1  0
 15 17  1  0
 15 13  1  0
 16 15  2  0
 18 17  1  0
 18 19  1  6
 19 20  1  0
 20 21  1  0
 21 25  1  0
 22 21  2  0
 23 18  1  0
 24 23  2  0
 26 23  1  0
M  END
$$$$
