RAE.pdb
     RDKit          3D

 26 25  0  0  1  0  0  0  0  0999 V2000
   30.2525  -18.5004  -18.2467 N   0  0  0  0  0  0  0  0  0  0  0  0
   29.0282  -17.8790  -18.5930 C   0  0  0  0  0  0  0  0  0  0  0  0
   28.9573  -16.6105  -18.7681 N   0  0  0  0  0  0  0  0  0  0  0  0
   27.8566  -18.6986  -18.7457 N   0  0  0  0  0  0  0  0  0  0  0  0
   27.2468  -19.3125  -17.5879 C   0  0  0  0  0  0  0  0  0  0  0  0
   27.9717  -20.4811  -17.0445 C   0  0  0  0  0  0  0  0  0  0  0  0
   27.3279  -21.2688  -15.9529 C   0  0  0  0  0  0  0  0  0  0  0  0
   26.3544  -20.5692  -15.0852 C   0  0  2  0  0  0  0  0  0  0  0  0
   27.0035  -19.3497  -14.5616 N   0  0  0  0  0  0  0  0  0  0  0  0
   25.8244  -21.2911  -13.9249 C   0  0  0  0  0  0  0  0  0  0  0  0
   25.2578  -22.4133  -14.0729 O   0  0  0  0  0  0  0  0  0  0  0  0
   28.1267  -16.0699  -19.0273 C   0  0  0  0  0  0  0  0  0  0  0  0
   25.3271  -20.8053  -10.1814 C   0  0  1  0  0  0  0  0  0  0  0  0
   24.8921  -21.2461  -11.5859 N   0  0  0  0  0  0  0  0  0  0  0  0
   25.8853  -20.8259  -12.5681 C   0  0  0  0  0  0  0  0  0  0  0  0
   23.6435  -20.4944  -11.8649 O   0  0  0  0  0  0  0  0  0  0  0  0
   23.7016  -19.2763  -12.1578 N   0  0  0  0  0  0  0  0  0  0  0  0
   22.3710  -21.0817  -11.8194 C   0  0  1  0  0  0  0  0  0  0  0  0
   21.1411  -20.4203  -12.3017 C   0  0  0  0  0  0  0  0  0  0  0  0
   21.2961  -20.2425  -13.7594 C   0  0  0  0  0  0  0  0  0  0  0  0
   20.1216  -19.6736  -14.4481 C   0  0  0  0  0  0  0  0  0  0  0  0
   20.3587  -19.5504  -15.8986 O   0  0  0  0  0  0  0  0  0  0  0  0
   20.1885  -20.5736  -16.6137 C   0  0  0  0  0  0  0  0  0  0  0  0
   20.0215  -21.1349  -11.7387 O   0  0  0  0  0  0  0  0  0  0  0  0
   20.0634  -22.3970  -11.5145 O   0  0  0  0  0  0  0  0  0  0  0  0
   20.7576  -18.3420  -16.5028 O   0  0  0  0  0  0  0  0  0  0  0  0
  2  1  1  0
  3  2  2  0
  4  2  1  0
  5  4  1  0
  6  5  1  0
  7  6  1  0
  8 10  1  0
  8  7  1  0
  8  9  1  1
 10 14  1  0
 11 10  2  0
 13 12  1  1
 14 13  1  0
 15 17  1  0
 15 13  1  0
 16 15  2  0
 18 17  1  0
 18 19  1  1
 19 20  1  0
 20 21  1  0
 21 25  1  0
 22 21  2  0
 23 18  1  0
 24 23  2  0
 26 23  1  0
M  END
$$$$
