RAE.pdb
     RDKit          3D

 26 25  0  0  1  0  0  0  0  0999 V2000
   30.4632  -24.0085  -15.5098 N   0  0  0  0  0  0  0  0  0  0  0  0
   30.3855  -24.4376  -16.8569 C   0  0  0  0  0  0  0  0  0  0  0  0
   31.0978  -25.4163  -17.2809 N   0  0  0  0  0  0  0  0  0  0  0  0
   29.4893  -23.7534  -17.7493 N   0  0  0  0  0  0  0  0  0  0  0  0
   28.6715  -22.6663  -17.2607 C   0  0  0  0  0  0  0  0  0  0  0  0
   27.6837  -23.0420  -16.2266 C   0  0  0  0  0  0  0  0  0  0  0  0
   26.7408  -21.9954  -15.7345 C   0  0  0  0  0  0  0  0  0  0  0  0
   26.2736  -20.9820  -16.7066 C   0  0  2  0  0  0  0  0  0  0  0  0
   27.4599  -20.4141  -17.3796 N   0  0  0  0  0  0  0  0  0  0  0  0
   25.4988  -19.8467  -16.1975 C   0  0  0  0  0  0  0  0  0  0  0  0
   24.6270  -20.0190  -15.2962 O   0  0  0  0  0  0  0  0  0  0  0  0
   31.1784  -25.7463  -18.2472 C   0  0  0  0  0  0  0  0  0  0  0  0
   25.3296  -16.0600  -16.5411 C   0  0  2  0  0  0  0  0  0  0  0  0
   24.8001  -17.4295  -16.0937 N   0  0  0  0  0  0  0  0  0  0  0  0
   25.6366  -18.4897  -16.6452 C   0  0  0  0  0  0  0  0  0  0  0  0
   23.4574  -17.5534  -16.7132 O   0  0  0  0  0  0  0  0  0  0  0  0
   23.3501  -17.9762  -17.8890 N   0  0  0  0  0  0  0  0  0  0  0  0
   22.2722  -17.2173  -16.0433 C   0  0  1  0  0  0  0  0  0  0  0  0
   20.9242  -17.3672  -16.6292 C   0  0  0  0  0  0  0  0  0  0  0  0
   20.0355  -17.8254  -15.5426 C   0  0  0  0  0  0  0  0  0  0  0  0
   18.6205  -17.9988  -15.9236 C   0  0  0  0  0  0  0  0  0  0  0  0
   17.8042  -18.4271  -14.7723 O   0  0  0  0  0  0  0  0  0  0  0  0
   17.2397  -17.5353  -14.0843 C   0  0  0  0  0  0  0  0  0  0  0  0
   20.6482  -16.1674  -17.3810 O   0  0  0  0  0  0  0  0  0  0  0  0
   21.1920  -15.0426  -17.0908 O   0  0  0  0  0  0  0  0  0  0  0  0
   17.6325  -19.7816  -14.4253 O   0  0  0  0  0  0  0  0  0  0  0  0
  2  1  1  0
  3  2  2  0
  4  2  1  0
  5  4  1  0
  6  5  1  0
  7  6  1  0
  8 10  1  0
  8  7  1  0
  8  9  1  1
 10 14  1  0
 11 10  2  0
 13 12  1  1
 14 13  1  0
 15 17  1  0
 15 13  1  0
 16 15  2  0
 18 17  1  0
 18 19  1  6
 19 20  1  0
 20 21  1  0
 21 25  1  0
 22 21  2  0
 23 18  1  0
 24 23  2  0
 26 23  1  0
M  END
$$$$
