IPG.pdb
     RDKit          3D

 20 20  0  0  1  0  0  0  0  0999 V2000
   12.0330  -10.2244   -9.5936 C   0  0  0  0  0  0  0  0  0  0  0  0
   13.2362  -10.9182  -10.2083 C   0  0  0  0  0  0  0  0  0  0  0  0
   14.1173   -9.8493  -10.7703 C   0  0  2  0  0  0  0  0  0  0  0  0
   13.3601   -8.9843  -11.7562 C   0  0  0  0  0  0  0  0  0  0  0  0
   15.3667  -10.4314  -11.4052 C   0  0  2  0  0  0  0  0  0  0  0  0
   16.0546  -11.1597  -10.3613 N   0  0  0  0  0  0  0  0  0  0  0  0
   16.2517   -9.4327  -11.9992 C   0  0  0  0  0  0  0  0  0  0  0  0
   17.0396   -8.7424  -11.2594 O   0  0  0  0  0  0  0  0  0  0  0  0
   16.2480   -9.2148  -13.4097 N   0  0  0  0  0  0  0  0  0  0  0  0
   15.4328   -9.8398  -14.4180 C   0  0  0  0  0  0  0  0  0  0  0  0
   15.9525   -9.3680  -15.7758 C   0  0  0  0  0  0  0  0  0  0  0  0
   17.3705   -8.9768  -15.4040 C   0  0  0  0  0  0  0  0  0  0  0  0
   17.1324   -8.2670  -14.1139 C   0  0  1  0  0  0  0  0  0  0  0  0
   16.3764   -6.9983  -14.2816 C   0  0  0  0  0  0  0  0  0  0  0  0
   15.1155   -6.9549  -14.2182 O   0  0  0  0  0  0  0  0  0  0  0  0
   17.0989   -5.7873  -14.5224 N   0  0  0  0  0  0  0  0  0  0  0  0
   16.4790   -4.5078  -14.4800 C   0  0  0  0  0  0  0  0  0  0  0  0
   17.3888   -3.3940  -14.8299 C   0  0  0  0  0  0  0  0  0  0  0  0
   18.7092   -3.7252  -15.1005 O   0  0  0  0  0  0  0  0  0  0  0  0
   17.0526   -2.1913  -14.8971 O   0  0  0  0  0  0  0  0  0  0  0  0
  2  1  1  0
  3  2  1  0
  3  5  1  0
  3  4  1  6
  5  7  1  0
  5  6  1  1
  7  9  1  0
  8  7  2  0
  9 13  1  0
  9 10  1  0
 11 10  1  0
 12 11  1  0
 12 13  1  0
 13 14  1  6
 14 16  1  0
 14 15  2  0
 16 17  1  0
 17 18  1  0
 18 19  1  0
 20 18  2  0
M  END
$$$$
