IPG.pdb
     RDKit          3D

 20 20  0  0  1  0  0  0  0  0999 V2000
   24.9181  -16.5057  -17.7522 C   0  0  0  0  0  0  0  0  0  0  0  0
   25.8564  -17.6961  -17.6551 C   0  0  0  0  0  0  0  0  0  0  0  0
   25.5742  -18.3700  -16.3508 C   0  0  2  0  0  0  0  0  0  0  0  0
   25.8249  -17.4311  -15.1893 C   0  0  0  0  0  0  0  0  0  0  0  0
   26.3751  -19.6499  -16.1983 C   0  0  2  0  0  0  0  0  0  0  0  0
   26.1825  -20.4008  -17.4199 N   0  0  0  0  0  0  0  0  0  0  0  0
   25.9951  -20.4538  -15.0396 C   0  0  0  0  0  0  0  0  0  0  0  0
   24.9320  -21.1705  -15.0678 O   0  0  0  0  0  0  0  0  0  0  0  0
   26.8035  -20.4494  -13.8633 N   0  0  0  0  0  0  0  0  0  0  0  0
   27.9911  -19.6845  -13.5866 C   0  0  0  0  0  0  0  0  0  0  0  0
   28.5517  -20.1860  -12.2559 C   0  0  0  0  0  0  0  0  0  0  0  0
   27.9386  -21.5730  -12.2071 C   0  0  0  0  0  0  0  0  0  0  0  0
   26.5514  -21.2787  -12.6695 C   0  0  1  0  0  0  0  0  0  0  0  0
   25.7841  -20.4456  -11.7068 C   0  0  0  0  0  0  0  0  0  0  0  0
   25.7463  -19.1858  -11.7908 O   0  0  0  0  0  0  0  0  0  0  0  0
   25.0654  -21.0904  -10.6513 N   0  0  0  0  0  0  0  0  0  0  0  0
   23.8408  -21.7793  -10.8723 C   0  0  0  0  0  0  0  0  0  0  0  0
   22.7262  -20.8953  -11.2811 C   0  0  0  0  0  0  0  0  0  0  0  0
   21.6751  -20.7576  -10.3854 O   0  0  0  0  0  0  0  0  0  0  0  0
   22.6687  -20.2729  -12.3643 O   0  0  0  0  0  0  0  0  0  0  0  0
  2  1  1  0
  3  2  1  0
  3  5  1  0
  3  4  1  1
  5  7  1  0
  5  6  1  6
  7  9  1  0
  8  7  2  0
  9 13  1  0
  9 10  1  0
 11 10  1  0
 12 11  1  0
 12 13  1  0
 13 14  1  1
 14 16  1  0
 14 15  2  0
 16 17  1  0
 17 18  1  0
 18 19  1  0
 20 18  2  0
M  END
$$$$
