IPG.pdb
     RDKit          3D

 20 20  0  0  1  0  0  0  0  0999 V2000
   26.0635  -15.2486  -16.8165 C   0  0  0  0  0  0  0  0  0  0  0  0
   26.7921  -16.5766  -16.9286 C   0  0  0  0  0  0  0  0  0  0  0  0
   26.2996  -17.4410  -15.8127 C   0  0  2  0  0  0  0  0  0  0  0  0
   26.5973  -16.8126  -14.4673 C   0  0  0  0  0  0  0  0  0  0  0  0
   26.8737  -18.8432  -15.8971 C   0  0  2  0  0  0  0  0  0  0  0  0
   26.6738  -19.2857  -17.2600 N   0  0  0  0  0  0  0  0  0  0  0  0
   26.2723  -19.7886  -14.9600 C   0  0  0  0  0  0  0  0  0  0  0  0
   25.1424  -20.3344  -15.2248 O   0  0  0  0  0  0  0  0  0  0  0  0
   26.9364  -20.1141  -13.7393 N   0  0  0  0  0  0  0  0  0  0  0  0
   28.1242  -19.5300  -13.1738 C   0  0  0  0  0  0  0  0  0  0  0  0
   28.4962  -20.3613  -11.9463 C   0  0  0  0  0  0  0  0  0  0  0  0
   27.8051  -21.6693  -12.2832 C   0  0  0  0  0  0  0  0  0  0  0  0
   26.5002  -21.1670  -12.8025 C   0  0  1  0  0  0  0  0  0  0  0  0
   25.6733  -20.5120  -11.7554 C   0  0  0  0  0  0  0  0  0  0  0  0
   25.7707  -19.2794  -11.4968 O   0  0  0  0  0  0  0  0  0  0  0  0
   24.7370  -21.3019  -11.0166 N   0  0  0  0  0  0  0  0  0  0  0  0
   23.6628  -21.9942  -11.6411 C   0  0  0  0  0  0  0  0  0  0  0  0
   22.5557  -21.1108  -12.0712 C   0  0  0  0  0  0  0  0  0  0  0  0
   22.4527  -20.8524  -13.4309 O   0  0  0  0  0  0  0  0  0  0  0  0
   21.7187  -20.5888  -11.3025 O   0  0  0  0  0  0  0  0  0  0  0  0
  2  1  1  0
  3  2  1  0
  3  5  1  0
  3  4  1  1
  5  7  1  0
  5  6  1  6
  7  9  1  0
  8  7  2  0
  9 13  1  0
  9 10  1  0
 11 10  1  0
 12 11  1  0
 12 13  1  0
 13 14  1  1
 14 16  1  0
 14 15  2  0
 16 17  1  0
 17 18  1  0
 18 19  1  0
 20 18  2  0
M  END
$$$$
