IPG.pdb
     RDKit          3D

 20 20  0  0  1  0  0  0  0  0999 V2000
   16.3131  -11.3063  -16.8638 C   0  0  0  0  0  0  0  0  0  0  0  0
   17.7513  -11.5462  -17.2896 C   0  0  0  0  0  0  0  0  0  0  0  0
   18.6046  -10.6123  -16.4930 C   0  0  2  0  0  0  0  0  0  0  0  0
   18.2203   -9.1707  -16.7529 C   0  0  0  0  0  0  0  0  0  0  0  0
   20.0811  -10.8384  -16.7611 C   0  0  2  0  0  0  0  0  0  0  0  0
   20.3144  -12.2566  -16.5952 N   0  0  0  0  0  0  0  0  0  0  0  0
   20.9672  -10.0701  -15.8905 C   0  0  0  0  0  0  0  0  0  0  0  0
   21.0431  -10.3419  -14.6395 O   0  0  0  0  0  0  0  0  0  0  0  0
   21.7577   -9.0081  -16.4239 N   0  0  0  0  0  0  0  0  0  0  0  0
   21.7906   -8.4937  -17.7678 C   0  0  0  0  0  0  0  0  0  0  0  0
   22.9300   -7.4770  -17.8348 C   0  0  0  0  0  0  0  0  0  0  0  0
   23.7848   -7.9485  -16.6734 C   0  0  0  0  0  0  0  0  0  0  0  0
   22.7348   -8.2196  -15.6492 C   0  0  1  0  0  0  0  0  0  0  0  0
   22.0425   -6.9874  -15.1889 C   0  0  0  0  0  0  0  0  0  0  0  0
   21.0789   -6.4800  -15.8289 O   0  0  0  0  0  0  0  0  0  0  0  0
   22.4810   -6.3553  -13.9828 N   0  0  0  0  0  0  0  0  0  0  0  0
   21.8124   -5.2310  -13.4242 C   0  0  0  0  0  0  0  0  0  0  0  0
   22.0585   -3.9683  -14.1562 C   0  0  0  0  0  0  0  0  0  0  0  0
   21.0876   -3.5721  -15.0655 O   0  0  0  0  0  0  0  0  0  0  0  0
   23.0682   -3.2446  -14.0126 O   0  0  0  0  0  0  0  0  0  0  0  0
  2  1  1  0
  3  2  1  0
  3  5  1  0
  3  4  1  6
  5  7  1  0
  5  6  1  1
  7  9  1  0
  8  7  2  0
  9 13  1  0
  9 10  1  0
 11 10  1  0
 12 11  1  0
 12 13  1  0
 13 14  1  6
 14 16  1  0
 14 15  2  0
 16 17  1  0
 17 18  1  0
 18 19  1  0
 20 18  2  0
M  END
$$$$
