IPG.pdb
     RDKit          3D

 20 20  0  0  1  0  0  0  0  0999 V2000
   22.9613  -23.1461  -13.6273 C   0  0  0  0  0  0  0  0  0  0  0  0
   23.4161  -21.9690  -12.7820 C   0  0  0  0  0  0  0  0  0  0  0  0
   24.8949  -22.1014  -12.6077 C   0  0  2  0  0  0  0  0  0  0  0  0
   25.2360  -23.3137  -11.7665 C   0  0  0  0  0  0  0  0  0  0  0  0
   25.5031  -20.8420  -12.0187 C   0  0  2  0  0  0  0  0  0  0  0  0
   24.7169  -20.5169  -10.8485 N   0  0  0  0  0  0  0  0  0  0  0  0
   25.5365  -19.7106  -12.9418 C   0  0  0  0  0  0  0  0  0  0  0  0
   24.6610  -18.7774  -12.8561 O   0  0  0  0  0  0  0  0  0  0  0  0
   26.5442  -19.6326  -13.9495 N   0  0  0  0  0  0  0  0  0  0  0  0
   27.6893  -20.4814  -14.1493 C   0  0  0  0  0  0  0  0  0  0  0  0
   28.5281  -19.8543  -15.2626 C   0  0  0  0  0  0  0  0  0  0  0  0
   28.0608  -18.4134  -15.1773 C   0  0  0  0  0  0  0  0  0  0  0  0
   26.5915  -18.6085  -15.0105 C   0  0  1  0  0  0  0  0  0  0  0  0
   25.9436  -19.1901  -16.2152 C   0  0  0  0  0  0  0  0  0  0  0  0
   25.9317  -20.4337  -16.4365 O   0  0  0  0  0  0  0  0  0  0  0  0
   25.3133  -18.3143  -17.1544 N   0  0  0  0  0  0  0  0  0  0  0  0
   24.4440  -17.2627  -16.7523 C   0  0  0  0  0  0  0  0  0  0  0  0
   23.0078  -17.5897  -16.8978 C   0  0  0  0  0  0  0  0  0  0  0  0
   22.2709  -17.7089  -15.7277 O   0  0  0  0  0  0  0  0  0  0  0  0
   22.4218  -17.7633  -17.9888 O   0  0  0  0  0  0  0  0  0  0  0  0
  2  1  1  0
  3  2  1  0
  3  5  1  0
  3  4  1  1
  5  7  1  0
  5  6  1  1
  7  9  1  0
  8  7  2  0
  9 13  1  0
  9 10  1  0
 11 10  1  0
 12 11  1  0
 12 13  1  0
 13 14  1  6
 14 16  1  0
 14 15  2  0
 16 17  1  0
 17 18  1  0
 18 19  1  0
 20 18  2  0
M  END
$$$$
