IPG.pdb
     RDKit          3D

 20 20  0  0  1  0  0  0  0  0999 V2000
   24.8224  -21.0961   -8.9076 C   0  0  0  0  0  0  0  0  0  0  0  0
   24.4104  -20.1929  -10.0571 C   0  0  0  0  0  0  0  0  0  0  0  0
   24.9102  -20.8293  -11.3140 C   0  0  2  0  0  0  0  0  0  0  0  0
   26.4065  -21.0546  -11.2506 C   0  0  0  0  0  0  0  0  0  0  0  0
   24.5339  -20.0172  -12.5395 C   0  0  2  0  0  0  0  0  0  0  0  0
   23.0937  -19.8810  -12.5135 N   0  0  0  0  0  0  0  0  0  0  0  0
   24.9679  -20.6107  -13.8016 C   0  0  0  0  0  0  0  0  0  0  0  0
   24.1874  -21.3925  -14.4529 O   0  0  0  0  0  0  0  0  0  0  0  0
   26.2659  -20.3264  -14.3226 N   0  0  0  0  0  0  0  0  0  0  0  0
   27.3580  -19.6295  -13.6955 C   0  0  0  0  0  0  0  0  0  0  0  0
   28.4495  -19.4564  -14.7514 C   0  0  0  0  0  0  0  0  0  0  0  0
   27.6228  -19.5678  -16.0188 C   0  0  0  0  0  0  0  0  0  0  0  0
   26.7320  -20.7117  -15.6683 C   0  0  1  0  0  0  0  0  0  0  0  0
   27.4661  -21.9968  -15.5305 C   0  0  0  0  0  0  0  0  0  0  0  0
   28.0480  -22.3259  -14.4587 O   0  0  0  0  0  0  0  0  0  0  0  0
   27.5156  -22.8900  -16.6469 N   0  0  0  0  0  0  0  0  0  0  0  0
   26.4188  -23.7203  -17.0086 C   0  0  0  0  0  0  0  0  0  0  0  0
   26.1077  -24.7649  -16.0070 C   0  0  0  0  0  0  0  0  0  0  0  0
   25.0033  -24.5455  -15.1956 O   0  0  0  0  0  0  0  0  0  0  0  0
   26.7639  -25.8170  -15.8450 O   0  0  0  0  0  0  0  0  0  0  0  0
  2  1  1  0
  3  2  1  0
  3  5  1  0
  3  4  1  1
  5  7  1  0
  5  6  1  6
  7  9  1  0
  8  7  2  0
  9 13  1  0
  9 10  1  0
 11 10  1  0
 12 11  1  0
 12 13  1  0
 13 14  1  1
 14 16  1  0
 14 15  2  0
 16 17  1  0
 17 18  1  0
 18 19  1  0
 20 18  2  0
M  END
$$$$
