IPG.pdb
     RDKit          3D

 20 20  0  0  1  0  0  0  0  0999 V2000
   22.8299  -15.8229  -16.7256 C   0  0  0  0  0  0  0  0  0  0  0  0
   23.3748  -17.2054  -17.0398 C   0  0  0  0  0  0  0  0  0  0  0  0
   23.8996  -17.7700  -15.7590 C   0  0  2  0  0  0  0  0  0  0  0  0
   24.9748  -16.8788  -15.1731 C   0  0  0  0  0  0  0  0  0  0  0  0
   24.4079  -19.1883  -15.9403 C   0  0  2  0  0  0  0  0  0  0  0  0
   23.3623  -19.9125  -16.6299 N   0  0  0  0  0  0  0  0  0  0  0  0
   24.7545  -19.8594  -14.6901 C   0  0  0  0  0  0  0  0  0  0  0  0
   23.8337  -20.2819  -13.9037 O   0  0  0  0  0  0  0  0  0  0  0  0
   26.1224  -20.0513  -14.3308 N   0  0  0  0  0  0  0  0  0  0  0  0
   27.3022  -19.4908  -14.9355 C   0  0  0  0  0  0  0  0  0  0  0  0
   28.5088  -20.1552  -14.2728 C   0  0  0  0  0  0  0  0  0  0  0  0
   27.8715  -21.4360  -13.7676 C   0  0  0  0  0  0  0  0  0  0  0  0
   26.5861  -20.9097  -13.2241 C   0  0  1  0  0  0  0  0  0  0  0  0
   26.7736  -20.0362  -12.0361 C   0  0  0  0  0  0  0  0  0  0  0  0
   27.0036  -18.7988  -12.1425 O   0  0  0  0  0  0  0  0  0  0  0  0
   26.6911  -20.6147  -10.7304 N   0  0  0  0  0  0  0  0  0  0  0  0
   25.8589  -20.0778   -9.7094 C   0  0  0  0  0  0  0  0  0  0  0  0
   24.7309  -20.9605   -9.3360 C   0  0  0  0  0  0  0  0  0  0  0  0
   24.8621  -21.6792   -8.1559 O   0  0  0  0  0  0  0  0  0  0  0  0
   23.6823  -21.1004  -10.0028 O   0  0  0  0  0  0  0  0  0  0  0  0
  2  1  1  0
  3  2  1  0
  3  5  1  0
  3  4  1  6
  5  7  1  0
  5  6  1  1
  7  9  1  0
  8  7  2  0
  9 13  1  0
  9 10  1  0
 11 10  1  0
 12 11  1  0
 12 13  1  0
 13 14  1  1
 14 16  1  0
 14 15  2  0
 16 17  1  0
 17 18  1  0
 18 19  1  0
 20 18  2  0
M  END
$$$$
