IPG.pdb
     RDKit          3D

 20 20  0  0  1  0  0  0  0  0999 V2000
   19.9040  -22.2264  -15.9192 C   0  0  0  0  0  0  0  0  0  0  0  0
   20.1851  -21.3359  -14.7213 C   0  0  0  0  0  0  0  0  0  0  0  0
   21.6686  -21.1732  -14.6360 C   0  0  2  0  0  0  0  0  0  0  0  0
   22.3559  -22.5171  -14.5129 C   0  0  0  0  0  0  0  0  0  0  0  0
   22.0652  -20.2531  -13.4962 C   0  0  2  0  0  0  0  0  0  0  0  0
   21.3153  -19.0294  -13.6785 N   0  0  0  0  0  0  0  0  0  0  0  0
   23.4967  -19.9698  -13.4321 C   0  0  0  0  0  0  0  0  0  0  0  0
   24.0672  -19.2975  -14.3634 O   0  0  0  0  0  0  0  0  0  0  0  0
   24.2754  -20.4392  -12.3319 N   0  0  0  0  0  0  0  0  0  0  0  0
   23.8455  -21.1649  -11.1656 C   0  0  0  0  0  0  0  0  0  0  0  0
   25.0483  -21.2670  -10.2280 C   0  0  0  0  0  0  0  0  0  0  0  0
   25.8732  -20.0899  -10.7136 C   0  0  0  0  0  0  0  0  0  0  0  0
   25.7307  -20.2427  -12.1905 C   0  0  1  0  0  0  0  0  0  0  0  0
   26.3945  -21.4656  -12.7132 C   0  0  0  0  0  0  0  0  0  0  0  0
   25.8513  -22.6041  -12.6481 O   0  0  0  0  0  0  0  0  0  0  0  0
   27.6900  -21.3503  -13.3091 N   0  0  0  0  0  0  0  0  0  0  0  0
   27.9099  -20.6481  -14.5264 C   0  0  0  0  0  0  0  0  0  0  0  0
   27.6644  -21.4642  -15.7366 C   0  0  0  0  0  0  0  0  0  0  0  0
   26.3538  -21.8543  -15.9738 O   0  0  0  0  0  0  0  0  0  0  0  0
   28.5462  -21.8210  -16.5484 O   0  0  0  0  0  0  0  0  0  0  0  0
  2  1  1  0
  3  2  1  0
  3  5  1  0
  3  4  1  1
  5  7  1  0
  5  6  1  6
  7  9  1  0
  8  7  2  0
  9 13  1  0
  9 10  1  0
 11 10  1  0
 12 11  1  0
 12 13  1  0
 13 14  1  1
 14 16  1  0
 14 15  2  0
 16 17  1  0
 17 18  1  0
 18 19  1  0
 20 18  2  0
M  END
$$$$
