IPG.pdb
     RDKit          3D

 20 20  0  0  1  0  0  0  0  0999 V2000
   14.8338  -11.5635  -17.0418 C   0  0  0  0  0  0  0  0  0  0  0  0
   16.2399  -12.0415  -17.3602 C   0  0  0  0  0  0  0  0  0  0  0  0
   17.1845  -11.1216  -16.6556 C   0  0  2  0  0  0  0  0  0  0  0  0
   17.1644   -9.7415  -17.2788 C   0  0  0  0  0  0  0  0  0  0  0  0
   18.5936  -11.6840  -16.6248 C   0  0  2  0  0  0  0  0  0  0  0  0
   18.4903  -13.0160  -16.0694 N   0  0  0  0  0  0  0  0  0  0  0  0
   19.5371  -10.8804  -15.8519 C   0  0  0  0  0  0  0  0  0  0  0  0
   19.4111  -10.7768  -14.5799 O   0  0  0  0  0  0  0  0  0  0  0  0
   20.6092  -10.2015  -16.5053 N   0  0  0  0  0  0  0  0  0  0  0  0
   20.8938  -10.1070  -17.9130 C   0  0  0  0  0  0  0  0  0  0  0  0
   22.2473   -9.4111  -18.0548 C   0  0  0  0  0  0  0  0  0  0  0  0
   22.8474   -9.7019  -16.6919 C   0  0  0  0  0  0  0  0  0  0  0  0
   21.6706   -9.4474  -15.8115 C   0  0  1  0  0  0  0  0  0  0  0  0
   21.2584   -8.0194  -15.7936 C   0  0  0  0  0  0  0  0  0  0  0  0
   20.3490   -7.5737  -16.5485 O   0  0  0  0  0  0  0  0  0  0  0  0
   21.9120   -7.1204  -14.8928 N   0  0  0  0  0  0  0  0  0  0  0  0
   21.2305   -6.0427  -14.2626 C   0  0  0  0  0  0  0  0  0  0  0  0
   22.0772   -5.2698  -13.3262 C   0  0  0  0  0  0  0  0  0  0  0  0
   22.4583   -5.9079  -12.1541 O   0  0  0  0  0  0  0  0  0  0  0  0
   22.4668   -4.0970  -13.5175 O   0  0  0  0  0  0  0  0  0  0  0  0
  2  1  1  0
  3  2  1  0
  3  5  1  0
  3  4  1  6
  5  7  1  0
  5  6  1  1
  7  9  1  0
  8  7  2  0
  9 13  1  0
  9 10  1  0
 11 10  1  0
 12 11  1  0
 12 13  1  0
 13 14  1  6
 14 16  1  0
 14 15  2  0
 16 17  1  0
 17 18  1  0
 18 19  1  0
 20 18  2  0
M  END
$$$$
