IPG.pdb
     RDKit          3D

 20 20  0  0  1  0  0  0  0  0999 V2000
   23.0529  -17.2184  -18.3378 C   0  0  0  0  0  0  0  0  0  0  0  0
   22.2288  -18.4638  -18.0605 C   0  0  0  0  0  0  0  0  0  0  0  0
   22.7288  -19.0418  -16.7758 C   0  0  2  0  0  0  0  0  0  0  0  0
   22.8425  -17.9739  -15.7080 C   0  0  0  0  0  0  0  0  0  0  0  0
   24.0496  -19.7648  -16.9649 C   0  0  2  0  0  0  0  0  0  0  0  0
   23.8434  -20.7210  -18.0308 N   0  0  0  0  0  0  0  0  0  0  0  0
   24.5361  -20.4371  -15.7629 C   0  0  0  0  0  0  0  0  0  0  0  0
   23.8420  -21.3644  -15.2124 O   0  0  0  0  0  0  0  0  0  0  0  0
   25.7894  -20.0681  -15.1884 N   0  0  0  0  0  0  0  0  0  0  0  0
   26.7001  -19.0312  -15.5974 C   0  0  0  0  0  0  0  0  0  0  0  0
   27.9625  -19.1776  -14.7482 C   0  0  0  0  0  0  0  0  0  0  0  0
   27.8546  -20.6372  -14.3487 C   0  0  0  0  0  0  0  0  0  0  0  0
   26.4025  -20.7273  -14.0196 C   0  0  1  0  0  0  0  0  0  0  0  0
   26.0302  -19.9339  -12.8191 C   0  0  0  0  0  0  0  0  0  0  0  0
   25.8057  -18.6923  -12.8782 O   0  0  0  0  0  0  0  0  0  0  0  0
   25.9224  -20.5969  -11.5560 N   0  0  0  0  0  0  0  0  0  0  0  0
   24.9993  -20.1858  -10.5550 C   0  0  0  0  0  0  0  0  0  0  0  0
   25.0608  -20.9981   -9.3192 C   0  0  0  0  0  0  0  0  0  0  0  0
   24.4939  -20.4471   -8.1785 O   0  0  0  0  0  0  0  0  0  0  0  0
   25.5820  -22.1318   -9.2349 O   0  0  0  0  0  0  0  0  0  0  0  0
  2  1  1  0
  3  2  1  0
  3  5  1  0
  3  4  1  1
  5  7  1  0
  5  6  1  6
  7  9  1  0
  8  7  2  0
  9 13  1  0
  9 10  1  0
 11 10  1  0
 12 11  1  0
 12 13  1  0
 13 14  1  1
 14 16  1  0
 14 15  2  0
 16 17  1  0
 17 18  1  0
 18 19  1  0
 20 18  2  0
M  END
$$$$
