IPG.pdb
     RDKit          3D

 20 20  0  0  1  0  0  0  0  0999 V2000
   16.0534  -12.3114  -18.5462 C   0  0  0  0  0  0  0  0  0  0  0  0
   17.5075  -12.6932  -18.3303 C   0  0  0  0  0  0  0  0  0  0  0  0
   18.1045  -11.6537  -17.4370 C   0  0  2  0  0  0  0  0  0  0  0  0
   18.0591  -10.2873  -18.0883 C   0  0  0  0  0  0  0  0  0  0  0  0
   19.5206  -12.0147  -17.0282 C   0  0  2  0  0  0  0  0  0  0  0  0
   19.4721  -13.3775  -16.5450 N   0  0  0  0  0  0  0  0  0  0  0  0
   20.0886  -11.1326  -16.0120 C   0  0  0  0  0  0  0  0  0  0  0  0
   19.5504  -11.0496  -14.8509 O   0  0  0  0  0  0  0  0  0  0  0  0
   21.2489  -10.3534  -16.3014 N   0  0  0  0  0  0  0  0  0  0  0  0
   22.0130  -10.2895  -17.5195 C   0  0  0  0  0  0  0  0  0  0  0  0
   23.2468   -9.4333  -17.2345 C   0  0  0  0  0  0  0  0  0  0  0  0
   23.3386   -9.5805  -15.7272 C   0  0  0  0  0  0  0  0  0  0  0  0
   21.9032   -9.4377  -15.3475 C   0  0  1  0  0  0  0  0  0  0  0  0
   21.3684   -8.0751  -15.6053 C   0  0  0  0  0  0  0  0  0  0  0  0
   20.6017   -7.8279  -16.5784 O   0  0  0  0  0  0  0  0  0  0  0  0
   21.7329   -7.0090  -14.7238 N   0  0  0  0  0  0  0  0  0  0  0  0
   20.9857   -5.8018  -14.6369 C   0  0  0  0  0  0  0  0  0  0  0  0
   21.5105   -4.8482  -13.6338 C   0  0  0  0  0  0  0  0  0  0  0  0
   21.6374   -5.3145  -12.3327 O   0  0  0  0  0  0  0  0  0  0  0  0
   21.8426   -3.6672  -13.8763 O   0  0  0  0  0  0  0  0  0  0  0  0
  2  1  1  0
  3  2  1  0
  3  5  1  0
  3  4  1  6
  5  7  1  0
  5  6  1  1
  7  9  1  0
  8  7  2  0
  9 13  1  0
  9 10  1  0
 11 10  1  0
 12 11  1  0
 12 13  1  0
 13 14  1  6
 14 16  1  0
 14 15  2  0
 16 17  1  0
 17 18  1  0
 18 19  1  0
 20 18  2  0
M  END
$$$$
