NMS.pdb
     RDKit          3D

 23 22  0  0  1  0  0  0  0  0999 V2000
   20.0124  -13.6146  -19.1287 N   0  0  0  0  0  0  0  0  0  0  0  0
   20.1416  -13.9112  -17.7549 C   0  0  0  0  0  0  0  0  0  0  0  0
   19.6390  -14.9595  -17.2975 O   0  0  0  0  0  0  0  0  0  0  0  0
   20.8670  -12.9836  -16.8724 C   0  0  0  0  0  0  0  0  0  0  0  0
   21.3161  -11.7800  -17.6604 C   0  0  2  0  0  0  0  0  0  0  0  0
   22.3236  -12.1620  -18.6186 N   0  0  0  0  0  0  0  0  0  0  0  0
   21.8170  -10.7323  -16.7318 C   0  0  0  0  0  0  0  0  0  0  0  0
   21.0589  -10.3617  -15.7993 O   0  0  0  0  0  0  0  0  0  0  0  0
   27.9259  -10.7132  -17.2253 C   0  0  0  0  0  0  0  0  0  0  0  0
   27.5396  -10.7550  -15.4520 S   0  0  0  0  0  0  0  0  0  0  0  0
   25.7409  -10.6181  -15.3213 C   0  0  0  0  0  0  0  0  0  0  0  0
   25.1913   -9.3934  -15.9504 C   0  0  0  0  0  0  0  0  0  0  0  0
   23.6894   -9.2877  -15.9232 C   0  0  2  0  0  0  0  0  0  0  0  0
   23.0964  -10.1814  -16.8995 N   0  0  0  0  0  0  0  0  0  0  0  0
   23.2124   -7.9030  -16.1878 C   0  0  0  0  0  0  0  0  0  0  0  0
   23.0990   -7.4952  -17.3742 O   0  0  0  0  0  0  0  0  0  0  0  0
   21.0682   -3.8758  -14.8556 O   0  0  0  0  0  0  0  0  0  0  0  0
   21.4185   -5.1666  -14.4402 C   0  0  0  0  0  0  0  0  0  0  0  0
   22.4088   -5.6981  -15.4497 C   0  0  2  0  0  0  0  0  0  0  0  0
   22.8758   -7.0125  -15.1327 N   0  0  0  0  0  0  0  0  0  0  0  0
   23.5953   -4.8093  -15.5625 C   0  0  0  0  0  0  0  0  0  0  0  0
   23.3957   -3.5255  -16.0408 O   0  0  0  0  0  0  0  0  0  0  0  0
   24.7486   -5.1634  -15.2495 O   0  0  0  0  0  0  0  0  0  0  0  0
  2  1  1  0
  2  3  2  0
  4  2  1  0
  5  4  1  0
  5  6  1  6
  7  5  1  0
  8  7  2  0
 10  9  1  0
 10 11  1  0
 11 12  1  0
 13 12  1  6
 13 14  1  0
 14  7  1  0
 15 13  1  0
 15 20  1  0
 16 15  2  0
 18 17  1  0
 19 18  1  1
 19 20  1  0
 19 21  1  0
 21 23  2  0
 21 22  1  0
M  END
$$$$
