NMS.pdb
     RDKit          3D

 23 22  0  0  1  0  0  0  0  0999 V2000
   19.9047  -23.2646   -7.7895 N   0  0  0  0  0  0  0  0  0  0  0  0
   19.6579  -22.4441   -8.9111 C   0  0  0  0  0  0  0  0  0  0  0  0
   18.5174  -22.4174   -9.4202 O   0  0  0  0  0  0  0  0  0  0  0  0
   20.7457  -21.6268   -9.4716 C   0  0  0  0  0  0  0  0  0  0  0  0
   22.0127  -21.8636   -8.6906 C   0  0  2  0  0  0  0  0  0  0  0  0
   21.8204  -21.4955   -7.3098 N   0  0  0  0  0  0  0  0  0  0  0  0
   23.1304  -21.1009   -9.3070 C   0  0  0  0  0  0  0  0  0  0  0  0
   22.8513  -20.2850  -10.2224 O   0  0  0  0  0  0  0  0  0  0  0  0
   28.0402  -18.7047   -5.0897 C   0  0  0  0  0  0  0  0  0  0  0  0
   28.2258  -19.9588   -6.3892 S   0  0  0  0  0  0  0  0  0  0  0  0
   26.7716  -19.8055   -7.4535 C   0  0  0  0  0  0  0  0  0  0  0  0
   26.7980  -20.7087   -8.6288 C   0  0  0  0  0  0  0  0  0  0  0  0
   25.5781  -20.6376   -9.5088 C   0  0  2  0  0  0  0  0  0  0  0  0
   24.4509  -21.2930   -8.8737 N   0  0  0  0  0  0  0  0  0  0  0  0
   25.8035  -21.2563  -10.8435 C   0  0  0  0  0  0  0  0  0  0  0  0
   25.7766  -22.5096  -10.9659 O   0  0  0  0  0  0  0  0  0  0  0  0
   24.3236  -20.1032  -14.2098 O   0  0  0  0  0  0  0  0  0  0  0  0
   24.8923  -21.3601  -13.9693 C   0  0  0  0  0  0  0  0  0  0  0  0
   26.2076  -21.1187  -13.2664 C   0  0  2  0  0  0  0  0  0  0  0  0
   26.0517  -20.4700  -12.0010 N   0  0  0  0  0  0  0  0  0  0  0  0
   27.1182  -20.2853  -14.0950 C   0  0  0  0  0  0  0  0  0  0  0  0
   27.5346  -20.7998  -15.3111 O   0  0  0  0  0  0  0  0  0  0  0  0
   27.5195  -19.1574  -13.7486 O   0  0  0  0  0  0  0  0  0  0  0  0
  2  1  1  0
  2  3  2  0
  4  2  1  0
  5  4  1  0
  5  6  1  1
  7  5  1  0
  8  7  2  0
 10  9  1  0
 10 11  1  0
 11 12  1  0
 13 12  1  1
 13 14  1  0
 14  7  1  0
 15 13  1  0
 15 20  1  0
 16 15  2  0
 18 17  1  0
 19 18  1  6
 19 20  1  0
 19 21  1  0
 21 23  2  0
 21 22  1  0
M  END
$$$$
