NMS.pdb
     RDKit          3D

 23 22  0  0  1  0  0  0  0  0999 V2000
   19.0761  -10.1647  -15.6603 N   0  0  0  0  0  0  0  0  0  0  0  0
   19.0885   -9.3647  -14.4977 C   0  0  0  0  0  0  0  0  0  0  0  0
   18.1539   -9.4548  -13.6736 O   0  0  0  0  0  0  0  0  0  0  0  0
   20.2019   -8.4310  -14.2655 C   0  0  0  0  0  0  0  0  0  0  0  0
   21.1604   -8.4851  -15.4273 C   0  0  2  0  0  0  0  0  0  0  0  0
   22.2869   -9.3244  -15.1024 N   0  0  0  0  0  0  0  0  0  0  0  0
   21.5924   -7.1078  -15.7841 C   0  0  0  0  0  0  0  0  0  0  0  0
   22.0642   -6.3840  -14.8703 O   0  0  0  0  0  0  0  0  0  0  0  0
   25.9388   -5.6577  -21.1071 C   0  0  0  0  0  0  0  0  0  0  0  0
   24.1459   -5.3944  -20.9970 S   0  0  0  0  0  0  0  0  0  0  0  0
   23.7426   -5.3803  -19.2340 C   0  0  0  0  0  0  0  0  0  0  0  0
   22.2881   -5.2992  -18.9582 C   0  0  0  0  0  0  0  0  0  0  0  0
   21.9191   -5.3186  -17.4984 C   0  0  2  0  0  0  0  0  0  0  0  0
   21.4730   -6.6404  -17.1016 N   0  0  0  0  0  0  0  0  0  0  0  0
   20.8537   -4.3332  -17.1686 C   0  0  0  0  0  0  0  0  0  0  0  0
   19.6552   -4.5832  -17.4650 O   0  0  0  0  0  0  0  0  0  0  0  0
   18.7822   -1.2023  -14.5261 O   0  0  0  0  0  0  0  0  0  0  0  0
   19.8162   -2.1293  -14.7064 C   0  0  0  0  0  0  0  0  0  0  0  0
   20.0750   -2.2135  -16.1924 C   0  0  2  0  0  0  0  0  0  0  0  0
   21.1464   -3.1023  -16.5215 N   0  0  0  0  0  0  0  0  0  0  0  0
   20.4010   -0.8789  -16.7607 C   0  0  0  0  0  0  0  0  0  0  0  0
   19.4359    0.1103  -16.6773 O   0  0  0  0  0  0  0  0  0  0  0  0
   21.4913   -0.6129  -17.3027 O   0  0  0  0  0  0  0  0  0  0  0  0
  2  1  1  0
  2  3  2  0
  4  2  1  0
  5  4  1  0
  5  6  1  1
  7  5  1  0
  8  7  2  0
 10  9  1  0
 10 11  1  0
 11 12  1  0
 13 12  1  6
 13 14  1  0
 14  7  1  0
 15 13  1  0
 15 20  1  0
 16 15  2  0
 18 17  1  0
 19 18  1  1
 19 20  1  0
 19 21  1  0
 21 23  2  0
 21 22  1  0
M  END
$$$$
