NMS.pdb
     RDKit          3D

 23 22  0  0  1  0  0  0  0  0999 V2000
   18.2354  -13.1130  -18.7134 N   0  0  0  0  0  0  0  0  0  0  0  0
   17.6915  -12.4639  -17.5843 C   0  0  0  0  0  0  0  0  0  0  0  0
   16.4521  -12.3614  -17.4658 O   0  0  0  0  0  0  0  0  0  0  0  0
   18.5885  -11.9131  -16.5559 C   0  0  0  0  0  0  0  0  0  0  0  0
   20.0227  -12.1403  -16.9589 C   0  0  2  0  0  0  0  0  0  0  0  0
   20.3414  -13.5448  -16.8886 N   0  0  0  0  0  0  0  0  0  0  0  0
   20.9204  -11.3340  -16.0900 C   0  0  0  0  0  0  0  0  0  0  0  0
   21.2115  -11.7949  -14.9566 O   0  0  0  0  0  0  0  0  0  0  0  0
   26.6771  -11.2848  -15.0776 C   0  0  0  0  0  0  0  0  0  0  0  0
   26.5466   -9.6676  -15.8922 S   0  0  0  0  0  0  0  0  0  0  0  0
   24.8975   -9.0352  -15.5032 C   0  0  0  0  0  0  0  0  0  0  0  0
   23.8051   -9.7590  -16.1965 C   0  0  0  0  0  0  0  0  0  0  0  0
   22.4153   -9.3549  -15.7811 C   0  0  2  0  0  0  0  0  0  0  0  0
   21.4212  -10.0996  -16.5302 N   0  0  0  0  0  0  0  0  0  0  0  0
   22.1668   -7.8996  -15.9687 C   0  0  0  0  0  0  0  0  0  0  0  0
   22.0930   -7.4211  -17.1315 O   0  0  0  0  0  0  0  0  0  0  0  0
   20.0042   -4.0063  -15.1677 O   0  0  0  0  0  0  0  0  0  0  0  0
   20.1878   -5.3786  -14.9569 C   0  0  0  0  0  0  0  0  0  0  0  0
   21.6663   -5.6507  -15.1058 C   0  0  2  0  0  0  0  0  0  0  0  0
   22.0077   -7.0188  -14.8648 N   0  0  0  0  0  0  0  0  0  0  0  0
   22.4667   -4.8121  -14.1749 C   0  0  0  0  0  0  0  0  0  0  0  0
   22.5281   -3.4516  -14.4242 O   0  0  0  0  0  0  0  0  0  0  0  0
   23.0781   -5.2728  -13.1915 O   0  0  0  0  0  0  0  0  0  0  0  0
  2  1  1  0
  2  3  2  0
  4  2  1  0
  5  4  1  0
  5  6  1  1
  7  5  1  0
  8  7  2  0
 10  9  1  0
 10 11  1  0
 11 12  1  0
 13 12  1  6
 13 14  1  0
 14  7  1  0
 15 13  1  0
 15 20  1  0
 16 15  2  0
 18 17  1  0
 19 18  1  1
 19 20  1  0
 19 21  1  0
 21 23  2  0
 21 22  1  0
M  END
$$$$
