NMS.pdb
     RDKit          3D

 23 22  0  0  1  0  0  0  0  0999 V2000
   16.7524  -14.3225  -15.9057 N   0  0  0  0  0  0  0  0  0  0  0  0
   17.0618  -12.9872  -16.2425 C   0  0  0  0  0  0  0  0  0  0  0  0
   16.4338  -12.4184  -17.1606 O   0  0  0  0  0  0  0  0  0  0  0  0
   18.1213  -12.2759  -15.5098 C   0  0  0  0  0  0  0  0  0  0  0  0
   18.7763  -11.2667  -16.4174 C   0  0  2  0  0  0  0  0  0  0  0  0
   19.4367  -11.9370  -17.5099 N   0  0  0  0  0  0  0  0  0  0  0  0
   19.7272  -10.4331  -15.6352 C   0  0  0  0  0  0  0  0  0  0  0  0
   19.2930   -9.8537  -14.6069 O   0  0  0  0  0  0  0  0  0  0  0  0
   26.5714   -9.8501  -16.6497 C   0  0  0  0  0  0  0  0  0  0  0  0
   26.1243  -10.1740  -14.9203 S   0  0  0  0  0  0  0  0  0  0  0  0
   24.4834   -9.4534  -14.6770 C   0  0  0  0  0  0  0  0  0  0  0  0
   23.4095  -10.1588  -15.4166 C   0  0  0  0  0  0  0  0  0  0  0  0
   22.0382   -9.5541  -15.2703 C   0  0  2  0  0  0  0  0  0  0  0  0
   21.0642  -10.3038  -16.0402 N   0  0  0  0  0  0  0  0  0  0  0  0
   21.9965   -8.1299  -15.7000 C   0  0  0  0  0  0  0  0  0  0  0  0
   22.2070   -7.8326  -16.9058 O   0  0  0  0  0  0  0  0  0  0  0  0
   20.5034   -3.7749  -15.6632 O   0  0  0  0  0  0  0  0  0  0  0  0
   20.3472   -5.1058  -15.2563 C   0  0  0  0  0  0  0  0  0  0  0  0
   21.7244   -5.7266  -15.2499 C   0  0  2  0  0  0  0  0  0  0  0  0
   21.7235   -7.0788  -14.7833 N   0  0  0  0  0  0  0  0  0  0  0  0
   22.6625   -4.9518  -14.3955 C   0  0  0  0  0  0  0  0  0  0  0  0
   22.9890   -3.6676  -14.7970 O   0  0  0  0  0  0  0  0  0  0  0  0
   23.1629   -5.4006  -13.3460 O   0  0  0  0  0  0  0  0  0  0  0  0
  2  1  1  0
  2  3  2  0
  4  2  1  0
  5  4  1  0
  5  6  1  6
  7  5  1  0
  8  7  2  0
 10  9  1  0
 10 11  1  0
 11 12  1  0
 13 12  1  6
 13 14  1  0
 14  7  1  0
 15 13  1  0
 15 20  1  0
 16 15  2  0
 18 17  1  0
 19 18  1  1
 19 20  1  0
 19 21  1  0
 21 23  2  0
 21 22  1  0
M  END
$$$$
