NMS.pdb
     RDKit          3D

 23 22  0  0  1  0  0  0  0  0999 V2000
   18.8443  -11.6183  -20.6626 N   0  0  0  0  0  0  0  0  0  0  0  0
   18.5052  -10.3429  -20.1623 C   0  0  0  0  0  0  0  0  0  0  0  0
   17.7967   -9.5764  -20.8489 O   0  0  0  0  0  0  0  0  0  0  0  0
   18.9887   -9.9262  -18.8364 C   0  0  0  0  0  0  0  0  0  0  0  0
   19.8703  -11.0021  -18.2564 C   0  0  2  0  0  0  0  0  0  0  0  0
   19.0803  -12.1575  -17.9099 N   0  0  0  0  0  0  0  0  0  0  0  0
   20.6012  -10.4683  -17.0767 C   0  0  0  0  0  0  0  0  0  0  0  0
   19.9785  -10.3853  -15.9872 O   0  0  0  0  0  0  0  0  0  0  0  0
   27.3393   -9.8004  -16.3773 C   0  0  0  0  0  0  0  0  0  0  0  0
   26.5491  -10.2864  -14.8167 S   0  0  0  0  0  0  0  0  0  0  0  0
   24.8785   -9.5948  -14.8572 C   0  0  0  0  0  0  0  0  0  0  0  0
   24.0548  -10.0973  -15.9829 C   0  0  0  0  0  0  0  0  0  0  0  0
   22.6754   -9.5002  -16.0732 C   0  0  2  0  0  0  0  0  0  0  0  0
   21.9427  -10.0726  -17.1864 N   0  0  0  0  0  0  0  0  0  0  0  0
   22.7060   -8.0204  -16.2288 C   0  0  0  0  0  0  0  0  0  0  0  0
   23.3872   -7.5012  -17.1524 O   0  0  0  0  0  0  0  0  0  0  0  0
   19.7507   -5.5619  -15.4418 O   0  0  0  0  0  0  0  0  0  0  0  0
   20.8587   -5.1477  -16.1916 C   0  0  0  0  0  0  0  0  0  0  0  0
   22.0807   -5.7447  -15.5341 C   0  0  2  0  0  0  0  0  0  0  0  0
   21.9827   -7.1609  -15.3583 N   0  0  0  0  0  0  0  0  0  0  0  0
   22.3276   -5.1373  -14.1996 C   0  0  0  0  0  0  0  0  0  0  0  0
   22.2378   -5.9608  -13.0903 O   0  0  0  0  0  0  0  0  0  0  0  0
   22.6084   -3.9342  -14.0360 O   0  0  0  0  0  0  0  0  0  0  0  0
  2  1  1  0
  2  3  2  0
  4  2  1  0
  5  4  1  0
  5  6  1  1
  7  5  1  0
  8  7  2  0
 10  9  1  0
 10 11  1  0
 11 12  1  0
 13 12  1  6
 13 14  1  0
 14  7  1  0
 15 13  1  0
 15 20  1  0
 16 15  2  0
 18 17  1  0
 19 18  1  1
 19 20  1  0
 19 21  1  0
 21 23  2  0
 21 22  1  0
M  END
$$$$
