NMS.pdb
     RDKit          3D

 23 22  0  0  1  0  0  0  0  0999 V2000
   17.7415  -24.8736   -7.7875 N   0  0  0  0  0  0  0  0  0  0  0  0
   17.3258  -23.5251   -7.7613 C   0  0  0  0  0  0  0  0  0  0  0  0
   16.1747  -23.2391   -7.3691 O   0  0  0  0  0  0  0  0  0  0  0  0
   18.2514  -22.4670   -8.1962 C   0  0  0  0  0  0  0  0  0  0  0  0
   19.5746  -23.0768   -8.5813 C   0  0  2  0  0  0  0  0  0  0  0  0
   20.1750  -23.7211   -7.4396 N   0  0  0  0  0  0  0  0  0  0  0  0
   20.4644  -22.0272   -9.1446 C   0  0  0  0  0  0  0  0  0  0  0  0
   19.9555  -21.1803   -9.9228 O   0  0  0  0  0  0  0  0  0  0  0  0
   26.4352  -19.1207   -6.9932 C   0  0  0  0  0  0  0  0  0  0  0  0
   26.6832  -20.2227   -8.4145 S   0  0  0  0  0  0  0  0  0  0  0  0
   25.1252  -20.2245   -9.3329 C   0  0  0  0  0  0  0  0  0  0  0  0
   24.0982  -21.1264   -8.7584 C   0  0  0  0  0  0  0  0  0  0  0  0
   22.7506  -21.0573   -9.4267 C   0  0  2  0  0  0  0  0  0  0  0  0
   21.8270  -21.9916   -8.8122 N   0  0  0  0  0  0  0  0  0  0  0  0
   22.8243  -21.3443  -10.8852 C   0  0  0  0  0  0  0  0  0  0  0  0
   22.9566  -22.5316  -11.2844 O   0  0  0  0  0  0  0  0  0  0  0  0
   21.7121  -18.8656  -14.3980 O   0  0  0  0  0  0  0  0  0  0  0  0
   21.4209  -20.1458  -13.9105 C   0  0  0  0  0  0  0  0  0  0  0  0
   22.6761  -20.6562  -13.2425 C   0  0  2  0  0  0  0  0  0  0  0  0
   22.7496  -20.3097  -11.8566 N   0  0  0  0  0  0  0  0  0  0  0  0
   23.8959  -20.1276  -13.9083 C   0  0  0  0  0  0  0  0  0  0  0  0
   24.1595  -20.5504  -15.2000 O   0  0  0  0  0  0  0  0  0  0  0  0
   24.6830  -19.3302  -13.3626 O   0  0  0  0  0  0  0  0  0  0  0  0
  2  1  1  0
  2  3  2  0
  4  2  1  0
  5  4  1  0
  5  6  1  1
  7  5  1  0
  8  7  2  0
 10  9  1  0
 10 11  1  0
 11 12  1  0
 13 12  1  1
 13 14  1  0
 14  7  1  0
 15 13  1  0
 15 20  1  0
 16 15  2  0
 18 17  1  0
 19 18  1  6
 19 20  1  0
 19 21  1  0
 21 23  2  0
 21 22  1  0
M  END
$$$$
