NMS.pdb
     RDKit          3D

 23 22  0  0  1  0  0  0  0  0999 V2000
   17.6031  -12.7326  -18.4837 N   0  0  0  0  0  0  0  0  0  0  0  0
   18.1329  -13.2826  -17.2968 C   0  0  0  0  0  0  0  0  0  0  0  0
   17.9091  -14.4789  -17.0146 O   0  0  0  0  0  0  0  0  0  0  0  0
   18.9444  -12.4429  -16.4014 C   0  0  0  0  0  0  0  0  0  0  0  0
   19.7125  -11.4311  -17.2123 C   0  0  2  0  0  0  0  0  0  0  0  0
   20.5338  -12.0998  -18.1908 N   0  0  0  0  0  0  0  0  0  0  0  0
   20.5286  -10.5796  -16.3068 C   0  0  0  0  0  0  0  0  0  0  0  0
   19.9316   -9.9446  -15.4001 O   0  0  0  0  0  0  0  0  0  0  0  0
   27.0674  -10.4014  -16.7207 C   0  0  0  0  0  0  0  0  0  0  0  0
   26.8454   -9.6780  -15.0705 S   0  0  0  0  0  0  0  0  0  0  0  0
   25.1191   -9.1470  -14.9773 C   0  0  0  0  0  0  0  0  0  0  0  0
   24.1899  -10.0103  -15.7451 C   0  0  0  0  0  0  0  0  0  0  0  0
   22.7404   -9.6113  -15.6610 C   0  0  2  0  0  0  0  0  0  0  0  0
   21.9197  -10.4942  -16.4676 N   0  0  0  0  0  0  0  0  0  0  0  0
   22.5109   -8.2081  -16.1003 C   0  0  0  0  0  0  0  0  0  0  0  0
   22.7603   -7.8747  -17.2891 O   0  0  0  0  0  0  0  0  0  0  0  0
   19.8465   -5.6569  -14.4853 O   0  0  0  0  0  0  0  0  0  0  0  0
   20.3937   -5.4597  -15.7593 C   0  0  0  0  0  0  0  0  0  0  0  0
   21.8435   -5.8772  -15.6829 C   0  0  2  0  0  0  0  0  0  0  0  0
   22.0130   -7.2171  -15.2116 N   0  0  0  0  0  0  0  0  0  0  0  0
   22.6181   -4.9789  -14.7864 C   0  0  0  0  0  0  0  0  0  0  0  0
   22.6582   -3.6316  -15.1024 O   0  0  0  0  0  0  0  0  0  0  0  0
   23.2261   -5.3790  -13.7748 O   0  0  0  0  0  0  0  0  0  0  0  0
  2  1  1  0
  2  3  2  0
  4  2  1  0
  5  4  1  0
  5  6  1  6
  7  5  1  0
  8  7  2  0
 10  9  1  0
 10 11  1  0
 11 12  1  0
 13 12  1  6
 13 14  1  0
 14  7  1  0
 15 13  1  0
 15 20  1  0
 16 15  2  0
 18 17  1  0
 19 18  1  1
 19 20  1  0
 19 21  1  0
 21 23  2  0
 21 22  1  0
M  END
$$$$
