NMS.pdb
     RDKit          3D

 23 22  0  0  1  0  0  0  0  0999 V2000
   19.7153  -23.0367  -14.3886 N   0  0  0  0  0  0  0  0  0  0  0  0
   20.2000  -21.9349  -15.1255 C   0  0  0  0  0  0  0  0  0  0  0  0
   19.9769  -21.8640  -16.3527 O   0  0  0  0  0  0  0  0  0  0  0  0
   20.9641  -20.8788  -14.4428 C   0  0  0  0  0  0  0  0  0  0  0  0
   21.0776  -21.2025  -12.9753 C   0  0  2  0  0  0  0  0  0  0  0  0
   19.9123  -20.7280  -12.2709 N   0  0  0  0  0  0  0  0  0  0  0  0
   22.3252  -20.6079  -12.4267 C   0  0  0  0  0  0  0  0  0  0  0  0
   22.3704  -19.3586  -12.2894 O   0  0  0  0  0  0  0  0  0  0  0  0
   27.3482  -19.4382   -7.3701 C   0  0  0  0  0  0  0  0  0  0  0  0
   25.8872  -20.3835   -7.8874 S   0  0  0  0  0  0  0  0  0  0  0  0
   26.2034  -20.9164   -9.5865 C   0  0  0  0  0  0  0  0  0  0  0  0
   25.0184  -21.5065  -10.2541 C   0  0  0  0  0  0  0  0  0  0  0  0
   24.6593  -20.8799  -11.5754 C   0  0  2  0  0  0  0  0  0  0  0  0
   23.4116  -21.4237  -12.0766 N   0  0  0  0  0  0  0  0  0  0  0  0
   25.7166  -21.0775  -12.6039 C   0  0  0  0  0  0  0  0  0  0  0  0
   25.7326  -22.1327  -13.2917 O   0  0  0  0  0  0  0  0  0  0  0  0
   28.9960  -21.7550  -15.1393 O   0  0  0  0  0  0  0  0  0  0  0  0
   28.0978  -21.7211  -14.0653 C   0  0  0  0  0  0  0  0  0  0  0  0
   27.6367  -20.2893  -13.9248 C   0  0  2  0  0  0  0  0  0  0  0  0
   26.7233  -20.1025  -12.8399 N   0  0  0  0  0  0  0  0  0  0  0  0
   26.9720  -19.8113  -15.1658 C   0  0  0  0  0  0  0  0  0  0  0  0
   25.7718  -20.4023  -15.5226 O   0  0  0  0  0  0  0  0  0  0  0  0
   27.4406  -18.9130  -15.8914 O   0  0  0  0  0  0  0  0  0  0  0  0
  2  1  1  0
  2  3  2  0
  4  2  1  0
  5  4  1  0
  5  6  1  1
  7  5  1  0
  8  7  2  0
 10  9  1  0
 10 11  1  0
 11 12  1  0
 13 12  1  1
 13 14  1  0
 14  7  1  0
 15 13  1  0
 15 20  1  0
 16 15  2  0
 18 17  1  0
 19 18  1  6
 19 20  1  0
 19 21  1  0
 21 23  2  0
 21 22  1  0
M  END
$$$$
