NMS.pdb
     RDKit          3D

 23 22  0  0  1  0  0  0  0  0999 V2000
    8.8850  -10.7340  -11.2841 N   0  0  0  0  0  0  0  0  0  0  0  0
    9.0153  -10.1180  -10.0210 C   0  0  0  0  0  0  0  0  0  0  0  0
    8.0084   -9.9720   -9.2961 O   0  0  0  0  0  0  0  0  0  0  0  0
   10.3359   -9.6528   -9.5680 C   0  0  0  0  0  0  0  0  0  0  0  0
   11.3816  -10.0219  -10.5886 C   0  0  2  0  0  0  0  0  0  0  0  0
   11.6102  -11.4455  -10.5721 N   0  0  0  0  0  0  0  0  0  0  0  0
   12.6332   -9.2661  -10.3184 C   0  0  0  0  0  0  0  0  0  0  0  0
   13.2995   -9.5772   -9.2981 O   0  0  0  0  0  0  0  0  0  0  0  0
   18.5433   -5.2287  -13.4036 C   0  0  0  0  0  0  0  0  0  0  0  0
   17.1620   -6.3644  -13.7166 S   0  0  0  0  0  0  0  0  0  0  0  0
   16.2553   -6.5020  -12.1578 C   0  0  0  0  0  0  0  0  0  0  0  0
   15.0443   -7.3525  -12.2482 C   0  0  0  0  0  0  0  0  0  0  0  0
   14.2725   -7.4929  -10.9629 C   0  0  2  0  0  0  0  0  0  0  0  0
   13.0487   -8.2403  -11.1807 N   0  0  0  0  0  0  0  0  0  0  0  0
   13.9300   -6.1764  -10.3592 C   0  0  0  0  0  0  0  0  0  0  0  0
   13.0027   -5.4822  -10.8540 O   0  0  0  0  0  0  0  0  0  0  0  0
   13.5465   -3.2234   -6.7697 O   0  0  0  0  0  0  0  0  0  0  0  0
   13.8489   -4.5197   -7.2047 C   0  0  0  0  0  0  0  0  0  0  0  0
   14.2209   -4.4162   -8.6652 C   0  0  2  0  0  0  0  0  0  0  0  0
   14.6233   -5.6685   -9.2274 N   0  0  0  0  0  0  0  0  0  0  0  0
   15.3296   -3.4477   -8.8732 C   0  0  0  0  0  0  0  0  0  0  0  0
   15.0440   -2.1006   -8.7292 O   0  0  0  0  0  0  0  0  0  0  0  0
   16.4913   -3.7893   -9.1680 O   0  0  0  0  0  0  0  0  0  0  0  0
  2  1  1  0
  2  3  2  0
  4  2  1  0
  5  4  1  0
  5  6  1  1
  7  5  1  0
  8  7  2  0
 10  9  1  0
 10 11  1  0
 11 12  1  0
 13 12  1  6
 13 14  1  0
 14  7  1  0
 15 13  1  0
 15 20  1  0
 16 15  2  0
 18 17  1  0
 19 18  1  1
 19 20  1  0
 19 21  1  0
 21 23  2  0
 21 22  1  0
M  END
$$$$
