HTC.pdb
     RDKit          3D

 24 24  0  0  1  0  0  0  0  0999 V2000
   19.4927  -12.7870  -18.1919 N   0  0  0  0  0  0  0  0  0  0  0  0
   19.2345  -11.8933  -17.1061 C   0  0  1  0  0  0  0  0  0  0  0  0
   19.6110  -12.5794  -15.8092 C   0  0  0  0  0  0  0  0  0  0  0  0
   18.6574  -13.7148  -15.6153 C   0  0  0  0  0  0  0  0  0  0  0  0
   17.3507  -13.6076  -15.1381 C   0  0  0  0  0  0  0  0  0  0  0  0
   16.7978  -14.8308  -15.0974 N   0  0  0  0  0  0  0  0  0  0  0  0
   17.7312  -15.6895  -15.5378 C   0  0  0  0  0  0  0  0  0  0  0  0
   18.8587  -15.0114  -15.8516 N   0  0  0  0  0  0  0  0  0  0  0  0
   19.9898  -10.6094  -17.2413 C   0  0  0  0  0  0  0  0  0  0  0  0
   21.2105  -10.6451  -17.5423 O   0  0  0  0  0  0  0  0  0  0  0  0
   19.2593   -7.7462  -19.6226 C   0  0  0  0  0  0  0  0  0  0  0  0
   19.3276   -7.1980  -18.2316 C   0  0  1  0  0  0  0  0  0  0  0  0
   18.0828   -6.9472  -17.6745 O   0  0  0  0  0  0  0  0  0  0  0  0
   20.0780   -8.1194  -17.2771 C   0  0  2  0  0  0  0  0  0  0  0  0
   19.3768   -9.3418  -17.0412 N   0  0  0  0  0  0  0  0  0  0  0  0
   20.2964   -7.3325  -16.0308 C   0  0  0  0  0  0  0  0  0  0  0  0
   19.5174   -7.4960  -15.0579 O   0  0  0  0  0  0  0  0  0  0  0  0
   21.3585   -6.3901  -15.8821 N   0  0  0  0  0  0  0  0  0  0  0  0
   21.5731   -5.6333  -14.6760 C   0  0  1  0  0  0  0  0  0  0  0  0
   22.7298   -6.1884  -13.8597 C   0  0  0  0  0  0  0  0  0  0  0  0
   22.9747   -5.0621  -12.4585 S   0  0  0  0  0  0  0  0  0  0  0  0
   21.8805   -4.2263  -15.0216 C   0  0  0  0  0  0  0  0  0  0  0  0
   21.5920   -3.2382  -14.1078 O   0  0  0  0  0  0  0  0  0  0  0  0
   22.3944   -3.9129  -16.1200 O   0  0  0  0  0  0  0  0  0  0  0  0
  2  3  1  0
  2  1  1  6
  4  3  1  0
  5  4  2  0
  6  7  1  0
  6  5  1  0
  7  8  2  0
  8  4  1  0
  9 10  2  0
  9  2  1  0
 12 11  1  6
 12 14  1  0
 13 12  1  0
 14 15  1  1
 15  9  1  0
 16 14  1  0
 17 16  2  0
 18 16  1  0
 19 18  1  0
 20 21  1  0
 19 20  1  6
 22 23  1  0
 22 19  1  0
 24 22  2  0
M  END
$$$$
