HTC.pdb
     RDKit          3D

 24 24  0  0  1  0  0  0  0  0999 V2000
   24.3293  -20.3454  -16.1268 N   0  0  0  0  0  0  0  0  0  0  0  0
   24.4779  -21.7040  -15.7067 C   0  0  1  0  0  0  0  0  0  0  0  0
   23.1027  -22.3170  -15.5413 C   0  0  0  0  0  0  0  0  0  0  0  0
   22.3824  -21.5164  -14.5039 C   0  0  0  0  0  0  0  0  0  0  0  0
   22.9386  -21.0287  -13.3209 C   0  0  0  0  0  0  0  0  0  0  0  0
   21.9968  -20.3576  -12.6383 N   0  0  0  0  0  0  0  0  0  0  0  0
   20.8735  -20.4194  -13.3711 C   0  0  0  0  0  0  0  0  0  0  0  0
   21.1086  -21.1225  -14.5024 N   0  0  0  0  0  0  0  0  0  0  0  0
   25.2814  -22.5094  -16.6778 C   0  0  0  0  0  0  0  0  0  0  0  0
   25.0765  -22.3659  -17.9104 O   0  0  0  0  0  0  0  0  0  0  0  0
   28.4698  -22.1240  -17.7731 C   0  0  0  0  0  0  0  0  0  0  0  0
   28.4889  -23.5460  -17.3066 C   0  0  1  0  0  0  0  0  0  0  0  0
   29.1132  -23.7172  -16.0803 O   0  0  0  0  0  0  0  0  0  0  0  0
   27.0908  -24.1427  -17.1947 C   0  0  2  0  0  0  0  0  0  0  0  0
   26.2743  -23.4371  -16.2583 N   0  0  0  0  0  0  0  0  0  0  0  0
   27.2815  -25.5739  -16.8267 C   0  0  0  0  0  0  0  0  0  0  0  0
   27.1136  -25.9276  -15.6323 O   0  0  0  0  0  0  0  0  0  0  0  0
   27.6499  -26.5778  -17.7728 N   0  0  0  0  0  0  0  0  0  0  0  0
   27.8307  -27.9616  -17.4183 C   0  0  1  0  0  0  0  0  0  0  0  0
   27.9397  -28.8496  -18.6479 C   0  0  0  0  0  0  0  0  0  0  0  0
   26.4420  -28.5716  -19.6336 S   0  0  0  0  0  0  0  0  0  0  0  0
   29.0718  -28.1120  -16.6242 C   0  0  0  0  0  0  0  0  0  0  0  0
   29.9120  -27.0299  -16.4908 O   0  0  0  0  0  0  0  0  0  0  0  0
   29.3759  -29.1946  -16.0725 O   0  0  0  0  0  0  0  0  0  0  0  0
  2  3  1  0
  2  1  1  6
  4  3  1  0
  5  4  2  0
  6  7  1  0
  6  5  1  0
  7  8  2  0
  8  4  1  0
  9 10  2  0
  9  2  1  0
 12 11  1  1
 12 14  1  0
 13 12  1  0
 14 15  1  1
 15  9  1  0
 16 14  1  0
 17 16  2  0
 18 16  1  0
 19 18  1  0
 20 21  1  0
 19 20  1  6
 22 23  1  0
 22 19  1  0
 24 22  2  0
M  END
$$$$
