HTC.pdb
     RDKit          3D

 24 24  0  0  1  0  0  0  0  0999 V2000
   17.4813  -12.6595  -17.0471 N   0  0  0  0  0  0  0  0  0  0  0  0
   18.6337  -12.1591  -16.3643 C   0  0  1  0  0  0  0  0  0  0  0  0
   19.8341  -12.9962  -16.7547 C   0  0  0  0  0  0  0  0  0  0  0  0
   19.5786  -14.3889  -16.2740 C   0  0  0  0  0  0  0  0  0  0  0  0
   18.7795  -14.7404  -15.1857 C   0  0  0  0  0  0  0  0  0  0  0  0
   18.7839  -16.0768  -15.0528 N   0  0  0  0  0  0  0  0  0  0  0  0
   19.5660  -16.5580  -16.0323 C   0  0  0  0  0  0  0  0  0  0  0  0
   20.0474  -15.5332  -16.7723 N   0  0  0  0  0  0  0  0  0  0  0  0
   18.8928  -10.7195  -16.6769 C   0  0  0  0  0  0  0  0  0  0  0  0
   18.7713  -10.3183  -17.8627 O   0  0  0  0  0  0  0  0  0  0  0  0
   17.0536   -8.0050  -16.7415 C   0  0  0  0  0  0  0  0  0  0  0  0
   18.1114   -7.6228  -15.7540 C   0  0  1  0  0  0  0  0  0  0  0  0
   17.7293   -7.8102  -14.4343 O   0  0  0  0  0  0  0  0  0  0  0  0
   19.4122   -8.3885  -15.9661 C   0  0  2  0  0  0  0  0  0  0  0  0
   19.2737   -9.7811  -15.6785 N   0  0  0  0  0  0  0  0  0  0  0  0
   20.4283   -7.7219  -15.1039 C   0  0  0  0  0  0  0  0  0  0  0  0
   20.5550   -8.0901  -13.9087 O   0  0  0  0  0  0  0  0  0  0  0  0
   21.2767   -6.6727  -15.5708 N   0  0  0  0  0  0  0  0  0  0  0  0
   22.3595   -6.1330  -14.7901 C   0  0  1  0  0  0  0  0  0  0  0  0
   23.3842   -5.4232  -15.6610 C   0  0  0  0  0  0  0  0  0  0  0  0
   24.0230   -6.6529  -16.8322 S   0  0  0  0  0  0  0  0  0  0  0  0
   21.8266   -5.1583  -13.8103 C   0  0  0  0  0  0  0  0  0  0  0  0
   22.6028   -4.8101  -12.7283 O   0  0  0  0  0  0  0  0  0  0  0  0
   20.6918   -4.6444  -13.9403 O   0  0  0  0  0  0  0  0  0  0  0  0
  2  3  1  0
  2  1  1  6
  4  3  1  0
  5  4  2  0
  6  7  1  0
  6  5  1  0
  7  8  2  0
  8  4  1  0
  9 10  2  0
  9  2  1  0
 12 11  1  6
 12 14  1  0
 13 12  1  0
 14 15  1  1
 15  9  1  0
 16 14  1  0
 17 16  2  0
 18 16  1  0
 19 18  1  0
 20 21  1  0
 19 20  1  6
 22 23  1  0
 22 19  1  0
 24 22  2  0
M  END
$$$$
