HTC.pdb
     RDKit          3D

 24 24  0  0  1  0  0  0  0  0999 V2000
   14.6286  -19.5121    3.6456 N   0  0  0  0  0  0  0  0  0  0  0  0
   15.7148  -19.9819    4.4479 C   0  0  1  0  0  0  0  0  0  0  0  0
   16.7179  -20.6784    3.5518 C   0  0  0  0  0  0  0  0  0  0  0  0
   16.0750  -21.9357    3.0600 C   0  0  0  0  0  0  0  0  0  0  0  0
   15.9564  -23.1247    3.7804 C   0  0  0  0  0  0  0  0  0  0  0  0
   15.3247  -24.0351    3.0217 N   0  0  0  0  0  0  0  0  0  0  0  0
   15.0508  -23.4369    1.8514 C   0  0  0  0  0  0  0  0  0  0  0  0
   15.5064  -22.1635    1.8758 N   0  0  0  0  0  0  0  0  0  0  0  0
   16.3837  -18.8728    5.1960 C   0  0  0  0  0  0  0  0  0  0  0  0
   16.5388  -17.7594    4.6320 O   0  0  0  0  0  0  0  0  0  0  0  0
   15.7443  -18.2555    9.1385 C   0  0  0  0  0  0  0  0  0  0  0  0
   16.3573  -17.2843    8.1787 C   0  0  1  0  0  0  0  0  0  0  0  0
   16.9668  -16.2042    8.7987 O   0  0  0  0  0  0  0  0  0  0  0  0
   17.3948  -17.9357    7.2717 C   0  0  2  0  0  0  0  0  0  0  0  0
   16.8540  -19.0299    6.5289 N   0  0  0  0  0  0  0  0  0  0  0  0
   18.5201  -18.3437    8.1589 C   0  0  0  0  0  0  0  0  0  0  0  0
   18.5914  -19.5363    8.5499 O   0  0  0  0  0  0  0  0  0  0  0  0
   19.5351  -17.4388    8.5940 N   0  0  0  0  0  0  0  0  0  0  0  0
   20.6527  -17.8446    9.4061 C   0  0  1  0  0  0  0  0  0  0  0  0
   21.9413  -17.1625    8.9742 C   0  0  0  0  0  0  0  0  0  0  0  0
   22.6960  -18.2164    7.7046 S   0  0  0  0  0  0  0  0  0  0  0  0
   20.3915  -17.4926   10.8208 C   0  0  0  0  0  0  0  0  0  0  0  0
   20.9134  -18.2913   11.8128 O   0  0  0  0  0  0  0  0  0  0  0  0
   19.7102  -16.4903   11.1371 O   0  0  0  0  0  0  0  0  0  0  0  0
  2  3  1  0
  2  1  1  6
  4  3  1  0
  5  4  2  0
  6  7  1  0
  6  5  1  0
  7  8  2  0
  8  4  1  0
  9 10  2  0
  9  2  1  0
 12 11  1  1
 12 14  1  0
 13 12  1  0
 14 15  1  1
 15  9  1  0
 16 14  1  0
 17 16  2  0
 18 16  1  0
 19 18  1  0
 20 21  1  0
 19 20  1  6
 22 23  1  0
 22 19  1  0
 24 22  2  0
M  END
$$$$
