HTC.pdb
     RDKit          3D

 24 24  0  0  1  0  0  0  0  0999 V2000
   16.6276  -12.3850  -14.6543 N   0  0  0  0  0  0  0  0  0  0  0  0
   15.7296  -11.4064  -14.1250 C   0  0  1  0  0  0  0  0  0  0  0  0
   14.4787  -12.1062  -13.6351 C   0  0  0  0  0  0  0  0  0  0  0  0
   13.6861  -12.4941  -14.8423 C   0  0  0  0  0  0  0  0  0  0  0  0
   12.6696  -11.7375  -15.4260 C   0  0  0  0  0  0  0  0  0  0  0  0
   12.1864  -12.4000  -16.4896 N   0  0  0  0  0  0  0  0  0  0  0  0
   12.8799  -13.5464  -16.5760 C   0  0  0  0  0  0  0  0  0  0  0  0
   13.7893  -13.6023  -15.5763 N   0  0  0  0  0  0  0  0  0  0  0  0
   16.3446  -10.6220  -13.0098 C   0  0  0  0  0  0  0  0  0  0  0  0
   17.0077  -11.2263  -12.1282 O   0  0  0  0  0  0  0  0  0  0  0  0
   19.1482   -8.4167  -13.0374 C   0  0  0  0  0  0  0  0  0  0  0  0
   18.0123   -7.5979  -12.5090 C   0  0  1  0  0  0  0  0  0  0  0  0
   17.4342   -6.7739  -13.4627 O   0  0  0  0  0  0  0  0  0  0  0  0
   16.9022   -8.4553  -11.9126 C   0  0  2  0  0  0  0  0  0  0  0  0
   16.2076   -9.2102  -12.9073 N   0  0  0  0  0  0  0  0  0  0  0  0
   16.0091   -7.5187  -11.1743 C   0  0  0  0  0  0  0  0  0  0  0  0
   15.0985   -6.9186  -11.7994 O   0  0  0  0  0  0  0  0  0  0  0  0
   16.1354   -7.2639   -9.7752 N   0  0  0  0  0  0  0  0  0  0  0  0
   15.2441   -6.3943   -9.0522 C   0  0  1  0  0  0  0  0  0  0  0  0
   15.2058   -6.7313   -7.5699 C   0  0  0  0  0  0  0  0  0  0  0  0
   14.6632   -8.4574   -7.4355 S   0  0  0  0  0  0  0  0  0  0  0  0
   15.6936   -4.9906   -9.1988 C   0  0  0  0  0  0  0  0  0  0  0  0
   14.8632   -3.9781   -8.7748 O   0  0  0  0  0  0  0  0  0  0  0  0
   16.8059   -4.7018   -9.6970 O   0  0  0  0  0  0  0  0  0  0  0  0
  2  3  1  0
  2  1  1  1
  4  3  1  0
  5  4  2  0
  6  7  1  0
  6  5  1  0
  7  8  2  0
  8  4  1  0
  9 10  2  0
  9  2  1  0
 12 11  1  6
 12 14  1  0
 13 12  1  0
 14 15  1  6
 15  9  1  0
 16 14  1  0
 17 16  2  0
 18 16  1  0
 19 18  1  0
 20 21  1  0
 19 20  1  1
 22 23  1  0
 22 19  1  0
 24 22  2  0
M  END
$$$$
