HTC.pdb
     RDKit          3D

 24 24  0  0  1  0  0  0  0  0999 V2000
   25.9825  -20.6641  -17.1873 N   0  0  0  0  0  0  0  0  0  0  0  0
   26.7515  -20.1485  -16.0978 C   0  0  1  0  0  0  0  0  0  0  0  0
   27.5716  -18.9746  -16.5915 C   0  0  0  0  0  0  0  0  0  0  0  0
   28.5671  -19.5099  -17.5705 C   0  0  0  0  0  0  0  0  0  0  0  0
   28.9040  -20.8537  -17.7363 C   0  0  0  0  0  0  0  0  0  0  0  0
   29.8302  -20.9568  -18.7032 N   0  0  0  0  0  0  0  0  0  0  0  0
   30.0727  -19.7098  -19.1378 C   0  0  0  0  0  0  0  0  0  0  0  0
   29.3060  -18.8331  -18.4500 N   0  0  0  0  0  0  0  0  0  0  0  0
   25.8898  -19.7221  -14.9519 C   0  0  0  0  0  0  0  0  0  0  0  0
   25.0489  -18.8031  -15.1261 O   0  0  0  0  0  0  0  0  0  0  0  0
   23.1025  -19.8301  -14.2800 C   0  0  0  0  0  0  0  0  0  0  0  0
   23.6157  -20.5697  -13.0844 C   0  0  1  0  0  0  0  0  0  0  0  0
   23.6847  -21.9420  -13.2708 O   0  0  0  0  0  0  0  0  0  0  0  0
   24.9996  -20.0969  -12.6549 C   0  0  2  0  0  0  0  0  0  0  0  0
   25.9854  -20.3197  -13.6649 N   0  0  0  0  0  0  0  0  0  0  0  0
   25.3051  -20.8146  -11.3855 C   0  0  0  0  0  0  0  0  0  0  0  0
   25.7979  -21.9699  -11.4375 O   0  0  0  0  0  0  0  0  0  0  0  0
   25.0642  -20.2511  -10.0959 N   0  0  0  0  0  0  0  0  0  0  0  0
   25.3400  -20.9524   -8.8690 C   0  0  1  0  0  0  0  0  0  0  0  0
   25.9934  -20.0474   -7.8363 C   0  0  0  0  0  0  0  0  0  0  0  0
   26.7776  -18.6881   -8.7470 S   0  0  0  0  0  0  0  0  0  0  0  0
   24.0752  -21.4714   -8.2993 C   0  0  0  0  0  0  0  0  0  0  0  0
   22.8907  -21.1885   -8.9408 O   0  0  0  0  0  0  0  0  0  0  0  0
   24.0553  -22.1587   -7.2524 O   0  0  0  0  0  0  0  0  0  0  0  0
  2  3  1  0
  2  1  1  6
  4  3  1  0
  5  4  2  0
  6  7  1  0
  6  5  1  0
  7  8  2  0
  8  4  1  0
  9 10  2  0
  9  2  1  0
 12 11  1  6
 12 14  1  0
 13 12  1  0
 14 15  1  6
 15  9  1  0
 16 14  1  0
 17 16  2  0
 18 16  1  0
 19 18  1  0
 20 21  1  0
 19 20  1  1
 22 23  1  0
 22 19  1  0
 24 22  2  0
M  END
$$$$
