HTC.pdb
     RDKit          3D

 24 24  0  0  1  0  0  0  0  0999 V2000
   26.1387  -15.4334  -18.6383 N   0  0  0  0  0  0  0  0  0  0  0  0
   26.3905  -14.0432  -18.8587 C   0  0  1  0  0  0  0  0  0  0  0  0
   25.6738  -13.6116  -20.1213 C   0  0  0  0  0  0  0  0  0  0  0  0
   26.2329  -14.4213  -21.2473 C   0  0  0  0  0  0  0  0  0  0  0  0
   27.3663  -14.1014  -21.9954 C   0  0  0  0  0  0  0  0  0  0  0  0
   27.5657  -15.0564  -22.9182 N   0  0  0  0  0  0  0  0  0  0  0  0
   26.5833  -15.9574  -22.7576 C   0  0  0  0  0  0  0  0  0  0  0  0
   25.7756  -15.5711  -21.7438 N   0  0  0  0  0  0  0  0  0  0  0  0
   25.9449  -13.2003  -17.7062 C   0  0  0  0  0  0  0  0  0  0  0  0
   25.9460  -13.6938  -16.5493 O   0  0  0  0  0  0  0  0  0  0  0  0
   27.4682  -11.9363  -15.6711 C   0  0  0  0  0  0  0  0  0  0  0  0
   26.7942  -10.6825  -16.1336 C   0  0  1  0  0  0  0  0  0  0  0  0
   27.5423   -9.9579  -17.0490 O   0  0  0  0  0  0  0  0  0  0  0  0
   25.4333  -10.9502  -16.7658 C   0  0  2  0  0  0  0  0  0  0  0  0
   25.5174  -11.8538  -17.8694 N   0  0  0  0  0  0  0  0  0  0  0  0
   24.8896   -9.6183  -17.1536 C   0  0  0  0  0  0  0  0  0  0  0  0
   25.3520   -9.0392  -18.1689 O   0  0  0  0  0  0  0  0  0  0  0  0
   23.8570   -8.9568  -16.4224 N   0  0  0  0  0  0  0  0  0  0  0  0
   23.1985   -7.7672  -16.8962 C   0  0  1  0  0  0  0  0  0  0  0  0
   21.7859   -7.6470  -16.3461 C   0  0  0  0  0  0  0  0  0  0  0  0
   20.9333   -9.1998  -16.7384 S   0  0  0  0  0  0  0  0  0  0  0  0
   23.9660   -6.5734  -16.4726 C   0  0  0  0  0  0  0  0  0  0  0  0
   23.5842   -5.3363  -16.9399 O   0  0  0  0  0  0  0  0  0  0  0  0
   24.9502   -6.6598  -15.7027 O   0  0  0  0  0  0  0  0  0  0  0  0
  2  3  1  0
  2  1  1  1
  4  3  1  0
  5  4  2  0
  6  7  1  0
  6  5  1  0
  7  8  2  0
  8  4  1  0
  9 10  2  0
  9  2  1  0
 12 11  1  6
 12 14  1  0
 13 12  1  0
 14 15  1  6
 15  9  1  0
 16 14  1  0
 17 16  2  0
 18 16  1  0
 19 18  1  0
 20 21  1  0
 19 20  1  1
 22 23  1  0
 22 19  1  0
 24 22  2  0
M  END
$$$$
