HTC.pdb
     RDKit          3D

 24 24  0  0  1  0  0  0  0  0999 V2000
   13.9783   -6.8497   -9.7184 N   0  0  0  0  0  0  0  0  0  0  0  0
   15.1648   -6.1375  -10.0780 C   0  0  1  0  0  0  0  0  0  0  0  0
   16.0748   -6.0635   -8.8695 C   0  0  0  0  0  0  0  0  0  0  0  0
   15.3756   -5.2370   -7.8380 C   0  0  0  0  0  0  0  0  0  0  0  0
   15.1234   -3.8676   -7.9264 C   0  0  0  0  0  0  0  0  0  0  0  0
   14.4782   -3.4688   -6.8182 N   0  0  0  0  0  0  0  0  0  0  0  0
   14.3262   -4.5584   -6.0487 C   0  0  0  0  0  0  0  0  0  0  0  0
   14.8709   -5.6303   -6.6683 N   0  0  0  0  0  0  0  0  0  0  0  0
   15.8849   -6.7824  -11.2194 C   0  0  0  0  0  0  0  0  0  0  0  0
   15.8627   -8.0352  -11.3289 O   0  0  0  0  0  0  0  0  0  0  0  0
   15.5532   -5.6549  -15.0203 C   0  0  0  0  0  0  0  0  0  0  0  0
   16.9847   -5.7746  -14.6004 C   0  0  1  0  0  0  0  0  0  0  0  0
   17.5903   -4.5533  -14.3461 O   0  0  0  0  0  0  0  0  0  0  0  0
   17.1582   -6.6383  -13.3565 C   0  0  2  0  0  0  0  0  0  0  0  0
   16.5983   -6.0287  -12.1918 N   0  0  0  0  0  0  0  0  0  0  0  0
   18.6216   -6.8869  -13.2279 C   0  0  0  0  0  0  0  0  0  0  0  0
   19.2168   -6.5187  -12.1837 O   0  0  0  0  0  0  0  0  0  0  0  0
   19.3934   -7.5302  -14.2423 N   0  0  0  0  0  0  0  0  0  0  0  0
   20.8009   -7.8009  -14.1044 C   0  0  1  0  0  0  0  0  0  0  0  0
   21.0650   -9.2619  -13.7756 C   0  0  0  0  0  0  0  0  0  0  0  0
   22.8629   -9.4990  -13.8345 S   0  0  0  0  0  0  0  0  0  0  0  0
   21.4948   -7.4763  -15.3719 C   0  0  0  0  0  0  0  0  0  0  0  0
   20.8870   -7.7967  -16.5646 O   0  0  0  0  0  0  0  0  0  0  0  0
   22.6168   -6.9197  -15.3870 O   0  0  0  0  0  0  0  0  0  0  0  0
  2  3  1  0
  2  1  1  1
  4  3  1  0
  5  4  2  0
  6  7  1  0
  6  5  1  0
  7  8  2  0
  8  4  1  0
  9 10  2  0
  9  2  1  0
 12 11  1  1
 12 14  1  0
 13 12  1  0
 14 15  1  1
 15  9  1  0
 16 14  1  0
 17 16  2  0
 18 16  1  0
 19 18  1  0
 20 21  1  0
 19 20  1  6
 22 23  1  0
 22 19  1  0
 24 22  2  0
M  END
$$$$
