HTC.pdb
     RDKit          3D

 24 24  0  0  1  0  0  0  0  0999 V2000
   21.1784  -12.5702  -18.0258 N   0  0  0  0  0  0  0  0  0  0  0  0
   20.4156  -12.0657  -16.9267 C   0  0  1  0  0  0  0  0  0  0  0  0
   20.3761  -13.1167  -15.8367 C   0  0  0  0  0  0  0  0  0  0  0  0
   19.6105  -14.2836  -16.3736 C   0  0  0  0  0  0  0  0  0  0  0  0
   18.2265  -14.3417  -16.5406 C   0  0  0  0  0  0  0  0  0  0  0  0
   17.8964  -15.5417  -17.0451 N   0  0  0  0  0  0  0  0  0  0  0  0
   19.0426  -16.2250  -17.1934 C   0  0  0  0  0  0  0  0  0  0  0  0
   20.0816  -15.4608  -16.7858 N   0  0  0  0  0  0  0  0  0  0  0  0
   20.9819  -10.7914  -16.3856 C   0  0  0  0  0  0  0  0  0  0  0  0
   22.2192  -10.7116  -16.1741 O   0  0  0  0  0  0  0  0  0  0  0  0
   21.1354   -7.4976  -17.9736 C   0  0  0  0  0  0  0  0  0  0  0  0
   20.4553   -7.2883  -16.6569 C   0  0  1  0  0  0  0  0  0  0  0  0
   19.0791   -7.1546  -16.7605 O   0  0  0  0  0  0  0  0  0  0  0  0
   20.7316   -8.4175  -15.6710 C   0  0  2  0  0  0  0  0  0  0  0  0
   20.1700   -9.6595  -16.0992 N   0  0  0  0  0  0  0  0  0  0  0  0
   20.1885   -7.9626  -14.3603 C   0  0  0  0  0  0  0  0  0  0  0  0
   19.1945   -8.5551  -13.8694 O   0  0  0  0  0  0  0  0  0  0  0  0
   20.7456   -6.8743  -13.6229 N   0  0  0  0  0  0  0  0  0  0  0  0
   20.1459   -6.3506  -12.4232 C   0  0  1  0  0  0  0  0  0  0  0  0
   20.6954   -7.0259  -11.1764 C   0  0  0  0  0  0  0  0  0  0  0  0
   19.8080   -6.3202   -9.7599 S   0  0  0  0  0  0  0  0  0  0  0  0
   20.4200   -4.8984  -12.3250 C   0  0  0  0  0  0  0  0  0  0  0  0
   19.4368   -4.0668  -11.8388 O   0  0  0  0  0  0  0  0  0  0  0  0
   21.5195   -4.4087  -12.6716 O   0  0  0  0  0  0  0  0  0  0  0  0
  2  3  1  0
  2  1  1  6
  4  3  1  0
  5  4  2  0
  6  7  1  0
  6  5  1  0
  7  8  2  0
  8  4  1  0
  9 10  2  0
  9  2  1  0
 12 11  1  6
 12 14  1  0
 13 12  1  0
 14 15  1  6
 15  9  1  0
 16 14  1  0
 17 16  2  0
 18 16  1  0
 19 18  1  0
 20 21  1  0
 19 20  1  1
 22 23  1  0
 22 19  1  0
 24 22  2  0
M  END
$$$$
