HTC.pdb
     RDKit          3D

 24 24  0  0  1  0  0  0  0  0999 V2000
   15.6464  -12.0377  -16.0676 N   0  0  0  0  0  0  0  0  0  0  0  0
   16.7684  -11.5763  -15.3110 C   0  0  1  0  0  0  0  0  0  0  0  0
   17.9251  -12.5313  -15.5216 C   0  0  0  0  0  0  0  0  0  0  0  0
   17.5271  -13.8465  -14.9319 C   0  0  0  0  0  0  0  0  0  0  0  0
   17.1582  -14.9831  -15.6521 C   0  0  0  0  0  0  0  0  0  0  0  0
   16.8675  -15.9718  -14.7910 N   0  0  0  0  0  0  0  0  0  0  0  0
   17.0481  -15.4730  -13.5577 C   0  0  0  0  0  0  0  0  0  0  0  0
   17.4482  -14.1838  -13.6444 N   0  0  0  0  0  0  0  0  0  0  0  0
   17.1758  -10.1896  -15.6962 C   0  0  0  0  0  0  0  0  0  0  0  0
   17.3172   -9.9082  -16.9139 O   0  0  0  0  0  0  0  0  0  0  0  0
   15.4901   -7.0861  -15.8883 C   0  0  0  0  0  0  0  0  0  0  0  0
   16.6047   -6.8616  -14.9151 C   0  0  1  0  0  0  0  0  0  0  0  0
   16.2077   -6.9508  -13.5895 O   0  0  0  0  0  0  0  0  0  0  0  0
   17.7583   -7.8381  -15.1131 C   0  0  2  0  0  0  0  0  0  0  0  0
   17.4110   -9.1707  -14.7323 N   0  0  0  0  0  0  0  0  0  0  0  0
   18.8992   -7.2939  -14.3243 C   0  0  0  0  0  0  0  0  0  0  0  0
   19.3166   -7.9353  -13.3271 O   0  0  0  0  0  0  0  0  0  0  0  0
   19.5517   -6.0654  -14.6463 N   0  0  0  0  0  0  0  0  0  0  0  0
   20.6312   -5.5216  -13.8639 C   0  0  1  0  0  0  0  0  0  0  0  0
   21.9466   -6.2296  -14.1480 C   0  0  0  0  0  0  0  0  0  0  0  0
   23.2255   -5.3706  -13.1895 S   0  0  0  0  0  0  0  0  0  0  0  0
   20.7983   -4.0845  -14.1807 C   0  0  0  0  0  0  0  0  0  0  0  0
   21.4850   -3.2834  -13.2969 O   0  0  0  0  0  0  0  0  0  0  0  0
   20.3325   -3.5806  -15.2286 O   0  0  0  0  0  0  0  0  0  0  0  0
  2  3  1  0
  2  1  1  6
  4  3  1  0
  5  4  2  0
  6  7  1  0
  6  5  1  0
  7  8  2  0
  8  4  1  0
  9 10  2  0
  9  2  1  0
 12 11  1  6
 12 14  1  0
 13 12  1  0
 14 15  1  1
 15  9  1  0
 16 14  1  0
 17 16  2  0
 18 16  1  0
 19 18  1  0
 20 21  1  0
 19 20  1  6
 22 23  1  0
 22 19  1  0
 24 22  2  0
M  END
$$$$
