HTC.pdb
     RDKit          3D

 24 24  0  0  1  0  0  0  0  0999 V2000
   18.4584  -11.2820  -15.6090 N   0  0  0  0  0  0  0  0  0  0  0  0
   17.4329  -10.4291  -15.0940 C   0  0  1  0  0  0  0  0  0  0  0  0
   16.1882  -11.2563  -14.8476 C   0  0  0  0  0  0  0  0  0  0  0  0
   15.6423  -11.6449  -16.1844 C   0  0  0  0  0  0  0  0  0  0  0  0
   14.8180  -10.8561  -16.9875 C   0  0  0  0  0  0  0  0  0  0  0  0
   14.5274  -11.5302  -18.1120 N   0  0  0  0  0  0  0  0  0  0  0  0
   15.1523  -12.7152  -18.0222 C   0  0  0  0  0  0  0  0  0  0  0  0
   15.8282  -12.7836  -16.8526 N   0  0  0  0  0  0  0  0  0  0  0  0
   17.8496   -9.7465  -13.8300 C   0  0  0  0  0  0  0  0  0  0  0  0
   18.4486  -10.4090  -12.9445 O   0  0  0  0  0  0  0  0  0  0  0  0
   20.4465   -7.4612  -13.0243 C   0  0  0  0  0  0  0  0  0  0  0  0
   19.1818   -6.7546  -12.6485 C   0  0  1  0  0  0  0  0  0  0  0  0
   18.7568   -5.8386  -13.5989 O   0  0  0  0  0  0  0  0  0  0  0  0
   18.0281   -7.7177  -12.3944 C   0  0  2  0  0  0  0  0  0  0  0  0
   17.5929   -8.3685  -13.5896 N   0  0  0  0  0  0  0  0  0  0  0  0
   16.9511   -6.9114  -11.7543 C   0  0  0  0  0  0  0  0  0  0  0  0
   16.0483   -6.4133  -12.4733 O   0  0  0  0  0  0  0  0  0  0  0  0
   16.8902   -6.6717  -10.3481 N   0  0  0  0  0  0  0  0  0  0  0  0
   15.8739   -5.8572   -9.7341 C   0  0  1  0  0  0  0  0  0  0  0  0
   15.8871   -5.9852   -8.2189 C   0  0  0  0  0  0  0  0  0  0  0  0
   15.5394   -7.7238   -7.8335 S   0  0  0  0  0  0  0  0  0  0  0  0
   16.0999   -4.4356  -10.0829 C   0  0  0  0  0  0  0  0  0  0  0  0
   17.2784   -4.0806  -10.6992 O   0  0  0  0  0  0  0  0  0  0  0  0
   15.2495   -3.5508   -9.8326 O   0  0  0  0  0  0  0  0  0  0  0  0
  2  3  1  0
  2  1  1  1
  4  3  1  0
  5  4  2  0
  6  7  1  0
  6  5  1  0
  7  8  2  0
  8  4  1  0
  9 10  2  0
  9  2  1  0
 12 11  1  6
 12 14  1  0
 13 12  1  0
 14 15  1  6
 15  9  1  0
 16 14  1  0
 17 16  2  0
 18 16  1  0
 19 18  1  0
 20 21  1  0
 19 20  1  1
 22 23  1  0
 22 19  1  0
 24 22  2  0
M  END
$$$$
