HTC.pdb
     RDKit          3D

 24 24  0  0  1  0  0  0  0  0999 V2000
   19.5324  -13.4830  -16.5312 N   0  0  0  0  0  0  0  0  0  0  0  0
   19.8885  -12.3422  -17.3161 C   0  0  1  0  0  0  0  0  0  0  0  0
   19.0232  -12.3156  -18.5591 C   0  0  0  0  0  0  0  0  0  0  0  0
   19.3666  -13.5279  -19.3643 C   0  0  0  0  0  0  0  0  0  0  0  0
   20.6205  -14.1368  -19.4242 C   0  0  0  0  0  0  0  0  0  0  0  0
   20.5535  -15.1972  -20.2455 N   0  0  0  0  0  0  0  0  0  0  0  0
   19.2893  -15.2572  -20.6935 C   0  0  0  0  0  0  0  0  0  0  0  0
   18.5703  -14.2442  -20.1583 N   0  0  0  0  0  0  0  0  0  0  0  0
   19.7288  -11.0636  -16.5566 C   0  0  0  0  0  0  0  0  0  0  0  0
   18.7142  -10.9046  -15.8305 O   0  0  0  0  0  0  0  0  0  0  0  0
   21.2344   -9.5906  -13.6582 C   0  0  0  0  0  0  0  0  0  0  0  0
   21.4923   -8.6240  -14.7714 C   0  0  1  0  0  0  0  0  0  0  0  0
   22.7697   -8.7201  -15.3023 O   0  0  0  0  0  0  0  0  0  0  0  0
   20.5060   -8.7826  -15.9227 C   0  0  2  0  0  0  0  0  0  0  0  0
   20.6862  -10.0142  -16.6242 N   0  0  0  0  0  0  0  0  0  0  0  0
   20.6965   -7.5905  -16.7960 C   0  0  0  0  0  0  0  0  0  0  0  0
   21.5006   -7.6586  -17.7598 O   0  0  0  0  0  0  0  0  0  0  0  0
   20.0041   -6.3585  -16.5926 N   0  0  0  0  0  0  0  0  0  0  0  0
   20.1116   -5.2400  -17.4928 C   0  0  1  0  0  0  0  0  0  0  0  0
   18.7594   -4.5968  -17.7577 C   0  0  0  0  0  0  0  0  0  0  0  0
   17.7115   -5.8669  -18.5197 S   0  0  0  0  0  0  0  0  0  0  0  0
   21.0071   -4.2161  -16.9068 C   0  0  0  0  0  0  0  0  0  0  0  0
   21.3616   -3.1266  -17.6696 O   0  0  0  0  0  0  0  0  0  0  0  0
   21.4489   -4.3153  -15.7390 O   0  0  0  0  0  0  0  0  0  0  0  0
  2  3  1  0
  2  1  1  1
  4  3  1  0
  5  4  2  0
  6  7  1  0
  6  5  1  0
  7  8  2  0
  8  4  1  0
  9 10  2  0
  9  2  1  0
 12 11  1  1
 12 14  1  0
 13 12  1  0
 14 15  1  6
 15  9  1  0
 16 14  1  0
 17 16  2  0
 18 16  1  0
 19 18  1  0
 20 21  1  0
 19 20  1  1
 22 23  1  0
 22 19  1  0
 24 22  2  0
M  END
$$$$
