HTC.pdb
     RDKit          3D

 24 24  0  0  1  0  0  0  0  0999 V2000
   24.2290  -13.0689  -18.6203 N   0  0  0  0  0  0  0  0  0  0  0  0
   24.4598  -12.1617  -17.5395 C   0  0  1  0  0  0  0  0  0  0  0  0
   25.9535  -12.0173  -17.3341 C   0  0  0  0  0  0  0  0  0  0  0  0
   26.4847  -13.3688  -16.9777 C   0  0  0  0  0  0  0  0  0  0  0  0
   26.4756  -13.9367  -15.7033 C   0  0  0  0  0  0  0  0  0  0  0  0
   27.0340  -15.1566  -15.7636 N   0  0  0  0  0  0  0  0  0  0  0  0
   27.3872  -15.3549  -17.0436 C   0  0  0  0  0  0  0  0  0  0  0  0
   27.0535  -14.2699  -17.7791 N   0  0  0  0  0  0  0  0  0  0  0  0
   23.8477  -10.8200  -17.7895 C   0  0  0  0  0  0  0  0  0  0  0  0
   24.1373  -10.2013  -18.8456 O   0  0  0  0  0  0  0  0  0  0  0  0
   20.2931  -10.0347  -18.3779 C   0  0  0  0  0  0  0  0  0  0  0  0
   20.7392   -9.1987  -17.2193 C   0  0  1  0  0  0  0  0  0  0  0  0
   20.3598   -9.7122  -15.9884 O   0  0  0  0  0  0  0  0  0  0  0  0
   22.2507   -9.0047  -17.1870 C   0  0  2  0  0  0  0  0  0  0  0  0
   22.9451  -10.2133  -16.8731 N   0  0  0  0  0  0  0  0  0  0  0  0
   22.5063   -7.9212  -16.1966 C   0  0  0  0  0  0  0  0  0  0  0  0
   22.9070   -8.2254  -15.0447 O   0  0  0  0  0  0  0  0  0  0  0  0
   22.3172   -6.5372  -16.4917 N   0  0  0  0  0  0  0  0  0  0  0  0
   22.5894   -5.4883  -15.5436 C   0  0  1  0  0  0  0  0  0  0  0  0
   22.4123   -4.1098  -16.1606 C   0  0  0  0  0  0  0  0  0  0  0  0
   22.8044   -2.8989  -14.8676 S   0  0  0  0  0  0  0  0  0  0  0  0
   21.6627   -5.6061  -14.3941 C   0  0  0  0  0  0  0  0  0  0  0  0
   22.1344   -5.3397  -13.1288 O   0  0  0  0  0  0  0  0  0  0  0  0
   20.4649   -5.9407  -14.5429 O   0  0  0  0  0  0  0  0  0  0  0  0
  2  3  1  0
  2  1  1  6
  4  3  1  0
  5  4  2  0
  6  7  1  0
  6  5  1  0
  7  8  2  0
  8  4  1  0
  9 10  2  0
  9  2  1  0
 12 11  1  6
 12 14  1  0
 13 12  1  0
 14 15  1  1
 15  9  1  0
 16 14  1  0
 17 16  2  0
 18 16  1  0
 19 18  1  0
 20 21  1  0
 19 20  1  6
 22 23  1  0
 22 19  1  0
 24 22  2  0
M  END
$$$$
