HTC.pdb
     RDKit          3D

 24 24  0  0  1  0  0  0  0  0999 V2000
   19.2683  -13.4417  -17.1943 N   0  0  0  0  0  0  0  0  0  0  0  0
   19.0144  -12.0346  -17.1999 C   0  0  1  0  0  0  0  0  0  0  0  0
   17.8229  -11.7500  -16.3092 C   0  0  0  0  0  0  0  0  0  0  0  0
   16.6351  -12.4102  -16.9332 C   0  0  0  0  0  0  0  0  0  0  0  0
   16.0421  -12.0439  -18.1419 C   0  0  0  0  0  0  0  0  0  0  0  0
   15.0020  -12.8583  -18.3837 N   0  0  0  0  0  0  0  0  0  0  0  0
   14.9391  -13.7177  -17.3541 C   0  0  0  0  0  0  0  0  0  0  0  0
   15.9301  -13.4448  -16.4750 N   0  0  0  0  0  0  0  0  0  0  0  0
   20.1978  -11.2467  -16.7352 C   0  0  0  0  0  0  0  0  0  0  0  0
   20.9097  -11.7018  -15.8035 O   0  0  0  0  0  0  0  0  0  0  0  0
   23.2557  -10.1051  -18.7024 C   0  0  0  0  0  0  0  0  0  0  0  0
   22.6134   -8.9085  -18.0733 C   0  0  1  0  0  0  0  0  0  0  0  0
   21.8519   -8.1605  -18.9584 O   0  0  0  0  0  0  0  0  0  0  0  0
   21.7163   -9.2777  -16.8977 C   0  0  2  0  0  0  0  0  0  0  0  0
   20.5513   -9.9948  -17.3100 N   0  0  0  0  0  0  0  0  0  0  0  0
   21.3894   -7.9969  -16.2103 C   0  0  0  0  0  0  0  0  0  0  0  0
   20.3152   -7.4072  -16.4907 O   0  0  0  0  0  0  0  0  0  0  0  0
   22.2439   -7.3964  -15.2368 N   0  0  0  0  0  0  0  0  0  0  0  0
   22.0237   -6.0758  -14.7071 C   0  0  1  0  0  0  0  0  0  0  0  0
   22.1624   -6.0445  -13.1931 C   0  0  0  0  0  0  0  0  0  0  0  0
   21.8511   -4.3353  -12.6702 S   0  0  0  0  0  0  0  0  0  0  0  0
   23.0143   -5.1383  -15.2846 C   0  0  0  0  0  0  0  0  0  0  0  0
   22.6158   -3.8588  -15.5984 O   0  0  0  0  0  0  0  0  0  0  0  0
   24.2015   -5.4783  -15.4941 O   0  0  0  0  0  0  0  0  0  0  0  0
  2  3  1  0
  2  1  1  1
  4  3  1  0
  5  4  2  0
  6  7  1  0
  6  5  1  0
  7  8  2  0
  8  4  1  0
  9 10  2  0
  9  2  1  0
 12 11  1  6
 12 14  1  0
 13 12  1  0
 14 15  1  6
 15  9  1  0
 16 14  1  0
 17 16  2  0
 18 16  1  0
 19 18  1  0
 20 21  1  0
 19 20  1  1
 22 23  1  0
 22 19  1  0
 24 22  2  0
M  END
$$$$
