DRE.pdb
     RDKit          3D

 29 28  0  0  1  0  0  0  0  0999 V2000
   26.6631  -23.1623  -17.5741 N   0  0  0  0  0  0  0  0  0  0  0  0
   26.6533  -21.9186  -16.8349 C   0  0  1  0  0  0  0  0  0  0  0  0
   26.3714  -20.7218  -17.7282 C   0  0  0  0  0  0  0  0  0  0  0  0
   27.4734  -20.4606  -18.6886 C   0  0  0  0  0  0  0  0  0  0  0  0
   27.3466  -20.7568  -19.9250 O   0  0  0  0  0  0  0  0  0  0  0  0
   25.7316  -21.9653  -15.6826 C   0  0  0  0  0  0  0  0  0  0  0  0
   24.6771  -22.6388  -15.8182 O   0  0  0  0  0  0  0  0  0  0  0  0
   28.6693  -19.9010  -18.3307 O   0  0  0  0  0  0  0  0  0  0  0  0
   22.3088  -19.8005   -9.2417 N   0  0  0  0  0  0  0  0  0  0  0  0
   22.9010  -20.7687   -8.3644 C   0  0  0  0  0  0  0  0  0  0  0  0
   22.2045  -21.1937   -7.3685 N   0  0  0  0  0  0  0  0  0  0  0  0
   24.2072  -21.2555   -8.5681 N   0  0  0  0  0  0  0  0  0  0  0  0
   25.0790  -20.7723   -9.6243 C   0  0  0  0  0  0  0  0  0  0  0  0
   24.4750  -20.9913  -10.9889 C   0  0  0  0  0  0  0  0  0  0  0  0
   25.5320  -21.0820  -12.0551 C   0  0  0  0  0  0  0  0  0  0  0  0
   24.9671  -21.3438  -13.4220 C   0  0  2  0  0  0  0  0  0  0  0  0
   25.9739  -21.2998  -14.4556 N   0  0  0  0  0  0  0  0  0  0  0  0
   23.8641  -20.4104  -13.7694 C   0  0  0  0  0  0  0  0  0  0  0  0
   24.0916  -19.1787  -13.8414 O   0  0  0  0  0  0  0  0  0  0  0  0
   22.6035  -21.8675   -6.6984 N   0  0  0  0  0  0  0  0  0  0  0  0
   22.5585  -20.8769  -14.0222 C   0  0  2  0  0  0  0  0  0  0  0  0
   21.4301  -19.9654  -14.3281 C   0  0  0  0  0  0  0  0  0  0  0  0
   20.6571  -20.6170  -15.4453 C   0  0  0  0  0  0  0  0  0  0  0  0
   21.4186  -20.8646  -16.6960 C   0  0  0  0  0  0  0  0  0  0  0  0
   20.5287  -21.5022  -17.7221 O   0  0  0  0  0  0  0  0  0  0  0  0
   19.3482  -21.7530  -17.3912 C   0  0  0  0  0  0  0  0  0  0  0  0
   20.5720  -19.8230  -13.1355 O   0  0  0  0  0  0  0  0  0  0  0  0
   20.4985  -20.7342  -12.2846 O   0  0  0  0  0  0  0  0  0  0  0  0
   20.9624  -21.8161  -18.9988 O   0  0  0  0  0  0  0  0  0  0  0  0
  2  1  1  6
  2  3  1  0
  3  4  1  0
  4  8  1  0
  5  4  2  0
  6  2  1  0
  7  6  2  0
 10  9  1  0
 10 12  1  0
 11 10  2  0
 12 13  1  0
 13 14  1  0
 16 15  1  1
 15 14  1  0
 16 17  1  0
 17  6  1  0
 18 20  1  0
 18 16  1  0
 19 18  2  0
 21 26  1  0
 21 20  1  0
 21 22  1  6
 23 22  1  0
 23 24  1  0
 24 25  2  0
 26 29  1  0
 27 26  2  0
 28 24  1  0
M  END
$$$$
