DRE.pdb
     RDKit          3D

 29 28  0  0  1  0  0  0  0  0999 V2000
   28.2077  -19.9828  -20.0889 N   0  0  0  0  0  0  0  0  0  0  0  0
   28.0027  -19.0749  -18.9813 C   0  0  1  0  0  0  0  0  0  0  0  0
   27.3219  -17.7866  -19.4132 C   0  0  0  0  0  0  0  0  0  0  0  0
   28.2374  -16.8848  -20.1572 C   0  0  0  0  0  0  0  0  0  0  0  0
   29.5047  -17.0174  -20.0628 O   0  0  0  0  0  0  0  0  0  0  0  0
   27.2873  -19.7182  -17.8615 C   0  0  0  0  0  0  0  0  0  0  0  0
   26.4860  -20.6450  -18.1494 O   0  0  0  0  0  0  0  0  0  0  0  0
   27.8043  -15.8760  -20.9734 O   0  0  0  0  0  0  0  0  0  0  0  0
   24.1682  -20.3217  -11.5107 N   0  0  0  0  0  0  0  0  0  0  0  0
   25.0845  -20.5752  -10.4365 C   0  0  0  0  0  0  0  0  0  0  0  0
   24.7038  -20.3076   -9.2361 N   0  0  0  0  0  0  0  0  0  0  0  0
   26.3705  -21.1028  -10.6655 N   0  0  0  0  0  0  0  0  0  0  0  0
   27.2322  -20.6540  -11.7450 C   0  0  0  0  0  0  0  0  0  0  0  0
   26.4848  -20.5593  -13.0516 C   0  0  0  0  0  0  0  0  0  0  0  0
   27.3672  -20.0538  -14.1599 C   0  0  0  0  0  0  0  0  0  0  0  0
   26.6735  -20.0135  -15.4915 C   0  0  2  0  0  0  0  0  0  0  0  0
   27.4570  -19.3476  -16.5047 N   0  0  0  0  0  0  0  0  0  0  0  0
   25.3305  -19.3818  -15.4138 C   0  0  0  0  0  0  0  0  0  0  0  0
   25.2327  -18.1608  -15.1428 O   0  0  0  0  0  0  0  0  0  0  0  0
   25.3427  -20.4470   -8.4394 N   0  0  0  0  0  0  0  0  0  0  0  0
   24.1545  -20.1251  -15.6386 C   0  0  2  0  0  0  0  0  0  0  0  0
   22.8034  -19.5175  -15.5851 C   0  0  0  0  0  0  0  0  0  0  0  0
   21.9182  -20.3904  -16.4364 C   0  0  0  0  0  0  0  0  0  0  0  0
   20.5188  -19.9215  -16.6015 C   0  0  0  0  0  0  0  0  0  0  0  0
   19.7574  -20.8735  -17.4764 O   0  0  0  0  0  0  0  0  0  0  0  0
   20.3581  -21.8919  -17.8864 C   0  0  0  0  0  0  0  0  0  0  0  0
   22.3182  -19.5124  -14.1909 O   0  0  0  0  0  0  0  0  0  0  0  0
   22.6782  -20.3934  -13.3823 O   0  0  0  0  0  0  0  0  0  0  0  0
   18.4373  -20.6662  -17.8381 O   0  0  0  0  0  0  0  0  0  0  0  0
  2  1  1  6
  2  3  1  0
  3  4  1  0
  4  8  1  0
  5  4  2  0
  6  2  1  0
  7  6  2  0
 10  9  1  0
 10 12  1  0
 11 10  2  0
 12 13  1  0
 13 14  1  0
 16 15  1  1
 15 14  1  0
 16 17  1  0
 17  6  1  0
 18 20  1  0
 18 16  1  0
 19 18  2  0
 21 26  1  0
 21 20  1  0
 21 22  1  6
 23 22  1  0
 23 24  1  0
 24 25  2  0
 26 29  1  0
 27 26  2  0
 28 24  1  0
M  END
$$$$
