DRE.pdb
     RDKit          3D

 29 28  0  0  1  0  0  0  0  0999 V2000
   15.6444  -11.8698  -15.4432 N   0  0  0  0  0  0  0  0  0  0  0  0
   16.4119  -11.7525  -14.2224 C   0  0  1  0  0  0  0  0  0  0  0  0
   17.7850  -12.3927  -14.3435 C   0  0  0  0  0  0  0  0  0  0  0  0
   17.7161  -13.8754  -14.3864 C   0  0  0  0  0  0  0  0  0  0  0  0
   16.6452  -14.4897  -14.0571 O   0  0  0  0  0  0  0  0  0  0  0  0
   16.5036  -10.3546  -13.7568 C   0  0  0  0  0  0  0  0  0  0  0  0
   16.8074   -9.4834  -14.6128 O   0  0  0  0  0  0  0  0  0  0  0  0
   18.7628  -14.6685  -14.7696 O   0  0  0  0  0  0  0  0  0  0  0  0
   12.8742   -7.3260   -6.9753 N   0  0  0  0  0  0  0  0  0  0  0  0
   14.0987   -6.5894   -7.1020 C   0  0  0  0  0  0  0  0  0  0  0  0
   14.4203   -5.7767   -6.1568 N   0  0  0  0  0  0  0  0  0  0  0  0
   14.9417   -6.7360   -8.2212 N   0  0  0  0  0  0  0  0  0  0  0  0
   14.5590   -6.3306   -9.5622 C   0  0  0  0  0  0  0  0  0  0  0  0
   15.6060   -6.7108  -10.5791 C   0  0  0  0  0  0  0  0  0  0  0  0
   15.5950   -8.1882  -10.8607 C   0  0  0  0  0  0  0  0  0  0  0  0
   16.4111   -8.5632  -12.0646 C   0  0  2  0  0  0  0  0  0  0  0  0
   16.2709   -9.9559  -12.4173 N   0  0  0  0  0  0  0  0  0  0  0  0
   17.8522   -8.2406  -11.8973 C   0  0  0  0  0  0  0  0  0  0  0  0
   18.5545   -8.9221  -11.1122 O   0  0  0  0  0  0  0  0  0  0  0  0
   15.2970   -5.2367   -6.2045 N   0  0  0  0  0  0  0  0  0  0  0  0
   18.4550   -7.1806  -12.6036 C   0  0  1  0  0  0  0  0  0  0  0  0
   19.9244   -7.0547  -12.7536 C   0  0  0  0  0  0  0  0  0  0  0  0
   20.3544   -8.1986  -13.6349 C   0  0  0  0  0  0  0  0  0  0  0  0
   21.7610   -8.1525  -14.1091 C   0  0  0  0  0  0  0  0  0  0  0  0
   22.0798   -9.3908  -14.8942 O   0  0  0  0  0  0  0  0  0  0  0  0
   21.2971  -10.3616  -14.7901 C   0  0  0  0  0  0  0  0  0  0  0  0
   20.2471   -5.7682  -13.4016 O   0  0  0  0  0  0  0  0  0  0  0  0
   19.3981   -5.1660  -14.0918 O   0  0  0  0  0  0  0  0  0  0  0  0
   23.1904   -9.4927  -15.7145 O   0  0  0  0  0  0  0  0  0  0  0  0
  2  1  1  6
  2  3  1  0
  3  4  1  0
  4  8  1  0
  5  4  2  0
  6  2  1  0
  7  6  2  0
 10  9  1  0
 10 12  1  0
 11 10  2  0
 12 13  1  0
 13 14  1  0
 16 15  1  1
 15 14  1  0
 16 17  1  0
 17  6  1  0
 18 20  1  0
 18 16  1  0
 19 18  2  0
 21 26  1  0
 21 20  1  0
 21 22  1  1
 23 22  1  0
 23 24  1  0
 24 25  2  0
 26 29  1  0
 27 26  2  0
 28 24  1  0
M  END
$$$$
