DRE.pdb
     RDKit          3D

 29 28  0  0  1  0  0  0  0  0999 V2000
   27.2376  -25.2010  -16.4460 N   0  0  0  0  0  0  0  0  0  0  0  0
   25.9099  -25.0764  -17.0071 C   0  0  1  0  0  0  0  0  0  0  0  0
   25.2316  -26.4251  -17.1826 C   0  0  0  0  0  0  0  0  0  0  0  0
   26.0394  -27.3620  -18.0038 C   0  0  0  0  0  0  0  0  0  0  0  0
   25.6564  -28.5671  -18.1875 O   0  0  0  0  0  0  0  0  0  0  0  0
   25.0672  -24.1409  -16.2362 C   0  0  0  0  0  0  0  0  0  0  0  0
   23.8869  -24.5016  -15.9899 O   0  0  0  0  0  0  0  0  0  0  0  0
   27.2178  -27.0144  -18.6054 O   0  0  0  0  0  0  0  0  0  0  0  0
   26.1354  -21.5148   -9.2673 N   0  0  0  0  0  0  0  0  0  0  0  0
   25.1657  -20.8384  -10.0797 C   0  0  0  0  0  0  0  0  0  0  0  0
   23.9976  -20.6251   -9.5821 N   0  0  0  0  0  0  0  0  0  0  0  0
   25.4617  -20.4100  -11.3886 N   0  0  0  0  0  0  0  0  0  0  0  0
   26.7152  -20.7098  -12.0579 C   0  0  0  0  0  0  0  0  0  0  0  0
   26.5040  -21.5782  -13.2729 C   0  0  0  0  0  0  0  0  0  0  0  0
   25.4157  -21.0372  -14.1590 C   0  0  0  0  0  0  0  0  0  0  0  0
   24.6661  -22.1124  -14.8925 C   0  0  2  0  0  0  0  0  0  0  0  0
   25.5164  -22.8806  -15.7704 N   0  0  0  0  0  0  0  0  0  0  0  0
   23.5159  -21.5767  -15.6663 C   0  0  0  0  0  0  0  0  0  0  0  0
   23.7143  -21.0373  -16.7814 O   0  0  0  0  0  0  0  0  0  0  0  0
   23.2540  -20.1971  -10.1531 N   0  0  0  0  0  0  0  0  0  0  0  0
   22.1974  -21.6597  -15.1757 C   0  0  2  0  0  0  0  0  0  0  0  0
   21.0343  -21.1146  -15.9157 C   0  0  0  0  0  0  0  0  0  0  0  0
   19.8130  -21.5169  -15.1302 C   0  0  0  0  0  0  0  0  0  0  0  0
   18.5097  -21.1059  -15.7114 C   0  0  0  0  0  0  0  0  0  0  0  0
   17.3848  -21.5863  -14.8423 O   0  0  0  0  0  0  0  0  0  0  0  0
   17.6806  -22.0872  -13.7343 C   0  0  0  0  0  0  0  0  0  0  0  0
   21.1332  -19.6431  -15.9781 O   0  0  0  0  0  0  0  0  0  0  0  0
   21.6122  -18.9907  -15.0270 O   0  0  0  0  0  0  0  0  0  0  0  0
   16.0556  -21.4953  -15.2187 O   0  0  0  0  0  0  0  0  0  0  0  0
  2  1  1  1
  2  3  1  0
  3  4  1  0
  4  8  1  0
  5  4  2  0
  6  2  1  0
  7  6  2  0
 10  9  1  0
 10 12  1  0
 11 10  2  0
 12 13  1  0
 13 14  1  0
 16 15  1  6
 15 14  1  0
 16 17  1  0
 17  6  1  0
 18 20  1  0
 18 16  1  0
 19 18  2  0
 21 26  1  0
 21 20  1  0
 21 22  1  1
 23 22  1  0
 23 24  1  0
 24 25  2  0
 26 29  1  0
 27 26  2  0
 28 24  1  0
M  END
$$$$
