DRE.pdb
     RDKit          3D

 29 28  0  0  1  0  0  0  0  0999 V2000
   20.3373  -21.3683  -13.6904 N   0  0  0  0  0  0  0  0  0  0  0  0
   20.0259  -20.4597  -14.7724 C   0  0  1  0  0  0  0  0  0  0  0  0
   18.7325  -19.6993  -14.5296 C   0  0  0  0  0  0  0  0  0  0  0  0
   17.5572  -20.6009  -14.4259 C   0  0  0  0  0  0  0  0  0  0  0  0
   17.6456  -21.8309  -14.7602 O   0  0  0  0  0  0  0  0  0  0  0  0
   21.1462  -19.5449  -15.0686 C   0  0  0  0  0  0  0  0  0  0  0  0
   20.8745  -18.4906  -15.6999 O   0  0  0  0  0  0  0  0  0  0  0  0
   16.3304  -20.1928  -13.9788 O   0  0  0  0  0  0  0  0  0  0  0  0
   27.0186  -20.5111  -11.8982 N   0  0  0  0  0  0  0  0  0  0  0  0
   27.6341  -20.6893  -13.1817 C   0  0  0  0  0  0  0  0  0  0  0  0
   28.1968  -21.8192  -13.4349 N   0  0  0  0  0  0  0  0  0  0  0  0
   27.6344  -19.6696  -14.1538 N   0  0  0  0  0  0  0  0  0  0  0  0
   27.1363  -18.3295  -13.8990 C   0  0  0  0  0  0  0  0  0  0  0  0
   25.8569  -18.0586  -14.6504 C   0  0  0  0  0  0  0  0  0  0  0  0
   24.7561  -18.9914  -14.2256 C   0  0  0  0  0  0  0  0  0  0  0  0
   23.5114  -18.8473  -15.0539 C   0  0  2  0  0  0  0  0  0  0  0  0
   22.4866  -19.7942  -14.6835 N   0  0  0  0  0  0  0  0  0  0  0  0
   23.7820  -18.9599  -16.5109 C   0  0  0  0  0  0  0  0  0  0  0  0
   23.9521  -20.0911  -17.0258 O   0  0  0  0  0  0  0  0  0  0  0  0
   28.6888  -21.9722  -14.3276 N   0  0  0  0  0  0  0  0  0  0  0  0
   23.8528  -17.8193  -17.3356 C   0  0  2  0  0  0  0  0  0  0  0  0
   24.1527  -17.8996  -18.7851 C   0  0  0  0  0  0  0  0  0  0  0  0
   23.7641  -16.5651  -19.3671 C   0  0  0  0  0  0  0  0  0  0  0  0
   24.0774  -16.3745  -20.8061 C   0  0  0  0  0  0  0  0  0  0  0  0
   23.6997  -14.9872  -21.2352 O   0  0  0  0  0  0  0  0  0  0  0  0
   23.1920  -14.2320  -20.3762 C   0  0  0  0  0  0  0  0  0  0  0  0
   25.5970  -18.1345  -18.9793 O   0  0  0  0  0  0  0  0  0  0  0  0
   26.4356  -17.6808  -18.1727 O   0  0  0  0  0  0  0  0  0  0  0  0
   23.8907  -14.5240  -22.5258 O   0  0  0  0  0  0  0  0  0  0  0  0
  2  1  1  1
  2  3  1  0
  3  4  1  0
  4  8  1  0
  5  4  2  0
  6  2  1  0
  7  6  2  0
 10  9  1  0
 10 12  1  0
 11 10  2  0
 12 13  1  0
 13 14  1  0
 16 15  1  1
 15 14  1  0
 16 17  1  0
 17  6  1  0
 18 20  1  0
 18 16  1  0
 19 18  2  0
 21 26  1  0
 21 20  1  0
 21 22  1  1
 23 22  1  0
 23 24  1  0
 24 25  2  0
 26 29  1  0
 27 26  2  0
 28 24  1  0
M  END
$$$$
