DRE.pdb
     RDKit          3D

 29 28  0  0  1  0  0  0  0  0999 V2000
   26.2963  -15.4840  -19.0076 N   0  0  0  0  0  0  0  0  0  0  0  0
   25.2023  -16.3852  -19.2981 C   0  0  1  0  0  0  0  0  0  0  0  0
   25.2891  -16.9598  -20.7025 C   0  0  0  0  0  0  0  0  0  0  0  0
   25.4394  -15.9052  -21.7369 C   0  0  0  0  0  0  0  0  0  0  0  0
   26.4606  -15.1372  -21.7437 O   0  0  0  0  0  0  0  0  0  0  0  0
   25.0754  -17.4494  -18.2828 C   0  0  0  0  0  0  0  0  0  0  0  0
   24.3969  -18.4623  -18.5950 O   0  0  0  0  0  0  0  0  0  0  0  0
   24.5230  -15.6847  -22.7284 O   0  0  0  0  0  0  0  0  0  0  0  0
   25.2501  -22.1227  -12.5995 N   0  0  0  0  0  0  0  0  0  0  0  0
   26.3950  -21.6150  -11.9000 C   0  0  0  0  0  0  0  0  0  0  0  0
   26.3196  -21.4883  -10.6210 N   0  0  0  0  0  0  0  0  0  0  0  0
   27.5799  -21.2589  -12.5737 N   0  0  0  0  0  0  0  0  0  0  0  0
   27.7078  -20.0521  -13.3713 C   0  0  0  0  0  0  0  0  0  0  0  0
   26.4549  -19.7722  -14.1629 C   0  0  0  0  0  0  0  0  0  0  0  0
   26.6874  -18.7252  -15.2175 C   0  0  0  0  0  0  0  0  0  0  0  0
   25.4828  -18.4837  -16.0816 C   0  0  2  0  0  0  0  0  0  0  0  0
   25.6698  -17.3844  -16.9984 N   0  0  0  0  0  0  0  0  0  0  0  0
   24.2487  -18.2560  -15.2855 C   0  0  0  0  0  0  0  0  0  0  0  0
   24.1759  -17.2631  -14.5221 O   0  0  0  0  0  0  0  0  0  0  0  0
   27.1392  -21.1855  -10.0744 N   0  0  0  0  0  0  0  0  0  0  0  0
   23.1491  -19.1337  -15.3667 C   0  0  2  0  0  0  0  0  0  0  0  0
   21.8771  -18.8888  -14.6460 C   0  0  0  0  0  0  0  0  0  0  0  0
   20.8110  -18.7780  -15.7050 C   0  0  0  0  0  0  0  0  0  0  0  0
   19.4182  -18.6512  -15.2056 C   0  0  0  0  0  0  0  0  0  0  0  0
   18.4546  -18.6858  -16.3552 O   0  0  0  0  0  0  0  0  0  0  0  0
   18.9304  -18.7803  -17.5087 C   0  0  0  0  0  0  0  0  0  0  0  0
   21.5868  -20.0284  -13.7536 O   0  0  0  0  0  0  0  0  0  0  0  0
   22.0642  -21.1598  -13.9808 O   0  0  0  0  0  0  0  0  0  0  0  0
   17.0823  -18.6178  -16.1850 O   0  0  0  0  0  0  0  0  0  0  0  0
  2  1  1  1
  2  3  1  0
  3  4  1  0
  4  8  1  0
  5  4  2  0
  6  2  1  0
  7  6  2  0
 10  9  1  0
 10 12  1  0
 11 10  2  0
 12 13  1  0
 13 14  1  0
 16 15  1  1
 15 14  1  0
 16 17  1  0
 17  6  1  0
 18 20  1  0
 18 16  1  0
 19 18  2  0
 21 26  1  0
 21 20  1  0
 21 22  1  6
 23 22  1  0
 23 24  1  0
 24 25  2  0
 26 29  1  0
 27 26  2  0
 28 24  1  0
M  END
$$$$
