DRE.pdb
     RDKit          3D

 29 28  0  0  1  0  0  0  0  0999 V2000
   19.5134   -7.3110  -13.9675 N   0  0  0  0  0  0  0  0  0  0  0  0
   19.6137   -7.1396  -12.5344 C   0  0  1  0  0  0  0  0  0  0  0  0
   20.5843   -6.0333  -12.1549 C   0  0  0  0  0  0  0  0  0  0  0  0
   21.9857   -6.3599  -12.5212 C   0  0  0  0  0  0  0  0  0  0  0  0
   22.2757   -7.4808  -13.0616 O   0  0  0  0  0  0  0  0  0  0  0  0
   18.2928   -6.9427  -11.9053 C   0  0  0  0  0  0  0  0  0  0  0  0
   17.4721   -6.2066  -12.5123 O   0  0  0  0  0  0  0  0  0  0  0  0
   23.0375   -5.5104  -12.3129 O   0  0  0  0  0  0  0  0  0  0  0  0
   11.8281   -8.0643   -7.8487 N   0  0  0  0  0  0  0  0  0  0  0  0
   11.7896   -9.4783   -8.0876 C   0  0  0  0  0  0  0  0  0  0  0  0
   11.0871  -10.2102   -7.2949 N   0  0  0  0  0  0  0  0  0  0  0  0
   12.4929  -10.0712   -9.1545 N   0  0  0  0  0  0  0  0  0  0  0  0
   13.9425  -10.0802   -9.2424 C   0  0  0  0  0  0  0  0  0  0  0  0
   14.4878   -8.7180   -9.5915 C   0  0  0  0  0  0  0  0  0  0  0  0
   15.9765   -8.7541   -9.8034 C   0  0  0  0  0  0  0  0  0  0  0  0
   16.5401   -7.4325  -10.2411 C   0  0  2  0  0  0  0  0  0  0  0  0
   17.9137   -7.5317  -10.6738 N   0  0  0  0  0  0  0  0  0  0  0  0
   16.4302   -6.3906   -9.1871 C   0  0  0  0  0  0  0  0  0  0  0  0
   17.0828   -6.5122   -8.1226 O   0  0  0  0  0  0  0  0  0  0  0  0
   11.0937  -11.2370   -7.3847 N   0  0  0  0  0  0  0  0  0  0  0  0
   15.6052   -5.2603   -9.3540 C   0  0  2  0  0  0  0  0  0  0  0  0
   15.5190   -4.1786   -8.3440 C   0  0  0  0  0  0  0  0  0  0  0  0
   15.5949   -2.8836   -9.1105 C   0  0  0  0  0  0  0  0  0  0  0  0
   15.3605   -1.6508   -8.3164 C   0  0  0  0  0  0  0  0  0  0  0  0
   15.4967   -0.4408   -9.1933 O   0  0  0  0  0  0  0  0  0  0  0  0
   15.7299   -0.6279  -10.4084 C   0  0  0  0  0  0  0  0  0  0  0  0
   14.2296   -4.2692   -7.6310 O   0  0  0  0  0  0  0  0  0  0  0  0
   13.2560   -4.8652   -8.1376 O   0  0  0  0  0  0  0  0  0  0  0  0
   15.3752    0.8513   -8.7112 O   0  0  0  0  0  0  0  0  0  0  0  0
  2  1  1  6
  2  3  1  0
  3  4  1  0
  4  8  1  0
  5  4  2  0
  6  2  1  0
  7  6  2  0
 10  9  1  0
 10 12  1  0
 11 10  2  0
 12 13  1  0
 13 14  1  0
 16 15  1  1
 15 14  1  0
 16 17  1  0
 17  6  1  0
 18 20  1  0
 18 16  1  0
 19 18  2  0
 21 26  1  0
 21 20  1  0
 21 22  1  6
 23 22  1  0
 23 24  1  0
 24 25  2  0
 26 29  1  0
 27 26  2  0
 28 24  1  0
M  END
$$$$
