DRE.pdb
     RDKit          3D

 29 28  0  0  1  0  0  0  0  0999 V2000
   15.6876  -12.4461  -15.7882 N   0  0  0  0  0  0  0  0  0  0  0  0
   16.5947  -12.1365  -14.7045 C   0  0  1  0  0  0  0  0  0  0  0  0
   18.0322  -12.5015  -15.0369 C   0  0  0  0  0  0  0  0  0  0  0  0
   18.2406  -13.9698  -15.1099 C   0  0  0  0  0  0  0  0  0  0  0  0
   17.2652  -14.7776  -14.9406 O   0  0  0  0  0  0  0  0  0  0  0  0
   16.4784  -10.7310  -14.2679 C   0  0  0  0  0  0  0  0  0  0  0  0
   16.1972   -9.8777  -15.1492 O   0  0  0  0  0  0  0  0  0  0  0  0
   19.4557  -14.5481  -15.3560 O   0  0  0  0  0  0  0  0  0  0  0  0
   11.6978   -8.4809   -7.8035 N   0  0  0  0  0  0  0  0  0  0  0  0
   11.3015   -9.1259   -9.0221 C   0  0  0  0  0  0  0  0  0  0  0  0
   10.0788   -9.5129   -9.1358 N   0  0  0  0  0  0  0  0  0  0  0  0
   12.2084   -9.3399  -10.0787 N   0  0  0  0  0  0  0  0  0  0  0  0
   13.5986   -8.9229  -10.0287 C   0  0  0  0  0  0  0  0  0  0  0  0
   14.3099   -9.1988  -11.3297 C   0  0  0  0  0  0  0  0  0  0  0  0
   15.7416   -8.7395  -11.2873 C   0  0  0  0  0  0  0  0  0  0  0  0
   16.4550   -8.9175  -12.5971 C   0  0  2  0  0  0  0  0  0  0  0  0
   16.6655  -10.3064  -12.9292 N   0  0  0  0  0  0  0  0  0  0  0  0
   17.7554   -8.1991  -12.6382 C   0  0  0  0  0  0  0  0  0  0  0  0
   18.5767   -8.3465  -11.7014 O   0  0  0  0  0  0  0  0  0  0  0  0
    9.7603  -10.0030   -9.9847 N   0  0  0  0  0  0  0  0  0  0  0  0
   18.0924   -7.3499  -13.7111 C   0  0  2  0  0  0  0  0  0  0  0  0
   19.3691   -6.5984  -13.7641 C   0  0  0  0  0  0  0  0  0  0  0  0
   20.1874   -7.2404  -14.8543 C   0  0  0  0  0  0  0  0  0  0  0  0
   21.5265   -6.6433  -15.0906 C   0  0  0  0  0  0  0  0  0  0  0  0
   22.2403   -7.3947  -16.1757 O   0  0  0  0  0  0  0  0  0  0  0  0
   22.6871   -6.7354  -17.1408 C   0  0  0  0  0  0  0  0  0  0  0  0
   19.0986   -5.1866  -14.0996 O   0  0  0  0  0  0  0  0  0  0  0  0
   19.9281   -4.2923  -13.8313 O   0  0  0  0  0  0  0  0  0  0  0  0
   22.4174   -8.7674  -16.1446 O   0  0  0  0  0  0  0  0  0  0  0  0
  2  1  1  6
  2  3  1  0
  3  4  1  0
  4  8  1  0
  5  4  2  0
  6  2  1  0
  7  6  2  0
 10  9  1  0
 10 12  1  0
 11 10  2  0
 12 13  1  0
 13 14  1  0
 16 15  1  1
 15 14  1  0
 16 17  1  0
 17  6  1  0
 18 20  1  0
 18 16  1  0
 19 18  2  0
 21 26  1  0
 21 20  1  0
 21 22  1  1
 23 22  1  0
 23 24  1  0
 24 25  2  0
 26 29  1  0
 27 26  2  0
 28 24  1  0
M  END
$$$$
