DRE.pdb
     RDKit          3D

 29 28  0  0  1  0  0  0  0  0999 V2000
   24.4015  -12.2893  -18.3954 N   0  0  0  0  0  0  0  0  0  0  0  0
   24.1701  -11.9192  -17.0160 C   0  0  1  0  0  0  0  0  0  0  0  0
   25.4672  -11.6945  -16.2564 C   0  0  0  0  0  0  0  0  0  0  0  0
   26.3560  -12.8835  -16.2903 C   0  0  0  0  0  0  0  0  0  0  0  0
   27.5700  -12.7813  -16.6755 O   0  0  0  0  0  0  0  0  0  0  0  0
   23.2633  -10.7603  -16.8970 C   0  0  0  0  0  0  0  0  0  0  0  0
   23.3318   -9.8833  -17.7971 O   0  0  0  0  0  0  0  0  0  0  0  0
   25.9523  -14.1379  -15.9232 O   0  0  0  0  0  0  0  0  0  0  0  0
   15.3836  -12.0879  -14.6941 N   0  0  0  0  0  0  0  0  0  0  0  0
   16.7082  -12.5406  -14.3802 C   0  0  0  0  0  0  0  0  0  0  0  0
   16.8347  -13.5633  -13.6084 N   0  0  0  0  0  0  0  0  0  0  0  0
   17.8535  -11.8993  -14.8917 N   0  0  0  0  0  0  0  0  0  0  0  0
   17.8087  -10.9523  -15.9919 C   0  0  0  0  0  0  0  0  0  0  0  0
   19.1909  -10.6116  -16.4901 C   0  0  0  0  0  0  0  0  0  0  0  0
   20.0131   -9.9367  -15.4266 C   0  0  0  0  0  0  0  0  0  0  0  0
   21.3731   -9.5215  -15.9103 C   0  0  2  0  0  0  0  0  0  0  0  0
   22.3382  -10.5925  -15.8371 N   0  0  0  0  0  0  0  0  0  0  0  0
   21.8974   -8.3360  -15.1833 C   0  0  0  0  0  0  0  0  0  0  0  0
   22.4384   -8.4844  -14.0611 O   0  0  0  0  0  0  0  0  0  0  0  0
   17.7672  -13.9452  -13.3917 N   0  0  0  0  0  0  0  0  0  0  0  0
   21.8020   -7.0392  -15.7264 C   0  0  2  0  0  0  0  0  0  0  0  0
   22.2797   -5.8347  -15.0063 C   0  0  0  0  0  0  0  0  0  0  0  0
   22.1083   -4.6814  -15.9606 C   0  0  0  0  0  0  0  0  0  0  0  0
   22.4969   -3.3479  -15.4352 C   0  0  0  0  0  0  0  0  0  0  0  0
   22.1524   -2.2817  -16.4332 O   0  0  0  0  0  0  0  0  0  0  0  0
   22.7613   -2.2914  -17.5264 C   0  0  0  0  0  0  0  0  0  0  0  0
   21.4556   -5.6200  -13.8005 O   0  0  0  0  0  0  0  0  0  0  0  0
   20.2829   -6.0455  -13.7399 O   0  0  0  0  0  0  0  0  0  0  0  0
   21.2010   -1.3060  -16.1889 O   0  0  0  0  0  0  0  0  0  0  0  0
  2  1  1  6
  2  3  1  0
  3  4  1  0
  4  8  1  0
  5  4  2  0
  6  2  1  0
  7  6  2  0
 10  9  1  0
 10 12  1  0
 11 10  2  0
 12 13  1  0
 13 14  1  0
 16 15  1  1
 15 14  1  0
 16 17  1  0
 17  6  1  0
 18 20  1  0
 18 16  1  0
 19 18  2  0
 21 26  1  0
 21 20  1  0
 21 22  1  6
 23 22  1  0
 23 24  1  0
 24 25  2  0
 26 29  1  0
 27 26  2  0
 28 24  1  0
M  END
$$$$
