DRE.pdb
     RDKit          3D

 29 28  0  0  1  0  0  0  0  0999 V2000
   21.9028  -20.8249   -8.3527 N   0  0  0  0  0  0  0  0  0  0  0  0
   21.7915  -21.3792   -9.6844 C   0  0  1  0  0  0  0  0  0  0  0  0
   20.3680  -21.3206  -10.2136 C   0  0  0  0  0  0  0  0  0  0  0  0
   19.4711  -22.2887   -9.5330 C   0  0  0  0  0  0  0  0  0  0  0  0
   19.0601  -23.3362  -10.1384 O   0  0  0  0  0  0  0  0  0  0  0  0
   22.7464  -20.7601  -10.6248 C   0  0  0  0  0  0  0  0  0  0  0  0
   22.5217  -19.5711  -10.9710 O   0  0  0  0  0  0  0  0  0  0  0  0
   19.0319  -22.1346   -8.2466 O   0  0  0  0  0  0  0  0  0  0  0  0
   30.6591  -19.8189  -11.6249 N   0  0  0  0  0  0  0  0  0  0  0  0
   30.3919  -21.2027  -11.8926 C   0  0  0  0  0  0  0  0  0  0  0  0
   31.3885  -22.0164  -11.9407 N   0  0  0  0  0  0  0  0  0  0  0  0
   29.0829  -21.6803  -12.0998 N   0  0  0  0  0  0  0  0  0  0  0  0
   28.3100  -21.3864  -13.2937 C   0  0  0  0  0  0  0  0  0  0  0  0
   27.0869  -20.5629  -12.9766 C   0  0  0  0  0  0  0  0  0  0  0  0
   26.1580  -21.2870  -12.0411 C   0  0  0  0  0  0  0  0  0  0  0  0
   24.7675  -20.7190  -12.0371 C   0  0  2  0  0  0  0  0  0  0  0  0
   23.8813  -21.4291  -11.1459 N   0  0  0  0  0  0  0  0  0  0  0  0
   24.1675  -20.6754  -13.3961 C   0  0  0  0  0  0  0  0  0  0  0  0
   23.8390  -21.7442  -13.9650 O   0  0  0  0  0  0  0  0  0  0  0  0
   31.2363  -23.0239  -12.0956 N   0  0  0  0  0  0  0  0  0  0  0  0
   23.9562  -19.4546  -14.0675 C   0  0  2  0  0  0  0  0  0  0  0  0
   23.3732  -19.3823  -15.4285 C   0  0  0  0  0  0  0  0  0  0  0  0
   23.0137  -17.9364  -15.6532 C   0  0  0  0  0  0  0  0  0  0  0  0
   23.8922  -17.1930  -16.5918 C   0  0  0  0  0  0  0  0  0  0  0  0
   23.2977  -15.8498  -16.8979 O   0  0  0  0  0  0  0  0  0  0  0  0
   22.2233  -15.5479  -16.3317 C   0  0  0  0  0  0  0  0  0  0  0  0
   24.3776  -19.8136  -16.4205 O   0  0  0  0  0  0  0  0  0  0  0  0
   24.0297  -20.2989  -17.5174 O   0  0  0  0  0  0  0  0  0  0  0  0
   23.8876  -14.9504  -17.7696 O   0  0  0  0  0  0  0  0  0  0  0  0
  2  1  1  1
  2  3  1  0
  3  4  1  0
  4  8  1  0
  5  4  2  0
  6  2  1  0
  7  6  2  0
 10  9  1  0
 10 12  1  0
 11 10  2  0
 12 13  1  0
 13 14  1  0
 16 15  1  6
 15 14  1  0
 16 17  1  0
 17  6  1  0
 18 20  1  0
 18 16  1  0
 19 18  2  0
 21 26  1  0
 21 20  1  0
 21 22  1  1
 23 22  1  0
 23 24  1  0
 24 25  2  0
 26 29  1  0
 27 26  2  0
 28 24  1  0
M  END
$$$$
