DRE.pdb
     RDKit          3D

 29 28  0  0  1  0  0  0  0  0999 V2000
   16.2823  -11.4204  -10.8710 N   0  0  0  0  0  0  0  0  0  0  0  0
   15.9339  -10.0372  -11.1128 C   0  0  1  0  0  0  0  0  0  0  0  0
   14.4325   -9.8060  -11.0632 C   0  0  0  0  0  0  0  0  0  0  0  0
   13.7125  -10.5320  -12.1400 C   0  0  0  0  0  0  0  0  0  0  0  0
   14.3512  -11.2369  -12.9931 O   0  0  0  0  0  0  0  0  0  0  0  0
   16.6550   -9.1174  -10.2109 C   0  0  0  0  0  0  0  0  0  0  0  0
   17.3390   -9.6355   -9.2902 O   0  0  0  0  0  0  0  0  0  0  0  0
   12.3535  -10.4999  -12.2933 O   0  0  0  0  0  0  0  0  0  0  0  0
   20.9403   -7.1716  -14.1518 N   0  0  0  0  0  0  0  0  0  0  0  0
   21.1563   -5.9273  -13.4715 C   0  0  0  0  0  0  0  0  0  0  0  0
   20.9500   -4.8350  -14.1209 N   0  0  0  0  0  0  0  0  0  0  0  0
   21.5819   -5.8782  -12.1294 N   0  0  0  0  0  0  0  0  0  0  0  0
   21.0014   -6.6993  -11.0817 C   0  0  0  0  0  0  0  0  0  0  0  0
   19.5676   -6.3201  -10.8070 C   0  0  0  0  0  0  0  0  0  0  0  0
   18.9469   -7.2136   -9.7683 C   0  0  0  0  0  0  0  0  0  0  0  0
   17.4981   -6.9059   -9.5183 C   0  0  2  0  0  0  0  0  0  0  0  0
   16.6133   -7.7063  -10.3309 N   0  0  0  0  0  0  0  0  0  0  0  0
   17.1804   -5.4675   -9.7150 C   0  0  0  0  0  0  0  0  0  0  0  0
   17.2506   -4.9669  -10.8632 O   0  0  0  0  0  0  0  0  0  0  0  0
   21.1197   -3.9204  -13.6770 N   0  0  0  0  0  0  0  0  0  0  0  0
   16.7991   -4.6448   -8.6363 C   0  0  1  0  0  0  0  0  0  0  0  0
   16.2888   -3.2659   -8.8252 C   0  0  0  0  0  0  0  0  0  0  0  0
   15.1561   -3.1011   -7.8453 C   0  0  0  0  0  0  0  0  0  0  0  0
   13.9387   -3.9032   -8.1280 C   0  0  0  0  0  0  0  0  0  0  0  0
   12.9060   -3.6618   -7.0665 O   0  0  0  0  0  0  0  0  0  0  0  0
   13.2121   -2.9008   -6.1214 C   0  0  0  0  0  0  0  0  0  0  0  0
   17.3610   -2.2963   -8.5262 O   0  0  0  0  0  0  0  0  0  0  0  0
   18.4682   -2.6769   -8.0914 O   0  0  0  0  0  0  0  0  0  0  0  0
   11.6495   -4.2421   -7.0978 O   0  0  0  0  0  0  0  0  0  0  0  0
  2  1  1  1
  2  3  1  0
  3  4  1  0
  4  8  1  0
  5  4  2  0
  6  2  1  0
  7  6  2  0
 10  9  1  0
 10 12  1  0
 11 10  2  0
 12 13  1  0
 13 14  1  0
 16 15  1  6
 15 14  1  0
 16 17  1  0
 17  6  1  0
 18 20  1  0
 18 16  1  0
 19 18  2  0
 21 26  1  0
 21 20  1  0
 21 22  1  1
 23 22  1  0
 23 24  1  0
 24 25  2  0
 26 29  1  0
 27 26  2  0
 28 24  1  0
M  END
$$$$
