DRE.pdb
     RDKit          3D

 29 28  0  0  1  0  0  0  0  0999 V2000
   27.7522  -17.8559  -17.2551 N   0  0  0  0  0  0  0  0  0  0  0  0
   26.6417  -18.7650  -17.0722 C   0  0  1  0  0  0  0  0  0  0  0  0
   26.3961  -19.6261  -18.3002 C   0  0  0  0  0  0  0  0  0  0  0  0
   26.4946  -18.8515  -19.5632 C   0  0  0  0  0  0  0  0  0  0  0  0
   26.7757  -17.6052  -19.5453 O   0  0  0  0  0  0  0  0  0  0  0  0
   26.7915  -19.5860  -15.8544 C   0  0  0  0  0  0  0  0  0  0  0  0
   25.9975  -20.5521  -15.7124 O   0  0  0  0  0  0  0  0  0  0  0  0
   26.2970  -19.3987  -20.8013 O   0  0  0  0  0  0  0  0  0  0  0  0
   33.1338  -21.6729   -9.7392 N   0  0  0  0  0  0  0  0  0  0  0  0
   31.8474  -22.0993   -9.2688 C   0  0  0  0  0  0  0  0  0  0  0  0
   31.7739  -22.6353   -8.1005 N   0  0  0  0  0  0  0  0  0  0  0  0
   30.6831  -21.9452  -10.0466 N   0  0  0  0  0  0  0  0  0  0  0  0
   30.6187  -21.0907  -11.2191 C   0  0  0  0  0  0  0  0  0  0  0  0
   29.2417  -21.0922  -11.8346 C   0  0  0  0  0  0  0  0  0  0  0  0
   29.1857  -20.2373  -13.0708 C   0  0  0  0  0  0  0  0  0  0  0  0
   27.8229  -20.2044  -13.7015 C   0  0  2  0  0  0  0  0  0  0  0  0
   27.7678  -19.3413  -14.8573 N   0  0  0  0  0  0  0  0  0  0  0  0
   26.7612  -19.8079  -12.7402 C   0  0  0  0  0  0  0  0  0  0  0  0
   26.6803  -18.6148  -12.3608 O   0  0  0  0  0  0  0  0  0  0  0  0
   30.8706  -22.9663   -7.7308 N   0  0  0  0  0  0  0  0  0  0  0  0
   25.8353  -20.7451  -12.2398 C   0  0  2  0  0  0  0  0  0  0  0  0
   24.8126  -20.3940  -11.2258 C   0  0  0  0  0  0  0  0  0  0  0  0
   23.4762  -20.6205  -11.8838 C   0  0  0  0  0  0  0  0  0  0  0  0
   22.2880  -20.4010  -11.0204 C   0  0  0  0  0  0  0  0  0  0  0  0
   21.0315  -20.6514  -11.8014 O   0  0  0  0  0  0  0  0  0  0  0  0
   20.5098  -21.7854  -11.7137 C   0  0  0  0  0  0  0  0  0  0  0  0
   24.9550  -21.2787  -10.0527 O   0  0  0  0  0  0  0  0  0  0  0  0
   25.4100  -22.4355  -10.1722 O   0  0  0  0  0  0  0  0  0  0  0  0
   20.4416  -19.6871  -12.6008 O   0  0  0  0  0  0  0  0  0  0  0  0
  2  1  1  6
  2  3  1  0
  3  4  1  0
  4  8  1  0
  5  4  2  0
  6  2  1  0
  7  6  2  0
 10  9  1  0
 10 12  1  0
 11 10  2  0
 12 13  1  0
 13 14  1  0
 16 15  1  1
 15 14  1  0
 16 17  1  0
 17  6  1  0
 18 20  1  0
 18 16  1  0
 19 18  2  0
 21 26  1  0
 21 20  1  0
 21 22  1  6
 23 22  1  0
 23 24  1  0
 24 25  2  0
 26 29  1  0
 27 26  2  0
 28 24  1  0
M  END
$$$$
