DRE.pdb
     RDKit          3D

 29 28  0  0  1  0  0  0  0  0999 V2000
   18.9001  -12.1061  -15.9996 N   0  0  0  0  0  0  0  0  0  0  0  0
   19.3046  -10.8777  -16.6481 C   0  0  1  0  0  0  0  0  0  0  0  0
   18.1294   -9.9476  -16.9006 C   0  0  0  0  0  0  0  0  0  0  0  0
   17.1127  -10.5517  -17.7986 C   0  0  0  0  0  0  0  0  0  0  0  0
   16.1901  -11.3015  -17.3305 O   0  0  0  0  0  0  0  0  0  0  0  0
   20.3898  -10.1951  -15.9160 C   0  0  0  0  0  0  0  0  0  0  0  0
   20.2437  -10.0539  -14.6740 O   0  0  0  0  0  0  0  0  0  0  0  0
   17.0903  -10.3560  -19.1524 O   0  0  0  0  0  0  0  0  0  0  0  0
   27.7575  -13.2112  -16.0335 N   0  0  0  0  0  0  0  0  0  0  0  0
   26.8323  -12.7120  -17.0096 C   0  0  0  0  0  0  0  0  0  0  0  0
   26.9059  -13.1733  -18.2093 N   0  0  0  0  0  0  0  0  0  0  0  0
   25.8613  -11.7439  -16.6863 N   0  0  0  0  0  0  0  0  0  0  0  0
   25.5626  -11.3433  -15.3228 C   0  0  0  0  0  0  0  0  0  0  0  0
   24.1419  -10.8562  -15.1839 C   0  0  0  0  0  0  0  0  0  0  0  0
   23.9287   -9.5544  -15.9066 C   0  0  0  0  0  0  0  0  0  0  0  0
   22.5417   -9.0051  -15.7313 C   0  0  2  0  0  0  0  0  0  0  0  0
   21.5646   -9.7006  -16.5345 N   0  0  0  0  0  0  0  0  0  0  0  0
   22.4670   -7.5486  -16.0171 C   0  0  0  0  0  0  0  0  0  0  0  0
   22.4515   -7.1486  -17.2060 O   0  0  0  0  0  0  0  0  0  0  0  0
   27.6708  -13.8081  -18.4816 N   0  0  0  0  0  0  0  0  0  0  0  0
   22.4124   -6.5976  -14.9786 C   0  0  1  0  0  0  0  0  0  0  0  0
   22.2153   -5.1502  -15.2309 C   0  0  0  0  0  0  0  0  0  0  0  0
   20.8561   -5.0179  -15.8676 C   0  0  0  0  0  0  0  0  0  0  0  0
   20.3540   -3.6299  -16.0308 C   0  0  0  0  0  0  0  0  0  0  0  0
   18.9411   -3.6503  -16.5356 O   0  0  0  0  0  0  0  0  0  0  0  0
   18.0900   -2.9838  -15.9053 C   0  0  0  0  0  0  0  0  0  0  0  0
   22.2475   -4.4160  -13.9506 O   0  0  0  0  0  0  0  0  0  0  0  0
   22.0647   -5.0077  -12.8661 O   0  0  0  0  0  0  0  0  0  0  0  0
   18.5556   -4.3685  -17.6546 O   0  0  0  0  0  0  0  0  0  0  0  0
  2  1  1  1
  2  3  1  0
  3  4  1  0
  4  8  1  0
  5  4  2  0
  6  2  1  0
  7  6  2  0
 10  9  1  0
 10 12  1  0
 11 10  2  0
 12 13  1  0
 13 14  1  0
 16 15  1  6
 15 14  1  0
 16 17  1  0
 17  6  1  0
 18 20  1  0
 18 16  1  0
 19 18  2  0
 21 26  1  0
 21 20  1  0
 21 22  1  6
 23 22  1  0
 23 24  1  0
 24 25  2  0
 26 29  1  0
 27 26  2  0
 28 24  1  0
M  END
$$$$
