RTM.pdb
     RDKit          3D

 27 26  0  0  1  0  0  0  0  0999 V2000
   28.0476  -21.3460  -10.2861 N   0  0  0  0  0  0  0  0  0  0  0  0
   26.7022  -20.9501  -10.5002 C   0  0  0  0  0  0  0  0  0  0  0  0
   25.8608  -20.8722   -9.5166 N   0  0  0  0  0  0  0  0  0  0  0  0
   26.2025  -20.6063  -11.7747 N   0  0  0  0  0  0  0  0  0  0  0  0
   26.9138  -20.7822  -13.0109 C   0  0  0  0  0  0  0  0  0  0  0  0
   27.7935  -19.6420  -13.3755 C   0  0  0  0  0  0  0  0  0  0  0  0
   27.2225  -18.5696  -14.2185 C   0  0  0  0  0  0  0  0  0  0  0  0
   26.5862  -18.9941  -15.5020 C   0  0  2  0  0  0  0  0  0  0  0  0
   27.4792  -18.6412  -16.5731 N   0  0  0  0  0  0  0  0  0  0  0  0
   25.2305  -18.4006  -15.6810 C   0  0  0  0  0  0  0  0  0  0  0  0
   25.1221  -17.2327  -16.1204 O   0  0  0  0  0  0  0  0  0  0  0  0
   24.8739  -20.6112   -9.6481 C   0  0  0  0  0  0  0  0  0  0  0  0
   23.7871  -17.3477  -17.5833 C   0  0  2  0  0  0  0  0  0  0  0  0
   22.6528  -18.2567  -17.1926 O   0  0  0  0  0  0  0  0  0  0  0  0
   22.7082  -19.4802  -17.8562 C   0  0  2  0  0  0  0  0  0  0  0  0
   22.7702  -18.5159  -15.6819 N   0  0  0  0  0  0  0  0  0  0  0  0
   24.0359  -19.0991  -15.3752 C   0  0  0  0  0  0  0  0  0  0  0  0
   21.6283  -19.3976  -15.2719 O   0  0  0  0  0  0  0  0  0  0  0  0
   21.8147  -20.6147  -14.9935 C   0  0  0  0  0  0  0  0  0  0  0  0
   20.7058  -20.0267   -8.8541 S   0  0  0  0  0  0  0  0  0  0  0  0
   21.2331  -19.5076  -10.5382 C   0  0  0  0  0  0  0  0  0  0  0  0
   19.7890  -19.1702  -11.5078 C   0  0  0  0  0  0  0  0  0  0  0  0
   19.9485  -18.7501  -12.8826 C   0  0  2  0  0  0  0  0  0  0  0  0
   19.3850  -19.4353  -14.0702 N   0  0  0  0  0  0  0  0  0  0  0  0
   20.3098  -18.9306  -15.1745 C   0  0  0  0  0  0  0  0  0  0  0  0
   18.0464  -18.9251  -14.5115 O   0  0  0  0  0  0  0  0  0  0  0  0
   18.0013  -17.9006  -15.3163 O   0  0  0  0  0  0  0  0  0  0  0  0
  2  3  2  0
  2  1  1  0
  4  2  1  0
  5  4  1  0
  6  5  1  0
  7  6  1  0
  8 10  1  0
  8  7  1  0
  8  9  1  6
 10 16  1  0
 10 11  2  0
 13 12  1  6
 13 14  1  0
 15 13  1  0
 15 16  1  1
 17 18  2  0
 17 15  1  0
 19 20  1  0
 21 20  1  0
 23 22  1  1
 22 21  1  0
 23 24  1  0
 24 17  1  0
 25 23  1  0
 26 25  2  0
 27 25  1  0
M  END
$$$$
