RTM.pdb
     RDKit          3D

 27 26  0  0  1  0  0  0  0  0999 V2000
   21.0710  -22.2835   -6.8838 N   0  0  0  0  0  0  0  0  0  0  0  0
   20.7034  -21.1355   -7.6319 C   0  0  0  0  0  0  0  0  0  0  0  0
   19.5408  -20.5809   -7.4826 N   0  0  0  0  0  0  0  0  0  0  0  0
   21.5699  -20.5225   -8.5623 N   0  0  0  0  0  0  0  0  0  0  0  0
   22.7057  -21.1591   -9.1703 C   0  0  0  0  0  0  0  0  0  0  0  0
   24.0174  -20.6500   -8.6937 C   0  0  0  0  0  0  0  0  0  0  0  0
   25.0117  -20.2421   -9.7094 C   0  0  0  0  0  0  0  0  0  0  0  0
   25.2764  -21.2121  -10.8146 C   0  0  2  0  0  0  0  0  0  0  0  0
   25.8380  -22.4008  -10.2310 N   0  0  0  0  0  0  0  0  0  0  0  0
   26.1551  -20.6347  -11.8713 C   0  0  0  0  0  0  0  0  0  0  0  0
   27.2759  -20.1726  -11.5563 O   0  0  0  0  0  0  0  0  0  0  0  0
   19.2358  -19.7702   -8.0384 C   0  0  0  0  0  0  0  0  0  0  0  0
   27.8537  -22.0055  -14.5982 C   0  0  2  0  0  0  0  0  0  0  0  0
   27.0794  -20.9053  -15.2732 O   0  0  0  0  0  0  0  0  0  0  0  0
   25.9475  -21.3855  -15.9278 C   0  0  2  0  0  0  0  0  0  0  0  0
   26.6300  -19.9217  -14.1806 N   0  0  0  0  0  0  0  0  0  0  0  0
   25.7843  -20.5793  -13.2380 C   0  0  0  0  0  0  0  0  0  0  0  0
   25.9416  -18.7687  -14.8484 O   0  0  0  0  0  0  0  0  0  0  0  0
   24.9277  -18.2270  -14.3269 C   0  0  0  0  0  0  0  0  0  0  0  0
   24.3366  -13.1757  -16.9884 S   0  0  0  0  0  0  0  0  0  0  0  0
   24.8831  -13.7553  -15.3303 C   0  0  0  0  0  0  0  0  0  0  0  0
   26.4670  -14.5327  -15.4930 C   0  0  0  0  0  0  0  0  0  0  0  0
   26.5406  -15.9769  -15.5230 C   0  0  1  0  0  0  0  0  0  0  0  0
   25.9004  -16.8576  -16.5289 N   0  0  0  0  0  0  0  0  0  0  0  0
   26.3761  -18.2331  -16.0692 C   0  0  0  0  0  0  0  0  0  0  0  0
   26.4805  -16.7593  -17.9076 O   0  0  0  0  0  0  0  0  0  0  0  0
   27.5958  -17.3838  -18.1634 O   0  0  0  0  0  0  0  0  0  0  0  0
  2  3  2  0
  2  1  1  0
  4  2  1  0
  5  4  1  0
  6  5  1  0
  7  6  1  0
  8 10  1  0
  8  7  1  0
  8  9  1  1
 10 16  1  0
 10 11  2  0
 13 12  1  6
 13 14  1  0
 15 13  1  0
 15 16  1  6
 17 18  2  0
 17 15  1  0
 19 20  1  0
 21 20  1  0
 23 22  1  1
 22 21  1  0
 23 24  1  0
 24 17  1  0
 25 23  1  0
 26 25  2  0
 27 25  1  0
M  END
$$$$
