RTM.pdb
     RDKit          3D

 27 26  0  0  1  0  0  0  0  0999 V2000
   13.5071  -24.5604  -14.2508 N   0  0  0  0  0  0  0  0  0  0  0  0
   14.6128  -25.0714  -14.9781 C   0  0  0  0  0  0  0  0  0  0  0  0
   14.4566  -25.6071  -16.1487 N   0  0  0  0  0  0  0  0  0  0  0  0
   15.9362  -25.0182  -14.4901 N   0  0  0  0  0  0  0  0  0  0  0  0
   16.7949  -23.8687  -14.5677 C   0  0  0  0  0  0  0  0  0  0  0  0
   17.6857  -23.8525  -15.7565 C   0  0  0  0  0  0  0  0  0  0  0  0
   19.1465  -23.8488  -15.5265 C   0  0  0  0  0  0  0  0  0  0  0  0
   19.6206  -23.2475  -14.2436 C   0  0  2  0  0  0  0  0  0  0  0  0
   19.1606  -21.8853  -14.2000 N   0  0  0  0  0  0  0  0  0  0  0  0
   21.1000  -23.3471  -14.0886 C   0  0  0  0  0  0  0  0  0  0  0  0
   21.6308  -24.4731  -13.9502 O   0  0  0  0  0  0  0  0  0  0  0  0
   15.2296  -26.0468  -16.6667 C   0  0  0  0  0  0  0  0  0  0  0  0
   23.3722  -23.4974  -16.2159 C   0  0  2  0  0  0  0  0  0  0  0  0
   23.9737  -22.3561  -15.4405 O   0  0  0  0  0  0  0  0  0  0  0  0
   23.6840  -21.1207  -16.0153 C   0  0  2  0  0  0  0  0  0  0  0  0
   23.3686  -22.3901  -14.0277 N   0  0  0  0  0  0  0  0  0  0  0  0
   21.9538  -22.2159  -14.0893 C   0  0  0  0  0  0  0  0  0  0  0  0
   24.0339  -21.3219  -13.2118 O   0  0  0  0  0  0  0  0  0  0  0  0
   23.4780  -20.2034  -13.0288 C   0  0  0  0  0  0  0  0  0  0  0  0
   27.7863  -19.7765   -6.7310 S   0  0  0  0  0  0  0  0  0  0  0  0
   27.0085  -20.9472   -7.9178 C   0  0  0  0  0  0  0  0  0  0  0  0
   26.7962  -20.1241   -9.4724 C   0  0  0  0  0  0  0  0  0  0  0  0
   26.2092  -20.8502  -10.5770 C   0  0  2  0  0  0  0  0  0  0  0  0
   26.0078  -20.3277  -11.9496 N   0  0  0  0  0  0  0  0  0  0  0  0
   25.2897  -21.4992  -12.6140 C   0  0  0  0  0  0  0  0  0  0  0  0
   27.2597  -20.2114  -12.7657 O   0  0  0  0  0  0  0  0  0  0  0  0
   27.5944  -21.2026  -13.5433 O   0  0  0  0  0  0  0  0  0  0  0  0
  2  3  2  0
  2  1  1  0
  4  2  1  0
  5  4  1  0
  6  5  1  0
  7  6  1  0
  8 10  1  0
  8  7  1  0
  8  9  1  6
 10 16  1  0
 10 11  2  0
 13 12  1  6
 13 14  1  0
 15 13  1  0
 15 16  1  1
 17 18  2  0
 17 15  1  0
 19 20  1  0
 21 20  1  0
 23 22  1  1
 22 21  1  0
 23 24  1  0
 24 17  1  0
 25 23  1  0
 26 25  2  0
 27 25  1  0
M  END
$$$$
