RTM.pdb
     RDKit          3D

 27 26  0  0  1  0  0  0  0  0999 V2000
   24.4582  -24.9190  -13.0757 N   0  0  0  0  0  0  0  0  0  0  0  0
   23.0768  -25.2419  -13.0692 C   0  0  0  0  0  0  0  0  0  0  0  0
   22.6403  -26.3122  -12.4816 N   0  0  0  0  0  0  0  0  0  0  0  0
   22.1004  -24.4253  -13.6793 N   0  0  0  0  0  0  0  0  0  0  0  0
   22.3799  -23.2350  -14.4344 C   0  0  0  0  0  0  0  0  0  0  0  0
   22.3867  -21.9883  -13.6265 C   0  0  0  0  0  0  0  0  0  0  0  0
   23.6338  -21.1946  -13.5896 C   0  0  0  0  0  0  0  0  0  0  0  0
   24.2754  -20.8942  -14.9050 C   0  0  2  0  0  0  0  0  0  0  0  0
   25.4441  -21.7244  -15.0239 N   0  0  0  0  0  0  0  0  0  0  0  0
   24.5959  -19.4462  -15.0569 C   0  0  0  0  0  0  0  0  0  0  0  0
   25.5641  -18.9600  -14.4285 O   0  0  0  0  0  0  0  0  0  0  0  0
   21.6529  -26.6010  -12.5136 C   0  0  0  0  0  0  0  0  0  0  0  0
   26.6185  -18.0985  -15.9618 C   0  0  2  0  0  0  0  0  0  0  0  0
   25.6934  -17.2987  -16.8393 O   0  0  0  0  0  0  0  0  0  0  0  0
   25.5301  -17.8782  -18.0955 C   0  0  2  0  0  0  0  0  0  0  0  0
   24.3240  -17.2521  -16.1424 N   0  0  0  0  0  0  0  0  0  0  0  0
   23.8506  -18.5741  -15.8891 C   0  0  0  0  0  0  0  0  0  0  0  0
   23.3850  -16.4739  -17.0153 O   0  0  0  0  0  0  0  0  0  0  0  0
   22.3976  -17.0334  -17.5681 C   0  0  0  0  0  0  0  0  0  0  0  0
   18.8686  -12.8205  -15.3368 S   0  0  0  0  0  0  0  0  0  0  0  0
   18.6923  -14.4043  -16.2558 C   0  0  0  0  0  0  0  0  0  0  0  0
   19.9416  -14.4765  -17.5100 C   0  0  0  0  0  0  0  0  0  0  0  0
   21.3325  -14.3955  -17.1213 C   0  0  2  0  0  0  0  0  0  0  0  0
   22.4892  -14.3259  -18.0457 N   0  0  0  0  0  0  0  0  0  0  0  0
   23.5448  -15.1033  -17.2641 C   0  0  0  0  0  0  0  0  0  0  0  0
   23.1126  -12.9683  -18.1683 O   0  0  0  0  0  0  0  0  0  0  0  0
   22.6932  -12.1696  -19.1094 O   0  0  0  0  0  0  0  0  0  0  0  0
  2  3  2  0
  2  1  1  0
  4  2  1  0
  5  4  1  0
  6  5  1  0
  7  6  1  0
  8 10  1  0
  8  7  1  0
  8  9  1  1
 10 16  1  0
 10 11  2  0
 13 12  1  6
 13 14  1  0
 15 13  1  0
 15 16  1  1
 17 18  2  0
 17 15  1  0
 19 20  1  0
 21 20  1  0
 23 22  1  6
 22 21  1  0
 23 24  1  0
 24 17  1  0
 25 23  1  0
 26 25  2  0
 27 25  1  0
M  END
$$$$
