RTM.pdb
     RDKit          3D

 27 26  0  0  1  0  0  0  0  0999 V2000
   20.2257  -16.6921  -17.8707 N   0  0  0  0  0  0  0  0  0  0  0  0
   19.4225  -17.4833  -17.0095 C   0  0  0  0  0  0  0  0  0  0  0  0
   18.2984  -17.9869  -17.4148 N   0  0  0  0  0  0  0  0  0  0  0  0
   19.7947  -17.7817  -15.6811 N   0  0  0  0  0  0  0  0  0  0  0  0
   20.9978  -17.3241  -15.0424 C   0  0  0  0  0  0  0  0  0  0  0  0
   22.2482  -17.8389  -15.6575 C   0  0  0  0  0  0  0  0  0  0  0  0
   22.9714  -18.9198  -14.9537 C   0  0  0  0  0  0  0  0  0  0  0  0
   24.2831  -19.3365  -15.5350 C   0  0  2  0  0  0  0  0  0  0  0  0
   24.0226  -19.9639  -16.8029 N   0  0  0  0  0  0  0  0  0  0  0  0
   25.0496  -20.2242  -14.6148 C   0  0  0  0  0  0  0  0  0  0  0  0
   24.8356  -21.4583  -14.6285 O   0  0  0  0  0  0  0  0  0  0  0  0
   17.7014  -18.5708  -16.8131 C   0  0  0  0  0  0  0  0  0  0  0  0
   28.5446  -20.7516  -14.4975 C   0  0  2  0  0  0  0  0  0  0  0  0
   28.2418  -20.4947  -13.0456 O   0  0  0  0  0  0  0  0  0  0  0  0
   28.6088  -19.2098  -12.6523 C   0  0  2  0  0  0  0  0  0  0  0  0
   26.7236  -20.6468  -12.8582 N   0  0  0  0  0  0  0  0  0  0  0  0
   26.0251  -19.7386  -13.7087 C   0  0  0  0  0  0  0  0  0  0  0  0
   26.4094  -20.4188  -11.4096 O   0  0  0  0  0  0  0  0  0  0  0  0
   25.8449  -19.3566  -11.0267 C   0  0  0  0  0  0  0  0  0  0  0  0
   28.8942  -19.8789   -6.4336 S   0  0  0  0  0  0  0  0  0  0  0  0
   27.5223  -18.6616   -6.2922 C   0  0  0  0  0  0  0  0  0  0  0  0
   26.5164  -18.7666   -7.7470 C   0  0  0  0  0  0  0  0  0  0  0  0
   26.8896  -19.6926   -8.7935 C   0  0  1  0  0  0  0  0  0  0  0  0
   26.3797  -21.0756   -8.9508 N   0  0  0  0  0  0  0  0  0  0  0  0
   26.7176  -21.3553  -10.4127 C   0  0  0  0  0  0  0  0  0  0  0  0
   24.8858  -21.1981   -8.9355 O   0  0  0  0  0  0  0  0  0  0  0  0
   24.2088  -20.7277   -9.9452 O   0  0  0  0  0  0  0  0  0  0  0  0
  2  3  2  0
  2  1  1  0
  4  2  1  0
  5  4  1  0
  6  5  1  0
  7  6  1  0
  8 10  1  0
  8  7  1  0
  8  9  1  6
 10 16  1  0
 10 11  2  0
 13 12  1  1
 13 14  1  0
 15 13  1  0
 15 16  1  1
 17 18  2  0
 17 15  1  0
 19 20  1  0
 21 20  1  0
 23 22  1  1
 22 21  1  0
 23 24  1  0
 24 17  1  0
 25 23  1  0
 26 25  2  0
 27 25  1  0
M  END
$$$$
