RTM.pdb
     RDKit          3D

 27 26  0  0  1  0  0  0  0  0999 V2000
   27.2247  -20.9594  -10.9722 N   0  0  0  0  0  0  0  0  0  0  0  0
   28.1752  -20.8709  -12.0217 C   0  0  0  0  0  0  0  0  0  0  0  0
   29.0468  -21.8105  -12.2189 N   0  0  0  0  0  0  0  0  0  0  0  0
   28.2247  -19.7793  -12.9151 N   0  0  0  0  0  0  0  0  0  0  0  0
   27.0759  -19.0883  -13.4326 C   0  0  0  0  0  0  0  0  0  0  0  0
   27.4021  -17.9512  -14.3310 C   0  0  0  0  0  0  0  0  0  0  0  0
   26.6522  -17.8350  -15.6003 C   0  0  0  0  0  0  0  0  0  0  0  0
   26.2929  -19.1135  -16.2849 C   0  0  2  0  0  0  0  0  0  0  0  0
   27.3133  -19.3919  -17.2599 N   0  0  0  0  0  0  0  0  0  0  0  0
   24.9326  -19.0630  -16.8928 C   0  0  0  0  0  0  0  0  0  0  0  0
   24.6770  -18.1964  -17.7603 O   0  0  0  0  0  0  0  0  0  0  0  0
   29.7475  -21.7702  -12.9717 C   0  0  0  0  0  0  0  0  0  0  0  0
   23.0360  -21.5615  -18.8010 C   0  0  2  0  0  0  0  0  0  0  0  0
   22.1190  -21.1781  -17.6706 O   0  0  0  0  0  0  0  0  0  0  0  0
   22.1477  -22.1074  -16.6333 C   0  0  2  0  0  0  0  0  0  0  0  0
   22.6018  -19.8242  -17.1255 N   0  0  0  0  0  0  0  0  0  0  0  0
   23.8941  -19.9588  -16.5357 C   0  0  0  0  0  0  0  0  0  0  0  0
   21.5821  -19.3287  -16.1435 O   0  0  0  0  0  0  0  0  0  0  0  0
   21.7762  -19.4270  -14.9001 C   0  0  0  0  0  0  0  0  0  0  0  0
   19.2686  -14.9540  -13.0669 S   0  0  0  0  0  0  0  0  0  0  0  0
   17.9551  -16.0678  -13.7133 C   0  0  0  0  0  0  0  0  0  0  0  0
   18.0289  -16.0671  -15.4836 C   0  0  0  0  0  0  0  0  0  0  0  0
   18.7255  -17.1405  -16.1579 C   0  0  2  0  0  0  0  0  0  0  0  0
   19.3313  -18.3260  -15.5060 N   0  0  0  0  0  0  0  0  0  0  0  0
   20.3748  -18.7370  -16.5413 C   0  0  0  0  0  0  0  0  0  0  0  0
   18.4423  -19.5315  -15.4473 O   0  0  0  0  0  0  0  0  0  0  0  0
   17.7627  -19.7556  -14.3576 O   0  0  0  0  0  0  0  0  0  0  0  0
  2  3  2  0
  2  1  1  0
  4  2  1  0
  5  4  1  0
  6  5  1  0
  7  6  1  0
  8 10  1  0
  8  7  1  0
  8  9  1  6
 10 16  1  0
 10 11  2  0
 13 12  1  6
 13 14  1  0
 15 13  1  0
 15 16  1  6
 17 18  2  0
 17 15  1  0
 19 20  1  0
 21 20  1  0
 23 22  1  1
 22 21  1  0
 23 24  1  0
 24 17  1  0
 25 23  1  0
 26 25  2  0
 27 25  1  0
M  END
$$$$
