RTM.pdb
     RDKit          3D

 27 26  0  0  1  0  0  0  0  0999 V2000
   14.6757  -21.6882  -13.2352 N   0  0  0  0  0  0  0  0  0  0  0  0
   14.4840  -22.2701  -11.9556 C   0  0  0  0  0  0  0  0  0  0  0  0
   13.2964  -22.5490  -11.5161 N   0  0  0  0  0  0  0  0  0  0  0  0
   15.5566  -22.5921  -11.0964 N   0  0  0  0  0  0  0  0  0  0  0  0
   16.4029  -23.7451  -11.2354 C   0  0  0  0  0  0  0  0  0  0  0  0
   17.2178  -23.7570  -12.4774 C   0  0  0  0  0  0  0  0  0  0  0  0
   18.6750  -23.9723  -12.3468 C   0  0  0  0  0  0  0  0  0  0  0  0
   19.5313  -22.7488  -12.3036 C   0  0  2  0  0  0  0  0  0  0  0  0
   18.7661  -21.6574  -12.8446 N   0  0  0  0  0  0  0  0  0  0  0  0
   20.8233  -22.9408  -13.0221 C   0  0  0  0  0  0  0  0  0  0  0  0
   21.5305  -23.9413  -12.7618 O   0  0  0  0  0  0  0  0  0  0  0  0
   13.1263  -22.9246  -10.5730 C   0  0  0  0  0  0  0  0  0  0  0  0
   23.9075  -22.4437  -16.6284 C   0  0  2  0  0  0  0  0  0  0  0  0
   22.5408  -22.1044  -16.0967 O   0  0  0  0  0  0  0  0  0  0  0  0
   21.5633  -22.9792  -16.5655 C   0  0  1  0  0  0  0  0  0  0  0  0
   22.6018  -22.2175  -14.5648 N   0  0  0  0  0  0  0  0  0  0  0  0
   21.3034  -22.0361  -14.0015 C   0  0  0  0  0  0  0  0  0  0  0  0
   23.5822  -21.1997  -14.0627 O   0  0  0  0  0  0  0  0  0  0  0  0
   23.2258  -20.2978  -13.2546 C   0  0  0  0  0  0  0  0  0  0  0  0
   24.5171  -21.2038   -9.3022 S   0  0  0  0  0  0  0  0  0  0  0  0
   26.3239  -21.0900   -9.6277 C   0  0  0  0  0  0  0  0  0  0  0  0
   26.5707  -20.3204  -11.2044 C   0  0  0  0  0  0  0  0  0  0  0  0
   25.9046  -20.8687  -12.3654 C   0  0  2  0  0  0  0  0  0  0  0  0
   25.9414  -20.3025  -13.7349 N   0  0  0  0  0  0  0  0  0  0  0  0
   24.9288  -21.1901  -14.4535 C   0  0  0  0  0  0  0  0  0  0  0  0
   27.2056  -20.5761  -14.4923 O   0  0  0  0  0  0  0  0  0  0  0  0
   27.3491  -21.7342  -15.0733 O   0  0  0  0  0  0  0  0  0  0  0  0
  2  3  2  0
  2  1  1  0
  4  2  1  0
  5  4  1  0
  6  5  1  0
  7  6  1  0
  8 10  1  0
  8  7  1  0
  8  9  1  6
 10 16  1  0
 10 11  2  0
 13 12  1  6
 13 14  1  0
 15 13  1  0
 15 16  1  6
 17 18  2  0
 17 15  1  0
 19 20  1  0
 21 20  1  0
 23 22  1  1
 22 21  1  0
 23 24  1  0
 24 17  1  0
 25 23  1  0
 26 25  2  0
 27 25  1  0
M  END
$$$$
