RTM.pdb
     RDKit          3D

 27 26  0  0  1  0  0  0  0  0999 V2000
   18.0346  -24.1025  -15.2569 N   0  0  0  0  0  0  0  0  0  0  0  0
   18.6649  -25.3557  -15.4688 C   0  0  0  0  0  0  0  0  0  0  0  0
   17.9775  -26.4066  -15.7923 N   0  0  0  0  0  0  0  0  0  0  0  0
   20.0604  -25.5354  -15.3576 N   0  0  0  0  0  0  0  0  0  0  0  0
   20.9914  -24.5144  -14.9626 C   0  0  0  0  0  0  0  0  0  0  0  0
   21.0543  -23.3553  -15.8895 C   0  0  0  0  0  0  0  0  0  0  0  0
   21.9993  -22.2638  -15.5693 C   0  0  0  0  0  0  0  0  0  0  0  0
   21.9274  -21.6999  -14.1876 C   0  0  2  0  0  0  0  0  0  0  0  0
   20.6420  -21.0724  -14.0352 N   0  0  0  0  0  0  0  0  0  0  0  0
   23.0494  -20.7602  -13.9045 C   0  0  0  0  0  0  0  0  0  0  0  0
   22.7971  -19.6087  -13.4811 O   0  0  0  0  0  0  0  0  0  0  0  0
   18.4053  -27.3344  -15.9167 C   0  0  0  0  0  0  0  0  0  0  0  0
   23.8014  -19.5292  -11.9191 C   0  0  2  0  0  0  0  0  0  0  0  0
   25.2289  -19.9711  -12.0995 O   0  0  0  0  0  0  0  0  0  0  0  0
   25.5112  -21.1365  -11.3906 C   0  0  2  0  0  0  0  0  0  0  0  0
   25.4390  -20.2485  -13.5969 N   0  0  0  0  0  0  0  0  0  0  0  0
   24.4111  -21.1055  -14.0919 C   0  0  0  0  0  0  0  0  0  0  0  0
   26.8039  -20.8450  -13.7715 O   0  0  0  0  0  0  0  0  0  0  0  0
   27.0457  -22.0306  -13.4119 C   0  0  0  0  0  0  0  0  0  0  0  0
   31.0847  -21.0714   -9.9983 S   0  0  0  0  0  0  0  0  0  0  0  0
   30.7410  -22.5757  -10.9996 C   0  0  0  0  0  0  0  0  0  0  0  0
   30.6058  -22.1069  -12.7029 C   0  0  0  0  0  0  0  0  0  0  0  0
   29.4790  -21.3030  -13.1226 C   0  0  1  0  0  0  0  0  0  0  0  0
   29.2443  -20.7857  -14.4918 N   0  0  0  0  0  0  0  0  0  0  0  0
   27.8731  -20.1341  -14.3352 C   0  0  0  0  0  0  0  0  0  0  0  0
   28.9846  -21.8408  -15.5244 O   0  0  0  0  0  0  0  0  0  0  0  0
   29.8658  -22.0240  -16.4675 O   0  0  0  0  0  0  0  0  0  0  0  0
  2  3  2  0
  2  1  1  0
  4  2  1  0
  5  4  1  0
  6  5  1  0
  7  6  1  0
  8 10  1  0
  8  7  1  0
  8  9  1  6
 10 16  1  0
 10 11  2  0
 13 12  1  1
 13 14  1  0
 15 13  1  0
 15 16  1  6
 17 18  2  0
 17 15  1  0
 19 20  1  0
 21 20  1  0
 23 22  1  1
 22 21  1  0
 23 24  1  0
 24 17  1  0
 25 23  1  0
 26 25  2  0
 27 25  1  0
M  END
$$$$
