RTM.pdb
     RDKit          3D

 27 26  0  0  1  0  0  0  0  0999 V2000
   18.9700  -19.9781  -14.8130 N   0  0  0  0  0  0  0  0  0  0  0  0
   18.2491  -20.1955  -16.0154 C   0  0  0  0  0  0  0  0  0  0  0  0
   17.5452  -21.2704  -16.1910 N   0  0  0  0  0  0  0  0  0  0  0  0
   18.2388  -19.2651  -17.0767 N   0  0  0  0  0  0  0  0  0  0  0  0
   18.9287  -18.0046  -17.0710 C   0  0  0  0  0  0  0  0  0  0  0  0
   18.0772  -16.8420  -17.4318 C   0  0  0  0  0  0  0  0  0  0  0  0
   18.7347  -15.5279  -17.5980 C   0  0  0  0  0  0  0  0  0  0  0  0
   17.8361  -14.3423  -17.7357 C   0  0  2  0  0  0  0  0  0  0  0  0
   16.8915  -14.6260  -18.7829 N   0  0  0  0  0  0  0  0  0  0  0  0
   18.5973  -13.0860  -17.9896 C   0  0  0  0  0  0  0  0  0  0  0  0
   18.6002  -12.5887  -19.1392 O   0  0  0  0  0  0  0  0  0  0  0  0
   16.9368  -21.4092  -17.0094 C   0  0  0  0  0  0  0  0  0  0  0  0
   18.1533  -10.5454  -18.7902 C   0  0  2  0  0  0  0  0  0  0  0  0
   18.9377  -10.0875  -17.5900 O   0  0  0  0  0  0  0  0  0  0  0  0
   18.1291   -9.9161  -16.4687 C   0  0  2  0  0  0  0  0  0  0  0  0
   19.9787  -11.1749  -17.2784 N   0  0  0  0  0  0  0  0  0  0  0  0
   19.3314  -12.4116  -16.9823 C   0  0  0  0  0  0  0  0  0  0  0  0
   20.8256  -10.6939  -16.1379 O   0  0  0  0  0  0  0  0  0  0  0  0
   20.4431  -10.8291  -14.9425 C   0  0  0  0  0  0  0  0  0  0  0  0
   27.0875  -12.2849  -15.2917 S   0  0  0  0  0  0  0  0  0  0  0  0
   27.0161  -10.4590  -15.5034 C   0  0  0  0  0  0  0  0  0  0  0  0
   25.4927   -9.8662  -14.8200 C   0  0  0  0  0  0  0  0  0  0  0  0
   24.2760  -10.0070  -15.5893 C   0  0  2  0  0  0  0  0  0  0  0  0
   22.9138   -9.6413  -15.1332 N   0  0  0  0  0  0  0  0  0  0  0  0
   22.0704  -10.0772  -16.3282 C   0  0  0  0  0  0  0  0  0  0  0  0
   22.6484   -8.1673  -15.0710 O   0  0  0  0  0  0  0  0  0  0  0  0
   22.4101   -7.5268  -16.1811 O   0  0  0  0  0  0  0  0  0  0  0  0
  2  3  2  0
  2  1  1  0
  4  2  1  0
  5  4  1  0
  6  5  1  0
  7  6  1  0
  8 10  1  0
  8  7  1  0
  8  9  1  6
 10 16  1  0
 10 11  2  0
 13 12  1  6
 13 14  1  0
 15 13  1  0
 15 16  1  6
 17 18  2  0
 17 15  1  0
 19 20  1  0
 21 20  1  0
 23 22  1  1
 22 21  1  0
 23 24  1  0
 24 17  1  0
 25 23  1  0
 26 25  2  0
 27 25  1  0
M  END
$$$$
