RTM.pdb
     RDKit          3D

 27 26  0  0  1  0  0  0  0  0999 V2000
   18.7026  -25.9101  -10.7651 N   0  0  0  0  0  0  0  0  0  0  0  0
   18.3308  -25.0977   -9.6631 C   0  0  0  0  0  0  0  0  0  0  0  0
   18.2303  -25.5920   -8.4685 N   0  0  0  0  0  0  0  0  0  0  0  0
   18.0642  -23.7174   -9.7894 N   0  0  0  0  0  0  0  0  0  0  0  0
   18.4575  -22.9035  -10.9065 C   0  0  0  0  0  0  0  0  0  0  0  0
   19.9202  -22.8900  -11.1658 C   0  0  0  0  0  0  0  0  0  0  0  0
   20.4358  -21.9364  -12.1715 C   0  0  0  0  0  0  0  0  0  0  0  0
   19.8298  -22.0090  -13.5353 C   0  0  2  0  0  0  0  0  0  0  0  0
   19.8290  -23.3884  -13.9431 N   0  0  0  0  0  0  0  0  0  0  0  0
   20.5377  -21.1337  -14.5126 C   0  0  0  0  0  0  0  0  0  0  0  0
   21.5973  -21.5361  -15.0457 O   0  0  0  0  0  0  0  0  0  0  0  0
   17.9526  -25.0270   -7.6543 C   0  0  0  0  0  0  0  0  0  0  0  0
   19.1175  -19.7490  -17.5907 C   0  0  2  0  0  0  0  0  0  0  0  0
   19.7521  -18.5605  -16.9197 O   0  0  0  0  0  0  0  0  0  0  0  0
   18.8151  -17.7667  -16.2621 C   0  0  2  0  0  0  0  0  0  0  0  0
   20.7507  -19.0971  -15.8813 N   0  0  0  0  0  0  0  0  0  0  0  0
   20.0681  -19.8473  -14.8777 C   0  0  0  0  0  0  0  0  0  0  0  0
   21.4940  -17.9289  -15.3050 O   0  0  0  0  0  0  0  0  0  0  0  0
   21.0963  -17.3626  -14.2493 C   0  0  0  0  0  0  0  0  0  0  0  0
   27.4283  -18.0109  -15.6019 S   0  0  0  0  0  0  0  0  0  0  0  0
   27.4865  -16.2338  -15.1305 C   0  0  0  0  0  0  0  0  0  0  0  0
   25.8278  -15.6229  -15.0089 C   0  0  0  0  0  0  0  0  0  0  0  0
   24.7315  -16.4874  -15.3869 C   0  0  1  0  0  0  0  0  0  0  0  0
   23.2934  -16.1295  -15.3544 N   0  0  0  0  0  0  0  0  0  0  0  0
   22.6545  -17.4064  -15.8936 C   0  0  0  0  0  0  0  0  0  0  0  0
   22.8790  -15.1074  -16.3696 O   0  0  0  0  0  0  0  0  0  0  0  0
   22.7738  -13.8625  -15.9974 O   0  0  0  0  0  0  0  0  0  0  0  0
  2  3  2  0
  2  1  1  0
  4  2  1  0
  5  4  1  0
  6  5  1  0
  7  6  1  0
  8 10  1  0
  8  7  1  0
  8  9  1  6
 10 16  1  0
 10 11  2  0
 13 12  1  6
 13 14  1  0
 15 13  1  0
 15 16  1  6
 17 18  2  0
 17 15  1  0
 19 20  1  0
 21 20  1  0
 23 22  1  1
 22 21  1  0
 23 24  1  0
 24 17  1  0
 25 23  1  0
 26 25  2  0
 27 25  1  0
M  END
$$$$
