RTM.pdb
     RDKit          3D

 27 26  0  0  1  0  0  0  0  0999 V2000
   16.5800  -17.9291  -17.5882 N   0  0  0  0  0  0  0  0  0  0  0  0
   16.4636  -16.8668  -16.6551 C   0  0  0  0  0  0  0  0  0  0  0  0
   15.5754  -16.8971  -15.7109 N   0  0  0  0  0  0  0  0  0  0  0  0
   17.3027  -15.7322  -16.6834 N   0  0  0  0  0  0  0  0  0  0  0  0
   18.2716  -15.4522  -17.7070 C   0  0  0  0  0  0  0  0  0  0  0  0
   19.6649  -15.8179  -17.3437 C   0  0  0  0  0  0  0  0  0  0  0  0
   20.1259  -17.1868  -17.6603 C   0  0  0  0  0  0  0  0  0  0  0  0
   21.5408  -17.5146  -17.3098 C   0  0  2  0  0  0  0  0  0  0  0  0
   22.1970  -17.9668  -18.5073 N   0  0  0  0  0  0  0  0  0  0  0  0
   21.6301  -18.5142  -16.2075 C   0  0  0  0  0  0  0  0  0  0  0  0
   20.6451  -19.2467  -15.9584 O   0  0  0  0  0  0  0  0  0  0  0  0
   15.4294  -16.1139  -15.0592 C   0  0  0  0  0  0  0  0  0  0  0  0
   24.0850  -20.9121  -16.6908 C   0  0  1  0  0  0  0  0  0  0  0  0
   22.9578  -21.0936  -15.7100 O   0  0  0  0  0  0  0  0  0  0  0  0
   23.0764  -22.2787  -14.9875 C   0  0  1  0  0  0  0  0  0  0  0  0
   23.0108  -19.9148  -14.7247 N   0  0  0  0  0  0  0  0  0  0  0  0
   22.7903  -18.6836  -15.4114 C   0  0  0  0  0  0  0  0  0  0  0  0
   24.3421  -19.9458  -14.0348 O   0  0  0  0  0  0  0  0  0  0  0  0
   25.3784  -19.5017  -14.6025 C   0  0  0  0  0  0  0  0  0  0  0  0
   23.6481  -21.0653   -7.8921 S   0  0  0  0  0  0  0  0  0  0  0  0
   25.4844  -21.1603   -7.9409 C   0  0  0  0  0  0  0  0  0  0  0  0
   26.0519  -20.4312   -9.4528 C   0  0  0  0  0  0  0  0  0  0  0  0
   25.5423  -20.9342  -10.7096 C   0  0  2  0  0  0  0  0  0  0  0  0
   25.8731  -20.4049  -12.0541 N   0  0  0  0  0  0  0  0  0  0  0  0
   24.5114  -20.4598  -12.7413 C   0  0  0  0  0  0  0  0  0  0  0  0
   26.7004  -21.3227  -12.9027 O   0  0  0  0  0  0  0  0  0  0  0  0
   27.8993  -20.9449  -13.2482 O   0  0  0  0  0  0  0  0  0  0  0  0
  2  3  2  0
  2  1  1  0
  4  2  1  0
  5  4  1  0
  6  5  1  0
  7  6  1  0
  8 10  1  0
  8  7  1  0
  8  9  1  6
 10 16  1  0
 10 11  2  0
 13 12  1  6
 13 14  1  0
 15 13  1  0
 15 16  1  6
 17 18  2  0
 17 15  1  0
 19 20  1  0
 21 20  1  0
 23 22  1  1
 22 21  1  0
 23 24  1  0
 24 17  1  0
 25 23  1  0
 26 25  2  0
 27 25  1  0
M  END
$$$$
