RTM.pdb
     RDKit          3D

 27 26  0  0  1  0  0  0  0  0999 V2000
   29.5486  -21.9714  -17.9334 N   0  0  0  0  0  0  0  0  0  0  0  0
   29.0722  -21.7901  -16.6095 C   0  0  0  0  0  0  0  0  0  0  0  0
   28.9580  -22.7919  -15.7941 N   0  0  0  0  0  0  0  0  0  0  0  0
   28.7108  -20.5260  -16.0960 N   0  0  0  0  0  0  0  0  0  0  0  0
   28.8169  -19.2863  -16.8149 C   0  0  0  0  0  0  0  0  0  0  0  0
   27.5726  -18.8810  -17.5181 C   0  0  0  0  0  0  0  0  0  0  0  0
   26.5066  -18.2361  -16.7217 C   0  0  0  0  0  0  0  0  0  0  0  0
   25.2489  -19.0190  -16.5281 C   0  0  2  0  0  0  0  0  0  0  0  0
   24.3215  -18.6215  -17.5534 N   0  0  0  0  0  0  0  0  0  0  0  0
   24.6832  -18.8455  -15.1598 C   0  0  0  0  0  0  0  0  0  0  0  0
   23.7665  -18.0127  -14.9728 O   0  0  0  0  0  0  0  0  0  0  0  0
   28.5394  -22.7023  -14.8581 C   0  0  0  0  0  0  0  0  0  0  0  0
   22.3343  -19.1124  -14.0566 C   0  0  2  0  0  0  0  0  0  0  0  0
   22.9610  -20.0223  -13.0344 O   0  0  0  0  0  0  0  0  0  0  0  0
   22.9976  -21.3471  -13.4633 C   0  0  2  0  0  0  0  0  0  0  0  0
   24.4044  -19.5415  -12.8137 N   0  0  0  0  0  0  0  0  0  0  0  0
   25.1349  -19.5853  -14.0386 C   0  0  0  0  0  0  0  0  0  0  0  0
   25.0246  -20.4044  -11.7554 O   0  0  0  0  0  0  0  0  0  0  0  0
   25.6013  -21.4865  -12.0551 C   0  0  0  0  0  0  0  0  0  0  0  0
   28.3316  -19.7224   -4.7044 S   0  0  0  0  0  0  0  0  0  0  0  0
   27.7138  -19.0417   -6.2977 C   0  0  0  0  0  0  0  0  0  0  0  0
   26.8488  -20.3213   -7.1659 C   0  0  0  0  0  0  0  0  0  0  0  0
   26.3453  -20.0516   -8.4948 C   0  0  1  0  0  0  0  0  0  0  0  0
   25.5978  -21.0047   -9.3493 N   0  0  0  0  0  0  0  0  0  0  0  0
   25.0017  -20.0661  -10.3948 C   0  0  0  0  0  0  0  0  0  0  0  0
   24.3765  -21.5942   -8.7106 O   0  0  0  0  0  0  0  0  0  0  0  0
   24.5263  -22.5527   -7.8398 O   0  0  0  0  0  0  0  0  0  0  0  0
  2  3  2  0
  2  1  1  0
  4  2  1  0
  5  4  1  0
  6  5  1  0
  7  6  1  0
  8 10  1  0
  8  7  1  0
  8  9  1  6
 10 16  1  0
 10 11  2  0
 13 12  1  1
 13 14  1  0
 15 13  1  0
 15 16  1  1
 17 18  2  0
 17 15  1  0
 19 20  1  0
 21 20  1  0
 23 22  1  6
 22 21  1  0
 23 24  1  0
 24 17  1  0
 25 23  1  0
 26 25  2  0
 27 25  1  0
M  END
$$$$
