VFS.pdb
     RDKit          3D

 25 25  0  0  1  0  0  0  0  0999 V2000
   10.4217  -19.2087   21.2288 C   0  0  0  0  0  0  0  0  0  0  0  0
    9.1182  -18.7550   20.6398 C   0  0  2  0  0  0  0  0  0  0  0  0
    8.7331  -19.6154   19.4709 C   0  0  0  0  0  0  0  0  0  0  0  0
    9.0373  -17.2701   20.3519 C   0  0  2  0  0  0  0  0  0  0  0  0
   10.0433  -17.0607   19.2860 N   0  0  0  0  0  0  0  0  0  0  0  0
    9.3038  -16.4014   21.5100 C   0  0  0  0  0  0  0  0  0  0  0  0
   10.4968  -16.1333   21.8592 O   0  0  0  0  0  0  0  0  0  0  0  0
    8.2982  -15.8106   22.2990 N   0  0  0  0  0  0  0  0  0  0  0  0
    8.4084  -15.0935   23.5070 C   0  0  1  0  0  0  0  0  0  0  0  0
    7.0392  -14.3998   23.7595 C   0  0  0  0  0  0  0  0  0  0  0  0
    7.0730  -13.6138   25.0158 C   0  0  0  0  0  0  0  0  0  0  0  0
    7.9407  -12.5213   25.1672 C   0  0  0  0  0  0  0  0  0  0  0  0
    7.9454  -11.7545   26.3104 C   0  0  0  0  0  0  0  0  0  0  0  0
    7.0834  -12.0410   27.3541 C   0  0  0  0  0  0  0  0  0  0  0  0
    6.2276  -13.1088   27.2276 C   0  0  0  0  0  0  0  0  0  0  0  0
    6.2357  -13.8732   26.0715 C   0  0  0  0  0  0  0  0  0  0  0  0
    8.8248  -15.7638   24.7060 C   0  0  0  0  0  0  0  0  0  0  0  0
    8.0802  -16.6989   25.1421 O   0  0  0  0  0  0  0  0  0  0  0  0
   12.7208  -15.8422   26.0090 O   0  0  0  0  0  0  0  0  0  0  0  0
   11.8504  -16.9170   26.1103 C   0  0  0  0  0  0  0  0  0  0  0  0
   10.4264  -16.4447   26.4472 C   0  0  2  0  0  0  0  0  0  0  0  0
    9.9965  -15.4846   25.4458 N   0  0  0  0  0  0  0  0  0  0  0  0
   10.3794  -15.9258   27.8129 C   0  0  0  0  0  0  0  0  0  0  0  0
   10.7727  -16.6254   28.7733 O   0  0  0  0  0  0  0  0  0  0  0  0
    9.9181  -14.6639   28.0716 O   0  0  0  0  0  0  0  0  0  0  0  0
  2  1  1  6
  2  3  1  0
  4  2  1  0
  4  5  1  6
  6  4  1  0
  6  7  2  0
  8  6  1  0
  9  8  1  0
 10 11  1  0
  9 10  1  1
 11 12  2  0
 12 13  1  0
 14 13  2  0
 15 14  1  0
 16 15  2  0
 16 11  1  0
 17 22  1  0
 17  9  1  0
 18 17  2  0
 20 19  1  0
 21 22  1  0
 21 20  1  6
 23 21  1  0
 24 23  2  0
 25 23  1  0
M  END
$$$$
