VFS.pdb
     RDKit          3D

 25 25  0  0  1  0  0  0  0  0999 V2000
    7.3550  -12.4740   20.9975 C   0  0  0  0  0  0  0  0  0  0  0  0
    8.1167  -13.2848   19.9903 C   0  0  2  0  0  0  0  0  0  0  0  0
    7.4600  -13.2133   18.6418 C   0  0  0  0  0  0  0  0  0  0  0  0
    8.4423  -14.6968   20.4315 C   0  0  2  0  0  0  0  0  0  0  0  0
    7.1648  -15.4252   20.2596 N   0  0  0  0  0  0  0  0  0  0  0  0
    8.9368  -14.8132   21.8132 C   0  0  0  0  0  0  0  0  0  0  0  0
   10.0851  -14.3690   22.1310 O   0  0  0  0  0  0  0  0  0  0  0  0
    8.2063  -15.4005   22.8639 N   0  0  0  0  0  0  0  0  0  0  0  0
    8.5719  -15.6030   24.2097 C   0  0  1  0  0  0  0  0  0  0  0  0
    7.2786  -15.4746   25.0645 C   0  0  0  0  0  0  0  0  0  0  0  0
    7.1706  -14.1181   25.6521 C   0  0  0  0  0  0  0  0  0  0  0  0
    6.0784  -13.2853   25.3638 C   0  0  0  0  0  0  0  0  0  0  0  0
    5.9433  -12.0436   25.9425 C   0  0  0  0  0  0  0  0  0  0  0  0
    6.8902  -11.5765   26.8367 C   0  0  0  0  0  0  0  0  0  0  0  0
    7.9694  -12.3750   27.1304 C   0  0  0  0  0  0  0  0  0  0  0  0
    8.0933  -13.6220   26.5384 C   0  0  0  0  0  0  0  0  0  0  0  0
    9.2733  -16.7952   24.5931 C   0  0  0  0  0  0  0  0  0  0  0  0
    8.6329  -17.8933   24.5395 O   0  0  0  0  0  0  0  0  0  0  0  0
   13.4098  -17.2437   25.0694 O   0  0  0  0  0  0  0  0  0  0  0  0
   12.5757  -18.2588   24.6256 C   0  0  0  0  0  0  0  0  0  0  0  0
   11.1930  -18.1686   25.2923 C   0  0  2  0  0  0  0  0  0  0  0  0
   10.6195  -16.8626   25.0187 N   0  0  0  0  0  0  0  0  0  0  0  0
   11.3021  -18.4721   26.7180 C   0  0  0  0  0  0  0  0  0  0  0  0
   11.8193  -19.5451   27.1023 O   0  0  0  0  0  0  0  0  0  0  0  0
   10.8552  -17.5889   27.6626 O   0  0  0  0  0  0  0  0  0  0  0  0
  2  1  1  1
  2  3  1  0
  4  2  1  0
  4  5  1  1
  6  4  1  0
  6  7  2  0
  8  6  1  0
  9  8  1  0
 10 11  1  0
  9 10  1  1
 11 12  2  0
 12 13  1  0
 14 13  2  0
 15 14  1  0
 16 15  2  0
 16 11  1  0
 17 22  1  0
 17  9  1  0
 18 17  2  0
 20 19  1  0
 21 22  1  0
 21 20  1  1
 23 21  1  0
 24 23  2  0
 25 23  1  0
M  END
$$$$
