VFS.pdb
     RDKit          3D

 25 25  0  0  1  0  0  0  0  0999 V2000
    6.8125  -13.3300   19.1240 C   0  0  0  0  0  0  0  0  0  0  0  0
    7.5816  -13.3758   20.4118 C   0  0  2  0  0  0  0  0  0  0  0  0
    8.5979  -12.2716   20.4654 C   0  0  0  0  0  0  0  0  0  0  0  0
    8.1465  -14.7368   20.7626 C   0  0  2  0  0  0  0  0  0  0  0  0
    6.9946  -15.6519   20.5965 N   0  0  0  0  0  0  0  0  0  0  0  0
    8.7136  -14.8392   22.1172 C   0  0  0  0  0  0  0  0  0  0  0  0
    9.8327  -14.3029   22.3944 O   0  0  0  0  0  0  0  0  0  0  0  0
    8.0869  -15.5109   23.1843 N   0  0  0  0  0  0  0  0  0  0  0  0
    8.5242  -15.6958   24.5111 C   0  0  1  0  0  0  0  0  0  0  0  0
    7.2842  -15.5253   25.4347 C   0  0  0  0  0  0  0  0  0  0  0  0
    7.1717  -14.1254   25.9088 C   0  0  0  0  0  0  0  0  0  0  0  0
    8.2735  -13.4532   26.4597 C   0  0  0  0  0  0  0  0  0  0  0  0
    8.1931  -12.1378   26.8575 C   0  0  0  0  0  0  0  0  0  0  0  0
    7.0107  -11.4320   26.7220 C   0  0  0  0  0  0  0  0  0  0  0  0
    5.9186  -12.0727   26.1877 C   0  0  0  0  0  0  0  0  0  0  0  0
    6.0138  -13.3980   25.7937 C   0  0  0  0  0  0  0  0  0  0  0  0
    9.2230  -16.8948   24.8777 C   0  0  0  0  0  0  0  0  0  0  0  0
    8.5968  -17.9961   24.7599 O   0  0  0  0  0  0  0  0  0  0  0  0
   13.3688  -17.3676   25.3838 O   0  0  0  0  0  0  0  0  0  0  0  0
   12.5118  -18.3294   24.8703 C   0  0  0  0  0  0  0  0  0  0  0  0
   11.1414  -18.2758   25.5655 C   0  0  2  0  0  0  0  0  0  0  0  0
   10.5528  -16.9653   25.3519 N   0  0  0  0  0  0  0  0  0  0  0  0
   11.2798  -18.6315   26.9765 C   0  0  0  0  0  0  0  0  0  0  0  0
   10.9346  -17.8283   27.8721 O   0  0  0  0  0  0  0  0  0  0  0  0
   11.7761  -19.8506   27.3504 O   0  0  0  0  0  0  0  0  0  0  0  0
  2  1  1  6
  2  3  1  0
  4  2  1  0
  4  5  1  1
  6  4  1  0
  6  7  2  0
  8  6  1  0
  9  8  1  0
 10 11  1  0
  9 10  1  1
 11 12  2  0
 12 13  1  0
 14 13  2  0
 15 14  1  0
 16 15  2  0
 16 11  1  0
 17 22  1  0
 17  9  1  0
 18 17  2  0
 20 19  1  0
 21 22  1  0
 21 20  1  1
 23 21  1  0
 24 23  2  0
 25 23  1  0
M  END
$$$$
