VFS.pdb
     RDKit          3D

 25 25  0  0  1  0  0  0  0  0999 V2000
    9.1479  -18.7860   20.5054 C   0  0  0  0  0  0  0  0  0  0  0  0
    8.1558  -17.8527   19.8758 C   0  0  2  0  0  0  0  0  0  0  0  0
    7.7492  -18.3445   18.5165 C   0  0  0  0  0  0  0  0  0  0  0  0
    8.5602  -16.3930   19.8960 C   0  0  2  0  0  0  0  0  0  0  0  0
    9.7134  -16.3321   18.9695 N   0  0  0  0  0  0  0  0  0  0  0  0
    8.9196  -15.8705   21.2244 C   0  0  0  0  0  0  0  0  0  0  0  0
   10.0875  -16.0452   21.6962 O   0  0  0  0  0  0  0  0  0  0  0  0
    8.0356  -15.1548   22.0546 N   0  0  0  0  0  0  0  0  0  0  0  0
    8.1997  -14.7301   23.3882 C   0  0  1  0  0  0  0  0  0  0  0  0
    6.9272  -13.9241   23.7767 C   0  0  0  0  0  0  0  0  0  0  0  0
    7.0729  -13.3330   25.1281 C   0  0  0  0  0  0  0  0  0  0  0  0
    8.2320  -13.5401   25.8916 C   0  0  0  0  0  0  0  0  0  0  0  0
    8.3984  -12.9556   27.1267 C   0  0  0  0  0  0  0  0  0  0  0  0
    7.4172  -12.1361   27.6561 C   0  0  0  0  0  0  0  0  0  0  0  0
    6.2727  -11.9227   26.9260 C   0  0  0  0  0  0  0  0  0  0  0  0
    6.1181  -12.5197   25.6848 C   0  0  0  0  0  0  0  0  0  0  0  0
    8.4829  -15.6884   24.4186 C   0  0  0  0  0  0  0  0  0  0  0  0
    7.5227  -16.4241   24.8131 O   0  0  0  0  0  0  0  0  0  0  0  0
   12.0710  -17.2940   24.7644 O   0  0  0  0  0  0  0  0  0  0  0  0
   10.9484  -18.0066   25.1583 C   0  0  0  0  0  0  0  0  0  0  0  0
    9.9230  -17.0878   25.8428 C   0  0  2  0  0  0  0  0  0  0  0  0
    9.7390  -15.8967   25.0324 N   0  0  0  0  0  0  0  0  0  0  0  0
   10.3406  -16.8030   27.2143 C   0  0  0  0  0  0  0  0  0  0  0  0
   10.5718  -17.7361   28.0158 O   0  0  0  0  0  0  0  0  0  0  0  0
   10.5003  -15.5156   27.6493 O   0  0  0  0  0  0  0  0  0  0  0  0
  2  1  1  6
  2  3  1  0
  4  2  1  0
  4  5  1  6
  6  4  1  0
  6  7  2  0
  8  6  1  0
  9  8  1  0
 10 11  1  0
  9 10  1  1
 11 12  2  0
 12 13  1  0
 14 13  2  0
 15 14  1  0
 16 15  2  0
 16 11  1  0
 17 22  1  0
 17  9  1  0
 18 17  2  0
 20 19  1  0
 21 22  1  0
 21 20  1  6
 23 21  1  0
 24 23  2  0
 25 23  1  0
M  END
$$$$
