VFS.pdb
     RDKit          3D

 25 25  0  0  1  0  0  0  0  0999 V2000
    7.5839  -12.5530   21.1593 C   0  0  0  0  0  0  0  0  0  0  0  0
    8.2530  -13.4275   20.1398 C   0  0  2  0  0  0  0  0  0  0  0  0
    7.5605  -13.3238   18.8115 C   0  0  0  0  0  0  0  0  0  0  0  0
    8.4908  -14.8543   20.5894 C   0  0  2  0  0  0  0  0  0  0  0  0
    7.1591  -15.4902   20.4690 N   0  0  0  0  0  0  0  0  0  0  0  0
    9.0215  -14.9907   21.9557 C   0  0  0  0  0  0  0  0  0  0  0  0
   10.2315  -14.6974   22.2140 O   0  0  0  0  0  0  0  0  0  0  0  0
    8.2621  -15.4366   23.0544 N   0  0  0  0  0  0  0  0  0  0  0  0
    8.6435  -15.6104   24.3997 C   0  0  1  0  0  0  0  0  0  0  0  0
    7.3674  -15.4252   25.2698 C   0  0  0  0  0  0  0  0  0  0  0  0
    7.2321  -14.0162   25.7095 C   0  0  0  0  0  0  0  0  0  0  0  0
    6.0714  -13.2768   25.4350 C   0  0  0  0  0  0  0  0  0  0  0  0
    5.9151  -11.9840   25.8812 C   0  0  0  0  0  0  0  0  0  0  0  0
    6.9084  -11.3701   26.6234 C   0  0  0  0  0  0  0  0  0  0  0  0
    8.0548  -12.0755   26.9006 C   0  0  0  0  0  0  0  0  0  0  0  0
    8.1990  -13.3757   26.4428 C   0  0  0  0  0  0  0  0  0  0  0  0
    9.3209  -16.8087   24.8063 C   0  0  0  0  0  0  0  0  0  0  0  0
    8.6820  -17.9045   24.7061 O   0  0  0  0  0  0  0  0  0  0  0  0
   13.4002  -17.1829   25.6399 O   0  0  0  0  0  0  0  0  0  0  0  0
   12.6708  -18.2101   25.0601 C   0  0  0  0  0  0  0  0  0  0  0  0
   11.2132  -18.1971   25.5495 C   0  0  2  0  0  0  0  0  0  0  0  0
   10.6423  -16.8846   25.3025 N   0  0  0  0  0  0  0  0  0  0  0  0
   11.1503  -18.6076   26.9510 C   0  0  0  0  0  0  0  0  0  0  0  0
   10.6065  -17.8726   27.8055 O   0  0  0  0  0  0  0  0  0  0  0  0
   11.6709  -19.8057   27.3582 O   0  0  0  0  0  0  0  0  0  0  0  0
  2  1  1  1
  2  3  1  0
  4  2  1  0
  4  5  1  1
  6  4  1  0
  6  7  2  0
  8  6  1  0
  9  8  1  0
 10 11  1  0
  9 10  1  1
 11 12  2  0
 12 13  1  0
 14 13  2  0
 15 14  1  0
 16 15  2  0
 16 11  1  0
 17 22  1  0
 17  9  1  0
 18 17  2  0
 20 19  1  0
 21 22  1  0
 21 20  1  1
 23 21  1  0
 24 23  2  0
 25 23  1  0
M  END
$$$$
