VFS.pdb
     RDKit          3D

 25 25  0  0  1  0  0  0  0  0999 V2000
    5.7135  -15.4783   20.4900 C   0  0  0  0  0  0  0  0  0  0  0  0
    7.0079  -15.9271   19.8776 C   0  0  2  0  0  0  0  0  0  0  0  0
    6.8403  -17.2493   19.1858 C   0  0  0  0  0  0  0  0  0  0  0  0
    8.1994  -15.8788   20.8118 C   0  0  2  0  0  0  0  0  0  0  0  0
    8.4473  -17.3003   21.1435 N   0  0  0  0  0  0  0  0  0  0  0  0
    7.9963  -15.0780   22.0302 C   0  0  0  0  0  0  0  0  0  0  0  0
    6.8931  -14.4807   22.2378 O   0  0  0  0  0  0  0  0  0  0  0  0
    8.9684  -14.9142   23.0357 N   0  0  0  0  0  0  0  0  0  0  0  0
    8.8805  -15.1619   24.4201 C   0  0  1  0  0  0  0  0  0  0  0  0
    7.3851  -15.0139   24.8223 C   0  0  0  0  0  0  0  0  0  0  0  0
    7.1768  -13.7849   25.6244 C   0  0  0  0  0  0  0  0  0  0  0  0
    8.1095  -12.7367   25.6047 C   0  0  0  0  0  0  0  0  0  0  0  0
    7.9021  -11.5709   26.3068 C   0  0  0  0  0  0  0  0  0  0  0  0
    6.7539  -11.3964   27.0589 C   0  0  0  0  0  0  0  0  0  0  0  0
    5.8289  -12.4122   27.0943 C   0  0  0  0  0  0  0  0  0  0  0  0
    6.0524  -13.5812   26.3841 C   0  0  0  0  0  0  0  0  0  0  0  0
    9.3961  -16.3851   24.9661 C   0  0  0  0  0  0  0  0  0  0  0  0
    8.6407  -17.4081   24.9253 O   0  0  0  0  0  0  0  0  0  0  0  0
   13.3753  -17.2354   25.8336 O   0  0  0  0  0  0  0  0  0  0  0  0
   12.4654  -18.2097   25.4517 C   0  0  0  0  0  0  0  0  0  0  0  0
   11.0583  -17.8898   25.9828 C   0  0  2  0  0  0  0  0  0  0  0  0
   10.6758  -16.5604   25.5402 N   0  0  0  0  0  0  0  0  0  0  0  0
   11.0195  -18.0563   27.4345 C   0  0  0  0  0  0  0  0  0  0  0  0
   10.6948  -17.1018   28.1760 O   0  0  0  0  0  0  0  0  0  0  0  0
   11.3236  -19.2579   28.0141 O   0  0  0  0  0  0  0  0  0  0  0  0
  2  1  1  1
  2  3  1  0
  4  2  1  0
  4  5  1  1
  6  4  1  0
  6  7  2  0
  8  6  1  0
  9  8  1  0
 10 11  1  0
  9 10  1  6
 11 12  2  0
 12 13  1  0
 14 13  2  0
 15 14  1  0
 16 15  2  0
 16 11  1  0
 17 22  1  0
 17  9  1  0
 18 17  2  0
 20 19  1  0
 21 22  1  0
 21 20  1  1
 23 21  1  0
 24 23  2  0
 25 23  1  0
M  END
$$$$
