VFS.pdb
     RDKit          3D

 25 25  0  0  1  0  0  0  0  0999 V2000
    8.0579  -18.8113   18.8317 C   0  0  0  0  0  0  0  0  0  0  0  0
    8.2891  -18.2780   20.2152 C   0  0  2  0  0  0  0  0  0  0  0  0
    7.1352  -18.6135   21.1157 C   0  0  0  0  0  0  0  0  0  0  0  0
    8.6971  -16.8203   20.2708 C   0  0  2  0  0  0  0  0  0  0  0  0
    9.9354  -16.7679   19.4609 N   0  0  0  0  0  0  0  0  0  0  0  0
    8.9280  -16.2952   21.6264 C   0  0  0  0  0  0  0  0  0  0  0  0
    9.9812  -16.6009   22.2701 O   0  0  0  0  0  0  0  0  0  0  0  0
    8.0379  -15.4374   22.3007 N   0  0  0  0  0  0  0  0  0  0  0  0
    8.0918  -14.9416   23.6186 C   0  0  1  0  0  0  0  0  0  0  0  0
    7.0672  -13.7751   23.7161 C   0  0  0  0  0  0  0  0  0  0  0  0
    7.0361  -13.2176   25.0892 C   0  0  0  0  0  0  0  0  0  0  0  0
    8.0208  -12.3216   25.5330 C   0  0  0  0  0  0  0  0  0  0  0  0
    7.9741  -11.7598   26.7889 C   0  0  0  0  0  0  0  0  0  0  0  0
    6.9422  -12.0644   27.6588 C   0  0  0  0  0  0  0  0  0  0  0  0
    5.9692  -12.9423   27.2450 C   0  0  0  0  0  0  0  0  0  0  0  0
    6.0305  -13.5018   25.9785 C   0  0  0  0  0  0  0  0  0  0  0  0
    7.9009  -15.8300   24.7297 C   0  0  0  0  0  0  0  0  0  0  0  0
    6.8511  -16.5488   24.7303 O   0  0  0  0  0  0  0  0  0  0  0  0
    9.6953  -19.5318   25.8245 O   0  0  0  0  0  0  0  0  0  0  0  0
    9.4556  -18.2682   25.3060 C   0  0  0  0  0  0  0  0  0  0  0  0
    8.9442  -17.3118   26.3960 C   0  0  2  0  0  0  0  0  0  0  0  0
    8.7810  -15.9865   25.8247 N   0  0  0  0  0  0  0  0  0  0  0  0
    9.8381  -17.3441   27.5521 C   0  0  0  0  0  0  0  0  0  0  0  0
   10.6095  -16.3869   27.7869 O   0  0  0  0  0  0  0  0  0  0  0  0
    9.8438  -18.4111   28.4087 O   0  0  0  0  0  0  0  0  0  0  0  0
  2  1  1  6
  2  3  1  0
  4  2  1  0
  4  5  1  6
  6  4  1  0
  6  7  2  0
  8  6  1  0
  9  8  1  0
 10 11  1  0
  9 10  1  6
 11 12  2  0
 12 13  1  0
 14 13  2  0
 15 14  1  0
 16 15  2  0
 16 11  1  0
 17 22  1  0
 17  9  1  0
 18 17  2  0
 20 19  1  0
 21 22  1  0
 21 20  1  6
 23 21  1  0
 24 23  2  0
 25 23  1  0
M  END
$$$$
