VFS.pdb
     RDKit          3D

 25 25  0  0  1  0  0  0  0  0999 V2000
    9.5572  -19.0204   18.9349 C   0  0  0  0  0  0  0  0  0  0  0  0
    9.6079  -18.3242   20.2632 C   0  0  2  0  0  0  0  0  0  0  0  0
    8.6648  -18.9675   21.2387 C   0  0  0  0  0  0  0  0  0  0  0  0
    9.4717  -16.8172   20.1927 C   0  0  2  0  0  0  0  0  0  0  0  0
   10.5730  -16.4038   19.2936 N   0  0  0  0  0  0  0  0  0  0  0  0
    9.5603  -16.1281   21.4905 C   0  0  0  0  0  0  0  0  0  0  0  0
   10.6855  -15.9502   22.0553 O   0  0  0  0  0  0  0  0  0  0  0  0
    8.4484  -15.6212   22.1902 N   0  0  0  0  0  0  0  0  0  0  0  0
    8.3820  -15.0375   23.4711 C   0  0  1  0  0  0  0  0  0  0  0  0
    7.1734  -14.0582   23.4709 C   0  0  0  0  0  0  0  0  0  0  0  0
    7.0981  -13.3176   24.7526 C   0  0  0  0  0  0  0  0  0  0  0  0
    6.1708  -13.6724   25.7444 C   0  0  0  0  0  0  0  0  0  0  0  0
    6.1255  -13.0233   26.9575 C   0  0  0  0  0  0  0  0  0  0  0  0
    7.0044  -11.9920   27.2377 C   0  0  0  0  0  0  0  0  0  0  0  0
    7.9185  -11.6266   26.2788 C   0  0  0  0  0  0  0  0  0  0  0  0
    7.9509  -12.2878   25.0612 C   0  0  0  0  0  0  0  0  0  0  0  0
    8.3131  -15.8702   24.6382 C   0  0  0  0  0  0  0  0  0  0  0  0
    7.9802  -15.3153   25.7338 O   0  0  0  0  0  0  0  0  0  0  0  0
   12.1452  -18.0007   25.0042 O   0  0  0  0  0  0  0  0  0  0  0  0
   10.9612  -17.6365   24.3806 C   0  0  0  0  0  0  0  0  0  0  0  0
    9.7759  -17.7153   25.3568 C   0  0  2  0  0  0  0  0  0  0  0  0
    8.5743  -17.2587   24.6808 N   0  0  0  0  0  0  0  0  0  0  0  0
   10.0796  -16.9694   26.5767 C   0  0  0  0  0  0  0  0  0  0  0  0
    9.9732  -15.7227   26.6034 O   0  0  0  0  0  0  0  0  0  0  0  0
   10.4734  -17.6145   27.7173 O   0  0  0  0  0  0  0  0  0  0  0  0
  2  1  1  6
  2  3  1  0
  4  2  1  0
  4  5  1  6
  6  4  1  0
  6  7  2  0
  8  6  1  0
  9  8  1  0
 10 11  1  0
  9 10  1  6
 11 12  2  0
 12 13  1  0
 14 13  2  0
 15 14  1  0
 16 15  2  0
 16 11  1  0
 17 22  1  0
 17  9  1  0
 18 17  2  0
 20 19  1  0
 21 22  1  0
 21 20  1  6
 23 21  1  0
 24 23  2  0
 25 23  1  0
M  END
$$$$
