VFS.pdb
     RDKit          3D

 25 25  0  0  1  0  0  0  0  0999 V2000
    9.3907  -19.2508   19.0438 C   0  0  0  0  0  0  0  0  0  0  0  0
    9.5970  -18.5375   20.3478 C   0  0  2  0  0  0  0  0  0  0  0  0
    8.7796  -19.1703   21.4369 C   0  0  0  0  0  0  0  0  0  0  0  0
    9.4476  -17.0319   20.2751 C   0  0  2  0  0  0  0  0  0  0  0  0
   10.4785  -16.6205   19.2953 N   0  0  0  0  0  0  0  0  0  0  0  0
    9.6259  -16.3313   21.5575 C   0  0  0  0  0  0  0  0  0  0  0  0
   10.7602  -16.3075   22.1317 O   0  0  0  0  0  0  0  0  0  0  0  0
    8.5952  -15.6487   22.2317 N   0  0  0  0  0  0  0  0  0  0  0  0
    8.5995  -15.0453   23.5051 C   0  0  1  0  0  0  0  0  0  0  0  0
    7.2906  -14.2136   23.6271 C   0  0  0  0  0  0  0  0  0  0  0  0
    7.2129  -13.5489   24.9497 C   0  0  0  0  0  0  0  0  0  0  0  0
    8.1578  -12.5862   25.3366 C   0  0  0  0  0  0  0  0  0  0  0  0
    8.0668  -11.9271   26.5418 C   0  0  0  0  0  0  0  0  0  0  0  0
    7.0281  -12.1965   27.4152 C   0  0  0  0  0  0  0  0  0  0  0  0
    6.0936  -13.1384   27.0569 C   0  0  0  0  0  0  0  0  0  0  0  0
    6.1994  -13.7955   25.8412 C   0  0  0  0  0  0  0  0  0  0  0  0
    8.7569  -15.8511   24.6824 C   0  0  0  0  0  0  0  0  0  0  0  0
    7.8103  -16.6491   24.9758 O   0  0  0  0  0  0  0  0  0  0  0  0
   12.3078  -17.1353   26.1648 O   0  0  0  0  0  0  0  0  0  0  0  0
   11.1054  -17.8178   26.2735 C   0  0  0  0  0  0  0  0  0  0  0  0
    9.9497  -16.8538   26.5883 C   0  0  2  0  0  0  0  0  0  0  0  0
    9.8763  -15.8456   25.5454 N   0  0  0  0  0  0  0  0  0  0  0  0
   10.1118  -16.2964   27.9299 C   0  0  0  0  0  0  0  0  0  0  0  0
   10.0989  -15.0580   28.1102 O   0  0  0  0  0  0  0  0  0  0  0  0
   10.2680  -17.1119   29.0174 O   0  0  0  0  0  0  0  0  0  0  0  0
  2  1  1  6
  2  3  1  0
  4  2  1  0
  4  5  1  6
  6  4  1  0
  6  7  2  0
  8  6  1  0
  9  8  1  0
 10 11  1  0
  9 10  1  1
 11 12  2  0
 12 13  1  0
 14 13  2  0
 15 14  1  0
 16 15  2  0
 16 11  1  0
 17 22  1  0
 17  9  1  0
 18 17  2  0
 20 19  1  0
 21 22  1  0
 21 20  1  6
 23 21  1  0
 24 23  2  0
 25 23  1  0
M  END
$$$$
