VFS.pdb
     RDKit          3D

 25 25  0  0  1  0  0  0  0  0999 V2000
    7.5314  -12.7285   19.3881 C   0  0  0  0  0  0  0  0  0  0  0  0
    8.4132  -13.7207   18.6883 C   0  0  2  0  0  0  0  0  0  0  0  0
    7.8895  -14.0232   17.3138 C   0  0  0  0  0  0  0  0  0  0  0  0
    8.7392  -14.9584   19.4984 C   0  0  2  0  0  0  0  0  0  0  0  0
    7.5420  -15.8140   19.3352 N   0  0  0  0  0  0  0  0  0  0  0  0
    9.0216  -14.7081   20.9213 C   0  0  0  0  0  0  0  0  0  0  0  0
   10.1550  -14.2645   21.2896 O   0  0  0  0  0  0  0  0  0  0  0  0
    8.0942  -14.9258   21.9582 N   0  0  0  0  0  0  0  0  0  0  0  0
    8.2348  -14.7283   23.3463 C   0  0  1  0  0  0  0  0  0  0  0  0
    6.8891  -14.1495   23.8697 C   0  0  0  0  0  0  0  0  0  0  0  0
    7.0526  -13.5933   25.2339 C   0  0  0  0  0  0  0  0  0  0  0  0
    6.5089  -14.2413   26.3536 C   0  0  0  0  0  0  0  0  0  0  0  0
    6.6966  -13.7600   27.6296 C   0  0  0  0  0  0  0  0  0  0  0  0
    7.4370  -12.6116   27.8474 C   0  0  0  0  0  0  0  0  0  0  0  0
    7.9756  -11.9597   26.7641 C   0  0  0  0  0  0  0  0  0  0  0  0
    7.7763  -12.4548   25.4849 C   0  0  0  0  0  0  0  0  0  0  0  0
    8.6393  -15.8166   24.1904 C   0  0  0  0  0  0  0  0  0  0  0  0
    7.9199  -16.8660   24.1768 O   0  0  0  0  0  0  0  0  0  0  0  0
   12.4472  -16.7901   25.2803 O   0  0  0  0  0  0  0  0  0  0  0  0
   11.3778  -17.6620   25.1404 C   0  0  0  0  0  0  0  0  0  0  0  0
   10.0941  -17.0619   25.7373 C   0  0  2  0  0  0  0  0  0  0  0  0
    9.7739  -15.8327   25.0331 N   0  0  0  0  0  0  0  0  0  0  0  0
   10.2457  -16.8864   27.1805 C   0  0  0  0  0  0  0  0  0  0  0  0
   10.0829  -15.7620   27.7053 O   0  0  0  0  0  0  0  0  0  0  0  0
   10.5554  -17.9450   27.9903 O   0  0  0  0  0  0  0  0  0  0  0  0
  2  1  1  1
  2  3  1  0
  4  2  1  0
  4  5  1  1
  6  4  1  0
  6  7  2  0
  8  6  1  0
  9  8  1  0
 10 11  1  0
  9 10  1  1
 11 12  2  0
 12 13  1  0
 14 13  2  0
 15 14  1  0
 16 15  2  0
 16 11  1  0
 17 22  1  0
 17  9  1  0
 18 17  2  0
 20 19  1  0
 21 22  1  0
 21 20  1  6
 23 21  1  0
 24 23  2  0
 25 23  1  0
M  END
$$$$
