VFS.pdb
     RDKit          3D

 25 25  0  0  1  0  0  0  0  0999 V2000
    8.5851  -18.6653   20.6610 C   0  0  0  0  0  0  0  0  0  0  0  0
    7.3205  -17.8902   20.4332 C   0  0  2  0  0  0  0  0  0  0  0  0
    6.5606  -18.4421   19.2615 C   0  0  0  0  0  0  0  0  0  0  0  0
    7.5005  -16.3870   20.3850 C   0  0  2  0  0  0  0  0  0  0  0  0
    8.2676  -16.1619   19.1388 N   0  0  0  0  0  0  0  0  0  0  0  0
    8.1968  -15.8111   21.5471 C   0  0  0  0  0  0  0  0  0  0  0  0
    9.4511  -15.6048   21.5152 O   0  0  0  0  0  0  0  0  0  0  0  0
    7.5571  -15.4482   22.7478 N   0  0  0  0  0  0  0  0  0  0  0  0
    8.1131  -15.0043   23.9642 C   0  0  1  0  0  0  0  0  0  0  0  0
    6.9486  -14.4363   24.8250 C   0  0  0  0  0  0  0  0  0  0  0  0
    7.4684  -13.8144   26.0660 C   0  0  0  0  0  0  0  0  0  0  0  0
    7.5871  -12.4214   26.1870 C   0  0  0  0  0  0  0  0  0  0  0  0
    8.0218  -11.8312   27.3522 C   0  0  0  0  0  0  0  0  0  0  0  0
    8.3561  -12.6032   28.4506 C   0  0  0  0  0  0  0  0  0  0  0  0
    8.2502  -13.9699   28.3521 C   0  0  0  0  0  0  0  0  0  0  0  0
    7.8131  -14.5501   27.1718 C   0  0  0  0  0  0  0  0  0  0  0  0
    8.8978  -15.8999   24.7657 C   0  0  0  0  0  0  0  0  0  0  0  0
    8.3503  -16.9880   25.1332 O   0  0  0  0  0  0  0  0  0  0  0  0
   13.0750  -15.8933   25.0722 O   0  0  0  0  0  0  0  0  0  0  0  0
   12.2653  -17.0177   25.0159 C   0  0  0  0  0  0  0  0  0  0  0  0
   10.9531  -16.7925   25.7852 C   0  0  2  0  0  0  0  0  0  0  0  0
   10.2325  -15.6866   25.1792 N   0  0  0  0  0  0  0  0  0  0  0  0
   11.2314  -16.5998   27.2072 C   0  0  0  0  0  0  0  0  0  0  0  0
   10.8519  -15.5619   27.7949 O   0  0  0  0  0  0  0  0  0  0  0  0
   11.8992  -17.5507   27.9297 O   0  0  0  0  0  0  0  0  0  0  0  0
  2  1  1  6
  2  3  1  0
  4  2  1  0
  4  5  1  6
  6  4  1  0
  6  7  2  0
  8  6  1  0
  9  8  1  0
 10 11  1  0
  9 10  1  1
 11 12  2  0
 12 13  1  0
 14 13  2  0
 15 14  1  0
 16 15  2  0
 16 11  1  0
 17 22  1  0
 17  9  1  0
 18 17  2  0
 20 19  1  0
 21 22  1  0
 21 20  1  6
 23 21  1  0
 24 23  2  0
 25 23  1  0
M  END
$$$$
