VFS.pdb
     RDKit          3D

 25 25  0  0  1  0  0  0  0  0999 V2000
    7.7373  -12.3539   20.8877 C   0  0  0  0  0  0  0  0  0  0  0  0
    8.2833  -13.2919   19.8514 C   0  0  2  0  0  0  0  0  0  0  0  0
    7.4441  -13.2582   18.6066 C   0  0  0  0  0  0  0  0  0  0  0  0
    8.5667  -14.6927   20.3533 C   0  0  2  0  0  0  0  0  0  0  0  0
    7.2219  -15.2928   20.5066 N   0  0  0  0  0  0  0  0  0  0  0  0
    9.3219  -14.7552   21.6153 C   0  0  0  0  0  0  0  0  0  0  0  0
   10.5698  -14.5119   21.6376 O   0  0  0  0  0  0  0  0  0  0  0  0
    8.7481  -15.0735   22.8612 N   0  0  0  0  0  0  0  0  0  0  0  0
    9.3544  -15.1836   24.1284 C   0  0  1  0  0  0  0  0  0  0  0  0
    8.2565  -14.8982   25.1928 C   0  0  0  0  0  0  0  0  0  0  0  0
    8.8674  -14.6060   26.5113 C   0  0  0  0  0  0  0  0  0  0  0  0
    9.2055  -15.6373   27.4010 C   0  0  0  0  0  0  0  0  0  0  0  0
    9.8182  -15.3804   28.6066 C   0  0  0  0  0  0  0  0  0  0  0  0
   10.1236  -14.0834   28.9792 C   0  0  0  0  0  0  0  0  0  0  0  0
    9.7979  -13.0582   28.1238 C   0  0  0  0  0  0  0  0  0  0  0  0
    9.1793  -13.3319   26.9142 C   0  0  0  0  0  0  0  0  0  0  0  0
   10.0580  -16.3821   24.4875 C   0  0  0  0  0  0  0  0  0  0  0  0
    9.4016  -17.4720   24.4743 O   0  0  0  0  0  0  0  0  0  0  0  0
   14.1716  -16.8664   24.4799 O   0  0  0  0  0  0  0  0  0  0  0  0
   13.2823  -17.8876   24.1810 C   0  0  0  0  0  0  0  0  0  0  0  0
   12.0092  -17.7793   25.0364 C   0  0  2  0  0  0  0  0  0  0  0  0
   11.4223  -16.4642   24.8480 N   0  0  0  0  0  0  0  0  0  0  0  0
   12.3140  -18.0890   26.4321 C   0  0  0  0  0  0  0  0  0  0  0  0
   12.1242  -17.2370   27.3290 O   0  0  0  0  0  0  0  0  0  0  0  0
   12.8001  -19.3165   26.7914 O   0  0  0  0  0  0  0  0  0  0  0  0
  2  1  1  1
  2  3  1  0
  4  2  1  0
  4  5  1  1
  6  4  1  0
  6  7  2  0
  8  6  1  0
  9  8  1  0
 10 11  1  0
  9 10  1  1
 11 12  2  0
 12 13  1  0
 14 13  2  0
 15 14  1  0
 16 15  2  0
 16 11  1  0
 17 22  1  0
 17  9  1  0
 18 17  2  0
 20 19  1  0
 21 22  1  0
 21 20  1  6
 23 21  1  0
 24 23  2  0
 25 23  1  0
M  END
$$$$
