VFS.pdb
     RDKit          3D

 25 25  0  0  1  0  0  0  0  0999 V2000
    7.4116  -12.6929   19.4976 C   0  0  0  0  0  0  0  0  0  0  0  0
    8.2728  -13.6780   18.7630 C   0  0  2  0  0  0  0  0  0  0  0  0
    7.7097  -13.9670   17.4012 C   0  0  0  0  0  0  0  0  0  0  0  0
    8.6216  -14.9236   19.5512 C   0  0  2  0  0  0  0  0  0  0  0  0
    7.4235  -15.7814   19.4066 N   0  0  0  0  0  0  0  0  0  0  0  0
    8.9367  -14.6883   20.9697 C   0  0  0  0  0  0  0  0  0  0  0  0
   10.0981  -14.3090   21.3222 O   0  0  0  0  0  0  0  0  0  0  0  0
    8.0125  -14.8526   22.0193 N   0  0  0  0  0  0  0  0  0  0  0  0
    8.1842  -14.6675   23.4056 C   0  0  1  0  0  0  0  0  0  0  0  0
    6.8092  -14.2315   23.9878 C   0  0  0  0  0  0  0  0  0  0  0  0
    6.9770  -13.6183   25.3268 C   0  0  0  0  0  0  0  0  0  0  0  0
    6.9380  -14.3971   26.4935 C   0  0  0  0  0  0  0  0  0  0  0  0
    7.1418  -13.8456   27.7382 C   0  0  0  0  0  0  0  0  0  0  0  0
    7.3959  -12.4925   27.8760 C   0  0  0  0  0  0  0  0  0  0  0  0
    7.4351  -11.7112   26.7462 C   0  0  0  0  0  0  0  0  0  0  0  0
    7.2258  -12.2800   25.4997 C   0  0  0  0  0  0  0  0  0  0  0  0
    8.7223  -15.7264   24.2115 C   0  0  0  0  0  0  0  0  0  0  0  0
    8.1155  -16.8446   24.1891 O   0  0  0  0  0  0  0  0  0  0  0  0
   12.3761  -18.2036   25.7932 O   0  0  0  0  0  0  0  0  0  0  0  0
   11.8197  -17.1027   25.1594 C   0  0  0  0  0  0  0  0  0  0  0  0
   10.3784  -16.8604   25.6369 C   0  0  2  0  0  0  0  0  0  0  0  0
    9.8750  -15.6431   25.0253 N   0  0  0  0  0  0  0  0  0  0  0  0
   10.3294  -16.8441   27.0978 C   0  0  0  0  0  0  0  0  0  0  0  0
    9.9755  -15.8121   27.7111 O   0  0  0  0  0  0  0  0  0  0  0  0
   10.6556  -17.9556   27.8261 O   0  0  0  0  0  0  0  0  0  0  0  0
  2  1  1  1
  2  3  1  0
  4  2  1  0
  4  5  1  1
  6  4  1  0
  6  7  2  0
  8  6  1  0
  9  8  1  0
 10 11  1  0
  9 10  1  1
 11 12  2  0
 12 13  1  0
 14 13  2  0
 15 14  1  0
 16 15  2  0
 16 11  1  0
 17 22  1  0
 17  9  1  0
 18 17  2  0
 20 19  1  0
 21 22  1  0
 21 20  1  1
 23 21  1  0
 24 23  2  0
 25 23  1  0
M  END
$$$$
