CFA.pdb
     RDKit          3D

 23 23  0  0  1  0  0  0  0  0999 V2000
   15.4948   -8.7762  -18.1061 N   0  0  0  0  0  0  0  0  0  0  0  0
   16.6016   -7.8300  -18.3829 C   0  0  1  0  0  0  0  0  0  0  0  0
   16.0353   -6.6302  -19.0399 C   0  0  0  0  0  0  0  0  0  0  0  0
   15.6579   -6.9482  -20.7764 S   0  0  0  0  0  0  0  0  0  0  0  0
   17.3525   -7.6446  -17.1535 C   0  0  0  0  0  0  0  0  0  0  0  0
   16.7381   -7.8303  -16.0426 O   0  0  0  0  0  0  0  0  0  0  0  0
   18.6986   -7.2811  -16.9986 N   0  0  0  0  0  0  0  0  0  0  0  0
   19.3462   -7.0683  -15.7303 C   0  0  1  0  0  0  0  0  0  0  0  0
   20.7304   -7.6037  -15.7131 C   0  0  0  0  0  0  0  0  0  0  0  0
   21.4210   -7.5678  -14.4256 C   0  0  0  0  0  0  0  0  0  0  0  0
   21.8582   -6.3937  -13.8104 C   0  0  0  0  0  0  0  0  0  0  0  0
   22.4933   -6.4239  -12.5843 C   0  0  0  0  0  0  0  0  0  0  0  0
   22.7191   -7.6007  -11.9251 C   0  0  0  0  0  0  0  0  0  0  0  0
   22.2959   -8.7746  -12.5134 C   0  0  0  0  0  0  0  0  0  0  0  0
   21.6691   -8.7304  -13.7261 C   0  0  0  0  0  0  0  0  0  0  0  0
   19.2435   -5.6746  -15.2362 C   0  0  0  0  0  0  0  0  0  0  0  0
   19.6240   -5.4190  -14.0735 O   0  0  0  0  0  0  0  0  0  0  0  0
   18.5703   -2.2809  -16.8126 C   0  0  0  0  0  0  0  0  0  0  0  0
   18.7164   -3.2232  -15.6591 C   0  0  2  0  0  0  0  0  0  0  0  0
   18.7304   -4.6185  -16.0298 N   0  0  0  0  0  0  0  0  0  0  0  0
   17.7297   -2.9091  -14.5924 C   0  0  0  0  0  0  0  0  0  0  0  0
   16.7002   -3.8104  -14.3858 O   0  0  0  0  0  0  0  0  0  0  0  0
   17.8527   -1.8672  -13.9282 O   0  0  0  0  0  0  0  0  0  0  0  0
  2  1  1  1
  3  2  1  0
  4  3  1  0
  5  6  2  0
  5  2  1  0
  7  5  1  0
  8  7  1  0
  8  9  1  6
  9 10  1  0
 10 15  2  0
 11 12  2  0
 11 10  1  0
 12 13  1  0
 13 14  2  0
 15 14  1  0
 16  8  1  0
 17 16  2  0
 19 18  1  6
 19 20  1  0
 20 16  1  0
 21 22  1  0
 21 19  1  0
 23 21  2  0
M  END
$$$$
