CFA.pdb
     RDKit          3D

 23 23  0  0  1  0  0  0  0  0999 V2000
   26.5022  -19.2316  -18.9733 N   0  0  0  0  0  0  0  0  0  0  0  0
   27.1799  -18.2862  -19.8919 C   0  0  1  0  0  0  0  0  0  0  0  0
   26.6272  -18.4808  -21.2515 C   0  0  0  0  0  0  0  0  0  0  0  0
   27.0950  -20.0881  -21.9272 S   0  0  0  0  0  0  0  0  0  0  0  0
   27.1032  -16.9586  -19.3076 C   0  0  0  0  0  0  0  0  0  0  0  0
   25.9604  -16.5545  -18.8872 O   0  0  0  0  0  0  0  0  0  0  0  0
   28.1324  -16.0224  -19.1283 N   0  0  0  0  0  0  0  0  0  0  0  0
   27.9408  -14.6818  -18.6391 C   0  0  1  0  0  0  0  0  0  0  0  0
   29.0272  -14.2624  -17.7188 C   0  0  0  0  0  0  0  0  0  0  0  0
   28.9684  -12.8843  -17.2356 C   0  0  0  0  0  0  0  0  0  0  0  0
   28.1609  -12.4655  -16.1769 C   0  0  0  0  0  0  0  0  0  0  0  0
   28.1600  -11.1498  -15.7567 C   0  0  0  0  0  0  0  0  0  0  0  0
   28.9471  -10.2070  -16.3582 C   0  0  0  0  0  0  0  0  0  0  0  0
   29.7540  -10.5971  -17.4071 C   0  0  0  0  0  0  0  0  0  0  0  0
   29.7452  -11.9013  -17.8124 C   0  0  0  0  0  0  0  0  0  0  0  0
   27.6538  -13.6942  -19.7065 C   0  0  0  0  0  0  0  0  0  0  0  0
   28.4680  -13.5708  -20.6466 O   0  0  0  0  0  0  0  0  0  0  0  0
   24.7000  -11.9535  -21.1286 C   0  0  0  0  0  0  0  0  0  0  0  0
   26.1401  -11.9213  -20.7223 C   0  0  2  0  0  0  0  0  0  0  0  0
   26.4919  -12.8828  -19.7043 N   0  0  0  0  0  0  0  0  0  0  0  0
   26.5649  -10.5353  -20.3925 C   0  0  0  0  0  0  0  0  0  0  0  0
   27.0136  -10.2912  -19.1064 O   0  0  0  0  0  0  0  0  0  0  0  0
   26.5071   -9.6509  -21.2622 O   0  0  0  0  0  0  0  0  0  0  0  0
  2  1  1  1
  3  2  1  0
  4  3  1  0
  5  6  2  0
  5  2  1  0
  7  5  1  0
  8  7  1  0
  8  9  1  6
  9 10  1  0
 10 15  2  0
 11 12  2  0
 11 10  1  0
 12 13  1  0
 13 14  2  0
 15 14  1  0
 16  8  1  0
 17 16  2  0
 19 18  1  1
 19 20  1  0
 20 16  1  0
 21 22  1  0
 21 19  1  0
 23 21  2  0
M  END
$$$$
