CFA.pdb
     RDKit          3D

 23 23  0  0  1  0  0  0  0  0999 V2000
   22.9625  -22.3943  -14.1050 N   0  0  0  0  0  0  0  0  0  0  0  0
   22.6214  -20.9887  -13.7810 C   0  0  1  0  0  0  0  0  0  0  0  0
   21.8265  -20.9784  -12.5321 C   0  0  0  0  0  0  0  0  0  0  0  0
   20.5782  -22.2824  -12.5368 S   0  0  0  0  0  0  0  0  0  0  0  0
   23.8465  -20.2092  -13.8168 C   0  0  0  0  0  0  0  0  0  0  0  0
   23.7601  -18.9476  -13.6001 O   0  0  0  0  0  0  0  0  0  0  0  0
   25.1557  -20.6503  -14.0606 N   0  0  0  0  0  0  0  0  0  0  0  0
   26.3211  -19.8053  -14.0302 C   0  0  1  0  0  0  0  0  0  0  0  0
   27.2540  -20.1794  -12.9380 C   0  0  0  0  0  0  0  0  0  0  0  0
   26.6592  -20.3673  -11.6164 C   0  0  0  0  0  0  0  0  0  0  0  0
   26.2295  -21.6012  -11.1255 C   0  0  0  0  0  0  0  0  0  0  0  0
   25.6876  -21.7168   -9.8603 C   0  0  0  0  0  0  0  0  0  0  0  0
   25.5502  -20.6314   -9.0398 C   0  0  0  0  0  0  0  0  0  0  0  0
   25.9678  -19.4009   -9.5030 C   0  0  0  0  0  0  0  0  0  0  0  0
   26.5019  -19.3007  -10.7560 C   0  0  0  0  0  0  0  0  0  0  0  0
   26.9817  -19.6549  -15.3486 C   0  0  0  0  0  0  0  0  0  0  0  0
   27.9996  -18.9348  -15.4328 O   0  0  0  0  0  0  0  0  0  0  0  0
   27.0620  -21.3379  -18.6888 C   0  0  0  0  0  0  0  0  0  0  0  0
   27.0233  -20.0974  -17.8523 C   0  0  2  0  0  0  0  0  0  0  0  0
   26.5050  -20.2956  -16.5194 N   0  0  0  0  0  0  0  0  0  0  0  0
   26.3553  -18.9884  -18.5831 C   0  0  0  0  0  0  0  0  0  0  0  0
   27.1263  -18.2383  -19.4537 O   0  0  0  0  0  0  0  0  0  0  0  0
   25.1475  -18.7686  -18.3968 O   0  0  0  0  0  0  0  0  0  0  0  0
  2  1  1  1
  3  2  1  0
  4  3  1  0
  5  6  2  0
  5  2  1  0
  7  5  1  0
  8  7  1  0
  8  9  1  1
  9 10  1  0
 10 15  2  0
 11 12  2  0
 11 10  1  0
 12 13  1  0
 13 14  2  0
 15 14  1  0
 16  8  1  0
 17 16  2  0
 19 18  1  6
 19 20  1  0
 20 16  1  0
 21 22  1  0
 21 19  1  0
 23 21  2  0
M  END
$$$$
