CFA.pdb
     RDKit          3D

 23 23  0  0  1  0  0  0  0  0999 V2000
   19.6351  -12.7021  -19.3946 N   0  0  0  0  0  0  0  0  0  0  0  0
   19.9653  -11.3177  -19.8084 C   0  0  1  0  0  0  0  0  0  0  0  0
   19.0533  -10.9303  -20.9085 C   0  0  0  0  0  0  0  0  0  0  0  0
   19.5444  -11.6938  -22.4688 S   0  0  0  0  0  0  0  0  0  0  0  0
   19.9900  -10.4864  -18.6176 C   0  0  0  0  0  0  0  0  0  0  0  0
   19.0357  -10.6241  -17.7712 O   0  0  0  0  0  0  0  0  0  0  0  0
   20.9389   -9.5227  -18.2446 N   0  0  0  0  0  0  0  0  0  0  0  0
   20.7778   -8.5980  -17.1527 C   0  0  1  0  0  0  0  0  0  0  0  0
   21.9981   -8.5079  -16.3125 C   0  0  0  0  0  0  0  0  0  0  0  0
   21.9329   -7.5926  -15.1750 C   0  0  0  0  0  0  0  0  0  0  0  0
   21.4392   -7.9478  -13.9186 C   0  0  0  0  0  0  0  0  0  0  0  0
   21.4170   -7.0404  -12.8776 C   0  0  0  0  0  0  0  0  0  0  0  0
   21.8760   -5.7616  -13.0342 C   0  0  0  0  0  0  0  0  0  0  0  0
   22.3688   -5.3871  -14.2671 C   0  0  0  0  0  0  0  0  0  0  0  0
   22.3850   -6.2944  -15.2880 C   0  0  0  0  0  0  0  0  0  0  0  0
   20.2428   -7.2785  -17.5645 C   0  0  0  0  0  0  0  0  0  0  0  0
   20.8262   -6.6499  -18.4736 O   0  0  0  0  0  0  0  0  0  0  0  0
   17.1190   -5.3466  -17.5750 C   0  0  0  0  0  0  0  0  0  0  0  0
   18.5797   -5.3807  -17.2502 C   0  0  2  0  0  0  0  0  0  0  0  0
   19.0949   -6.6996  -16.9681 N   0  0  0  0  0  0  0  0  0  0  0  0
   18.9101   -4.3839  -16.1979 C   0  0  0  0  0  0  0  0  0  0  0  0
   19.4766   -3.1881  -16.6029 O   0  0  0  0  0  0  0  0  0  0  0  0
   18.6739   -4.6453  -15.0073 O   0  0  0  0  0  0  0  0  0  0  0  0
  2  1  1  1
  3  2  1  0
  4  3  1  0
  5  6  2  0
  5  2  1  0
  7  5  1  0
  8  7  1  0
  8  9  1  6
  9 10  1  0
 10 15  2  0
 11 12  2  0
 11 10  1  0
 12 13  1  0
 13 14  2  0
 15 14  1  0
 16  8  1  0
 17 16  2  0
 19 18  1  1
 19 20  1  0
 20 16  1  0
 21 22  1  0
 21 19  1  0
 23 21  2  0
M  END
$$$$
