CFA.pdb
     RDKit          3D

 23 23  0  0  1  0  0  0  0  0999 V2000
   26.5410  -21.7621  -13.0871 N   0  0  0  0  0  0  0  0  0  0  0  0
   25.8207  -20.7729  -12.2507 C   0  0  1  0  0  0  0  0  0  0  0  0
   24.3758  -20.8661  -12.5594 C   0  0  0  0  0  0  0  0  0  0  0  0
   23.3910  -19.9038  -11.3919 S   0  0  0  0  0  0  0  0  0  0  0  0
   26.2377  -20.9615  -10.8721 C   0  0  0  0  0  0  0  0  0  0  0  0
   26.5172  -22.1534  -10.4887 O   0  0  0  0  0  0  0  0  0  0  0  0
   26.3858  -19.9965   -9.8647 N   0  0  0  0  0  0  0  0  0  0  0  0
   26.7885  -20.2831   -8.5123 C   0  0  1  0  0  0  0  0  0  0  0  0
   27.8016  -19.3191   -8.0149 C   0  0  0  0  0  0  0  0  0  0  0  0
   28.2427  -19.5009   -6.6335 C   0  0  0  0  0  0  0  0  0  0  0  0
   29.1099  -20.5140   -6.2213 C   0  0  0  0  0  0  0  0  0  0  0  0
   29.5019  -20.6251   -4.9016 C   0  0  0  0  0  0  0  0  0  0  0  0
   29.0584  -19.7506   -3.9482 C   0  0  0  0  0  0  0  0  0  0  0  0
   28.2004  -18.7407   -4.3316 C   0  0  0  0  0  0  0  0  0  0  0  0
   27.8207  -18.6423   -5.6399 C   0  0  0  0  0  0  0  0  0  0  0  0
   25.6514  -20.4809   -7.5822 C   0  0  0  0  0  0  0  0  0  0  0  0
   24.7631  -19.6038   -7.5229 O   0  0  0  0  0  0  0  0  0  0  0  0
   24.1844  -23.3330   -5.5826 C   0  0  0  0  0  0  0  0  0  0  0  0
   24.4510  -21.8815   -5.8320 C   0  0  2  0  0  0  0  0  0  0  0  0
   25.5306  -21.6259   -6.7559 N   0  0  0  0  0  0  0  0  0  0  0  0
   24.5882  -21.1419   -4.5497 C   0  0  0  0  0  0  0  0  0  0  0  0
   23.4862  -21.0982   -3.7137 O   0  0  0  0  0  0  0  0  0  0  0  0
   25.6661  -20.5937   -4.2681 O   0  0  0  0  0  0  0  0  0  0  0  0
  2  1  1  6
  3  2  1  0
  4  3  1  0
  5  6  2  0
  5  2  1  0
  7  5  1  0
  8  7  1  0
  8  9  1  1
  9 10  1  0
 10 15  2  0
 11 12  2  0
 11 10  1  0
 12 13  1  0
 13 14  2  0
 15 14  1  0
 16  8  1  0
 17 16  2  0
 19 18  1  1
 19 20  1  0
 20 16  1  0
 21 22  1  0
 21 19  1  0
 23 21  2  0
M  END
$$$$
