CFA.pdb
     RDKit          3D

 23 23  0  0  1  0  0  0  0  0999 V2000
   15.2958  -21.2777    1.5460 N   0  0  0  0  0  0  0  0  0  0  0  0
   14.6255  -20.3738    2.5106 C   0  0  1  0  0  0  0  0  0  0  0  0
   14.1091  -21.1902    3.6326 C   0  0  0  0  0  0  0  0  0  0  0  0
   13.4970  -20.1499    4.9750 S   0  0  0  0  0  0  0  0  0  0  0  0
   15.5403  -19.2889    2.8204 C   0  0  0  0  0  0  0  0  0  0  0  0
   16.7839  -19.5743    2.9553 O   0  0  0  0  0  0  0  0  0  0  0  0
   15.2524  -17.9274    2.9981 N   0  0  0  0  0  0  0  0  0  0  0  0
   16.1873  -16.9538    3.4993 C   0  0  1  0  0  0  0  0  0  0  0  0
   16.1797  -15.7064    2.6948 C   0  0  0  0  0  0  0  0  0  0  0  0
   17.1373  -14.6761    3.0915 C   0  0  0  0  0  0  0  0  0  0  0  0
   16.7963  -13.5392    3.8260 C   0  0  0  0  0  0  0  0  0  0  0  0
   17.7509  -12.6071    4.1832 C   0  0  0  0  0  0  0  0  0  0  0  0
   19.0643  -12.7591    3.8334 C   0  0  0  0  0  0  0  0  0  0  0  0
   19.4256  -13.8750    3.1072 C   0  0  0  0  0  0  0  0  0  0  0  0
   18.4716  -14.7889    2.7606 C   0  0  0  0  0  0  0  0  0  0  0  0
   16.0767  -16.7187    4.9586 C   0  0  0  0  0  0  0  0  0  0  0  0
   14.9542  -16.4591    5.4427 O   0  0  0  0  0  0  0  0  0  0  0  0
   18.2557  -17.1593    8.0261 C   0  0  0  0  0  0  0  0  0  0  0  0
   17.1690  -16.4908    7.2436 C   0  0  2  0  0  0  0  0  0  0  0  0
   17.1940  -16.7764    5.8285 N   0  0  0  0  0  0  0  0  0  0  0  0
   17.1169  -15.0366    7.5481 C   0  0  0  0  0  0  0  0  0  0  0  0
   16.2365  -14.6184    8.5304 O   0  0  0  0  0  0  0  0  0  0  0  0
   17.8501  -14.2512    6.9257 O   0  0  0  0  0  0  0  0  0  0  0  0
  2  1  1  6
  3  2  1  0
  4  3  1  0
  5  6  2  0
  5  2  1  0
  7  5  1  0
  8  7  1  0
  8  9  1  6
  9 10  1  0
 10 15  2  0
 11 12  2  0
 11 10  1  0
 12 13  1  0
 13 14  2  0
 15 14  1  0
 16  8  1  0
 17 16  2  0
 19 18  1  1
 19 20  1  0
 20 16  1  0
 21 22  1  0
 21 19  1  0
 23 21  2  0
M  END
$$$$
