CFA.pdb
     RDKit          3D

 23 23  0  0  1  0  0  0  0  0999 V2000
   22.3692  -35.6081    5.2751 N   0  0  0  0  0  0  0  0  0  0  0  0
   22.0466  -34.8388    6.5003 C   0  0  1  0  0  0  0  0  0  0  0  0
   21.4909  -35.7740    7.5046 C   0  0  0  0  0  0  0  0  0  0  0  0
   22.6956  -37.0377    7.9633 S   0  0  0  0  0  0  0  0  0  0  0  0
   23.2189  -34.0628    6.8655 C   0  0  0  0  0  0  0  0  0  0  0  0
   24.2974  -34.2572    6.1985 O   0  0  0  0  0  0  0  0  0  0  0  0
   23.3474  -33.0971    7.8750 N   0  0  0  0  0  0  0  0  0  0  0  0
   24.5214  -32.2918    8.0900 C   0  0  1  0  0  0  0  0  0  0  0  0
   24.2283  -30.8399    7.9936 C   0  0  0  0  0  0  0  0  0  0  0  0
   23.8034  -30.3524    6.6829 C   0  0  0  0  0  0  0  0  0  0  0  0
   22.4695  -30.1591    6.3203 C   0  0  0  0  0  0  0  0  0  0  0  0
   22.1318  -29.6815    5.0691 C   0  0  0  0  0  0  0  0  0  0  0  0
   23.0866  -29.3795    4.1377 C   0  0  0  0  0  0  0  0  0  0  0  0
   24.4122  -29.5623    4.4731 C   0  0  0  0  0  0  0  0  0  0  0  0
   24.7323  -30.0353    5.7138 C   0  0  0  0  0  0  0  0  0  0  0  0
   25.2833  -32.6633    9.3060 C   0  0  0  0  0  0  0  0  0  0  0  0
   24.7287  -32.5527   10.4205 O   0  0  0  0  0  0  0  0  0  0  0  0
   28.5389  -34.4621   10.0687 C   0  0  0  0  0  0  0  0  0  0  0  0
   27.4063  -33.5404   10.3967 C   0  0  2  0  0  0  0  0  0  0  0  0
   26.6172  -33.1393    9.2561 N   0  0  0  0  0  0  0  0  0  0  0  0
   27.8791  -32.3934   11.2160 C   0  0  0  0  0  0  0  0  0  0  0  0
   27.8572  -31.1379   10.6343 O   0  0  0  0  0  0  0  0  0  0  0  0
   28.2733  -32.5882   12.3772 O   0  0  0  0  0  0  0  0  0  0  0  0
  2  1  1  6
  3  2  1  0
  4  3  1  0
  5  6  2  0
  5  2  1  0
  7  5  1  0
  8  7  1  0
  8  9  1  1
  9 10  1  0
 10 15  2  0
 11 12  2  0
 11 10  1  0
 12 13  1  0
 13 14  2  0
 15 14  1  0
 16  8  1  0
 17 16  2  0
 19 18  1  6
 19 20  1  0
 20 16  1  0
 21 22  1  0
 21 19  1  0
 23 21  2  0
M  END
$$$$
