CFA.pdb
     RDKit          3D

 23 23  0  0  1  0  0  0  0  0999 V2000
   29.1601  -21.0731  -14.3737 N   0  0  0  0  0  0  0  0  0  0  0  0
   28.4357  -19.9547  -13.7246 C   0  0  1  0  0  0  0  0  0  0  0  0
   28.1908  -18.9063  -14.7408 C   0  0  0  0  0  0  0  0  0  0  0  0
   27.1865  -17.5639  -14.0713 S   0  0  0  0  0  0  0  0  0  0  0  0
   27.2895  -20.5076  -13.0245 C   0  0  0  0  0  0  0  0  0  0  0  0
   26.7158  -21.5361  -13.5335 O   0  0  0  0  0  0  0  0  0  0  0  0
   26.6990  -20.0666  -11.8308 N   0  0  0  0  0  0  0  0  0  0  0  0
   25.5594  -20.6863  -11.2059 C   0  0  1  0  0  0  0  0  0  0  0  0
   25.4088  -20.2766   -9.7872 C   0  0  0  0  0  0  0  0  0  0  0  0
   26.5927  -20.4244   -8.9430 C   0  0  0  0  0  0  0  0  0  0  0  0
   27.5207  -21.4581   -9.0795 C   0  0  0  0  0  0  0  0  0  0  0  0
   28.6289  -21.5355   -8.2588 C   0  0  0  0  0  0  0  0  0  0  0  0
   28.8618  -20.6064   -7.2827 C   0  0  0  0  0  0  0  0  0  0  0  0
   27.9584  -19.5752   -7.1286 C   0  0  0  0  0  0  0  0  0  0  0  0
   26.8667  -19.5105   -7.9469 C   0  0  0  0  0  0  0  0  0  0  0  0
   24.3097  -20.5653  -11.9937 C   0  0  0  0  0  0  0  0  0  0  0  0
   23.9657  -19.4369  -12.4065 O   0  0  0  0  0  0  0  0  0  0  0  0
   21.9456  -22.9297  -13.7681 C   0  0  0  0  0  0  0  0  0  0  0  0
   22.2824  -21.6376  -13.0920 C   0  0  2  0  0  0  0  0  0  0  0  0
   23.4878  -21.6788  -12.2983 N   0  0  0  0  0  0  0  0  0  0  0  0
   21.1082  -21.1086  -12.3491 C   0  0  0  0  0  0  0  0  0  0  0  0
   19.9358  -20.9139  -13.0579 O   0  0  0  0  0  0  0  0  0  0  0  0
   21.2084  -20.8604  -11.1366 O   0  0  0  0  0  0  0  0  0  0  0  0
  2  1  1  6
  3  2  1  0
  4  3  1  0
  5  6  2  0
  5  2  1  0
  7  5  1  0
  8  7  1  0
  8  9  1  1
  9 10  1  0
 10 15  2  0
 11 12  2  0
 11 10  1  0
 12 13  1  0
 13 14  2  0
 15 14  1  0
 16  8  1  0
 17 16  2  0
 19 18  1  1
 19 20  1  0
 20 16  1  0
 21 22  1  0
 21 19  1  0
 23 21  2  0
M  END
$$$$
