CFA.pdb
     RDKit          3D

 23 23  0  0  1  0  0  0  0  0999 V2000
   25.7107  -12.4411  -18.9056 N   0  0  0  0  0  0  0  0  0  0  0  0
   25.6623  -10.9913  -18.6011 C   0  0  1  0  0  0  0  0  0  0  0  0
   25.7918  -10.2438  -19.8725 C   0  0  0  0  0  0  0  0  0  0  0  0
   25.6225   -8.4659  -19.6096 S   0  0  0  0  0  0  0  0  0  0  0  0
   24.4903  -10.7434  -17.7799 C   0  0  0  0  0  0  0  0  0  0  0  0
   23.3567  -11.1602  -18.2125 O   0  0  0  0  0  0  0  0  0  0  0  0
   24.4149  -10.0934  -16.5389 N   0  0  0  0  0  0  0  0  0  0  0  0
   23.1886   -9.8024  -15.8427 C   0  0  1  0  0  0  0  0  0  0  0  0
   23.2313  -10.2460  -14.4268 C   0  0  0  0  0  0  0  0  0  0  0  0
   21.9888  -10.1097  -13.6695 C   0  0  0  0  0  0  0  0  0  0  0  0
   21.8291   -9.2426  -12.5874 C   0  0  0  0  0  0  0  0  0  0  0  0
   20.6236   -9.1483  -11.9200 C   0  0  0  0  0  0  0  0  0  0  0  0
   19.5411   -9.8977  -12.2903 C   0  0  0  0  0  0  0  0  0  0  0  0
   19.6747  -10.7621  -13.3571 C   0  0  0  0  0  0  0  0  0  0  0  0
   20.8724  -10.8455  -14.0083 C   0  0  0  0  0  0  0  0  0  0  0  0
   22.7254   -8.4046  -16.0122 C   0  0  0  0  0  0  0  0  0  0  0  0
   23.5318   -7.4737  -15.8002 O   0  0  0  0  0  0  0  0  0  0  0  0
   19.9395   -6.6227  -17.7606 C   0  0  0  0  0  0  0  0  0  0  0  0
   20.8955   -6.7452  -16.6156 C   0  0  2  0  0  0  0  0  0  0  0  0
   21.4030   -8.0804  -16.4055 N   0  0  0  0  0  0  0  0  0  0  0  0
   20.3277   -6.1327  -15.3857 C   0  0  0  0  0  0  0  0  0  0  0  0
   19.8391   -6.9856  -14.4116 O   0  0  0  0  0  0  0  0  0  0  0  0
   20.3072   -4.8969  -15.2672 O   0  0  0  0  0  0  0  0  0  0  0  0
  2  1  1  6
  3  2  1  0
  4  3  1  0
  5  6  2  0
  5  2  1  0
  7  5  1  0
  8  7  1  0
  8  9  1  1
  9 10  1  0
 10 15  2  0
 11 12  2  0
 11 10  1  0
 12 13  1  0
 13 14  2  0
 15 14  1  0
 16  8  1  0
 17 16  2  0
 19 18  1  6
 19 20  1  0
 20 16  1  0
 21 22  1  0
 21 19  1  0
 23 21  2  0
M  END
$$$$
