CFA.pdb
     RDKit          3D

 23 23  0  0  1  0  0  0  0  0999 V2000
   20.3250  -20.3958  -12.4672 N   0  0  0  0  0  0  0  0  0  0  0  0
   21.4311  -21.0370  -13.2171 C   0  0  1  0  0  0  0  0  0  0  0  0
   21.2151  -20.7964  -14.6619 C   0  0  0  0  0  0  0  0  0  0  0  0
   21.8297  -22.1720  -15.6563 S   0  0  0  0  0  0  0  0  0  0  0  0
   22.6855  -20.5967  -12.6319 C   0  0  0  0  0  0  0  0  0  0  0  0
   22.7846  -19.3659  -12.2838 O   0  0  0  0  0  0  0  0  0  0  0  0
   23.8438  -21.3477  -12.3818 N   0  0  0  0  0  0  0  0  0  0  0  0
   25.0613  -20.8117  -11.8309 C   0  0  1  0  0  0  0  0  0  0  0  0
   25.5330  -21.5887  -10.6574 C   0  0  0  0  0  0  0  0  0  0  0  0
   26.5786  -20.9659   -9.8483 C   0  0  0  0  0  0  0  0  0  0  0  0
   27.9444  -21.1685  -10.0530 C   0  0  0  0  0  0  0  0  0  0  0  0
   28.8859  -20.5392   -9.2624 C   0  0  0  0  0  0  0  0  0  0  0  0
   28.5204  -19.6949   -8.2506 C   0  0  0  0  0  0  0  0  0  0  0  0
   27.1759  -19.4788   -8.0290 C   0  0  0  0  0  0  0  0  0  0  0  0
   26.2554  -20.1075   -8.8181 C   0  0  0  0  0  0  0  0  0  0  0  0
   26.1160  -20.5682  -12.8435 C   0  0  0  0  0  0  0  0  0  0  0  0
   26.4714  -21.5126  -13.5809 O   0  0  0  0  0  0  0  0  0  0  0  0
   29.1367  -18.9325  -13.4721 C   0  0  0  0  0  0  0  0  0  0  0  0
   27.7383  -18.9898  -14.0024 C   0  0  2  0  0  0  0  0  0  0  0  0
   26.7389  -19.3061  -13.0096 N   0  0  0  0  0  0  0  0  0  0  0  0
   27.6654  -19.8589  -15.2064 C   0  0  0  0  0  0  0  0  0  0  0  0
   28.2476  -21.1119  -15.1289 O   0  0  0  0  0  0  0  0  0  0  0  0
   27.0954  -19.4460  -16.2293 O   0  0  0  0  0  0  0  0  0  0  0  0
  2  1  1  1
  3  2  1  0
  4  3  1  0
  5  6  2  0
  5  2  1  0
  7  5  1  0
  8  7  1  0
  8  9  1  1
  9 10  1  0
 10 15  2  0
 11 12  2  0
 11 10  1  0
 12 13  1  0
 13 14  2  0
 15 14  1  0
 16  8  1  0
 17 16  2  0
 19 18  1  1
 19 20  1  0
 20 16  1  0
 21 22  1  0
 21 19  1  0
 23 21  2  0
M  END
$$$$
