CFA.pdb
     RDKit          3D

 23 23  0  0  1  0  0  0  0  0999 V2000
   21.7099   -9.7416  -18.8449 N   0  0  0  0  0  0  0  0  0  0  0  0
   22.5587   -8.6734  -18.2657 C   0  0  1  0  0  0  0  0  0  0  0  0
   22.7622   -7.6301  -19.2962 C   0  0  0  0  0  0  0  0  0  0  0  0
   24.1121   -8.0643  -20.4134 S   0  0  0  0  0  0  0  0  0  0  0  0
   21.9757   -8.2746  -16.9966 C   0  0  0  0  0  0  0  0  0  0  0  0
   20.6973   -8.1953  -16.9233 O   0  0  0  0  0  0  0  0  0  0  0  0
   22.6295   -7.9541  -15.7974 N   0  0  0  0  0  0  0  0  0  0  0  0
   21.9617   -7.5758  -14.5792 C   0  0  1  0  0  0  0  0  0  0  0  0
   22.2386   -8.5252  -13.4723 C   0  0  0  0  0  0  0  0  0  0  0  0
   21.9945   -9.9378  -13.7567 C   0  0  0  0  0  0  0  0  0  0  0  0
   23.0076  -10.8796  -13.9437 C   0  0  0  0  0  0  0  0  0  0  0  0
   22.7126  -12.2051  -14.1959 C   0  0  0  0  0  0  0  0  0  0  0  0
   21.4208  -12.6477  -14.2725 C   0  0  0  0  0  0  0  0  0  0  0  0
   20.4021  -11.7352  -14.0911 C   0  0  0  0  0  0  0  0  0  0  0  0
   20.7079  -10.4275  -13.8424 C   0  0  0  0  0  0  0  0  0  0  0  0
   22.1636   -6.1554  -14.2063 C   0  0  0  0  0  0  0  0  0  0  0  0
   23.3195   -5.7619  -13.9401 O   0  0  0  0  0  0  0  0  0  0  0  0
   22.2428   -3.2036  -14.9810 C   0  0  0  0  0  0  0  0  0  0  0  0
   21.2424   -3.7915  -14.0357 C   0  0  2  0  0  0  0  0  0  0  0  0
   21.0975   -5.2242  -14.1393 N   0  0  0  0  0  0  0  0  0  0  0  0
   19.9488   -3.0632  -14.1158 C   0  0  0  0  0  0  0  0  0  0  0  0
   18.8362   -3.7760  -14.5271 O   0  0  0  0  0  0  0  0  0  0  0  0
   19.9015   -1.8588  -13.8175 O   0  0  0  0  0  0  0  0  0  0  0  0
  2  1  1  6
  3  2  1  0
  4  3  1  0
  5  6  2  0
  5  2  1  0
  7  5  1  0
  8  7  1  0
  8  9  1  1
  9 10  1  0
 10 15  2  0
 11 12  2  0
 11 10  1  0
 12 13  1  0
 13 14  2  0
 15 14  1  0
 16  8  1  0
 17 16  2  0
 19 18  1  6
 19 20  1  0
 20 16  1  0
 21 22  1  0
 21 19  1  0
 23 21  2  0
M  END
$$$$
