CFA.pdb
     RDKit          3D

 23 23  0  0  1  0  0  0  0  0999 V2000
   16.3798  -12.1595  -13.9849 N   0  0  0  0  0  0  0  0  0  0  0  0
   17.1465  -10.9220  -13.7062 C   0  0  1  0  0  0  0  0  0  0  0  0
   17.5820  -10.3432  -14.9974 C   0  0  0  0  0  0  0  0  0  0  0  0
   18.6285   -8.8935  -14.7480 S   0  0  0  0  0  0  0  0  0  0  0  0
   16.3514  -10.0908  -12.8192 C   0  0  0  0  0  0  0  0  0  0  0  0
   15.0981   -9.9771  -13.0684 O   0  0  0  0  0  0  0  0  0  0  0  0
   16.7685   -9.3707  -11.6897 N   0  0  0  0  0  0  0  0  0  0  0  0
   15.9393   -8.4505  -10.9559 C   0  0  1  0  0  0  0  0  0  0  0  0
   15.9250   -8.7488   -9.5019 C   0  0  0  0  0  0  0  0  0  0  0  0
   14.9825   -7.9779   -8.6936 C   0  0  0  0  0  0  0  0  0  0  0  0
   15.3467   -6.8843   -7.9063 C   0  0  0  0  0  0  0  0  0  0  0  0
   14.4058   -6.1864   -7.1747 C   0  0  0  0  0  0  0  0  0  0  0  0
   13.0839   -6.5365   -7.1915 C   0  0  0  0  0  0  0  0  0  0  0  0
   12.6997   -7.6142   -7.9624 C   0  0  0  0  0  0  0  0  0  0  0  0
   13.6403   -8.2956   -8.6809 C   0  0  0  0  0  0  0  0  0  0  0  0
   16.2113   -7.0268  -11.2663 C   0  0  0  0  0  0  0  0  0  0  0  0
   17.3489   -6.5664  -11.0300 O   0  0  0  0  0  0  0  0  0  0  0  0
   14.5206   -4.3007  -13.2769 C   0  0  0  0  0  0  0  0  0  0  0  0
   15.4497   -4.7924  -12.2115 C   0  0  2  0  0  0  0  0  0  0  0  0
   15.2323   -6.1652  -11.8209 N   0  0  0  0  0  0  0  0  0  0  0  0
   15.4781   -3.8520  -11.0604 C   0  0  0  0  0  0  0  0  0  0  0  0
   15.0943   -4.3405   -9.8238 O   0  0  0  0  0  0  0  0  0  0  0  0
   15.8383   -2.6766  -11.2352 O   0  0  0  0  0  0  0  0  0  0  0  0
  2  1  1  6
  3  2  1  0
  4  3  1  0
  5  6  2  0
  5  2  1  0
  7  5  1  0
  8  7  1  0
  8  9  1  1
  9 10  1  0
 10 15  2  0
 11 12  2  0
 11 10  1  0
 12 13  1  0
 13 14  2  0
 15 14  1  0
 16  8  1  0
 17 16  2  0
 19 18  1  6
 19 20  1  0
 20 16  1  0
 21 22  1  0
 21 19  1  0
 23 21  2  0
M  END
$$$$
