CFA.pdb
     RDKit          3D

 23 23  0  0  1  0  0  0  0  0999 V2000
   16.4047  -10.0781  -12.0604 N   0  0  0  0  0  0  0  0  0  0  0  0
   17.2253   -8.9181  -11.6386 C   0  0  1  0  0  0  0  0  0  0  0  0
   18.0262   -8.4675  -12.7993 C   0  0  0  0  0  0  0  0  0  0  0  0
   19.2994   -9.6737  -13.2273 S   0  0  0  0  0  0  0  0  0  0  0  0
   16.3462   -7.9540  -11.0004 C   0  0  0  0  0  0  0  0  0  0  0  0
   15.1928   -7.7555  -11.5260 O   0  0  0  0  0  0  0  0  0  0  0  0
   16.5822   -7.1828   -9.8525 N   0  0  0  0  0  0  0  0  0  0  0  0
   15.6349   -6.2636   -9.2773 C   0  0  1  0  0  0  0  0  0  0  0  0
   15.2035   -6.6823   -7.9202 C   0  0  0  0  0  0  0  0  0  0  0  0
   13.9648   -7.4544   -7.8457 C   0  0  0  0  0  0  0  0  0  0  0  0
   13.8807   -8.8184   -8.1296 C   0  0  0  0  0  0  0  0  0  0  0  0
   12.6817   -9.4964   -8.0270 C   0  0  0  0  0  0  0  0  0  0  0  0
   11.5322   -8.8617   -7.6447 C   0  0  0  0  0  0  0  0  0  0  0  0
   11.5904   -7.5133   -7.3589 C   0  0  0  0  0  0  0  0  0  0  0  0
   12.7825   -6.8551   -7.4643 C   0  0  0  0  0  0  0  0  0  0  0  0
   16.0604   -4.8457   -9.3529 C   0  0  0  0  0  0  0  0  0  0  0  0
   17.1577   -4.5194   -8.8515 O   0  0  0  0  0  0  0  0  0  0  0  0
   14.7805   -1.6642  -11.0261 C   0  0  0  0  0  0  0  0  0  0  0  0
   15.6150   -2.4437  -10.0586 C   0  0  2  0  0  0  0  0  0  0  0  0
   15.2722   -3.8435   -9.9716 N   0  0  0  0  0  0  0  0  0  0  0  0
   15.6602   -1.7670   -8.7356 C   0  0  0  0  0  0  0  0  0  0  0  0
   15.1692   -2.4608   -7.6435 O   0  0  0  0  0  0  0  0  0  0  0  0
   16.1280   -0.6203   -8.6469 O   0  0  0  0  0  0  0  0  0  0  0  0
  2  1  1  6
  3  2  1  0
  4  3  1  0
  5  6  2  0
  5  2  1  0
  7  5  1  0
  8  7  1  0
  8  9  1  1
  9 10  1  0
 10 15  2  0
 11 12  2  0
 11 10  1  0
 12 13  1  0
 13 14  2  0
 15 14  1  0
 16  8  1  0
 17 16  2  0
 19 18  1  6
 19 20  1  0
 20 16  1  0
 21 22  1  0
 21 19  1  0
 23 21  2  0
M  END
$$$$
