WEV.pdb
     RDKit          3D

 31 32  0  0  1  0  0  0  0  0999 V2000
    6.0808  -17.3143   24.6540 N   0  0  0  0  0  0  0  0  0  0  0  0
    7.2633  -16.5347   24.3730 C   0  0  1  0  0  0  0  0  0  0  0  0
    7.5333  -15.6658   25.5916 C   0  0  0  0  0  0  0  0  0  0  0  0
    6.5050  -14.6123   25.6901 C   0  0  0  0  0  0  0  0  0  0  0  0
    5.2128  -14.7833   26.1251 C   0  0  0  0  0  0  0  0  0  0  0  0
    4.5961  -13.5671   26.0624 N   0  0  0  0  0  0  0  0  0  0  0  0
    5.4686  -12.6683   25.6056 C   0  0  0  0  0  0  0  0  0  0  0  0
    5.3671  -11.3250   25.3574 C   0  0  0  0  0  0  0  0  0  0  0  0
    6.4353  -10.5757   24.8714 C   0  0  0  0  0  0  0  0  0  0  0  0
    7.6240  -11.2075   24.6356 C   0  0  0  0  0  0  0  0  0  0  0  0
    7.7564  -12.5522   24.8745 C   0  0  0  0  0  0  0  0  0  0  0  0
    6.6758  -13.2935   25.3626 C   0  0  0  0  0  0  0  0  0  0  0  0
    8.4546  -17.4120   24.1553 C   0  0  0  0  0  0  0  0  0  0  0  0
    8.5138  -18.5438   24.6908 O   0  0  0  0  0  0  0  0  0  0  0  0
    9.5054  -16.9510   23.3432 N   0  0  0  0  0  0  0  0  0  0  0  0
   10.9013  -17.2557   23.5892 C   0  0  1  0  0  0  0  0  0  0  0  0
   11.6945  -16.8118   22.4010 C   0  0  0  0  0  0  0  0  0  0  0  0
   13.1569  -17.1715   22.5230 C   0  0  0  0  0  0  0  0  0  0  0  0
   13.8632  -16.8029   21.2762 C   0  0  0  0  0  0  0  0  0  0  0  0
   13.3540  -17.0681   20.1663 O   0  0  0  0  0  0  0  0  0  0  0  0
   11.3602  -16.6075   24.8586 C   0  0  0  0  0  0  0  0  0  0  0  0
   11.8322  -15.4405   24.7946 O   0  0  0  0  0  0  0  0  0  0  0  0
   15.0956  -16.1602   21.2759 O   0  0  0  0  0  0  0  0  0  0  0  0
   10.9937  -14.3060   26.8811 C   0  0  0  0  0  0  0  0  0  0  0  0
   10.9192  -15.5211   27.7793 C   0  0  2  0  0  0  0  0  0  0  0  0
   11.2577  -15.0820   29.1698 C   0  0  0  0  0  0  0  0  0  0  0  0
   11.7800  -16.6491   27.2853 C   0  0  2  0  0  0  0  0  0  0  0  0
   11.2703  -17.2814   26.1060 N   0  0  0  0  0  0  0  0  0  0  0  0
   11.8307  -17.6840   28.3723 C   0  0  0  0  0  0  0  0  0  0  0  0
   11.2008  -18.7584   28.1895 O   0  0  0  0  0  0  0  0  0  0  0  0
   12.5459  -17.4713   29.5425 O   0  0  0  0  0  0  0  0  0  0  0  0
  2 13  1  0
  2  1  1  1
  3  2  1  0
  4  3  1  0
  4  5  2  0
  6  5  1  0
  7  6  1  0
  8  7  2  0
  9  8  1  0
 10  9  2  0
 10 11  1  0
 11 12  2  0
 12  7  1  0
 12  4  1  0
 13 14  2  0
 15 16  1  0
 15 13  1  0
 16 21  1  0
 16 17  1  6
 18 17  1  0
 19 18  1  0
 20 19  2  0
 21 22  2  0
 23 19  1  0
 25 24  1  6
 25 27  1  0
 26 25  1  0
 27 29  1  0
 27 28  1  6
 28 21  1  0
 29 30  2  0
 29 31  1  0
M  END
$$$$
