WEV.pdb
     RDKit          3D

 31 32  0  0  1  0  0  0  0  0999 V2000
    6.5706  -17.2030   24.4959 N   0  0  0  0  0  0  0  0  0  0  0  0
    7.7471  -16.4227   24.1925 C   0  0  1  0  0  0  0  0  0  0  0  0
    8.0664  -15.5874   25.4226 C   0  0  0  0  0  0  0  0  0  0  0  0
    6.9288  -14.6999   25.7313 C   0  0  0  0  0  0  0  0  0  0  0  0
    5.6813  -15.1004   26.1455 C   0  0  0  0  0  0  0  0  0  0  0  0
    4.9279  -13.9756   26.3202 N   0  0  0  0  0  0  0  0  0  0  0  0
    5.6749  -12.9108   26.0267 C   0  0  0  0  0  0  0  0  0  0  0  0
    5.4117  -11.5665   26.0353 C   0  0  0  0  0  0  0  0  0  0  0  0
    6.3689  -10.6190   25.6824 C   0  0  0  0  0  0  0  0  0  0  0  0
    7.6126  -11.0507   25.3153 C   0  0  0  0  0  0  0  0  0  0  0  0
    7.9062  -12.3909   25.2968 C   0  0  0  0  0  0  0  0  0  0  0  0
    6.9359  -13.3325   25.6535 C   0  0  0  0  0  0  0  0  0  0  0  0
    8.9242  -17.3004   23.9092 C   0  0  0  0  0  0  0  0  0  0  0  0
    8.8711  -18.5290   24.1524 O   0  0  0  0  0  0  0  0  0  0  0  0
   10.0892  -16.7301   23.3672 N   0  0  0  0  0  0  0  0  0  0  0  0
   11.4294  -17.1470   23.7304 C   0  0  1  0  0  0  0  0  0  0  0  0
   12.3588  -16.7503   22.6273 C   0  0  0  0  0  0  0  0  0  0  0  0
   11.9395  -17.3220   21.2930 C   0  0  0  0  0  0  0  0  0  0  0  0
   12.8881  -16.8827   20.2459 C   0  0  0  0  0  0  0  0  0  0  0  0
   12.9827  -17.5243   19.1777 O   0  0  0  0  0  0  0  0  0  0  0  0
   11.8200  -16.5549   25.0491 C   0  0  0  0  0  0  0  0  0  0  0  0
   12.7707  -15.7276   25.0722 O   0  0  0  0  0  0  0  0  0  0  0  0
   13.7004  -15.7644   20.3929 O   0  0  0  0  0  0  0  0  0  0  0  0
    9.4541  -15.6512   28.3372 C   0  0  0  0  0  0  0  0  0  0  0  0
   10.9121  -15.3220   28.1036 C   0  0  2  0  0  0  0  0  0  0  0  0
   10.9714  -14.0788   27.2716 C   0  0  0  0  0  0  0  0  0  0  0  0
   11.6684  -16.4745   27.5061 C   0  0  2  0  0  0  0  0  0  0  0  0
   11.1436  -16.9096   26.2469 N   0  0  0  0  0  0  0  0  0  0  0  0
   11.5645  -17.6250   28.4658 C   0  0  0  0  0  0  0  0  0  0  0  0
   10.8833  -18.6233   28.1136 O   0  0  0  0  0  0  0  0  0  0  0  0
   12.1951  -17.5969   29.7017 O   0  0  0  0  0  0  0  0  0  0  0  0
  2 13  1  0
  2  1  1  1
  3  2  1  0
  4  3  1  0
  4  5  2  0
  6  5  1  0
  7  6  1  0
  8  7  2  0
  9  8  1  0
 10  9  2  0
 10 11  1  0
 11 12  2  0
 12  7  1  0
 12  4  1  0
 13 14  2  0
 15 16  1  0
 15 13  1  0
 16 21  1  0
 16 17  1  6
 18 17  1  0
 19 18  1  0
 20 19  2  0
 21 22  2  0
 23 19  1  0
 25 24  1  6
 25 27  1  0
 26 25  1  0
 27 29  1  0
 27 28  1  6
 28 21  1  0
 29 30  2  0
 29 31  1  0
M  END
$$$$
