WEV.pdb
     RDKit          3D

 31 32  0  0  1  0  0  0  0  0999 V2000
    6.2417  -17.4013   25.0829 N   0  0  0  0  0  0  0  0  0  0  0  0
    7.3186  -16.5973   24.5547 C   0  0  1  0  0  0  0  0  0  0  0  0
    7.7318  -15.6208   25.6449 C   0  0  0  0  0  0  0  0  0  0  0  0
    6.6856  -14.5947   25.8175 C   0  0  0  0  0  0  0  0  0  0  0  0
    5.4506  -14.7887   26.3877 C   0  0  0  0  0  0  0  0  0  0  0  0
    4.7921  -13.5935   26.3529 N   0  0  0  0  0  0  0  0  0  0  0  0
    5.5843  -12.6853   25.7827 C   0  0  0  0  0  0  0  0  0  0  0  0
    5.4152  -11.3542   25.5068 C   0  0  0  0  0  0  0  0  0  0  0  0
    6.4039  -10.5906   24.8918 C   0  0  0  0  0  0  0  0  0  0  0  0
    7.5820  -11.1952   24.5539 C   0  0  0  0  0  0  0  0  0  0  0  0
    7.7810  -12.5270   24.8174 C   0  0  0  0  0  0  0  0  0  0  0  0
    6.7800  -13.2829   25.4355 C   0  0  0  0  0  0  0  0  0  0  0  0
    8.5065  -17.4376   24.2096 C   0  0  0  0  0  0  0  0  0  0  0  0
    8.6227  -18.5936   24.6803 O   0  0  0  0  0  0  0  0  0  0  0  0
    9.4895  -16.9145   23.3516 N   0  0  0  0  0  0  0  0  0  0  0  0
   10.9115  -17.1273   23.5379 C   0  0  1  0  0  0  0  0  0  0  0  0
   11.6326  -16.5186   22.3770 C   0  0  0  0  0  0  0  0  0  0  0  0
   13.1236  -16.7535   22.4433 C   0  0  0  0  0  0  0  0  0  0  0  0
   13.6589  -16.9271   21.0749 C   0  0  0  0  0  0  0  0  0  0  0  0
   12.8937  -16.8560   20.0895 O   0  0  0  0  0  0  0  0  0  0  0  0
   11.3559  -16.5590   24.8500 C   0  0  0  0  0  0  0  0  0  0  0  0
   12.0752  -15.5240   24.8376 O   0  0  0  0  0  0  0  0  0  0  0  0
   15.0037  -17.1714   20.8224 O   0  0  0  0  0  0  0  0  0  0  0  0
   10.0662  -14.4179   27.0706 C   0  0  0  0  0  0  0  0  0  0  0  0
   10.3013  -15.6621   27.8986 C   0  0  2  0  0  0  0  0  0  0  0  0
   10.5950  -15.2280   29.3009 C   0  0  0  0  0  0  0  0  0  0  0  0
   11.3675  -16.5439   27.3129 C   0  0  2  0  0  0  0  0  0  0  0  0
   10.9824  -17.1628   26.0804 N   0  0  0  0  0  0  0  0  0  0  0  0
   11.6415  -17.6366   28.3061 C   0  0  0  0  0  0  0  0  0  0  0  0
   11.1846  -18.7830   28.0581 O   0  0  0  0  0  0  0  0  0  0  0  0
   12.3730  -17.3991   29.4612 O   0  0  0  0  0  0  0  0  0  0  0  0
  2 13  1  0
  2  1  1  1
  3  2  1  0
  4  3  1  0
  4  5  2  0
  6  5  1  0
  7  6  1  0
  8  7  2  0
  9  8  1  0
 10  9  2  0
 10 11  1  0
 11 12  2  0
 12  7  1  0
 12  4  1  0
 13 14  2  0
 15 16  1  0
 15 13  1  0
 16 21  1  0
 16 17  1  6
 18 17  1  0
 19 18  1  0
 20 19  2  0
 21 22  2  0
 23 19  1  0
 25 24  1  6
 25 27  1  0
 26 25  1  0
 27 29  1  0
 27 28  1  6
 28 21  1  0
 29 30  2  0
 29 31  1  0
M  END
$$$$
