WEV.pdb
     RDKit          3D

 31 32  0  0  1  0  0  0  0  0999 V2000
    6.3994  -16.7295   22.9545 N   0  0  0  0  0  0  0  0  0  0  0  0
    7.7595  -16.3279   22.6826 C   0  0  1  0  0  0  0  0  0  0  0  0
    7.8480  -14.8301   22.9310 C   0  0  0  0  0  0  0  0  0  0  0  0
    6.9860  -14.4622   24.0706 C   0  0  0  0  0  0  0  0  0  0  0  0
    6.1412  -15.3068   24.7497 C   0  0  0  0  0  0  0  0  0  0  0  0
    5.5310  -14.5752   25.7274 N   0  0  0  0  0  0  0  0  0  0  0  0
    5.9766  -13.3201   25.6634 C   0  0  0  0  0  0  0  0  0  0  0  0
    5.6940  -12.2004   26.4002 C   0  0  0  0  0  0  0  0  0  0  0  0
    6.2956  -10.9709   26.1451 C   0  0  0  0  0  0  0  0  0  0  0  0
    7.1987  -10.8839   25.1229 C   0  0  0  0  0  0  0  0  0  0  0  0
    7.5023  -11.9882   24.3672 C   0  0  0  0  0  0  0  0  0  0  0  0
    6.8910  -13.2173   24.6336 C   0  0  0  0  0  0  0  0  0  0  0  0
    8.7221  -17.0085   23.6027 C   0  0  0  0  0  0  0  0  0  0  0  0
    8.3284  -17.4789   24.6958 O   0  0  0  0  0  0  0  0  0  0  0  0
   10.0723  -17.1135   23.2256 N   0  0  0  0  0  0  0  0  0  0  0  0
   11.0944  -17.7100   24.0632 C   0  0  1  0  0  0  0  0  0  0  0  0
   12.2973  -17.9786   23.2154 C   0  0  0  0  0  0  0  0  0  0  0  0
   12.8190  -16.7263   22.5501 C   0  0  0  0  0  0  0  0  0  0  0  0
   13.9774  -17.0659   21.6946 C   0  0  0  0  0  0  0  0  0  0  0  0
   14.3774  -18.2476   21.6224 O   0  0  0  0  0  0  0  0  0  0  0  0
   11.4009  -16.8180   25.2261 C   0  0  0  0  0  0  0  0  0  0  0  0
   12.1656  -15.8340   25.0366 O   0  0  0  0  0  0  0  0  0  0  0  0
   14.6612  -16.1137   20.9477 O   0  0  0  0  0  0  0  0  0  0  0  0
   10.1269  -14.1324   26.9044 C   0  0  0  0  0  0  0  0  0  0  0  0
   10.2525  -15.1908   27.9781 C   0  0  2  0  0  0  0  0  0  0  0  0
   10.5610  -14.4972   29.2684 C   0  0  0  0  0  0  0  0  0  0  0  0
   11.2537  -16.2518   27.6187 C   0  0  2  0  0  0  0  0  0  0  0  0
   10.8499  -17.0656   26.5118 N   0  0  0  0  0  0  0  0  0  0  0  0
   11.4049  -17.1491   28.8135 C   0  0  0  0  0  0  0  0  0  0  0  0
   10.8914  -18.2968   28.7541 O   0  0  0  0  0  0  0  0  0  0  0  0
   12.0865  -16.7347   29.9491 O   0  0  0  0  0  0  0  0  0  0  0  0
  2 13  1  0
  2  1  1  1
  3  2  1  0
  4  3  1  0
  4  5  2  0
  6  5  1  0
  7  6  1  0
  8  7  2  0
  9  8  1  0
 10  9  2  0
 10 11  1  0
 11 12  2  0
 12  7  1  0
 12  4  1  0
 13 14  2  0
 15 16  1  0
 15 13  1  0
 16 21  1  0
 16 17  1  6
 18 17  1  0
 19 18  1  0
 20 19  2  0
 21 22  2  0
 23 19  1  0
 25 24  1  6
 25 27  1  0
 26 25  1  0
 27 29  1  0
 27 28  1  6
 28 21  1  0
 29 30  2  0
 29 31  1  0
M  END
$$$$
