WEV.pdb
     RDKit          3D

 31 32  0  0  1  0  0  0  0  0999 V2000
    7.4969  -18.8121   21.8962 N   0  0  0  0  0  0  0  0  0  0  0  0
    8.2633  -17.6675   22.3294 C   0  0  1  0  0  0  0  0  0  0  0  0
    7.2812  -16.6499   22.8887 C   0  0  0  0  0  0  0  0  0  0  0  0
    6.7945  -15.7780   21.8025 C   0  0  0  0  0  0  0  0  0  0  0  0
    5.6863  -16.0027   21.0217 C   0  0  0  0  0  0  0  0  0  0  0  0
    5.5887  -14.9637   20.1418 N   0  0  0  0  0  0  0  0  0  0  0  0
    6.5972  -14.1200   20.3629 C   0  0  0  0  0  0  0  0  0  0  0  0
    6.9609  -12.9391   19.7714 C   0  0  0  0  0  0  0  0  0  0  0  0
    8.0788  -12.2163   20.1794 C   0  0  0  0  0  0  0  0  0  0  0  0
    8.8360  -12.7065   21.2062 C   0  0  0  0  0  0  0  0  0  0  0  0
    8.4971  -13.8868   21.8184 C   0  0  0  0  0  0  0  0  0  0  0  0
    7.3718  -14.6033   21.3992 C   0  0  0  0  0  0  0  0  0  0  0  0
    9.2216  -18.0343   23.4174 C   0  0  0  0  0  0  0  0  0  0  0  0
    9.0755  -19.1030   24.0561 O   0  0  0  0  0  0  0  0  0  0  0  0
   10.2866  -17.1659   23.7136 N   0  0  0  0  0  0  0  0  0  0  0  0
   11.3070  -17.4569   24.7016 C   0  0  1  0  0  0  0  0  0  0  0  0
   12.6459  -17.2979   24.0534 C   0  0  0  0  0  0  0  0  0  0  0  0
   12.7202  -16.0593   23.1913 C   0  0  0  0  0  0  0  0  0  0  0  0
   14.0159  -16.0298   22.4775 C   0  0  0  0  0  0  0  0  0  0  0  0
   14.1954  -16.7545   21.4754 O   0  0  0  0  0  0  0  0  0  0  0  0
   11.1413  -16.5720   25.8980 C   0  0  0  0  0  0  0  0  0  0  0  0
   12.0102  -16.6335   26.8091 O   0  0  0  0  0  0  0  0  0  0  0  0
   15.0709  -15.2164   22.8741 O   0  0  0  0  0  0  0  0  0  0  0  0
    8.2338  -13.4254   26.0209 C   0  0  0  0  0  0  0  0  0  0  0  0
    8.5733  -14.1828   27.2858 C   0  0  2  0  0  0  0  0  0  0  0  0
    8.4915  -13.2205   28.4296 C   0  0  0  0  0  0  0  0  0  0  0  0
    9.8984  -14.8846   27.1921 C   0  0  2  0  0  0  0  0  0  0  0  0
   10.0384  -15.6840   26.0124 N   0  0  0  0  0  0  0  0  0  0  0  0
   10.0067  -15.7991   28.3784 C   0  0  0  0  0  0  0  0  0  0  0  0
   10.6119  -15.3712   29.3959 O   0  0  0  0  0  0  0  0  0  0  0  0
    9.4607  -17.0748   28.3621 O   0  0  0  0  0  0  0  0  0  0  0  0
  2 13  1  0
  2  1  1  1
  3  2  1  0
  4  3  1  0
  4  5  2  0
  6  5  1  0
  7  6  1  0
  8  7  2  0
  9  8  1  0
 10  9  2  0
 10 11  1  0
 11 12  2  0
 12  7  1  0
 12  4  1  0
 13 14  2  0
 15 16  1  0
 15 13  1  0
 16 21  1  0
 16 17  1  6
 18 17  1  0
 19 18  1  0
 20 19  2  0
 21 22  2  0
 23 19  1  0
 25 24  1  6
 25 27  1  0
 26 25  1  0
 27 29  1  0
 27 28  1  6
 28 21  1  0
 29 30  2  0
 29 31  1  0
M  END
$$$$
