WEV.pdb
     RDKit          3D

 31 32  0  0  1  0  0  0  0  0999 V2000
    7.0100  -17.4618   21.4361 N   0  0  0  0  0  0  0  0  0  0  0  0
    8.1688  -16.7516   21.9241 C   0  0  1  0  0  0  0  0  0  0  0  0
    7.7122  -15.3554   22.3174 C   0  0  0  0  0  0  0  0  0  0  0  0
    7.3943  -14.5753   21.1060 C   0  0  0  0  0  0  0  0  0  0  0  0
    6.1474  -14.4197   20.5499 C   0  0  0  0  0  0  0  0  0  0  0  0
    6.2881  -13.6297   19.4456 N   0  0  0  0  0  0  0  0  0  0  0  0
    7.5741  -13.3027   19.3148 C   0  0  0  0  0  0  0  0  0  0  0  0
    8.2454  -12.5421   18.3942 C   0  0  0  0  0  0  0  0  0  0  0  0
    9.6207  -12.3354   18.4612 C   0  0  0  0  0  0  0  0  0  0  0  0
   10.3203  -12.9137   19.4829 C   0  0  0  0  0  0  0  0  0  0  0  0
    9.6758  -13.6811   20.4202 C   0  0  0  0  0  0  0  0  0  0  0  0
    8.2941  -13.8811   20.3417 C   0  0  0  0  0  0  0  0  0  0  0  0
    8.7406  -17.4121   23.1378 C   0  0  0  0  0  0  0  0  0  0  0  0
    7.9864  -17.8110   24.0562 O   0  0  0  0  0  0  0  0  0  0  0  0
   10.1330  -17.5793   23.2348 N   0  0  0  0  0  0  0  0  0  0  0  0
   10.8152  -17.9225   24.4672 C   0  0  1  0  0  0  0  0  0  0  0  0
   12.1508  -18.4992   24.1187 C   0  0  0  0  0  0  0  0  0  0  0  0
   12.9198  -18.9404   25.3422 C   0  0  0  0  0  0  0  0  0  0  0  0
   14.2395  -19.4699   24.9333 C   0  0  0  0  0  0  0  0  0  0  0  0
   14.9526  -20.0797   25.7587 O   0  0  0  0  0  0  0  0  0  0  0  0
   10.9239  -16.7212   25.3544 C   0  0  0  0  0  0  0  0  0  0  0  0
   11.6111  -15.7441   24.9521 O   0  0  0  0  0  0  0  0  0  0  0  0
   14.7399  -19.3203   23.6452 O   0  0  0  0  0  0  0  0  0  0  0  0
    8.7125  -14.1606   26.3279 C   0  0  0  0  0  0  0  0  0  0  0  0
    9.2299  -14.7044   27.6414 C   0  0  2  0  0  0  0  0  0  0  0  0
    9.4216  -13.5465   28.5707 C   0  0  0  0  0  0  0  0  0  0  0  0
   10.4676  -15.5378   27.4658 C   0  0  2  0  0  0  0  0  0  0  0  0
   10.2741  -16.6746   26.6168 N   0  0  0  0  0  0  0  0  0  0  0  0
   10.8639  -16.0441   28.8230 C   0  0  0  0  0  0  0  0  0  0  0  0
   10.6241  -17.2501   29.0924 O   0  0  0  0  0  0  0  0  0  0  0  0
   11.4744  -15.2169   29.7550 O   0  0  0  0  0  0  0  0  0  0  0  0
  2 13  1  0
  2  1  1  1
  3  2  1  0
  4  3  1  0
  4  5  2  0
  6  5  1  0
  7  6  1  0
  8  7  2  0
  9  8  1  0
 10  9  2  0
 10 11  1  0
 11 12  2  0
 12  7  1  0
 12  4  1  0
 13 14  2  0
 15 16  1  0
 15 13  1  0
 16 21  1  0
 16 17  1  6
 18 17  1  0
 19 18  1  0
 20 19  2  0
 21 22  2  0
 23 19  1  0
 25 24  1  6
 25 27  1  0
 26 25  1  0
 27 29  1  0
 27 28  1  6
 28 21  1  0
 29 30  2  0
 29 31  1  0
M  END
$$$$
