WEV.pdb
     RDKit          3D

 31 32  0  0  1  0  0  0  0  0999 V2000
    6.1276  -17.1803   24.3592 N   0  0  0  0  0  0  0  0  0  0  0  0
    7.3421  -16.4121   24.2184 C   0  0  1  0  0  0  0  0  0  0  0  0
    7.5918  -15.7118   25.5451 C   0  0  0  0  0  0  0  0  0  0  0  0
    6.6465  -14.5898   25.7019 C   0  0  0  0  0  0  0  0  0  0  0  0
    5.3097  -14.6960   26.0014 C   0  0  0  0  0  0  0  0  0  0  0  0
    4.8011  -13.4304   26.0552 N   0  0  0  0  0  0  0  0  0  0  0  0
    5.7819  -12.5642   25.7994 C   0  0  0  0  0  0  0  0  0  0  0  0
    5.8122  -11.1964   25.7300 C   0  0  0  0  0  0  0  0  0  0  0  0
    6.9780  -10.4921   25.4410 C   0  0  0  0  0  0  0  0  0  0  0  0
    8.1291  -11.1947   25.2197 C   0  0  0  0  0  0  0  0  0  0  0  0
    8.1302  -12.5655   25.2822 C   0  0  0  0  0  0  0  0  0  0  0  0
    6.9526  -13.2611   25.5734 C   0  0  0  0  0  0  0  0  0  0  0  0
    8.5145  -17.2952   23.9318 C   0  0  0  0  0  0  0  0  0  0  0  0
    8.6005  -18.4263   24.4652 O   0  0  0  0  0  0  0  0  0  0  0  0
    9.5171  -16.8404   23.0577 N   0  0  0  0  0  0  0  0  0  0  0  0
   10.9330  -17.0611   23.2779 C   0  0  1  0  0  0  0  0  0  0  0  0
   11.6781  -16.5503   22.0855 C   0  0  0  0  0  0  0  0  0  0  0  0
   13.1716  -16.7334   22.2230 C   0  0  0  0  0  0  0  0  0  0  0  0
   13.6316  -17.7758   21.2791 C   0  0  0  0  0  0  0  0  0  0  0  0
   13.9114  -17.4728   20.0994 O   0  0  0  0  0  0  0  0  0  0  0  0
   11.3707  -16.4053   24.5509 C   0  0  0  0  0  0  0  0  0  0  0  0
   12.0212  -15.3285   24.4728 O   0  0  0  0  0  0  0  0  0  0  0  0
   13.7725  -19.1089   21.6463 O   0  0  0  0  0  0  0  0  0  0  0  0
   10.1890  -14.2288   26.7797 C   0  0  0  0  0  0  0  0  0  0  0  0
   10.5106  -15.4298   27.6416 C   0  0  2  0  0  0  0  0  0  0  0  0
   10.9192  -14.9266   28.9910 C   0  0  0  0  0  0  0  0  0  0  0  0
   11.5331  -16.3296   27.0074 C   0  0  2  0  0  0  0  0  0  0  0  0
   11.0660  -16.9735   25.8167 N   0  0  0  0  0  0  0  0  0  0  0  0
   11.8676  -17.4015   28.0046 C   0  0  0  0  0  0  0  0  0  0  0  0
   11.4359  -18.5633   27.7843 O   0  0  0  0  0  0  0  0  0  0  0  0
   12.6268  -17.1291   29.1339 O   0  0  0  0  0  0  0  0  0  0  0  0
  2 13  1  0
  2  1  1  1
  3  2  1  0
  4  3  1  0
  4  5  2  0
  6  5  1  0
  7  6  1  0
  8  7  2  0
  9  8  1  0
 10  9  2  0
 10 11  1  0
 11 12  2  0
 12  7  1  0
 12  4  1  0
 13 14  2  0
 15 16  1  0
 15 13  1  0
 16 21  1  0
 16 17  1  6
 18 17  1  0
 19 18  1  0
 20 19  2  0
 21 22  2  0
 23 19  1  0
 25 24  1  6
 25 27  1  0
 26 25  1  0
 27 29  1  0
 27 28  1  6
 28 21  1  0
 29 30  2  0
 29 31  1  0
M  END
$$$$
