WEV.pdb
     RDKit          3D

 31 32  0  0  1  0  0  0  0  0999 V2000
    8.5590  -17.1582   20.6742 N   0  0  0  0  0  0  0  0  0  0  0  0
    8.7092  -16.3874   21.8860 C   0  0  1  0  0  0  0  0  0  0  0  0
    7.3126  -16.0501   22.3845 C   0  0  0  0  0  0  0  0  0  0  0  0
    7.0001  -14.6415   22.0759 C   0  0  0  0  0  0  0  0  0  0  0  0
    6.6146  -14.1492   20.8523 C   0  0  0  0  0  0  0  0  0  0  0  0
    6.4246  -12.8049   20.9940 N   0  0  0  0  0  0  0  0  0  0  0  0
    6.6812  -12.4677   22.2582 C   0  0  0  0  0  0  0  0  0  0  0  0
    6.6445  -11.2693   22.9208 C   0  0  0  0  0  0  0  0  0  0  0  0
    6.9602  -11.1567   24.2723 C   0  0  0  0  0  0  0  0  0  0  0  0
    7.3185  -12.2841   24.9566 C   0  0  0  0  0  0  0  0  0  0  0  0
    7.3645  -13.4989   24.3202 C   0  0  0  0  0  0  0  0  0  0  0  0
    7.0451  -13.5986   22.9625 C   0  0  0  0  0  0  0  0  0  0  0  0
    9.4039  -17.1760   22.9499 C   0  0  0  0  0  0  0  0  0  0  0  0
    8.8581  -18.1903   23.4446 O   0  0  0  0  0  0  0  0  0  0  0  0
   10.6752  -16.7651   23.3871 N   0  0  0  0  0  0  0  0  0  0  0  0
   11.4088  -17.4239   24.4500 C   0  0  1  0  0  0  0  0  0  0  0  0
   12.7223  -17.8814   23.8992 C   0  0  0  0  0  0  0  0  0  0  0  0
   13.3432  -16.8581   22.9771 C   0  0  0  0  0  0  0  0  0  0  0  0
   14.6710  -17.3345   22.5309 C   0  0  0  0  0  0  0  0  0  0  0  0
   15.6974  -16.6778   22.8079 O   0  0  0  0  0  0  0  0  0  0  0  0
   11.5680  -16.5042   25.6209 C   0  0  0  0  0  0  0  0  0  0  0  0
   12.4460  -15.6022   25.5546 O   0  0  0  0  0  0  0  0  0  0  0  0
   14.8399  -18.5052   21.8008 O   0  0  0  0  0  0  0  0  0  0  0  0
    8.7249  -15.1782   28.2966 C   0  0  0  0  0  0  0  0  0  0  0  0
   10.1762  -14.7544   28.2428 C   0  0  2  0  0  0  0  0  0  0  0  0
   10.2915  -13.6479   27.2410 C   0  0  0  0  0  0  0  0  0  0  0  0
   11.0973  -15.9081   27.9639 C   0  0  2  0  0  0  0  0  0  0  0  0
   10.7564  -16.6367   26.7793 N   0  0  0  0  0  0  0  0  0  0  0  0
   10.9965  -16.8538   29.1261 C   0  0  0  0  0  0  0  0  0  0  0  0
   10.4861  -17.9857   28.9190 O   0  0  0  0  0  0  0  0  0  0  0  0
   11.4484  -16.4999   30.3896 O   0  0  0  0  0  0  0  0  0  0  0  0
  2 13  1  0
  2  1  1  6
  3  2  1  0
  4  3  1  0
  4  5  2  0
  6  5  1  0
  7  6  1  0
  8  7  2  0
  9  8  1  0
 10  9  2  0
 10 11  1  0
 11 12  2  0
 12  7  1  0
 12  4  1  0
 13 14  2  0
 15 16  1  0
 15 13  1  0
 16 21  1  0
 16 17  1  6
 18 17  1  0
 19 18  1  0
 20 19  2  0
 21 22  2  0
 23 19  1  0
 25 24  1  6
 25 27  1  0
 26 25  1  0
 27 29  1  0
 27 28  1  6
 28 21  1  0
 29 30  2  0
 29 31  1  0
M  END
$$$$
