WEV.pdb
     RDKit          3D

 31 32  0  0  1  0  0  0  0  0999 V2000
    6.6233  -17.8319   22.5475 N   0  0  0  0  0  0  0  0  0  0  0  0
    7.4054  -16.7245   23.0447 C   0  0  1  0  0  0  0  0  0  0  0  0
    6.4920  -15.8826   23.9221 C   0  0  0  0  0  0  0  0  0  0  0  0
    6.7632  -14.4503   23.6937 C   0  0  0  0  0  0  0  0  0  0  0  0
    7.2768  -13.8990   22.5446 C   0  0  0  0  0  0  0  0  0  0  0  0
    7.3720  -12.5520   22.7448 N   0  0  0  0  0  0  0  0  0  0  0  0
    6.9346  -12.2702   23.9724 C   0  0  0  0  0  0  0  0  0  0  0  0
    6.8180  -11.0938   24.6645 C   0  0  0  0  0  0  0  0  0  0  0  0
    6.3230  -11.0419   25.9649 C   0  0  0  0  0  0  0  0  0  0  0  0
    5.9416  -12.2082   26.5668 C   0  0  0  0  0  0  0  0  0  0  0  0
    6.0467  -13.4023   25.8990 C   0  0  0  0  0  0  0  0  0  0  0  0
    6.5455  -13.4408   24.5932 C   0  0  0  0  0  0  0  0  0  0  0  0
    8.5479  -17.1990   23.8848 C   0  0  0  0  0  0  0  0  0  0  0  0
    8.3343  -17.8452   24.9375 O   0  0  0  0  0  0  0  0  0  0  0  0
    9.8626  -16.9110   23.4788 N   0  0  0  0  0  0  0  0  0  0  0  0
   11.0398  -17.3739   24.1872 C   0  0  1  0  0  0  0  0  0  0  0  0
   12.2013  -17.3293   23.2454 C   0  0  0  0  0  0  0  0  0  0  0  0
   13.4927  -17.7453   23.9104 C   0  0  0  0  0  0  0  0  0  0  0  0
   14.5996  -17.6732   22.9311 C   0  0  0  0  0  0  0  0  0  0  0  0
   14.9299  -18.6896   22.2835 O   0  0  0  0  0  0  0  0  0  0  0  0
   11.2667  -16.5486   25.4158 C   0  0  0  0  0  0  0  0  0  0  0  0
   11.7826  -15.4067   25.2792 O   0  0  0  0  0  0  0  0  0  0  0  0
   15.3091  -16.5029   22.6880 O   0  0  0  0  0  0  0  0  0  0  0  0
    9.0791  -16.1112   28.8662 C   0  0  0  0  0  0  0  0  0  0  0  0
   10.3378  -15.3902   28.4364 C   0  0  2  0  0  0  0  0  0  0  0  0
    9.9390  -14.3011   27.4900 C   0  0  0  0  0  0  0  0  0  0  0  0
   11.3653  -16.3269   27.8668 C   0  0  2  0  0  0  0  0  0  0  0  0
   10.9135  -17.0307   26.7045 N   0  0  0  0  0  0  0  0  0  0  0  0
   11.6785  -17.3461   28.9244 C   0  0  0  0  0  0  0  0  0  0  0  0
   11.2874  -18.5275   28.7349 O   0  0  0  0  0  0  0  0  0  0  0  0
   12.3752  -17.0054   30.0752 O   0  0  0  0  0  0  0  0  0  0  0  0
  2 13  1  0
  2  1  1  1
  3  2  1  0
  4  3  1  0
  4  5  2  0
  6  5  1  0
  7  6  1  0
  8  7  2  0
  9  8  1  0
 10  9  2  0
 10 11  1  0
 11 12  2  0
 12  7  1  0
 12  4  1  0
 13 14  2  0
 15 16  1  0
 15 13  1  0
 16 21  1  0
 16 17  1  6
 18 17  1  0
 19 18  1  0
 20 19  2  0
 21 22  2  0
 23 19  1  0
 25 24  1  6
 25 27  1  0
 26 25  1  0
 27 29  1  0
 27 28  1  6
 28 21  1  0
 29 30  2  0
 29 31  1  0
M  END
$$$$
