WEV.pdb
     RDKit          3D

 31 32  0  0  1  0  0  0  0  0999 V2000
    6.6901  -18.1590   21.9724 N   0  0  0  0  0  0  0  0  0  0  0  0
    7.3925  -16.9644   22.3779 C   0  0  1  0  0  0  0  0  0  0  0  0
    6.3734  -16.0349   23.0185 C   0  0  0  0  0  0  0  0  0  0  0  0
    6.9363  -14.6750   23.1238 C   0  0  0  0  0  0  0  0  0  0  0  0
    7.7401  -14.0596   22.1946 C   0  0  0  0  0  0  0  0  0  0  0  0
    8.0400  -12.8167   22.6729 N   0  0  0  0  0  0  0  0  0  0  0  0
    7.4468  -12.6594   23.8566 C   0  0  0  0  0  0  0  0  0  0  0  0
    7.4223  -11.6188   24.7470 C   0  0  0  0  0  0  0  0  0  0  0  0
    6.7185  -11.6829   25.9468 C   0  0  0  0  0  0  0  0  0  0  0  0
    6.0299  -12.8262   26.2411 C   0  0  0  0  0  0  0  0  0  0  0  0
    6.0356  -13.8856   25.3689 C   0  0  0  0  0  0  0  0  0  0  0  0
    6.7464  -13.8085   24.1672 C   0  0  0  0  0  0  0  0  0  0  0  0
    8.4451  -17.2707   23.3951 C   0  0  0  0  0  0  0  0  0  0  0  0
    8.1367  -17.8160   24.4809 O   0  0  0  0  0  0  0  0  0  0  0  0
    9.7828  -16.9395   23.1177 N   0  0  0  0  0  0  0  0  0  0  0  0
   10.8854  -17.2450   24.0081 C   0  0  1  0  0  0  0  0  0  0  0  0
   12.1584  -17.1478   23.2284 C   0  0  0  0  0  0  0  0  0  0  0  0
   13.3757  -17.3984   24.0877 C   0  0  0  0  0  0  0  0  0  0  0  0
   14.5870  -17.4133   23.2381 C   0  0  0  0  0  0  0  0  0  0  0  0
   15.0107  -18.4919   22.7706 O   0  0  0  0  0  0  0  0  0  0  0  0
   10.8679  -16.3289   25.1924 C   0  0  0  0  0  0  0  0  0  0  0  0
   11.1827  -15.1212   25.0157 O   0  0  0  0  0  0  0  0  0  0  0  0
   15.2961  -16.2595   22.9251 O   0  0  0  0  0  0  0  0  0  0  0  0
    9.4090  -14.0388   27.0589 C   0  0  0  0  0  0  0  0  0  0  0  0
    9.7244  -15.1086   28.0812 C   0  0  2  0  0  0  0  0  0  0  0  0
   10.0011  -14.4264   29.3847 C   0  0  0  0  0  0  0  0  0  0  0  0
   10.8377  -16.0134   27.6350 C   0  0  2  0  0  0  0  0  0  0  0  0
   10.5078  -16.7986   26.4838 N   0  0  0  0  0  0  0  0  0  0  0  0
   11.1271  -16.9595   28.7649 C   0  0  0  0  0  0  0  0  0  0  0  0
   10.7028  -18.1403   28.6648 O   0  0  0  0  0  0  0  0  0  0  0  0
   11.8378  -16.5536   29.8856 O   0  0  0  0  0  0  0  0  0  0  0  0
  2 13  1  0
  2  1  1  1
  3  2  1  0
  4  3  1  0
  4  5  2  0
  6  5  1  0
  7  6  1  0
  8  7  2  0
  9  8  1  0
 10  9  2  0
 10 11  1  0
 11 12  2  0
 12  7  1  0
 12  4  1  0
 13 14  2  0
 15 16  1  0
 15 13  1  0
 16 21  1  0
 16 17  1  6
 18 17  1  0
 19 18  1  0
 20 19  2  0
 21 22  2  0
 23 19  1  0
 25 24  1  6
 25 27  1  0
 26 25  1  0
 27 29  1  0
 27 28  1  6
 28 21  1  0
 29 30  2  0
 29 31  1  0
M  END
$$$$
