WEV.pdb
     RDKit          3D

 31 32  0  0  1  0  0  0  0  0999 V2000
    7.0617  -17.5181   21.4781 N   0  0  0  0  0  0  0  0  0  0  0  0
    7.4434  -16.5939   22.5199 C   0  0  1  0  0  0  0  0  0  0  0  0
    6.3241  -15.5730   22.6523 C   0  0  0  0  0  0  0  0  0  0  0  0
    6.8972  -14.2203   22.7900 C   0  0  0  0  0  0  0  0  0  0  0  0
    7.5573  -13.5194   21.8096 C   0  0  0  0  0  0  0  0  0  0  0  0
    7.9246  -12.3178   22.3431 N   0  0  0  0  0  0  0  0  0  0  0  0
    7.5104  -12.2677   23.6094 C   0  0  0  0  0  0  0  0  0  0  0  0
    7.6167  -11.3061   24.5792 C   0  0  0  0  0  0  0  0  0  0  0  0
    7.0953  -11.4793   25.8587 C   0  0  0  0  0  0  0  0  0  0  0  0
    6.4562  -12.6513   26.1517 C   0  0  0  0  0  0  0  0  0  0  0  0
    6.3340  -13.6333   25.2011 C   0  0  0  0  0  0  0  0  0  0  0  0
    6.8621  -13.4470   23.9198 C   0  0  0  0  0  0  0  0  0  0  0  0
    7.5955  -17.2891   23.8352 C   0  0  0  0  0  0  0  0  0  0  0  0
    6.5919  -17.5168   24.5509 O   0  0  0  0  0  0  0  0  0  0  0  0
    8.8772  -17.6831   24.2574 N   0  0  0  0  0  0  0  0  0  0  0  0
    9.1560  -18.2270   25.5721 C   0  0  1  0  0  0  0  0  0  0  0  0
    9.6136  -19.6416   25.4068 C   0  0  0  0  0  0  0  0  0  0  0  0
   10.8055  -19.7528   24.4848 C   0  0  0  0  0  0  0  0  0  0  0  0
   11.2581  -21.1603   24.4281 C   0  0  0  0  0  0  0  0  0  0  0  0
   11.1909  -21.7970   23.3549 O   0  0  0  0  0  0  0  0  0  0  0  0
   10.1637  -17.3786   26.2840 C   0  0  0  0  0  0  0  0  0  0  0  0
   11.0917  -16.8610   25.6060 O   0  0  0  0  0  0  0  0  0  0  0  0
   11.7675  -21.8282   25.5356 O   0  0  0  0  0  0  0  0  0  0  0  0
    9.4792  -15.2979   29.9167 C   0  0  0  0  0  0  0  0  0  0  0  0
   10.5746  -15.0800   28.8961 C   0  0  2  0  0  0  0  0  0  0  0  0
   10.0464  -14.1458   27.8524 C   0  0  0  0  0  0  0  0  0  0  0  0
   11.0929  -16.3720   28.3310 C   0  0  2  0  0  0  0  0  0  0  0  0
   10.0845  -17.1571   27.6850 N   0  0  0  0  0  0  0  0  0  0  0  0
   11.6341  -17.1779   29.4769 C   0  0  0  0  0  0  0  0  0  0  0  0
   11.0392  -18.2461   29.7757 O   0  0  0  0  0  0  0  0  0  0  0  0
   12.7524  -16.7658   30.1879 O   0  0  0  0  0  0  0  0  0  0  0  0
  2 13  1  0
  2  1  1  6
  3  2  1  0
  4  3  1  0
  4  5  2  0
  6  5  1  0
  7  6  1  0
  8  7  2  0
  9  8  1  0
 10  9  2  0
 10 11  1  0
 11 12  2  0
 12  7  1  0
 12  4  1  0
 13 14  2  0
 15 16  1  0
 15 13  1  0
 16 21  1  0
 16 17  1  6
 18 17  1  0
 19 18  1  0
 20 19  2  0
 21 22  2  0
 23 19  1  0
 25 24  1  1
 25 27  1  0
 26 25  1  0
 27 29  1  0
 27 28  1  1
 28 21  1  0
 29 30  2  0
 29 31  1  0
M  END
$$$$
