WEV.pdb
     RDKit          3D

 31 32  0  0  1  0  0  0  0  0999 V2000
    6.3401  -17.0564   24.7920 N   0  0  0  0  0  0  0  0  0  0  0  0
    7.2408  -17.0099   23.6643 C   0  0  1  0  0  0  0  0  0  0  0  0
    7.2945  -15.5672   23.1864 C   0  0  0  0  0  0  0  0  0  0  0  0
    6.6323  -14.6909   24.1717 C   0  0  0  0  0  0  0  0  0  0  0  0
    5.8089  -15.1012   25.1924 C   0  0  0  0  0  0  0  0  0  0  0  0
    5.4083  -13.9849   25.8682 N   0  0  0  0  0  0  0  0  0  0  0  0
    5.9598  -12.9159   25.2929 C   0  0  0  0  0  0  0  0  0  0  0  0
    5.8873  -11.5764   25.5704 C   0  0  0  0  0  0  0  0  0  0  0  0
    6.5646  -10.6227   24.8152 C   0  0  0  0  0  0  0  0  0  0  0  0
    7.3267  -11.0431   23.7615 C   0  0  0  0  0  0  0  0  0  0  0  0
    7.4188  -12.3783   23.4587 C   0  0  0  0  0  0  0  0  0  0  0  0
    6.7336  -13.3262   24.2252 C   0  0  0  0  0  0  0  0  0  0  0  0
    8.6244  -17.4210   24.0556 C   0  0  0  0  0  0  0  0  0  0  0  0
    8.8048  -18.4277   24.7803 O   0  0  0  0  0  0  0  0  0  0  0  0
    9.7182  -16.6643   23.6005 N   0  0  0  0  0  0  0  0  0  0  0  0
   11.0924  -16.9373   23.9735 C   0  0  1  0  0  0  0  0  0  0  0  0
   11.9866  -16.3687   22.9175 C   0  0  0  0  0  0  0  0  0  0  0  0
   12.3753  -17.3984   21.8824 C   0  0  0  0  0  0  0  0  0  0  0  0
   13.2548  -16.7746   20.8692 C   0  0  0  0  0  0  0  0  0  0  0  0
   13.6397  -15.5947   21.0154 O   0  0  0  0  0  0  0  0  0  0  0  0
   11.3841  -16.3796   25.3321 C   0  0  0  0  0  0  0  0  0  0  0  0
   11.6274  -15.1466   25.4300 O   0  0  0  0  0  0  0  0  0  0  0  0
   13.6864  -17.4507   19.7340 O   0  0  0  0  0  0  0  0  0  0  0  0
    9.9653  -14.6816   27.2812 C   0  0  0  0  0  0  0  0  0  0  0  0
   10.2445  -15.8611   28.1866 C   0  0  2  0  0  0  0  0  0  0  0  0
   10.2910  -15.3544   29.5945 C   0  0  0  0  0  0  0  0  0  0  0  0
   11.4827  -16.6099   27.7824 C   0  0  2  0  0  0  0  0  0  0  0  0
   11.3890  -17.2092   26.4853 N   0  0  0  0  0  0  0  0  0  0  0  0
   11.6860  -17.7130   28.7810 C   0  0  0  0  0  0  0  0  0  0  0  0
   12.0669  -17.3945   29.9377 O   0  0  0  0  0  0  0  0  0  0  0  0
   11.4636  -19.0418   28.4481 O   0  0  0  0  0  0  0  0  0  0  0  0
  2 13  1  0
  2  1  1  1
  3  2  1  0
  4  3  1  0
  4  5  2  0
  6  5  1  0
  7  6  1  0
  8  7  2  0
  9  8  1  0
 10  9  2  0
 10 11  1  0
 11 12  2  0
 12  7  1  0
 12  4  1  0
 13 14  2  0
 15 16  1  0
 15 13  1  0
 16 21  1  0
 16 17  1  6
 18 17  1  0
 19 18  1  0
 20 19  2  0
 21 22  2  0
 23 19  1  0
 25 24  1  6
 25 27  1  0
 26 25  1  0
 27 29  1  0
 27 28  1  6
 28 21  1  0
 29 30  2  0
 29 31  1  0
M  END
$$$$
