WEV.pdb
     RDKit          3D

 31 32  0  0  1  0  0  0  0  0999 V2000
    9.8594  -15.4269   22.0697 N   0  0  0  0  0  0  0  0  0  0  0  0
    8.9741  -15.5607   23.2027 C   0  0  1  0  0  0  0  0  0  0  0  0
    7.5533  -15.6173   22.6633 C   0  0  0  0  0  0  0  0  0  0  0  0
    7.1942  -14.3160   22.0678 C   0  0  0  0  0  0  0  0  0  0  0  0
    6.9817  -14.0700   20.7327 C   0  0  0  0  0  0  0  0  0  0  0  0
    6.6731  -12.7464   20.6051 N   0  0  0  0  0  0  0  0  0  0  0  0
    6.6915  -12.1845   21.8141 C   0  0  0  0  0  0  0  0  0  0  0  0
    6.4580  -10.9043   22.2419 C   0  0  0  0  0  0  0  0  0  0  0  0
    6.5364  -10.5428   23.5842 C   0  0  0  0  0  0  0  0  0  0  0  0
    6.8578  -11.5025   24.5026 C   0  0  0  0  0  0  0  0  0  0  0  0
    7.0973  -12.7937   24.1046 C   0  0  0  0  0  0  0  0  0  0  0  0
    7.0153  -13.1439   22.7533 C   0  0  0  0  0  0  0  0  0  0  0  0
    9.2369  -16.8279   23.9520 C   0  0  0  0  0  0  0  0  0  0  0  0
    8.3697  -17.2974   24.7258 O   0  0  0  0  0  0  0  0  0  0  0  0
   10.4676  -17.4844   23.7771 N   0  0  0  0  0  0  0  0  0  0  0  0
   11.0189  -18.4224   24.7353 C   0  0  1  0  0  0  0  0  0  0  0  0
   12.1398  -19.1618   24.0758 C   0  0  0  0  0  0  0  0  0  0  0  0
   12.7313  -20.2231   24.9740 C   0  0  0  0  0  0  0  0  0  0  0  0
   13.8703  -20.8731   24.2890 C   0  0  0  0  0  0  0  0  0  0  0  0
   13.6658  -21.6367   23.3212 O   0  0  0  0  0  0  0  0  0  0  0  0
   11.4570  -17.7047   25.9742 C   0  0  0  0  0  0  0  0  0  0  0  0
   12.6722  -17.7711   26.3027 O   0  0  0  0  0  0  0  0  0  0  0  0
   15.1901  -20.6729   24.6764 O   0  0  0  0  0  0  0  0  0  0  0  0
    9.4208  -14.3885   27.5404 C   0  0  0  0  0  0  0  0  0  0  0  0
    9.9764  -15.3736   28.5454 C   0  0  2  0  0  0  0  0  0  0  0  0
   10.4977  -14.5915   29.7106 C   0  0  0  0  0  0  0  0  0  0  0  0
   11.0000  -16.2910   27.9388 C   0  0  2  0  0  0  0  0  0  0  0  0
   10.5359  -16.9665   26.7645 N   0  0  0  0  0  0  0  0  0  0  0  0
   11.3305  -17.3359   28.9656 C   0  0  0  0  0  0  0  0  0  0  0  0
   10.6630  -18.4031   28.9526 O   0  0  0  0  0  0  0  0  0  0  0  0
   12.3365  -17.1397   29.9011 O   0  0  0  0  0  0  0  0  0  0  0  0
  2 13  1  0
  2  1  1  6
  3  2  1  0
  4  3  1  0
  4  5  2  0
  6  5  1  0
  7  6  1  0
  8  7  2  0
  9  8  1  0
 10  9  2  0
 10 11  1  0
 11 12  2  0
 12  7  1  0
 12  4  1  0
 13 14  2  0
 15 16  1  0
 15 13  1  0
 16 21  1  0
 16 17  1  6
 18 17  1  0
 19 18  1  0
 20 19  2  0
 21 22  2  0
 23 19  1  0
 25 24  1  6
 25 27  1  0
 26 25  1  0
 27 29  1  0
 27 28  1  6
 28 21  1  0
 29 30  2  0
 29 31  1  0
M  END
$$$$
