WEV.pdb
     RDKit          3D

 31 32  0  0  1  0  0  0  0  0999 V2000
    6.3244  -17.1046   24.5289 N   0  0  0  0  0  0  0  0  0  0  0  0
    7.5237  -16.3160   24.3712 C   0  0  1  0  0  0  0  0  0  0  0  0
    7.7035  -15.5049   25.6450 C   0  0  0  0  0  0  0  0  0  0  0  0
    6.7000  -14.4242   25.6933 C   0  0  0  0  0  0  0  0  0  0  0  0
    5.4282  -14.5254   26.2037 C   0  0  0  0  0  0  0  0  0  0  0  0
    4.8307  -13.3069   26.0568 N   0  0  0  0  0  0  0  0  0  0  0  0
    5.6951  -12.4740   25.4765 C   0  0  0  0  0  0  0  0  0  0  0  0
    5.6051  -11.1575   25.1084 C   0  0  0  0  0  0  0  0  0  0  0  0
    6.6609  -10.4805   24.5038 C   0  0  0  0  0  0  0  0  0  0  0  0
    7.8251  -11.1576   24.2717 C   0  0  0  0  0  0  0  0  0  0  0  0
    7.9455  -12.4770   24.6291 C   0  0  0  0  0  0  0  0  0  0  0  0
    6.8776  -13.1456   25.2358 C   0  0  0  0  0  0  0  0  0  0  0  0
    8.7284  -17.1855   24.2008 C   0  0  0  0  0  0  0  0  0  0  0  0
    8.7916  -18.2991   24.7728 O   0  0  0  0  0  0  0  0  0  0  0  0
    9.7872  -16.7380   23.3917 N   0  0  0  0  0  0  0  0  0  0  0  0
   11.1731  -17.1034   23.6107 C   0  0  1  0  0  0  0  0  0  0  0  0
   11.9728  -16.6334   22.4370 C   0  0  0  0  0  0  0  0  0  0  0  0
   13.4273  -17.0291   22.5410 C   0  0  0  0  0  0  0  0  0  0  0  0
   14.0948  -16.8088   21.2390 C   0  0  0  0  0  0  0  0  0  0  0  0
   14.5216  -17.7821   20.5816 O   0  0  0  0  0  0  0  0  0  0  0  0
   11.6645  -16.5316   24.9044 C   0  0  0  0  0  0  0  0  0  0  0  0
   12.5770  -15.6631   24.8631 O   0  0  0  0  0  0  0  0  0  0  0  0
   14.2761  -15.5425   20.6954 O   0  0  0  0  0  0  0  0  0  0  0  0
    9.5985  -16.0103   28.5365 C   0  0  0  0  0  0  0  0  0  0  0  0
   10.9606  -15.4990   28.1214 C   0  0  2  0  0  0  0  0  0  0  0  0
   10.7571  -14.2291   27.3554 C   0  0  0  0  0  0  0  0  0  0  0  0
   11.7507  -16.5297   27.3659 C   0  0  2  0  0  0  0  0  0  0  0  0
   11.1234  -16.9502   26.1493 N   0  0  0  0  0  0  0  0  0  0  0  0
   11.8801  -17.7347   28.2528 C   0  0  0  0  0  0  0  0  0  0  0  0
   11.2760  -18.7841   27.9088 O   0  0  0  0  0  0  0  0  0  0  0  0
   12.6382  -17.7011   29.4147 O   0  0  0  0  0  0  0  0  0  0  0  0
  2 13  1  0
  2  1  1  1
  3  2  1  0
  4  3  1  0
  4  5  2  0
  6  5  1  0
  7  6  1  0
  8  7  2  0
  9  8  1  0
 10  9  2  0
 10 11  1  0
 11 12  2  0
 12  7  1  0
 12  4  1  0
 13 14  2  0
 15 16  1  0
 15 13  1  0
 16 21  1  0
 16 17  1  6
 18 17  1  0
 19 18  1  0
 20 19  2  0
 21 22  2  0
 23 19  1  0
 25 24  1  6
 25 27  1  0
 26 25  1  0
 27 29  1  0
 27 28  1  6
 28 21  1  0
 29 30  2  0
 29 31  1  0
M  END
$$$$
