WEV.pdb
     RDKit          3D

 31 32  0  0  1  0  0  0  0  0999 V2000
    6.3738  -17.2969   25.0161 N   0  0  0  0  0  0  0  0  0  0  0  0
    7.5320  -16.5198   24.6423 C   0  0  1  0  0  0  0  0  0  0  0  0
    7.8519  -15.5947   25.8061 C   0  0  0  0  0  0  0  0  0  0  0  0
    6.7637  -14.6127   25.9757 C   0  0  0  0  0  0  0  0  0  0  0  0
    5.5111  -14.8739   26.4767 C   0  0  0  0  0  0  0  0  0  0  0  0
    4.8137  -13.7005   26.4656 N   0  0  0  0  0  0  0  0  0  0  0  0
    5.5992  -12.7407   25.9763 C   0  0  0  0  0  0  0  0  0  0  0  0
    5.3966  -11.4043   25.7542 C   0  0  0  0  0  0  0  0  0  0  0  0
    6.3855  -10.5803   25.2230 C   0  0  0  0  0  0  0  0  0  0  0  0
    7.5984  -11.1293   24.9142 C   0  0  0  0  0  0  0  0  0  0  0  0
    7.8312  -12.4650   25.1253 C   0  0  0  0  0  0  0  0  0  0  0  0
    6.8298  -13.2818   25.6594 C   0  0  0  0  0  0  0  0  0  0  0  0
    8.7211  -17.3951   24.4048 C   0  0  0  0  0  0  0  0  0  0  0  0
    8.8332  -18.4884   25.0076 O   0  0  0  0  0  0  0  0  0  0  0  0
    9.7100  -16.9758   23.4978 N   0  0  0  0  0  0  0  0  0  0  0  0
   11.1198  -17.2758   23.6539 C   0  0  1  0  0  0  0  0  0  0  0  0
   11.8450  -16.7587   22.4520 C   0  0  0  0  0  0  0  0  0  0  0  0
   13.3278  -17.0422   22.5131 C   0  0  0  0  0  0  0  0  0  0  0  0
   13.9387  -16.7711   21.1931 C   0  0  0  0  0  0  0  0  0  0  0  0
   14.8693  -17.4921   20.7738 O   0  0  0  0  0  0  0  0  0  0  0  0
   11.6385  -16.6912   24.9311 C   0  0  0  0  0  0  0  0  0  0  0  0
   12.5706  -15.8453   24.8635 O   0  0  0  0  0  0  0  0  0  0  0  0
   13.5200  -15.7289   20.3742 O   0  0  0  0  0  0  0  0  0  0  0  0
    9.5027  -15.8211   28.2653 C   0  0  0  0  0  0  0  0  0  0  0  0
   10.9603  -15.4784   28.0494 C   0  0  2  0  0  0  0  0  0  0  0  0
   11.0183  -14.1926   27.2850 C   0  0  0  0  0  0  0  0  0  0  0  0
   11.7177  -16.5967   27.3911 C   0  0  2  0  0  0  0  0  0  0  0  0
   11.1014  -17.0731   26.1896 N   0  0  0  0  0  0  0  0  0  0  0  0
   11.7652  -17.7399   28.3638 C   0  0  0  0  0  0  0  0  0  0  0  0
   11.0987  -18.7719   28.0894 O   0  0  0  0  0  0  0  0  0  0  0  0
   12.5162  -17.6694   29.5287 O   0  0  0  0  0  0  0  0  0  0  0  0
  2 13  1  0
  2  1  1  1
  3  2  1  0
  4  3  1  0
  4  5  2  0
  6  5  1  0
  7  6  1  0
  8  7  2  0
  9  8  1  0
 10  9  2  0
 10 11  1  0
 11 12  2  0
 12  7  1  0
 12  4  1  0
 13 14  2  0
 15 16  1  0
 15 13  1  0
 16 21  1  0
 16 17  1  6
 18 17  1  0
 19 18  1  0
 20 19  2  0
 21 22  2  0
 23 19  1  0
 25 24  1  6
 25 27  1  0
 26 25  1  0
 27 29  1  0
 27 28  1  6
 28 21  1  0
 29 30  2  0
 29 31  1  0
M  END
$$$$
