WEV.pdb
     RDKit          3D

 31 32  0  0  1  0  0  0  0  0999 V2000
    7.2252  -18.4536   21.9924 N   0  0  0  0  0  0  0  0  0  0  0  0
    8.1031  -17.3403   22.2663 C   0  0  1  0  0  0  0  0  0  0  0  0
    7.2365  -16.1887   22.7516 C   0  0  0  0  0  0  0  0  0  0  0  0
    6.7866  -15.3838   21.5997 C   0  0  0  0  0  0  0  0  0  0  0  0
    5.6633  -15.6146   20.8427 C   0  0  0  0  0  0  0  0  0  0  0  0
    5.6118  -14.6463   19.8819 N   0  0  0  0  0  0  0  0  0  0  0  0
    6.6629  -13.8396   20.0311 C   0  0  0  0  0  0  0  0  0  0  0  0
    7.0812  -12.7303   19.3449 C   0  0  0  0  0  0  0  0  0  0  0  0
    8.2367  -12.0342   19.6899 C   0  0  0  0  0  0  0  0  0  0  0  0
    8.9754  -12.4776   20.7509 C   0  0  0  0  0  0  0  0  0  0  0  0
    8.5819  -13.5860   21.4576 C   0  0  0  0  0  0  0  0  0  0  0  0
    7.4193  -14.2762   21.1009 C   0  0  0  0  0  0  0  0  0  0  0  0
    9.0818  -17.6722   23.3471 C   0  0  0  0  0  0  0  0  0  0  0  0
    8.6884  -18.1794   24.4238 O   0  0  0  0  0  0  0  0  0  0  0  0
   10.4469  -17.4081   23.1397 N   0  0  0  0  0  0  0  0  0  0  0  0
   11.4407  -17.4503   24.1945 C   0  0  1  0  0  0  0  0  0  0  0  0
   12.7957  -17.3729   23.5652 C   0  0  0  0  0  0  0  0  0  0  0  0
   13.9002  -17.2980   24.5935 C   0  0  0  0  0  0  0  0  0  0  0  0
   15.2087  -17.2053   23.9090 C   0  0  0  0  0  0  0  0  0  0  0  0
   15.7367  -18.2298   23.4262 O   0  0  0  0  0  0  0  0  0  0  0  0
   11.2027  -16.3476   25.1790 C   0  0  0  0  0  0  0  0  0  0  0  0
   11.6739  -15.2072   24.9213 O   0  0  0  0  0  0  0  0  0  0  0  0
   15.8985  -16.0064   23.7717 O   0  0  0  0  0  0  0  0  0  0  0  0
    8.7810  -14.1338   26.1640 C   0  0  0  0  0  0  0  0  0  0  0  0
    9.1334  -14.8231   27.4639 C   0  0  2  0  0  0  0  0  0  0  0  0
    9.0952  -13.7944   28.5507 C   0  0  0  0  0  0  0  0  0  0  0  0
   10.4424  -15.5562   27.3841 C   0  0  2  0  0  0  0  0  0  0  0  0
   10.4673  -16.5707   26.3738 N   0  0  0  0  0  0  0  0  0  0  0  0
   10.6626  -16.2268   28.7097 C   0  0  0  0  0  0  0  0  0  0  0  0
   10.3196  -17.4328   28.8213 O   0  0  0  0  0  0  0  0  0  0  0  0
   11.2247  -15.5471   29.7810 O   0  0  0  0  0  0  0  0  0  0  0  0
  2 13  1  0
  2  1  1  1
  3  2  1  0
  4  3  1  0
  4  5  2  0
  6  5  1  0
  7  6  1  0
  8  7  2  0
  9  8  1  0
 10  9  2  0
 10 11  1  0
 11 12  2  0
 12  7  1  0
 12  4  1  0
 13 14  2  0
 15 16  1  0
 15 13  1  0
 16 21  1  0
 16 17  1  6
 18 17  1  0
 19 18  1  0
 20 19  2  0
 21 22  2  0
 23 19  1  0
 25 24  1  6
 25 27  1  0
 26 25  1  0
 27 29  1  0
 27 28  1  6
 28 21  1  0
 29 30  2  0
 29 31  1  0
M  END
$$$$
