KFD.pdb
     RDKit          3D

 29 29  0  0  1  0  0  0  0  0999 V2000
   23.9905  -20.0131  -14.6049 N   0  0  0  0  0  0  0  0  0  0  0  0
   23.8200  -21.3743  -14.1908 C   0  0  1  0  0  0  0  0  0  0  0  0
   24.5517  -22.3604  -15.0760 C   0  0  0  0  0  0  0  0  0  0  0  0
   23.9220  -22.4540  -16.4486 C   0  0  0  0  0  0  0  0  0  0  0  0
   24.6893  -21.5111  -17.3606 C   0  0  0  0  0  0  0  0  0  0  0  0
   24.1055  -21.4802  -18.7444 C   0  0  0  0  0  0  0  0  0  0  0  0
   24.1229  -22.7921  -19.3236 N   0  0  0  0  0  0  0  0  0  0  0  0
   24.3574  -21.5596  -12.8176 C   0  0  0  0  0  0  0  0  0  0  0  0
   24.4155  -22.7173  -12.3380 O   0  0  0  0  0  0  0  0  0  0  0  0
   24.7992  -20.4397  -12.0570 N   0  0  0  0  0  0  0  0  0  0  0  0
   25.2889  -20.5864  -10.7042 C   0  0  1  0  0  0  0  0  0  0  0  0
   26.4513  -19.7171  -10.3804 C   0  0  0  0  0  0  0  0  0  0  0  0
   27.0249  -19.8603   -9.0468 C   0  0  0  0  0  0  0  0  0  0  0  0
   27.9780  -20.8332   -8.7669 C   0  0  0  0  0  0  0  0  0  0  0  0
   28.5032  -20.9566   -7.4895 C   0  0  0  0  0  0  0  0  0  0  0  0
   28.1093  -20.1302   -6.4498 C   0  0  0  0  0  0  0  0  0  0  0  0
   27.1685  -19.1720   -6.7316 C   0  0  0  0  0  0  0  0  0  0  0  0
   26.6477  -19.0501   -8.0002 C   0  0  0  0  0  0  0  0  0  0  0  0
   24.1658  -20.5238   -9.7242 C   0  0  0  0  0  0  0  0  0  0  0  0
   23.3033  -19.6151   -9.7532 O   0  0  0  0  0  0  0  0  0  0  0  0
   24.0711  -21.5217   -8.7273 N   0  0  0  0  0  0  0  0  0  0  0  0
   23.0305  -21.5320   -7.6937 C   0  0  1  0  0  0  0  0  0  0  0  0
   22.1360  -22.7215   -7.8798 C   0  0  0  0  0  0  0  0  0  0  0  0
   21.1199  -22.8548   -6.8383 C   0  0  0  0  0  0  0  0  0  0  0  0
   20.2850  -21.9151   -6.6394 O   0  0  0  0  0  0  0  0  0  0  0  0
   23.6867  -21.4976   -6.3843 C   0  0  0  0  0  0  0  0  0  0  0  0
   25.0336  -21.7127   -6.1341 O   0  0  0  0  0  0  0  0  0  0  0  0
   20.9958  -23.9644   -6.0233 O   0  0  0  0  0  0  0  0  0  0  0  0
   22.9911  -21.2502   -5.3491 O   0  0  0  0  0  0  0  0  0  0  0  0
  2  3  1  0
  2  1  1  6
  4  5  1  0
  4  3  1  0
  6  7  1  0
  6  5  1  0
  8  2  1  0
  9  8  2  0
 10  8  1  0
 11 10  1  0
 12 13  1  0
 11 12  1  1
 13 14  2  0
 14 15  1  0
 16 15  2  0
 17 16  1  0
 18 17  2  0
 18 13  1  0
 19 21  1  0
 19 11  1  0
 20 19  2  0
 22 23  1  1
 22 21  1  0
 23 24  1  0
 24 28  1  0
 24 25  2  0
 26 22  1  0
 26 27  1  0
 29 26  2  0
M  END
$$$$
