KFD.pdb
     RDKit          3D

 29 29  0  0  1  0  0  0  0  0999 V2000
   15.6039  -10.7382  -12.1469 N   0  0  0  0  0  0  0  0  0  0  0  0
   16.5451   -9.6790  -11.9330 C   0  0  1  0  0  0  0  0  0  0  0  0
   17.2197   -9.2177  -13.2071 C   0  0  0  0  0  0  0  0  0  0  0  0
   17.6170  -10.3851  -14.0839 C   0  0  0  0  0  0  0  0  0  0  0  0
   18.2265   -9.8087  -15.3512 C   0  0  0  0  0  0  0  0  0  0  0  0
   18.5494  -10.8834  -16.3499 C   0  0  0  0  0  0  0  0  0  0  0  0
   17.3456  -11.4981  -16.8295 N   0  0  0  0  0  0  0  0  0  0  0  0
   15.8543   -8.4913  -11.3666 C   0  0  0  0  0  0  0  0  0  0  0  0
   14.6910   -8.2228  -11.7519 O   0  0  0  0  0  0  0  0  0  0  0  0
   16.5032   -7.6696  -10.4013 N   0  0  0  0  0  0  0  0  0  0  0  0
   15.8857   -6.4654   -9.8914 C   0  0  1  0  0  0  0  0  0  0  0  0
   15.7543   -6.4294   -8.4105 C   0  0  0  0  0  0  0  0  0  0  0  0
   14.5803   -7.0817   -7.8410 C   0  0  0  0  0  0  0  0  0  0  0  0
   14.5519   -8.4524   -7.6096 C   0  0  0  0  0  0  0  0  0  0  0  0
   13.4216   -9.0524   -7.0755 C   0  0  0  0  0  0  0  0  0  0  0  0
   12.2869   -8.3263   -6.7528 C   0  0  0  0  0  0  0  0  0  0  0  0
   12.3204   -6.9741   -6.9832 C   0  0  0  0  0  0  0  0  0  0  0  0
   13.4431   -6.3793   -7.5135 C   0  0  0  0  0  0  0  0  0  0  0  0
   16.5098   -5.2527  -10.4960 C   0  0  0  0  0  0  0  0  0  0  0  0
   17.7503   -5.0750  -10.5081 O   0  0  0  0  0  0  0  0  0  0  0  0
   15.6747   -4.2691  -11.0734 N   0  0  0  0  0  0  0  0  0  0  0  0
   16.1844   -3.0367  -11.6840 C   0  0  1  0  0  0  0  0  0  0  0  0
   16.0917   -3.1294  -13.1782 C   0  0  0  0  0  0  0  0  0  0  0  0
   16.4950   -1.9038  -13.8640 C   0  0  0  0  0  0  0  0  0  0  0  0
   17.7241   -1.6901  -14.1156 O   0  0  0  0  0  0  0  0  0  0  0  0
   15.4382   -1.9069  -11.1245 C   0  0  0  0  0  0  0  0  0  0  0  0
   15.7193   -0.5622  -11.3133 O   0  0  0  0  0  0  0  0  0  0  0  0
   15.6091   -0.9243  -14.2719 O   0  0  0  0  0  0  0  0  0  0  0  0
   14.4274   -2.1358  -10.3880 O   0  0  0  0  0  0  0  0  0  0  0  0
  2  3  1  0
  2  1  1  6
  4  5  1  0
  4  3  1  0
  6  7  1  0
  6  5  1  0
  8  2  1  0
  9  8  2  0
 10  8  1  0
 11 10  1  0
 12 13  1  0
 11 12  1  1
 13 14  2  0
 14 15  1  0
 16 15  2  0
 17 16  1  0
 18 17  2  0
 18 13  1  0
 19 21  1  0
 19 11  1  0
 20 19  2  0
 22 23  1  6
 22 21  1  0
 23 24  1  0
 24 28  1  0
 24 25  2  0
 26 22  1  0
 26 27  1  0
 29 26  2  0
M  END
$$$$
