KFD.pdb
     RDKit          3D

 29 29  0  0  1  0  0  0  0  0999 V2000
   28.3874  -20.8487  -14.9713 N   0  0  0  0  0  0  0  0  0  0  0  0
   27.8659  -19.9290  -14.0041 C   0  0  1  0  0  0  0  0  0  0  0  0
   27.1746  -18.7369  -14.6305 C   0  0  0  0  0  0  0  0  0  0  0  0
   28.1455  -17.8678  -15.3993 C   0  0  0  0  0  0  0  0  0  0  0  0
   27.9819  -18.2049  -16.8722 C   0  0  0  0  0  0  0  0  0  0  0  0
   28.7932  -17.2896  -17.7443 C   0  0  0  0  0  0  0  0  0  0  0  0
   28.7337  -17.7191  -19.1114 N   0  0  0  0  0  0  0  0  0  0  0  0
   26.8528  -20.6058  -13.1529 C   0  0  0  0  0  0  0  0  0  0  0  0
   26.3431  -21.6806  -13.5518 O   0  0  0  0  0  0  0  0  0  0  0  0
   26.4657  -20.0429  -11.9035 N   0  0  0  0  0  0  0  0  0  0  0  0
   25.3426  -20.5597  -11.1534 C   0  0  1  0  0  0  0  0  0  0  0  0
   25.3820  -20.2402   -9.7015 C   0  0  0  0  0  0  0  0  0  0  0  0
   26.6840  -20.3197   -9.0484 C   0  0  0  0  0  0  0  0  0  0  0  0
   27.0360  -19.4498   -8.0224 C   0  0  0  0  0  0  0  0  0  0  0  0
   28.2829  -19.5382   -7.4220 C   0  0  0  0  0  0  0  0  0  0  0  0
   29.2202  -20.4815   -7.8097 C   0  0  0  0  0  0  0  0  0  0  0  0
   28.8676  -21.3373   -8.8226 C   0  0  0  0  0  0  0  0  0  0  0  0
   27.6295  -21.2488   -9.4181 C   0  0  0  0  0  0  0  0  0  0  0  0
   24.0555  -20.2329  -11.8334 C   0  0  0  0  0  0  0  0  0  0  0  0
   23.9100  -19.1999  -12.5278 O   0  0  0  0  0  0  0  0  0  0  0  0
   22.9617  -21.1168  -11.6889 N   0  0  0  0  0  0  0  0  0  0  0  0
   21.7402  -21.0258  -12.4957 C   0  0  1  0  0  0  0  0  0  0  0  0
   21.9311  -21.7472  -13.7968 C   0  0  0  0  0  0  0  0  0  0  0  0
   20.7162  -21.8220  -14.6051 C   0  0  0  0  0  0  0  0  0  0  0  0
   19.9107  -20.8372  -14.6365 O   0  0  0  0  0  0  0  0  0  0  0  0
   20.6266  -21.5480  -11.6997 C   0  0  0  0  0  0  0  0  0  0  0  0
   19.2778  -21.3144  -11.9209 O   0  0  0  0  0  0  0  0  0  0  0  0
   20.3642  -22.9230  -15.3632 O   0  0  0  0  0  0  0  0  0  0  0  0
   20.8756  -22.2920  -10.6991 O   0  0  0  0  0  0  0  0  0  0  0  0
  2  3  1  0
  2  1  1  6
  4  5  1  0
  4  3  1  0
  6  7  1  0
  6  5  1  0
  8  2  1  0
  9  8  2  0
 10  8  1  0
 11 10  1  0
 12 13  1  0
 11 12  1  1
 13 14  2  0
 14 15  1  0
 16 15  2  0
 17 16  1  0
 18 17  2  0
 18 13  1  0
 19 21  1  0
 19 11  1  0
 20 19  2  0
 22 23  1  6
 22 21  1  0
 23 24  1  0
 24 28  1  0
 24 25  2  0
 26 22  1  0
 26 27  1  0
 29 26  2  0
M  END
$$$$
