KFD.pdb
     RDKit          3D

 29 29  0  0  1  0  0  0  0  0999 V2000
   28.1828  -10.1520  -18.0614 N   0  0  0  0  0  0  0  0  0  0  0  0
   29.3979   -9.7002  -18.6720 C   0  0  1  0  0  0  0  0  0  0  0  0
   29.2399   -8.3873  -19.4086 C   0  0  0  0  0  0  0  0  0  0  0  0
   28.2230   -8.4906  -20.5241 C   0  0  0  0  0  0  0  0  0  0  0  0
   28.9504   -9.0224  -21.7480 C   0  0  0  0  0  0  0  0  0  0  0  0
   28.0479   -9.0824  -22.9472 C   0  0  0  0  0  0  0  0  0  0  0  0
   28.7470   -9.6329  -24.0720 N   0  0  0  0  0  0  0  0  0  0  0  0
   30.4379   -9.4796  -17.6334 C   0  0  0  0  0  0  0  0  0  0  0  0
   30.1041   -8.9697  -16.5368 O   0  0  0  0  0  0  0  0  0  0  0  0
   31.7932   -9.8411  -17.8791 N   0  0  0  0  0  0  0  0  0  0  0  0
   32.8098   -9.7133  -16.8587 C   0  0  1  0  0  0  0  0  0  0  0  0
   33.6338  -10.9360  -16.6644 C   0  0  0  0  0  0  0  0  0  0  0  0
   34.7183  -10.8475  -15.6927 C   0  0  0  0  0  0  0  0  0  0  0  0
   34.4911  -11.0260  -14.3327 C   0  0  0  0  0  0  0  0  0  0  0  0
   35.5360  -10.9286  -13.4262 C   0  0  0  0  0  0  0  0  0  0  0  0
   36.8332  -10.6536  -13.8267 C   0  0  0  0  0  0  0  0  0  0  0  0
   37.0517  -10.4784  -15.1699 C   0  0  0  0  0  0  0  0  0  0  0  0
   36.0137  -10.5753  -16.0691 C   0  0  0  0  0  0  0  0  0  0  0  0
   33.5886   -8.4539  -17.0410 C   0  0  0  0  0  0  0  0  0  0  0  0
   34.0227   -8.0926  -18.1597 O   0  0  0  0  0  0  0  0  0  0  0  0
   33.8480   -7.6406  -15.9142 N   0  0  0  0  0  0  0  0  0  0  0  0
   34.5658   -6.3638  -15.9900 C   0  0  1  0  0  0  0  0  0  0  0  0
   33.9227   -5.3601  -15.0796 C   0  0  0  0  0  0  0  0  0  0  0  0
   33.9030   -4.0056  -15.6270 C   0  0  0  0  0  0  0  0  0  0  0  0
   34.5392   -3.7422  -16.6974 O   0  0  0  0  0  0  0  0  0  0  0  0
   35.9753   -6.6125  -15.6776 C   0  0  0  0  0  0  0  0  0  0  0  0
   36.4671   -7.5774  -14.8114 O   0  0  0  0  0  0  0  0  0  0  0  0
   33.2222   -2.9519  -15.0465 O   0  0  0  0  0  0  0  0  0  0  0  0
   36.8685   -5.8972  -16.2319 O   0  0  0  0  0  0  0  0  0  0  0  0
  2  3  1  0
  2  1  1  1
  4  5  1  0
  4  3  1  0
  6  7  1  0
  6  5  1  0
  8  2  1  0
  9  8  2  0
 10  8  1  0
 11 10  1  0
 12 13  1  0
 11 12  1  6
 13 14  2  0
 14 15  1  0
 16 15  2  0
 17 16  1  0
 18 17  2  0
 18 13  1  0
 19 21  1  0
 19 11  1  0
 20 19  2  0
 22 23  1  1
 22 21  1  0
 23 24  1  0
 24 28  1  0
 24 25  2  0
 26 22  1  0
 26 27  1  0
 29 26  2  0
M  END
$$$$
