KFD.pdb
     RDKit          3D

 29 29  0  0  1  0  0  0  0  0999 V2000
   24.5245  -13.8506  -18.8161 N   0  0  0  0  0  0  0  0  0  0  0  0
   24.1072  -12.5187  -19.1406 C   0  0  1  0  0  0  0  0  0  0  0  0
   22.7003  -12.4557  -19.6955 C   0  0  0  0  0  0  0  0  0  0  0  0
   22.4918  -13.4612  -20.8066 C   0  0  0  0  0  0  0  0  0  0  0  0
   21.0852  -13.2532  -21.3434 C   0  0  0  0  0  0  0  0  0  0  0  0
   20.7919  -14.1663  -22.4995 C   0  0  0  0  0  0  0  0  0  0  0  0
   19.4060  -14.0871  -22.8599 N   0  0  0  0  0  0  0  0  0  0  0  0
   24.1187  -11.6704  -17.9204 C   0  0  0  0  0  0  0  0  0  0  0  0
   23.4588  -12.0369  -16.9183 O   0  0  0  0  0  0  0  0  0  0  0  0
   24.8669  -10.4592  -17.8888 N   0  0  0  0  0  0  0  0  0  0  0  0
   24.9927   -9.6759  -16.6797 C   0  0  1  0  0  0  0  0  0  0  0  0
   26.3851   -9.5641  -16.1694 C   0  0  0  0  0  0  0  0  0  0  0  0
   27.1234  -10.8111  -16.0017 C   0  0  0  0  0  0  0  0  0  0  0  0
   26.9079  -11.6409  -14.9071 C   0  0  0  0  0  0  0  0  0  0  0  0
   27.6278  -12.8174  -14.7638 C   0  0  0  0  0  0  0  0  0  0  0  0
   28.5792  -13.2143  -15.6890 C   0  0  0  0  0  0  0  0  0  0  0  0
   28.7879  -12.3916  -16.7671 C   0  0  0  0  0  0  0  0  0  0  0  0
   28.0726  -11.2237  -16.9086 C   0  0  0  0  0  0  0  0  0  0  0  0
   24.2658   -8.3796  -16.8099 C   0  0  0  0  0  0  0  0  0  0  0  0
   24.4286   -7.6176  -17.7914 O   0  0  0  0  0  0  0  0  0  0  0  0
   23.3637   -7.9957  -15.7913 N   0  0  0  0  0  0  0  0  0  0  0  0
   22.4871   -6.8240  -15.8909 C   0  0  1  0  0  0  0  0  0  0  0  0
   21.6277   -6.9303  -17.1157 C   0  0  0  0  0  0  0  0  0  0  0  0
   20.6489   -5.8522  -17.2358 C   0  0  0  0  0  0  0  0  0  0  0  0
   21.0292   -4.6387  -17.1878 O   0  0  0  0  0  0  0  0  0  0  0  0
   21.7177   -6.7218  -14.6483 C   0  0  0  0  0  0  0  0  0  0  0  0
   20.9750   -5.6283  -14.2293 O   0  0  0  0  0  0  0  0  0  0  0  0
   19.2924   -6.0607  -17.4015 O   0  0  0  0  0  0  0  0  0  0  0  0
   21.7019   -7.7084  -13.8465 O   0  0  0  0  0  0  0  0  0  0  0  0
  2  3  1  0
  2  1  1  1
  4  5  1  0
  4  3  1  0
  6  7  1  0
  6  5  1  0
  8  2  1  0
  9  8  2  0
 10  8  1  0
 11 10  1  0
 12 13  1  0
 11 12  1  6
 13 14  2  0
 14 15  1  0
 16 15  2  0
 17 16  1  0
 18 17  2  0
 18 13  1  0
 19 21  1  0
 19 11  1  0
 20 19  2  0
 22 23  1  6
 22 21  1  0
 23 24  1  0
 24 28  1  0
 24 25  2  0
 26 22  1  0
 26 27  1  0
 29 26  2  0
M  END
$$$$
