KFD.pdb
     RDKit          3D

 29 29  0  0  1  0  0  0  0  0999 V2000
   26.7397  -23.3280  -17.7437 N   0  0  0  0  0  0  0  0  0  0  0  0
   26.5186  -21.9909  -17.2780 C   0  0  1  0  0  0  0  0  0  0  0  0
   25.5505  -21.2131  -18.1434 C   0  0  0  0  0  0  0  0  0  0  0  0
   26.2595  -20.5003  -19.2741 C   0  0  0  0  0  0  0  0  0  0  0  0
   27.0795  -21.5414  -20.0181 C   0  0  0  0  0  0  0  0  0  0  0  0
   27.0555  -21.3098  -21.5021 C   0  0  0  0  0  0  0  0  0  0  0  0
   27.9519  -22.2130  -22.1636 N   0  0  0  0  0  0  0  0  0  0  0  0
   25.9358  -22.0181  -15.9111 C   0  0  0  0  0  0  0  0  0  0  0  0
   24.9841  -22.7995  -15.6709 O   0  0  0  0  0  0  0  0  0  0  0  0
   26.4491  -21.1696  -14.8892 N   0  0  0  0  0  0  0  0  0  0  0  0
   25.8461  -21.1122  -13.5761 C   0  0  1  0  0  0  0  0  0  0  0  0
   26.7747  -20.6778  -12.4987 C   0  0  0  0  0  0  0  0  0  0  0  0
   26.2095  -20.5468  -11.1602 C   0  0  0  0  0  0  0  0  0  0  0  0
   25.9110  -21.6623  -10.3857 C   0  0  0  0  0  0  0  0  0  0  0  0
   25.3660  -21.5140   -9.1192 C   0  0  0  0  0  0  0  0  0  0  0  0
   25.0980  -20.2683   -8.5756 C   0  0  0  0  0  0  0  0  0  0  0  0
   25.3944  -19.1711   -9.3443 C   0  0  0  0  0  0  0  0  0  0  0  0
   25.9355  -19.3193  -10.6016 C   0  0  0  0  0  0  0  0  0  0  0  0
   24.5483  -20.3777  -13.6203 C   0  0  0  0  0  0  0  0  0  0  0  0
   24.4514  -19.2198  -14.0896 O   0  0  0  0  0  0  0  0  0  0  0  0
   23.3881  -21.0075  -13.1143 N   0  0  0  0  0  0  0  0  0  0  0  0
   22.0740  -20.3578  -13.0677 C   0  0  1  0  0  0  0  0  0  0  0  0
   21.2948  -20.6894  -14.3058 C   0  0  0  0  0  0  0  0  0  0  0  0
   19.9451  -20.1298  -14.3120 C   0  0  0  0  0  0  0  0  0  0  0  0
   19.5882  -19.3182  -13.3990 O   0  0  0  0  0  0  0  0  0  0  0  0
   21.4040  -20.7698  -11.8317 C   0  0  0  0  0  0  0  0  0  0  0  0
   20.2495  -20.2163  -11.2990 O   0  0  0  0  0  0  0  0  0  0  0  0
   18.9935  -20.4291  -15.2689 O   0  0  0  0  0  0  0  0  0  0  0  0
   21.8947  -21.7238  -11.1493 O   0  0  0  0  0  0  0  0  0  0  0  0
  2  3  1  0
  2  1  1  6
  4  5  1  0
  4  3  1  0
  6  7  1  0
  6  5  1  0
  8  2  1  0
  9  8  2  0
 10  8  1  0
 11 10  1  0
 12 13  1  0
 11 12  1  1
 13 14  2  0
 14 15  1  0
 16 15  2  0
 17 16  1  0
 18 17  2  0
 18 13  1  0
 19 21  1  0
 19 11  1  0
 20 19  2  0
 22 23  1  6
 22 21  1  0
 23 24  1  0
 24 28  1  0
 24 25  2  0
 26 22  1  0
 26 27  1  0
 29 26  2  0
M  END
$$$$
