KFD.pdb
     RDKit          3D

 29 29  0  0  1  0  0  0  0  0999 V2000
   33.6840  -23.7700  -15.9046 N   0  0  0  0  0  0  0  0  0  0  0  0
   32.5458  -24.6081  -16.1408 C   0  0  1  0  0  0  0  0  0  0  0  0
   32.6680  -25.9715  -15.4947 C   0  0  0  0  0  0  0  0  0  0  0  0
   33.9281  -26.6863  -15.9311 C   0  0  0  0  0  0  0  0  0  0  0  0
   33.8298  -26.8945  -17.4334 C   0  0  0  0  0  0  0  0  0  0  0  0
   33.3249  -28.2684  -17.7712 C   0  0  0  0  0  0  0  0  0  0  0  0
   33.2818  -28.4495  -19.1932 N   0  0  0  0  0  0  0  0  0  0  0  0
   31.3246  -23.9793  -15.5732 C   0  0  0  0  0  0  0  0  0  0  0  0
   30.2791  -24.6650  -15.4700 O   0  0  0  0  0  0  0  0  0  0  0  0
   31.3404  -22.6187  -15.1532 N   0  0  0  0  0  0  0  0  0  0  0  0
   30.1452  -21.9566  -14.6794 C   0  0  1  0  0  0  0  0  0  0  0  0
   30.3871  -20.9666  -13.5964 C   0  0  0  0  0  0  0  0  0  0  0  0
   30.8388  -21.4957  -12.3141 C   0  0  0  0  0  0  0  0  0  0  0  0
   32.1552  -21.8979  -12.1178 C   0  0  0  0  0  0  0  0  0  0  0  0
   32.5602  -22.4061  -10.8928 C   0  0  0  0  0  0  0  0  0  0  0  0
   31.6868  -22.5346   -9.8253 C   0  0  0  0  0  0  0  0  0  0  0  0
   30.3890  -22.1362  -10.0246 C   0  0  0  0  0  0  0  0  0  0  0  0
   29.9878  -21.6317  -11.2412 C   0  0  0  0  0  0  0  0  0  0  0  0
   29.3310  -21.4504  -15.8225 C   0  0  0  0  0  0  0  0  0  0  0  0
   29.8526  -20.9254  -16.8338 O   0  0  0  0  0  0  0  0  0  0  0  0
   27.9232  -21.5645  -15.7632 N   0  0  0  0  0  0  0  0  0  0  0  0
   27.0515  -21.3992  -16.9312 C   0  0  1  0  0  0  0  0  0  0  0  0
   27.4412  -22.3737  -18.0027 C   0  0  0  0  0  0  0  0  0  0  0  0
   26.5499  -22.3538  -19.1603 C   0  0  0  0  0  0  0  0  0  0  0  0
   25.5571  -21.5580  -19.1858 O   0  0  0  0  0  0  0  0  0  0  0  0
   25.6624  -21.5462  -16.4892 C   0  0  0  0  0  0  0  0  0  0  0  0
   24.5799  -20.7925  -16.9172 O   0  0  0  0  0  0  0  0  0  0  0  0
   26.7101  -23.1656  -20.2676 O   0  0  0  0  0  0  0  0  0  0  0  0
   25.3766  -22.4391  -15.6304 O   0  0  0  0  0  0  0  0  0  0  0  0
  2  3  1  0
  2  1  1  1
  4  5  1  0
  4  3  1  0
  6  7  1  0
  6  5  1  0
  8  2  1  0
  9  8  2  0
 10  8  1  0
 11 10  1  0
 12 13  1  0
 11 12  1  1
 13 14  2  0
 14 15  1  0
 16 15  2  0
 17 16  1  0
 18 17  2  0
 18 13  1  0
 19 21  1  0
 19 11  1  0
 20 19  2  0
 22 23  1  6
 22 21  1  0
 23 24  1  0
 24 28  1  0
 24 25  2  0
 26 22  1  0
 26 27  1  0
 29 26  2  0
M  END
$$$$
