KFD.pdb
     RDKit          3D

 29 29  0  0  1  0  0  0  0  0999 V2000
   22.7264  -12.0635  -17.3385 N   0  0  0  0  0  0  0  0  0  0  0  0
   21.8879  -10.9956  -17.7968 C   0  0  1  0  0  0  0  0  0  0  0  0
   20.4333  -11.3951  -17.9229 C   0  0  0  0  0  0  0  0  0  0  0  0
   20.2560  -12.5750  -18.8533 C   0  0  0  0  0  0  0  0  0  0  0  0
   20.1676  -12.0238  -20.2668 C   0  0  0  0  0  0  0  0  0  0  0  0
   19.9563  -13.1162  -21.2760 C   0  0  0  0  0  0  0  0  0  0  0  0
   21.0341  -14.0609  -21.2232 N   0  0  0  0  0  0  0  0  0  0  0  0
   21.9336   -9.8640  -16.8344 C   0  0  0  0  0  0  0  0  0  0  0  0
   21.0100   -9.7422  -15.9942 O   0  0  0  0  0  0  0  0  0  0  0  0
   23.0092   -8.9313  -16.8656 N   0  0  0  0  0  0  0  0  0  0  0  0
   23.0065   -7.7417  -16.0435 C   0  0  1  0  0  0  0  0  0  0  0  0
   24.3165   -7.4381  -15.4084 C   0  0  0  0  0  0  0  0  0  0  0  0
   25.3122   -8.5044  -15.4186 C   0  0  0  0  0  0  0  0  0  0  0  0
   25.3325   -9.4883  -14.4365 C   0  0  0  0  0  0  0  0  0  0  0  0
   26.2938  -10.4874  -14.4615 C   0  0  0  0  0  0  0  0  0  0  0  0
   27.2626  -10.5507  -15.4495 C   0  0  0  0  0  0  0  0  0  0  0  0
   27.2380   -9.5771  -16.4161 C   0  0  0  0  0  0  0  0  0  0  0  0
   26.2831   -8.5856  -16.3906 C   0  0  0  0  0  0  0  0  0  0  0  0
   22.3801   -6.5978  -16.7681 C   0  0  0  0  0  0  0  0  0  0  0  0
   22.6355   -6.3471  -17.9690 O   0  0  0  0  0  0  0  0  0  0  0  0
   21.4687   -5.7668  -16.0772 N   0  0  0  0  0  0  0  0  0  0  0  0
   20.6969   -4.7022  -16.7270 C   0  0  1  0  0  0  0  0  0  0  0  0
   19.9729   -5.2504  -17.9207 C   0  0  0  0  0  0  0  0  0  0  0  0
   19.0381   -4.3015  -18.5214 C   0  0  0  0  0  0  0  0  0  0  0  0
   19.3741   -3.0828  -18.6677 O   0  0  0  0  0  0  0  0  0  0  0  0
   19.8044   -4.1095  -15.7277 C   0  0  0  0  0  0  0  0  0  0  0  0
   19.1344   -2.9005  -15.8385 O   0  0  0  0  0  0  0  0  0  0  0  0
   17.7707   -4.6417  -18.9557 O   0  0  0  0  0  0  0  0  0  0  0  0
   19.5957   -4.7301  -14.6377 O   0  0  0  0  0  0  0  0  0  0  0  0
  2  3  1  0
  2  1  1  1
  4  5  1  0
  4  3  1  0
  6  7  1  0
  6  5  1  0
  8  2  1  0
  9  8  2  0
 10  8  1  0
 11 10  1  0
 12 13  1  0
 11 12  1  6
 13 14  2  0
 14 15  1  0
 16 15  2  0
 17 16  1  0
 18 17  2  0
 18 13  1  0
 19 21  1  0
 19 11  1  0
 20 19  2  0
 22 23  1  6
 22 21  1  0
 23 24  1  0
 24 28  1  0
 24 25  2  0
 26 22  1  0
 26 27  1  0
 29 26  2  0
M  END
$$$$
