KFD.pdb
     RDKit          3D

 29 29  0  0  1  0  0  0  0  0999 V2000
   25.1462  -36.6829  -12.9143 N   0  0  0  0  0  0  0  0  0  0  0  0
   24.3611  -35.8613  -12.0413 C   0  0  1  0  0  0  0  0  0  0  0  0
   23.0042  -36.4548  -11.7283 C   0  0  0  0  0  0  0  0  0  0  0  0
   22.1310  -36.5350  -12.9613 C   0  0  0  0  0  0  0  0  0  0  0  0
   21.7898  -35.1099  -13.3643 C   0  0  0  0  0  0  0  0  0  0  0  0
   20.8731  -35.0741  -14.5538 C   0  0  0  0  0  0  0  0  0  0  0  0
   20.6203  -33.7190  -14.9495 N   0  0  0  0  0  0  0  0  0  0  0  0
   25.0582  -35.6908  -10.7398 C   0  0  0  0  0  0  0  0  0  0  0  0
   25.6505  -36.6739  -10.2335 O   0  0  0  0  0  0  0  0  0  0  0  0
   25.0535  -34.4305  -10.0768 N   0  0  0  0  0  0  0  0  0  0  0  0
   25.6711  -34.2519   -8.7815 C   0  0  1  0  0  0  0  0  0  0  0  0
   26.0532  -32.8470   -8.4783 C   0  0  0  0  0  0  0  0  0  0  0  0
   26.5716  -32.5834   -7.1404 C   0  0  0  0  0  0  0  0  0  0  0  0
   27.8787  -32.9046   -6.7918 C   0  0  0  0  0  0  0  0  0  0  0  0
   28.3473  -32.6528   -5.5112 C   0  0  0  0  0  0  0  0  0  0  0  0
   27.5484  -32.0791   -4.5357 C   0  0  0  0  0  0  0  0  0  0  0  0
   26.2594  -31.7643   -4.8851 C   0  0  0  0  0  0  0  0  0  0  0  0
   25.7951  -32.0145   -6.1568 C   0  0  0  0  0  0  0  0  0  0  0  0
   24.8757  -34.9299   -7.7169 C   0  0  0  0  0  0  0  0  0  0  0  0
   23.6338  -34.7924   -7.6206 O   0  0  0  0  0  0  0  0  0  0  0  0
   25.5446  -35.7544   -6.7834 N   0  0  0  0  0  0  0  0  0  0  0  0
   24.8658  -36.4268   -5.6706 C   0  0  1  0  0  0  0  0  0  0  0  0
   25.3700  -37.8331   -5.5380 C   0  0  0  0  0  0  0  0  0  0  0  0
   24.6791  -38.6050   -4.5076 C   0  0  0  0  0  0  0  0  0  0  0  0
   23.7883  -38.0510   -3.7871 O   0  0  0  0  0  0  0  0  0  0  0  0
   25.0627  -35.6225   -4.4620 C   0  0  0  0  0  0  0  0  0  0  0  0
   24.0759  -34.9667   -3.7415 O   0  0  0  0  0  0  0  0  0  0  0  0
   24.9322  -39.9388   -4.2474 O   0  0  0  0  0  0  0  0  0  0  0  0
   26.2368  -35.4855   -3.9934 O   0  0  0  0  0  0  0  0  0  0  0  0
  2  3  1  0
  2  1  1  6
  4  5  1  0
  4  3  1  0
  6  7  1  0
  6  5  1  0
  8  2  1  0
  9  8  2  0
 10  8  1  0
 11 10  1  0
 12 13  1  0
 11 12  1  1
 13 14  2  0
 14 15  1  0
 16 15  2  0
 17 16  1  0
 18 17  2  0
 18 13  1  0
 19 21  1  0
 19 11  1  0
 20 19  2  0
 22 23  1  1
 22 21  1  0
 23 24  1  0
 24 28  1  0
 24 25  2  0
 26 22  1  0
 26 27  1  0
 29 26  2  0
M  END
$$$$
