KFD.pdb
     RDKit          3D

 29 29  0  0  1  0  0  0  0  0999 V2000
   28.7134  -23.7853  -16.7322 N   0  0  0  0  0  0  0  0  0  0  0  0
   28.4376  -22.4033  -16.4721 C   0  0  1  0  0  0  0  0  0  0  0  0
   27.8248  -21.6870  -17.6564 C   0  0  0  0  0  0  0  0  0  0  0  0
   28.7563  -21.6794  -18.8486 C   0  0  0  0  0  0  0  0  0  0  0  0
   28.0051  -21.0353  -20.0022 C   0  0  0  0  0  0  0  0  0  0  0  0
   28.8010  -21.0783  -21.2754 C   0  0  0  0  0  0  0  0  0  0  0  0
   28.0224  -20.5736  -22.3690 N   0  0  0  0  0  0  0  0  0  0  0  0
   27.4657  -22.2801  -15.3545 C   0  0  0  0  0  0  0  0  0  0  0  0
   26.8720  -23.3079  -14.9483 O   0  0  0  0  0  0  0  0  0  0  0  0
   27.2114  -21.0143  -14.7537 N   0  0  0  0  0  0  0  0  0  0  0  0
   26.3435  -20.8799  -13.6048 C   0  0  1  0  0  0  0  0  0  0  0  0
   26.8030  -19.8749  -12.6096 C   0  0  0  0  0  0  0  0  0  0  0  0
   26.9482  -20.3352  -11.2329 C   0  0  0  0  0  0  0  0  0  0  0  0
   28.0822  -21.0210  -10.8124 C   0  0  0  0  0  0  0  0  0  0  0  0
   28.1946  -21.4570   -9.5008 C   0  0  0  0  0  0  0  0  0  0  0  0
   27.1991  -21.2332   -8.5639 C   0  0  0  0  0  0  0  0  0  0  0  0
   26.0823  -20.5560   -8.9844 C   0  0  0  0  0  0  0  0  0  0  0  0
   25.9715  -20.1235  -10.2867 C   0  0  0  0  0  0  0  0  0  0  0  0
   24.9203  -20.7379  -14.0293 C   0  0  0  0  0  0  0  0  0  0  0  0
   24.5921  -20.1277  -15.0735 O   0  0  0  0  0  0  0  0  0  0  0  0
   23.9066  -21.3090  -13.2263 N   0  0  0  0  0  0  0  0  0  0  0  0
   22.4795  -21.2344  -13.5563 C   0  0  1  0  0  0  0  0  0  0  0  0
   21.6990  -22.1534  -12.6642 C   0  0  0  0  0  0  0  0  0  0  0  0
   20.2631  -22.1466  -12.9340 C   0  0  0  0  0  0  0  0  0  0  0  0
   19.4789  -22.8568  -12.2266 O   0  0  0  0  0  0  0  0  0  0  0  0
   22.0601  -19.8341  -13.4576 C   0  0  0  0  0  0  0  0  0  0  0  0
   21.3164  -19.1311  -14.3934 O   0  0  0  0  0  0  0  0  0  0  0  0
   19.6732  -21.4009  -13.9375 O   0  0  0  0  0  0  0  0  0  0  0  0
   22.3884  -19.1599  -12.4308 O   0  0  0  0  0  0  0  0  0  0  0  0
  2  3  1  0
  2  1  1  6
  4  5  1  0
  4  3  1  0
  6  7  1  0
  6  5  1  0
  8  2  1  0
  9  8  2  0
 10  8  1  0
 11 10  1  0
 12 13  1  0
 11 12  1  6
 13 14  2  0
 14 15  1  0
 16 15  2  0
 17 16  1  0
 18 17  2  0
 18 13  1  0
 19 21  1  0
 19 11  1  0
 20 19  2  0
 22 23  1  1
 22 21  1  0
 23 24  1  0
 24 28  1  0
 24 25  2  0
 26 22  1  0
 26 27  1  0
 29 26  2  0
M  END
$$$$
