KFD.pdb
     RDKit          3D

 29 29  0  0  1  0  0  0  0  0999 V2000
   26.2330  -21.9703  -13.5665 N   0  0  0  0  0  0  0  0  0  0  0  0
   26.3556  -20.7737  -12.7876 C   0  0  1  0  0  0  0  0  0  0  0  0
   25.1722  -19.8423  -12.9397 C   0  0  0  0  0  0  0  0  0  0  0  0
   24.4861  -20.0234  -14.2760 C   0  0  0  0  0  0  0  0  0  0  0  0
   25.1419  -19.0610  -15.2524 C   0  0  0  0  0  0  0  0  0  0  0  0
   24.4731  -19.0934  -16.5971 C   0  0  0  0  0  0  0  0  0  0  0  0
   25.2319  -19.8940  -17.5137 N   0  0  0  0  0  0  0  0  0  0  0  0
   26.4431  -21.1135  -11.3434 C   0  0  0  0  0  0  0  0  0  0  0  0
   25.7821  -22.0859  -10.9059 O   0  0  0  0  0  0  0  0  0  0  0  0
   27.2645  -20.3466  -10.4687 N   0  0  0  0  0  0  0  0  0  0  0  0
   27.1660  -20.4708   -9.0313 C   0  0  1  0  0  0  0  0  0  0  0  0
   28.2431  -19.7678   -8.2847 C   0  0  0  0  0  0  0  0  0  0  0  0
   28.1772  -19.8276   -6.8286 C   0  0  0  0  0  0  0  0  0  0  0  0
   27.6827  -18.7655   -6.0799 C   0  0  0  0  0  0  0  0  0  0  0  0
   27.6377  -18.8411   -4.6960 C   0  0  0  0  0  0  0  0  0  0  0  0
   28.0759  -19.9597   -4.0064 C   0  0  0  0  0  0  0  0  0  0  0  0
   28.5629  -21.0048   -4.7502 C   0  0  0  0  0  0  0  0  0  0  0  0
   28.6072  -20.9288   -6.1241 C   0  0  0  0  0  0  0  0  0  0  0  0
   25.7806  -20.1696   -8.5669 C   0  0  0  0  0  0  0  0  0  0  0  0
   25.1497  -19.1596   -8.9572 O   0  0  0  0  0  0  0  0  0  0  0  0
   25.1580  -21.0515   -7.6542 N   0  0  0  0  0  0  0  0  0  0  0  0
   23.7579  -20.9227   -7.2367 C   0  0  1  0  0  0  0  0  0  0  0  0
   22.8494  -21.3158   -8.3636 C   0  0  0  0  0  0  0  0  0  0  0  0
   21.4342  -21.3098   -8.0002 C   0  0  0  0  0  0  0  0  0  0  0  0
   21.0296  -21.9921   -7.0050 O   0  0  0  0  0  0  0  0  0  0  0  0
   23.5655  -21.7272   -6.0276 C   0  0  0  0  0  0  0  0  0  0  0  0
   22.6225  -21.5065   -5.0351 O   0  0  0  0  0  0  0  0  0  0  0  0
   20.4685  -20.5943   -8.6830 O   0  0  0  0  0  0  0  0  0  0  0  0
   24.3144  -22.7353   -5.8285 O   0  0  0  0  0  0  0  0  0  0  0  0
  2  3  1  0
  2  1  1  6
  4  5  1  0
  4  3  1  0
  6  7  1  0
  6  5  1  0
  8  2  1  0
  9  8  2  0
 10  8  1  0
 11 10  1  0
 12 13  1  0
 11 12  1  1
 13 14  2  0
 14 15  1  0
 16 15  2  0
 17 16  1  0
 18 17  2  0
 18 13  1  0
 19 21  1  0
 19 11  1  0
 20 19  2  0
 22 23  1  6
 22 21  1  0
 23 24  1  0
 24 28  1  0
 24 25  2  0
 26 22  1  0
 26 27  1  0
 29 26  2  0
M  END
$$$$
