KFD.pdb
     RDKit          3D

 29 29  0  0  1  0  0  0  0  0999 V2000
   28.8240  -20.8612  -14.2448 N   0  0  0  0  0  0  0  0  0  0  0  0
   27.6405  -20.2997  -14.8258 C   0  0  1  0  0  0  0  0  0  0  0  0
   27.4988  -20.6090  -16.3007 C   0  0  0  0  0  0  0  0  0  0  0  0
   28.6826  -20.1016  -17.0947 C   0  0  0  0  0  0  0  0  0  0  0  0
   28.5042  -18.6013  -17.2591 C   0  0  0  0  0  0  0  0  0  0  0  0
   29.5935  -18.0021  -18.1023 C   0  0  0  0  0  0  0  0  0  0  0  0
   29.4524  -16.5762  -18.1620 N   0  0  0  0  0  0  0  0  0  0  0  0
   26.4337  -20.8555  -14.1596 C   0  0  0  0  0  0  0  0  0  0  0  0
   25.4229  -21.1201  -14.8540 O   0  0  0  0  0  0  0  0  0  0  0  0
   26.4244  -21.0839  -12.7541 N   0  0  0  0  0  0  0  0  0  0  0  0
   25.2431  -21.5620  -12.0705 C   0  0  1  0  0  0  0  0  0  0  0  0
   25.4991  -22.0704  -10.6967 C   0  0  0  0  0  0  0  0  0  0  0  0
   26.3836  -21.2705   -9.8564 C   0  0  0  0  0  0  0  0  0  0  0  0
   25.8825  -20.3284   -8.9651 C   0  0  0  0  0  0  0  0  0  0  0  0
   26.7427  -19.5731   -8.1825 C   0  0  0  0  0  0  0  0  0  0  0  0
   28.1185  -19.7195   -8.2510 C   0  0  0  0  0  0  0  0  0  0  0  0
   28.6075  -20.6506   -9.1323 C   0  0  0  0  0  0  0  0  0  0  0  0
   27.7527  -21.4001   -9.9088 C   0  0  0  0  0  0  0  0  0  0  0  0
   24.1321  -20.5719  -12.1766 C   0  0  0  0  0  0  0  0  0  0  0  0
   24.1527  -19.4765  -11.5682 O   0  0  0  0  0  0  0  0  0  0  0  0
   23.0169  -20.8793  -12.9893 N   0  0  0  0  0  0  0  0  0  0  0  0
   21.8603  -19.9901  -13.1403 C   0  0  1  0  0  0  0  0  0  0  0  0
   21.6049  -19.7249  -14.5943 C   0  0  0  0  0  0  0  0  0  0  0  0
   20.3888  -18.9534  -14.8408 C   0  0  0  0  0  0  0  0  0  0  0  0
   19.6920  -18.5333  -13.8622 O   0  0  0  0  0  0  0  0  0  0  0  0
   20.7206  -20.6016  -12.4521 C   0  0  0  0  0  0  0  0  0  0  0  0
   20.4625  -21.9592  -12.3368 O   0  0  0  0  0  0  0  0  0  0  0  0
   19.9220  -18.6370  -16.1029 O   0  0  0  0  0  0  0  0  0  0  0  0
   19.8598  -19.8518  -11.8923 O   0  0  0  0  0  0  0  0  0  0  0  0
  2  3  1  0
  2  1  1  1
  4  5  1  0
  4  3  1  0
  6  7  1  0
  6  5  1  0
  8  2  1  0
  9  8  2  0
 10  8  1  0
 11 10  1  0
 12 13  1  0
 11 12  1  1
 13 14  2  0
 14 15  1  0
 16 15  2  0
 17 16  1  0
 18 17  2  0
 18 13  1  0
 19 21  1  0
 19 11  1  0
 20 19  2  0
 22 23  1  6
 22 21  1  0
 23 24  1  0
 24 28  1  0
 24 25  2  0
 26 22  1  0
 26 27  1  0
 29 26  2  0
M  END
$$$$
