KFD.pdb
     RDKit          3D

 29 29  0  0  1  0  0  0  0  0999 V2000
   12.5004  -14.0572    4.0177 N   0  0  0  0  0  0  0  0  0  0  0  0
   13.0154  -14.0745    5.3548 C   0  0  1  0  0  0  0  0  0  0  0  0
   12.5623  -15.2801    6.1501 C   0  0  0  0  0  0  0  0  0  0  0  0
   11.3909  -15.9760    5.4923 C   0  0  0  0  0  0  0  0  0  0  0  0
   10.9822  -17.1242    6.4002 C   0  0  0  0  0  0  0  0  0  0  0  0
    9.9078  -17.9690    5.7769 C   0  0  0  0  0  0  0  0  0  0  0  0
    9.5905  -19.0807    6.6256 N   0  0  0  0  0  0  0  0  0  0  0  0
   14.5007  -14.1201    5.3274 C   0  0  0  0  0  0  0  0  0  0  0  0
   15.0698  -14.9989    4.6362 O   0  0  0  0  0  0  0  0  0  0  0  0
   15.2668  -13.1809    6.0749 N   0  0  0  0  0  0  0  0  0  0  0  0
   16.7099  -13.2539    6.1338 C   0  0  1  0  0  0  0  0  0  0  0  0
   17.3820  -11.9316    6.2406 C   0  0  0  0  0  0  0  0  0  0  0  0
   18.8370  -11.9430    6.3461 C   0  0  0  0  0  0  0  0  0  0  0  0
   19.4751  -12.0204    7.5790 C   0  0  0  0  0  0  0  0  0  0  0  0
   20.8596  -12.0209    7.6557 C   0  0  0  0  0  0  0  0  0  0  0  0
   21.6584  -11.9455    6.5264 C   0  0  0  0  0  0  0  0  0  0  0  0
   21.0234  -11.8692    5.3124 C   0  0  0  0  0  0  0  0  0  0  0  0
   19.6487  -11.8689    5.2373 C   0  0  0  0  0  0  0  0  0  0  0  0
   17.1489  -14.2644    7.1397 C   0  0  0  0  0  0  0  0  0  0  0  0
   16.6064  -14.3671    8.2647 O   0  0  0  0  0  0  0  0  0  0  0  0
   18.2142  -15.1351    6.8148 N   0  0  0  0  0  0  0  0  0  0  0  0
   18.7084  -16.1770    7.7212 C   0  0  1  0  0  0  0  0  0  0  0  0
   18.7860  -17.4892    6.9989 C   0  0  0  0  0  0  0  0  0  0  0  0
   19.1202  -18.6143    7.8692 C   0  0  0  0  0  0  0  0  0  0  0  0
   19.1178  -18.4643    9.1330 O   0  0  0  0  0  0  0  0  0  0  0  0
   19.9952  -15.7364    8.2657 C   0  0  0  0  0  0  0  0  0  0  0  0
   20.3632  -15.7309    9.6027 O   0  0  0  0  0  0  0  0  0  0  0  0
   19.4523  -19.8731    7.4045 O   0  0  0  0  0  0  0  0  0  0  0  0
   20.8910  -15.3096    7.4706 O   0  0  0  0  0  0  0  0  0  0  0  0
  2  3  1  0
  2  1  1  6
  4  5  1  0
  4  3  1  0
  6  7  1  0
  6  5  1  0
  8  2  1  0
  9  8  2  0
 10  8  1  0
 11 10  1  0
 12 13  1  0
 11 12  1  1
 13 14  2  0
 14 15  1  0
 16 15  2  0
 17 16  1  0
 18 17  2  0
 18 13  1  0
 19 21  1  0
 19 11  1  0
 20 19  2  0
 22 23  1  6
 22 21  1  0
 23 24  1  0
 24 28  1  0
 24 25  2  0
 26 22  1  0
 26 27  1  0
 29 26  2  0
M  END
$$$$
