KFD.pdb
     RDKit          3D

 29 29  0  0  1  0  0  0  0  0999 V2000
   24.0816  -10.3791  -20.2876 N   0  0  0  0  0  0  0  0  0  0  0  0
   23.1448  -10.9520  -19.3670 C   0  0  1  0  0  0  0  0  0  0  0  0
   23.5645  -12.3169  -18.8650 C   0  0  0  0  0  0  0  0  0  0  0  0
   23.4317  -13.3733  -19.9400 C   0  0  0  0  0  0  0  0  0  0  0  0
   24.5721  -14.3589  -19.7454 C   0  0  0  0  0  0  0  0  0  0  0  0
   24.6403  -15.3568  -20.8660 C   0  0  0  0  0  0  0  0  0  0  0  0
   25.6676  -16.3248  -20.6117 N   0  0  0  0  0  0  0  0  0  0  0  0
   23.0130  -10.0830  -18.1684 C   0  0  0  0  0  0  0  0  0  0  0  0
   22.2444  -10.4366  -17.2421 O   0  0  0  0  0  0  0  0  0  0  0  0
   23.7477   -8.8669  -18.0728 N   0  0  0  0  0  0  0  0  0  0  0  0
   23.7703   -8.0875  -16.8549 C   0  0  1  0  0  0  0  0  0  0  0  0
   25.1307   -7.8785  -16.2917 C   0  0  0  0  0  0  0  0  0  0  0  0
   25.9341   -9.0737  -16.0590 C   0  0  0  0  0  0  0  0  0  0  0  0
   25.6065   -9.9862  -15.0625 C   0  0  0  0  0  0  0  0  0  0  0  0
   26.3898  -11.1112  -14.8535 C   0  0  0  0  0  0  0  0  0  0  0  0
   27.5166  -11.3740  -15.6152 C   0  0  0  0  0  0  0  0  0  0  0  0
   27.8353  -10.4702  -16.5971 C   0  0  0  0  0  0  0  0  0  0  0  0
   27.0569   -9.3536  -16.8039 C   0  0  0  0  0  0  0  0  0  0  0  0
   22.9552   -6.8468  -17.0043 C   0  0  0  0  0  0  0  0  0  0  0  0
   23.1311   -6.0412  -17.9479 O   0  0  0  0  0  0  0  0  0  0  0  0
   21.9514   -6.5685  -16.0486 N   0  0  0  0  0  0  0  0  0  0  0  0
   21.1484   -5.3412  -16.0576 C   0  0  1  0  0  0  0  0  0  0  0  0
   19.7940   -5.6112  -15.4724 C   0  0  0  0  0  0  0  0  0  0  0  0
   18.7259   -5.6484  -16.4687 C   0  0  0  0  0  0  0  0  0  0  0  0
   18.9850   -5.3991  -17.6895 O   0  0  0  0  0  0  0  0  0  0  0  0
   21.8937   -4.3021  -15.3425 C   0  0  0  0  0  0  0  0  0  0  0  0
   22.7767   -4.5000  -14.2917 O   0  0  0  0  0  0  0  0  0  0  0  0
   17.4082   -5.9426  -16.1720 O   0  0  0  0  0  0  0  0  0  0  0  0
   21.7465   -3.0867  -15.6856 O   0  0  0  0  0  0  0  0  0  0  0  0
  2  3  1  0
  2  1  1  6
  4  5  1  0
  4  3  1  0
  6  7  1  0
  6  5  1  0
  8  2  1  0
  9  8  2  0
 10  8  1  0
 11 10  1  0
 12 13  1  0
 11 12  1  6
 13 14  2  0
 14 15  1  0
 16 15  2  0
 17 16  1  0
 18 17  2  0
 18 13  1  0
 19 21  1  0
 19 11  1  0
 20 19  2  0
 22 23  1  1
 22 21  1  0
 23 24  1  0
 24 28  1  0
 24 25  2  0
 26 22  1  0
 26 27  1  0
 29 26  2  0
M  END
$$$$
