KFD.pdb
     RDKit          3D

 29 29  0  0  1  0  0  0  0  0999 V2000
   28.0526  -20.5031  -17.4003 N   0  0  0  0  0  0  0  0  0  0  0  0
   27.4425  -21.7933  -17.2715 C   0  0  1  0  0  0  0  0  0  0  0  0
   28.4239  -22.9336  -17.4384 C   0  0  0  0  0  0  0  0  0  0  0  0
   28.9571  -23.0101  -18.8523 C   0  0  0  0  0  0  0  0  0  0  0  0
   30.2191  -22.1648  -18.9034 C   0  0  0  0  0  0  0  0  0  0  0  0
   30.7836  -22.0942  -20.2937 C   0  0  0  0  0  0  0  0  0  0  0  0
   31.9857  -21.3122  -20.3060 N   0  0  0  0  0  0  0  0  0  0  0  0
   26.8480  -21.9421  -15.9175 C   0  0  0  0  0  0  0  0  0  0  0  0
   26.2884  -23.0232  -15.6142 O   0  0  0  0  0  0  0  0  0  0  0  0
   26.9119  -20.8735  -14.9784 N   0  0  0  0  0  0  0  0  0  0  0  0
   26.2874  -20.9678  -13.6775 C   0  0  1  0  0  0  0  0  0  0  0  0
   27.1046  -20.4078  -12.5684 C   0  0  0  0  0  0  0  0  0  0  0  0
   26.4934  -20.3999  -11.2437 C   0  0  0  0  0  0  0  0  0  0  0  0
   26.7576  -21.4013  -10.3161 C   0  0  0  0  0  0  0  0  0  0  0  0
   26.1583  -21.3780   -9.0659 C   0  0  0  0  0  0  0  0  0  0  0  0
   25.2831  -20.3726   -8.6889 C   0  0  0  0  0  0  0  0  0  0  0  0
   25.0259  -19.3870   -9.6082 C   0  0  0  0  0  0  0  0  0  0  0  0
   25.6214  -19.4110  -10.8493 C   0  0  0  0  0  0  0  0  0  0  0  0
   24.8790  -20.4782  -13.7288 C   0  0  0  0  0  0  0  0  0  0  0  0
   24.5720  -19.3792  -14.2468 O   0  0  0  0  0  0  0  0  0  0  0  0
   23.8554  -21.2793  -13.1729 N   0  0  0  0  0  0  0  0  0  0  0  0
   22.4307  -20.9425  -13.2617 C   0  0  1  0  0  0  0  0  0  0  0  0
   21.7175  -21.9537  -14.1093 C   0  0  0  0  0  0  0  0  0  0  0  0
   20.3016  -21.6524  -14.3082 C   0  0  0  0  0  0  0  0  0  0  0  0
   19.8061  -20.5803  -13.8341 O   0  0  0  0  0  0  0  0  0  0  0  0
   21.8981  -20.8460  -11.9003 C   0  0  0  0  0  0  0  0  0  0  0  0
   20.9378  -19.9501  -11.4552 O   0  0  0  0  0  0  0  0  0  0  0  0
   19.4299  -22.4761  -14.9956 O   0  0  0  0  0  0  0  0  0  0  0  0
   22.3305  -21.6419  -11.0080 O   0  0  0  0  0  0  0  0  0  0  0  0
  2  3  1  0
  2  1  1  1
  4  5  1  0
  4  3  1  0
  6  7  1  0
  6  5  1  0
  8  2  1  0
  9  8  2  0
 10  8  1  0
 11 10  1  0
 12 13  1  0
 11 12  1  1
 13 14  2  0
 14 15  1  0
 16 15  2  0
 17 16  1  0
 18 17  2  0
 18 13  1  0
 19 21  1  0
 19 11  1  0
 20 19  2  0
 22 23  1  6
 22 21  1  0
 23 24  1  0
 24 28  1  0
 24 25  2  0
 26 22  1  0
 26 27  1  0
 29 26  2  0
M  END
$$$$
