MIF.pdb
     RDKit          3D

 28 28  0  0  1  0  0  0  0  0999 V2000
    8.3791  -18.5852   28.3408 C   0  0  0  0  0  0  0  0  0  0  0  0
    6.8254  -19.5154   28.2464 S   0  0  0  0  0  0  0  0  0  0  0  0
    6.3362  -19.5979   26.5208 C   0  0  0  0  0  0  0  0  0  0  0  0
    7.1814  -18.6951   25.6318 C   0  0  0  0  0  0  0  0  0  0  0  0
    6.5251  -18.6914   24.2756 C   0  0  2  0  0  0  0  0  0  0  0  0
    6.2455  -20.0310   23.8070 N   0  0  0  0  0  0  0  0  0  0  0  0
    7.3049  -17.9807   23.2508 C   0  0  0  0  0  0  0  0  0  0  0  0
    8.0307  -18.6528   22.4927 O   0  0  0  0  0  0  0  0  0  0  0  0
    5.7282  -13.8731   20.3037 C   0  0  0  0  0  0  0  0  0  0  0  0
    6.3055  -15.0968   21.0244 C   0  0  0  0  0  0  0  0  0  0  0  0
    7.6568  -14.7781   21.5977 C   0  0  2  0  0  0  0  0  0  0  0  0
    8.6038  -14.1807   20.6071 C   0  0  0  0  0  0  0  0  0  0  0  0
    8.3085  -15.9337   22.3007 C   0  0  2  0  0  0  0  0  0  0  0  0
    7.2707  -16.5732   23.0850 N   0  0  0  0  0  0  0  0  0  0  0  0
    9.4512  -15.5221   23.1600 C   0  0  0  0  0  0  0  0  0  0  0  0
   10.3011  -14.6745   22.7942 O   0  0  0  0  0  0  0  0  0  0  0  0
    9.5895  -16.1064   24.4406 N   0  0  0  0  0  0  0  0  0  0  0  0
   10.7009  -15.7925   25.3331 C   0  0  1  0  0  0  0  0  0  0  0  0
   10.5931  -14.3181   25.6322 C   0  0  0  0  0  0  0  0  0  0  0  0
    9.3734  -13.9358   26.3551 C   0  0  0  0  0  0  0  0  0  0  0  0
    9.3304  -13.7234   27.7242 C   0  0  0  0  0  0  0  0  0  0  0  0
    8.1866  -13.3573   28.3987 C   0  0  0  0  0  0  0  0  0  0  0  0
    7.0233  -13.1880   27.7122 C   0  0  0  0  0  0  0  0  0  0  0  0
    7.0345  -13.3926   26.3485 C   0  0  0  0  0  0  0  0  0  0  0  0
    8.1715  -13.7584   25.6649 C   0  0  0  0  0  0  0  0  0  0  0  0
   10.6162  -16.5481   26.5851 C   0  0  0  0  0  0  0  0  0  0  0  0
    9.5658  -17.4286   26.7990 O   0  0  0  0  0  0  0  0  0  0  0  0
   11.4644  -16.4419   27.5032 O   0  0  0  0  0  0  0  0  0  0  0  0
  1  2  1  0
  3  2  1  0
  4  3  1  0
  5  6  1  6
  5  4  1  0
  7  8  2  0
  7  5  1  0
 10 11  1  0
 10  9  1  0
 11 12  1  6
 13 14  1  1
 13 11  1  0
 14  7  1  0
 15 13  1  0
 16 15  2  0
 17 15  1  0
 18 17  1  0
 18 19  1  1
 20 19  1  0
 21 20  2  0
 22 21  1  0
 23 22  2  0
 23 24  1  0
 24 25  2  0
 25 20  1  0
 26 27  1  0
 26 18  1  0
 28 26  2  0
M  END
$$$$
