MIF.pdb
     RDKit          3D

 28 28  0  0  1  0  0  0  0  0999 V2000
    6.4215  -18.6418   28.1204 C   0  0  0  0  0  0  0  0  0  0  0  0
    7.4400  -19.9439   27.3753 S   0  0  0  0  0  0  0  0  0  0  0  0
    7.1182  -19.9528   25.6089 C   0  0  0  0  0  0  0  0  0  0  0  0
    6.4065  -18.6904   25.1401 C   0  0  0  0  0  0  0  0  0  0  0  0
    6.2413  -18.8194   23.6481 C   0  0  2  0  0  0  0  0  0  0  0  0
    6.3331  -20.1953   23.2111 N   0  0  0  0  0  0  0  0  0  0  0  0
    7.2013  -18.0105   22.8816 C   0  0  0  0  0  0  0  0  0  0  0  0
    8.1788  -18.5881   22.3677 O   0  0  0  0  0  0  0  0  0  0  0  0
    7.0772  -12.2536   21.2773 C   0  0  0  0  0  0  0  0  0  0  0  0
    7.7775  -13.3911   22.0297 C   0  0  0  0  0  0  0  0  0  0  0  0
    7.4977  -14.7089   21.3654 C   0  0  2  0  0  0  0  0  0  0  0  0
    6.0429  -14.9745   21.1467 C   0  0  0  0  0  0  0  0  0  0  0  0
    8.1385  -15.8832   22.0472 C   0  0  2  0  0  0  0  0  0  0  0  0
    7.0685  -16.6108   22.7005 N   0  0  0  0  0  0  0  0  0  0  0  0
    9.1892  -15.4868   23.0231 C   0  0  0  0  0  0  0  0  0  0  0  0
   10.2203  -14.8553   22.6872 O   0  0  0  0  0  0  0  0  0  0  0  0
    9.0242  -15.8330   24.3845 N   0  0  0  0  0  0  0  0  0  0  0  0
   10.0511  -15.5813   25.3907 C   0  0  1  0  0  0  0  0  0  0  0  0
    9.3154  -15.2857   26.6738 C   0  0  0  0  0  0  0  0  0  0  0  0
    8.4360  -14.1115   26.6093 C   0  0  0  0  0  0  0  0  0  0  0  0
    8.8992  -12.8056   26.6513 C   0  0  0  0  0  0  0  0  0  0  0  0
    8.0727  -11.7059   26.5828 C   0  0  0  0  0  0  0  0  0  0  0  0
    6.7273  -11.8789   26.4680 C   0  0  0  0  0  0  0  0  0  0  0  0
    6.2362  -13.1669   26.4241 C   0  0  0  0  0  0  0  0  0  0  0  0
    7.0530  -14.2724   26.4916 C   0  0  0  0  0  0  0  0  0  0  0  0
   10.9129  -16.7498   25.5847 C   0  0  0  0  0  0  0  0  0  0  0  0
   10.6968  -17.9060   24.8493 O   0  0  0  0  0  0  0  0  0  0  0  0
   11.8642  -16.7660   26.4024 O   0  0  0  0  0  0  0  0  0  0  0  0
  1  2  1  0
  3  2  1  0
  4  3  1  0
  5  6  1  6
  5  4  1  0
  7  8  2  0
  7  5  1  0
 10 11  1  0
 10  9  1  0
 11 12  1  1
 13 14  1  1
 13 11  1  0
 14  7  1  0
 15 13  1  0
 16 15  2  0
 17 15  1  0
 18 17  1  0
 18 19  1  1
 20 19  1  0
 21 20  2  0
 22 21  1  0
 23 22  2  0
 23 24  1  0
 24 25  2  0
 25 20  1  0
 26 27  1  0
 26 18  1  0
 28 26  2  0
M  END
$$$$
