MIF.pdb
     RDKit          3D

 28 28  0  0  1  0  0  0  0  0999 V2000
    7.3807  -22.1385   22.2140 C   0  0  0  0  0  0  0  0  0  0  0  0
    7.9129  -22.6141   20.5471 S   0  0  0  0  0  0  0  0  0  0  0  0
    8.0078  -21.1226   19.5520 C   0  0  0  0  0  0  0  0  0  0  0  0
    8.7200  -19.9856   20.2729 C   0  0  0  0  0  0  0  0  0  0  0  0
    8.6439  -18.7862   19.3641 C   0  0  2  0  0  0  0  0  0  0  0  0
    9.3143  -19.0198   18.1038 N   0  0  0  0  0  0  0  0  0  0  0  0
    9.1816  -17.5586   19.9701 C   0  0  0  0  0  0  0  0  0  0  0  0
   10.4023  -17.3336   19.8588 O   0  0  0  0  0  0  0  0  0  0  0  0
    7.1777  -12.6384   19.7083 C   0  0  0  0  0  0  0  0  0  0  0  0
    8.0411  -13.9018   19.8008 C   0  0  0  0  0  0  0  0  0  0  0  0
    8.1833  -14.3356   21.2318 C   0  0  2  0  0  0  0  0  0  0  0  0
    8.6503  -13.2484   22.1455 C   0  0  0  0  0  0  0  0  0  0  0  0
    9.0304  -15.5616   21.4155 C   0  0  2  0  0  0  0  0  0  0  0  0
    8.3807  -16.6229   20.6720 N   0  0  0  0  0  0  0  0  0  0  0  0
    9.2052  -15.9390   22.8440 C   0  0  0  0  0  0  0  0  0  0  0  0
    8.2439  -16.2769   23.5764 O   0  0  0  0  0  0  0  0  0  0  0  0
   10.5041  -15.9176   23.4034 N   0  0  0  0  0  0  0  0  0  0  0  0
   10.7407  -15.8212   24.8404 C   0  0  1  0  0  0  0  0  0  0  0  0
   10.0121  -14.5839   25.3019 C   0  0  0  0  0  0  0  0  0  0  0  0
   10.0405  -14.3726   26.7548 C   0  0  0  0  0  0  0  0  0  0  0  0
    8.9269  -14.0122   27.4974 C   0  0  0  0  0  0  0  0  0  0  0  0
    8.9546  -13.8222   28.8613 C   0  0  0  0  0  0  0  0  0  0  0  0
   10.1214  -13.9894   29.5424 C   0  0  0  0  0  0  0  0  0  0  0  0
   11.2470  -14.3477   28.8307 C   0  0  0  0  0  0  0  0  0  0  0  0
   11.2302  -14.5402   27.4682 C   0  0  0  0  0  0  0  0  0  0  0  0
   10.2136  -16.9877   25.5525 C   0  0  0  0  0  0  0  0  0  0  0  0
    8.8453  -17.2071   25.6156 O   0  0  0  0  0  0  0  0  0  0  0  0
   10.9504  -17.8255   26.1261 O   0  0  0  0  0  0  0  0  0  0  0  0
  1  2  1  0
  3  2  1  0
  4  3  1  0
  5  6  1  6
  5  4  1  0
  7  8  2  0
  7  5  1  0
 10 11  1  0
 10  9  1  0
 11 12  1  1
 13 14  1  6
 13 11  1  0
 14  7  1  0
 15 13  1  0
 16 15  2  0
 17 15  1  0
 18 17  1  0
 18 19  1  1
 20 19  1  0
 21 20  2  0
 22 21  1  0
 23 22  2  0
 23 24  1  0
 24 25  2  0
 25 20  1  0
 26 27  1  0
 26 18  1  0
 28 26  2  0
M  END
$$$$
