MIF.pdb
     RDKit          3D

 28 28  0  0  1  0  0  0  0  0999 V2000
    1.5544  -18.9325   22.4107 C   0  0  0  0  0  0  0  0  0  0  0  0
    2.9119  -20.0451   22.8661 S   0  0  0  0  0  0  0  0  0  0  0  0
    4.2428  -19.8033   21.6855 C   0  0  0  0  0  0  0  0  0  0  0  0
    5.2505  -18.7596   22.1493 C   0  0  0  0  0  0  0  0  0  0  0  0
    6.1967  -18.5348   20.9985 C   0  0  2  0  0  0  0  0  0  0  0  0
    6.8167  -19.7660   20.5604 N   0  0  0  0  0  0  0  0  0  0  0  0
    7.2482  -17.5487   21.2905 C   0  0  0  0  0  0  0  0  0  0  0  0
    8.4227  -17.9534   21.3902 O   0  0  0  0  0  0  0  0  0  0  0  0
    8.1637  -11.6317   20.2139 C   0  0  0  0  0  0  0  0  0  0  0  0
    8.7158  -12.9039   20.8673 C   0  0  0  0  0  0  0  0  0  0  0  0
    7.6397  -13.9460   20.9769 C   0  0  2  0  0  0  0  0  0  0  0  0
    6.4190  -13.4752   21.7003 C   0  0  0  0  0  0  0  0  0  0  0  0
    8.1101  -15.2493   21.5551 C   0  0  2  0  0  0  0  0  0  0  0  0
    6.9906  -16.1654   21.4633 N   0  0  0  0  0  0  0  0  0  0  0  0
    8.5852  -15.1247   22.9595 C   0  0  0  0  0  0  0  0  0  0  0  0
    9.0628  -14.0593   23.4195 O   0  0  0  0  0  0  0  0  0  0  0  0
    8.4974  -16.2484   23.8139 N   0  0  0  0  0  0  0  0  0  0  0  0
    8.7496  -16.1676   25.2492 C   0  0  1  0  0  0  0  0  0  0  0  0
    7.4262  -15.8267   25.8875 C   0  0  0  0  0  0  0  0  0  0  0  0
    7.2383  -14.3963   26.1615 C   0  0  0  0  0  0  0  0  0  0  0  0
    6.0192  -13.7477   26.0395 C   0  0  0  0  0  0  0  0  0  0  0  0
    5.8440  -12.4075   26.3046 C   0  0  0  0  0  0  0  0  0  0  0  0
    6.9042  -11.6553   26.7088 C   0  0  0  0  0  0  0  0  0  0  0  0
    8.1306  -12.2726   26.8391 C   0  0  0  0  0  0  0  0  0  0  0  0
    8.3165  -13.6107   26.5770 C   0  0  0  0  0  0  0  0  0  0  0  0
    9.2309  -17.4434   25.7841 C   0  0  0  0  0  0  0  0  0  0  0  0
    9.3433  -18.5499   24.9549 O   0  0  0  0  0  0  0  0  0  0  0  0
    9.5574  -17.5982   26.9854 O   0  0  0  0  0  0  0  0  0  0  0  0
  1  2  1  0
  3  2  1  0
  4  3  1  0
  5  6  1  1
  5  4  1  0
  7  8  2  0
  7  5  1  0
 10 11  1  0
 10  9  1  0
 11 12  1  1
 13 14  1  1
 13 11  1  0
 14  7  1  0
 15 13  1  0
 16 15  2  0
 17 15  1  0
 18 17  1  0
 18 19  1  1
 20 19  1  0
 21 20  2  0
 22 21  1  0
 23 22  2  0
 23 24  1  0
 24 25  2  0
 25 20  1  0
 26 27  1  0
 26 18  1  0
 28 26  2  0
M  END
$$$$
