MIF.pdb
     RDKit          3D

 28 28  0  0  1  0  0  0  0  0999 V2000
    4.3268  -20.7185   24.1323 C   0  0  0  0  0  0  0  0  0  0  0  0
    4.9298  -21.7782   22.7900 S   0  0  0  0  0  0  0  0  0  0  0  0
    5.4942  -20.7141   21.4585 C   0  0  0  0  0  0  0  0  0  0  0  0
    6.1119  -19.4191   21.9697 C   0  0  0  0  0  0  0  0  0  0  0  0
    6.3710  -18.5597   20.7596 C   0  0  2  0  0  0  0  0  0  0  0  0
    6.8061  -19.3428   19.6239 N   0  0  0  0  0  0  0  0  0  0  0  0
    7.3483  -17.4877   21.0024 C   0  0  0  0  0  0  0  0  0  0  0  0
    8.5575  -17.7487   20.8508 O   0  0  0  0  0  0  0  0  0  0  0  0
    7.3274  -12.4983   19.3297 C   0  0  0  0  0  0  0  0  0  0  0  0
    7.6174  -13.9172   19.8328 C   0  0  0  0  0  0  0  0  0  0  0  0
    7.7159  -13.9318   21.3315 C   0  0  2  0  0  0  0  0  0  0  0  0
    8.6746  -12.9245   21.8803 C   0  0  0  0  0  0  0  0  0  0  0  0
    8.0056  -15.2867   21.9100 C   0  0  2  0  0  0  0  0  0  0  0  0
    6.9820  -16.1769   21.3991 N   0  0  0  0  0  0  0  0  0  0  0  0
    8.0249  -15.2919   23.3976 C   0  0  0  0  0  0  0  0  0  0  0  0
    6.9830  -15.1774   24.0876 O   0  0  0  0  0  0  0  0  0  0  0  0
    9.2639  -15.4311   24.0654 N   0  0  0  0  0  0  0  0  0  0  0  0
    9.3652  -15.5780   25.5140 C   0  0  1  0  0  0  0  0  0  0  0  0
    7.9485  -15.6310   26.0288 C   0  0  0  0  0  0  0  0  0  0  0  0
    7.3940  -14.3251   26.4076 C   0  0  0  0  0  0  0  0  0  0  0  0
    8.1691  -13.2632   26.8471 C   0  0  0  0  0  0  0  0  0  0  0  0
    7.6472  -12.0368   27.1944 C   0  0  0  0  0  0  0  0  0  0  0  0
    6.3047  -11.8270   27.1124 C   0  0  0  0  0  0  0  0  0  0  0  0
    5.5071  -12.8650   26.6787 C   0  0  0  0  0  0  0  0  0  0  0  0
    6.0182  -14.0941   26.3292 C   0  0  0  0  0  0  0  0  0  0  0  0
   10.0610  -16.8131   25.8827 C   0  0  0  0  0  0  0  0  0  0  0  0
   10.4856  -17.6950   24.8996 O   0  0  0  0  0  0  0  0  0  0  0  0
   10.3026  -17.1293   27.0724 O   0  0  0  0  0  0  0  0  0  0  0  0
  1  2  1  0
  3  2  1  0
  4  3  1  0
  5  6  1  6
  5  4  1  0
  7  8  2  0
  7  5  1  0
 10 11  1  0
 10  9  1  0
 11 12  1  6
 13 14  1  1
 13 11  1  0
 14  7  1  0
 15 13  1  0
 16 15  2  0
 17 15  1  0
 18 17  1  0
 18 19  1  1
 20 19  1  0
 21 20  2  0
 22 21  1  0
 23 22  2  0
 23 24  1  0
 24 25  2  0
 25 20  1  0
 26 27  1  0
 26 18  1  0
 28 26  2  0
M  END
$$$$
