MIF.pdb
     RDKit          3D

 28 28  0  0  1  0  0  0  0  0999 V2000
    7.7618  -20.5246   21.0897 C   0  0  0  0  0  0  0  0  0  0  0  0
    6.7034  -19.9748   19.7238 S   0  0  0  0  0  0  0  0  0  0  0  0
    6.5856  -18.1850   19.8033 C   0  0  0  0  0  0  0  0  0  0  0  0
    7.0502  -17.6296   21.1434 C   0  0  0  0  0  0  0  0  0  0  0  0
    6.7897  -16.1460   21.1071 C   0  0  2  0  0  0  0  0  0  0  0  0
    6.9303  -15.6052   19.7729 N   0  0  0  0  0  0  0  0  0  0  0  0
    7.6459  -15.3796   22.0251 C   0  0  0  0  0  0  0  0  0  0  0  0
    8.7851  -15.0572   21.6359 O   0  0  0  0  0  0  0  0  0  0  0  0
    5.7024  -11.8243   25.6300 C   0  0  0  0  0  0  0  0  0  0  0  0
    6.4439  -12.6327   24.5592 C   0  0  0  0  0  0  0  0  0  0  0  0
    7.4360  -13.5623   25.1978 C   0  0  2  0  0  0  0  0  0  0  0  0
    8.3697  -12.8837   26.1479 C   0  0  0  0  0  0  0  0  0  0  0  0
    8.2130  -14.3918   24.2167 C   0  0  2  0  0  0  0  0  0  0  0  0
    7.2389  -14.9917   23.3265 N   0  0  0  0  0  0  0  0  0  0  0  0
    9.0519  -15.4321   24.8705 C   0  0  0  0  0  0  0  0  0  0  0  0
    8.5600  -16.4016   25.4974 O   0  0  0  0  0  0  0  0  0  0  0  0
   10.4599  -15.3289   24.7853 N   0  0  0  0  0  0  0  0  0  0  0  0
   11.3597  -16.2481   25.4749 C   0  0  1  0  0  0  0  0  0  0  0  0
   10.5967  -16.7620   26.6702 C   0  0  0  0  0  0  0  0  0  0  0  0
   10.6618  -15.8894   27.8494 C   0  0  0  0  0  0  0  0  0  0  0  0
   11.4564  -16.1540   28.9540 C   0  0  0  0  0  0  0  0  0  0  0  0
   11.5215  -15.3298   30.0556 C   0  0  0  0  0  0  0  0  0  0  0  0
   10.7784  -14.1896   30.0902 C   0  0  0  0  0  0  0  0  0  0  0  0
    9.9775  -13.8994   29.0058 C   0  0  0  0  0  0  0  0  0  0  0  0
    9.9052  -14.7158   27.9003 C   0  0  0  0  0  0  0  0  0  0  0  0
   11.7368  -17.3758   24.6196 C   0  0  0  0  0  0  0  0  0  0  0  0
   11.1535  -17.5298   23.3704 O   0  0  0  0  0  0  0  0  0  0  0  0
   12.5825  -18.2369   24.9617 O   0  0  0  0  0  0  0  0  0  0  0  0
  1  2  1  0
  3  2  1  0
  4  3  1  0
  5  6  1  6
  5  4  1  0
  7  8  2  0
  7  5  1  0
 10 11  1  0
 10  9  1  0
 11 12  1  6
 13 14  1  6
 13 11  1  0
 14  7  1  0
 15 13  1  0
 16 15  2  0
 17 15  1  0
 18 17  1  0
 18 19  1  1
 20 19  1  0
 21 20  2  0
 22 21  1  0
 23 22  2  0
 23 24  1  0
 24 25  2  0
 25 20  1  0
 26 27  1  0
 26 18  1  0
 28 26  2  0
M  END
$$$$
