MIF.pdb
     RDKit          3D

 28 28  0  0  1  0  0  0  0  0999 V2000
    8.5563  -19.9630   27.4185 C   0  0  0  0  0  0  0  0  0  0  0  0
    6.8273  -19.4432   27.5874 S   0  0  0  0  0  0  0  0  0  0  0  0
    6.1203  -19.3359   25.9404 C   0  0  0  0  0  0  0  0  0  0  0  0
    6.9964  -18.5409   24.9811 C   0  0  0  0  0  0  0  0  0  0  0  0
    6.3317  -18.6147   23.6310 C   0  0  2  0  0  0  0  0  0  0  0  0
    6.1468  -19.9810   23.1936 N   0  0  0  0  0  0  0  0  0  0  0  0
    7.0503  -17.8720   22.5843 C   0  0  0  0  0  0  0  0  0  0  0  0
    7.8489  -18.4986   21.8614 O   0  0  0  0  0  0  0  0  0  0  0  0
    7.5327  -12.4872   19.6943 C   0  0  0  0  0  0  0  0  0  0  0  0
    8.2481  -13.7246   20.2484 C   0  0  0  0  0  0  0  0  0  0  0  0
    7.3210  -14.5173   21.1249 C   0  0  2  0  0  0  0  0  0  0  0  0
    6.6513  -13.7014   22.1837 C   0  0  0  0  0  0  0  0  0  0  0  0
    7.9521  -15.7350   21.7356 C   0  0  2  0  0  0  0  0  0  0  0  0
    6.8785  -16.4828   22.3596 N   0  0  0  0  0  0  0  0  0  0  0  0
    9.0174  -15.4059   22.7206 C   0  0  0  0  0  0  0  0  0  0  0  0
   10.0750  -14.8117   22.3994 O   0  0  0  0  0  0  0  0  0  0  0  0
    8.8360  -15.7753   24.0738 N   0  0  0  0  0  0  0  0  0  0  0  0
    9.7465  -15.3536   25.1337 C   0  0  1  0  0  0  0  0  0  0  0  0
    8.9003  -15.1917   26.3717 C   0  0  0  0  0  0  0  0  0  0  0  0
    7.9735  -14.0536   26.3255 C   0  0  0  0  0  0  0  0  0  0  0  0
    8.3871  -12.7310   26.2897 C   0  0  0  0  0  0  0  0  0  0  0  0
    7.5157  -11.6656   26.2385 C   0  0  0  0  0  0  0  0  0  0  0  0
    6.1734  -11.8919   26.2213 C   0  0  0  0  0  0  0  0  0  0  0  0
    5.7311  -13.1976   26.2563 C   0  0  0  0  0  0  0  0  0  0  0  0
    6.5930  -14.2692   26.3074 C   0  0  0  0  0  0  0  0  0  0  0  0
   10.7835  -16.3574   25.3838 C   0  0  0  0  0  0  0  0  0  0  0  0
   10.7197  -17.5963   24.7630 O   0  0  0  0  0  0  0  0  0  0  0  0
   11.7558  -16.1554   26.1504 O   0  0  0  0  0  0  0  0  0  0  0  0
  1  2  1  0
  3  2  1  0
  4  3  1  0
  5  6  1  6
  5  4  1  0
  7  8  2  0
  7  5  1  0
 10 11  1  0
 10  9  1  0
 11 12  1  1
 13 14  1  1
 13 11  1  0
 14  7  1  0
 15 13  1  0
 16 15  2  0
 17 15  1  0
 18 17  1  0
 18 19  1  1
 20 19  1  0
 21 20  2  0
 22 21  1  0
 23 22  2  0
 23 24  1  0
 24 25  2  0
 25 20  1  0
 26 27  1  0
 26 18  1  0
 28 26  2  0
M  END
$$$$
