MIF.pdb
     RDKit          3D

 28 28  0  0  1  0  0  0  0  0999 V2000
    8.1083  -12.0408   20.0035 C   0  0  0  0  0  0  0  0  0  0  0  0
    7.3141  -12.2532   21.6197 S   0  0  0  0  0  0  0  0  0  0  0  0
    7.2202  -14.0135   21.9609 C   0  0  0  0  0  0  0  0  0  0  0  0
    7.8380  -14.8555   20.8522 C   0  0  0  0  0  0  0  0  0  0  0  0
    7.6711  -16.2956   21.2628 C   0  0  2  0  0  0  0  0  0  0  0  0
    6.2834  -16.6358   21.4885 N   0  0  0  0  0  0  0  0  0  0  0  0
    8.4510  -16.6572   22.4562 C   0  0  0  0  0  0  0  0  0  0  0  0
    7.8385  -17.0987   23.4477 O   0  0  0  0  0  0  0  0  0  0  0  0
   13.3810  -18.4251   21.2981 C   0  0  0  0  0  0  0  0  0  0  0  0
   11.9601  -18.3329   21.8662 C   0  0  0  0  0  0  0  0  0  0  0  0
   11.9450  -17.4829   23.1045 C   0  0  2  0  0  0  0  0  0  0  0  0
   12.7976  -18.0174   24.2103 C   0  0  0  0  0  0  0  0  0  0  0  0
   10.5674  -17.1784   23.6180 C   0  0  2  0  0  0  0  0  0  0  0  0
    9.8607  -16.5280   22.5323 N   0  0  0  0  0  0  0  0  0  0  0  0
   10.5763  -16.3256   24.8370 C   0  0  0  0  0  0  0  0  0  0  0  0
   11.1625  -15.2170   24.8821 O   0  0  0  0  0  0  0  0  0  0  0  0
    9.8990  -16.7776   25.9934 N   0  0  0  0  0  0  0  0  0  0  0  0
   10.0655  -16.1483   27.2997 C   0  0  1  0  0  0  0  0  0  0  0  0
    8.6741  -15.8544   27.8024 C   0  0  0  0  0  0  0  0  0  0  0  0
    8.0553  -14.6636   27.2064 C   0  0  0  0  0  0  0  0  0  0  0  0
    8.5379  -13.3772   27.3905 C   0  0  0  0  0  0  0  0  0  0  0  0
    7.9601  -12.2627   26.8240 C   0  0  0  0  0  0  0  0  0  0  0  0
    6.8570  -12.4001   26.0381 C   0  0  0  0  0  0  0  0  0  0  0  0
    6.3530  -13.6679   25.8365 C   0  0  0  0  0  0  0  0  0  0  0  0
    6.9227  -14.7879   26.3976 C   0  0  0  0  0  0  0  0  0  0  0  0
   10.7436  -17.0391   28.2442 C   0  0  0  0  0  0  0  0  0  0  0  0
   11.0233  -18.3505   27.8888 O   0  0  0  0  0  0  0  0  0  0  0  0
   11.0971  -16.6736   29.3911 O   0  0  0  0  0  0  0  0  0  0  0  0
  1  2  1  0
  3  2  1  0
  4  3  1  0
  5  6  1  1
  5  4  1  0
  7  8  2  0
  7  5  1  0
 10 11  1  0
 10  9  1  0
 11 12  1  1
 13 14  1  6
 13 11  1  0
 14  7  1  0
 15 13  1  0
 16 15  2  0
 17 15  1  0
 18 17  1  0
 18 19  1  1
 20 19  1  0
 21 20  2  0
 22 21  1  0
 23 22  2  0
 23 24  1  0
 24 25  2  0
 25 20  1  0
 26 27  1  0
 26 18  1  0
 28 26  2  0
M  END
$$$$
