MIF.pdb
     RDKit          3D

 28 28  0  0  1  0  0  0  0  0999 V2000
    8.7484  -11.4168   20.0707 C   0  0  0  0  0  0  0  0  0  0  0  0
    7.2824  -12.2386   19.3900 S   0  0  0  0  0  0  0  0  0  0  0  0
    7.5200  -14.0112   19.5494 C   0  0  0  0  0  0  0  0  0  0  0  0
    7.8401  -14.4298   20.9785 C   0  0  0  0  0  0  0  0  0  0  0  0
    8.1012  -15.9133   20.9433 C   0  0  2  0  0  0  0  0  0  0  0  0
    6.9091  -16.6641   20.6152 N   0  0  0  0  0  0  0  0  0  0  0  0
    8.6652  -16.4374   22.1965 C   0  0  0  0  0  0  0  0  0  0  0  0
    7.9087  -17.0598   22.9669 O   0  0  0  0  0  0  0  0  0  0  0  0
   13.1551  -18.2895   21.3364 C   0  0  0  0  0  0  0  0  0  0  0  0
   11.8550  -18.4257   22.1372 C   0  0  0  0  0  0  0  0  0  0  0  0
   11.8783  -17.5166   23.3327 C   0  0  2  0  0  0  0  0  0  0  0  0
   12.5595  -18.1088   24.5244 C   0  0  0  0  0  0  0  0  0  0  0  0
   10.5285  -16.9867   23.7218 C   0  0  2  0  0  0  0  0  0  0  0  0
   10.0228  -16.2690   22.5684 N   0  0  0  0  0  0  0  0  0  0  0  0
   10.5723  -16.1079   24.9215 C   0  0  0  0  0  0  0  0  0  0  0  0
   11.1875  -15.0143   24.9361 O   0  0  0  0  0  0  0  0  0  0  0  0
    9.8957  -16.5167   26.0943 N   0  0  0  0  0  0  0  0  0  0  0  0
   10.1012  -15.8713   27.3871 C   0  0  1  0  0  0  0  0  0  0  0  0
    8.7263  -15.6408   27.9626 C   0  0  0  0  0  0  0  0  0  0  0  0
    7.9483  -14.6042   27.2723 C   0  0  0  0  0  0  0  0  0  0  0  0
    6.8387  -14.8761   26.4871 C   0  0  0  0  0  0  0  0  0  0  0  0
    6.1061  -13.9011   25.8469 C   0  0  0  0  0  0  0  0  0  0  0  0
    6.4663  -12.5943   25.9730 C   0  0  0  0  0  0  0  0  0  0  0  0
    7.5665  -12.2923   26.7477 C   0  0  0  0  0  0  0  0  0  0  0  0
    8.3052  -13.2586   27.3916 C   0  0  0  0  0  0  0  0  0  0  0  0
   10.8710  -16.7223   28.2975 C   0  0  0  0  0  0  0  0  0  0  0  0
   11.1852  -18.0246   27.9373 O   0  0  0  0  0  0  0  0  0  0  0  0
   11.2748  -16.3297   29.4185 O   0  0  0  0  0  0  0  0  0  0  0  0
  1  2  1  0
  3  2  1  0
  4  3  1  0
  5  6  1  1
  5  4  1  0
  7  8  2  0
  7  5  1  0
 10 11  1  0
 10  9  1  0
 11 12  1  1
 13 14  1  6
 13 11  1  0
 14  7  1  0
 15 13  1  0
 16 15  2  0
 17 15  1  0
 18 17  1  0
 18 19  1  1
 20 19  1  0
 21 20  2  0
 22 21  1  0
 23 22  2  0
 23 24  1  0
 24 25  2  0
 25 20  1  0
 26 27  1  0
 26 18  1  0
 28 26  2  0
M  END
$$$$
