MIF.pdb
     RDKit          3D

 28 28  0  0  1  0  0  0  0  0999 V2000
    6.1606  -18.6393   27.1133 C   0  0  0  0  0  0  0  0  0  0  0  0
    6.4682  -20.2165   26.2731 S   0  0  0  0  0  0  0  0  0  0  0  0
    6.2773  -19.9475   24.5082 C   0  0  0  0  0  0  0  0  0  0  0  0
    5.7585  -18.5525   24.1843 C   0  0  0  0  0  0  0  0  0  0  0  0
    5.7842  -18.4224   22.6835 C   0  0  2  0  0  0  0  0  0  0  0  0
    5.8974  -19.7087   22.0314 N   0  0  0  0  0  0  0  0  0  0  0  0
    6.8548  -17.5423   22.1913 C   0  0  0  0  0  0  0  0  0  0  0  0
    7.8145  -18.0628   21.5904 O   0  0  0  0  0  0  0  0  0  0  0  0
    6.3930  -12.5928   19.8664 C   0  0  0  0  0  0  0  0  0  0  0  0
    6.8769  -14.0061   20.2110 C   0  0  0  0  0  0  0  0  0  0  0  0
    7.5301  -14.0210   21.5635 C   0  0  2  0  0  0  0  0  0  0  0  0
    8.6203  -13.0093   21.7152 C   0  0  0  0  0  0  0  0  0  0  0  0
    8.0214  -15.3748   21.9881 C   0  0  2  0  0  0  0  0  0  0  0  0
    6.8473  -16.1356   22.3673 N   0  0  0  0  0  0  0  0  0  0  0  0
    9.0026  -15.3135   23.1047 C   0  0  0  0  0  0  0  0  0  0  0  0
   10.1445  -14.8098   22.9744 O   0  0  0  0  0  0  0  0  0  0  0  0
    8.6389  -15.8425   24.3651 N   0  0  0  0  0  0  0  0  0  0  0  0
    9.5051  -15.7523   25.5363 C   0  0  1  0  0  0  0  0  0  0  0  0
    8.5905  -15.5465   26.7178 C   0  0  0  0  0  0  0  0  0  0  0  0
    7.8339  -14.2884   26.6842 C   0  0  0  0  0  0  0  0  0  0  0  0
    8.4173  -13.0404   26.8387 C   0  0  0  0  0  0  0  0  0  0  0  0
    7.7063  -11.8614   26.7991 C   0  0  0  0  0  0  0  0  0  0  0  0
    6.3600  -11.8916   26.5997 C   0  0  0  0  0  0  0  0  0  0  0  0
    5.7507  -13.1187   26.4429 C   0  0  0  0  0  0  0  0  0  0  0  0
    6.4516  -14.3025   26.4807 C   0  0  0  0  0  0  0  0  0  0  0  0
   10.2780  -16.9813   25.7304 C   0  0  0  0  0  0  0  0  0  0  0  0
   11.2280  -17.0563   26.7385 O   0  0  0  0  0  0  0  0  0  0  0  0
   10.1259  -18.0012   25.0160 O   0  0  0  0  0  0  0  0  0  0  0  0
  1  2  1  0
  3  2  1  0
  4  3  1  0
  5  6  1  6
  5  4  1  0
  7  8  2  0
  7  5  1  0
 10 11  1  0
 10  9  1  0
 11 12  1  6
 13 14  1  1
 13 11  1  0
 14  7  1  0
 15 13  1  0
 16 15  2  0
 17 15  1  0
 18 17  1  0
 18 19  1  1
 20 19  1  0
 21 20  2  0
 22 21  1  0
 23 22  2  0
 23 24  1  0
 24 25  2  0
 25 20  1  0
 26 27  1  0
 26 18  1  0
 28 26  2  0
M  END
$$$$
