MIF.pdb
     RDKit          3D

 28 28  0  0  1  0  0  0  0  0999 V2000
    7.7152  -19.1235   29.0792 C   0  0  0  0  0  0  0  0  0  0  0  0
    8.3326  -20.3139   27.8585 S   0  0  0  0  0  0  0  0  0  0  0  0
    7.5913  -19.9128   26.2732 C   0  0  0  0  0  0  0  0  0  0  0  0
    6.4621  -18.8983   26.3982 C   0  0  0  0  0  0  0  0  0  0  0  0
    6.0494  -18.5397   24.9942 C   0  0  2  0  0  0  0  0  0  0  0  0
    6.2118  -19.6511   24.0827 N   0  0  0  0  0  0  0  0  0  0  0  0
    6.7637  -17.3725   24.4551 C   0  0  0  0  0  0  0  0  0  0  0  0
    7.3154  -17.4826   23.3430 O   0  0  0  0  0  0  0  0  0  0  0  0
    5.5471  -12.4176   26.5389 C   0  0  0  0  0  0  0  0  0  0  0  0
    5.7570  -13.6305   25.6251 C   0  0  0  0  0  0  0  0  0  0  0  0
    7.2157  -13.8045   25.3121 C   0  0  2  0  0  0  0  0  0  0  0  0
    7.8460  -12.5970   24.6957 C   0  0  0  0  0  0  0  0  0  0  0  0
    7.5212  -15.0219   24.4881 C   0  0  2  0  0  0  0  0  0  0  0  0
    6.8543  -16.1331   25.1373 N   0  0  0  0  0  0  0  0  0  0  0  0
    8.9799  -15.2801   24.3506 C   0  0  0  0  0  0  0  0  0  0  0  0
    9.7245  -14.5806   23.6219 O   0  0  0  0  0  0  0  0  0  0  0  0
    9.5551  -16.3553   25.0673 N   0  0  0  0  0  0  0  0  0  0  0  0
   10.9952  -16.5865   25.1180 C   0  0  1  0  0  0  0  0  0  0  0  0
   11.3147  -16.9198   26.5539 C   0  0  0  0  0  0  0  0  0  0  0  0
   10.9062  -15.8906   27.5184 C   0  0  0  0  0  0  0  0  0  0  0  0
   11.3271  -14.5714   27.4537 C   0  0  0  0  0  0  0  0  0  0  0  0
   10.9362  -13.6063   28.3552 C   0  0  0  0  0  0  0  0  0  0  0  0
   10.0940  -13.9349   29.3730 C   0  0  0  0  0  0  0  0  0  0  0  0
    9.6582  -15.2402   29.4639 C   0  0  0  0  0  0  0  0  0  0  0  0
   10.0424  -16.2121   28.5686 C   0  0  0  0  0  0  0  0  0  0  0  0
   11.3914  -17.7065   24.2611 C   0  0  0  0  0  0  0  0  0  0  0  0
   12.7193  -18.1030   24.2003 O   0  0  0  0  0  0  0  0  0  0  0  0
   10.5742  -18.3476   23.5575 O   0  0  0  0  0  0  0  0  0  0  0  0
  1  2  1  0
  3  2  1  0
  4  3  1  0
  5  6  1  6
  5  4  1  0
  7  8  2  0
  7  5  1  0
 10 11  1  0
 10  9  1  0
 11 12  1  6
 13 14  1  1
 13 11  1  0
 14  7  1  0
 15 13  1  0
 16 15  2  0
 17 15  1  0
 18 17  1  0
 18 19  1  1
 20 19  1  0
 21 20  2  0
 22 21  1  0
 23 22  2  0
 23 24  1  0
 24 25  2  0
 25 20  1  0
 26 27  1  0
 26 18  1  0
 28 26  2  0
M  END
$$$$
