MIF.pdb
     RDKit          3D

 28 28  0  0  1  0  0  0  0  0999 V2000
    6.6088  -11.1282   26.4245 C   0  0  0  0  0  0  0  0  0  0  0  0
    5.0087  -11.8227   26.9200 S   0  0  0  0  0  0  0  0  0  0  0  0
    4.9379  -13.5180   26.3329 C   0  0  0  0  0  0  0  0  0  0  0  0
    6.2864  -14.0176   25.8312 C   0  0  0  0  0  0  0  0  0  0  0  0
    6.0005  -15.1797   24.9158 C   0  0  2  0  0  0  0  0  0  0  0  0
    5.4139  -16.2952   25.6256 N   0  0  0  0  0  0  0  0  0  0  0  0
    7.1850  -15.6509   24.1821 C   0  0  0  0  0  0  0  0  0  0  0  0
    7.6626  -16.7609   24.4870 O   0  0  0  0  0  0  0  0  0  0  0  0
    8.0044  -12.9328   19.8024 C   0  0  0  0  0  0  0  0  0  0  0  0
    7.7993  -14.2363   20.5827 C   0  0  0  0  0  0  0  0  0  0  0  0
    9.0975  -14.6991   21.1802 C   0  0  2  0  0  0  0  0  0  0  0  0
    9.9669  -15.4474   20.2215 C   0  0  0  0  0  0  0  0  0  0  0  0
    8.9383  -15.4833   22.4506 C   0  0  2  0  0  0  0  0  0  0  0  0
    7.8068  -14.9058   23.1488 N   0  0  0  0  0  0  0  0  0  0  0  0
   10.1582  -15.4648   23.3021 C   0  0  0  0  0  0  0  0  0  0  0  0
   10.9060  -14.4609   23.3901 O   0  0  0  0  0  0  0  0  0  0  0  0
   10.4927  -16.6218   24.0437 N   0  0  0  0  0  0  0  0  0  0  0  0
   11.8003  -16.8079   24.6649 C   0  0  1  0  0  0  0  0  0  0  0  0
   11.5416  -16.9752   26.1413 C   0  0  0  0  0  0  0  0  0  0  0  0
   11.1009  -15.7499   26.8202 C   0  0  0  0  0  0  0  0  0  0  0  0
   11.9172  -14.6463   27.0131 C   0  0  0  0  0  0  0  0  0  0  0  0
   11.4989  -13.4953   27.6434 C   0  0  0  0  0  0  0  0  0  0  0  0
   10.2237  -13.4076   28.1118 C   0  0  0  0  0  0  0  0  0  0  0  0
    9.3876  -14.4900   27.9350 C   0  0  0  0  0  0  0  0  0  0  0  0
    9.7953  -15.6445   27.3067 C   0  0  0  0  0  0  0  0  0  0  0  0
   12.4745  -18.0032   24.1528 C   0  0  0  0  0  0  0  0  0  0  0  0
   13.7608  -18.3118   24.5706 O   0  0  0  0  0  0  0  0  0  0  0  0
   11.9397  -18.7880   23.3331 O   0  0  0  0  0  0  0  0  0  0  0  0
  1  2  1  0
  3  2  1  0
  4  3  1  0
  5  6  1  1
  5  4  1  0
  7  8  2  0
  7  5  1  0
 10 11  1  0
 10  9  1  0
 11 12  1  6
 13 14  1  1
 13 11  1  0
 14  7  1  0
 15 13  1  0
 16 15  2  0
 17 15  1  0
 18 17  1  0
 18 19  1  1
 20 19  1  0
 21 20  2  0
 22 21  1  0
 23 22  2  0
 23 24  1  0
 24 25  2  0
 25 20  1  0
 26 27  1  0
 26 18  1  0
 28 26  2  0
M  END
$$$$
