MIF.pdb
     RDKit          3D

 28 28  0  0  1  0  0  0  0  0999 V2000
    7.3413  -18.5792   27.7262 C   0  0  0  0  0  0  0  0  0  0  0  0
    6.5346  -20.0168   26.9707 S   0  0  0  0  0  0  0  0  0  0  0  0
    5.8432  -19.4975   25.3972 C   0  0  0  0  0  0  0  0  0  0  0  0
    6.8285  -18.6839   24.5681 C   0  0  0  0  0  0  0  0  0  0  0  0
    6.1282  -18.3472   23.2772 C   0  0  2  0  0  0  0  0  0  0  0  0
    5.7883  -19.5330   22.5216 N   0  0  0  0  0  0  0  0  0  0  0  0
    6.8972  -17.4367   22.4153 C   0  0  0  0  0  0  0  0  0  0  0  0
    7.7045  -17.9339   21.6064 O   0  0  0  0  0  0  0  0  0  0  0  0
    6.2816  -13.0285   19.5377 C   0  0  0  0  0  0  0  0  0  0  0  0
    6.7939  -14.3122   20.2009 C   0  0  0  0  0  0  0  0  0  0  0  0
    7.4855  -13.9930   21.4956 C   0  0  2  0  0  0  0  0  0  0  0  0
    8.6145  -13.0239   21.3505 C   0  0  0  0  0  0  0  0  0  0  0  0
    7.9411  -15.2038   22.2577 C   0  0  2  0  0  0  0  0  0  0  0  0
    6.7646  -16.0260   22.4606 N   0  0  0  0  0  0  0  0  0  0  0  0
    8.5873  -14.8656   23.5543 C   0  0  0  0  0  0  0  0  0  0  0  0
    8.5926  -13.7019   24.0238 O   0  0  0  0  0  0  0  0  0  0  0  0
    9.2223  -15.8926   24.2909 N   0  0  0  0  0  0  0  0  0  0  0  0
    9.9669  -15.6352   25.5196 C   0  0  1  0  0  0  0  0  0  0  0  0
    8.9480  -15.6261   26.6316 C   0  0  0  0  0  0  0  0  0  0  0  0
    8.0550  -14.4604   26.6234 C   0  0  0  0  0  0  0  0  0  0  0  0
    8.4878  -13.1635   26.8519 C   0  0  0  0  0  0  0  0  0  0  0  0
    7.6492  -12.0709   26.8359 C   0  0  0  0  0  0  0  0  0  0  0  0
    6.3221  -12.2423   26.5859 C   0  0  0  0  0  0  0  0  0  0  0  0
    5.8613  -13.5214   26.3549 C   0  0  0  0  0  0  0  0  0  0  0  0
    6.6904  -14.6198   26.3685 C   0  0  0  0  0  0  0  0  0  0  0  0
   10.9573  -16.6828   25.7786 C   0  0  0  0  0  0  0  0  0  0  0  0
   11.0505  -17.7793   24.9340 O   0  0  0  0  0  0  0  0  0  0  0  0
   11.7504  -16.6448   26.7499 O   0  0  0  0  0  0  0  0  0  0  0  0
  1  2  1  0
  3  2  1  0
  4  3  1  0
  5  6  1  6
  5  4  1  0
  7  8  2  0
  7  5  1  0
 10 11  1  0
 10  9  1  0
 11 12  1  6
 13 14  1  1
 13 11  1  0
 14  7  1  0
 15 13  1  0
 16 15  2  0
 17 15  1  0
 18 17  1  0
 18 19  1  1
 20 19  1  0
 21 20  2  0
 22 21  1  0
 23 22  2  0
 23 24  1  0
 24 25  2  0
 25 20  1  0
 26 27  1  0
 26 18  1  0
 28 26  2  0
M  END
$$$$
