MIF.pdb
     RDKit          3D

 28 28  0  0  1  0  0  0  0  0999 V2000
    8.7265  -12.2352   19.7111 C   0  0  0  0  0  0  0  0  0  0  0  0
    7.9118  -13.1527   18.3760 S   0  0  0  0  0  0  0  0  0  0  0  0
    7.7323  -14.8580   18.9084 C   0  0  0  0  0  0  0  0  0  0  0  0
    7.0928  -14.9739   20.2859 C   0  0  0  0  0  0  0  0  0  0  0  0
    6.9364  -16.4464   20.5644 C   0  0  2  0  0  0  0  0  0  0  0  0
    5.8374  -17.0231   19.8215 N   0  0  0  0  0  0  0  0  0  0  0  0
    6.7620  -16.7561   21.9916 C   0  0  0  0  0  0  0  0  0  0  0  0
    5.7251  -16.3587   22.5572 O   0  0  0  0  0  0  0  0  0  0  0  0
    6.7599  -20.5353   26.3977 C   0  0  0  0  0  0  0  0  0  0  0  0
    7.1274  -19.0810   26.0810 C   0  0  0  0  0  0  0  0  0  0  0  0
    7.2418  -18.8808   24.5967 C   0  0  2  0  0  0  0  0  0  0  0  0
    8.1539  -19.8581   23.9274 C   0  0  0  0  0  0  0  0  0  0  0  0
    7.6058  -17.4800   24.1971 C   0  0  2  0  0  0  0  0  0  0  0  0
    7.7135  -17.4820   22.7515 N   0  0  0  0  0  0  0  0  0  0  0  0
    8.8672  -17.0048   24.8266 C   0  0  0  0  0  0  0  0  0  0  0  0
    9.9993  -17.2628   24.3506 O   0  0  0  0  0  0  0  0  0  0  0  0
    8.7931  -16.2313   26.0085 N   0  0  0  0  0  0  0  0  0  0  0  0
    9.9733  -15.6650   26.6539 C   0  0  1  0  0  0  0  0  0  0  0  0
    9.8803  -14.1722   26.4593 C   0  0  0  0  0  0  0  0  0  0  0  0
    8.5833  -13.5939   26.8331 C   0  0  0  0  0  0  0  0  0  0  0  0
    8.3852  -12.8337   27.9752 C   0  0  0  0  0  0  0  0  0  0  0  0
    7.1693  -12.2859   28.3194 C   0  0  0  0  0  0  0  0  0  0  0  0
    6.0881  -12.4843   27.5163 C   0  0  0  0  0  0  0  0  0  0  0  0
    6.2538  -13.2370   26.3727 C   0  0  0  0  0  0  0  0  0  0  0  0
    7.4641  -13.7887   26.0195 C   0  0  0  0  0  0  0  0  0  0  0  0
    9.9999  -15.9659   28.0872 C   0  0  0  0  0  0  0  0  0  0  0  0
    8.9955  -16.7340   28.6577 O   0  0  0  0  0  0  0  0  0  0  0  0
   10.9062  -15.5567   28.8521 O   0  0  0  0  0  0  0  0  0  0  0  0
  1  2  1  0
  3  2  1  0
  4  3  1  0
  5  6  1  6
  5  4  1  0
  7  8  2  0
  7  5  1  0
 10 11  1  0
 10  9  1  0
 11 12  1  1
 13 14  1  6
 13 11  1  0
 14  7  1  0
 15 13  1  0
 16 15  2  0
 17 15  1  0
 18 17  1  0
 18 19  1  1
 20 19  1  0
 21 20  2  0
 22 21  1  0
 23 22  2  0
 23 24  1  0
 24 25  2  0
 25 20  1  0
 26 27  1  0
 26 18  1  0
 28 26  2  0
M  END
$$$$
