MIF.pdb
     RDKit          3D

 28 28  0  0  1  0  0  0  0  0999 V2000
    7.0465  -20.3172   28.3687 C   0  0  0  0  0  0  0  0  0  0  0  0
    6.4164  -21.5388   27.1860 S   0  0  0  0  0  0  0  0  0  0  0  0
    5.9548  -20.6669   25.6858 C   0  0  0  0  0  0  0  0  0  0  0  0
    6.8404  -19.4567   25.4195 C   0  0  0  0  0  0  0  0  0  0  0  0
    6.2476  -18.7437   24.2319 C   0  0  2  0  0  0  0  0  0  0  0  0
    6.2323  -19.5800   23.0518 N   0  0  0  0  0  0  0  0  0  0  0  0
    6.9260  -17.4787   23.9112 C   0  0  0  0  0  0  0  0  0  0  0  0
    7.5176  -17.3892   22.8180 O   0  0  0  0  0  0  0  0  0  0  0  0
    5.2191  -12.8171   26.1844 C   0  0  0  0  0  0  0  0  0  0  0  0
    5.6705  -13.9281   25.2293 C   0  0  0  0  0  0  0  0  0  0  0  0
    7.1672  -14.0541   25.2422 C   0  0  2  0  0  0  0  0  0  0  0  0
    7.8798  -12.7852   24.8997 C   0  0  0  0  0  0  0  0  0  0  0  0
    7.6911  -15.1819   24.4009 C   0  0  2  0  0  0  0  0  0  0  0  0
    6.9390  -16.3607   24.7829 N   0  0  0  0  0  0  0  0  0  0  0  0
    9.1528  -15.4024   24.5688 C   0  0  0  0  0  0  0  0  0  0  0  0
   10.0111  -14.5795   24.1677 O   0  0  0  0  0  0  0  0  0  0  0  0
    9.5979  -16.5847   25.2048 N   0  0  0  0  0  0  0  0  0  0  0  0
   10.9751  -16.7672   25.6523 C   0  0  1  0  0  0  0  0  0  0  0  0
   10.9163  -16.8651   27.1563 C   0  0  0  0  0  0  0  0  0  0  0  0
   10.7490  -15.5762   27.8396 C   0  0  0  0  0  0  0  0  0  0  0  0
    9.5498  -15.1528   28.3913 C   0  0  0  0  0  0  0  0  0  0  0  0
    9.3975  -13.9466   29.0386 C   0  0  0  0  0  0  0  0  0  0  0  0
   10.4614  -13.1058   29.1581 C   0  0  0  0  0  0  0  0  0  0  0  0
   11.6681  -13.4993   28.6188 C   0  0  0  0  0  0  0  0  0  0  0  0
   11.8312  -14.7021   27.9703 C   0  0  0  0  0  0  0  0  0  0  0  0
   11.5594  -17.9958   25.1094 C   0  0  0  0  0  0  0  0  0  0  0  0
   10.8180  -18.8058   24.2618 O   0  0  0  0  0  0  0  0  0  0  0  0
   12.7273  -18.3693   25.3747 O   0  0  0  0  0  0  0  0  0  0  0  0
  1  2  1  0
  3  2  1  0
  4  3  1  0
  5  6  1  6
  5  4  1  0
  7  8  2  0
  7  5  1  0
 10 11  1  0
 10  9  1  0
 11 12  1  6
 13 14  1  1
 13 11  1  0
 14  7  1  0
 15 13  1  0
 16 15  2  0
 17 15  1  0
 18 17  1  0
 18 19  1  1
 20 19  1  0
 21 20  2  0
 22 21  1  0
 23 22  2  0
 23 24  1  0
 24 25  2  0
 25 20  1  0
 26 27  1  0
 26 18  1  0
 28 26  2  0
M  END
$$$$
