MIF.pdb
     RDKit          3D

 28 28  0  0  1  0  0  0  0  0999 V2000
    4.1036  -22.6674   24.8166 C   0  0  0  0  0  0  0  0  0  0  0  0
    5.3194  -21.3324   24.9826 S   0  0  0  0  0  0  0  0  0  0  0  0
    5.3472  -20.4167   23.4385 C   0  0  0  0  0  0  0  0  0  0  0  0
    6.4802  -19.4002   23.3843 C   0  0  0  0  0  0  0  0  0  0  0  0
    6.4177  -18.7595   22.0221 C   0  0  2  0  0  0  0  0  0  0  0  0
    6.5163  -19.7367   20.9602 N   0  0  0  0  0  0  0  0  0  0  0  0
    7.4427  -17.7251   21.8151 C   0  0  0  0  0  0  0  0  0  0  0  0
    8.5124  -18.0579   21.2691 O   0  0  0  0  0  0  0  0  0  0  0  0
    6.7527  -12.7046   20.0304 C   0  0  0  0  0  0  0  0  0  0  0  0
    7.3422  -14.0868   20.3338 C   0  0  0  0  0  0  0  0  0  0  0  0
    7.8694  -14.1345   21.7396 C   0  0  2  0  0  0  0  0  0  0  0  0
    8.8710  -13.0667   22.0420 C   0  0  0  0  0  0  0  0  0  0  0  0
    8.4097  -15.4761   22.1426 C   0  0  2  0  0  0  0  0  0  0  0  0
    7.2726  -16.3729   22.2055 N   0  0  0  0  0  0  0  0  0  0  0  0
    9.1379  -15.4441   23.4395 C   0  0  0  0  0  0  0  0  0  0  0  0
   10.3077  -15.0028   23.5472 O   0  0  0  0  0  0  0  0  0  0  0  0
    8.4907  -15.9290   24.5999 N   0  0  0  0  0  0  0  0  0  0  0  0
    9.1050  -15.8789   25.9229 C   0  0  1  0  0  0  0  0  0  0  0  0
    8.0017  -15.5084   26.8822 C   0  0  0  0  0  0  0  0  0  0  0  0
    7.5266  -14.1251   26.7516 C   0  0  0  0  0  0  0  0  0  0  0  0
    6.2228  -13.7921   26.4190 C   0  0  0  0  0  0  0  0  0  0  0  0
    5.7779  -12.4936   26.3047 C   0  0  0  0  0  0  0  0  0  0  0  0
    6.6401  -11.4631   26.5237 C   0  0  0  0  0  0  0  0  0  0  0  0
    7.9445  -11.7628   26.8561 C   0  0  0  0  0  0  0  0  0  0  0  0
    8.3993  -13.0565   26.9730 C   0  0  0  0  0  0  0  0  0  0  0  0
    9.6646  -17.1771   26.3064 C   0  0  0  0  0  0  0  0  0  0  0  0
   10.3621  -17.3118   27.4979 O   0  0  0  0  0  0  0  0  0  0  0  0
    9.5460  -18.2056   25.5980 O   0  0  0  0  0  0  0  0  0  0  0  0
  1  2  1  0
  3  2  1  0
  4  3  1  0
  5  6  1  6
  5  4  1  0
  7  8  2  0
  7  5  1  0
 10 11  1  0
 10  9  1  0
 11 12  1  6
 13 14  1  1
 13 11  1  0
 14  7  1  0
 15 13  1  0
 16 15  2  0
 17 15  1  0
 18 17  1  0
 18 19  1  1
 20 19  1  0
 21 20  2  0
 22 21  1  0
 23 22  2  0
 23 24  1  0
 24 25  2  0
 25 20  1  0
 26 27  1  0
 26 18  1  0
 28 26  2  0
M  END
$$$$
