PEW.pdb
     RDKit          3D

 31 33  0  0  1  0  0  0  0  0999 V2000
    8.8659  -13.5846   20.0340 N   0  0  0  0  0  0  0  0  0  0  0  0
    8.0762  -12.9359   19.0049 C   0  0  0  0  0  0  0  0  0  0  0  0
    6.7189  -13.5804   19.0094 C   0  0  0  0  0  0  0  0  0  0  0  0
    6.9289  -14.8044   19.8764 C   0  0  0  0  0  0  0  0  0  0  0  0
    7.9541  -14.3001   20.8667 C   0  0  1  0  0  0  0  0  0  0  0  0
    8.5336  -15.3599   21.6847 C   0  0  0  0  0  0  0  0  0  0  0  0
    7.7514  -16.1465   22.2937 O   0  0  0  0  0  0  0  0  0  0  0  0
    9.9213  -15.5998   21.8682 N   0  0  0  0  0  0  0  0  0  0  0  0
   10.4215  -16.7508   22.6028 C   0  0  1  0  0  0  0  0  0  0  0  0
   11.6809  -17.3041   21.9785 C   0  0  0  0  0  0  0  0  0  0  0  0
   11.4365  -17.8627   20.5985 C   0  0  0  0  0  0  0  0  0  0  0  0
   12.7360  -18.3644   20.0803 C   0  0  0  0  0  0  0  0  0  0  0  0
   13.2440  -19.4556   20.4368 O   0  0  0  0  0  0  0  0  0  0  0  0
   10.6373  -16.3938   24.0467 C   0  0  0  0  0  0  0  0  0  0  0  0
   11.6528  -15.7385   24.4225 O   0  0  0  0  0  0  0  0  0  0  0  0
   13.4377  -17.6034   19.1557 O   0  0  0  0  0  0  0  0  0  0  0  0
    9.7143  -16.7787   25.0261 N   0  0  0  0  0  0  0  0  0  0  0  0
    9.8915  -16.5170   26.4725 C   0  0  1  0  0  0  0  0  0  0  0  0
    8.4936  -16.6144   27.0249 C   0  0  0  0  0  0  0  0  0  0  0  0
    7.5258  -15.6392   26.4907 C   0  0  0  0  0  0  0  0  0  0  0  0
    6.3213  -15.9359   25.8365 C   0  0  0  0  0  0  0  0  0  0  0  0
    5.7083  -14.8072   25.4551 N   0  0  0  0  0  0  0  0  0  0  0  0
    6.4797  -13.7775   25.8434 C   0  0  0  0  0  0  0  0  0  0  0  0
    6.2336  -12.4110   25.6743 C   0  0  0  0  0  0  0  0  0  0  0  0
    7.1619  -11.5261   26.1744 C   0  0  0  0  0  0  0  0  0  0  0  0
    8.2851  -12.0058   26.8149 C   0  0  0  0  0  0  0  0  0  0  0  0
    8.5275  -13.3493   26.9807 C   0  0  0  0  0  0  0  0  0  0  0  0
    7.6036  -14.2530   26.4826 C   0  0  0  0  0  0  0  0  0  0  0  0
   10.7950  -17.5394   26.9953 C   0  0  0  0  0  0  0  0  0  0  0  0
   11.3594  -17.4966   28.2691 O   0  0  0  0  0  0  0  0  0  0  0  0
   11.0959  -18.5313   26.2487 O   0  0  0  0  0  0  0  0  0  0  0  0
  1  5  1  0
  2  1  1  0
  2  3  1  0
  3  4  1  0
  5  4  1  0
  6  7  2  0
  5  6  1  6
  8  6  1  0
  9  8  1  0
  9 10  1  6
 11 10  1  0
 12 11  1  0
 13 12  2  0
 14  9  1  0
 15 14  2  0
 16 12  1  0
 17 14  1  0
 18 29  1  0
 18 17  1  0
 19 20  1  0
 18 19  1  1
 20 21  2  0
 20 28  1  0
 21 22  1  0
 22 23  1  0
 23 24  2  0
 24 25  1  0
 26 25  2  0
 27 26  1  0
 28 27  2  0
 28 23  1  0
 29 30  1  0
 31 29  2  0
M  END
$$$$
