PEW.pdb
     RDKit          3D

 31 33  0  0  1  0  0  0  0  0999 V2000
    9.0785  -13.9767   19.3133 N   0  0  0  0  0  0  0  0  0  0  0  0
    8.3342  -13.2205   18.3245 C   0  0  0  0  0  0  0  0  0  0  0  0
    6.9456  -13.0235   18.8637 C   0  0  0  0  0  0  0  0  0  0  0  0
    6.9027  -13.9742   20.0420 C   0  0  0  0  0  0  0  0  0  0  0  0
    8.3330  -13.9158   20.5287 C   0  0  1  0  0  0  0  0  0  0  0  0
    8.6452  -14.9386   21.5210 C   0  0  0  0  0  0  0  0  0  0  0  0
    7.8882  -15.0509   22.5288 O   0  0  0  0  0  0  0  0  0  0  0  0
    9.7407  -15.8406   21.4645 N   0  0  0  0  0  0  0  0  0  0  0  0
    9.9182  -16.9107   22.4330 C   0  0  1  0  0  0  0  0  0  0  0  0
   11.0147  -17.8622   22.0151 C   0  0  0  0  0  0  0  0  0  0  0  0
   10.9144  -18.2454   20.5593 C   0  0  0  0  0  0  0  0  0  0  0  0
   12.2568  -18.7117   20.1240 C   0  0  0  0  0  0  0  0  0  0  0  0
   13.2465  -18.7745   20.8937 O   0  0  0  0  0  0  0  0  0  0  0  0
   10.1796  -16.3398   23.7984 C   0  0  0  0  0  0  0  0  0  0  0  0
   10.8725  -15.2926   23.9571 O   0  0  0  0  0  0  0  0  0  0  0  0
   12.4456  -19.1014   18.8054 O   0  0  0  0  0  0  0  0  0  0  0  0
    9.6604  -16.9543   24.9438 N   0  0  0  0  0  0  0  0  0  0  0  0
    9.9094  -16.4721   26.3214 C   0  0  1  0  0  0  0  0  0  0  0  0
    8.5514  -16.5338   26.9701 C   0  0  0  0  0  0  0  0  0  0  0  0
    7.5540  -15.5771   26.4574 C   0  0  0  0  0  0  0  0  0  0  0  0
    6.3851  -15.8934   25.7499 C   0  0  0  0  0  0  0  0  0  0  0  0
    5.7301  -14.7752   25.4093 N   0  0  0  0  0  0  0  0  0  0  0  0
    6.4392  -13.7335   25.8762 C   0  0  0  0  0  0  0  0  0  0  0  0
    6.1327  -12.3728   25.7719 C   0  0  0  0  0  0  0  0  0  0  0  0
    7.0020  -11.4742   26.3477 C   0  0  0  0  0  0  0  0  0  0  0  0
    8.1275  -11.9353   26.9978 C   0  0  0  0  0  0  0  0  0  0  0  0
    8.4293  -13.2732   27.0999 C   0  0  0  0  0  0  0  0  0  0  0  0
    7.5652  -14.1903   26.5252 C   0  0  0  0  0  0  0  0  0  0  0  0
   10.8855  -17.3725   26.9309 C   0  0  0  0  0  0  0  0  0  0  0  0
   11.5149  -17.1226   28.1493 O   0  0  0  0  0  0  0  0  0  0  0  0
   11.1910  -18.4509   26.3183 O   0  0  0  0  0  0  0  0  0  0  0  0
  1  5  1  0
  2  1  1  0
  2  3  1  0
  3  4  1  0
  5  4  1  0
  6  7  2  0
  5  6  1  1
  8  6  1  0
  9  8  1  0
  9 10  1  6
 11 10  1  0
 12 11  1  0
 13 12  2  0
 14  9  1  0
 15 14  2  0
 16 12  1  0
 17 14  1  0
 18 29  1  0
 18 17  1  0
 19 20  1  0
 18 19  1  1
 20 21  2  0
 20 28  1  0
 21 22  1  0
 22 23  1  0
 23 24  2  0
 24 25  1  0
 26 25  2  0
 27 26  1  0
 28 27  2  0
 28 23  1  0
 29 30  1  0
 31 29  2  0
M  END
$$$$
