PEW.pdb
     RDKit          3D

 31 33  0  0  1  0  0  0  0  0999 V2000
    9.2248  -13.9770   19.4760 N   0  0  0  0  0  0  0  0  0  0  0  0
    8.5334  -13.1441   18.5107 C   0  0  0  0  0  0  0  0  0  0  0  0
    7.1848  -12.8166   19.0868 C   0  0  0  0  0  0  0  0  0  0  0  0
    7.0789  -13.7676   20.2608 C   0  0  0  0  0  0  0  0  0  0  0  0
    8.5199  -13.8529   20.7106 C   0  0  1  0  0  0  0  0  0  0  0  0
    8.7555  -14.9090   21.6891 C   0  0  0  0  0  0  0  0  0  0  0  0
    8.0423  -14.9317   22.7341 O   0  0  0  0  0  0  0  0  0  0  0  0
    9.7294  -15.9370   21.5802 N   0  0  0  0  0  0  0  0  0  0  0  0
    9.8687  -16.9855   22.5781 C   0  0  1  0  0  0  0  0  0  0  0  0
   10.8591  -18.0396   22.1420 C   0  0  0  0  0  0  0  0  0  0  0  0
   11.8916  -17.4931   21.1873 C   0  0  0  0  0  0  0  0  0  0  0  0
   12.8108  -18.6064   20.8341 C   0  0  0  0  0  0  0  0  0  0  0  0
   14.0426  -18.5844   21.0746 O   0  0  0  0  0  0  0  0  0  0  0  0
   10.2483  -16.3938   23.9064 C   0  0  0  0  0  0  0  0  0  0  0  0
   11.0019  -15.3803   23.9891 O   0  0  0  0  0  0  0  0  0  0  0  0
   12.3010  -19.7348   20.2070 O   0  0  0  0  0  0  0  0  0  0  0  0
    9.7758  -16.9504   25.1006 N   0  0  0  0  0  0  0  0  0  0  0  0
   10.1039  -16.4192   26.4430 C   0  0  1  0  0  0  0  0  0  0  0  0
    8.7796  -16.4249   27.1606 C   0  0  0  0  0  0  0  0  0  0  0  0
    7.7553  -15.5135   26.6193 C   0  0  0  0  0  0  0  0  0  0  0  0
    6.5880  -15.8857   25.9367 C   0  0  0  0  0  0  0  0  0  0  0  0
    5.9036  -14.7981   25.5573 N   0  0  0  0  0  0  0  0  0  0  0  0
    6.5918  -13.7219   25.9745 C   0  0  0  0  0  0  0  0  0  0  0  0
    6.2522  -12.3740   25.8179 C   0  0  0  0  0  0  0  0  0  0  0  0
    7.1050  -11.4326   26.3481 C   0  0  0  0  0  0  0  0  0  0  0  0
    8.2468  -11.8402   27.0053 C   0  0  0  0  0  0  0  0  0  0  0  0
    8.5812  -13.1654   27.1589 C   0  0  0  0  0  0  0  0  0  0  0  0
    7.7340  -14.1252   26.6304 C   0  0  0  0  0  0  0  0  0  0  0  0
   11.0914  -17.3157   27.0396 C   0  0  0  0  0  0  0  0  0  0  0  0
   11.7633  -17.0459   28.2308 O   0  0  0  0  0  0  0  0  0  0  0  0
   11.3665  -18.4102   26.4410 O   0  0  0  0  0  0  0  0  0  0  0  0
  1  5  1  0
  2  1  1  0
  2  3  1  0
  3  4  1  0
  5  4  1  0
  6  7  2  0
  5  6  1  1
  8  6  1  0
  9  8  1  0
  9 10  1  6
 11 10  1  0
 12 11  1  0
 13 12  2  0
 14  9  1  0
 15 14  2  0
 16 12  1  0
 17 14  1  0
 18 29  1  0
 18 17  1  0
 19 20  1  0
 18 19  1  1
 20 21  2  0
 20 28  1  0
 21 22  1  0
 22 23  1  0
 23 24  2  0
 24 25  1  0
 26 25  2  0
 27 26  1  0
 28 27  2  0
 28 23  1  0
 29 30  1  0
 31 29  2  0
M  END
$$$$
