PEW.pdb
     RDKit          3D

 31 33  0  0  1  0  0  0  0  0999 V2000
    9.1700  -14.5088   18.4320 N   0  0  0  0  0  0  0  0  0  0  0  0
    8.6707  -13.5978   17.4199 C   0  0  0  0  0  0  0  0  0  0  0  0
    7.6220  -12.7393   18.0686 C   0  0  0  0  0  0  0  0  0  0  0  0
    7.3736  -13.4460   19.3849 C   0  0  0  0  0  0  0  0  0  0  0  0
    8.7470  -13.9969   19.6953 C   0  0  1  0  0  0  0  0  0  0  0  0
    8.7490  -14.9471   20.8021 C   0  0  0  0  0  0  0  0  0  0  0  0
    8.2543  -14.5837   21.9087 O   0  0  0  0  0  0  0  0  0  0  0  0
    9.2638  -16.2700   20.7574 N   0  0  0  0  0  0  0  0  0  0  0  0
    9.1381  -17.1920   21.8748 C   0  0  1  0  0  0  0  0  0  0  0  0
    9.5854  -18.5851   21.4989 C   0  0  0  0  0  0  0  0  0  0  0  0
    8.9855  -19.0448   20.1932 C   0  0  0  0  0  0  0  0  0  0  0  0
    7.8057  -19.8900   20.5137 C   0  0  0  0  0  0  0  0  0  0  0  0
    7.6351  -20.4387   21.6298 O   0  0  0  0  0  0  0  0  0  0  0  0
    9.8973  -16.6755   23.0646 C   0  0  0  0  0  0  0  0  0  0  0  0
   10.9450  -15.9783   22.9302 O   0  0  0  0  0  0  0  0  0  0  0  0
    6.8334  -20.0944   19.5446 O   0  0  0  0  0  0  0  0  0  0  0  0
    9.4648  -16.9526   24.3666 N   0  0  0  0  0  0  0  0  0  0  0  0
   10.2212  -16.5775   25.5828 C   0  0  1  0  0  0  0  0  0  0  0  0
    9.8524  -15.1332   25.7990 C   0  0  0  0  0  0  0  0  0  0  0  0
    8.4213  -14.8666   26.0307 C   0  0  0  0  0  0  0  0  0  0  0  0
    7.3724  -15.7890   25.9043 C   0  0  0  0  0  0  0  0  0  0  0  0
    6.1979  -15.1961   26.1576 N   0  0  0  0  0  0  0  0  0  0  0  0
    6.4498  -13.9083   26.4479 C   0  0  0  0  0  0  0  0  0  0  0  0
    5.5305  -12.9119   26.7923 C   0  0  0  0  0  0  0  0  0  0  0  0
    6.0208  -11.6562   27.0704 C   0  0  0  0  0  0  0  0  0  0  0  0
    7.3785  -11.4239   27.0021 C   0  0  0  0  0  0  0  0  0  0  0  0
    8.2824  -12.4033   26.6630 C   0  0  0  0  0  0  0  0  0  0  0  0
    7.8052  -13.6722   26.3794 C   0  0  0  0  0  0  0  0  0  0  0  0
    9.7794  -17.4575   26.6623 C   0  0  0  0  0  0  0  0  0  0  0  0
   10.3946  -17.5203   27.9116 O   0  0  0  0  0  0  0  0  0  0  0  0
    8.7759  -18.2212   26.4588 O   0  0  0  0  0  0  0  0  0  0  0  0
  1  5  1  0
  2  1  1  0
  2  3  1  0
  3  4  1  0
  5  4  1  0
  6  7  2  0
  5  6  1  1
  8  6  1  0
  9  8  1  0
  9 10  1  6
 11 10  1  0
 12 11  1  0
 13 12  2  0
 14  9  1  0
 15 14  2  0
 16 12  1  0
 17 14  1  0
 18 29  1  0
 18 17  1  0
 19 20  1  0
 18 19  1  1
 20 21  2  0
 20 28  1  0
 21 22  1  0
 22 23  1  0
 23 24  2  0
 24 25  1  0
 26 25  2  0
 27 26  1  0
 28 27  2  0
 28 23  1  0
 29 30  1  0
 31 29  2  0
M  END
$$$$
