PEW.pdb
     RDKit          3D

 31 33  0  0  1  0  0  0  0  0999 V2000
    9.0451  -13.7426   18.8070 N   0  0  0  0  0  0  0  0  0  0  0  0
    8.2737  -13.0422   17.7982 C   0  0  0  0  0  0  0  0  0  0  0  0
    6.8275  -13.1367   18.1948 C   0  0  0  0  0  0  0  0  0  0  0  0
    6.8457  -14.1809   19.2918 C   0  0  0  0  0  0  0  0  0  0  0  0
    8.1888  -13.9192   19.9349 C   0  0  1  0  0  0  0  0  0  0  0  0
    8.5853  -14.9562   20.8812 C   0  0  0  0  0  0  0  0  0  0  0  0
    7.8471  -15.1677   21.8871 O   0  0  0  0  0  0  0  0  0  0  0  0
    9.7453  -15.7695   20.7811 N   0  0  0  0  0  0  0  0  0  0  0  0
   10.1180  -16.7237   21.8132 C   0  0  1  0  0  0  0  0  0  0  0  0
   11.3169  -17.5460   21.4029 C   0  0  0  0  0  0  0  0  0  0  0  0
   11.5979  -18.6685   22.3710 C   0  0  0  0  0  0  0  0  0  0  0  0
   12.7669  -19.4263   21.8532 C   0  0  0  0  0  0  0  0  0  0  0  0
   13.3322  -19.1600   20.7644 O   0  0  0  0  0  0  0  0  0  0  0  0
   10.3604  -16.0143   23.1158 C   0  0  0  0  0  0  0  0  0  0  0  0
   10.3978  -14.7511   23.1852 O   0  0  0  0  0  0  0  0  0  0  0  0
   13.2735  -20.4840   22.5955 O   0  0  0  0  0  0  0  0  0  0  0  0
   10.5534  -16.7354   24.2998 N   0  0  0  0  0  0  0  0  0  0  0  0
    9.8288  -16.4572   25.5606 C   0  0  1  0  0  0  0  0  0  0  0  0
    8.3945  -16.7687   25.2220 C   0  0  0  0  0  0  0  0  0  0  0  0
    7.4197  -15.7072   25.5309 C   0  0  0  0  0  0  0  0  0  0  0  0
    6.0453  -15.7335   25.2526 C   0  0  0  0  0  0  0  0  0  0  0  0
    5.4698  -14.5871   25.6397 N   0  0  0  0  0  0  0  0  0  0  0  0
    6.4316  -13.8097   26.1657 C   0  0  0  0  0  0  0  0  0  0  0  0
    6.2949  -12.5302   26.7139 C   0  0  0  0  0  0  0  0  0  0  0  0
    7.4241  -11.9245   27.2168 C   0  0  0  0  0  0  0  0  0  0  0  0
    8.6330  -12.5862   27.1653 C   0  0  0  0  0  0  0  0  0  0  0  0
    8.7677  -13.8440   26.6257 C   0  0  0  0  0  0  0  0  0  0  0  0
    7.6412  -14.4670   26.1148 C   0  0  0  0  0  0  0  0  0  0  0  0
   10.3862  -17.3332   26.5886 C   0  0  0  0  0  0  0  0  0  0  0  0
   10.4196  -17.0127   27.9448 O   0  0  0  0  0  0  0  0  0  0  0  0
   10.8786  -18.4575   26.2349 O   0  0  0  0  0  0  0  0  0  0  0  0
  1  5  1  0
  2  1  1  0
  2  3  1  0
  3  4  1  0
  5  4  1  0
  6  7  2  0
  5  6  1  6
  8  6  1  0
  9  8  1  0
  9 10  1  6
 11 10  1  0
 12 11  1  0
 13 12  2  0
 14  9  1  0
 15 14  2  0
 16 12  1  0
 17 14  1  0
 18 29  1  0
 18 17  1  0
 19 20  1  0
 18 19  1  6
 20 21  2  0
 20 28  1  0
 21 22  1  0
 22 23  1  0
 23 24  2  0
 24 25  1  0
 26 25  2  0
 27 26  1  0
 28 27  2  0
 28 23  1  0
 29 30  1  0
 31 29  2  0
M  END
$$$$
