PEW.pdb
     RDKit          3D

 31 33  0  0  1  0  0  0  0  0999 V2000
    9.1931  -14.1886   19.3450 N   0  0  0  0  0  0  0  0  0  0  0  0
    8.5095  -13.3656   18.3657 C   0  0  0  0  0  0  0  0  0  0  0  0
    7.1975  -12.9495   18.9684 C   0  0  0  0  0  0  0  0  0  0  0  0
    7.0865  -13.8432   20.1862 C   0  0  0  0  0  0  0  0  0  0  0  0
    8.5361  -13.9780   20.5942 C   0  0  1  0  0  0  0  0  0  0  0  0
    8.7547  -15.0012   21.6108 C   0  0  0  0  0  0  0  0  0  0  0  0
    8.0550  -14.9625   22.6645 O   0  0  0  0  0  0  0  0  0  0  0  0
    9.6978  -16.0602   21.5310 N   0  0  0  0  0  0  0  0  0  0  0  0
    9.8524  -17.0457   22.5890 C   0  0  1  0  0  0  0  0  0  0  0  0
   10.8485  -18.1163   22.2100 C   0  0  0  0  0  0  0  0  0  0  0  0
   10.9676  -18.2822   20.7152 C   0  0  0  0  0  0  0  0  0  0  0  0
   11.7186  -19.5394   20.4611 C   0  0  0  0  0  0  0  0  0  0  0  0
   12.2624  -20.2121   21.3709 O   0  0  0  0  0  0  0  0  0  0  0  0
   10.2358  -16.3722   23.8767 C   0  0  0  0  0  0  0  0  0  0  0  0
   11.0941  -15.4426   23.9080 O   0  0  0  0  0  0  0  0  0  0  0  0
   11.8353  -20.0096   19.1605 O   0  0  0  0  0  0  0  0  0  0  0  0
    9.6505  -16.7562   25.0887 N   0  0  0  0  0  0  0  0  0  0  0  0
   10.0330  -16.1920   26.4030 C   0  0  1  0  0  0  0  0  0  0  0  0
    8.7409  -16.1878   27.1773 C   0  0  0  0  0  0  0  0  0  0  0  0
    7.6558  -15.3702   26.6057 C   0  0  0  0  0  0  0  0  0  0  0  0
    6.5112  -15.8477   25.9510 C   0  0  0  0  0  0  0  0  0  0  0  0
    5.7546  -14.8249   25.5303 N   0  0  0  0  0  0  0  0  0  0  0  0
    6.3735  -13.6886   25.8934 C   0  0  0  0  0  0  0  0  0  0  0  0
    5.9454  -12.3741   25.6807 C   0  0  0  0  0  0  0  0  0  0  0  0
    6.7380  -11.3564   26.1611 C   0  0  0  0  0  0  0  0  0  0  0  0
    7.9082  -11.6591   26.8251 C   0  0  0  0  0  0  0  0  0  0  0  0
    8.3296  -12.9515   27.0338 C   0  0  0  0  0  0  0  0  0  0  0  0
    7.5438  -13.9871   26.5559 C   0  0  0  0  0  0  0  0  0  0  0  0
   11.0510  -17.0691   26.9768 C   0  0  0  0  0  0  0  0  0  0  0  0
   11.4739  -18.2573   26.3832 O   0  0  0  0  0  0  0  0  0  0  0  0
   11.5872  -16.7406   28.0887 O   0  0  0  0  0  0  0  0  0  0  0  0
  1  5  1  0
  2  1  1  0
  2  3  1  0
  3  4  1  0
  5  4  1  0
  6  7  2  0
  5  6  1  1
  8  6  1  0
  9  8  1  0
  9 10  1  6
 11 10  1  0
 12 11  1  0
 13 12  2  0
 14  9  1  0
 15 14  2  0
 16 12  1  0
 17 14  1  0
 18 29  1  0
 18 17  1  0
 19 20  1  0
 18 19  1  1
 20 21  2  0
 20 28  1  0
 21 22  1  0
 22 23  1  0
 23 24  2  0
 24 25  1  0
 26 25  2  0
 27 26  1  0
 28 27  2  0
 28 23  1  0
 29 30  1  0
 31 29  2  0
M  END
$$$$
