PEW.pdb
     RDKit          3D

 31 33  0  0  1  0  0  0  0  0999 V2000
    9.4070  -14.1143   19.3586 N   0  0  0  0  0  0  0  0  0  0  0  0
    8.9471  -13.3916   18.1883 C   0  0  0  0  0  0  0  0  0  0  0  0
    7.4983  -13.0592   18.4082 C   0  0  0  0  0  0  0  0  0  0  0  0
    7.1357  -13.9072   19.6096 C   0  0  0  0  0  0  0  0  0  0  0  0
    8.4351  -13.9061   20.3827 C   0  0  1  0  0  0  0  0  0  0  0  0
    8.4510  -14.8647   21.4822 C   0  0  0  0  0  0  0  0  0  0  0  0
    7.6120  -14.7211   22.4186 O   0  0  0  0  0  0  0  0  0  0  0  0
    9.3367  -15.9679   21.6067 N   0  0  0  0  0  0  0  0  0  0  0  0
    9.2732  -16.8941   22.7260 C   0  0  1  0  0  0  0  0  0  0  0  0
   10.2818  -18.0096   22.5821 C   0  0  0  0  0  0  0  0  0  0  0  0
   10.1627  -18.7198   21.2563 C   0  0  0  0  0  0  0  0  0  0  0  0
   11.3453  -18.3446   20.4379 C   0  0  0  0  0  0  0  0  0  0  0  0
   12.2464  -17.5711   20.8448 O   0  0  0  0  0  0  0  0  0  0  0  0
    9.4535  -16.1570   24.0233 C   0  0  0  0  0  0  0  0  0  0  0  0
    9.0236  -14.9770   24.1800 O   0  0  0  0  0  0  0  0  0  0  0  0
   11.4781  -18.8649   19.1581 O   0  0  0  0  0  0  0  0  0  0  0  0
   10.1072  -16.7586   25.1049 N   0  0  0  0  0  0  0  0  0  0  0  0
   10.0662  -16.2319   26.4880 C   0  0  1  0  0  0  0  0  0  0  0  0
    8.6291  -16.4214   26.8977 C   0  0  0  0  0  0  0  0  0  0  0  0
    7.6731  -15.4443   26.3463 C   0  0  0  0  0  0  0  0  0  0  0  0
    6.6524  -15.7101   25.4220 C   0  0  0  0  0  0  0  0  0  0  0  0
    5.9968  -14.5825   25.1151 N   0  0  0  0  0  0  0  0  0  0  0  0
    6.5611  -13.5839   25.8155 C   0  0  0  0  0  0  0  0  0  0  0  0
    6.1974  -12.2333   25.8270 C   0  0  0  0  0  0  0  0  0  0  0  0
    6.9104  -11.3846   26.6432 C   0  0  0  0  0  0  0  0  0  0  0  0
    7.9423  -11.8834   27.4102 C   0  0  0  0  0  0  0  0  0  0  0  0
    8.3004  -13.2112   27.3985 C   0  0  0  0  0  0  0  0  0  0  0  0
    7.5934  -14.0783   26.5820 C   0  0  0  0  0  0  0  0  0  0  0  0
   11.0055  -17.0183   27.2843 C   0  0  0  0  0  0  0  0  0  0  0  0
   11.7132  -18.1129   26.7902 O   0  0  0  0  0  0  0  0  0  0  0  0
   11.1928  -16.6964   28.5062 O   0  0  0  0  0  0  0  0  0  0  0  0
  1  5  1  0
  2  1  1  0
  2  3  1  0
  3  4  1  0
  5  4  1  0
  6  7  2  0
  5  6  1  1
  8  6  1  0
  9  8  1  0
  9 10  1  6
 11 10  1  0
 12 11  1  0
 13 12  2  0
 14  9  1  0
 15 14  2  0
 16 12  1  0
 17 14  1  0
 18 29  1  0
 18 17  1  0
 19 20  1  0
 18 19  1  1
 20 21  2  0
 20 28  1  0
 21 22  1  0
 22 23  1  0
 23 24  2  0
 24 25  1  0
 26 25  2  0
 27 26  1  0
 28 27  2  0
 28 23  1  0
 29 30  1  0
 31 29  2  0
M  END
$$$$
