PEW.pdb
     RDKit          3D

 31 33  0  0  1  0  0  0  0  0999 V2000
    9.0122  -14.1126   19.1789 N   0  0  0  0  0  0  0  0  0  0  0  0
    8.2630  -13.2843   18.2536 C   0  0  0  0  0  0  0  0  0  0  0  0
    6.9629  -12.9324   18.9198 C   0  0  0  0  0  0  0  0  0  0  0  0
    6.9305  -13.8660   20.1119 C   0  0  0  0  0  0  0  0  0  0  0  0
    8.3989  -13.9631   20.4589 C   0  0  1  0  0  0  0  0  0  0  0  0
    8.6919  -15.0086   21.4331 C   0  0  0  0  0  0  0  0  0  0  0  0
    7.9925  -15.0635   22.4863 O   0  0  0  0  0  0  0  0  0  0  0  0
    9.7087  -15.9927   21.3117 N   0  0  0  0  0  0  0  0  0  0  0  0
    9.9273  -17.0144   22.3231 C   0  0  1  0  0  0  0  0  0  0  0  0
   10.9642  -18.0204   21.8816 C   0  0  0  0  0  0  0  0  0  0  0  0
   11.1236  -19.1481   22.8712 C   0  0  0  0  0  0  0  0  0  0  0  0
   12.1515  -20.0766   22.3325 C   0  0  0  0  0  0  0  0  0  0  0  0
   13.3275  -19.7243   22.0704 O   0  0  0  0  0  0  0  0  0  0  0  0
   10.3030  -16.3796   23.6325 C   0  0  0  0  0  0  0  0  0  0  0  0
   11.1563  -15.4469   23.6959 O   0  0  0  0  0  0  0  0  0  0  0  0
   11.8140  -21.4028   22.1010 O   0  0  0  0  0  0  0  0  0  0  0  0
    9.7157  -16.8044   24.8299 N   0  0  0  0  0  0  0  0  0  0  0  0
   10.1103  -16.3000   26.1648 C   0  0  1  0  0  0  0  0  0  0  0  0
    8.8317  -16.3591   26.9589 C   0  0  0  0  0  0  0  0  0  0  0  0
    7.7173  -15.5474   26.4374 C   0  0  0  0  0  0  0  0  0  0  0  0
    6.5944  -16.0236   25.7450 C   0  0  0  0  0  0  0  0  0  0  0  0
    5.7998  -15.0049   25.3898 N   0  0  0  0  0  0  0  0  0  0  0  0
    6.3724  -13.8726   25.8325 C   0  0  0  0  0  0  0  0  0  0  0  0
    5.8938  -12.5643   25.7065 C   0  0  0  0  0  0  0  0  0  0  0  0
    6.6443  -11.5514   26.2594 C   0  0  0  0  0  0  0  0  0  0  0  0
    7.8232  -11.8527   26.9084 C   0  0  0  0  0  0  0  0  0  0  0  0
    8.2943  -13.1389   27.0319 C   0  0  0  0  0  0  0  0  0  0  0  0
    7.5513  -14.1695   26.4804 C   0  0  0  0  0  0  0  0  0  0  0  0
   11.1534  -17.1857   26.6770 C   0  0  0  0  0  0  0  0  0  0  0  0
   11.6152  -18.3124   25.9985 O   0  0  0  0  0  0  0  0  0  0  0  0
   11.6755  -16.9250   27.8133 O   0  0  0  0  0  0  0  0  0  0  0  0
  1  5  1  0
  2  1  1  0
  2  3  1  0
  3  4  1  0
  5  4  1  0
  6  7  2  0
  5  6  1  1
  8  6  1  0
  9  8  1  0
  9 10  1  6
 11 10  1  0
 12 11  1  0
 13 12  2  0
 14  9  1  0
 15 14  2  0
 16 12  1  0
 17 14  1  0
 18 29  1  0
 18 17  1  0
 19 20  1  0
 18 19  1  1
 20 21  2  0
 20 28  1  0
 21 22  1  0
 22 23  1  0
 23 24  2  0
 24 25  1  0
 26 25  2  0
 27 26  1  0
 28 27  2  0
 28 23  1  0
 29 30  1  0
 31 29  2  0
M  END
$$$$
