PEW.pdb
     RDKit          3D

 31 33  0  0  1  0  0  0  0  0999 V2000
    9.2242  -14.2122   19.3145 N   0  0  0  0  0  0  0  0  0  0  0  0
    8.5378  -13.4479   18.2906 C   0  0  0  0  0  0  0  0  0  0  0  0
    7.1625  -13.1374   18.8102 C   0  0  0  0  0  0  0  0  0  0  0  0
    7.0494  -14.0356   20.0245 C   0  0  0  0  0  0  0  0  0  0  0  0
    8.4777  -14.0534   20.5204 C   0  0  1  0  0  0  0  0  0  0  0  0
    8.7150  -15.0545   21.5546 C   0  0  0  0  0  0  0  0  0  0  0  0
    7.9207  -15.1041   22.5384 O   0  0  0  0  0  0  0  0  0  0  0  0
    9.7748  -15.9999   21.5647 N   0  0  0  0  0  0  0  0  0  0  0  0
    9.9048  -17.0119   22.6009 C   0  0  1  0  0  0  0  0  0  0  0  0
   10.9485  -18.0435   22.2423 C   0  0  0  0  0  0  0  0  0  0  0  0
   11.3950  -17.9289   20.8057 C   0  0  0  0  0  0  0  0  0  0  0  0
   12.6247  -18.7491   20.6507 C   0  0  0  0  0  0  0  0  0  0  0  0
   13.7602  -18.3640   21.0224 O   0  0  0  0  0  0  0  0  0  0  0  0
   10.2049  -16.3667   23.9248 C   0  0  0  0  0  0  0  0  0  0  0  0
   10.9668  -15.3600   24.0135 O   0  0  0  0  0  0  0  0  0  0  0  0
   12.5338  -20.0058   20.0688 O   0  0  0  0  0  0  0  0  0  0  0  0
    9.6462  -16.8641   25.1077 N   0  0  0  0  0  0  0  0  0  0  0  0
    9.9951  -16.3641   26.4569 C   0  0  1  0  0  0  0  0  0  0  0  0
    8.6804  -16.3783   27.1919 C   0  0  0  0  0  0  0  0  0  0  0  0
    7.6496  -15.4597   26.6758 C   0  0  0  0  0  0  0  0  0  0  0  0
    6.4978  -15.8194   25.9609 C   0  0  0  0  0  0  0  0  0  0  0  0
    5.8018  -14.7267   25.6191 N   0  0  0  0  0  0  0  0  0  0  0  0
    6.4672  -13.6594   26.0924 C   0  0  0  0  0  0  0  0  0  0  0  0
    6.1087  -12.3113   25.9895 C   0  0  0  0  0  0  0  0  0  0  0  0
    6.9393  -11.3811   26.5724 C   0  0  0  0  0  0  0  0  0  0  0  0
    8.0781  -11.7998   27.2277 C   0  0  0  0  0  0  0  0  0  0  0  0
    8.4311  -13.1252   27.3285 C   0  0  0  0  0  0  0  0  0  0  0  0
    7.6064  -14.0737   26.7468 C   0  0  0  0  0  0  0  0  0  0  0  0
   10.9854  -17.2787   27.0206 C   0  0  0  0  0  0  0  0  0  0  0  0
   11.6504  -17.0543   28.2250 O   0  0  0  0  0  0  0  0  0  0  0  0
   11.2697  -18.3459   26.3786 O   0  0  0  0  0  0  0  0  0  0  0  0
  1  5  1  0
  2  1  1  0
  2  3  1  0
  3  4  1  0
  5  4  1  0
  6  7  2  0
  5  6  1  1
  8  6  1  0
  9  8  1  0
  9 10  1  6
 11 10  1  0
 12 11  1  0
 13 12  2  0
 14  9  1  0
 15 14  2  0
 16 12  1  0
 17 14  1  0
 18 29  1  0
 18 17  1  0
 19 20  1  0
 18 19  1  1
 20 21  2  0
 20 28  1  0
 21 22  1  0
 22 23  1  0
 23 24  2  0
 24 25  1  0
 26 25  2  0
 27 26  1  0
 28 27  2  0
 28 23  1  0
 29 30  1  0
 31 29  2  0
M  END
$$$$
