PEW.pdb
     RDKit          3D

 31 33  0  0  1  0  0  0  0  0999 V2000
    9.1282  -13.9105   19.5564 N   0  0  0  0  0  0  0  0  0  0  0  0
    8.4180  -13.0546   18.6255 C   0  0  0  0  0  0  0  0  0  0  0  0
    7.0655  -12.7747   19.2174 C   0  0  0  0  0  0  0  0  0  0  0  0
    6.9815  -13.7716   20.3545 C   0  0  0  0  0  0  0  0  0  0  0  0
    8.4253  -13.8469   20.7968 C   0  0  1  0  0  0  0  0  0  0  0  0
    8.6840  -14.9349   21.7335 C   0  0  0  0  0  0  0  0  0  0  0  0
    8.0366  -14.9603   22.8205 O   0  0  0  0  0  0  0  0  0  0  0  0
    9.6127  -15.9917   21.5398 N   0  0  0  0  0  0  0  0  0  0  0  0
    9.8394  -17.0216   22.5410 C   0  0  1  0  0  0  0  0  0  0  0  0
   10.8741  -18.0229   22.0839 C   0  0  0  0  0  0  0  0  0  0  0  0
   10.9519  -19.2212   22.9972 C   0  0  0  0  0  0  0  0  0  0  0  0
   11.9814  -20.1405   22.4456 C   0  0  0  0  0  0  0  0  0  0  0  0
   11.9146  -21.3898   22.5485 O   0  0  0  0  0  0  0  0  0  0  0  0
   10.2237  -16.3974   23.8531 C   0  0  0  0  0  0  0  0  0  0  0  0
   10.9827  -15.3861   23.9084 O   0  0  0  0  0  0  0  0  0  0  0  0
   13.0781  -19.6107   21.7802 O   0  0  0  0  0  0  0  0  0  0  0  0
    9.7498  -16.9201   25.0619 N   0  0  0  0  0  0  0  0  0  0  0  0
   10.0882  -16.3601   26.3900 C   0  0  1  0  0  0  0  0  0  0  0  0
    8.7621  -16.3106   27.1028 C   0  0  0  0  0  0  0  0  0  0  0  0
    7.7371  -15.4489   26.4868 C   0  0  0  0  0  0  0  0  0  0  0  0
    6.6093  -15.8786   25.7722 C   0  0  0  0  0  0  0  0  0  0  0  0
    5.9123  -14.8253   25.3250 N   0  0  0  0  0  0  0  0  0  0  0  0
    6.5536  -13.7156   25.7289 C   0  0  0  0  0  0  0  0  0  0  0  0
    6.1848  -12.3845   25.5082 C   0  0  0  0  0  0  0  0  0  0  0  0
    6.9894  -11.4006   26.0367 C   0  0  0  0  0  0  0  0  0  0  0  0
    8.1136  -11.7515   26.7542 C   0  0  0  0  0  0  0  0  0  0  0  0
    8.4768  -13.0602   26.9707 C   0  0  0  0  0  0  0  0  0  0  0  0
    7.6782  -14.0623   26.4450 C   0  0  0  0  0  0  0  0  0  0  0  0
   11.0499  -17.2652   27.0150 C   0  0  0  0  0  0  0  0  0  0  0  0
   11.6902  -17.0004   28.2246 O   0  0  0  0  0  0  0  0  0  0  0  0
   11.3317  -18.3627   26.4252 O   0  0  0  0  0  0  0  0  0  0  0  0
  1  5  1  0
  2  1  1  0
  2  3  1  0
  3  4  1  0
  5  4  1  0
  6  7  2  0
  5  6  1  1
  8  6  1  0
  9  8  1  0
  9 10  1  6
 11 10  1  0
 12 11  1  0
 13 12  2  0
 14  9  1  0
 15 14  2  0
 16 12  1  0
 17 14  1  0
 18 29  1  0
 18 17  1  0
 19 20  1  0
 18 19  1  1
 20 21  2  0
 20 28  1  0
 21 22  1  0
 22 23  1  0
 23 24  2  0
 24 25  1  0
 26 25  2  0
 27 26  1  0
 28 27  2  0
 28 23  1  0
 29 30  1  0
 31 29  2  0
M  END
$$$$
