PEW.pdb
     RDKit          3D

 31 33  0  0  1  0  0  0  0  0999 V2000
    7.6940  -19.2388   21.8227 N   0  0  0  0  0  0  0  0  0  0  0  0
    6.7903  -19.8462   20.8646 C   0  0  0  0  0  0  0  0  0  0  0  0
    7.6219  -20.3347   19.7123 C   0  0  0  0  0  0  0  0  0  0  0  0
    8.9653  -19.6825   19.9648 C   0  0  0  0  0  0  0  0  0  0  0  0
    9.0118  -19.6631   21.4759 C   0  0  1  0  0  0  0  0  0  0  0  0
   10.1033  -18.8543   22.0074 C   0  0  0  0  0  0  0  0  0  0  0  0
   11.2496  -19.3810   22.1078 O   0  0  0  0  0  0  0  0  0  0  0  0
   10.0021  -17.5031   22.4329 N   0  0  0  0  0  0  0  0  0  0  0  0
   11.1607  -16.7302   22.8511 C   0  0  1  0  0  0  0  0  0  0  0  0
   11.3081  -15.4656   22.0381 C   0  0  0  0  0  0  0  0  0  0  0  0
   11.3402  -15.7404   20.5550 C   0  0  0  0  0  0  0  0  0  0  0  0
   12.7357  -15.5298   20.0891 C   0  0  0  0  0  0  0  0  0  0  0  0
   13.7041  -16.2270   20.4790 O   0  0  0  0  0  0  0  0  0  0  0  0
   11.0836  -16.4299   24.3217 C   0  0  0  0  0  0  0  0  0  0  0  0
   12.0097  -15.8088   24.9205 O   0  0  0  0  0  0  0  0  0  0  0  0
   13.0018  -14.5174   19.1778 O   0  0  0  0  0  0  0  0  0  0  0  0
    9.9767  -16.8313   25.0784 N   0  0  0  0  0  0  0  0  0  0  0  0
    9.8467  -16.5984   26.5348 C   0  0  1  0  0  0  0  0  0  0  0  0
    8.3575  -16.5858   26.7608 C   0  0  0  0  0  0  0  0  0  0  0  0
    7.6083  -15.5498   26.0273 C   0  0  0  0  0  0  0  0  0  0  0  0
    6.8024  -15.7497   24.8970 C   0  0  0  0  0  0  0  0  0  0  0  0
    6.3010  -14.5827   24.4704 N   0  0  0  0  0  0  0  0  0  0  0  0
    6.7567  -13.6225   25.2927 C   0  0  0  0  0  0  0  0  0  0  0  0
    6.4827  -12.2517   25.2443 C   0  0  0  0  0  0  0  0  0  0  0  0
    7.0486  -11.4506   26.2101 C   0  0  0  0  0  0  0  0  0  0  0  0
    7.8533  -12.0143   27.1779 C   0  0  0  0  0  0  0  0  0  0  0  0
    8.1233  -13.3620   27.2253 C   0  0  0  0  0  0  0  0  0  0  0  0
    7.5622  -14.1818   26.2602 C   0  0  0  0  0  0  0  0  0  0  0  0
   10.5283  -17.6963   27.2166 C   0  0  0  0  0  0  0  0  0  0  0  0
   10.8450  -17.6878   28.5741 O   0  0  0  0  0  0  0  0  0  0  0  0
   10.8625  -18.7259   26.5384 O   0  0  0  0  0  0  0  0  0  0  0  0
  1  5  1  0
  2  1  1  0
  2  3  1  0
  3  4  1  0
  5  4  1  0
  6  7  2  0
  5  6  1  6
  8  6  1  0
  9  8  1  0
  9 10  1  6
 11 10  1  0
 12 11  1  0
 13 12  2  0
 14  9  1  0
 15 14  2  0
 16 12  1  0
 17 14  1  0
 18 29  1  0
 18 17  1  0
 19 20  1  0
 18 19  1  1
 20 21  2  0
 20 28  1  0
 21 22  1  0
 22 23  1  0
 23 24  2  0
 24 25  1  0
 26 25  2  0
 27 26  1  0
 28 27  2  0
 28 23  1  0
 29 30  1  0
 31 29  2  0
M  END
$$$$
