PEW.pdb
     RDKit          3D

 31 33  0  0  1  0  0  0  0  0999 V2000
    8.9054  -14.9298   18.0518 N   0  0  0  0  0  0  0  0  0  0  0  0
    9.0659  -14.2688   16.7708 C   0  0  0  0  0  0  0  0  0  0  0  0
    8.5265  -12.8739   16.9161 C   0  0  0  0  0  0  0  0  0  0  0  0
    7.7941  -12.9312   18.2406 C   0  0  0  0  0  0  0  0  0  0  0  0
    8.6483  -13.9090   19.0155 C   0  0  1  0  0  0  0  0  0  0  0  0
    8.0320  -14.3488   20.2623 C   0  0  0  0  0  0  0  0  0  0  0  0
    7.6976  -13.4718   21.1111 O   0  0  0  0  0  0  0  0  0  0  0  0
    7.7649  -15.6959   20.6243 N   0  0  0  0  0  0  0  0  0  0  0  0
    7.1595  -16.0542   21.8970 C   0  0  1  0  0  0  0  0  0  0  0  0
    6.9251  -17.5429   22.0014 C   0  0  0  0  0  0  0  0  0  0  0  0
    6.6094  -18.1666   20.6644 C   0  0  0  0  0  0  0  0  0  0  0  0
    6.4764  -19.6322   20.8726 C   0  0  0  0  0  0  0  0  0  0  0  0
    5.3948  -20.2526   20.7268 O   0  0  0  0  0  0  0  0  0  0  0  0
    8.0026  -15.5515   23.0351 C   0  0  0  0  0  0  0  0  0  0  0  0
    7.8592  -14.3831   23.5001 O   0  0  0  0  0  0  0  0  0  0  0  0
    7.5915  -20.3689   21.2467 O   0  0  0  0  0  0  0  0  0  0  0  0
    8.9789  -16.3671   23.6188 N   0  0  0  0  0  0  0  0  0  0  0  0
    9.8533  -15.9358   24.7331 C   0  0  1  0  0  0  0  0  0  0  0  0
    8.9805  -16.0928   25.9506 C   0  0  0  0  0  0  0  0  0  0  0  0
    7.8146  -15.1938   26.0215 C   0  0  0  0  0  0  0  0  0  0  0  0
    6.4745  -15.5518   25.8141 C   0  0  0  0  0  0  0  0  0  0  0  0
    5.6829  -14.4762   25.9233 N   0  0  0  0  0  0  0  0  0  0  0  0
    6.4696  -13.4219   26.1980 C   0  0  0  0  0  0  0  0  0  0  0  0
    6.0809  -12.0954   26.4119 C   0  0  0  0  0  0  0  0  0  0  0  0
    7.0655  -11.1778   26.7007 C   0  0  0  0  0  0  0  0  0  0  0  0
    8.3805  -11.5875   26.7688 C   0  0  0  0  0  0  0  0  0  0  0  0
    8.7630  -12.8916   26.5578 C   0  0  0  0  0  0  0  0  0  0  0  0
    7.7845  -13.8272   26.2656 C   0  0  0  0  0  0  0  0  0  0  0  0
   11.0211  -16.8139   24.7386 C   0  0  0  0  0  0  0  0  0  0  0  0
   12.1663  -16.5754   25.4969 O   0  0  0  0  0  0  0  0  0  0  0  0
   11.0048  -17.8603   24.0062 O   0  0  0  0  0  0  0  0  0  0  0  0
  1  5  1  0
  2  1  1  0
  2  3  1  0
  3  4  1  0
  5  4  1  0
  6  7  2  0
  5  6  1  1
  8  6  1  0
  9  8  1  0
  9 10  1  1
 11 10  1  0
 12 11  1  0
 13 12  2  0
 14  9  1  0
 15 14  2  0
 16 12  1  0
 17 14  1  0
 18 29  1  0
 18 17  1  0
 19 20  1  0
 18 19  1  1
 20 21  2  0
 20 28  1  0
 21 22  1  0
 22 23  1  0
 23 24  2  0
 24 25  1  0
 26 25  2  0
 27 26  1  0
 28 27  2  0
 28 23  1  0
 29 30  1  0
 31 29  2  0
M  END
$$$$
