PEW.pdb
     RDKit          3D

 31 33  0  0  1  0  0  0  0  0999 V2000
    9.1072  -14.1872   19.1318 N   0  0  0  0  0  0  0  0  0  0  0  0
    8.5079  -13.2838   18.1683 C   0  0  0  0  0  0  0  0  0  0  0  0
    7.1968  -12.8243   18.7408 C   0  0  0  0  0  0  0  0  0  0  0  0
    6.9900  -13.7656   19.9093 C   0  0  0  0  0  0  0  0  0  0  0  0
    8.4129  -13.9985   20.3643 C   0  0  1  0  0  0  0  0  0  0  0  0
    8.5361  -15.0777   21.3381 C   0  0  0  0  0  0  0  0  0  0  0  0
    7.7234  -15.1098   22.3075 O   0  0  0  0  0  0  0  0  0  0  0  0
    9.5011  -16.1191   21.3029 N   0  0  0  0  0  0  0  0  0  0  0  0
    9.5913  -17.1318   22.3426 C   0  0  1  0  0  0  0  0  0  0  0  0
   10.4725  -18.2841   21.9211 C   0  0  0  0  0  0  0  0  0  0  0  0
   10.2524  -18.6743   20.4804 C   0  0  0  0  0  0  0  0  0  0  0  0
   11.2418  -19.7315   20.1451 C   0  0  0  0  0  0  0  0  0  0  0  0
   12.4323  -19.4855   19.8320 O   0  0  0  0  0  0  0  0  0  0  0  0
   10.0703  -16.5178   23.6280 C   0  0  0  0  0  0  0  0  0  0  0  0
   10.9750  -15.6328   23.6427 O   0  0  0  0  0  0  0  0  0  0  0  0
   10.8494  -21.0625   20.1741 O   0  0  0  0  0  0  0  0  0  0  0  0
    9.5257  -16.9097   24.8564 N   0  0  0  0  0  0  0  0  0  0  0  0
   10.0067  -16.4137   26.1659 C   0  0  1  0  0  0  0  0  0  0  0  0
    8.7572  -16.3589   27.0055 C   0  0  0  0  0  0  0  0  0  0  0  0
    7.7064  -15.4418   26.5287 C   0  0  0  0  0  0  0  0  0  0  0  0
    6.4935  -15.8077   25.9270 C   0  0  0  0  0  0  0  0  0  0  0  0
    5.7939  -14.7163   25.5884 N   0  0  0  0  0  0  0  0  0  0  0  0
    6.5166  -13.6438   25.9535 C   0  0  0  0  0  0  0  0  0  0  0  0
    6.1778  -12.2940   25.8130 C   0  0  0  0  0  0  0  0  0  0  0  0
    7.0711  -11.3570   26.2807 C   0  0  0  0  0  0  0  0  0  0  0  0
    8.2509  -11.7709   26.8627 C   0  0  0  0  0  0  0  0  0  0  0  0
    8.5845  -13.0980   27.0004 C   0  0  0  0  0  0  0  0  0  0  0  0
    7.6967  -14.0534   26.5342 C   0  0  0  0  0  0  0  0  0  0  0  0
   10.9965  -17.3685   26.6594 C   0  0  0  0  0  0  0  0  0  0  0  0
   11.8088  -17.1389   27.7687 O   0  0  0  0  0  0  0  0  0  0  0  0
   11.1376  -18.4786   26.0433 O   0  0  0  0  0  0  0  0  0  0  0  0
  1  5  1  0
  2  1  1  0
  2  3  1  0
  3  4  1  0
  5  4  1  0
  6  7  2  0
  5  6  1  1
  8  6  1  0
  9  8  1  0
  9 10  1  6
 11 10  1  0
 12 11  1  0
 13 12  2  0
 14  9  1  0
 15 14  2  0
 16 12  1  0
 17 14  1  0
 18 29  1  0
 18 17  1  0
 19 20  1  0
 18 19  1  1
 20 21  2  0
 20 28  1  0
 21 22  1  0
 22 23  1  0
 23 24  2  0
 24 25  1  0
 26 25  2  0
 27 26  1  0
 28 27  2  0
 28 23  1  0
 29 30  1  0
 31 29  2  0
M  END
$$$$
