PEW.pdb
     RDKit          3D

 31 33  0  0  1  0  0  0  0  0999 V2000
    9.3156  -13.8730   19.1451 N   0  0  0  0  0  0  0  0  0  0  0  0
    8.6743  -13.0544   18.1341 C   0  0  0  0  0  0  0  0  0  0  0  0
    7.2201  -12.9510   18.4979 C   0  0  0  0  0  0  0  0  0  0  0  0
    7.0654  -14.0054   19.5743 C   0  0  0  0  0  0  0  0  0  0  0  0
    8.4163  -13.9460   20.2509 C   0  0  1  0  0  0  0  0  0  0  0  0
    8.6406  -15.0440   21.1847 C   0  0  0  0  0  0  0  0  0  0  0  0
    7.7967  -15.2303   22.1091 O   0  0  0  0  0  0  0  0  0  0  0  0
    9.7389  -15.9441   21.1567 N   0  0  0  0  0  0  0  0  0  0  0  0
    9.8951  -17.0114   22.1319 C   0  0  1  0  0  0  0  0  0  0  0  0
   10.9628  -17.9947   21.7132 C   0  0  0  0  0  0  0  0  0  0  0  0
   12.1353  -17.3164   21.0489 C   0  0  0  0  0  0  0  0  0  0  0  0
   13.1282  -18.3682   20.7070 C   0  0  0  0  0  0  0  0  0  0  0  0
   14.0104  -18.7675   21.5058 O   0  0  0  0  0  0  0  0  0  0  0  0
   10.1819  -16.4376   23.4911 C   0  0  0  0  0  0  0  0  0  0  0  0
   10.6748  -15.2804   23.6310 O   0  0  0  0  0  0  0  0  0  0  0  0
   13.0945  -18.9500   19.4474 O   0  0  0  0  0  0  0  0  0  0  0  0
    9.9101  -17.1720   24.6512 N   0  0  0  0  0  0  0  0  0  0  0  0
    9.7492  -16.5641   25.9916 C   0  0  1  0  0  0  0  0  0  0  0  0
    8.3052  -16.8275   26.3299 C   0  0  0  0  0  0  0  0  0  0  0  0
    7.4102  -15.6581   26.2663 C   0  0  0  0  0  0  0  0  0  0  0  0
    6.0179  -15.6845   26.0997 C   0  0  0  0  0  0  0  0  0  0  0  0
    5.5308  -14.4371   26.0526 N   0  0  0  0  0  0  0  0  0  0  0  0
    6.5682  -13.5931   26.1850 C   0  0  0  0  0  0  0  0  0  0  0  0
    6.5375  -12.1949   26.2101 C   0  0  0  0  0  0  0  0  0  0  0  0
    7.7316  -11.5307   26.3770 C   0  0  0  0  0  0  0  0  0  0  0  0
    8.8996  -12.2514   26.5117 C   0  0  0  0  0  0  0  0  0  0  0  0
    8.9301  -13.6261   26.4864 C   0  0  0  0  0  0  0  0  0  0  0  0
    7.7372  -14.3096   26.3186 C   0  0  0  0  0  0  0  0  0  0  0  0
   10.6874  -17.2318   26.8909 C   0  0  0  0  0  0  0  0  0  0  0  0
   11.0275  -16.7488   28.1535 O   0  0  0  0  0  0  0  0  0  0  0  0
   11.2376  -18.3186   26.5062 O   0  0  0  0  0  0  0  0  0  0  0  0
  1  5  1  0
  2  1  1  0
  2  3  1  0
  3  4  1  0
  5  4  1  0
  6  7  2  0
  5  6  1  6
  8  6  1  0
  9  8  1  0
  9 10  1  6
 11 10  1  0
 12 11  1  0
 13 12  2  0
 14  9  1  0
 15 14  2  0
 16 12  1  0
 17 14  1  0
 18 29  1  0
 18 17  1  0
 19 20  1  0
 18 19  1  1
 20 21  2  0
 20 28  1  0
 21 22  1  0
 22 23  1  0
 23 24  2  0
 24 25  1  0
 26 25  2  0
 27 26  1  0
 28 27  2  0
 28 23  1  0
 29 30  1  0
 31 29  2  0
M  END
$$$$
