PEW.pdb
     RDKit          3D

 31 33  0  0  1  0  0  0  0  0999 V2000
    9.5712  -14.1090   18.8448 N   0  0  0  0  0  0  0  0  0  0  0  0
    9.0739  -13.1444   17.8826 C   0  0  0  0  0  0  0  0  0  0  0  0
    7.8268  -12.5376   18.4606 C   0  0  0  0  0  0  0  0  0  0  0  0
    7.5199  -13.4475   19.6319 C   0  0  0  0  0  0  0  0  0  0  0  0
    8.9093  -13.8407   20.0803 C   0  0  1  0  0  0  0  0  0  0  0  0
    8.9134  -14.9257   21.0555 C   0  0  0  0  0  0  0  0  0  0  0  0
    8.1488  -14.8357   22.0598 O   0  0  0  0  0  0  0  0  0  0  0  0
    9.7101  -16.0993   20.9856 N   0  0  0  0  0  0  0  0  0  0  0  0
    9.7200  -17.0971   22.0433 C   0  0  1  0  0  0  0  0  0  0  0  0
   10.4257  -18.3603   21.6092 C   0  0  0  0  0  0  0  0  0  0  0  0
   10.4761  -18.4992   20.1077 C   0  0  0  0  0  0  0  0  0  0  0  0
   11.6032  -19.4103   19.7784 C   0  0  0  0  0  0  0  0  0  0  0  0
   12.7634  -19.0050   19.5223 O   0  0  0  0  0  0  0  0  0  0  0  0
   10.3345  -16.5278   23.2912 C   0  0  0  0  0  0  0  0  0  0  0  0
   11.2854  -15.6941   23.2404 O   0  0  0  0  0  0  0  0  0  0  0  0
   11.3823  -20.7801   19.7475 O   0  0  0  0  0  0  0  0  0  0  0  0
    9.8697  -16.9060   24.5561 N   0  0  0  0  0  0  0  0  0  0  0  0
   10.5065  -16.4885   25.8259 C   0  0  1  0  0  0  0  0  0  0  0  0
    9.9431  -15.1130   26.0701 C   0  0  0  0  0  0  0  0  0  0  0  0
    8.4808  -15.0422   26.2413 C   0  0  0  0  0  0  0  0  0  0  0  0
    7.5817  -16.1160   26.1659 C   0  0  0  0  0  0  0  0  0  0  0  0
    6.3251  -15.6841   26.3376 N   0  0  0  0  0  0  0  0  0  0  0  0
    6.3770  -14.3543   26.5247 C   0  0  0  0  0  0  0  0  0  0  0  0
    5.3110  -13.4797   26.7597 C   0  0  0  0  0  0  0  0  0  0  0  0
    5.6038  -12.1474   26.9435 C   0  0  0  0  0  0  0  0  0  0  0  0
    6.9153  -11.7240   26.8912 C   0  0  0  0  0  0  0  0  0  0  0  0
    7.9635  -12.5837   26.6595 C   0  0  0  0  0  0  0  0  0  0  0  0
    7.6857  -13.9275   26.4718 C   0  0  0  0  0  0  0  0  0  0  0  0
   10.1262  -17.4615   26.8473 C   0  0  0  0  0  0  0  0  0  0  0  0
   10.6317  -17.4588   28.1464 O   0  0  0  0  0  0  0  0  0  0  0  0
    9.2870  -18.3748   26.5418 O   0  0  0  0  0  0  0  0  0  0  0  0
  1  5  1  0
  2  1  1  0
  2  3  1  0
  3  4  1  0
  5  4  1  0
  6  7  2  0
  5  6  1  1
  8  6  1  0
  9  8  1  0
  9 10  1  6
 11 10  1  0
 12 11  1  0
 13 12  2  0
 14  9  1  0
 15 14  2  0
 16 12  1  0
 17 14  1  0
 18 29  1  0
 18 17  1  0
 19 20  1  0
 18 19  1  1
 20 21  2  0
 20 28  1  0
 21 22  1  0
 22 23  1  0
 23 24  2  0
 24 25  1  0
 26 25  2  0
 27 26  1  0
 28 27  2  0
 28 23  1  0
 29 30  1  0
 31 29  2  0
M  END
$$$$
