PEW.pdb
     RDKit          3D

 31 33  0  0  1  0  0  0  0  0999 V2000
    8.8830  -14.4791   18.6323 N   0  0  0  0  0  0  0  0  0  0  0  0
    8.3912  -13.4430   17.7444 C   0  0  0  0  0  0  0  0  0  0  0  0
    7.4913  -12.5512   18.5523 C   0  0  0  0  0  0  0  0  0  0  0  0
    7.2879  -13.3425   19.8276 C   0  0  0  0  0  0  0  0  0  0  0  0
    8.6219  -14.0409   19.9651 C   0  0  1  0  0  0  0  0  0  0  0  0
    8.6249  -15.0786   20.9904 C   0  0  0  0  0  0  0  0  0  0  0  0
    7.7051  -15.0693   21.8594 O   0  0  0  0  0  0  0  0  0  0  0  0
    9.5813  -16.1216   21.1106 N   0  0  0  0  0  0  0  0  0  0  0  0
    9.5304  -17.1043   22.1813 C   0  0  1  0  0  0  0  0  0  0  0  0
   10.3245  -18.3425   21.8373 C   0  0  0  0  0  0  0  0  0  0  0  0
   11.7710  -18.0302   21.5434 C   0  0  0  0  0  0  0  0  0  0  0  0
   12.4506  -19.3118   21.2200 C   0  0  0  0  0  0  0  0  0  0  0  0
   12.3725  -19.8680   20.0974 O   0  0  0  0  0  0  0  0  0  0  0  0
    9.9999  -16.4937   23.4719 C   0  0  0  0  0  0  0  0  0  0  0  0
   10.8601  -15.5655   23.4913 O   0  0  0  0  0  0  0  0  0  0  0  0
   13.2141  -19.9401   22.1940 O   0  0  0  0  0  0  0  0  0  0  0  0
    9.4957  -16.9371   24.7000 N   0  0  0  0  0  0  0  0  0  0  0  0
   10.0172  -16.4932   26.0127 C   0  0  1  0  0  0  0  0  0  0  0  0
    8.7961  -16.4824   26.8945 C   0  0  0  0  0  0  0  0  0  0  0  0
    7.7430  -15.5228   26.5165 C   0  0  0  0  0  0  0  0  0  0  0  0
    6.5099  -15.8319   25.9240 C   0  0  0  0  0  0  0  0  0  0  0  0
    5.8136  -14.7121   25.6865 N   0  0  0  0  0  0  0  0  0  0  0  0
    6.5582  -13.6762   26.1091 C   0  0  0  0  0  0  0  0  0  0  0  0
    6.2310  -12.3166   26.0779 C   0  0  0  0  0  0  0  0  0  0  0  0
    7.1475  -11.4252   26.5880 C   0  0  0  0  0  0  0  0  0  0  0  0
    8.3380  -11.8918   27.1044 C   0  0  0  0  0  0  0  0  0  0  0  0
    8.6602  -13.2285   27.1345 C   0  0  0  0  0  0  0  0  0  0  0  0
    7.7491  -14.1385   26.6245 C   0  0  0  0  0  0  0  0  0  0  0  0
   11.0281  -17.4609   26.4325 C   0  0  0  0  0  0  0  0  0  0  0  0
   11.8723  -17.2744   27.5260 O   0  0  0  0  0  0  0  0  0  0  0  0
   11.1581  -18.5411   25.7632 O   0  0  0  0  0  0  0  0  0  0  0  0
  1  5  1  0
  2  1  1  0
  2  3  1  0
  3  4  1  0
  5  4  1  0
  6  7  2  0
  5  6  1  1
  8  6  1  0
  9  8  1  0
  9 10  1  6
 11 10  1  0
 12 11  1  0
 13 12  2  0
 14  9  1  0
 15 14  2  0
 16 12  1  0
 17 14  1  0
 18 29  1  0
 18 17  1  0
 19 20  1  0
 18 19  1  1
 20 21  2  0
 20 28  1  0
 21 22  1  0
 22 23  1  0
 23 24  2  0
 24 25  1  0
 26 25  2  0
 27 26  1  0
 28 27  2  0
 28 23  1  0
 29 30  1  0
 31 29  2  0
M  END
$$$$
