PEW.pdb
     RDKit          3D

 31 33  0  0  1  0  0  0  0  0999 V2000
    9.1027  -13.8122   19.0900 N   0  0  0  0  0  0  0  0  0  0  0  0
    8.3699  -12.9475   18.1851 C   0  0  0  0  0  0  0  0  0  0  0  0
    7.0685  -12.6018   18.8520 C   0  0  0  0  0  0  0  0  0  0  0  0
    7.0165  -13.5715   20.0143 C   0  0  0  0  0  0  0  0  0  0  0  0
    8.4810  -13.6956   20.3692 C   0  0  1  0  0  0  0  0  0  0  0  0
    8.7548  -14.7739   21.3127 C   0  0  0  0  0  0  0  0  0  0  0  0
    8.1260  -14.7875   22.4108 O   0  0  0  0  0  0  0  0  0  0  0  0
    9.6794  -15.8336   21.1142 N   0  0  0  0  0  0  0  0  0  0  0  0
    9.7980  -16.9467   22.0424 C   0  0  1  0  0  0  0  0  0  0  0  0
   10.7355  -18.0093   21.5188 C   0  0  0  0  0  0  0  0  0  0  0  0
   10.6442  -19.2913   22.3090 C   0  0  0  0  0  0  0  0  0  0  0  0
   11.5611  -20.2752   21.6765 C   0  0  0  0  0  0  0  0  0  0  0  0
   11.3751  -20.7508   20.5297 O   0  0  0  0  0  0  0  0  0  0  0  0
   10.2299  -16.4537   23.3949 C   0  0  0  0  0  0  0  0  0  0  0  0
   11.1235  -15.5666   23.5223 O   0  0  0  0  0  0  0  0  0  0  0  0
   12.6840  -20.7016   22.3718 O   0  0  0  0  0  0  0  0  0  0  0  0
    9.6520  -16.9653   24.5626 N   0  0  0  0  0  0  0  0  0  0  0  0
    9.9876  -16.4898   25.9239 C   0  0  1  0  0  0  0  0  0  0  0  0
    8.6903  -16.6251   26.6772 C   0  0  0  0  0  0  0  0  0  0  0  0
    7.6444  -15.6462   26.3301 C   0  0  0  0  0  0  0  0  0  0  0  0
    6.3783  -15.9346   25.8002 C   0  0  0  0  0  0  0  0  0  0  0  0
    5.6990  -14.8020   25.5742 N   0  0  0  0  0  0  0  0  0  0  0  0
    6.4871  -13.7779   25.9434 C   0  0  0  0  0  0  0  0  0  0  0  0
    6.1917  -12.4113   25.9024 C   0  0  0  0  0  0  0  0  0  0  0  0
    7.1518  -11.5344   26.3538 C   0  0  0  0  0  0  0  0  0  0  0  0
    8.3533  -12.0217   26.8238 C   0  0  0  0  0  0  0  0  0  0  0  0
    8.6442  -13.3653   26.8637 C   0  0  0  0  0  0  0  0  0  0  0  0
    7.6889  -14.2609   26.4124 C   0  0  0  0  0  0  0  0  0  0  0  0
   11.0505  -17.3500   26.4388 C   0  0  0  0  0  0  0  0  0  0  0  0
   11.7032  -17.1339   27.6514 O   0  0  0  0  0  0  0  0  0  0  0  0
   11.4143  -18.3580   25.7435 O   0  0  0  0  0  0  0  0  0  0  0  0
  1  5  1  0
  2  1  1  0
  2  3  1  0
  3  4  1  0
  5  4  1  0
  6  7  2  0
  5  6  1  1
  8  6  1  0
  9  8  1  0
  9 10  1  6
 11 10  1  0
 12 11  1  0
 13 12  2  0
 14  9  1  0
 15 14  2  0
 16 12  1  0
 17 14  1  0
 18 29  1  0
 18 17  1  0
 19 20  1  0
 18 19  1  1
 20 21  2  0
 20 28  1  0
 21 22  1  0
 22 23  1  0
 23 24  2  0
 24 25  1  0
 26 25  2  0
 27 26  1  0
 28 27  2  0
 28 23  1  0
 29 30  1  0
 31 29  2  0
M  END
$$$$
