RPC.pdb
     RDKit          3D

 25 25  0  0  1  0  0  0  0  0999 V2000
   10.3392  -17.9238   19.4717 N   0  0  0  0  0  0  0  0  0  0  0  0
    8.9472  -18.2853   19.5584 C   0  0  0  0  0  0  0  0  0  0  0  0
    8.2694  -18.3440   18.4723 N   0  0  0  0  0  0  0  0  0  0  0  0
    8.3379  -18.5687   20.7973 N   0  0  0  0  0  0  0  0  0  0  0  0
    8.3009  -17.5340   21.8285 C   0  0  0  0  0  0  0  0  0  0  0  0
    7.8828  -16.2663   21.1498 C   0  0  0  0  0  0  0  0  0  0  0  0
    6.8096  -15.4820   21.8092 C   0  0  0  0  0  0  0  0  0  0  0  0
    7.0583  -13.9998   21.9194 C   0  0  2  0  0  0  0  0  0  0  0  0
    7.8550  -13.6601   20.7155 N   0  0  0  0  0  0  0  0  0  0  0  0
    7.9628  -13.7529   23.0802 C   0  0  0  0  0  0  0  0  0  0  0  0
    9.2084  -13.7299   22.8767 O   0  0  0  0  0  0  0  0  0  0  0  0
    7.2839  -18.6232   18.3812 N   0  0  0  0  0  0  0  0  0  0  0  0
    7.5060  -13.5388   24.4060 C   0  0  0  0  0  0  0  0  0  0  0  0
    6.1009  -13.6156   24.8018 C   0  0  0  0  0  0  0  0  0  0  0  0
    6.0197  -13.3247   26.2618 C   0  0  0  0  0  0  0  0  0  0  0  0
    7.3261  -12.6773   26.5831 C   0  0  1  0  0  0  0  0  0  0  0  0
    8.2977  -13.2457   25.5686 C   0  0  0  0  0  0  0  0  0  0  0  0
    8.8233  -14.5160   26.1930 O   0  0  0  0  0  0  0  0  0  0  0  0
    8.1189  -15.5439   26.0718 N   0  0  0  0  0  0  0  0  0  0  0  0
   10.0396  -14.6048   26.8911 C   0  0  2  0  0  0  0  0  0  0  0  0
   10.6703  -15.8041   27.3305 C   0  0  0  0  0  0  0  0  0  0  0  0
   11.9728  -15.6283   28.0406 S   0  0  0  0  0  0  0  0  0  0  0  0
   11.9094  -13.9851   28.8576 C   0  0  0  0  0  0  0  0  0  0  0  0
    9.7948  -16.6358   28.2026 O   0  0  0  0  0  0  0  0  0  0  0  0
    8.7286  -16.1449   28.6478 O   0  0  0  0  0  0  0  0  0  0  0  0
  2  1  1  0
  2  3  2  0
  4  5  1  0
  4  2  1  0
  6  5  1  0
  6  7  1  0
  7  8  1  0
  8 10  1  0
  8  9  1  6
 10 12  1  0
 11 10  2  0
 12 13  1  0
 12 16  1  0
 13 14  1  0
 14 15  1  0
 16 15  1  0
 17 19  1  0
 16 17  1  1
 18 17  2  0
 20 21  1  1
 20 23  1  0
 20 19  1  0
 22 21  1  0
 23 25  1  0
 24 23  2  0
M  END
$$$$
