RPC.pdb
     RDKit          3D

 25 25  0  0  1  0  0  0  0  0999 V2000
    7.3389  -12.3466   18.3516 N   0  0  0  0  0  0  0  0  0  0  0  0
    7.4493  -13.7531   18.6440 C   0  0  0  0  0  0  0  0  0  0  0  0
    8.2359  -14.4608   17.9208 N   0  0  0  0  0  0  0  0  0  0  0  0
    6.7178  -14.3446   19.6936 N   0  0  0  0  0  0  0  0  0  0  0  0
    6.8229  -15.7852   19.9143 C   0  0  0  0  0  0  0  0  0  0  0  0
    7.0234  -15.9807   21.3853 C   0  0  0  0  0  0  0  0  0  0  0  0
    8.4173  -16.2044   21.8423 C   0  0  0  0  0  0  0  0  0  0  0  0
    9.2271  -14.9600   22.1005 C   0  0  2  0  0  0  0  0  0  0  0  0
   10.5494  -15.2362   21.4883 N   0  0  0  0  0  0  0  0  0  0  0  0
    9.4802  -14.8514   23.5670 C   0  0  0  0  0  0  0  0  0  0  0  0
   10.5289  -15.3750   24.0358 O   0  0  0  0  0  0  0  0  0  0  0  0
    8.4066  -15.4708   18.0116 N   0  0  0  0  0  0  0  0  0  0  0  0
    8.6108  -14.1901   24.4718 C   0  0  0  0  0  0  0  0  0  0  0  0
    7.2693  -13.7296   24.1175 C   0  0  0  0  0  0  0  0  0  0  0  0
    6.6749  -13.0810   25.3211 C   0  0  0  0  0  0  0  0  0  0  0  0
    7.8430  -12.8115   26.2110 C   0  0  1  0  0  0  0  0  0  0  0  0
    8.8545  -13.8819   25.8539 C   0  0  0  0  0  0  0  0  0  0  0  0
    8.5113  -15.0597   26.7340 O   0  0  0  0  0  0  0  0  0  0  0  0
    7.7245  -15.9123   26.2633 N   0  0  0  0  0  0  0  0  0  0  0  0
    9.0186  -15.2470   28.0310 C   0  0  1  0  0  0  0  0  0  0  0  0
   10.2131  -15.9436   28.3733 C   0  0  0  0  0  0  0  0  0  0  0  0
   10.8241  -15.5754   29.6858 S   0  0  0  0  0  0  0  0  0  0  0  0
   10.5891  -13.7655   29.8868 C   0  0  0  0  0  0  0  0  0  0  0  0
   10.0481  -17.4239   28.3570 O   0  0  0  0  0  0  0  0  0  0  0  0
    8.9011  -17.9115   28.2059 O   0  0  0  0  0  0  0  0  0  0  0  0
  2  1  1  0
  2  3  2  0
  4  5  1  0
  4  2  1  0
  6  5  1  0
  6  7  1  0
  7  8  1  0
  8 10  1  0
  8  9  1  6
 10 12  1  0
 11 10  2  0
 12 13  1  0
 12 16  1  0
 13 14  1  0
 14 15  1  0
 16 15  1  0
 17 19  1  0
 16 17  1  1
 18 17  2  0
 20 21  1  6
 20 23  1  0
 20 19  1  0
 22 21  1  0
 23 25  1  0
 24 23  2  0
M  END
$$$$
