RPC.pdb
     RDKit          3D

 25 25  0  0  1  0  0  0  0  0999 V2000
   11.5579  -22.6504   20.9093 N   0  0  0  0  0  0  0  0  0  0  0  0
   10.1571  -22.3476   20.7612 C   0  0  0  0  0  0  0  0  0  0  0  0
    9.4660  -23.0637   19.9538 N   0  0  0  0  0  0  0  0  0  0  0  0
    9.5534  -21.2958   21.4794 N   0  0  0  0  0  0  0  0  0  0  0  0
   10.3545  -20.5277   22.4300 C   0  0  0  0  0  0  0  0  0  0  0  0
   10.6678  -19.2207   21.7699 C   0  0  0  0  0  0  0  0  0  0  0  0
    9.6496  -18.6894   20.8304 C   0  0  0  0  0  0  0  0  0  0  0  0
    9.9873  -17.3737   20.1777 C   0  0  2  0  0  0  0  0  0  0  0  0
   11.4464  -17.4429   19.9213 N   0  0  0  0  0  0  0  0  0  0  0  0
    9.8089  -16.2839   21.1813 C   0  0  0  0  0  0  0  0  0  0  0  0
   10.8147  -15.9084   21.8453 O   0  0  0  0  0  0  0  0  0  0  0  0
    8.4638  -22.9592   19.7487 N   0  0  0  0  0  0  0  0  0  0  0  0
    8.5715  -15.6383   21.4348 C   0  0  0  0  0  0  0  0  0  0  0  0
    7.2967  -16.0785   20.8707 C   0  0  0  0  0  0  0  0  0  0  0  0
    6.2359  -15.1508   21.3572 C   0  0  0  0  0  0  0  0  0  0  0  0
    6.9855  -13.9566   21.8481 C   0  0  1  0  0  0  0  0  0  0  0  0
    8.3348  -14.4976   22.2758 C   0  0  0  0  0  0  0  0  0  0  0  0
    8.1536  -14.9207   23.7138 O   0  0  0  0  0  0  0  0  0  0  0  0
    7.9202  -16.1323   23.9259 N   0  0  0  0  0  0  0  0  0  0  0  0
    8.2310  -14.0425   24.8080 C   0  0  2  0  0  0  0  0  0  0  0  0
    8.7888  -14.3386   26.0849 C   0  0  0  0  0  0  0  0  0  0  0  0
    8.6806  -13.2538   27.1063 S   0  0  0  0  0  0  0  0  0  0  0  0
    8.4525  -11.6828   26.1837 C   0  0  0  0  0  0  0  0  0  0  0  0
    8.2296  -15.5794   26.6903 O   0  0  0  0  0  0  0  0  0  0  0  0
    7.1930  -16.0886   26.1981 O   0  0  0  0  0  0  0  0  0  0  0  0
  2  1  1  0
  2  3  2  0
  4  5  1  0
  4  2  1  0
  6  5  1  0
  6  7  1  0
  7  8  1  0
  8 10  1  0
  8  9  1  1
 10 12  1  0
 11 10  2  0
 12 13  1  0
 12 16  1  0
 13 14  1  0
 14 15  1  0
 16 15  1  0
 17 19  1  0
 16 17  1  1
 18 17  2  0
 20 21  1  6
 20 23  1  0
 20 19  1  0
 22 21  1  0
 23 25  1  0
 24 23  2  0
M  END
$$$$
