RPC.pdb
     RDKit          3D

 25 25  0  0  1  0  0  0  0  0999 V2000
    7.8114  -20.1255   24.6532 N   0  0  0  0  0  0  0  0  0  0  0  0
    6.5054  -20.2489   24.0574 C   0  0  0  0  0  0  0  0  0  0  0  0
    5.5179  -20.5396   24.8209 N   0  0  0  0  0  0  0  0  0  0  0  0
    6.3077  -20.0573   22.6751 N   0  0  0  0  0  0  0  0  0  0  0  0
    6.5024  -18.7267   22.1034 C   0  0  0  0  0  0  0  0  0  0  0  0
    7.9812  -18.5198   21.9909 C   0  0  0  0  0  0  0  0  0  0  0  0
    8.5788  -18.7116   20.6463 C   0  0  0  0  0  0  0  0  0  0  0  0
    8.4228  -17.5558   19.6919 C   0  0  2  0  0  0  0  0  0  0  0  0
    9.2668  -17.9126   18.5258 N   0  0  0  0  0  0  0  0  0  0  0  0
    9.0625  -16.3499   20.2946 C   0  0  0  0  0  0  0  0  0  0  0  0
   10.2782  -16.4182   20.6277 O   0  0  0  0  0  0  0  0  0  0  0  0
    4.5392  -20.6676   24.5324 N   0  0  0  0  0  0  0  0  0  0  0  0
    8.3850  -15.1234   20.5154 C   0  0  0  0  0  0  0  0  0  0  0  0
    6.9404  -14.9566   20.3658 C   0  0  0  0  0  0  0  0  0  0  0  0
    6.6090  -13.5359   20.6732 C   0  0  0  0  0  0  0  0  0  0  0  0
    7.9177  -12.8231   20.5832 C   0  0  2  0  0  0  0  0  0  0  0  0
    8.9531  -13.8722   20.9350 C   0  0  0  0  0  0  0  0  0  0  0  0
    9.0764  -13.8173   22.4389 O   0  0  0  0  0  0  0  0  0  0  0  0
    9.6612  -12.8235   22.9265 N   0  0  0  0  0  0  0  0  0  0  0  0
    8.5788  -14.8052   23.3056 C   0  0  1  0  0  0  0  0  0  0  0  0
    8.6456  -14.7853   24.7284 C   0  0  0  0  0  0  0  0  0  0  0  0
    7.3339  -14.6909   25.4371 S   0  0  0  0  0  0  0  0  0  0  0  0
    6.3908  -13.3428   24.6219 C   0  0  0  0  0  0  0  0  0  0  0  0
    9.3751  -15.9550   25.2928 O   0  0  0  0  0  0  0  0  0  0  0  0
    9.7970  -16.8472   24.5170 O   0  0  0  0  0  0  0  0  0  0  0  0
  2  1  1  0
  2  3  2  0
  4  5  1  0
  4  2  1  0
  6  5  1  0
  6  7  1  0
  7  8  1  0
  8 10  1  0
  8  9  1  6
 10 12  1  0
 11 10  2  0
 12 13  1  0
 12 16  1  0
 13 14  1  0
 14 15  1  0
 16 15  1  0
 17 19  1  0
 16 17  1  1
 18 17  2  0
 20 21  1  1
 20 23  1  0
 20 19  1  0
 22 21  1  0
 23 25  1  0
 24 23  2  0
M  END
$$$$
