RPC.pdb
     RDKit          3D

 25 25  0  0  1  0  0  0  0  0999 V2000
   11.0570  -22.0598   21.6519 N   0  0  0  0  0  0  0  0  0  0  0  0
   10.2131  -22.5172   20.5774 C   0  0  0  0  0  0  0  0  0  0  0  0
   10.6033  -23.5260   19.8900 N   0  0  0  0  0  0  0  0  0  0  0  0
    8.9906  -21.8808   20.2820 N   0  0  0  0  0  0  0  0  0  0  0  0
    8.5838  -20.7164   21.0655 C   0  0  0  0  0  0  0  0  0  0  0  0
    9.6447  -19.6773   20.8729 C   0  0  0  0  0  0  0  0  0  0  0  0
    9.3583  -18.3263   21.4155 C   0  0  0  0  0  0  0  0  0  0  0  0
    9.6925  -17.1730   20.5049 C   0  0  2  0  0  0  0  0  0  0  0  0
   11.1054  -17.3976   20.1141 N   0  0  0  0  0  0  0  0  0  0  0  0
    9.6949  -15.9158   21.3087 C   0  0  0  0  0  0  0  0  0  0  0  0
   10.6208  -15.7422   22.1491 O   0  0  0  0  0  0  0  0  0  0  0  0
   10.1118  -23.9487   19.0917 N   0  0  0  0  0  0  0  0  0  0  0  0
    8.7162  -14.8967   21.1842 C   0  0  0  0  0  0  0  0  0  0  0  0
    7.5032  -15.0314   20.3795 C   0  0  0  0  0  0  0  0  0  0  0  0
    6.7353  -13.7584   20.4917 C   0  0  0  0  0  0  0  0  0  0  0  0
    7.7267  -12.7736   21.0175 C   0  0  1  0  0  0  0  0  0  0  0  0
    8.7109  -13.6056   21.8147 C   0  0  0  0  0  0  0  0  0  0  0  0
    8.1238  -13.6899   23.2032 O   0  0  0  0  0  0  0  0  0  0  0  0
    7.1152  -14.4166   23.3519 N   0  0  0  0  0  0  0  0  0  0  0  0
    8.6397  -13.0080   24.3182 C   0  0  2  0  0  0  0  0  0  0  0  0
    7.9903  -12.8410   25.5751 C   0  0  0  0  0  0  0  0  0  0  0  0
    6.6707  -12.1419   25.5345 S   0  0  0  0  0  0  0  0  0  0  0  0
    6.1314  -11.9335   27.2773 C   0  0  0  0  0  0  0  0  0  0  0  0
    7.7929  -14.1256   26.3030 O   0  0  0  0  0  0  0  0  0  0  0  0
    7.0163  -14.9884   25.8248 O   0  0  0  0  0  0  0  0  0  0  0  0
  2  1  1  0
  2  3  2  0
  4  5  1  0
  4  2  1  0
  6  5  1  0
  6  7  1  0
  7  8  1  0
  8 10  1  0
  8  9  1  1
 10 12  1  0
 11 10  2  0
 12 13  1  0
 12 16  1  0
 13 14  1  0
 14 15  1  0
 16 15  1  0
 17 19  1  0
 16 17  1  1
 18 17  2  0
 20 21  1  6
 20 23  1  0
 20 19  1  0
 22 21  1  0
 23 25  1  0
 24 23  2  0
M  END
$$$$
