RPC.pdb
     RDKit          3D

 25 25  0  0  1  0  0  0  0  0999 V2000
   10.1714  -14.3799   17.2481 N   0  0  0  0  0  0  0  0  0  0  0  0
   10.5060  -13.6268   18.4300 C   0  0  0  0  0  0  0  0  0  0  0  0
   11.7260  -13.6291   18.8228 N   0  0  0  0  0  0  0  0  0  0  0  0
    9.5274  -12.9041   19.1418 N   0  0  0  0  0  0  0  0  0  0  0  0
    8.1236  -13.0334   18.7574 C   0  0  0  0  0  0  0  0  0  0  0  0
    7.7047  -14.4239   19.1225 C   0  0  0  0  0  0  0  0  0  0  0  0
    7.3504  -14.6599   20.5439 C   0  0  0  0  0  0  0  0  0  0  0  0
    7.2555  -16.1047   20.9617 C   0  0  2  0  0  0  0  0  0  0  0  0
    5.9092  -16.5389   20.5161 N   0  0  0  0  0  0  0  0  0  0  0  0
    7.2235  -16.1691   22.4521 C   0  0  0  0  0  0  0  0  0  0  0  0
    6.1866  -15.7658   23.0485 O   0  0  0  0  0  0  0  0  0  0  0  0
   12.1004  -13.1586   19.6570 N   0  0  0  0  0  0  0  0  0  0  0  0
    8.2922  -16.6609   23.2446 C   0  0  0  0  0  0  0  0  0  0  0  0
    9.5390  -17.1849   22.6896 C   0  0  0  0  0  0  0  0  0  0  0  0
   10.4044  -17.6087   23.8272 C   0  0  0  0  0  0  0  0  0  0  0  0
    9.4693  -17.7067   24.9868 C   0  0  2  0  0  0  0  0  0  0  0  0
    8.3675  -16.7131   24.6786 C   0  0  0  0  0  0  0  0  0  0  0  0
    8.8535  -15.3974   25.2377 O   0  0  0  0  0  0  0  0  0  0  0  0
    9.8758  -14.8990   24.7143 N   0  0  0  0  0  0  0  0  0  0  0  0
    8.2310  -14.7144   26.2962 C   0  0  1  0  0  0  0  0  0  0  0  0
    8.6962  -13.5172   26.9124 C   0  0  0  0  0  0  0  0  0  0  0  0
    7.6553  -12.4795   27.1794 S   0  0  0  0  0  0  0  0  0  0  0  0
    6.0734  -13.1387   26.5200 C   0  0  0  0  0  0  0  0  0  0  0  0
    9.4190  -13.7641   28.1912 O   0  0  0  0  0  0  0  0  0  0  0  0
    9.4045  -14.9155   28.6914 O   0  0  0  0  0  0  0  0  0  0  0  0
  2  1  1  0
  2  3  2  0
  4  5  1  0
  4  2  1  0
  6  5  1  0
  6  7  1  0
  7  8  1  0
  8 10  1  0
  8  9  1  6
 10 12  1  0
 11 10  2  0
 12 13  1  0
 12 16  1  0
 13 14  1  0
 14 15  1  0
 16 15  1  0
 17 19  1  0
 16 17  1  1
 18 17  2  0
 20 21  1  1
 20 23  1  0
 20 19  1  0
 22 21  1  0
 23 25  1  0
 24 23  2  0
M  END
$$$$
