RPC.pdb
     RDKit          3D

 25 25  0  0  1  0  0  0  0  0999 V2000
    7.0133  -15.2180   15.6755 N   0  0  0  0  0  0  0  0  0  0  0  0
    8.2740  -14.5205   15.6831 C   0  0  0  0  0  0  0  0  0  0  0  0
    9.1272  -14.8040   14.7698 N   0  0  0  0  0  0  0  0  0  0  0  0
    8.5711  -13.5515   16.6626 N   0  0  0  0  0  0  0  0  0  0  0  0
    8.5438  -13.9304   18.0736 C   0  0  0  0  0  0  0  0  0  0  0  0
    7.1645  -14.4412   18.3545 C   0  0  0  0  0  0  0  0  0  0  0  0
    6.8980  -14.9106   19.7366 C   0  0  0  0  0  0  0  0  0  0  0  0
    7.6503  -16.1449   20.1631 C   0  0  2  0  0  0  0  0  0  0  0  0
    6.7976  -17.2767   19.7253 N   0  0  0  0  0  0  0  0  0  0  0  0
    7.6610  -16.2055   21.6540 C   0  0  0  0  0  0  0  0  0  0  0  0
    6.5590  -16.3241   22.2581 O   0  0  0  0  0  0  0  0  0  0  0  0
   10.0489  -14.3677   14.6377 N   0  0  0  0  0  0  0  0  0  0  0  0
    8.8408  -16.1402   22.4387 C   0  0  0  0  0  0  0  0  0  0  0  0
   10.1771  -15.9448   21.8791 C   0  0  0  0  0  0  0  0  0  0  0  0
   11.1504  -15.9395   23.0085 C   0  0  0  0  0  0  0  0  0  0  0  0
   10.4003  -16.5497   24.1460 C   0  0  1  0  0  0  0  0  0  0  0  0
    8.9469  -16.2219   23.8693 C   0  0  0  0  0  0  0  0  0  0  0  0
    8.7191  -14.8697   24.5014 O   0  0  0  0  0  0  0  0  0  0  0  0
    9.2320  -13.8805   23.9306 N   0  0  0  0  0  0  0  0  0  0  0  0
    7.9755  -14.6656   25.6761 C   0  0  1  0  0  0  0  0  0  0  0  0
    7.7171  -13.4110   26.2993 C   0  0  0  0  0  0  0  0  0  0  0  0
    6.2763  -13.0769   26.5098 S   0  0  0  0  0  0  0  0  0  0  0  0
    6.2279  -11.3967   27.2488 C   0  0  0  0  0  0  0  0  0  0  0  0
    8.4068  -13.2601   27.6110 O   0  0  0  0  0  0  0  0  0  0  0  0
    8.7864  -14.2866   28.2259 O   0  0  0  0  0  0  0  0  0  0  0  0
  2  1  1  0
  2  3  2  0
  4  5  1  0
  4  2  1  0
  6  5  1  0
  6  7  1  0
  7  8  1  0
  8 10  1  0
  8  9  1  6
 10 12  1  0
 11 10  2  0
 12 13  1  0
 12 16  1  0
 13 14  1  0
 14 15  1  0
 16 15  1  0
 17 19  1  0
 16 17  1  1
 18 17  2  0
 20 21  1  1
 20 23  1  0
 20 19  1  0
 22 21  1  0
 23 25  1  0
 24 23  2  0
M  END
$$$$
