RPC.pdb
     RDKit          3D

 25 25  0  0  1  0  0  0  0  0999 V2000
    8.4084  -19.9713   26.4097 N   0  0  0  0  0  0  0  0  0  0  0  0
    7.0570  -19.4945   26.5587 C   0  0  0  0  0  0  0  0  0  0  0  0
    6.5069  -19.5879   27.7124 N   0  0  0  0  0  0  0  0  0  0  0  0
    6.3505  -18.9390   25.4729 N   0  0  0  0  0  0  0  0  0  0  0  0
    6.8231  -19.1849   24.1123 C   0  0  0  0  0  0  0  0  0  0  0  0
    6.6517  -17.9017   23.3597 C   0  0  0  0  0  0  0  0  0  0  0  0
    5.3943  -17.7469   22.5872 C   0  0  0  0  0  0  0  0  0  0  0  0
    5.5590  -17.3210   21.1510 C   0  0  2  0  0  0  0  0  0  0  0  0
    5.3799  -18.5659   20.3651 N   0  0  0  0  0  0  0  0  0  0  0  0
    6.9776  -16.9120   20.9345 C   0  0  0  0  0  0  0  0  0  0  0  0
    7.8150  -17.7984   20.6081 O   0  0  0  0  0  0  0  0  0  0  0  0
    5.5662  -19.2615   27.9693 N   0  0  0  0  0  0  0  0  0  0  0  0
    7.4452  -15.5799   21.0715 C   0  0  0  0  0  0  0  0  0  0  0  0
    6.6282  -14.4825   21.5866 C   0  0  0  0  0  0  0  0  0  0  0  0
    7.4604  -13.2457   21.5718 C   0  0  0  0  0  0  0  0  0  0  0  0
    8.5954  -13.5745   20.6593 C   0  0  2  0  0  0  0  0  0  0  0  0
    8.7573  -15.0770   20.7715 C   0  0  0  0  0  0  0  0  0  0  0  0
    9.6917  -15.2880   21.9386 O   0  0  0  0  0  0  0  0  0  0  0  0
    9.3271  -14.8383   23.0486 N   0  0  0  0  0  0  0  0  0  0  0  0
   10.9276  -15.9504   21.8471 C   0  0  1  0  0  0  0  0  0  0  0  0
   11.8448  -16.1684   22.9151 C   0  0  0  0  0  0  0  0  0  0  0  0
   12.0181  -17.5901   23.3399 S   0  0  0  0  0  0  0  0  0  0  0  0
   10.3514  -18.2095   23.7983 C   0  0  0  0  0  0  0  0  0  0  0  0
   13.2005  -15.6163   22.6393 O   0  0  0  0  0  0  0  0  0  0  0  0
   13.4652  -15.1855   21.4902 O   0  0  0  0  0  0  0  0  0  0  0  0
  2  1  1  0
  2  3  2  0
  4  5  1  0
  4  2  1  0
  6  5  1  0
  6  7  1  0
  7  8  1  0
  8 10  1  0
  8  9  1  6
 10 12  1  0
 11 10  2  0
 12 13  1  0
 12 16  1  0
 13 14  1  0
 14 15  1  0
 16 15  1  0
 17 19  1  0
 16 17  1  1
 18 17  2  0
 20 21  1  1
 20 23  1  0
 20 19  1  0
 22 21  1  0
 23 25  1  0
 24 23  2  0
M  END
$$$$
