RPC.pdb
     RDKit          3D

 25 25  0  0  1  0  0  0  0  0999 V2000
    5.7796  -19.4441   25.0428 N   0  0  0  0  0  0  0  0  0  0  0  0
    7.1974  -19.4536   24.7869 C   0  0  0  0  0  0  0  0  0  0  0  0
    7.9797  -19.8228   25.7325 N   0  0  0  0  0  0  0  0  0  0  0  0
    7.7203  -19.0697   23.5356 N   0  0  0  0  0  0  0  0  0  0  0  0
    6.8332  -18.4603   22.5472 C   0  0  0  0  0  0  0  0  0  0  0  0
    7.0288  -16.9793   22.6500 C   0  0  0  0  0  0  0  0  0  0  0  0
    7.9336  -16.3574   21.6519 C   0  0  0  0  0  0  0  0  0  0  0  0
    8.1074  -14.8650   21.7692 C   0  0  2  0  0  0  0  0  0  0  0  0
    9.1122  -14.5195   20.7345 N   0  0  0  0  0  0  0  0  0  0  0  0
    8.7595  -14.5621   23.0767 C   0  0  0  0  0  0  0  0  0  0  0  0
    9.9994  -14.7693   23.1917 O   0  0  0  0  0  0  0  0  0  0  0  0
    9.0018  -19.9218   25.6768 N   0  0  0  0  0  0  0  0  0  0  0  0
    8.0679  -14.0504   24.2045 C   0  0  0  0  0  0  0  0  0  0  0  0
    6.6190  -13.8617   24.2503 C   0  0  0  0  0  0  0  0  0  0  0  0
    6.2719  -13.3019   25.5878 C   0  0  0  0  0  0  0  0  0  0  0  0
    7.5688  -12.7911   26.1227 C   0  0  2  0  0  0  0  0  0  0  0  0
    8.6242  -13.6614   25.4708 C   0  0  0  0  0  0  0  0  0  0  0  0
    8.7693  -14.8566   26.3821 O   0  0  0  0  0  0  0  0  0  0  0  0
    8.2669  -15.9348   25.9915 N   0  0  0  0  0  0  0  0  0  0  0  0
    9.4262  -14.8241   27.6238 C   0  0  1  0  0  0  0  0  0  0  0  0
   10.5180  -15.6497   28.0183 C   0  0  0  0  0  0  0  0  0  0  0  0
   11.1163  -15.3389   29.3514 S   0  0  0  0  0  0  0  0  0  0  0  0
   10.9473  -13.5268   29.5950 C   0  0  0  0  0  0  0  0  0  0  0  0
   10.1837  -17.1012   28.0062 O   0  0  0  0  0  0  0  0  0  0  0  0
    9.0065  -17.4573   27.7542 O   0  0  0  0  0  0  0  0  0  0  0  0
  2  1  1  0
  2  3  2  0
  4  5  1  0
  4  2  1  0
  6  5  1  0
  6  7  1  0
  7  8  1  0
  8 10  1  0
  8  9  1  6
 10 12  1  0
 11 10  2  0
 12 13  1  0
 12 16  1  0
 13 14  1  0
 14 15  1  0
 16 15  1  0
 17 19  1  0
 16 17  1  1
 18 17  2  0
 20 21  1  1
 20 23  1  0
 20 19  1  0
 22 21  1  0
 23 25  1  0
 24 23  2  0
M  END
$$$$
