RPC.pdb
     RDKit          3D

 25 25  0  0  1  0  0  0  0  0999 V2000
    7.0395  -20.8869   24.2152 N   0  0  0  0  0  0  0  0  0  0  0  0
    5.8067  -20.9432   23.4716 C   0  0  0  0  0  0  0  0  0  0  0  0
    5.1695  -22.0547   23.4412 N   0  0  0  0  0  0  0  0  0  0  0  0
    5.3063  -19.8137   22.7930 N   0  0  0  0  0  0  0  0  0  0  0  0
    5.5268  -19.6892   21.3539 C   0  0  0  0  0  0  0  0  0  0  0  0
    6.9650  -19.3146   21.1708 C   0  0  0  0  0  0  0  0  0  0  0  0
    7.4470  -19.1908   19.7729 C   0  0  0  0  0  0  0  0  0  0  0  0
    7.2370  -17.8456   19.1268 C   0  0  2  0  0  0  0  0  0  0  0  0
    7.5672  -18.0579   17.6967 N   0  0  0  0  0  0  0  0  0  0  0  0
    8.2731  -16.9028   19.6408 C   0  0  0  0  0  0  0  0  0  0  0  0
    9.4828  -17.2615   19.6036 O   0  0  0  0  0  0  0  0  0  0  0  0
    4.2786  -22.2356   22.9606 N   0  0  0  0  0  0  0  0  0  0  0  0
    7.9806  -15.6195   20.1697 C   0  0  0  0  0  0  0  0  0  0  0  0
    6.6326  -15.0576   20.2356 C   0  0  0  0  0  0  0  0  0  0  0  0
    6.7317  -13.6992   20.8419 C   0  0  0  0  0  0  0  0  0  0  0  0
    8.1775  -13.3461   20.7238 C   0  0  2  0  0  0  0  0  0  0  0  0
    8.9021  -14.6769   20.7414 C   0  0  0  0  0  0  0  0  0  0  0  0
    9.1399  -14.9784   22.2016 O   0  0  0  0  0  0  0  0  0  0  0  0
    8.1378  -15.2681   22.8939 N   0  0  0  0  0  0  0  0  0  0  0  0
   10.4040  -14.9515   22.8148 C   0  0  2  0  0  0  0  0  0  0  0  0
   10.9045  -15.9028   23.7495 C   0  0  0  0  0  0  0  0  0  0  0  0
   10.2036  -17.2219   23.7695 S   0  0  0  0  0  0  0  0  0  0  0  0
    9.9976  -17.6820   25.5352 C   0  0  0  0  0  0  0  0  0  0  0  0
   12.3598  -16.1729   23.5817 O   0  0  0  0  0  0  0  0  0  0  0  0
   13.1183  -16.0875   24.5784 O   0  0  0  0  0  0  0  0  0  0  0  0
  2  1  1  0
  2  3  2  0
  4  5  1  0
  4  2  1  0
  6  5  1  0
  6  7  1  0
  7  8  1  0
  8 10  1  0
  8  9  1  6
 10 12  1  0
 11 10  2  0
 12 13  1  0
 12 16  1  0
 13 14  1  0
 14 15  1  0
 16 15  1  0
 17 19  1  0
 16 17  1  1
 18 17  2  0
 20 21  1  1
 20 23  1  0
 20 19  1  0
 22 21  1  0
 23 25  1  0
 24 23  2  0
M  END
$$$$
