RPC.pdb
     RDKit          3D

 25 25  0  0  1  0  0  0  0  0999 V2000
    8.9742  -14.3633   15.6200 N   0  0  0  0  0  0  0  0  0  0  0  0
    8.0856  -14.1230   16.7284 C   0  0  0  0  0  0  0  0  0  0  0  0
    7.5373  -12.9686   16.8241 N   0  0  0  0  0  0  0  0  0  0  0  0
    7.8196  -15.1222   17.6862 N   0  0  0  0  0  0  0  0  0  0  0  0
    8.2678  -14.9289   19.0635 C   0  0  0  0  0  0  0  0  0  0  0  0
    7.0351  -14.7564   19.8960 C   0  0  0  0  0  0  0  0  0  0  0  0
    7.2303  -14.6795   21.3649 C   0  0  0  0  0  0  0  0  0  0  0  0
    7.8462  -13.4024   21.8754 C   0  0  2  0  0  0  0  0  0  0  0  0
    9.0034  -13.1574   20.9808 N   0  0  0  0  0  0  0  0  0  0  0  0
    8.4307  -13.6606   23.2239 C   0  0  0  0  0  0  0  0  0  0  0  0
    9.5421  -14.2553   23.2928 O   0  0  0  0  0  0  0  0  0  0  0  0
    6.8880  -12.6593   17.5592 N   0  0  0  0  0  0  0  0  0  0  0  0
    7.8117  -13.2745   24.4403 C   0  0  0  0  0  0  0  0  0  0  0  0
    6.4652  -12.7109   24.5217 C   0  0  0  0  0  0  0  0  0  0  0  0
    6.1734  -12.4272   25.9560 C   0  0  0  0  0  0  0  0  0  0  0  0
    7.5124  -12.4433   26.6161 C   0  0  1  0  0  0  0  0  0  0  0  0
    8.3486  -13.3810   25.7688 C   0  0  0  0  0  0  0  0  0  0  0  0
    8.0997  -14.7569   26.3384 O   0  0  0  0  0  0  0  0  0  0  0  0
    7.1635  -15.4200   25.8372 N   0  0  0  0  0  0  0  0  0  0  0  0
    8.8493  -15.3232   27.3834 C   0  0  1  0  0  0  0  0  0  0  0  0
    9.5432  -16.5666   27.3413 C   0  0  0  0  0  0  0  0  0  0  0  0
   10.5508  -16.7093   26.2475 S   0  0  0  0  0  0  0  0  0  0  0  0
   11.2361  -18.4075   26.3812 C   0  0  0  0  0  0  0  0  0  0  0  0
   10.2264  -16.8951   28.6235 O   0  0  0  0  0  0  0  0  0  0  0  0
   10.9528  -16.0296   29.1707 O   0  0  0  0  0  0  0  0  0  0  0  0
  2  1  1  0
  2  3  2  0
  4  5  1  0
  4  2  1  0
  6  5  1  0
  6  7  1  0
  7  8  1  0
  8 10  1  0
  8  9  1  6
 10 12  1  0
 11 10  2  0
 12 13  1  0
 12 16  1  0
 13 14  1  0
 14 15  1  0
 16 15  1  0
 17 19  1  0
 16 17  1  1
 18 17  2  0
 20 21  1  1
 20 23  1  0
 20 19  1  0
 22 21  1  0
 23 25  1  0
 24 23  2  0
M  END
$$$$
