RPC.pdb
     RDKit          3D

 25 25  0  0  1  0  0  0  0  0999 V2000
    2.2622  -20.8278   21.8393 N   0  0  0  0  0  0  0  0  0  0  0  0
    1.9715  -20.2632   20.5460 C   0  0  0  0  0  0  0  0  0  0  0  0
    0.7619  -20.3077   20.1251 N   0  0  0  0  0  0  0  0  0  0  0  0
    2.9814  -19.6758   19.7574 N   0  0  0  0  0  0  0  0  0  0  0  0
    4.3515  -19.6371   20.2640 C   0  0  0  0  0  0  0  0  0  0  0  0
    5.1675  -18.9108   19.2399 C   0  0  0  0  0  0  0  0  0  0  0  0
    5.8908  -17.7005   19.7025 C   0  0  0  0  0  0  0  0  0  0  0  0
    6.8819  -17.1199   18.7270 C   0  0  2  0  0  0  0  0  0  0  0  0
    7.5402  -18.2978   18.1115 N   0  0  0  0  0  0  0  0  0  0  0  0
    7.9524  -16.4193   19.4949 C   0  0  0  0  0  0  0  0  0  0  0  0
    8.9938  -17.0648   19.7990 O   0  0  0  0  0  0  0  0  0  0  0  0
    0.4101  -19.9317   19.2349 N   0  0  0  0  0  0  0  0  0  0  0  0
    7.8723  -15.0637   19.9047 C   0  0  0  0  0  0  0  0  0  0  0  0
    6.6773  -14.2372   19.7439 C   0  0  0  0  0  0  0  0  0  0  0  0
    6.9824  -12.8810   20.2827 C   0  0  0  0  0  0  0  0  0  0  0  0
    8.4729  -12.8388   20.3559 C   0  0  1  0  0  0  0  0  0  0  0  0
    8.8903  -14.2824   20.5511 C   0  0  0  0  0  0  0  0  0  0  0  0
    8.8668  -14.5024   22.0447 O   0  0  0  0  0  0  0  0  0  0  0  0
    7.7461  -14.5016   22.6029 N   0  0  0  0  0  0  0  0  0  0  0  0
   10.0155  -14.7040   22.8284 C   0  0  1  0  0  0  0  0  0  0  0  0
   10.1007  -15.5044   24.0038 C   0  0  0  0  0  0  0  0  0  0  0  0
    9.5579  -16.8911   23.8837 S   0  0  0  0  0  0  0  0  0  0  0  0
    9.7645  -17.6815   25.5281 C   0  0  0  0  0  0  0  0  0  0  0  0
   11.4882  -15.6123   24.5347 O   0  0  0  0  0  0  0  0  0  0  0  0
   12.4579  -15.4614   23.7518 O   0  0  0  0  0  0  0  0  0  0  0  0
  2  1  1  0
  2  3  2  0
  4  5  1  0
  4  2  1  0
  6  5  1  0
  6  7  1  0
  7  8  1  0
  8 10  1  0
  8  9  1  1
 10 12  1  0
 11 10  2  0
 12 13  1  0
 12 16  1  0
 13 14  1  0
 14 15  1  0
 16 15  1  0
 17 19  1  0
 16 17  1  1
 18 17  2  0
 20 21  1  1
 20 23  1  0
 20 19  1  0
 22 21  1  0
 23 25  1  0
 24 23  2  0
M  END
$$$$
