VKQ.pdb
     RDKit          3D

 26 25  0  0  1  0  0  0  0  0999 V2000
    7.4595  -16.3476   19.6531 C   0  0  0  0  0  0  0  0  0  0  0  0
    8.2837  -15.3267   18.8749 C   0  0  1  0  0  0  0  0  0  0  0  0
    7.8409  -15.4356   17.4326 C   0  0  0  0  0  0  0  0  0  0  0  0
    7.9403  -13.9586   19.4345 C   0  0  2  0  0  0  0  0  0  0  0  0
    8.5488  -12.9000   18.6543 N   0  0  0  0  0  0  0  0  0  0  0  0
    8.2905  -13.8551   20.8706 C   0  0  0  0  0  0  0  0  0  0  0  0
    9.5092  -13.8570   21.2002 O   0  0  0  0  0  0  0  0  0  0  0  0
    7.3205  -13.7534   21.8990 N   0  0  0  0  0  0  0  0  0  0  0  0
    7.7398  -13.5884   23.2522 C   0  0  1  0  0  0  0  0  0  0  0  0
    6.6275  -13.1267   24.1657 C   0  0  0  0  0  0  0  0  0  0  0  0
    7.0549  -12.9651   25.5855 C   0  0  0  0  0  0  0  0  0  0  0  0
    5.8720  -12.3865   26.3520 C   0  0  0  0  0  0  0  0  0  0  0  0
    6.2038  -12.1887   27.8135 C   0  0  0  0  0  0  0  0  0  0  0  0
    4.9958  -11.7076   28.4596 N   0  0  0  0  0  0  0  0  0  0  0  0
    8.2051  -14.8923   23.7928 C   0  0  0  0  0  0  0  0  0  0  0  0
    7.5240  -15.9206   23.5838 O   0  0  0  0  0  0  0  0  0  0  0  0
   13.4655  -16.8396   22.4126 N   0  0  0  0  0  0  0  0  0  0  0  0
   13.0838  -17.8817   23.2784 C   0  0  0  0  0  0  0  0  0  0  0  0
   13.7116  -18.9559   23.2656 O   0  0  0  0  0  0  0  0  0  0  0  0
   11.9299  -17.7222   24.2205 C   0  0  0  0  0  0  0  0  0  0  0  0
   11.1778  -16.4603   23.9440 C   0  0  0  0  0  0  0  0  0  0  0  0
    9.9633  -16.3284   24.8209 C   0  0  2  0  0  0  0  0  0  0  0  0
    9.3898  -15.0007   24.5325 N   0  0  0  0  0  0  0  0  0  0  0  0
   10.3022  -16.4259   26.2439 C   0  0  0  0  0  0  0  0  0  0  0  0
   10.1101  -15.4035   27.1518 O   0  0  0  0  0  0  0  0  0  0  0  0
   10.8074  -17.4923   26.7184 O   0  0  0  0  0  0  0  0  0  0  0  0
  2  4  1  0
  2  1  1  1
  3  2  1  0
  4  6  1  0
  4  5  1  6
  6  7  2  0
  8  9  1  0
  8  6  1  0
 10 11  1  0
  9 10  1  1
 11 12  1  0
 12 13  1  0
 13 14  1  0
 15  9  1  0
 15 16  2  0
 17 18  1  0
 18 20  1  0
 19 18  2  0
 20 21  1  0
 22 21  1  6
 22 23  1  0
 22 24  1  0
 23 15  1  0
 24 26  2  0
 24 25  1  0
M  END
$$$$
