VKQ.pdb
     RDKit          3D

 26 25  0  0  1  0  0  0  0  0999 V2000
    9.0301  -12.1251   18.1431 C   0  0  0  0  0  0  0  0  0  0  0  0
    9.1738  -12.9954   19.3878 C   0  0  1  0  0  0  0  0  0  0  0  0
    8.5190  -12.2311   20.5169 C   0  0  0  0  0  0  0  0  0  0  0  0
    8.4252  -14.2871   19.1160 C   0  0  2  0  0  0  0  0  0  0  0  0
    7.0488  -14.0322   18.7416 N   0  0  0  0  0  0  0  0  0  0  0  0
    8.5201  -15.2220   20.2617 C   0  0  0  0  0  0  0  0  0  0  0  0
    7.7709  -15.0361   21.2608 O   0  0  0  0  0  0  0  0  0  0  0  0
    9.4147  -16.3208   20.2928 N   0  0  0  0  0  0  0  0  0  0  0  0
    9.4814  -17.1452   21.4548 C   0  0  1  0  0  0  0  0  0  0  0  0
    9.0729  -18.5763   21.1909 C   0  0  0  0  0  0  0  0  0  0  0  0
    7.8163  -18.6974   20.3964 C   0  0  0  0  0  0  0  0  0  0  0  0
    7.5312  -20.1841   20.2228 C   0  0  0  0  0  0  0  0  0  0  0  0
    6.2620  -20.4151   19.4349 C   0  0  0  0  0  0  0  0  0  0  0  0
    6.0223  -21.8471   19.4304 N   0  0  0  0  0  0  0  0  0  0  0  0
   10.8821  -17.1988   21.9488 C   0  0  0  0  0  0  0  0  0  0  0  0
   11.8242  -17.0986   21.1319 O   0  0  0  0  0  0  0  0  0  0  0  0
   15.3657  -15.3593   20.4187 N   0  0  0  0  0  0  0  0  0  0  0  0
   14.8447  -15.4423   21.7236 C   0  0  0  0  0  0  0  0  0  0  0  0
   15.5483  -15.1022   22.6918 O   0  0  0  0  0  0  0  0  0  0  0  0
   13.4516  -15.9348   21.9712 C   0  0  0  0  0  0  0  0  0  0  0  0
   13.1835  -16.0827   23.4343 C   0  0  0  0  0  0  0  0  0  0  0  0
   12.5788  -17.4203   23.7606 C   0  0  2  0  0  0  0  0  0  0  0  0
   11.1762  -17.3590   23.3090 N   0  0  0  0  0  0  0  0  0  0  0  0
   12.6271  -17.7071   25.1975 C   0  0  0  0  0  0  0  0  0  0  0  0
   11.5085  -17.7917   26.0027 O   0  0  0  0  0  0  0  0  0  0  0  0
   13.7399  -17.8940   25.7843 O   0  0  0  0  0  0  0  0  0  0  0  0
  2  4  1  0
  2  1  1  6
  3  2  1  0
  4  6  1  0
  4  5  1  1
  6  7  2  0
  8  9  1  0
  8  6  1  0
 10 11  1  0
  9 10  1  6
 11 12  1  0
 12 13  1  0
 13 14  1  0
 15  9  1  0
 15 16  2  0
 17 18  1  0
 18 20  1  0
 19 18  2  0
 20 21  1  0
 22 21  1  1
 22 23  1  0
 22 24  1  0
 23 15  1  0
 24 26  2  0
 24 25  1  0
M  END
$$$$
