VKQ.pdb
     RDKit          3D

 26 25  0  0  1  0  0  0  0  0999 V2000
   10.6009  -25.2616   14.1899 C   0  0  0  0  0  0  0  0  0  0  0  0
   10.0580  -24.1247   13.3298 C   0  0  1  0  0  0  0  0  0  0  0  0
   10.2180  -24.5674   11.8923 C   0  0  0  0  0  0  0  0  0  0  0  0
    8.5892  -23.9668   13.6771 C   0  0  2  0  0  0  0  0  0  0  0  0
    7.9703  -22.9167   12.8936 N   0  0  0  0  0  0  0  0  0  0  0  0
    8.3937  -23.7572   15.1309 C   0  0  0  0  0  0  0  0  0  0  0  0
    8.8135  -22.6865   15.6519 O   0  0  0  0  0  0  0  0  0  0  0  0
    7.7554  -24.7035   15.9710 N   0  0  0  0  0  0  0  0  0  0  0  0
    7.6150  -24.4307   17.3639 C   0  0  1  0  0  0  0  0  0  0  0  0
    6.3380  -24.9866   17.9513 C   0  0  0  0  0  0  0  0  0  0  0  0
    6.0899  -24.5460   19.3546 C   0  0  0  0  0  0  0  0  0  0  0  0
    4.7681  -25.1621   19.7962 C   0  0  0  0  0  0  0  0  0  0  0  0
    4.4087  -24.7482   21.2049 C   0  0  0  0  0  0  0  0  0  0  0  0
    3.1965  -25.4643   21.5594 N   0  0  0  0  0  0  0  0  0  0  0  0
    8.7280  -25.0709   18.1123 C   0  0  0  0  0  0  0  0  0  0  0  0
    9.2143  -26.1430   17.6892 O   0  0  0  0  0  0  0  0  0  0  0  0
   14.5070  -24.5715   18.8274 N   0  0  0  0  0  0  0  0  0  0  0  0
   13.6480  -25.3962   19.5778 C   0  0  0  0  0  0  0  0  0  0  0  0
   13.6486  -26.6255   19.3853 O   0  0  0  0  0  0  0  0  0  0  0  0
   12.7275  -24.8198   20.6098 C   0  0  0  0  0  0  0  0  0  0  0  0
   11.5105  -24.2264   19.9765 C   0  0  0  0  0  0  0  0  0  0  0  0
   10.3442  -25.1753   20.0064 C   0  0  2  0  0  0  0  0  0  0  0  0
    9.2487  -24.5038   19.2826 N   0  0  0  0  0  0  0  0  0  0  0  0
    9.9219  -25.4808   21.3766 C   0  0  0  0  0  0  0  0  0  0  0  0
    9.6312  -26.7537   21.8259 O   0  0  0  0  0  0  0  0  0  0  0  0
    9.7987  -24.5540   22.2390 O   0  0  0  0  0  0  0  0  0  0  0  0
  2  4  1  0
  2  1  1  1
  3  2  1  0
  4  6  1  0
  4  5  1  6
  6  7  2  0
  8  9  1  0
  8  6  1  0
 10 11  1  0
  9 10  1  1
 11 12  1  0
 12 13  1  0
 13 14  1  0
 15  9  1  0
 15 16  2  0
 17 18  1  0
 18 20  1  0
 19 18  2  0
 20 21  1  0
 22 21  1  1
 22 23  1  0
 22 24  1  0
 23 15  1  0
 24 26  2  0
 24 25  1  0
M  END
$$$$
