VKQ.pdb
     RDKit          3D

 26 25  0  0  1  0  0  0  0  0999 V2000
    8.7863  -12.7759   20.6490 C   0  0  0  0  0  0  0  0  0  0  0  0
    7.8606  -13.3526   19.5823 C   0  0  1  0  0  0  0  0  0  0  0  0
    8.3206  -12.7722   18.2635 C   0  0  0  0  0  0  0  0  0  0  0  0
    8.0504  -14.8581   19.5957 C   0  0  2  0  0  0  0  0  0  0  0  0
    7.3602  -15.4882   18.4883 N   0  0  0  0  0  0  0  0  0  0  0  0
    7.6534  -15.4447   20.8973 C   0  0  0  0  0  0  0  0  0  0  0  0
    6.4548  -15.3269   21.2762 O   0  0  0  0  0  0  0  0  0  0  0  0
    8.5567  -16.1354   21.7433 N   0  0  0  0  0  0  0  0  0  0  0  0
    8.0894  -16.6951   22.9691 C   0  0  1  0  0  0  0  0  0  0  0  0
    8.4616  -18.1506   23.1365 C   0  0  0  0  0  0  0  0  0  0  0  0
    8.0234  -18.7285   24.4399 C   0  0  0  0  0  0  0  0  0  0  0  0
    8.3678  -20.2126   24.4164 C   0  0  0  0  0  0  0  0  0  0  0  0
    7.8110  -20.9284   25.6258 C   0  0  0  0  0  0  0  0  0  0  0  0
    8.1684  -22.3290   25.4893 N   0  0  0  0  0  0  0  0  0  0  0  0
    8.7069  -15.9756   24.1136 C   0  0  0  0  0  0  0  0  0  0  0  0
    9.9232  -15.6862   24.0712 O   0  0  0  0  0  0  0  0  0  0  0  0
    5.6615  -12.1685   27.7885 N   0  0  0  0  0  0  0  0  0  0  0  0
    6.4350  -11.7987   26.6723 C   0  0  0  0  0  0  0  0  0  0  0  0
    6.2492  -10.6937   26.1313 O   0  0  0  0  0  0  0  0  0  0  0  0
    7.4838  -12.7146   26.1193 C   0  0  0  0  0  0  0  0  0  0  0  0
    7.5842  -13.9694   26.9255 C   0  0  0  0  0  0  0  0  0  0  0  0
    8.6120  -14.9140   26.3663 C   0  0  2  0  0  0  0  0  0  0  0  0
    7.9609  -15.6119   25.2420 N   0  0  0  0  0  0  0  0  0  0  0  0
    9.0604  -15.8890   27.3649 C   0  0  0  0  0  0  0  0  0  0  0  0
   10.0000  -15.6153   28.3390 O   0  0  0  0  0  0  0  0  0  0  0  0
    8.5886  -17.0701   27.3754 O   0  0  0  0  0  0  0  0  0  0  0  0
  2  4  1  0
  2  1  1  1
  3  2  1  0
  4  6  1  0
  4  5  1  6
  6  7  2  0
  8  9  1  0
  8  6  1  0
 10 11  1  0
  9 10  1  6
 11 12  1  0
 12 13  1  0
 13 14  1  0
 15  9  1  0
 15 16  2  0
 17 18  1  0
 18 20  1  0
 19 18  2  0
 20 21  1  0
 22 21  1  1
 22 23  1  0
 22 24  1  0
 23 15  1  0
 24 26  2  0
 24 25  1  0
M  END
$$$$
