VKQ.pdb
     RDKit          3D

 26 25  0  0  1  0  0  0  0  0999 V2000
    9.1769  -12.8122   20.7327 C   0  0  0  0  0  0  0  0  0  0  0  0
    7.7466  -13.0646   20.2661 C   0  0  1  0  0  0  0  0  0  0  0  0
    7.5693  -12.2669   18.9933 C   0  0  0  0  0  0  0  0  0  0  0  0
    7.6270  -14.5507   19.9831 C   0  0  2  0  0  0  0  0  0  0  0  0
    6.3906  -14.8601   19.2938 N   0  0  0  0  0  0  0  0  0  0  0  0
    7.7845  -15.3538   21.2184 C   0  0  0  0  0  0  0  0  0  0  0  0
    6.8174  -15.4200   22.0272 O   0  0  0  0  0  0  0  0  0  0  0  0
    8.9732  -16.0557   21.5396 N   0  0  0  0  0  0  0  0  0  0  0  0
    9.0203  -16.8664   22.7121 C   0  0  1  0  0  0  0  0  0  0  0  0
    9.7484  -18.1740   22.5001 C   0  0  0  0  0  0  0  0  0  0  0  0
    9.0496  -19.0958   21.5584 C   0  0  0  0  0  0  0  0  0  0  0  0
    9.8887  -20.3638   21.4590 C   0  0  0  0  0  0  0  0  0  0  0  0
    9.2289  -21.3950   20.5721 C   0  0  0  0  0  0  0  0  0  0  0  0
   10.0881  -22.5654   20.5738 N   0  0  0  0  0  0  0  0  0  0  0  0
    9.7592  -16.1503   23.7845 C   0  0  0  0  0  0  0  0  0  0  0  0
   10.4855  -15.1772   23.4836 O   0  0  0  0  0  0  0  0  0  0  0  0
    6.0597  -13.1748   25.4498 N   0  0  0  0  0  0  0  0  0  0  0  0
    6.7873  -12.9355   26.6307 C   0  0  0  0  0  0  0  0  0  0  0  0
    6.4065  -12.0546   27.4225 O   0  0  0  0  0  0  0  0  0  0  0  0
    8.0185  -13.7252   26.9550 C   0  0  0  0  0  0  0  0  0  0  0  0
    8.3189  -14.7216   25.8819 C   0  0  0  0  0  0  0  0  0  0  0  0
    9.5590  -15.5159   26.1862 C   0  0  2  0  0  0  0  0  0  0  0  0
    9.6636  -16.5372   25.1274 N   0  0  0  0  0  0  0  0  0  0  0  0
    9.4851  -16.1651   27.4985 C   0  0  0  0  0  0  0  0  0  0  0  0
    9.1835  -17.5002   27.6801 O   0  0  0  0  0  0  0  0  0  0  0  0
    9.7007  -15.5026   28.5627 O   0  0  0  0  0  0  0  0  0  0  0  0
  2  4  1  0
  2  1  1  6
  3  2  1  0
  4  6  1  0
  4  5  1  1
  6  7  2  0
  8  9  1  0
  8  6  1  0
 10 11  1  0
  9 10  1  6
 11 12  1  0
 12 13  1  0
 13 14  1  0
 15  9  1  0
 15 16  2  0
 17 18  1  0
 18 20  1  0
 19 18  2  0
 20 21  1  0
 22 21  1  6
 22 23  1  0
 22 24  1  0
 23 15  1  0
 24 26  2  0
 24 25  1  0
M  END
$$$$
