VKQ.pdb
     RDKit          3D

 26 25  0  0  1  0  0  0  0  0999 V2000
    6.3976  -17.1660   27.0566 C   0  0  0  0  0  0  0  0  0  0  0  0
    7.4515  -16.8400   26.0029 C   0  0  1  0  0  0  0  0  0  0  0  0
    8.7089  -17.5690   26.4218 C   0  0  0  0  0  0  0  0  0  0  0  0
    6.9397  -17.3798   24.6803 C   0  0  2  0  0  0  0  0  0  0  0  0
    6.6698  -18.8014   24.7579 N   0  0  0  0  0  0  0  0  0  0  0  0
    7.8617  -17.0544   23.5668 C   0  0  0  0  0  0  0  0  0  0  0  0
    8.6148  -17.9624   23.1169 O   0  0  0  0  0  0  0  0  0  0  0  0
    7.9413  -15.7677   22.9779 N   0  0  0  0  0  0  0  0  0  0  0  0
    8.9252  -15.5074   21.9787 C   0  0  1  0  0  0  0  0  0  0  0  0
    8.6889  -14.2117   21.2371 C   0  0  0  0  0  0  0  0  0  0  0  0
    7.4531  -14.2232   20.4020 C   0  0  0  0  0  0  0  0  0  0  0  0
    7.5860  -13.1010   19.3800 C   0  0  0  0  0  0  0  0  0  0  0  0
    7.9793  -13.6345   18.0214 C   0  0  0  0  0  0  0  0  0  0  0  0
    8.0077  -12.5010   17.1145 N   0  0  0  0  0  0  0  0  0  0  0  0
   10.2621  -15.3821   22.6156 C   0  0  0  0  0  0  0  0  0  0  0  0
   10.3390  -15.0458   23.8181 O   0  0  0  0  0  0  0  0  0  0  0  0
   12.7112  -20.4352   24.2164 N   0  0  0  0  0  0  0  0  0  0  0  0
   12.9770  -19.1907   24.8178 C   0  0  0  0  0  0  0  0  0  0  0  0
   12.8494  -19.0602   26.0486 O   0  0  0  0  0  0  0  0  0  0  0  0
   13.4130  -18.0133   24.0005 C   0  0  0  0  0  0  0  0  0  0  0  0
   12.2479  -17.3620   23.3276 C   0  0  0  0  0  0  0  0  0  0  0  0
   12.6478  -16.1027   22.6095 C   0  0  2  0  0  0  0  0  0  0  0  0
   11.4421  -15.6314   21.9030 N   0  0  0  0  0  0  0  0  0  0  0  0
   13.7277  -16.3406   21.6471 C   0  0  0  0  0  0  0  0  0  0  0  0
   15.0658  -16.3752   21.9859 O   0  0  0  0  0  0  0  0  0  0  0  0
   13.4692  -16.5293   20.4161 O   0  0  0  0  0  0  0  0  0  0  0  0
  2  4  1  0
  2  1  1  1
  3  2  1  0
  4  6  1  0
  4  5  1  1
  6  7  2  0
  8  9  1  0
  8  6  1  0
 10 11  1  0
  9 10  1  1
 11 12  1  0
 12 13  1  0
 13 14  1  0
 15  9  1  0
 15 16  2  0
 17 18  1  0
 18 20  1  0
 19 18  2  0
 20 21  1  0
 22 21  1  6
 22 23  1  0
 22 24  1  0
 23 15  1  0
 24 26  2  0
 24 25  1  0
M  END
$$$$
