VKQ.pdb
     RDKit          3D

 26 25  0  0  1  0  0  0  0  0999 V2000
    6.0619  -11.4930   27.3375 C   0  0  0  0  0  0  0  0  0  0  0  0
    6.9943  -12.2645   26.4088 C   0  0  1  0  0  0  0  0  0  0  0  0
    8.1477  -12.7387   27.2647 C   0  0  0  0  0  0  0  0  0  0  0  0
    6.2090  -13.4471   25.8725 C   0  0  2  0  0  0  0  0  0  0  0  0
    5.8319  -14.3574   26.9350 N   0  0  0  0  0  0  0  0  0  0  0  0
    6.9432  -14.1406   24.7881 C   0  0  0  0  0  0  0  0  0  0  0  0
    7.4146  -15.2901   25.0125 O   0  0  0  0  0  0  0  0  0  0  0  0
    7.1441  -13.5752   23.5041 N   0  0  0  0  0  0  0  0  0  0  0  0
    7.6997  -14.3722   22.4599 C   0  0  1  0  0  0  0  0  0  0  0  0
    7.7620  -13.6515   21.1327 C   0  0  0  0  0  0  0  0  0  0  0  0
    8.1614  -14.5328   19.9976 C   0  0  0  0  0  0  0  0  0  0  0  0
    8.0469  -13.7082   18.7214 C   0  0  0  0  0  0  0  0  0  0  0  0
    8.2608  -14.5606   17.4915 C   0  0  0  0  0  0  0  0  0  0  0  0
    7.9650  -13.7250   16.3416 N   0  0  0  0  0  0  0  0  0  0  0  0
    9.1002  -14.7347   22.8003 C   0  0  0  0  0  0  0  0  0  0  0  0
    9.8778  -13.8491   23.2198 O   0  0  0  0  0  0  0  0  0  0  0  0
   10.4604  -19.8686   25.5985 N   0  0  0  0  0  0  0  0  0  0  0  0
   10.4813  -18.6068   26.2218 C   0  0  0  0  0  0  0  0  0  0  0  0
   10.3920  -18.5286   27.4604 O   0  0  0  0  0  0  0  0  0  0  0  0
   10.6096  -17.3485   25.4187 C   0  0  0  0  0  0  0  0  0  0  0  0
   10.7618  -17.6507   23.9627 C   0  0  0  0  0  0  0  0  0  0  0  0
   10.9227  -16.3992   23.1446 C   0  0  2  0  0  0  0  0  0  0  0  0
    9.5742  -16.0458   22.6635 N   0  0  0  0  0  0  0  0  0  0  0  0
   11.8209  -16.6025   22.0039 C   0  0  0  0  0  0  0  0  0  0  0  0
   13.1984  -16.5815   22.0965 O   0  0  0  0  0  0  0  0  0  0  0  0
   11.3532  -16.8116   20.8397 O   0  0  0  0  0  0  0  0  0  0  0  0
  2  4  1  0
  2  1  1  1
  3  2  1  0
  4  6  1  0
  4  5  1  1
  6  7  2  0
  8  9  1  0
  8  6  1  0
 10 11  1  0
  9 10  1  6
 11 12  1  0
 12 13  1  0
 13 14  1  0
 15  9  1  0
 15 16  2  0
 17 18  1  0
 18 20  1  0
 19 18  2  0
 20 21  1  0
 22 21  1  6
 22 23  1  0
 22 24  1  0
 23 15  1  0
 24 26  2  0
 24 25  1  0
M  END
$$$$
