VKQ.pdb
     RDKit          3D

 26 25  0  0  1  0  0  0  0  0999 V2000
    9.2196  -12.6318   18.6646 C   0  0  0  0  0  0  0  0  0  0  0  0
    8.8236  -13.2263   20.0126 C   0  0  1  0  0  0  0  0  0  0  0  0
    7.7767  -12.3013   20.5924 C   0  0  0  0  0  0  0  0  0  0  0  0
    8.2296  -14.5954   19.7374 C   0  0  2  0  0  0  0  0  0  0  0  0
    7.1335  -14.5164   18.7930 N   0  0  0  0  0  0  0  0  0  0  0  0
    7.8284  -15.2759   20.9911 C   0  0  0  0  0  0  0  0  0  0  0  0
    6.8422  -14.8252   21.6379 O   0  0  0  0  0  0  0  0  0  0  0  0
    8.4997  -16.4140   21.5038 N   0  0  0  0  0  0  0  0  0  0  0  0
    8.0433  -17.0191   22.7120 C   0  0  1  0  0  0  0  0  0  0  0  0
    7.7442  -18.4930   22.5609 C   0  0  0  0  0  0  0  0  0  0  0  0
    7.2802  -19.1364   23.8240 C   0  0  0  0  0  0  0  0  0  0  0  0
    7.1143  -20.6243   23.5406 C   0  0  0  0  0  0  0  0  0  0  0  0
    6.4316  -21.3328   24.6882 C   0  0  0  0  0  0  0  0  0  0  0  0
    6.2788  -22.7223   24.2959 N   0  0  0  0  0  0  0  0  0  0  0  0
    9.0999  -16.9155   23.7520 C   0  0  0  0  0  0  0  0  0  0  0  0
   10.2971  -17.0786   23.4278 O   0  0  0  0  0  0  0  0  0  0  0  0
    9.0757  -13.1732   28.6005 N   0  0  0  0  0  0  0  0  0  0  0  0
   10.1482  -14.0197   28.9385 C   0  0  0  0  0  0  0  0  0  0  0  0
   10.8458  -13.7637   29.9365 O   0  0  0  0  0  0  0  0  0  0  0  0
   10.4683  -15.2301   28.1156 C   0  0  0  0  0  0  0  0  0  0  0  0
    9.5105  -15.3779   26.9776 C   0  0  0  0  0  0  0  0  0  0  0  0
    9.8657  -16.5416   26.0939 C   0  0  2  0  0  0  0  0  0  0  0  0
    8.7899  -16.6392   25.0899 N   0  0  0  0  0  0  0  0  0  0  0  0
    9.9570  -17.7948   26.8491 C   0  0  0  0  0  0  0  0  0  0  0  0
    8.9766  -18.7671   26.8468 O   0  0  0  0  0  0  0  0  0  0  0  0
   10.9773  -18.0472   27.5654 O   0  0  0  0  0  0  0  0  0  0  0  0
  2  4  1  0
  2  1  1  6
  3  2  1  0
  4  6  1  0
  4  5  1  6
  6  7  2  0
  8  9  1  0
  8  6  1  0
 10 11  1  0
  9 10  1  6
 11 12  1  0
 12 13  1  0
 13 14  1  0
 15  9  1  0
 15 16  2  0
 17 18  1  0
 18 20  1  0
 19 18  2  0
 20 21  1  0
 22 21  1  1
 22 23  1  0
 22 24  1  0
 23 15  1  0
 24 26  2  0
 24 25  1  0
M  END
$$$$
