VKQ.pdb
     RDKit          3D

 26 25  0  0  1  0  0  0  0  0999 V2000
   11.0684  -23.7981   19.8549 C   0  0  0  0  0  0  0  0  0  0  0  0
   10.6418  -22.8199   18.7648 C   0  0  1  0  0  0  0  0  0  0  0  0
   11.3178  -23.2816   17.4930 C   0  0  0  0  0  0  0  0  0  0  0  0
    9.1338  -22.9288   18.6350 C   0  0  2  0  0  0  0  0  0  0  0  0
    8.6432  -22.1626   17.5072 N   0  0  0  0  0  0  0  0  0  0  0  0
    8.4510  -22.5525   19.8952 C   0  0  0  0  0  0  0  0  0  0  0  0
    8.6330  -21.3936   20.3618 O   0  0  0  0  0  0  0  0  0  0  0  0
    7.5988  -23.4332   20.6072 N   0  0  0  0  0  0  0  0  0  0  0  0
    7.0261  -23.0156   21.8449 C   0  0  1  0  0  0  0  0  0  0  0  0
    5.6826  -23.6508   22.1210 C   0  0  0  0  0  0  0  0  0  0  0  0
    5.0779  -23.2203   23.4148 C   0  0  0  0  0  0  0  0  0  0  0  0
    3.7304  -23.9204   23.5405 C   0  0  0  0  0  0  0  0  0  0  0  0
    2.7382  -23.0760   24.3071 C   0  0  0  0  0  0  0  0  0  0  0  0
    1.5028  -23.8354   24.3779 N   0  0  0  0  0  0  0  0  0  0  0  0
    7.9134  -23.4197   22.9667 C   0  0  0  0  0  0  0  0  0  0  0  0
    8.4265  -24.5606   22.9619 O   0  0  0  0  0  0  0  0  0  0  0  0
   12.4649  -20.4455   25.1015 N   0  0  0  0  0  0  0  0  0  0  0  0
   12.6476  -21.8129   24.8223 C   0  0  0  0  0  0  0  0  0  0  0  0
   13.7776  -22.2351   24.5173 O   0  0  0  0  0  0  0  0  0  0  0  0
   11.5016  -22.7759   24.8856 C   0  0  0  0  0  0  0  0  0  0  0  0
   10.2188  -22.0693   25.1850 C   0  0  0  0  0  0  0  0  0  0  0  0
    9.0422  -23.0052   25.1495 C   0  0  2  0  0  0  0  0  0  0  0  0
    8.1913  -22.5543   24.0326 N   0  0  0  0  0  0  0  0  0  0  0  0
    8.2793  -22.9733   26.4009 C   0  0  0  0  0  0  0  0  0  0  0  0
    7.0760  -22.3131   26.5512 O   0  0  0  0  0  0  0  0  0  0  0  0
    8.7095  -23.5711   27.4379 O   0  0  0  0  0  0  0  0  0  0  0  0
  2  4  1  0
  2  1  1  1
  3  2  1  0
  4  6  1  0
  4  5  1  6
  6  7  2  0
  8  9  1  0
  8  6  1  0
 10 11  1  0
  9 10  1  1
 11 12  1  0
 12 13  1  0
 13 14  1  0
 15  9  1  0
 15 16  2  0
 17 18  1  0
 18 20  1  0
 19 18  2  0
 20 21  1  0
 22 21  1  1
 22 23  1  0
 22 24  1  0
 23 15  1  0
 24 26  2  0
 24 25  1  0
M  END
$$$$
