VKQ.pdb
     RDKit          3D

 26 25  0  0  1  0  0  0  0  0999 V2000
    8.0693  -12.1480   25.8450 C   0  0  0  0  0  0  0  0  0  0  0  0
    7.0014  -12.8828   26.6493 C   0  0  1  0  0  0  0  0  0  0  0  0
    6.3177  -11.8364   27.5011 C   0  0  0  0  0  0  0  0  0  0  0  0
    6.0244  -13.4777   25.6520 C   0  0  2  0  0  0  0  0  0  0  0  0
    5.0268  -14.2953   26.3122 N   0  0  0  0  0  0  0  0  0  0  0  0
    6.7268  -14.2234   24.5814 C   0  0  0  0  0  0  0  0  0  0  0  0
    7.0178  -15.4363   24.7765 O   0  0  0  0  0  0  0  0  0  0  0  0
    7.0907  -13.6402   23.3419 N   0  0  0  0  0  0  0  0  0  0  0  0
    7.7432  -14.4332   22.3522 C   0  0  1  0  0  0  0  0  0  0  0  0
    7.8794  -13.7280   21.0222 C   0  0  0  0  0  0  0  0  0  0  0  0
    8.4823  -14.5813   19.9576 C   0  0  0  0  0  0  0  0  0  0  0  0
    8.4795  -13.7681   18.6691 C   0  0  0  0  0  0  0  0  0  0  0  0
    8.9035  -14.6069   17.4852 C   0  0  0  0  0  0  0  0  0  0  0  0
    8.7030  -13.7948   16.2985 N   0  0  0  0  0  0  0  0  0  0  0  0
    9.1258  -14.7482   22.7972 C   0  0  0  0  0  0  0  0  0  0  0  0
    9.8532  -13.8293   23.2347 O   0  0  0  0  0  0  0  0  0  0  0  0
   11.6184  -18.5889   26.5362 N   0  0  0  0  0  0  0  0  0  0  0  0
   10.3427  -18.0065   26.4159 C   0  0  0  0  0  0  0  0  0  0  0  0
    9.5910  -17.9568   27.4062 O   0  0  0  0  0  0  0  0  0  0  0  0
    9.8692  -17.4419   25.1114 C   0  0  0  0  0  0  0  0  0  0  0  0
   10.9208  -17.5655   24.0563 C   0  0  0  0  0  0  0  0  0  0  0  0
   11.0091  -16.3285   23.2056 C   0  0  2  0  0  0  0  0  0  0  0  0
    9.6377  -16.0510   22.7396 N   0  0  0  0  0  0  0  0  0  0  0  0
   11.8973  -16.5177   22.0548 C   0  0  0  0  0  0  0  0  0  0  0  0
   13.2740  -16.5691   22.1464 O   0  0  0  0  0  0  0  0  0  0  0  0
   11.4211  -16.6443   20.8822 O   0  0  0  0  0  0  0  0  0  0  0  0
  2  4  1  0
  2  1  1  6
  3  2  1  0
  4  6  1  0
  4  5  1  1
  6  7  2  0
  8  9  1  0
  8  6  1  0
 10 11  1  0
  9 10  1  6
 11 12  1  0
 12 13  1  0
 13 14  1  0
 15  9  1  0
 15 16  2  0
 17 18  1  0
 18 20  1  0
 19 18  2  0
 20 21  1  0
 22 21  1  1
 22 23  1  0
 22 24  1  0
 23 15  1  0
 24 26  2  0
 24 25  1  0
M  END
$$$$
