WKT.pdb
     RDKit          3D

 31 32  0  0  1  0  0  0  0  0999 V2000
    5.9165  -18.2965   24.3693 N   0  0  0  0  0  0  0  0  0  0  0  0
    6.4397  -16.9593   24.3987 C   0  0  1  0  0  0  0  0  0  0  0  0
    7.0405  -16.6075   25.7388 C   0  0  0  0  0  0  0  0  0  0  0  0
    6.6110  -15.2332   26.1043 C   0  0  0  0  0  0  0  0  0  0  0  0
    5.3231  -14.8335   26.3438 C   0  0  0  0  0  0  0  0  0  0  0  0
    5.3288  -13.5233   26.6451 N   0  0  0  0  0  0  0  0  0  0  0  0
    6.5872  -13.0430   26.6117 C   0  0  0  0  0  0  0  0  0  0  0  0
    7.0992  -11.7671   26.8473 C   0  0  0  0  0  0  0  0  0  0  0  0
    8.4610  -11.6253   26.7242 C   0  0  0  0  0  0  0  0  0  0  0  0
    9.2729  -12.6921   26.3854 C   0  0  0  0  0  0  0  0  0  0  0  0
    8.7486  -13.9426   26.1571 C   0  0  0  0  0  0  0  0  0  0  0  0
    7.3894  -14.1110   26.2738 C   0  0  0  0  0  0  0  0  0  0  0  0
    7.3972  -16.7804   23.2886 C   0  0  0  0  0  0  0  0  0  0  0  0
    8.0715  -17.7480   22.8149 O   0  0  0  0  0  0  0  0  0  0  0  0
    7.5857  -15.5112   22.7225 N   0  0  0  0  0  0  0  0  0  0  0  0
    8.6488  -15.2681   21.7550 C   0  0  1  0  0  0  0  0  0  0  0  0
    8.5278  -13.8984   21.1538 C   0  0  0  0  0  0  0  0  0  0  0  0
    7.6730  -13.9171   19.9316 C   0  0  0  0  0  0  0  0  0  0  0  0
    8.4619  -14.0346   18.6556 C   0  0  0  0  0  0  0  0  0  0  0  0
    7.5747  -13.8717   17.4386 C   0  0  0  0  0  0  0  0  0  0  0  0
    8.3730  -14.0196   16.2470 N   0  0  0  0  0  0  0  0  0  0  0  0
    9.9866  -15.4174   22.4427 C   0  0  0  0  0  0  0  0  0  0  0  0
   10.3378  -14.6599   23.3768 O   0  0  0  0  0  0  0  0  0  0  0  0
   11.4007  -18.2141   24.4592 C   0  0  0  0  0  0  0  0  0  0  0  0
   12.2593  -18.0476   23.2229 C   0  0  1  0  0  0  0  0  0  0  0  0
   11.9558  -18.9915   22.2688 O   0  0  0  0  0  0  0  0  0  0  0  0
   12.1578  -16.6519   22.6638 C   0  0  2  0  0  0  0  0  0  0  0  0
   10.8820  -16.4373   22.0328 N   0  0  0  0  0  0  0  0  0  0  0  0
   13.2928  -16.3583   21.7510 C   0  0  0  0  0  0  0  0  0  0  0  0
   14.5862  -16.1972   22.2396 O   0  0  0  0  0  0  0  0  0  0  0  0
   13.0527  -16.2592   20.5227 O   0  0  0  0  0  0  0  0  0  0  0  0
  2  1  1  1
  3  4  1  0
  3  2  1  0
  4  5  2  0
  5  6  1  0
  7  6  1  0
  8  7  2  0
  9  8  1  0
 10 11  1  0
 10  9  2  0
 11 12  2  0
 12  4  1  0
 12  7  1  0
 13  2  1  0
 13 15  1  0
 14 13  2  0
 16 15  1  0
 16 22  1  0
 16 17  1  1
 18 17  1  0
 19 18  1  0
 20 19  1  0
 21 20  1  0
 22 23  2  0
 22 28  1  0
 25 24  1  1
 25 26  1  0
 27 25  1  0
 27 29  1  0
 27 28  1  6
 29 30  1  0
 31 29  2  0
M  END
$$$$
