WKT.pdb
     RDKit          3D

 31 32  0  0  1  0  0  0  0  0999 V2000
    6.4800  -17.4940   25.7860 N   0  0  0  0  0  0  0  0  0  0  0  0
    7.1430  -16.3538   25.2176 C   0  0  1  0  0  0  0  0  0  0  0  0
    8.3550  -15.9375   26.0164 C   0  0  0  0  0  0  0  0  0  0  0  0
    8.0021  -14.7419   26.8242 C   0  0  0  0  0  0  0  0  0  0  0  0
    8.0593  -14.6522   28.1897 C   0  0  0  0  0  0  0  0  0  0  0  0
    7.6660  -13.4200   28.5564 N   0  0  0  0  0  0  0  0  0  0  0  0
    7.3491  -12.6895   27.4696 C   0  0  0  0  0  0  0  0  0  0  0  0
    6.8966  -11.3770   27.3343 C   0  0  0  0  0  0  0  0  0  0  0  0
    6.6669  -10.9414   26.0509 C   0  0  0  0  0  0  0  0  0  0  0  0
    6.8749  -11.7635   24.9587 C   0  0  0  0  0  0  0  0  0  0  0  0
    7.3215  -13.0548   25.1130 C   0  0  0  0  0  0  0  0  0  0  0  0
    7.5588  -13.5148   26.3864 C   0  0  0  0  0  0  0  0  0  0  0  0
    7.4684  -16.6275   23.8033 C   0  0  0  0  0  0  0  0  0  0  0  0
    7.6537  -17.8073   23.3683 O   0  0  0  0  0  0  0  0  0  0  0  0
    7.5819  -15.5677   22.8918 N   0  0  0  0  0  0  0  0  0  0  0  0
    8.1280  -15.7775   21.5565 C   0  0  1  0  0  0  0  0  0  0  0  0
    7.8051  -14.6227   20.6543 C   0  0  0  0  0  0  0  0  0  0  0  0
    8.2789  -14.8740   19.2624 C   0  0  0  0  0  0  0  0  0  0  0  0
    7.8887  -13.7884   18.2961 C   0  0  0  0  0  0  0  0  0  0  0  0
    8.2837  -14.1416   16.8769 C   0  0  0  0  0  0  0  0  0  0  0  0
    7.8079  -13.1150   15.9832 N   0  0  0  0  0  0  0  0  0  0  0  0
    9.6258  -15.9552   21.6574 C   0  0  0  0  0  0  0  0  0  0  0  0
   10.3557  -15.1061   22.2194 O   0  0  0  0  0  0  0  0  0  0  0  0
   11.5565  -18.9222   23.2154 C   0  0  0  0  0  0  0  0  0  0  0  0
   11.8744  -18.7909   21.7407 C   0  0  1  0  0  0  0  0  0  0  0  0
   11.1691  -19.7039   20.9907 O   0  0  0  0  0  0  0  0  0  0  0  0
   11.6447  -17.3850   21.2491 C   0  0  2  0  0  0  0  0  0  0  0  0
   10.2393  -17.1084   21.1064 N   0  0  0  0  0  0  0  0  0  0  0  0
   12.3985  -17.1278   19.9949 C   0  0  0  0  0  0  0  0  0  0  0  0
   11.7542  -17.0967   18.7615 O   0  0  0  0  0  0  0  0  0  0  0  0
   13.6369  -16.9386   20.0782 O   0  0  0  0  0  0  0  0  0  0  0  0
  2  1  1  1
  3  4  1  0
  3  2  1  0
  4  5  2  0
  5  6  1  0
  7  6  1  0
  8  7  2  0
  9  8  1  0
 10 11  1  0
 10  9  2  0
 11 12  2  0
 12  4  1  0
 12  7  1  0
 13  2  1  0
 13 15  1  0
 14 13  2  0
 16 15  1  0
 16 22  1  0
 16 17  1  6
 18 17  1  0
 19 18  1  0
 20 19  1  0
 21 20  1  0
 22 23  2  0
 22 28  1  0
 25 24  1  1
 25 26  1  0
 27 25  1  0
 27 29  1  0
 27 28  1  6
 29 30  1  0
 31 29  2  0
M  END
$$$$
