WKT.pdb
     RDKit          3D

 31 32  0  0  1  0  0  0  0  0999 V2000
    6.4209  -18.0792   24.5876 N   0  0  0  0  0  0  0  0  0  0  0  0
    6.8714  -16.7509   24.2785 C   0  0  1  0  0  0  0  0  0  0  0  0
    7.7485  -16.1752   25.3647 C   0  0  0  0  0  0  0  0  0  0  0  0
    7.0057  -15.0829   26.0441 C   0  0  0  0  0  0  0  0  0  0  0  0
    5.8460  -15.2265   26.7585 C   0  0  0  0  0  0  0  0  0  0  0  0
    5.4747  -14.0204   27.2221 N   0  0  0  0  0  0  0  0  0  0  0  0
    6.3580  -13.0800   26.8340 C   0  0  0  0  0  0  0  0  0  0  0  0
    6.4075  -11.7045   27.0607 C   0  0  0  0  0  0  0  0  0  0  0  0
    7.4718  -11.0340   26.5062 C   0  0  0  0  0  0  0  0  0  0  0  0
    8.4365  -11.6921   25.7659 C   0  0  0  0  0  0  0  0  0  0  0  0
    8.3698  -13.0491   25.5537 C   0  0  0  0  0  0  0  0  0  0  0  0
    7.3152  -13.7430   26.0976 C   0  0  0  0  0  0  0  0  0  0  0  0
    7.5358  -16.7504   22.9596 C   0  0  0  0  0  0  0  0  0  0  0  0
    8.2236  -17.7371   22.5487 O   0  0  0  0  0  0  0  0  0  0  0  0
    7.4185  -15.6366   22.1155 N   0  0  0  0  0  0  0  0  0  0  0  0
    8.2353  -15.5120   20.9145 C   0  0  1  0  0  0  0  0  0  0  0  0
    7.9781  -14.2067   20.2203 C   0  0  0  0  0  0  0  0  0  0  0  0
    8.8788  -14.0321   19.0442 C   0  0  0  0  0  0  0  0  0  0  0  0
    8.1368  -13.8878   17.7430 C   0  0  0  0  0  0  0  0  0  0  0  0
    9.0882  -13.8398   16.5651 C   0  0  0  0  0  0  0  0  0  0  0  0
    8.3294  -13.6820   15.3492 N   0  0  0  0  0  0  0  0  0  0  0  0
    9.6942  -15.6192   21.2956 C   0  0  0  0  0  0  0  0  0  0  0  0
   10.2035  -14.8851   22.1739 O   0  0  0  0  0  0  0  0  0  0  0  0
   11.7059  -18.2032   22.9881 C   0  0  0  0  0  0  0  0  0  0  0  0
   12.1821  -18.1028   21.5541 C   0  0  1  0  0  0  0  0  0  0  0  0
   11.6305  -19.0904   20.7705 O   0  0  0  0  0  0  0  0  0  0  0  0
   11.9169  -16.7355   20.9785 C   0  0  2  0  0  0  0  0  0  0  0  0
   10.5247  -16.5711   20.6520 N   0  0  0  0  0  0  0  0  0  0  0  0
   12.8026  -16.4641   19.8168 C   0  0  0  0  0  0  0  0  0  0  0  0
   12.3007  -16.4422   18.5188 O   0  0  0  0  0  0  0  0  0  0  0  0
   14.0204  -16.2543   20.0388 O   0  0  0  0  0  0  0  0  0  0  0  0
  2  1  1  1
  3  4  1  0
  3  2  1  0
  4  5  2  0
  5  6  1  0
  7  6  1  0
  8  7  2  0
  9  8  1  0
 10 11  1  0
 10  9  2  0
 11 12  2  0
 12  4  1  0
 12  7  1  0
 13  2  1  0
 13 15  1  0
 14 13  2  0
 16 15  1  0
 16 22  1  0
 16 17  1  1
 18 17  1  0
 19 18  1  0
 20 19  1  0
 21 20  1  0
 22 23  2  0
 22 28  1  0
 25 24  1  1
 25 26  1  0
 27 25  1  0
 27 29  1  0
 27 28  1  6
 29 30  1  0
 31 29  2  0
M  END
$$$$
