WKT.pdb
     RDKit          3D

 31 32  0  0  1  0  0  0  0  0999 V2000
    6.4118  -18.3825   25.1329 N   0  0  0  0  0  0  0  0  0  0  0  0
    6.7953  -17.0226   24.8755 C   0  0  1  0  0  0  0  0  0  0  0  0
    7.5383  -16.4062   26.0367 C   0  0  0  0  0  0  0  0  0  0  0  0
    6.8851  -15.1190   26.3874 C   0  0  0  0  0  0  0  0  0  0  0  0
    5.5622  -14.9508   26.6995 C   0  0  0  0  0  0  0  0  0  0  0  0
    5.3439  -13.6499   26.9591 N   0  0  0  0  0  0  0  0  0  0  0  0
    6.4877  -12.9502   26.8273 C   0  0  0  0  0  0  0  0  0  0  0  0
    6.7685  -11.5934   26.9888 C   0  0  0  0  0  0  0  0  0  0  0  0
    8.0709  -11.2112   26.7711 C   0  0  0  0  0  0  0  0  0  0  0  0
    9.0440  -12.1256   26.4121 C   0  0  0  0  0  0  0  0  0  0  0  0
    8.7469  -13.4593   26.2579 C   0  0  0  0  0  0  0  0  0  0  0  0
    7.4516  -13.8675   26.4699 C   0  0  0  0  0  0  0  0  0  0  0  0
    7.5653  -16.9576   23.6169 C   0  0  0  0  0  0  0  0  0  0  0  0
    8.3265  -17.9034   23.2405 O   0  0  0  0  0  0  0  0  0  0  0  0
    7.4698  -15.8262   22.7937 N   0  0  0  0  0  0  0  0  0  0  0  0
    8.3095  -15.6821   21.6108 C   0  0  1  0  0  0  0  0  0  0  0  0
    7.9527  -14.4425   20.8440 C   0  0  0  0  0  0  0  0  0  0  0  0
    8.7291  -14.3492   19.5737 C   0  0  0  0  0  0  0  0  0  0  0  0
    7.9696  -13.6800   18.4602 C   0  0  0  0  0  0  0  0  0  0  0  0
    8.7508  -13.7069   17.1626 C   0  0  0  0  0  0  0  0  0  0  0  0
    7.8982  -13.2651   16.0870 N   0  0  0  0  0  0  0  0  0  0  0  0
    9.7590  -15.6306   22.0367 C   0  0  0  0  0  0  0  0  0  0  0  0
   10.1814  -14.7670   22.8401 O   0  0  0  0  0  0  0  0  0  0  0  0
   12.0208  -18.2900   23.7561 C   0  0  0  0  0  0  0  0  0  0  0  0
   12.4810  -17.9879   22.3454 C   0  0  1  0  0  0  0  0  0  0  0  0
   12.0405  -18.9423   21.4573 O   0  0  0  0  0  0  0  0  0  0  0  0
   12.0659  -16.6052   21.9132 C   0  0  2  0  0  0  0  0  0  0  0  0
   10.6806  -16.5775   21.5231 N   0  0  0  0  0  0  0  0  0  0  0  0
   12.9609  -16.0880   20.8460 C   0  0  0  0  0  0  0  0  0  0  0  0
   14.2504  -15.6521   21.1367 O   0  0  0  0  0  0  0  0  0  0  0  0
   12.5207  -16.0548   19.6706 O   0  0  0  0  0  0  0  0  0  0  0  0
  2  1  1  1
  3  4  1  0
  3  2  1  0
  4  5  2  0
  5  6  1  0
  7  6  1  0
  8  7  2  0
  9  8  1  0
 10 11  1  0
 10  9  2  0
 11 12  2  0
 12  4  1  0
 12  7  1  0
 13  2  1  0
 13 15  1  0
 14 13  2  0
 16 15  1  0
 16 22  1  0
 16 17  1  1
 18 17  1  0
 19 18  1  0
 20 19  1  0
 21 20  1  0
 22 23  2  0
 22 28  1  0
 25 24  1  1
 25 26  1  0
 27 25  1  0
 27 29  1  0
 27 28  1  6
 29 30  1  0
 31 29  2  0
M  END
$$$$
