WKT.pdb
     RDKit          3D

 31 32  0  0  1  0  0  0  0  0999 V2000
    5.7714  -17.9158   23.3797 N   0  0  0  0  0  0  0  0  0  0  0  0
    6.4848  -16.6718   23.4595 C   0  0  1  0  0  0  0  0  0  0  0  0
    7.2907  -16.5529   24.7310 C   0  0  0  0  0  0  0  0  0  0  0  0
    6.7125  -15.4629   25.5581 C   0  0  0  0  0  0  0  0  0  0  0  0
    5.5986  -15.5620   26.3488 C   0  0  0  0  0  0  0  0  0  0  0  0
    5.3851  -14.3743   26.9413 N   0  0  0  0  0  0  0  0  0  0  0  0
    6.3285  -13.4893   26.5643 C   0  0  0  0  0  0  0  0  0  0  0  0
    6.5326  -12.1513   26.9020 C   0  0  0  0  0  0  0  0  0  0  0  0
    7.6164  -11.5357   26.3224 C   0  0  0  0  0  0  0  0  0  0  0  0
    8.4542  -12.2106   25.4538 C   0  0  0  0  0  0  0  0  0  0  0  0
    8.2360  -13.5300   25.1335 C   0  0  0  0  0  0  0  0  0  0  0  0
    7.1586  -14.1688   25.6998 C   0  0  0  0  0  0  0  0  0  0  0  0
    7.3144  -16.5011   22.2496 C   0  0  0  0  0  0  0  0  0  0  0  0
    7.6461  -17.4827   21.5134 O   0  0  0  0  0  0  0  0  0  0  0  0
    7.7628  -15.2245   21.8808 N   0  0  0  0  0  0  0  0  0  0  0  0
    8.6380  -15.0366   20.7302 C   0  0  1  0  0  0  0  0  0  0  0  0
    8.5367  -13.6370   20.1985 C   0  0  0  0  0  0  0  0  0  0  0  0
    7.6394  -13.5733   19.0086 C   0  0  0  0  0  0  0  0  0  0  0  0
    8.3265  -13.9522   17.7245 C   0  0  0  0  0  0  0  0  0  0  0  0
    7.4003  -13.8022   16.5353 C   0  0  0  0  0  0  0  0  0  0  0  0
    8.1122  -14.1562   15.3325 N   0  0  0  0  0  0  0  0  0  0  0  0
   10.0624  -15.3355   21.1385 C   0  0  0  0  0  0  0  0  0  0  0  0
   11.0296  -15.1140   20.3735 O   0  0  0  0  0  0  0  0  0  0  0  0
   11.1641  -15.4546   25.2305 C   0  0  0  0  0  0  0  0  0  0  0  0
   11.6610  -16.5688   24.3334 C   0  0  1  0  0  0  0  0  0  0  0  0
   10.9370  -17.7243   24.5181 O   0  0  0  0  0  0  0  0  0  0  0  0
   11.6655  -16.1515   22.8853 C   0  0  2  0  0  0  0  0  0  0  0  0
   10.3307  -15.8821   22.4188 N   0  0  0  0  0  0  0  0  0  0  0  0
   12.3636  -17.1561   22.0421 C   0  0  0  0  0  0  0  0  0  0  0  0
   11.6503  -18.0842   21.2891 O   0  0  0  0  0  0  0  0  0  0  0  0
   13.6190  -17.1449   22.0274 O   0  0  0  0  0  0  0  0  0  0  0  0
  2  1  1  6
  3  4  1  0
  3  2  1  0
  4  5  2  0
  5  6  1  0
  7  6  1  0
  8  7  2  0
  9  8  1  0
 10 11  1  0
 10  9  2  0
 11 12  2  0
 12  4  1  0
 12  7  1  0
 13  2  1  0
 13 15  1  0
 14 13  2  0
 16 15  1  0
 16 22  1  0
 16 17  1  1
 18 17  1  0
 19 18  1  0
 20 19  1  0
 21 20  1  0
 22 23  2  0
 22 28  1  0
 25 24  1  1
 25 26  1  0
 27 25  1  0
 27 29  1  0
 27 28  1  6
 29 30  1  0
 31 29  2  0
M  END
$$$$
