WKT.pdb
     RDKit          3D

 31 32  0  0  1  0  0  0  0  0999 V2000
    6.2615  -18.1727   24.4501 N   0  0  0  0  0  0  0  0  0  0  0  0
    6.9059  -16.9032   24.2607 C   0  0  1  0  0  0  0  0  0  0  0  0
    7.6681  -16.4581   25.4860 C   0  0  0  0  0  0  0  0  0  0  0  0
    7.0235  -15.2336   26.0261 C   0  0  0  0  0  0  0  0  0  0  0  0
    5.7661  -15.1611   26.5644 C   0  0  0  0  0  0  0  0  0  0  0  0
    5.5335  -13.8924   26.9435 N   0  0  0  0  0  0  0  0  0  0  0  0
    6.6039  -13.1210   26.6708 C   0  0  0  0  0  0  0  0  0  0  0  0
    6.8433  -11.7619   26.8743 C   0  0  0  0  0  0  0  0  0  0  0  0
    8.0703  -11.2926   26.4694 C   0  0  0  0  0  0  0  0  0  0  0  0
    9.0108  -12.1264   25.8930 C   0  0  0  0  0  0  0  0  0  0  0  0
    8.7555  -13.4639   25.7010 C   0  0  0  0  0  0  0  0  0  0  0  0
    7.5357  -13.9583   26.0973 C   0  0  0  0  0  0  0  0  0  0  0  0
    7.7592  -16.9585   23.0567 C   0  0  0  0  0  0  0  0  0  0  0  0
    8.4066  -18.0037   22.7343 O   0  0  0  0  0  0  0  0  0  0  0  0
    7.8749  -15.8340   22.2266 N   0  0  0  0  0  0  0  0  0  0  0  0
    8.8187  -15.8114   21.1158 C   0  0  1  0  0  0  0  0  0  0  0  0
    8.6822  -14.5478   20.3178 C   0  0  0  0  0  0  0  0  0  0  0  0
    8.0407  -14.8084   18.9966 C   0  0  0  0  0  0  0  0  0  0  0  0
    8.3631  -13.7637   17.9625 C   0  0  0  0  0  0  0  0  0  0  0  0
    7.6142  -14.0142   16.6698 C   0  0  0  0  0  0  0  0  0  0  0  0
    7.8970  -12.9459   15.7436 N   0  0  0  0  0  0  0  0  0  0  0  0
   10.2242  -15.9338   21.6587 C   0  0  0  0  0  0  0  0  0  0  0  0
   10.6819  -15.1228   22.4968 O   0  0  0  0  0  0  0  0  0  0  0  0
   11.9899  -18.6834   23.6271 C   0  0  0  0  0  0  0  0  0  0  0  0
   12.6168  -18.5434   22.2557 C   0  0  1  0  0  0  0  0  0  0  0  0
   12.1555  -19.5090   21.3907 O   0  0  0  0  0  0  0  0  0  0  0  0
   12.4106  -17.1608   21.6927 C   0  0  2  0  0  0  0  0  0  0  0  0
   11.0622  -16.9893   21.2189 N   0  0  0  0  0  0  0  0  0  0  0  0
   13.4180  -16.8553   20.6443 C   0  0  0  0  0  0  0  0  0  0  0  0
   14.7664  -16.7163   20.9605 O   0  0  0  0  0  0  0  0  0  0  0  0
   13.0185  -16.7255   19.4611 O   0  0  0  0  0  0  0  0  0  0  0  0
  2  1  1  1
  3  4  1  0
  3  2  1  0
  4  5  2  0
  5  6  1  0
  7  6  1  0
  8  7  2  0
  9  8  1  0
 10 11  1  0
 10  9  2  0
 11 12  2  0
 12  4  1  0
 12  7  1  0
 13  2  1  0
 13 15  1  0
 14 13  2  0
 16 15  1  0
 16 22  1  0
 16 17  1  1
 18 17  1  0
 19 18  1  0
 20 19  1  0
 21 20  1  0
 22 23  2  0
 22 28  1  0
 25 24  1  1
 25 26  1  0
 27 25  1  0
 27 29  1  0
 27 28  1  6
 29 30  1  0
 31 29  2  0
M  END
$$$$
