WKT.pdb
     RDKit          3D

 31 32  0  0  1  0  0  0  0  0999 V2000
    6.0966  -18.2827   24.4498 N   0  0  0  0  0  0  0  0  0  0  0  0
    6.6765  -16.9744   24.3286 C   0  0  1  0  0  0  0  0  0  0  0  0
    7.3613  -16.5302   25.5991 C   0  0  0  0  0  0  0  0  0  0  0  0
    6.7338  -15.2644   26.0579 C   0  0  0  0  0  0  0  0  0  0  0  0
    5.4132  -15.0956   26.3798 C   0  0  0  0  0  0  0  0  0  0  0  0
    5.2212  -13.8176   26.7502 N   0  0  0  0  0  0  0  0  0  0  0  0
    6.3800  -13.1337   26.6824 C   0  0  0  0  0  0  0  0  0  0  0  0
    6.6886  -11.8022   26.9613 C   0  0  0  0  0  0  0  0  0  0  0  0
    7.9997  -11.4305   26.7809 C   0  0  0  0  0  0  0  0  0  0  0  0
    8.9550  -12.3310   26.3470 C   0  0  0  0  0  0  0  0  0  0  0  0
    8.6306  -13.6399   26.0773 C   0  0  0  0  0  0  0  0  0  0  0  0
    7.3261  -14.0371   26.2498 C   0  0  0  0  0  0  0  0  0  0  0  0
    7.5809  -16.9425   23.1615 C   0  0  0  0  0  0  0  0  0  0  0  0
    8.2075  -17.9743   22.7634 O   0  0  0  0  0  0  0  0  0  0  0  0
    7.7706  -15.7469   22.4534 N   0  0  0  0  0  0  0  0  0  0  0  0
    8.7462  -15.6572   21.3739 C   0  0  1  0  0  0  0  0  0  0  0  0
    8.6698  -14.3251   20.6873 C   0  0  0  0  0  0  0  0  0  0  0  0
    7.7843  -14.3838   19.4883 C   0  0  0  0  0  0  0  0  0  0  0  0
    8.3802  -13.7214   18.2757 C   0  0  0  0  0  0  0  0  0  0  0  0
    7.4236  -13.7519   17.1014 C   0  0  0  0  0  0  0  0  0  0  0  0
    8.0042  -13.0272   15.9983 N   0  0  0  0  0  0  0  0  0  0  0  0
   10.1313  -15.8711   21.9404 C   0  0  0  0  0  0  0  0  0  0  0  0
   10.5871  -15.1534   22.8606 O   0  0  0  0  0  0  0  0  0  0  0  0
   11.6687  -18.9461   23.6358 C   0  0  0  0  0  0  0  0  0  0  0  0
   12.3849  -18.6490   22.3350 C   0  0  1  0  0  0  0  0  0  0  0  0
   11.9474  -19.4698   21.3210 O   0  0  0  0  0  0  0  0  0  0  0  0
   12.2601  -17.1960   21.9552 C   0  0  2  0  0  0  0  0  0  0  0  0
   10.9518  -16.9078   21.4286 N   0  0  0  0  0  0  0  0  0  0  0  0
   13.3432  -16.7931   21.0214 C   0  0  0  0  0  0  0  0  0  0  0  0
   14.6687  -16.7287   21.4414 O   0  0  0  0  0  0  0  0  0  0  0  0
   13.0292  -16.5114   19.8388 O   0  0  0  0  0  0  0  0  0  0  0  0
  2  1  1  1
  3  4  1  0
  3  2  1  0
  4  5  2  0
  5  6  1  0
  7  6  1  0
  8  7  2  0
  9  8  1  0
 10 11  1  0
 10  9  2  0
 11 12  2  0
 12  4  1  0
 12  7  1  0
 13  2  1  0
 13 15  1  0
 14 13  2  0
 16 15  1  0
 16 22  1  0
 16 17  1  1
 18 17  1  0
 19 18  1  0
 20 19  1  0
 21 20  1  0
 22 23  2  0
 22 28  1  0
 25 24  1  1
 25 26  1  0
 27 25  1  0
 27 29  1  0
 27 28  1  6
 29 30  1  0
 31 29  2  0
M  END
$$$$
