WKT.pdb
     RDKit          3D

 31 32  0  0  1  0  0  0  0  0999 V2000
    7.0190  -18.5189   24.8141 N   0  0  0  0  0  0  0  0  0  0  0  0
    7.2222  -17.1940   24.2982 C   0  0  1  0  0  0  0  0  0  0  0  0
    8.0803  -16.3488   25.2091 C   0  0  0  0  0  0  0  0  0  0  0  0
    7.2301  -15.2915   25.8142 C   0  0  0  0  0  0  0  0  0  0  0  0
    5.9249  -15.4379   26.2027 C   0  0  0  0  0  0  0  0  0  0  0  0
    5.4920  -14.2679   26.7040 N   0  0  0  0  0  0  0  0  0  0  0  0
    6.4761  -13.3488   26.6582 C   0  0  0  0  0  0  0  0  0  0  0  0
    6.5152  -12.0118   27.0541 C   0  0  0  0  0  0  0  0  0  0  0  0
    7.7065  -11.3540   26.8597 C   0  0  0  0  0  0  0  0  0  0  0  0
    8.8017  -11.9879   26.3022 C   0  0  0  0  0  0  0  0  0  0  0  0
    8.7429  -13.3071   25.9184 C   0  0  0  0  0  0  0  0  0  0  0  0
    7.5628  -13.9876   26.1021 C   0  0  0  0  0  0  0  0  0  0  0  0
    7.7681  -17.2770   22.9285 C   0  0  0  0  0  0  0  0  0  0  0  0
    8.2141  -18.3639   22.4432 O   0  0  0  0  0  0  0  0  0  0  0  0
    7.8063  -16.1331   22.1179 N   0  0  0  0  0  0  0  0  0  0  0  0
    8.3703  -16.1801   20.7745 C   0  0  1  0  0  0  0  0  0  0  0  0
    7.8573  -15.0474   19.9344 C   0  0  0  0  0  0  0  0  0  0  0  0
    8.3983  -15.1147   18.5459 C   0  0  0  0  0  0  0  0  0  0  0  0
    7.9502  -13.9709   17.6769 C   0  0  0  0  0  0  0  0  0  0  0  0
    8.4590  -14.1207   16.2579 C   0  0  0  0  0  0  0  0  0  0  0  0
    8.0649  -12.9666   15.4888 N   0  0  0  0  0  0  0  0  0  0  0  0
    9.8776  -16.1161   20.8686 C   0  0  0  0  0  0  0  0  0  0  0  0
   10.4840  -15.0326   21.0358 O   0  0  0  0  0  0  0  0  0  0  0  0
   12.3571  -17.9339   23.2303 C   0  0  0  0  0  0  0  0  0  0  0  0
   12.5797  -18.3557   21.7930 C   0  0  1  0  0  0  0  0  0  0  0  0
   12.0152  -19.5840   21.5360 O   0  0  0  0  0  0  0  0  0  0  0  0
   12.0813  -17.3116   20.8274 C   0  0  2  0  0  0  0  0  0  0  0  0
   10.6432  -17.3050   20.7671 N   0  0  0  0  0  0  0  0  0  0  0  0
   12.6994  -17.4848   19.4875 C   0  0  0  0  0  0  0  0  0  0  0  0
   14.0554  -17.2454   19.2840 O   0  0  0  0  0  0  0  0  0  0  0  0
   11.9626  -17.8543   18.5404 O   0  0  0  0  0  0  0  0  0  0  0  0
  2  1  1  1
  3  4  1  0
  3  2  1  0
  4  5  2  0
  5  6  1  0
  7  6  1  0
  8  7  2  0
  9  8  1  0
 10 11  1  0
 10  9  2  0
 11 12  2  0
 12  4  1  0
 12  7  1  0
 13  2  1  0
 13 15  1  0
 14 13  2  0
 16 15  1  0
 16 22  1  0
 16 17  1  6
 18 17  1  0
 19 18  1  0
 20 19  1  0
 21 20  1  0
 22 23  2  0
 22 28  1  0
 25 24  1  1
 25 26  1  0
 27 25  1  0
 27 29  1  0
 27 28  1  6
 29 30  1  0
 31 29  2  0
M  END
$$$$
