WKT.pdb
     RDKit          3D

 31 32  0  0  1  0  0  0  0  0999 V2000
    6.2676  -17.6494   24.8546 N   0  0  0  0  0  0  0  0  0  0  0  0
    6.8221  -16.3802   24.4744 C   0  0  1  0  0  0  0  0  0  0  0  0
    7.9488  -15.9507   25.3835 C   0  0  0  0  0  0  0  0  0  0  0  0
    7.4139  -14.9843   26.3768 C   0  0  0  0  0  0  0  0  0  0  0  0
    6.8274  -15.3060   27.5720 C   0  0  0  0  0  0  0  0  0  0  0  0
    6.4715  -14.1695   28.1957 N   0  0  0  0  0  0  0  0  0  0  0  0
    6.8066  -13.1017   27.4454 C   0  0  0  0  0  0  0  0  0  0  0  0
    6.6478  -11.7323   27.6583 C   0  0  0  0  0  0  0  0  0  0  0  0
    7.1137  -10.9038   26.6652 C   0  0  0  0  0  0  0  0  0  0  0  0
    7.7059  -11.4060   25.5211 C   0  0  0  0  0  0  0  0  0  0  0  0
    7.8533  -12.7598   25.3300 C   0  0  0  0  0  0  0  0  0  0  0  0
    7.3956  -13.6100   26.3083 C   0  0  0  0  0  0  0  0  0  0  0  0
    7.2301  -16.4258   23.0558 C   0  0  0  0  0  0  0  0  0  0  0  0
    7.8028  -17.4412   22.5494 O   0  0  0  0  0  0  0  0  0  0  0  0
    6.9885  -15.3254   22.2206 N   0  0  0  0  0  0  0  0  0  0  0  0
    7.7654  -15.1174   21.0047 C   0  0  1  0  0  0  0  0  0  0  0  0
    7.5307  -13.7459   20.4428 C   0  0  0  0  0  0  0  0  0  0  0  0
    8.3602  -13.5100   19.2257 C   0  0  0  0  0  0  0  0  0  0  0  0
    7.7957  -14.1523   17.9875 C   0  0  0  0  0  0  0  0  0  0  0  0
    8.6765  -13.8992   16.7813 C   0  0  0  0  0  0  0  0  0  0  0  0
    8.0897  -14.5301   15.6252 N   0  0  0  0  0  0  0  0  0  0  0  0
    9.2323  -15.3071   21.3169 C   0  0  0  0  0  0  0  0  0  0  0  0
    9.8383  -14.5624   22.1217 O   0  0  0  0  0  0  0  0  0  0  0  0
   11.3126  -18.2063   22.7674 C   0  0  0  0  0  0  0  0  0  0  0  0
   11.6620  -17.9694   21.3131 C   0  0  1  0  0  0  0  0  0  0  0  0
   11.0278  -18.8715   20.4900 O   0  0  0  0  0  0  0  0  0  0  0  0
   11.3691  -16.5505   20.8987 C   0  0  2  0  0  0  0  0  0  0  0  0
    9.9587  -16.3513   20.6910 N   0  0  0  0  0  0  0  0  0  0  0  0
   12.1724  -16.1646   19.7099 C   0  0  0  0  0  0  0  0  0  0  0  0
   13.5444  -15.9512   19.8068 O   0  0  0  0  0  0  0  0  0  0  0  0
   11.5777  -16.0358   18.6116 O   0  0  0  0  0  0  0  0  0  0  0  0
  2  1  1  1
  3  4  1  0
  3  2  1  0
  4  5  2  0
  5  6  1  0
  7  6  1  0
  8  7  2  0
  9  8  1  0
 10 11  1  0
 10  9  2  0
 11 12  2  0
 12  4  1  0
 12  7  1  0
 13  2  1  0
 13 15  1  0
 14 13  2  0
 16 15  1  0
 16 22  1  0
 16 17  1  1
 18 17  1  0
 19 18  1  0
 20 19  1  0
 21 20  1  0
 22 23  2  0
 22 28  1  0
 25 24  1  1
 25 26  1  0
 27 25  1  0
 27 29  1  0
 27 28  1  6
 29 30  1  0
 31 29  2  0
M  END
$$$$
