WKT.pdb
     RDKit          3D

 31 32  0  0  1  0  0  0  0  0999 V2000
    5.6681  -17.6049   23.9610 N   0  0  0  0  0  0  0  0  0  0  0  0
    6.4890  -16.4395   23.7853 C   0  0  1  0  0  0  0  0  0  0  0  0
    7.5860  -16.3491   24.8192 C   0  0  0  0  0  0  0  0  0  0  0  0
    7.1988  -15.3349   25.8331 C   0  0  0  0  0  0  0  0  0  0  0  0
    6.5289  -15.5851   27.0012 C   0  0  0  0  0  0  0  0  0  0  0  0
    6.3590  -14.4235   27.6564 N   0  0  0  0  0  0  0  0  0  0  0  0
    6.8988  -13.4088   26.9535 C   0  0  0  0  0  0  0  0  0  0  0  0
    6.9762  -12.0402   27.2114 C   0  0  0  0  0  0  0  0  0  0  0  0
    7.6103  -11.2763   26.2605 C   0  0  0  0  0  0  0  0  0  0  0  0
    8.1398  -11.8393   25.1140 C   0  0  0  0  0  0  0  0  0  0  0  0
    8.0532  -13.1913   24.8780 C   0  0  0  0  0  0  0  0  0  0  0  0
    7.4239  -13.9774   25.8136 C   0  0  0  0  0  0  0  0  0  0  0  0
    7.0131  -16.4096   22.4049 C   0  0  0  0  0  0  0  0  0  0  0  0
    7.1741  -17.4681   21.7198 O   0  0  0  0  0  0  0  0  0  0  0  0
    7.3511  -15.1858   21.8092 N   0  0  0  0  0  0  0  0  0  0  0  0
    7.9320  -15.1331   20.4732 C   0  0  1  0  0  0  0  0  0  0  0  0
    7.7557  -13.7741   19.8617 C   0  0  0  0  0  0  0  0  0  0  0  0
    8.4674  -13.6718   18.5548 C   0  0  0  0  0  0  0  0  0  0  0  0
    7.5993  -14.0196   17.3759 C   0  0  0  0  0  0  0  0  0  0  0  0
    8.4032  -14.0755   16.0932 C   0  0  0  0  0  0  0  0  0  0  0  0
    7.5086  -14.2847   14.9819 N   0  0  0  0  0  0  0  0  0  0  0  0
    9.4014  -15.4776   20.5591 C   0  0  0  0  0  0  0  0  0  0  0  0
   10.1487  -15.4410   19.5542 O   0  0  0  0  0  0  0  0  0  0  0  0
   11.5946  -14.9617   24.1478 C   0  0  0  0  0  0  0  0  0  0  0  0
   11.7311  -16.2823   23.4195 C   0  0  1  0  0  0  0  0  0  0  0  0
   10.9960  -17.2721   24.0306 O   0  0  0  0  0  0  0  0  0  0  0  0
   11.3669  -16.1502   21.9631 C   0  0  2  0  0  0  0  0  0  0  0  0
    9.9673  -15.8548   21.8031 N   0  0  0  0  0  0  0  0  0  0  0  0
   11.7781  -17.3558   21.1983 C   0  0  0  0  0  0  0  0  0  0  0  0
   13.1195  -17.7051   21.0719 O   0  0  0  0  0  0  0  0  0  0  0  0
   10.8793  -18.0533   20.6672 O   0  0  0  0  0  0  0  0  0  0  0  0
  2  1  1  1
  3  4  1  0
  3  2  1  0
  4  5  2  0
  5  6  1  0
  7  6  1  0
  8  7  2  0
  9  8  1  0
 10 11  1  0
 10  9  2  0
 11 12  2  0
 12  4  1  0
 12  7  1  0
 13  2  1  0
 13 15  1  0
 14 13  2  0
 16 15  1  0
 16 22  1  0
 16 17  1  1
 18 17  1  0
 19 18  1  0
 20 19  1  0
 21 20  1  0
 22 23  2  0
 22 28  1  0
 25 24  1  1
 25 26  1  0
 27 25  1  0
 27 29  1  0
 27 28  1  1
 29 30  1  0
 31 29  2  0
M  END
$$$$
