WKT.pdb
     RDKit          3D

 31 32  0  0  1  0  0  0  0  0999 V2000
    6.1102  -18.2109   24.5735 N   0  0  0  0  0  0  0  0  0  0  0  0
    6.6738  -16.9395   24.2152 C   0  0  1  0  0  0  0  0  0  0  0  0
    7.6184  -16.4129   25.2693 C   0  0  0  0  0  0  0  0  0  0  0  0
    6.9861  -15.2422   25.9297 C   0  0  0  0  0  0  0  0  0  0  0  0
    5.8772  -15.2776   26.7329 C   0  0  0  0  0  0  0  0  0  0  0  0
    5.6047  -14.0271   27.1446 N   0  0  0  0  0  0  0  0  0  0  0  0
    6.5040  -13.1626   26.6354 C   0  0  0  0  0  0  0  0  0  0  0  0
    6.6415  -11.7811   26.7705 C   0  0  0  0  0  0  0  0  0  0  0  0
    7.6946  -11.2057   26.0999 C   0  0  0  0  0  0  0  0  0  0  0  0
    8.5657  -11.9598   25.3356 C   0  0  0  0  0  0  0  0  0  0  0  0
    8.4132  -13.3211   25.2151 C   0  0  0  0  0  0  0  0  0  0  0  0
    7.3678  -13.9210   25.8759 C   0  0  0  0  0  0  0  0  0  0  0  0
    7.3125  -17.0402   22.8874 C   0  0  0  0  0  0  0  0  0  0  0  0
    7.7153  -18.1486   22.4133 O   0  0  0  0  0  0  0  0  0  0  0  0
    7.4911  -15.8896   22.1058 N   0  0  0  0  0  0  0  0  0  0  0  0
    8.0328  -15.9730   20.7549 C   0  0  1  0  0  0  0  0  0  0  0  0
    7.7109  -14.7367   19.9676 C   0  0  0  0  0  0  0  0  0  0  0  0
    8.1771  -14.8571   18.5558 C   0  0  0  0  0  0  0  0  0  0  0  0
    7.7437  -13.7079   17.6862 C   0  0  0  0  0  0  0  0  0  0  0  0
    8.0551  -13.9692   16.2269 C   0  0  0  0  0  0  0  0  0  0  0  0
    7.5734  -12.8651   15.4345 N   0  0  0  0  0  0  0  0  0  0  0  0
    9.5303  -16.1637   20.8337 C   0  0  0  0  0  0  0  0  0  0  0  0
   10.2529  -16.1509   19.8103 O   0  0  0  0  0  0  0  0  0  0  0  0
   11.9026  -14.3954   23.4847 C   0  0  0  0  0  0  0  0  0  0  0  0
   12.0684  -15.9004   23.5130 C   0  0  1  0  0  0  0  0  0  0  0  0
   11.4583  -16.4530   24.6157 O   0  0  0  0  0  0  0  0  0  0  0  0
   11.5738  -16.5346   22.2386 C   0  0  2  0  0  0  0  0  0  0  0  0
   10.1520  -16.3640   22.0919 N   0  0  0  0  0  0  0  0  0  0  0  0
   11.9798  -17.9616   22.1595 C   0  0  0  0  0  0  0  0  0  0  0  0
   11.0314  -18.9803   22.1492 O   0  0  0  0  0  0  0  0  0  0  0  0
   13.2062  -18.2244   22.1021 O   0  0  0  0  0  0  0  0  0  0  0  0
  2  1  1  1
  3  4  1  0
  3  2  1  0
  4  5  2  0
  5  6  1  0
  7  6  1  0
  8  7  2  0
  9  8  1  0
 10 11  1  0
 10  9  2  0
 11 12  2  0
 12  4  1  0
 12  7  1  0
 13  2  1  0
 13 15  1  0
 14 13  2  0
 16 15  1  0
 16 22  1  0
 16 17  1  6
 18 17  1  0
 19 18  1  0
 20 19  1  0
 21 20  1  0
 22 23  2  0
 22 28  1  0
 25 24  1  6
 25 26  1  0
 27 25  1  0
 27 29  1  0
 27 28  1  1
 29 30  1  0
 31 29  2  0
M  END
$$$$
