HQM.pdb
     RDKit          3D

 28 28  0  0  1  0  0  0  0  0999 V2000
    7.1536  -20.7857   22.0699 N   0  0  0  0  0  0  0  0  0  0  0  0
    6.8212  -19.5234   22.6543 C   0  0  1  0  0  0  0  0  0  0  0  0
    6.7479  -19.6053   24.1702 C   0  0  0  0  0  0  0  0  0  0  0  0
    5.7166  -20.6244   24.5404 C   0  0  0  0  0  0  0  0  0  0  0  0
    4.9824  -21.3886   23.6408 C   0  0  0  0  0  0  0  0  0  0  0  0
    4.1481  -22.2008   24.3258 N   0  0  0  0  0  0  0  0  0  0  0  0
    4.3421  -21.9636   25.6322 C   0  0  0  0  0  0  0  0  0  0  0  0
    5.2982  -21.0027   25.7598 N   0  0  0  0  0  0  0  0  0  0  0  0
    7.8032  -18.4609   22.3202 C   0  0  0  0  0  0  0  0  0  0  0  0
    9.0112  -18.7324   22.3052 O   0  0  0  0  0  0  0  0  0  0  0  0
    6.7852  -12.4712   19.3692 N   0  0  0  0  0  0  0  0  0  0  0  0
    7.8930  -13.3317   19.1854 C   0  0  0  0  0  0  0  0  0  0  0  0
    8.3170  -13.5627   18.0441 O   0  0  0  0  0  0  0  0  0  0  0  0
    8.5090  -13.9328   20.4209 C   0  0  0  0  0  0  0  0  0  0  0  0
    7.6398  -15.0728   20.8391 C   0  0  0  0  0  0  0  0  0  0  0  0
    8.3079  -16.0675   21.7472 C   0  0  2  0  0  0  0  0  0  0  0  0
    7.3588  -17.1479   22.0214 N   0  0  0  0  0  0  0  0  0  0  0  0
    8.8129  -15.4889   23.0067 C   0  0  0  0  0  0  0  0  0  0  0  0
    9.6776  -14.5805   23.0576 O   0  0  0  0  0  0  0  0  0  0  0  0
    5.6499  -11.0703   26.2718 C   0  0  0  0  0  0  0  0  0  0  0  0
    5.9575  -12.7488   26.8705 S   0  0  0  0  0  0  0  0  0  0  0  0
    7.2992  -13.4606   25.8847 C   0  0  0  0  0  0  0  0  0  0  0  0
    7.6478  -14.8652   26.3743 C   0  0  0  0  0  0  0  0  0  0  0  0
    8.7454  -15.4187   25.5174 C   0  0  2  0  0  0  0  0  0  0  0  0
    8.3100  -15.9670   24.2716 N   0  0  0  0  0  0  0  0  0  0  0  0
    9.5753  -16.3773   26.3037 C   0  0  0  0  0  0  0  0  0  0  0  0
    9.6724  -17.5551   25.8765 O   0  0  0  0  0  0  0  0  0  0  0  0
   10.2364  -16.0479   27.4629 O   0  0  0  0  0  0  0  0  0  0  0  0
  2  1  1  6
  2  9  1  0
  3  2  1  0
  4  3  1  0
  5  4  2  0
  6  5  1  0
  7  6  1  0
  7  8  2  0
  8  4  1  0
  9 17  1  0
 10  9  2  0
 12 11  1  0
 13 12  2  0
 14 12  1  0
 15 14  1  0
 16 15  1  6
 17 16  1  0
 18 16  1  0
 18 19  2  0
 21 22  1  0
 21 20  1  0
 22 23  1  0
 24 23  1  1
 24 25  1  0
 24 26  1  0
 25 18  1  0
 26 28  1  0
 27 26  2  0
M  END
$$$$
