HQM.pdb
     RDKit          3D

 28 28  0  0  1  0  0  0  0  0999 V2000
    7.0164  -17.9450   19.6667 N   0  0  0  0  0  0  0  0  0  0  0  0
    7.1664  -16.7952   20.5040 C   0  0  1  0  0  0  0  0  0  0  0  0
    6.3769  -15.6076   19.9781 C   0  0  0  0  0  0  0  0  0  0  0  0
    7.3425  -14.5888   19.4598 C   0  0  0  0  0  0  0  0  0  0  0  0
    8.7275  -14.6872   19.5255 C   0  0  0  0  0  0  0  0  0  0  0  0
    9.2777  -13.5899   18.9614 N   0  0  0  0  0  0  0  0  0  0  0  0
    8.2709  -12.8070   18.5442 C   0  0  0  0  0  0  0  0  0  0  0  0
    7.0932  -13.4182   18.8492 N   0  0  0  0  0  0  0  0  0  0  0  0
    6.7153  -17.0384   21.8977 C   0  0  0  0  0  0  0  0  0  0  0  0
    5.5857  -17.5042   22.0986 O   0  0  0  0  0  0  0  0  0  0  0  0
    5.9711  -20.5916   25.6927 N   0  0  0  0  0  0  0  0  0  0  0  0
    7.2748  -20.6543   25.1470 C   0  0  0  0  0  0  0  0  0  0  0  0
    7.9517  -21.6844   25.2733 O   0  0  0  0  0  0  0  0  0  0  0  0
    7.7773  -19.4322   24.4249 C   0  0  0  0  0  0  0  0  0  0  0  0
    6.6880  -18.4117   24.4710 C   0  0  0  0  0  0  0  0  0  0  0  0
    7.1610  -16.9882   24.3696 C   0  0  2  0  0  0  0  0  0  0  0  0
    7.5724  -16.7390   22.9869 N   0  0  0  0  0  0  0  0  0  0  0  0
    8.2504  -16.6472   25.3040 C   0  0  0  0  0  0  0  0  0  0  0  0
    9.4660  -16.8343   25.0533 O   0  0  0  0  0  0  0  0  0  0  0  0
    6.4925  -10.5101   26.0652 C   0  0  0  0  0  0  0  0  0  0  0  0
    6.9185  -11.6064   27.4388 S   0  0  0  0  0  0  0  0  0  0  0  0
    7.7896  -13.0428   26.7630 C   0  0  0  0  0  0  0  0  0  0  0  0
    8.2310  -13.9866   27.8803 C   0  0  0  0  0  0  0  0  0  0  0  0
    8.8568  -15.2029   27.2685 C   0  0  2  0  0  0  0  0  0  0  0  0
    7.9426  -16.0648   26.5875 N   0  0  0  0  0  0  0  0  0  0  0  0
    9.6726  -15.9265   28.2867 C   0  0  0  0  0  0  0  0  0  0  0  0
    9.3272  -17.0960   28.5903 O   0  0  0  0  0  0  0  0  0  0  0  0
   10.7747  -15.3901   28.9087 O   0  0  0  0  0  0  0  0  0  0  0  0
  2  1  1  6
  2  9  1  0
  3  2  1  0
  4  3  1  0
  5  4  2  0
  6  5  1  0
  7  6  1  0
  7  8  2  0
  8  4  1  0
  9 17  1  0
 10  9  2  0
 12 11  1  0
 13 12  2  0
 14 12  1  0
 15 14  1  0
 16 15  1  6
 17 16  1  0
 18 16  1  0
 18 19  2  0
 21 22  1  0
 21 20  1  0
 22 23  1  0
 24 23  1  1
 24 25  1  0
 24 26  1  0
 25 18  1  0
 26 28  1  0
 27 26  2  0
M  END
$$$$
