HQM.pdb
     RDKit          3D

 28 28  0  0  1  0  0  0  0  0999 V2000
    8.6345  -19.6047   17.7785 N   0  0  0  0  0  0  0  0  0  0  0  0
    8.8939  -18.4361   18.5612 C   0  0  1  0  0  0  0  0  0  0  0  0
    8.7470  -17.1644   17.7420 C   0  0  0  0  0  0  0  0  0  0  0  0
    9.2350  -17.4360   16.3537 C   0  0  0  0  0  0  0  0  0  0  0  0
   10.5022  -17.9026   16.0239 C   0  0  0  0  0  0  0  0  0  0  0  0
   10.5920  -18.0323   14.6822 N   0  0  0  0  0  0  0  0  0  0  0  0
    9.4121  -17.6583   14.1642 C   0  0  0  0  0  0  0  0  0  0  0  0
    8.5874  -17.2955   15.1849 N   0  0  0  0  0  0  0  0  0  0  0  0
    7.9826  -18.3136   19.7272 C   0  0  0  0  0  0  0  0  0  0  0  0
    6.8220  -18.7360   19.6389 O   0  0  0  0  0  0  0  0  0  0  0  0
    8.3862  -22.0534   22.7977 N   0  0  0  0  0  0  0  0  0  0  0  0
    7.8168  -21.4263   23.9309 C   0  0  0  0  0  0  0  0  0  0  0  0
    7.5587  -22.0912   24.9442 O   0  0  0  0  0  0  0  0  0  0  0  0
    7.5506  -19.9473   23.8368 C   0  0  0  0  0  0  0  0  0  0  0  0
    8.0379  -19.4939   22.5000 C   0  0  0  0  0  0  0  0  0  0  0  0
    7.8212  -18.0330   22.2185 C   0  0  2  0  0  0  0  0  0  0  0  0
    8.4400  -17.7175   20.9298 N   0  0  0  0  0  0  0  0  0  0  0  0
    8.3306  -17.1346   23.2719 C   0  0  0  0  0  0  0  0  0  0  0  0
    9.5483  -17.0063   23.5479 O   0  0  0  0  0  0  0  0  0  0  0  0
    7.2026  -10.3468   26.8064 C   0  0  0  0  0  0  0  0  0  0  0  0
    6.3018  -11.8155   26.2570 S   0  0  0  0  0  0  0  0  0  0  0  0
    7.5067  -13.1306   25.9452 C   0  0  0  0  0  0  0  0  0  0  0  0
    6.8139  -14.3935   25.4360 C   0  0  0  0  0  0  0  0  0  0  0  0
    7.8576  -15.3790   25.0060 C   0  0  2  0  0  0  0  0  0  0  0  0
    7.4097  -16.3426   24.0505 N   0  0  0  0  0  0  0  0  0  0  0  0
    8.4886  -16.0111   26.2011 C   0  0  0  0  0  0  0  0  0  0  0  0
    8.0412  -17.1225   26.5805 O   0  0  0  0  0  0  0  0  0  0  0  0
    9.5259  -15.4506   26.9075 O   0  0  0  0  0  0  0  0  0  0  0  0
  2  1  1  6
  2  9  1  0
  3  2  1  0
  4  3  1  0
  5  4  2  0
  6  5  1  0
  7  6  1  0
  7  8  2  0
  8  4  1  0
  9 17  1  0
 10  9  2  0
 12 11  1  0
 13 12  2  0
 14 12  1  0
 15 14  1  0
 16 15  1  1
 17 16  1  0
 18 16  1  0
 18 19  2  0
 21 22  1  0
 21 20  1  0
 22 23  1  0
 24 23  1  1
 24 25  1  0
 24 26  1  0
 25 18  1  0
 26 28  1  0
 27 26  2  0
M  END
$$$$
