HQM.pdb
     RDKit          3D

 28 28  0  0  1  0  0  0  0  0999 V2000
    8.8206  -17.1762   17.5949 N   0  0  0  0  0  0  0  0  0  0  0  0
    8.7261  -16.1585   18.5953 C   0  0  1  0  0  0  0  0  0  0  0  0
    7.6074  -15.1744   18.2949 C   0  0  0  0  0  0  0  0  0  0  0  0
    7.9158  -14.4865   17.0023 C   0  0  0  0  0  0  0  0  0  0  0  0
    9.0268  -14.7348   16.2046 C   0  0  0  0  0  0  0  0  0  0  0  0
    8.9806  -13.9339   15.1177 N   0  0  0  0  0  0  0  0  0  0  0  0
    7.8679  -13.1903   15.2156 C   0  0  0  0  0  0  0  0  0  0  0  0
    7.2212  -13.5292   16.3647 N   0  0  0  0  0  0  0  0  0  0  0  0
    8.4727  -16.7091   19.9508 C   0  0  0  0  0  0  0  0  0  0  0  0
    7.3259  -17.0589   20.2604 O   0  0  0  0  0  0  0  0  0  0  0  0
   12.4343  -19.7834   21.5218 N   0  0  0  0  0  0  0  0  0  0  0  0
   11.2918  -20.2611   20.8375 C   0  0  0  0  0  0  0  0  0  0  0  0
   11.4146  -21.1042   19.9377 O   0  0  0  0  0  0  0  0  0  0  0  0
    9.9573  -19.7019   21.2540 C   0  0  0  0  0  0  0  0  0  0  0  0
   10.2184  -18.6578   22.2892 C   0  0  0  0  0  0  0  0  0  0  0  0
    9.3319  -17.4473   22.1932 C   0  0  2  0  0  0  0  0  0  0  0  0
    9.5362  -16.8322   20.8805 N   0  0  0  0  0  0  0  0  0  0  0  0
    9.5436  -16.4588   23.2675 C   0  0  0  0  0  0  0  0  0  0  0  0
   10.4348  -15.5755   23.2345 O   0  0  0  0  0  0  0  0  0  0  0  0
    7.0872  -10.6094   26.3151 C   0  0  0  0  0  0  0  0  0  0  0  0
    6.6216  -12.3539   26.4163 S   0  0  0  0  0  0  0  0  0  0  0  0
    8.0356  -13.3460   25.8732 C   0  0  0  0  0  0  0  0  0  0  0  0
    7.7371  -14.8382   26.0084 C   0  0  0  0  0  0  0  0  0  0  0  0
    8.9354  -15.6152   25.5548 C   0  0  2  0  0  0  0  0  0  0  0  0
    8.7002  -16.4752   24.4379 N   0  0  0  0  0  0  0  0  0  0  0  0
    9.5469  -16.3346   26.7100 C   0  0  0  0  0  0  0  0  0  0  0  0
    9.4747  -17.5892   26.7232 O   0  0  0  0  0  0  0  0  0  0  0  0
   10.1814  -15.7072   27.7554 O   0  0  0  0  0  0  0  0  0  0  0  0
  2  1  1  6
  2  9  1  0
  3  2  1  0
  4  3  1  0
  5  4  2  0
  6  5  1  0
  7  6  1  0
  7  8  2  0
  8  4  1  0
  9 17  1  0
 10  9  2  0
 12 11  1  0
 13 12  2  0
 14 12  1  0
 15 14  1  0
 16 15  1  1
 17 16  1  0
 18 16  1  0
 18 19  2  0
 21 22  1  0
 21 20  1  0
 22 23  1  0
 24 23  1  1
 24 25  1  0
 24 26  1  0
 25 18  1  0
 26 28  1  0
 27 26  2  0
M  END
$$$$
