HQM.pdb
     RDKit          3D

 28 28  0  0  1  0  0  0  0  0999 V2000
    6.3451  -16.3011   21.1391 N   0  0  0  0  0  0  0  0  0  0  0  0
    7.6719  -15.8763   21.4624 C   0  0  1  0  0  0  0  0  0  0  0  0
    7.7638  -14.3649   21.5949 C   0  0  0  0  0  0  0  0  0  0  0  0
    7.8906  -13.7760   20.2252 C   0  0  0  0  0  0  0  0  0  0  0  0
    8.0525  -14.5010   19.0503 C   0  0  0  0  0  0  0  0  0  0  0  0
    8.1309  -13.6451   18.0079 N   0  0  0  0  0  0  0  0  0  0  0  0
    8.0220  -12.4022   18.5018 C   0  0  0  0  0  0  0  0  0  0  0  0
    7.8757  -12.4851   19.8528 N   0  0  0  0  0  0  0  0  0  0  0  0
    8.1655  -16.4583   22.7362 C   0  0  0  0  0  0  0  0  0  0  0  0
    7.3615  -16.6983   23.6469 O   0  0  0  0  0  0  0  0  0  0  0  0
   13.1407  -19.4180   21.7281 N   0  0  0  0  0  0  0  0  0  0  0  0
   12.3948  -19.9743   22.7938 C   0  0  0  0  0  0  0  0  0  0  0  0
   12.8524  -20.9267   23.4411 O   0  0  0  0  0  0  0  0  0  0  0  0
   11.0518  -19.3598   23.0872 C   0  0  0  0  0  0  0  0  0  0  0  0
   11.2993  -18.0923   23.8370 C   0  0  0  0  0  0  0  0  0  0  0  0
   10.0604  -17.3017   24.1538 C   0  0  2  0  0  0  0  0  0  0  0  0
    9.5457  -16.7358   22.9056 N   0  0  0  0  0  0  0  0  0  0  0  0
   10.2630  -16.2411   25.1590 C   0  0  0  0  0  0  0  0  0  0  0  0
   11.0608  -15.2837   25.0089 O   0  0  0  0  0  0  0  0  0  0  0  0
    7.8194  -10.6602   25.7493 C   0  0  0  0  0  0  0  0  0  0  0  0
    7.4003  -12.3020   26.3809 S   0  0  0  0  0  0  0  0  0  0  0  0
    8.9024  -13.0388   27.0733 C   0  0  0  0  0  0  0  0  0  0  0  0
    8.6007  -14.3966   27.7054 C   0  0  0  0  0  0  0  0  0  0  0  0
    9.7498  -15.3209   27.4399 C   0  0  2  0  0  0  0  0  0  0  0  0
    9.5221  -16.2704   26.3965 N   0  0  0  0  0  0  0  0  0  0  0  0
   10.1935  -15.9648   28.7105 C   0  0  0  0  0  0  0  0  0  0  0  0
   10.4946  -15.2150   29.6730 O   0  0  0  0  0  0  0  0  0  0  0  0
   10.2914  -17.3243   28.8880 O   0  0  0  0  0  0  0  0  0  0  0  0
  2  1  1  1
  2  9  1  0
  3  2  1  0
  4  3  1  0
  5  4  2  0
  6  5  1  0
  7  6  1  0
  7  8  2  0
  8  4  1  0
  9 17  1  0
 10  9  2  0
 12 11  1  0
 13 12  2  0
 14 12  1  0
 15 14  1  0
 16 15  1  6
 17 16  1  0
 18 16  1  0
 18 19  2  0
 21 22  1  0
 21 20  1  0
 22 23  1  0
 24 23  1  1
 24 25  1  0
 24 26  1  0
 25 18  1  0
 26 28  1  0
 27 26  2  0
M  END
$$$$
