HQM.pdb
     RDKit          3D

 28 28  0  0  1  0  0  0  0  0999 V2000
    9.8871  -19.0309   18.3670 N   0  0  0  0  0  0  0  0  0  0  0  0
   10.4443  -18.0055   19.1939 C   0  0  1  0  0  0  0  0  0  0  0  0
   10.9071  -16.8108   18.3761 C   0  0  0  0  0  0  0  0  0  0  0  0
   12.1607  -17.1891   17.6521 C   0  0  0  0  0  0  0  0  0  0  0  0
   12.8138  -18.4115   17.7601 C   0  0  0  0  0  0  0  0  0  0  0  0
   13.9075  -18.4019   16.9671 N   0  0  0  0  0  0  0  0  0  0  0  0
   13.9549  -17.2035   16.3654 C   0  0  0  0  0  0  0  0  0  0  0  0
   12.8895  -16.4668   16.7846 N   0  0  0  0  0  0  0  0  0  0  0  0
    9.4820  -17.4982   20.2045 C   0  0  0  0  0  0  0  0  0  0  0  0
    8.2716  -17.4942   19.9433 O   0  0  0  0  0  0  0  0  0  0  0  0
   10.1990  -20.8297   25.7913 N   0  0  0  0  0  0  0  0  0  0  0  0
    9.9219  -20.7412   24.4068 C   0  0  0  0  0  0  0  0  0  0  0  0
   10.4558  -21.5309   23.6151 O   0  0  0  0  0  0  0  0  0  0  0  0
    8.9682  -19.6632   23.9642 C   0  0  0  0  0  0  0  0  0  0  0  0
    9.5705  -19.0033   22.7675 C   0  0  0  0  0  0  0  0  0  0  0  0
    9.3814  -17.5128   22.7147 C   0  0  2  0  0  0  0  0  0  0  0  0
    9.9477  -17.0229   21.4567 N   0  0  0  0  0  0  0  0  0  0  0  0
    9.9641  -16.7906   23.8615 C   0  0  0  0  0  0  0  0  0  0  0  0
   10.5481  -17.3578   24.8168 O   0  0  0  0  0  0  0  0  0  0  0  0
    6.7788  -10.8081   26.8572 C   0  0  0  0  0  0  0  0  0  0  0  0
    6.6006  -11.8930   25.4214 S   0  0  0  0  0  0  0  0  0  0  0  0
    7.2101  -13.5357   25.8784 C   0  0  0  0  0  0  0  0  0  0  0  0
    7.8002  -14.2536   24.6658 C   0  0  0  0  0  0  0  0  0  0  0  0
    9.2004  -14.6786   24.9882 C   0  0  2  0  0  0  0  0  0  0  0  0
    9.8786  -15.3518   23.9255 N   0  0  0  0  0  0  0  0  0  0  0  0
    9.2193  -15.4572   26.2607 C   0  0  0  0  0  0  0  0  0  0  0  0
    8.6659  -16.5855   26.2653 O   0  0  0  0  0  0  0  0  0  0  0  0
    9.8043  -15.0135   27.4227 O   0  0  0  0  0  0  0  0  0  0  0  0
  2  1  1  6
  2  9  1  0
  3  2  1  0
  4  3  1  0
  5  4  2  0
  6  5  1  0
  7  6  1  0
  7  8  2  0
  8  4  1  0
  9 17  1  0
 10  9  2  0
 12 11  1  0
 13 12  2  0
 14 12  1  0
 15 14  1  0
 16 15  1  1
 17 16  1  0
 18 16  1  0
 18 19  2  0
 21 22  1  0
 21 20  1  0
 22 23  1  0
 24 23  1  6
 24 25  1  0
 24 26  1  0
 25 18  1  0
 26 28  1  0
 27 26  2  0
M  END
$$$$
