HQM.pdb
     RDKit          3D

 28 28  0  0  1  0  0  0  0  0999 V2000
    7.7119  -17.1718   21.1625 N   0  0  0  0  0  0  0  0  0  0  0  0
    8.8035  -16.3637   21.6110 C   0  0  1  0  0  0  0  0  0  0  0  0
    8.3308  -15.0172   22.1340 C   0  0  0  0  0  0  0  0  0  0  0  0
    7.9227  -14.1726   20.9681 C   0  0  0  0  0  0  0  0  0  0  0  0
    8.0150  -14.5473   19.6327 C   0  0  0  0  0  0  0  0  0  0  0  0
    7.5575  -13.5406   18.8567 N   0  0  0  0  0  0  0  0  0  0  0  0
    7.1811  -12.5449   19.6737 C   0  0  0  0  0  0  0  0  0  0  0  0
    7.4048  -12.9329   20.9594 N   0  0  0  0  0  0  0  0  0  0  0  0
    9.5834  -17.0067   22.6987 C   0  0  0  0  0  0  0  0  0  0  0  0
    9.2104  -18.0971   23.1517 O   0  0  0  0  0  0  0  0  0  0  0  0
   14.1597  -19.4859   22.9951 N   0  0  0  0  0  0  0  0  0  0  0  0
   13.9246  -18.9728   24.2925 C   0  0  0  0  0  0  0  0  0  0  0  0
   13.5798  -19.7335   25.2078 O   0  0  0  0  0  0  0  0  0  0  0  0
   14.1125  -17.4920   24.4905 C   0  0  0  0  0  0  0  0  0  0  0  0
   13.0645  -16.8008   23.6818 C   0  0  0  0  0  0  0  0  0  0  0  0
   11.6533  -17.0772   24.1206 C   0  0  2  0  0  0  0  0  0  0  0  0
   10.7447  -16.3755   23.2122 N   0  0  0  0  0  0  0  0  0  0  0  0
   11.3744  -16.7068   25.5211 C   0  0  0  0  0  0  0  0  0  0  0  0
   12.0238  -17.1488   26.5001 O   0  0  0  0  0  0  0  0  0  0  0  0
    7.1559  -11.2080   25.3502 C   0  0  0  0  0  0  0  0  0  0  0  0
    7.0428  -12.6750   26.4016 S   0  0  0  0  0  0  0  0  0  0  0  0
    8.6157  -13.5659   26.2954 C   0  0  0  0  0  0  0  0  0  0  0  0
    8.6652  -14.7051   27.3121 C   0  0  0  0  0  0  0  0  0  0  0  0
    9.9691  -15.4289   27.1658 C   0  0  2  0  0  0  0  0  0  0  0  0
   10.3038  -15.7883   25.8237 N   0  0  0  0  0  0  0  0  0  0  0  0
   10.0157  -16.5937   28.0969 C   0  0  0  0  0  0  0  0  0  0  0  0
    9.9522  -16.3606   29.3301 O   0  0  0  0  0  0  0  0  0  0  0  0
   10.1237  -17.9008   27.6854 O   0  0  0  0  0  0  0  0  0  0  0  0
  2  1  1  1
  2  9  1  0
  3  2  1  0
  4  3  1  0
  5  4  2  0
  6  5  1  0
  7  6  1  0
  7  8  2  0
  8  4  1  0
  9 17  1  0
 10  9  2  0
 12 11  1  0
 13 12  2  0
 14 12  1  0
 15 14  1  0
 16 15  1  6
 17 16  1  0
 18 16  1  0
 18 19  2  0
 21 22  1  0
 21 20  1  0
 22 23  1  0
 24 23  1  6
 24 25  1  0
 24 26  1  0
 25 18  1  0
 26 28  1  0
 27 26  2  0
M  END
$$$$
