HQM.pdb
     RDKit          3D

 28 28  0  0  1  0  0  0  0  0999 V2000
    6.9548  -17.0953   18.8934 N   0  0  0  0  0  0  0  0  0  0  0  0
    7.9775  -16.3677   19.5792 C   0  0  1  0  0  0  0  0  0  0  0  0
    7.7086  -14.8718   19.5697 C   0  0  0  0  0  0  0  0  0  0  0  0
    7.8330  -14.3769   18.1631 C   0  0  0  0  0  0  0  0  0  0  0  0
    8.2326  -15.1426   17.0738 C   0  0  0  0  0  0  0  0  0  0  0  0
    8.2298  -14.3716   15.9645 N   0  0  0  0  0  0  0  0  0  0  0  0
    7.8382  -13.1421   16.3328 C   0  0  0  0  0  0  0  0  0  0  0  0
    7.5972  -13.1484   17.6727 N   0  0  0  0  0  0  0  0  0  0  0  0
    8.1186  -16.7783   20.9992 C   0  0  0  0  0  0  0  0  0  0  0  0
    7.1575  -16.6463   21.7687 O   0  0  0  0  0  0  0  0  0  0  0  0
   12.7130  -20.2387   23.0094 N   0  0  0  0  0  0  0  0  0  0  0  0
   12.1844  -19.9785   24.2956 C   0  0  0  0  0  0  0  0  0  0  0  0
   12.6861  -20.5157   25.2932 O   0  0  0  0  0  0  0  0  0  0  0  0
   11.0113  -19.0383   24.3793 C   0  0  0  0  0  0  0  0  0  0  0  0
   10.6943  -18.6008   22.9871 C   0  0  0  0  0  0  0  0  0  0  0  0
    9.5421  -17.6410   22.8810 C   0  0  2  0  0  0  0  0  0  0  0  0
    9.3442  -17.3164   21.4672 N   0  0  0  0  0  0  0  0  0  0  0  0
    9.7079  -16.4101   23.6771 C   0  0  0  0  0  0  0  0  0  0  0  0
    9.9073  -15.2777   23.1737 O   0  0  0  0  0  0  0  0  0  0  0  0
    6.5853  -10.8248   26.9604 C   0  0  0  0  0  0  0  0  0  0  0  0
    6.6277  -12.2848   25.8942 S   0  0  0  0  0  0  0  0  0  0  0  0
    8.0254  -13.3155   26.4069 C   0  0  0  0  0  0  0  0  0  0  0  0
    8.1741  -14.5266   25.4876 C   0  0  0  0  0  0  0  0  0  0  0  0
    9.3762  -15.3134   25.9132 C   0  0  2  0  0  0  0  0  0  0  0  0
    9.6442  -16.4696   25.1171 N   0  0  0  0  0  0  0  0  0  0  0  0
    9.2924  -15.6298   27.3688 C   0  0  0  0  0  0  0  0  0  0  0  0
    9.1934  -14.6686   28.1723 O   0  0  0  0  0  0  0  0  0  0  0  0
    9.3172  -16.9059   27.8789 O   0  0  0  0  0  0  0  0  0  0  0  0
  2  1  1  1
  2  9  1  0
  3  2  1  0
  4  3  1  0
  5  4  2  0
  6  5  1  0
  7  6  1  0
  7  8  2  0
  8  4  1  0
  9 17  1  0
 10  9  2  0
 12 11  1  0
 13 12  2  0
 14 12  1  0
 15 14  1  0
 16 15  1  6
 17 16  1  0
 18 16  1  0
 18 19  2  0
 21 22  1  0
 21 20  1  0
 22 23  1  0
 24 23  1  6
 24 25  1  0
 24 26  1  0
 25 18  1  0
 26 28  1  0
 27 26  2  0
M  END
$$$$
