HQM.pdb
     RDKit          3D

 28 28  0  0  1  0  0  0  0  0999 V2000
    8.0259  -17.6350   18.1665 N   0  0  0  0  0  0  0  0  0  0  0  0
    8.4709  -16.6037   19.0518 C   0  0  1  0  0  0  0  0  0  0  0  0
    7.6138  -15.3537   18.9379 C   0  0  0  0  0  0  0  0  0  0  0  0
    7.9520  -14.6627   17.6545 C   0  0  0  0  0  0  0  0  0  0  0  0
    8.8980  -15.0964   16.7329 C   0  0  0  0  0  0  0  0  0  0  0  0
    8.9376  -14.2306   15.6966 N   0  0  0  0  0  0  0  0  0  0  0  0
    8.0395  -13.2655   15.9470 C   0  0  0  0  0  0  0  0  0  0  0  0
    7.4407  -13.5315   17.1405 N   0  0  0  0  0  0  0  0  0  0  0  0
    8.4479  -17.0221   20.4764 C   0  0  0  0  0  0  0  0  0  0  0  0
    7.3791  -17.3832   20.9868 O   0  0  0  0  0  0  0  0  0  0  0  0
   12.8997  -19.8795   23.1208 N   0  0  0  0  0  0  0  0  0  0  0  0
   11.6831  -20.6015   23.1150 C   0  0  0  0  0  0  0  0  0  0  0  0
   11.6927  -21.8348   23.2346 O   0  0  0  0  0  0  0  0  0  0  0  0
   10.4132  -19.8075   22.9596 C   0  0  0  0  0  0  0  0  0  0  0  0
   10.8009  -18.3696   22.8494 C   0  0  0  0  0  0  0  0  0  0  0  0
    9.6485  -17.4257   22.6459 C   0  0  2  0  0  0  0  0  0  0  0  0
    9.6406  -17.0071   21.2431 N   0  0  0  0  0  0  0  0  0  0  0  0
    9.6678  -16.2504   23.5374 C   0  0  0  0  0  0  0  0  0  0  0  0
   10.5899  -15.3989   23.5461 O   0  0  0  0  0  0  0  0  0  0  0  0
    6.6509  -10.9130   28.1856 C   0  0  0  0  0  0  0  0  0  0  0  0
    6.3044  -12.0804   26.8486 S   0  0  0  0  0  0  0  0  0  0  0  0
    7.4763  -13.4541   26.9834 C   0  0  0  0  0  0  0  0  0  0  0  0
    7.2908  -14.4421   25.8329 C   0  0  0  0  0  0  0  0  0  0  0  0
    8.6284  -15.0009   25.4535 C   0  0  2  0  0  0  0  0  0  0  0  0
    8.5849  -16.0324   24.4654 N   0  0  0  0  0  0  0  0  0  0  0  0
    9.3768  -15.4135   26.6764 C   0  0  0  0  0  0  0  0  0  0  0  0
    9.6977  -14.5174   27.4969 O   0  0  0  0  0  0  0  0  0  0  0  0
    9.7339  -16.7111   26.9559 O   0  0  0  0  0  0  0  0  0  0  0  0
  2  1  1  6
  2  9  1  0
  3  2  1  0
  4  3  1  0
  5  4  2  0
  6  5  1  0
  7  6  1  0
  7  8  2  0
  8  4  1  0
  9 17  1  0
 10  9  2  0
 12 11  1  0
 13 12  2  0
 14 12  1  0
 15 14  1  0
 16 15  1  6
 17 16  1  0
 18 16  1  0
 18 19  2  0
 21 22  1  0
 21 20  1  0
 22 23  1  0
 24 23  1  1
 24 25  1  0
 24 26  1  0
 25 18  1  0
 26 28  1  0
 27 26  2  0
M  END
$$$$
