HQM.pdb
     RDKit          3D

 28 28  0  0  1  0  0  0  0  0999 V2000
    8.6385  -20.3643   20.4554 N   0  0  0  0  0  0  0  0  0  0  0  0
    8.0803  -19.3535   21.2994 C   0  0  1  0  0  0  0  0  0  0  0  0
    7.7663  -19.8877   22.6873 C   0  0  0  0  0  0  0  0  0  0  0  0
    6.6293  -20.8542   22.5770 C   0  0  0  0  0  0  0  0  0  0  0  0
    5.5405  -20.7206   21.7232 C   0  0  0  0  0  0  0  0  0  0  0  0
    4.7132  -21.7754   21.8906 N   0  0  0  0  0  0  0  0  0  0  0  0
    5.2576  -22.5659   22.8283 C   0  0  0  0  0  0  0  0  0  0  0  0
    6.4248  -22.0022   23.2446 N   0  0  0  0  0  0  0  0  0  0  0  0
    8.9843  -18.1883   21.4728 C   0  0  0  0  0  0  0  0  0  0  0  0
   10.1914  -18.3795   21.6716 O   0  0  0  0  0  0  0  0  0  0  0  0
    8.3550  -12.8191   18.8377 N   0  0  0  0  0  0  0  0  0  0  0  0
    7.2245  -13.2851   19.5494 C   0  0  0  0  0  0  0  0  0  0  0  0
    6.1080  -12.7936   19.3317 O   0  0  0  0  0  0  0  0  0  0  0  0
    7.4503  -14.3808   20.5572 C   0  0  0  0  0  0  0  0  0  0  0  0
    8.9181  -14.6535   20.5933 C   0  0  0  0  0  0  0  0  0  0  0  0
    9.3343  -15.7031   21.5859 C   0  0  2  0  0  0  0  0  0  0  0  0
    8.4670  -16.8695   21.4109 N   0  0  0  0  0  0  0  0  0  0  0  0
    9.3136  -15.2476   22.9888 C   0  0  0  0  0  0  0  0  0  0  0  0
    9.9250  -14.2311   23.3992 O   0  0  0  0  0  0  0  0  0  0  0  0
    6.7842  -10.6251   26.5727 C   0  0  0  0  0  0  0  0  0  0  0  0
    6.3650  -12.3813   26.6748 S   0  0  0  0  0  0  0  0  0  0  0  0
    7.5542  -13.3031   25.6674 C   0  0  0  0  0  0  0  0  0  0  0  0
    7.2338  -14.7968   25.6784 C   0  0  0  0  0  0  0  0  0  0  0  0
    8.4764  -15.5615   25.3369 C   0  0  2  0  0  0  0  0  0  0  0  0
    8.5605  -15.9843   23.9744 N   0  0  0  0  0  0  0  0  0  0  0  0
    8.6645  -16.6882   26.2966 C   0  0  0  0  0  0  0  0  0  0  0  0
    8.5574  -17.8592   25.8532 O   0  0  0  0  0  0  0  0  0  0  0  0
    8.9468  -16.5199   27.6312 O   0  0  0  0  0  0  0  0  0  0  0  0
  2  1  1  6
  2  9  1  0
  3  2  1  0
  4  3  1  0
  5  4  2  0
  6  5  1  0
  7  6  1  0
  7  8  2  0
  8  4  1  0
  9 17  1  0
 10  9  2  0
 12 11  1  0
 13 12  2  0
 14 12  1  0
 15 14  1  0
 16 15  1  6
 17 16  1  0
 18 16  1  0
 18 19  2  0
 21 22  1  0
 21 20  1  0
 22 23  1  0
 24 23  1  6
 24 25  1  0
 24 26  1  0
 25 18  1  0
 26 28  1  0
 27 26  2  0
M  END
$$$$
