HQM.pdb
     RDKit          3D

 28 28  0  0  1  0  0  0  0  0999 V2000
    7.4126  -16.9687   19.8192 N   0  0  0  0  0  0  0  0  0  0  0  0
    8.3835  -16.2142   20.5497 C   0  0  1  0  0  0  0  0  0  0  0  0
    8.0282  -14.7372   20.6007 C   0  0  0  0  0  0  0  0  0  0  0  0
    8.0837  -14.1882   19.2099 C   0  0  0  0  0  0  0  0  0  0  0  0
    8.4366  -14.9087   18.0747 C   0  0  0  0  0  0  0  0  0  0  0  0
    8.3772  -14.0961   16.9970 N   0  0  0  0  0  0  0  0  0  0  0  0
    7.9958  -12.8846   17.4300 C   0  0  0  0  0  0  0  0  0  0  0  0
    7.8177  -12.9438   18.7785 N   0  0  0  0  0  0  0  0  0  0  0  0
    8.5321  -16.6775   21.9526 C   0  0  0  0  0  0  0  0  0  0  0  0
    7.5229  -16.8220   22.6554 O   0  0  0  0  0  0  0  0  0  0  0  0
   11.0434  -21.0616   23.8899 N   0  0  0  0  0  0  0  0  0  0  0  0
   11.3669  -20.4874   25.1417 C   0  0  0  0  0  0  0  0  0  0  0  0
   11.5759  -21.2148   26.1229 O   0  0  0  0  0  0  0  0  0  0  0  0
   11.4403  -18.9850   25.2104 C   0  0  0  0  0  0  0  0  0  0  0  0
   11.0860  -18.4621   23.8573 C   0  0  0  0  0  0  0  0  0  0  0  0
    9.9931  -17.4297   23.8529 C   0  0  2  0  0  0  0  0  0  0  0  0
    9.8195  -16.9513   22.4803 N   0  0  0  0  0  0  0  0  0  0  0  0
   10.2292  -16.2986   24.7701 C   0  0  0  0  0  0  0  0  0  0  0  0
   11.0513  -15.3779   24.5419 O   0  0  0  0  0  0  0  0  0  0  0  0
    6.7639  -11.0230   25.4997 C   0  0  0  0  0  0  0  0  0  0  0  0
    6.9231  -12.3193   26.7506 S   0  0  0  0  0  0  0  0  0  0  0  0
    8.3725  -13.3235   26.3389 C   0  0  0  0  0  0  0  0  0  0  0  0
    8.6244  -14.3808   27.4125 C   0  0  0  0  0  0  0  0  0  0  0  0
    9.7924  -15.2232   26.9985 C   0  0  2  0  0  0  0  0  0  0  0  0
    9.4944  -16.2098   26.0084 N   0  0  0  0  0  0  0  0  0  0  0  0
   10.4568  -15.8044   28.2012 C   0  0  0  0  0  0  0  0  0  0  0  0
   10.4301  -17.0532   28.3390 O   0  0  0  0  0  0  0  0  0  0  0  0
   11.0932  -15.0561   29.1627 O   0  0  0  0  0  0  0  0  0  0  0  0
  2  1  1  1
  2  9  1  0
  3  2  1  0
  4  3  1  0
  5  4  2  0
  6  5  1  0
  7  6  1  0
  7  8  2  0
  8  4  1  0
  9 17  1  0
 10  9  2  0
 12 11  1  0
 13 12  2  0
 14 12  1  0
 15 14  1  0
 16 15  1  6
 17 16  1  0
 18 16  1  0
 18 19  2  0
 21 22  1  0
 21 20  1  0
 22 23  1  0
 24 23  1  1
 24 25  1  0
 24 26  1  0
 25 18  1  0
 26 28  1  0
 27 26  2  0
M  END
$$$$
