HQM.pdb
     RDKit          3D

 28 28  0  0  1  0  0  0  0  0999 V2000
 -604.0392-1410.8120 2175.9448 N   0  0  0  0  0  0  0  0  0  0  0  0
 -603.8492-1411.8793 2176.8767 C   0  0  1  0  0  0  0  0  0  0  0  0
 -604.6290-1413.1210 2176.4775 C   0  0  0  0  0  0  0  0  0  0  0  0
 -606.0055-1412.7032 2176.0642 C   0  0  0  0  0  0  0  0  0  0  0  0
 -607.1527-1413.4785 2176.1921 C   0  0  0  0  0  0  0  0  0  0  0  0
 -608.2111-1412.7861 2175.7180 N   0  0  0  0  0  0  0  0  0  0  0  0
 -607.7547-1411.5964 2175.2981 C   0  0  0  0  0  0  0  0  0  0  0  0
 -606.4107-1411.5499 2175.5103 N   0  0  0  0  0  0  0  0  0  0  0  0
 -602.4250-1412.2793 2177.0059 C   0  0  0  0  0  0  0  0  0  0  0  0
 -601.9407-1413.0753 2176.1895 O   0  0  0  0  0  0  0  0  0  0  0  0
 -597.0268-1409.5802 2176.8621 N   0  0  0  0  0  0  0  0  0  0  0  0
 -598.2762-1410.1886 2177.1301 C   0  0  0  0  0  0  0  0  0  0  0  0
 -599.3026-1409.7654 2176.5808 O   0  0  0  0  0  0  0  0  0  0  0  0
 -598.2838-1411.3452 2178.0945 C   0  0  0  0  0  0  0  0  0  0  0  0
 -599.3289-1412.3042 2177.6265 C   0  0  0  0  0  0  0  0  0  0  0  0
 -600.4771-1412.4902 2178.5786 C   0  0  2  0  0  0  0  0  0  0  0  0
 -601.6299-1411.7540 2178.0562 N   0  0  0  0  0  0  0  0  0  0  0  0
 -600.1834-1412.0781 2179.9644 C   0  0  0  0  0  0  0  0  0  0  0  0
 -600.8392-1412.4701 2180.9602 O   0  0  0  0  0  0  0  0  0  0  0  0
 -601.3370-1410.0718 2185.0994 C   0  0  0  0  0  0  0  0  0  0  0  0
 -599.7383-1409.7025 2184.3394 S   0  0  0  0  0  0  0  0  0  0  0  0
 -599.5685-1410.7302 2182.8574 C   0  0  0  0  0  0  0  0  0  0  0  0
 -598.0985-1410.8833 2182.4683 C   0  0  0  0  0  0  0  0  0  0  0  0
 -598.0203-1411.5183 2181.1130 C   0  0  2  0  0  0  0  0  0  0  0  0
 -599.0909-1411.1746 2180.2314 N   0  0  0  0  0  0  0  0  0  0  0  0
 -597.8434-1412.9944 2181.2500 C   0  0  0  0  0  0  0  0  0  0  0  0
 -598.6007-1413.6045 2182.0444 O   0  0  0  0  0  0  0  0  0  0  0  0
 -596.9049-1413.7208 2180.5557 O   0  0  0  0  0  0  0  0  0  0  0  0
  2  1  1  6
  2  9  1  0
  3  2  1  0
  4  3  1  0
  5  4  2  0
  6  5  1  0
  7  6  1  0
  7  8  2  0
  8  4  1  0
  9 17  1  0
 10  9  2  0
 12 11  1  0
 13 12  2  0
 14 12  1  0
 15 14  1  0
 16 15  1  6
 17 16  1  0
 18 16  1  0
 18 19  2  0
 21 22  1  0
 21 20  1  0
 22 23  1  0
 24 23  1  1
 24 25  1  0
 24 26  1  0
 25 18  1  0
 26 28  1  0
 27 26  2  0
M  END
$$$$
