HQM.pdb
     RDKit          3D

 28 28  0  0  1  0  0  0  0  0999 V2000
    6.6546  -17.3746   18.3829 N   0  0  0  0  0  0  0  0  0  0  0  0
    7.3555  -16.5443   19.3129 C   0  0  1  0  0  0  0  0  0  0  0  0
    7.0516  -15.0712   19.0943 C   0  0  0  0  0  0  0  0  0  0  0  0
    7.6395  -14.6557   17.7825 C   0  0  0  0  0  0  0  0  0  0  0  0
    8.3495  -15.4841   16.9213 C   0  0  0  0  0  0  0  0  0  0  0  0
    8.7283  -14.7753   15.8354 N   0  0  0  0  0  0  0  0  0  0  0  0
    8.2727  -13.5234   15.9959 C   0  0  0  0  0  0  0  0  0  0  0  0
    7.6098  -13.4536   17.1831 N   0  0  0  0  0  0  0  0  0  0  0  0
    7.0196  -16.8558   20.7254 C   0  0  0  0  0  0  0  0  0  0  0  0
    5.8735  -16.6376   21.1402 O   0  0  0  0  0  0  0  0  0  0  0  0
    9.1308  -21.4625   23.7063 N   0  0  0  0  0  0  0  0  0  0  0  0
    8.5693  -20.8768   24.8653 C   0  0  0  0  0  0  0  0  0  0  0  0
    8.5343  -21.5133   25.9278 O   0  0  0  0  0  0  0  0  0  0  0  0
    8.0325  -19.4759   24.7362 C   0  0  0  0  0  0  0  0  0  0  0  0
    8.2049  -19.0653   23.3108 C   0  0  0  0  0  0  0  0  0  0  0  0
    7.7107  -17.6809   22.9954 C   0  0  2  0  0  0  0  0  0  0  0  0
    8.0045  -17.3983   21.5894 N   0  0  0  0  0  0  0  0  0  0  0  0
    8.2717  -16.6285   23.8638 C   0  0  0  0  0  0  0  0  0  0  0  0
    9.4190  -16.1417   23.7145 O   0  0  0  0  0  0  0  0  0  0  0  0
    6.8389  -10.1484   27.9155 C   0  0  0  0  0  0  0  0  0  0  0  0
    6.0923  -11.4980   26.9712 S   0  0  0  0  0  0  0  0  0  0  0  0
    7.3401  -12.7925   26.7572 C   0  0  0  0  0  0  0  0  0  0  0  0
    6.7937  -13.9398   25.9093 C   0  0  0  0  0  0  0  0  0  0  0  0
    7.8872  -14.9391   25.6834 C   0  0  2  0  0  0  0  0  0  0  0  0
    7.4897  -16.1035   24.9566 N   0  0  0  0  0  0  0  0  0  0  0  0
    8.5513  -15.2730   26.9770 C   0  0  0  0  0  0  0  0  0  0  0  0
    8.1867  -16.3196   27.5694 O   0  0  0  0  0  0  0  0  0  0  0  0
    9.5340  -14.5054   27.5552 O   0  0  0  0  0  0  0  0  0  0  0  0
  2  1  1  6
  2  9  1  0
  3  2  1  0
  4  3  1  0
  5  4  2  0
  6  5  1  0
  7  6  1  0
  7  8  2  0
  8  4  1  0
  9 17  1  0
 10  9  2  0
 12 11  1  0
 13 12  2  0
 14 12  1  0
 15 14  1  0
 16 15  1  1
 17 16  1  0
 18 16  1  0
 18 19  2  0
 21 22  1  0
 21 20  1  0
 22 23  1  0
 24 23  1  1
 24 25  1  0
 24 26  1  0
 25 18  1  0
 26 28  1  0
 27 26  2  0
M  END
$$$$
