SFD.pdb
     RDKit          3D

 26 26  0  0  1  0  0  0  0  0999 V2000
   25.0182  -22.8225  -18.4906 O   0  0  0  0  0  0  0  0  0  0  0  0
   26.3367  -22.5512  -18.1699 C   0  0  0  0  0  0  0  0  0  0  0  0
   26.8305  -23.4976  -17.0977 C   0  0  2  0  0  0  0  0  0  0  0  0
   26.7308  -24.8592  -17.5298 N   0  0  0  0  0  0  0  0  0  0  0  0
   25.9998  -23.3273  -15.8776 C   0  0  0  0  0  0  0  0  0  0  0  0
   25.2807  -24.2719  -15.4527 O   0  0  0  0  0  0  0  0  0  0  0  0
   25.9854  -22.1142  -15.1571 N   0  0  0  0  0  0  0  0  0  0  0  0
   25.2186  -21.9071  -13.9194 C   0  0  1  0  0  0  0  0  0  0  0  0
   25.9601  -20.9380  -13.0678 C   0  0  0  0  0  0  0  0  0  0  0  0
   25.3814  -20.6794  -11.7382 C   0  0  0  0  0  0  0  0  0  0  0  0
   24.3590  -19.7786  -11.5730 C   0  0  0  0  0  0  0  0  0  0  0  0
   23.7945  -19.5101  -10.3274 C   0  0  0  0  0  0  0  0  0  0  0  0
   24.2648  -20.1606   -9.2138 C   0  0  0  0  0  0  0  0  0  0  0  0
   25.2899  -21.0691   -9.3540 C   0  0  0  0  0  0  0  0  0  0  0  0
   25.8366  -21.3213  -10.5988 C   0  0  0  0  0  0  0  0  0  0  0  0
   23.8275  -21.5886  -14.2305 C   0  0  0  0  0  0  0  0  0  0  0  0
   23.5877  -20.6715  -15.0927 O   0  0  0  0  0  0  0  0  0  0  0  0
   22.6826  -22.2115  -13.6617 N   0  0  0  0  0  0  0  0  0  0  0  0
   21.3103  -21.7742  -13.9469 C   0  0  1  0  0  0  0  0  0  0  0  0
   20.4031  -22.9608  -13.7429 C   0  0  0  0  0  0  0  0  0  0  0  0
   19.0090  -22.6496  -14.0664 C   0  0  0  0  0  0  0  0  0  0  0  0
   18.7006  -21.8877  -15.0088 O   0  0  0  0  0  0  0  0  0  0  0  0
   20.8896  -20.6520  -13.0691 C   0  0  0  0  0  0  0  0  0  0  0  0
   21.6176  -20.4278  -11.9174 O   0  0  0  0  0  0  0  0  0  0  0  0
   17.9561  -23.1963  -13.3284 O   0  0  0  0  0  0  0  0  0  0  0  0
   19.9189  -19.9193  -13.3325 O   0  0  0  0  0  0  0  0  0  0  0  0
  2  1  1  0
  3  5  1  0
  3  2  1  0
  3  4  1  6
  5  7  1  0
  6  5  2  0
  7  8  1  0
  8  9  1  6
  9 10  1  0
 10 11  2  0
 11 12  1  0
 13 12  2  0
 14 13  1  0
 15 10  1  0
 15 14  2  0
 16 17  2  0
 16  8  1  0
 18 16  1  0
 19 23  1  0
 19 18  1  0
 19 20  1  1
 21 22  2  0
 21 20  1  0
 23 24  1  0
 25 21  1  0
 26 23  2  0
M  END
$$$$
