SFD.pdb
     RDKit          3D

 26 26  0  0  1  0  0  0  0  0999 V2000
   34.8818  -32.9448  -19.5087 O   0  0  0  0  0  0  0  0  0  0  0  0
   33.9120  -31.9577  -19.5164 C   0  0  0  0  0  0  0  0  0  0  0  0
   33.4203  -31.6820  -18.1123 C   0  0  2  0  0  0  0  0  0  0  0  0
   31.9896  -31.7016  -18.0566 N   0  0  0  0  0  0  0  0  0  0  0  0
   33.8913  -30.3387  -17.6864 C   0  0  0  0  0  0  0  0  0  0  0  0
   33.1002  -29.3571  -17.6658 O   0  0  0  0  0  0  0  0  0  0  0  0
   35.2277  -30.1148  -17.2933 N   0  0  0  0  0  0  0  0  0  0  0  0
   35.7277  -28.8259  -16.7917 C   0  0  1  0  0  0  0  0  0  0  0  0
   36.2638  -29.0355  -15.4195 C   0  0  0  0  0  0  0  0  0  0  0  0
   36.8071  -27.8390  -14.7540 C   0  0  0  0  0  0  0  0  0  0  0  0
   38.1111  -27.4538  -14.9419 C   0  0  0  0  0  0  0  0  0  0  0  0
   38.6543  -26.3296  -14.3227 C   0  0  0  0  0  0  0  0  0  0  0  0
   37.8718  -25.5673  -13.4912 C   0  0  0  0  0  0  0  0  0  0  0  0
   36.5603  -25.9333  -13.2870 C   0  0  0  0  0  0  0  0  0  0  0  0
   36.0404  -27.0525  -13.9108 C   0  0  0  0  0  0  0  0  0  0  0  0
   36.6247  -28.2137  -17.7685 C   0  0  0  0  0  0  0  0  0  0  0  0
   37.4960  -28.9538  -18.3473 O   0  0  0  0  0  0  0  0  0  0  0  0
   36.6271  -26.8452  -18.1550 N   0  0  0  0  0  0  0  0  0  0  0  0
   37.6019  -26.2825  -19.0978 C   0  0  1  0  0  0  0  0  0  0  0  0
   36.9003  -25.2102  -19.8918 C   0  0  0  0  0  0  0  0  0  0  0  0
   37.1821  -25.3137  -21.3253 C   0  0  0  0  0  0  0  0  0  0  0  0
   38.0216  -26.1213  -21.7799 O   0  0  0  0  0  0  0  0  0  0  0  0
   38.7844  -25.7127  -18.4023 C   0  0  0  0  0  0  0  0  0  0  0  0
   38.6738  -25.4551  -17.0502 O   0  0  0  0  0  0  0  0  0  0  0  0
   36.5183  -24.5068  -22.2528 O   0  0  0  0  0  0  0  0  0  0  0  0
   39.8539  -25.4637  -18.9878 O   0  0  0  0  0  0  0  0  0  0  0  0
  2  1  1  0
  3  5  1  0
  3  2  1  0
  3  4  1  6
  5  7  1  0
  6  5  2  0
  7  8  1  0
  8  9  1  1
  9 10  1  0
 10 11  2  0
 11 12  1  0
 13 12  2  0
 14 13  1  0
 15 10  1  0
 15 14  2  0
 16 17  2  0
 16  8  1  0
 18 16  1  0
 19 23  1  0
 19 18  1  0
 19 20  1  1
 21 22  2  0
 21 20  1  0
 23 24  1  0
 25 21  1  0
 26 23  2  0
M  END
$$$$
