SFD.pdb
     RDKit          3D

 26 26  0  0  1  0  0  0  0  0999 V2000
   19.6798   -9.4531  -21.5840 O   0  0  0  0  0  0  0  0  0  0  0  0
   20.8331  -10.1368  -21.2412 C   0  0  0  0  0  0  0  0  0  0  0  0
   20.5899  -11.0245  -20.0403 C   0  0  2  0  0  0  0  0  0  0  0  0
   19.4985  -11.9205  -20.2774 N   0  0  0  0  0  0  0  0  0  0  0  0
   20.2579  -10.1758  -18.8667 C   0  0  0  0  0  0  0  0  0  0  0  0
   19.0579   -9.9139  -18.5819 O   0  0  0  0  0  0  0  0  0  0  0  0
   21.2636   -9.6373  -18.0364 N   0  0  0  0  0  0  0  0  0  0  0  0
   20.9915   -8.7781  -16.8742 C   0  0  1  0  0  0  0  0  0  0  0  0
   22.1318   -8.9006  -15.9262 C   0  0  0  0  0  0  0  0  0  0  0  0
   22.0516   -8.0651  -14.7157 C   0  0  0  0  0  0  0  0  0  0  0  0
   22.4418   -6.7492  -14.7356 C   0  0  0  0  0  0  0  0  0  0  0  0
   22.3815   -5.9355  -13.6058 C   0  0  0  0  0  0  0  0  0  0  0  0
   21.9175   -6.4511  -12.4211 C   0  0  0  0  0  0  0  0  0  0  0  0
   21.5200   -7.7685  -12.3761 C   0  0  0  0  0  0  0  0  0  0  0  0
   21.5878   -8.5594  -13.5084 C   0  0  0  0  0  0  0  0  0  0  0  0
   20.6329   -7.4311  -17.3108 C   0  0  0  0  0  0  0  0  0  0  0  0
   21.1425   -6.9843  -18.3983 O   0  0  0  0  0  0  0  0  0  0  0  0
   19.7502   -6.5436  -16.6360 N   0  0  0  0  0  0  0  0  0  0  0  0
   19.4101   -5.2108  -17.1495 C   0  0  1  0  0  0  0  0  0  0  0  0
   18.4084   -5.3935  -18.2611 C   0  0  0  0  0  0  0  0  0  0  0  0
   17.8928   -4.1140  -18.7531 C   0  0  0  0  0  0  0  0  0  0  0  0
   18.5745   -3.3597  -19.4811 O   0  0  0  0  0  0  0  0  0  0  0  0
   18.8456   -4.3338  -16.0916 C   0  0  0  0  0  0  0  0  0  0  0  0
   18.3543   -4.9361  -14.9503 O   0  0  0  0  0  0  0  0  0  0  0  0
   16.6059   -3.6793  -18.4263 O   0  0  0  0  0  0  0  0  0  0  0  0
   18.8013   -3.0947  -16.1977 O   0  0  0  0  0  0  0  0  0  0  0  0
  2  1  1  0
  3  5  1  0
  3  2  1  0
  3  4  1  6
  5  7  1  0
  6  5  2  0
  7  8  1  0
  8  9  1  1
  9 10  1  0
 10 11  2  0
 11 12  1  0
 13 12  2  0
 14 13  1  0
 15 10  1  0
 15 14  2  0
 16 17  2  0
 16  8  1  0
 18 16  1  0
 19 23  1  0
 19 18  1  0
 19 20  1  6
 21 22  2  0
 21 20  1  0
 23 24  1  0
 25 21  1  0
 26 23  2  0
M  END
$$$$
