SFD.pdb
     RDKit          3D

 26 26  0  0  1  0  0  0  0  0999 V2000
   24.1541  -37.7963   -4.5978 O   0  0  0  0  0  0  0  0  0  0  0  0
   24.0232  -37.5744   -5.9575 C   0  0  0  0  0  0  0  0  0  0  0  0
   24.1727  -36.1025   -6.2744 C   0  0  2  0  0  0  0  0  0  0  0  0
   23.9649  -35.8545   -7.6693 N   0  0  0  0  0  0  0  0  0  0  0  0
   25.5466  -35.6644   -5.9163 C   0  0  0  0  0  0  0  0  0  0  0  0
   26.5490  -36.1360   -6.5185 O   0  0  0  0  0  0  0  0  0  0  0  0
   25.7774  -34.7140   -4.8993 N   0  0  0  0  0  0  0  0  0  0  0  0
   27.0983  -34.1411   -4.5997 C   0  0  1  0  0  0  0  0  0  0  0  0
   27.0716  -32.6962   -4.9546 C   0  0  0  0  0  0  0  0  0  0  0  0
   26.7069  -32.3850   -6.3474 C   0  0  0  0  0  0  0  0  0  0  0  0
   27.6204  -32.5099   -7.3642 C   0  0  0  0  0  0  0  0  0  0  0  0
   27.3060  -32.2188   -8.6904 C   0  0  0  0  0  0  0  0  0  0  0  0
   26.0416  -31.7905   -9.0106 C   0  0  0  0  0  0  0  0  0  0  0  0
   25.1075  -31.6575   -8.0078 C   0  0  0  0  0  0  0  0  0  0  0  0
   25.4395  -31.9513   -6.6980 C   0  0  0  0  0  0  0  0  0  0  0  0
   27.5039  -34.4830   -3.2388 C   0  0  0  0  0  0  0  0  0  0  0  0
   26.7398  -34.1415   -2.2685 O   0  0  0  0  0  0  0  0  0  0  0  0
   28.6894  -35.1774   -2.8721 N   0  0  0  0  0  0  0  0  0  0  0  0
   28.9827  -35.5848   -1.4923 C   0  0  1  0  0  0  0  0  0  0  0  0
   27.8905  -36.5268   -1.0541 C   0  0  0  0  0  0  0  0  0  0  0  0
   28.1217  -37.0480    0.2949 C   0  0  0  0  0  0  0  0  0  0  0  0
   28.7740  -38.0953    0.4989 O   0  0  0  0  0  0  0  0  0  0  0  0
   30.3069  -36.2483   -1.3770 C   0  0  0  0  0  0  0  0  0  0  0  0
   31.0773  -35.9596   -0.2680 O   0  0  0  0  0  0  0  0  0  0  0  0
   27.6184  -36.3905    1.4202 O   0  0  0  0  0  0  0  0  0  0  0  0
   30.7381  -37.0425   -2.2325 O   0  0  0  0  0  0  0  0  0  0  0  0
  2  1  1  0
  3  5  1  0
  3  2  1  0
  3  4  1  6
  5  7  1  0
  6  5  2  0
  7  8  1  0
  8  9  1  1
  9 10  1  0
 10 11  2  0
 11 12  1  0
 13 12  2  0
 14 13  1  0
 15 10  1  0
 15 14  2  0
 16 17  2  0
 16  8  1  0
 18 16  1  0
 19 23  1  0
 19 18  1  0
 19 20  1  6
 21 22  2  0
 21 20  1  0
 23 24  1  0
 25 21  1  0
 26 23  2  0
M  END
$$$$
