SFD.pdb
     RDKit          3D

 26 26  0  0  1  0  0  0  0  0999 V2000
   20.0940  -21.8484  -13.8161 O   0  0  0  0  0  0  0  0  0  0  0  0
   20.2990  -22.1685  -12.4854 C   0  0  0  0  0  0  0  0  0  0  0  0
   20.5685  -20.9214  -11.6722 C   0  0  2  0  0  0  0  0  0  0  0  0
   19.5408  -19.9451  -11.8747 N   0  0  0  0  0  0  0  0  0  0  0  0
   21.8667  -20.3353  -12.0952 C   0  0  0  0  0  0  0  0  0  0  0  0
   21.9007  -19.3355  -12.8628 O   0  0  0  0  0  0  0  0  0  0  0  0
   23.0965  -20.8708  -11.6576 N   0  0  0  0  0  0  0  0  0  0  0  0
   24.4069  -20.4152  -12.1457 C   0  0  1  0  0  0  0  0  0  0  0  0
   25.4515  -20.9094  -11.2082 C   0  0  0  0  0  0  0  0  0  0  0  0
   26.8458  -20.6717  -11.6193 C   0  0  0  0  0  0  0  0  0  0  0  0
   27.8254  -21.6015  -11.3744 C   0  0  0  0  0  0  0  0  0  0  0  0
   29.1534  -21.4029  -11.7476 C   0  0  0  0  0  0  0  0  0  0  0  0
   29.5138  -20.2413  -12.3843 C   0  0  0  0  0  0  0  0  0  0  0  0
   28.5489  -19.2933  -12.6412 C   0  0  0  0  0  0  0  0  0  0  0  0
   27.2366  -19.5095  -12.2627 C   0  0  0  0  0  0  0  0  0  0  0  0
   24.5688  -20.7525  -13.5576 C   0  0  0  0  0  0  0  0  0  0  0  0
   23.9799  -21.7974  -14.0086 O   0  0  0  0  0  0  0  0  0  0  0  0
   25.3304  -20.0183  -14.5079 N   0  0  0  0  0  0  0  0  0  0  0  0
   25.2396  -20.2490  -15.9550 C   0  0  1  0  0  0  0  0  0  0  0  0
   23.8526  -19.8525  -16.3927 C   0  0  0  0  0  0  0  0  0  0  0  0
   23.6809  -19.9621  -17.8431 C   0  0  0  0  0  0  0  0  0  0  0  0
   23.6368  -18.9558  -18.5840 O   0  0  0  0  0  0  0  0  0  0  0  0
   26.2558  -19.4698  -16.7081 C   0  0  0  0  0  0  0  0  0  0  0  0
   26.9166  -18.4583  -16.0396 O   0  0  0  0  0  0  0  0  0  0  0  0
   23.5581  -21.2074  -18.4646 O   0  0  0  0  0  0  0  0  0  0  0  0
   26.5270  -19.6945  -17.9016 O   0  0  0  0  0  0  0  0  0  0  0  0
  2  1  1  0
  3  5  1  0
  3  2  1  0
  3  4  1  6
  5  7  1  0
  6  5  2  0
  7  8  1  0
  8  9  1  1
  9 10  1  0
 10 11  2  0
 11 12  1  0
 13 12  2  0
 14 13  1  0
 15 10  1  0
 15 14  2  0
 16 17  2  0
 16  8  1  0
 18 16  1  0
 19 23  1  0
 19 18  1  0
 19 20  1  6
 21 22  2  0
 21 20  1  0
 23 24  1  0
 25 21  1  0
 26 23  2  0
M  END
$$$$
