SFD.pdb
     RDKit          3D

 26 26  0  0  1  0  0  0  0  0999 V2000
   26.6852  -19.3389  -17.1229 O   0  0  0  0  0  0  0  0  0  0  0  0
   27.0440  -20.5553  -17.6767 C   0  0  0  0  0  0  0  0  0  0  0  0
   27.8572  -21.3695  -16.6942 C   0  0  2  0  0  0  0  0  0  0  0  0
   28.2349  -22.6291  -17.2607 N   0  0  0  0  0  0  0  0  0  0  0  0
   27.0405  -21.6239  -15.4792 C   0  0  0  0  0  0  0  0  0  0  0  0
   26.1505  -22.5170  -15.4786 O   0  0  0  0  0  0  0  0  0  0  0  0
   27.2294  -20.8826  -14.2936 N   0  0  0  0  0  0  0  0  0  0  0  0
   26.4004  -21.0409  -13.0892 C   0  0  1  0  0  0  0  0  0  0  0  0
   27.2077  -20.6276  -11.9095 C   0  0  0  0  0  0  0  0  0  0  0  0
   26.4947  -20.6056  -10.6208 C   0  0  0  0  0  0  0  0  0  0  0  0
   26.1806  -21.7695   -9.9645 C   0  0  0  0  0  0  0  0  0  0  0  0
   25.5031  -21.7805   -8.7466 C   0  0  0  0  0  0  0  0  0  0  0  0
   25.1284  -20.5939   -8.1669 C   0  0  0  0  0  0  0  0  0  0  0  0
   25.4323  -19.4129   -8.8061 C   0  0  0  0  0  0  0  0  0  0  0  0
   26.1052  -19.4235  -10.0141 C   0  0  0  0  0  0  0  0  0  0  0  0
   25.1081  -20.3852  -13.2719 C   0  0  0  0  0  0  0  0  0  0  0  0
   25.0647  -19.2943  -13.9428 O   0  0  0  0  0  0  0  0  0  0  0  0
   23.8603  -20.8482  -12.7709 N   0  0  0  0  0  0  0  0  0  0  0  0
   22.5768  -20.2316  -13.1288 C   0  0  1  0  0  0  0  0  0  0  0  0
   22.3844  -20.4105  -14.6132 C   0  0  0  0  0  0  0  0  0  0  0  0
   21.0892  -19.8980  -15.0659 C   0  0  0  0  0  0  0  0  0  0  0  0
   20.4403  -19.0579  -14.4049 O   0  0  0  0  0  0  0  0  0  0  0  0
   21.4412  -20.8398  -12.3890 C   0  0  0  0  0  0  0  0  0  0  0  0
   20.4869  -19.9914  -11.8637 O   0  0  0  0  0  0  0  0  0  0  0  0
   20.5198  -20.3305  -16.2662 O   0  0  0  0  0  0  0  0  0  0  0  0
   21.3232  -22.0682  -12.2294 O   0  0  0  0  0  0  0  0  0  0  0  0
  2  1  1  0
  3  5  1  0
  3  2  1  0
  3  4  1  6
  5  7  1  0
  6  5  2  0
  7  8  1  0
  8  9  1  1
  9 10  1  0
 10 11  2  0
 11 12  1  0
 13 12  2  0
 14 13  1  0
 15 10  1  0
 15 14  2  0
 16 17  2  0
 16  8  1  0
 18 16  1  0
 19 23  1  0
 19 18  1  0
 19 20  1  6
 21 22  2  0
 21 20  1  0
 23 24  1  0
 25 21  1  0
 26 23  2  0
M  END
$$$$
