SFD.pdb
     RDKit          3D

 26 26  0  0  1  0  0  0  0  0999 V2000
   37.7185  -36.1092    1.2333 O   0  0  0  0  0  0  0  0  0  0  0  0
   38.5289  -36.0176    0.1154 C   0  0  0  0  0  0  0  0  0  0  0  0
   38.5757  -34.5937   -0.3941 C   0  0  2  0  0  0  0  0  0  0  0  0
   39.2528  -33.7388    0.5339 N   0  0  0  0  0  0  0  0  0  0  0  0
   37.1876  -34.0938   -0.5707 C   0  0  0  0  0  0  0  0  0  0  0  0
   36.7041  -33.2446    0.2262 O   0  0  0  0  0  0  0  0  0  0  0  0
   36.3681  -34.5465   -1.6262 N   0  0  0  0  0  0  0  0  0  0  0  0
   34.9781  -34.1102   -1.8275 C   0  0  1  0  0  0  0  0  0  0  0  0
   34.8944  -33.4085   -3.1370 C   0  0  0  0  0  0  0  0  0  0  0  0
   33.5483  -32.9709   -3.5448 C   0  0  0  0  0  0  0  0  0  0  0  0
   32.8492  -32.0481   -2.8074 C   0  0  0  0  0  0  0  0  0  0  0  0
   31.5728  -31.6182   -3.1657 C   0  0  0  0  0  0  0  0  0  0  0  0
   30.9770  -32.1248   -4.2940 C   0  0  0  0  0  0  0  0  0  0  0  0
   31.6585  -33.0518   -5.0503 C   0  0  0  0  0  0  0  0  0  0  0  0
   32.9243  -33.4654   -4.6777 C   0  0  0  0  0  0  0  0  0  0  0  0
   34.0591  -35.2247   -1.6116 C   0  0  0  0  0  0  0  0  0  0  0  0
   34.3579  -36.3688   -2.1055 O   0  0  0  0  0  0  0  0  0  0  0  0
   32.8366  -35.1686   -0.8873 N   0  0  0  0  0  0  0  0  0  0  0  0
   31.9206  -36.3107   -0.7757 C   0  0  1  0  0  0  0  0  0  0  0  0
   31.1663  -36.1637    0.5212 C   0  0  0  0  0  0  0  0  0  0  0  0
   32.0494  -36.2609    1.6855 C   0  0  0  0  0  0  0  0  0  0  0  0
   31.7343  -35.7866    2.7989 O   0  0  0  0  0  0  0  0  0  0  0  0
   30.9702  -36.3758   -1.9155 C   0  0  0  0  0  0  0  0  0  0  0  0
   30.8077  -35.2401   -2.6839 O   0  0  0  0  0  0  0  0  0  0  0  0
   33.2922  -36.8935    1.5997 O   0  0  0  0  0  0  0  0  0  0  0  0
   30.3260  -37.4028   -2.1964 O   0  0  0  0  0  0  0  0  0  0  0  0
  2  1  1  0
  3  5  1  0
  3  2  1  0
  3  4  1  1
  5  7  1  0
  6  5  2  0
  7  8  1  0
  8  9  1  6
  9 10  1  0
 10 11  2  0
 11 12  1  0
 13 12  2  0
 14 13  1  0
 15 10  1  0
 15 14  2  0
 16 17  2  0
 16  8  1  0
 18 16  1  0
 19 23  1  0
 19 18  1  0
 19 20  1  1
 21 22  2  0
 21 20  1  0
 23 24  1  0
 25 21  1  0
 26 23  2  0
M  END
$$$$
