SFD.pdb
     RDKit          3D

 26 26  0  0  1  0  0  0  0  0999 V2000
   27.1958  -19.5239  -14.4716 O   0  0  0  0  0  0  0  0  0  0  0  0
   28.4815  -19.4588  -13.9638 C   0  0  0  0  0  0  0  0  0  0  0  0
   28.9603  -20.8320  -13.5464 C   0  0  2  0  0  0  0  0  0  0  0  0
   28.6068  -21.8174  -14.5233 N   0  0  0  0  0  0  0  0  0  0  0  0
   28.3237  -21.1978  -12.2547 C   0  0  0  0  0  0  0  0  0  0  0  0
   27.4039  -22.0592  -12.2127 O   0  0  0  0  0  0  0  0  0  0  0  0
   28.7214  -20.6005  -11.0398 N   0  0  0  0  0  0  0  0  0  0  0  0
   28.0297  -20.8124   -9.7593 C   0  0  1  0  0  0  0  0  0  0  0  0
   28.8564  -20.2119   -8.6776 C   0  0  0  0  0  0  0  0  0  0  0  0
   28.2409  -20.1868   -7.3396 C   0  0  0  0  0  0  0  0  0  0  0  0
   28.4999  -21.1737   -6.4214 C   0  0  0  0  0  0  0  0  0  0  0  0
   27.9293  -21.1790   -5.1499 C   0  0  0  0  0  0  0  0  0  0  0  0
   27.0749  -20.1685   -4.7845 C   0  0  0  0  0  0  0  0  0  0  0  0
   26.7996  -19.1669   -5.6882 C   0  0  0  0  0  0  0  0  0  0  0  0
   27.3760  -19.1800   -6.9451 C   0  0  0  0  0  0  0  0  0  0  0  0
   26.6397  -20.3735   -9.8538 C   0  0  0  0  0  0  0  0  0  0  0  0
   26.4019  -19.1686  -10.2191 O   0  0  0  0  0  0  0  0  0  0  0  0
   25.4939  -21.1693   -9.5777 N   0  0  0  0  0  0  0  0  0  0  0  0
   24.1206  -20.6708   -9.7235 C   0  0  1  0  0  0  0  0  0  0  0  0
   23.3706  -21.6505  -10.5896 C   0  0  0  0  0  0  0  0  0  0  0  0
   21.9791  -21.2453  -10.8007 C   0  0  0  0  0  0  0  0  0  0  0  0
   21.5746  -20.0939  -10.5279 O   0  0  0  0  0  0  0  0  0  0  0  0
   23.4397  -20.5226   -8.4115 C   0  0  0  0  0  0  0  0  0  0  0  0
   22.4140  -19.6028   -8.3188 O   0  0  0  0  0  0  0  0  0  0  0  0
   21.0373  -22.1368  -11.3204 O   0  0  0  0  0  0  0  0  0  0  0  0
   23.7577  -21.1886   -7.4096 O   0  0  0  0  0  0  0  0  0  0  0  0
  2  1  1  0
  3  5  1  0
  3  2  1  0
  3  4  1  6
  5  7  1  0
  6  5  2  0
  7  8  1  0
  8  9  1  1
  9 10  1  0
 10 11  2  0
 11 12  1  0
 13 12  2  0
 14 13  1  0
 15 10  1  0
 15 14  2  0
 16 17  2  0
 16  8  1  0
 18 16  1  0
 19 23  1  0
 19 18  1  0
 19 20  1  6
 21 22  2  0
 21 20  1  0
 23 24  1  0
 25 21  1  0
 26 23  2  0
M  END
$$$$
