SFD.pdb
     RDKit          3D

 26 26  0  0  1  0  0  0  0  0999 V2000
   28.7787  -20.2699  -14.2132 O   0  0  0  0  0  0  0  0  0  0  0  0
   29.4557  -19.6360  -13.1860 C   0  0  0  0  0  0  0  0  0  0  0  0
   29.7957  -20.6176  -12.0859 C   0  0  2  0  0  0  0  0  0  0  0  0
   30.3371  -21.8276  -12.6273 N   0  0  0  0  0  0  0  0  0  0  0  0
   28.5601  -20.9495  -11.3304 C   0  0  0  0  0  0  0  0  0  0  0  0
   28.0546  -22.1026  -11.3999 O   0  0  0  0  0  0  0  0  0  0  0  0
   27.9137  -19.9960  -10.5157 N   0  0  0  0  0  0  0  0  0  0  0  0
   26.6364  -20.2389   -9.8283 C   0  0  1  0  0  0  0  0  0  0  0  0
   26.5317  -19.2877   -8.6887 C   0  0  0  0  0  0  0  0  0  0  0  0
   27.2567  -19.6710   -7.4652 C   0  0  0  0  0  0  0  0  0  0  0  0
   26.6259  -19.6981   -6.2464 C   0  0  0  0  0  0  0  0  0  0  0  0
   27.2865  -20.0524   -5.0715 C   0  0  0  0  0  0  0  0  0  0  0  0
   28.6165  -20.3898   -5.1150 C   0  0  0  0  0  0  0  0  0  0  0  0
   29.2712  -20.3702   -6.3261 C   0  0  0  0  0  0  0  0  0  0  0  0
   28.5977  -20.0157   -7.4806 C   0  0  0  0  0  0  0  0  0  0  0  0
   25.5360  -20.2481  -10.7887 C   0  0  0  0  0  0  0  0  0  0  0  0
   25.5541  -19.3990  -11.7482 O   0  0  0  0  0  0  0  0  0  0  0  0
   24.4195  -21.1286  -10.7685 N   0  0  0  0  0  0  0  0  0  0  0  0
   23.3735  -21.1167  -11.7988 C   0  0  1  0  0  0  0  0  0  0  0  0
   22.9854  -22.5480  -12.0696 C   0  0  0  0  0  0  0  0  0  0  0  0
   21.8684  -22.6464  -13.0117 C   0  0  0  0  0  0  0  0  0  0  0  0
   20.6973  -22.8659  -12.6319 O   0  0  0  0  0  0  0  0  0  0  0  0
   22.1831  -20.3355  -11.3749 C   0  0  0  0  0  0  0  0  0  0  0  0
   21.2726  -19.9712  -12.3470 O   0  0  0  0  0  0  0  0  0  0  0  0
   22.0669  -22.4977  -14.3867 O   0  0  0  0  0  0  0  0  0  0  0  0
   21.9824  -20.0039  -10.1924 O   0  0  0  0  0  0  0  0  0  0  0  0
  2  1  1  0
  3  5  1  0
  3  2  1  0
  3  4  1  6
  5  7  1  0
  6  5  2  0
  7  8  1  0
  8  9  1  1
  9 10  1  0
 10 11  2  0
 11 12  1  0
 13 12  2  0
 14 13  1  0
 15 10  1  0
 15 14  2  0
 16 17  2  0
 16  8  1  0
 18 16  1  0
 19 23  1  0
 19 18  1  0
 19 20  1  1
 21 22  2  0
 21 20  1  0
 23 24  1  0
 25 21  1  0
 26 23  2  0
M  END
$$$$
