SFD.pdb
     RDKit          3D

 26 26  0  0  1  0  0  0  0  0999 V2000
   21.3621  -12.0652  -19.7875 O   0  0  0  0  0  0  0  0  0  0  0  0
   22.2768  -11.0635  -20.0616 C   0  0  0  0  0  0  0  0  0  0  0  0
   23.4577  -11.1473  -19.1194 C   0  0  2  0  0  0  0  0  0  0  0  0
   23.6456  -12.4871  -18.6503 N   0  0  0  0  0  0  0  0  0  0  0  0
   23.2096  -10.2673  -17.9482 C   0  0  0  0  0  0  0  0  0  0  0  0
   22.6777  -10.7259  -16.9009 O   0  0  0  0  0  0  0  0  0  0  0  0
   23.5567   -8.8998  -17.9649 N   0  0  0  0  0  0  0  0  0  0  0  0
   23.3324   -7.9851  -16.8354 C   0  0  1  0  0  0  0  0  0  0  0  0
   24.6458   -7.4171  -16.4272 C   0  0  0  0  0  0  0  0  0  0  0  0
   25.6707   -8.3961  -16.0261 C   0  0  0  0  0  0  0  0  0  0  0  0
   25.5314   -9.1393  -14.8805 C   0  0  0  0  0  0  0  0  0  0  0  0
   26.4859  -10.0696  -14.4733 C   0  0  0  0  0  0  0  0  0  0  0  0
   27.6128  -10.2636  -15.2329 C   0  0  0  0  0  0  0  0  0  0  0  0
   27.7752   -9.5300  -16.3867 C   0  0  0  0  0  0  0  0  0  0  0  0
   26.8164   -8.6117  -16.7733 C   0  0  0  0  0  0  0  0  0  0  0  0
   22.2686   -7.0361  -17.1533 C   0  0  0  0  0  0  0  0  0  0  0  0
   22.3943   -6.3030  -18.1968 O   0  0  0  0  0  0  0  0  0  0  0  0
   21.0753   -6.8403  -16.4051 N   0  0  0  0  0  0  0  0  0  0  0  0
   20.0880   -5.8038  -16.7317 C   0  0  1  0  0  0  0  0  0  0  0  0
   18.7338   -6.3177  -16.3142 C   0  0  0  0  0  0  0  0  0  0  0  0
   17.6797   -5.3221  -16.5210 C   0  0  0  0  0  0  0  0  0  0  0  0
   17.5195   -4.7434  -17.6179 O   0  0  0  0  0  0  0  0  0  0  0  0
   20.3814   -4.5193  -16.0454 C   0  0  0  0  0  0  0  0  0  0  0  0
   19.7062   -3.3928  -16.4717 O   0  0  0  0  0  0  0  0  0  0  0  0
   16.8014   -4.9745  -15.4915 O   0  0  0  0  0  0  0  0  0  0  0  0
   21.2018   -4.4261  -15.1144 O   0  0  0  0  0  0  0  0  0  0  0  0
  2  1  1  0
  3  5  1  0
  3  2  1  0
  3  4  1  1
  5  7  1  0
  6  5  2  0
  7  8  1  0
  8  9  1  6
  9 10  1  0
 10 11  2  0
 11 12  1  0
 13 12  2  0
 14 13  1  0
 15 10  1  0
 15 14  2  0
 16 17  2  0
 16  8  1  0
 18 16  1  0
 19 23  1  0
 19 18  1  0
 19 20  1  1
 21 22  2  0
 21 20  1  0
 23 24  1  0
 25 21  1  0
 26 23  2  0
M  END
$$$$
