SFD.pdb
     RDKit          3D

 26 26  0  0  1  0  0  0  0  0999 V2000
   23.0487   -9.4154  -21.8127 O   0  0  0  0  0  0  0  0  0  0  0  0
   24.1140   -8.5830  -21.5174 C   0  0  0  0  0  0  0  0  0  0  0  0
   24.8906   -9.1111  -20.3311 C   0  0  2  0  0  0  0  0  0  0  0  0
   25.0493  -10.5319  -20.4132 N   0  0  0  0  0  0  0  0  0  0  0  0
   24.1513   -8.7898  -19.0829 C   0  0  0  0  0  0  0  0  0  0  0  0
   23.3515   -9.6230  -18.5771 O   0  0  0  0  0  0  0  0  0  0  0  0
   24.3156   -7.5526  -18.4247 N   0  0  0  0  0  0  0  0  0  0  0  0
   23.6472   -7.2026  -17.1624 C   0  0  1  0  0  0  0  0  0  0  0  0
   24.6870   -7.0607  -16.1075 C   0  0  0  0  0  0  0  0  0  0  0  0
   25.2462   -8.3194  -15.5853 C   0  0  0  0  0  0  0  0  0  0  0  0
   26.4575   -8.7929  -16.0241 C   0  0  0  0  0  0  0  0  0  0  0  0
   27.0098   -9.9821  -15.5518 C   0  0  0  0  0  0  0  0  0  0  0  0
   26.3323  -10.7203  -14.6133 C   0  0  0  0  0  0  0  0  0  0  0  0
   25.1151  -10.2659  -14.1575 C   0  0  0  0  0  0  0  0  0  0  0  0
   24.5843   -9.0832  -14.6388 C   0  0  0  0  0  0  0  0  0  0  0  0
   22.7449   -6.0714  -17.3617 C   0  0  0  0  0  0  0  0  0  0  0  0
   22.9315   -5.3111  -18.3762 O   0  0  0  0  0  0  0  0  0  0  0  0
   21.6501   -5.7210  -16.5245 N   0  0  0  0  0  0  0  0  0  0  0  0
   20.5689   -4.8259  -16.9554 C   0  0  1  0  0  0  0  0  0  0  0  0
   19.9325   -5.4370  -18.1778 C   0  0  0  0  0  0  0  0  0  0  0  0
   18.8506   -4.6049  -18.7090 C   0  0  0  0  0  0  0  0  0  0  0  0
   17.7050   -4.6064  -18.2077 O   0  0  0  0  0  0  0  0  0  0  0  0
   19.5502   -4.6310  -15.8919 C   0  0  0  0  0  0  0  0  0  0  0  0
   18.9734   -5.7570  -15.3387 O   0  0  0  0  0  0  0  0  0  0  0  0
   19.0558   -3.7672  -19.8082 O   0  0  0  0  0  0  0  0  0  0  0  0
   19.2049   -3.5053  -15.4894 O   0  0  0  0  0  0  0  0  0  0  0  0
  2  1  1  0
  3  5  1  0
  3  2  1  0
  3  4  1  6
  5  7  1  0
  6  5  2  0
  7  8  1  0
  8  9  1  1
  9 10  1  0
 10 11  2  0
 11 12  1  0
 13 12  2  0
 14 13  1  0
 15 10  1  0
 15 14  2  0
 16 17  2  0
 16  8  1  0
 18 16  1  0
 19 23  1  0
 19 18  1  0
 19 20  1  6
 21 22  2  0
 21 20  1  0
 23 24  1  0
 25 21  1  0
 26 23  2  0
M  END
$$$$
