FKV.pdb
     RDKit          3D

 28 28  0  0  1  0  0  0  0  0999 V2000
   28.0726  -19.5355   -8.9741 N   0  0  0  0  0  0  0  0  0  0  0  0
   26.9431  -20.4042   -8.6845 C   0  0  1  0  0  0  0  0  0  0  0  0
   26.3892  -20.0056   -7.3654 C   0  0  0  0  0  0  0  0  0  0  0  0
   27.3012  -20.0430   -6.2357 C   0  0  0  0  0  0  0  0  0  0  0  0
   28.0659  -18.9083   -5.9900 C   0  0  0  0  0  0  0  0  0  0  0  0
   28.9533  -18.8562   -4.9421 C   0  0  0  0  0  0  0  0  0  0  0  0
   29.1134  -19.9225   -4.1043 C   0  0  0  0  0  0  0  0  0  0  0  0
   28.3653  -21.0539   -4.3319 C   0  0  0  0  0  0  0  0  0  0  0  0
   27.4799  -21.1000   -5.3810 C   0  0  0  0  0  0  0  0  0  0  0  0
   25.9364  -20.3538   -9.7932 C   0  0  0  0  0  0  0  0  0  0  0  0
   25.5159  -19.2493  -10.2042 O   0  0  0  0  0  0  0  0  0  0  0  0
   25.4242  -21.4977  -10.4138 N   0  0  0  0  0  0  0  0  0  0  0  0
   24.7443  -21.7080  -11.6206 C   0  0  1  0  0  0  0  0  0  0  0  0
   24.9739  -22.9412  -12.4288 C   0  0  0  0  0  0  0  0  0  0  0  0
   24.2830  -22.9184  -13.7636 C   0  0  0  0  0  0  0  0  0  0  0  0
   24.6064  -24.1510  -14.5879 C   0  0  0  0  0  0  0  0  0  0  0  0
   23.9856  -23.9304  -15.9701 C   0  0  0  0  0  0  0  0  0  0  0  0
   24.1922  -25.0910  -16.7980 N   0  0  0  0  0  0  0  0  0  0  0  0
   23.3267  -21.3762  -11.4881 C   0  0  0  0  0  0  0  0  0  0  0  0
   22.7052  -21.7879  -10.4532 O   0  0  0  0  0  0  0  0  0  0  0  0
   21.5049  -17.9069  -12.1149 C   0  0  0  0  0  0  0  0  0  0  0  0
   20.7535  -19.0222  -12.7582 C   0  0  1  0  0  0  0  0  0  0  0  0
   20.9516  -18.9437  -14.2517 C   0  0  0  0  0  0  0  0  0  0  0  0
   21.1257  -20.3799  -12.2119 C   0  0  2  0  0  0  0  0  0  0  0  0
   22.5419  -20.6315  -12.3975 N   0  0  0  0  0  0  0  0  0  0  0  0
   20.3002  -21.4626  -12.7423 C   0  0  0  0  0  0  0  0  0  0  0  0
   20.5437  -22.1000  -13.7955 O   0  0  0  0  0  0  0  0  0  0  0  0
   19.1360  -21.8535  -12.0540 O   0  0  0  0  0  0  0  0  0  0  0  0
  2  1  1  6
  3  4  1  0
  3  2  1  0
  4  5  2  0
  5  6  1  0
  7  6  2  0
  8  7  1  0
  9  4  1  0
  9  8  2  0
 10  2  1  0
 10 11  2  0
 12 10  1  0
 13 12  1  0
 13 14  1  1
 14 15  1  0
 15 16  1  0
 17 16  1  0
 18 17  1  0
 19 13  1  0
 20 19  2  0
 22 21  1  1
 23 22  1  0
 24 22  1  0
 24 25  1  6
 25 19  1  0
 26 28  1  0
 26 24  1  0
 27 26  2  0
M  END
$$$$
