FKV.pdb
     RDKit          3D

 28 28  0  0  1  0  0  0  0  0999 V2000
   28.4937  -20.9077   -8.9315 N   0  0  0  0  0  0  0  0  0  0  0  0
   27.0543  -20.8415   -8.7366 C   0  0  1  0  0  0  0  0  0  0  0  0
   26.7742  -19.7335   -7.7882 C   0  0  0  0  0  0  0  0  0  0  0  0
   27.4001  -19.8190   -6.4805 C   0  0  0  0  0  0  0  0  0  0  0  0
   28.4130  -18.9113   -6.1929 C   0  0  0  0  0  0  0  0  0  0  0  0
   29.0588  -18.9199   -4.9800 C   0  0  0  0  0  0  0  0  0  0  0  0
   28.7247  -19.8247   -4.0134 C   0  0  0  0  0  0  0  0  0  0  0  0
   27.7248  -20.7306   -4.2800 C   0  0  0  0  0  0  0  0  0  0  0  0
   27.0830  -20.7171   -5.4943 C   0  0  0  0  0  0  0  0  0  0  0  0
   26.3469  -20.6953  -10.0494 C   0  0  0  0  0  0  0  0  0  0  0  0
   26.5777  -19.7024  -10.7752 O   0  0  0  0  0  0  0  0  0  0  0  0
   25.4189  -21.6267  -10.5261 N   0  0  0  0  0  0  0  0  0  0  0  0
   24.8204  -21.8265  -11.7770 C   0  0  1  0  0  0  0  0  0  0  0  0
   24.7750  -23.1811  -12.4011 C   0  0  0  0  0  0  0  0  0  0  0  0
   24.2571  -23.1721  -13.8122 C   0  0  0  0  0  0  0  0  0  0  0  0
   24.9470  -24.2139  -14.6736 C   0  0  0  0  0  0  0  0  0  0  0  0
   24.4035  -24.0391  -16.0944 C   0  0  0  0  0  0  0  0  0  0  0  0
   25.0690  -24.9449  -16.9954 N   0  0  0  0  0  0  0  0  0  0  0  0
   23.5426  -21.1218  -11.8651 C   0  0  0  0  0  0  0  0  0  0  0  0
   22.8427  -21.0072  -10.8049 O   0  0  0  0  0  0  0  0  0  0  0  0
   20.2635  -18.2325  -14.2699 C   0  0  0  0  0  0  0  0  0  0  0  0
   21.5911  -18.9039  -14.1765 C   0  0  1  0  0  0  0  0  0  0  0  0
   22.6653  -17.8476  -14.0967 C   0  0  0  0  0  0  0  0  0  0  0  0
   21.6800  -19.8842  -13.0313 C   0  0  2  0  0  0  0  0  0  0  0  0
   22.9758  -20.5355  -13.0195 N   0  0  0  0  0  0  0  0  0  0  0  0
   20.5803  -20.8461  -13.0071 C   0  0  0  0  0  0  0  0  0  0  0  0
   20.5063  -21.8691  -13.7302 O   0  0  0  0  0  0  0  0  0  0  0  0
   19.5024  -20.6510  -12.1227 O   0  0  0  0  0  0  0  0  0  0  0  0
  2  1  1  6
  3  4  1  0
  3  2  1  0
  4  5  2  0
  5  6  1  0
  7  6  2  0
  8  7  1  0
  9  4  1  0
  9  8  2  0
 10  2  1  0
 10 11  2  0
 12 10  1  0
 13 12  1  0
 13 14  1  1
 14 15  1  0
 15 16  1  0
 17 16  1  0
 18 17  1  0
 19 13  1  0
 20 19  2  0
 22 21  1  1
 23 22  1  0
 24 22  1  0
 24 25  1  6
 25 19  1  0
 26 28  1  0
 26 24  1  0
 27 26  2  0
M  END
$$$$
