FKV.pdb
     RDKit          3D

 28 28  0  0  1  0  0  0  0  0999 V2000
   18.5724   -8.8195  -22.8403 N   0  0  0  0  0  0  0  0  0  0  0  0
   19.2736   -8.1473  -21.7584 C   0  0  1  0  0  0  0  0  0  0  0  0
   19.4616   -6.7274  -22.1511 C   0  0  0  0  0  0  0  0  0  0  0  0
   20.2849   -6.4767  -23.3210 C   0  0  0  0  0  0  0  0  0  0  0  0
   21.6557   -6.3518  -23.1267 C   0  0  0  0  0  0  0  0  0  0  0  0
   22.5090   -6.1152  -24.1774 C   0  0  0  0  0  0  0  0  0  0  0  0
   22.0356   -5.9944  -25.4525 C   0  0  0  0  0  0  0  0  0  0  0  0
   20.6821   -6.1150  -25.6641 C   0  0  0  0  0  0  0  0  0  0  0  0
   19.8341   -6.3516  -24.6098 C   0  0  0  0  0  0  0  0  0  0  0  0
   18.5381   -8.3151  -20.4637 C   0  0  0  0  0  0  0  0  0  0  0  0
   17.2954   -8.1731  -20.4294 O   0  0  0  0  0  0  0  0  0  0  0  0
   19.1735   -8.6294  -19.2582 N   0  0  0  0  0  0  0  0  0  0  0  0
   18.6998   -8.8739  -17.9625 C   0  0  1  0  0  0  0  0  0  0  0  0
   19.2962   -9.9471  -17.1145 C   0  0  0  0  0  0  0  0  0  0  0  0
   18.6332  -10.0864  -15.7727 C   0  0  0  0  0  0  0  0  0  0  0  0
   17.7263  -11.3020  -15.7145 C   0  0  0  0  0  0  0  0  0  0  0  0
   17.0062  -11.2487  -14.3642 C   0  0  0  0  0  0  0  0  0  0  0  0
   16.0524  -12.3238  -14.2675 N   0  0  0  0  0  0  0  0  0  0  0  0
   18.5015   -7.6229  -17.2324 C   0  0  0  0  0  0  0  0  0  0  0  0
   19.5069   -6.8560  -17.0657 O   0  0  0  0  0  0  0  0  0  0  0  0
   15.0139   -5.4283  -17.1760 C   0  0  0  0  0  0  0  0  0  0  0  0
   16.3626   -4.9062  -16.8142 C   0  0  1  0  0  0  0  0  0  0  0  0
   16.1987   -3.5776  -16.1185 C   0  0  0  0  0  0  0  0  0  0  0  0
   17.1720   -5.8776  -15.9886 C   0  0  2  0  0  0  0  0  0  0  0  0
   17.2922   -7.1499  -16.6742 N   0  0  0  0  0  0  0  0  0  0  0  0
   16.6727   -6.0326  -14.6242 C   0  0  0  0  0  0  0  0  0  0  0  0
   16.6687   -5.1275  -13.7549 O   0  0  0  0  0  0  0  0  0  0  0  0
   16.1482   -7.2717  -14.2100 O   0  0  0  0  0  0  0  0  0  0  0  0
  2  1  1  6
  3  4  1  0
  3  2  1  0
  4  5  2  0
  5  6  1  0
  7  6  2  0
  8  7  1  0
  9  4  1  0
  9  8  2  0
 10  2  1  0
 10 11  2  0
 12 10  1  0
 13 12  1  0
 13 14  1  1
 14 15  1  0
 15 16  1  0
 17 16  1  0
 18 17  1  0
 19 13  1  0
 20 19  2  0
 22 21  1  1
 23 22  1  0
 24 22  1  0
 24 25  1  6
 25 19  1  0
 26 28  1  0
 26 24  1  0
 27 26  2  0
M  END
$$$$
