FKV.pdb
     RDKit          3D

 28 28  0  0  1  0  0  0  0  0999 V2000
   22.6709  -19.0787  -18.2240 N   0  0  0  0  0  0  0  0  0  0  0  0
   23.7074  -18.5803  -17.3344 C   0  0  1  0  0  0  0  0  0  0  0  0
   23.0923  -17.5635  -16.4437 C   0  0  0  0  0  0  0  0  0  0  0  0
   22.5249  -16.3906  -17.0854 C   0  0  0  0  0  0  0  0  0  0  0  0
   23.3792  -15.3257  -17.3475 C   0  0  0  0  0  0  0  0  0  0  0  0
   22.9273  -14.1777  -17.9525 C   0  0  0  0  0  0  0  0  0  0  0  0
   21.6182  -14.0452  -18.3176 C   0  0  0  0  0  0  0  0  0  0  0  0
   20.7581  -15.0885  -18.0661 C   0  0  0  0  0  0  0  0  0  0  0  0
   21.2157  -16.2336  -17.4611 C   0  0  0  0  0  0  0  0  0  0  0  0
   24.3571  -19.7080  -16.5918 C   0  0  0  0  0  0  0  0  0  0  0  0
   23.6814  -20.4082  -15.8051 O   0  0  0  0  0  0  0  0  0  0  0  0
   25.7101  -20.0347  -16.7283 N   0  0  0  0  0  0  0  0  0  0  0  0
   26.5243  -21.0067  -16.1324 C   0  0  1  0  0  0  0  0  0  0  0  0
   27.8716  -21.3281  -16.6874 C   0  0  0  0  0  0  0  0  0  0  0  0
   28.5379  -22.4897  -16.0046 C   0  0  0  0  0  0  0  0  0  0  0  0
   29.8980  -22.7935  -16.6056 C   0  0  0  0  0  0  0  0  0  0  0  0
   30.4126  -24.0576  -15.9115 C   0  0  0  0  0  0  0  0  0  0  0  0
   31.7407  -24.3716  -16.3728 N   0  0  0  0  0  0  0  0  0  0  0  0
   26.5333  -20.8625  -14.6776 C   0  0  0  0  0  0  0  0  0  0  0  0
   27.0825  -19.8254  -14.1777 O   0  0  0  0  0  0  0  0  0  0  0  0
   24.0245  -20.1290  -12.2712 C   0  0  0  0  0  0  0  0  0  0  0  0
   25.4667  -20.2389  -11.9102 C   0  0  1  0  0  0  0  0  0  0  0  0
   25.6210  -19.9604  -10.4355 C   0  0  0  0  0  0  0  0  0  0  0  0
   26.0754  -21.5650  -12.2990 C   0  0  2  0  0  0  0  0  0  0  0  0
   25.9894  -21.7625  -13.7332 N   0  0  0  0  0  0  0  0  0  0  0  0
   25.5244  -22.6947  -11.5539 C   0  0  0  0  0  0  0  0  0  0  0  0
   25.5731  -22.8232  -10.3065 O   0  0  0  0  0  0  0  0  0  0  0  0
   24.8824  -23.7397  -12.2452 O   0  0  0  0  0  0  0  0  0  0  0  0
  2  1  1  6
  3  4  1  0
  3  2  1  0
  4  5  2  0
  5  6  1  0
  7  6  2  0
  8  7  1  0
  9  4  1  0
  9  8  2  0
 10  2  1  0
 10 11  2  0
 12 10  1  0
 13 12  1  0
 13 14  1  6
 14 15  1  0
 15 16  1  0
 17 16  1  0
 18 17  1  0
 19 13  1  0
 20 19  2  0
 22 21  1  1
 23 22  1  0
 24 22  1  0
 24 25  1  6
 25 19  1  0
 26 28  1  0
 26 24  1  0
 27 26  2  0
M  END
$$$$
