FKV.pdb
     RDKit          3D

 28 28  0  0  1  0  0  0  0  0999 V2000
   28.1469  -20.5912  -15.4846 N   0  0  0  0  0  0  0  0  0  0  0  0
   27.2590  -19.7443  -14.7046 C   0  0  1  0  0  0  0  0  0  0  0  0
   26.6093  -18.7870  -15.6358 C   0  0  0  0  0  0  0  0  0  0  0  0
   27.4444  -17.7245  -16.1681 C   0  0  0  0  0  0  0  0  0  0  0  0
   27.5218  -16.5429  -15.4400 C   0  0  0  0  0  0  0  0  0  0  0  0
   28.2889  -15.4866  -15.8691 C   0  0  0  0  0  0  0  0  0  0  0  0
   29.0033  -15.5641  -17.0303 C   0  0  0  0  0  0  0  0  0  0  0  0
   28.9388  -16.7255  -17.7640 C   0  0  0  0  0  0  0  0  0  0  0  0
   28.1703  -17.7779  -17.3299 C   0  0  0  0  0  0  0  0  0  0  0  0
   26.2835  -20.5729  -13.9255 C   0  0  0  0  0  0  0  0  0  0  0  0
   25.7788  -21.5940  -14.4436 O   0  0  0  0  0  0  0  0  0  0  0  0
   25.8919  -20.2660  -12.6184 N   0  0  0  0  0  0  0  0  0  0  0  0
   24.8587  -20.7323  -11.7950 C   0  0  1  0  0  0  0  0  0  0  0  0
   24.8831  -20.4974  -10.3216 C   0  0  0  0  0  0  0  0  0  0  0  0
   23.6649  -21.0199   -9.6127 C   0  0  0  0  0  0  0  0  0  0  0  0
   23.7986  -20.9103   -8.1049 C   0  0  0  0  0  0  0  0  0  0  0  0
   22.5228  -21.5091   -7.5061 C   0  0  0  0  0  0  0  0  0  0  0  0
   22.6910  -22.9238   -7.2930 N   0  0  0  0  0  0  0  0  0  0  0  0
   23.5512  -20.4578  -12.3884 C   0  0  0  0  0  0  0  0  0  0  0  0
   23.2099  -19.2407  -12.5591 O   0  0  0  0  0  0  0  0  0  0  0  0
   21.3827  -23.1457  -14.8661 C   0  0  0  0  0  0  0  0  0  0  0  0
   21.3285  -21.6560  -14.8705 C   0  0  1  0  0  0  0  0  0  0  0  0
   20.1105  -21.2164  -15.6446 C   0  0  0  0  0  0  0  0  0  0  0  0
   21.3604  -21.0578  -13.4843 C   0  0  2  0  0  0  0  0  0  0  0  0
   22.5939  -21.4094  -12.8075 N   0  0  0  0  0  0  0  0  0  0  0  0
   20.1816  -21.3862  -12.6858 C   0  0  0  0  0  0  0  0  0  0  0  0
   20.1539  -22.2381  -11.7647 O   0  0  0  0  0  0  0  0  0  0  0  0
   18.9648  -20.7227  -12.9331 O   0  0  0  0  0  0  0  0  0  0  0  0
  2  1  1  6
  3  4  1  0
  3  2  1  0
  4  5  2  0
  5  6  1  0
  7  6  2  0
  8  7  1  0
  9  4  1  0
  9  8  2  0
 10  2  1  0
 10 11  2  0
 12 10  1  0
 13 12  1  0
 13 14  1  1
 14 15  1  0
 15 16  1  0
 17 16  1  0
 18 17  1  0
 19 13  1  0
 20 19  2  0
 22 21  1  1
 23 22  1  0
 24 22  1  0
 24 25  1  1
 25 19  1  0
 26 28  1  0
 26 24  1  0
 27 26  2  0
M  END
$$$$
