FKV.pdb
     RDKit          3D

 28 28  0  0  1  0  0  0  0  0999 V2000
   25.5787  -21.6085   -7.0551 N   0  0  0  0  0  0  0  0  0  0  0  0
   26.0280  -20.5501   -7.9451 C   0  0  1  0  0  0  0  0  0  0  0  0
   27.4870  -20.3681   -7.7351 C   0  0  0  0  0  0  0  0  0  0  0  0
   27.9045  -19.8919   -6.4281 C   0  0  0  0  0  0  0  0  0  0  0  0
   28.5297  -20.8014   -5.5830 C   0  0  0  0  0  0  0  0  0  0  0  0
   28.9581  -20.4361   -4.3295 C   0  0  0  0  0  0  0  0  0  0  0  0
   28.7826  -19.1618   -3.8714 C   0  0  0  0  0  0  0  0  0  0  0  0
   28.1658  -18.2481   -4.6937 C   0  0  0  0  0  0  0  0  0  0  0  0
   27.7398  -18.6192   -5.9457 C   0  0  0  0  0  0  0  0  0  0  0  0
   25.6646  -20.8604   -9.3652 C   0  0  0  0  0  0  0  0  0  0  0  0
   26.2692  -21.7671   -9.9800 O   0  0  0  0  0  0  0  0  0  0  0  0
   24.6629  -20.1796  -10.0646 N   0  0  0  0  0  0  0  0  0  0  0  0
   24.2193  -20.2314  -11.3926 C   0  0  1  0  0  0  0  0  0  0  0  0
   22.8678  -19.7262  -11.7730 C   0  0  0  0  0  0  0  0  0  0  0  0
   22.4746  -20.0733  -13.1817 C   0  0  0  0  0  0  0  0  0  0  0  0
   22.3541  -21.5730  -13.3812 C   0  0  0  0  0  0  0  0  0  0  0  0
   21.9751  -21.7920  -14.8484 C   0  0  0  0  0  0  0  0  0  0  0  0
   21.8522  -23.2005  -15.1245 N   0  0  0  0  0  0  0  0  0  0  0  0
   25.2662  -19.7894  -12.3123 C   0  0  0  0  0  0  0  0  0  0  0  0
   25.8622  -18.6894  -12.0641 O   0  0  0  0  0  0  0  0  0  0  0  0
   28.7732  -20.5611  -15.6707 C   0  0  0  0  0  0  0  0  0  0  0  0
   27.7436  -21.0087  -14.6900 C   0  0  1  0  0  0  0  0  0  0  0  0
   28.4406  -21.5280  -13.4569 C   0  0  0  0  0  0  0  0  0  0  0  0
   26.7363  -19.9342  -14.3566 C   0  0  2  0  0  0  0  0  0  0  0  0
   25.7083  -20.4569  -13.4771 N   0  0  0  0  0  0  0  0  0  0  0  0
   26.1721  -19.2842  -15.5373 C   0  0  0  0  0  0  0  0  0  0  0  0
   26.7567  -18.4108  -16.2232 O   0  0  0  0  0  0  0  0  0  0  0  0
   24.8799  -19.6322  -15.9745 O   0  0  0  0  0  0  0  0  0  0  0  0
  2  1  1  1
  3  4  1  0
  3  2  1  0
  4  5  2  0
  5  6  1  0
  7  6  2  0
  8  7  1  0
  9  4  1  0
  9  8  2  0
 10  2  1  0
 10 11  2  0
 12 10  1  0
 13 12  1  0
 13 14  1  1
 14 15  1  0
 15 16  1  0
 17 16  1  0
 18 17  1  0
 19 13  1  0
 20 19  2  0
 22 21  1  6
 23 22  1  0
 24 22  1  0
 24 25  1  6
 25 19  1  0
 26 28  1  0
 26 24  1  0
 27 26  2  0
M  END
$$$$
