FKV.pdb
     RDKit          3D

 28 28  0  0  1  0  0  0  0  0999 V2000
   26.6144  -15.3342  -17.6627 N   0  0  0  0  0  0  0  0  0  0  0  0
   26.2688  -15.5404  -16.2655 C   0  0  1  0  0  0  0  0  0  0  0  0
   25.4922  -14.3592  -15.8100 C   0  0  0  0  0  0  0  0  0  0  0  0
   26.1850  -13.0828  -15.8088 C   0  0  0  0  0  0  0  0  0  0  0  0
   25.6204  -12.0451  -16.5416 C   0  0  0  0  0  0  0  0  0  0  0  0
   26.2080  -10.8041  -16.5950 C   0  0  0  0  0  0  0  0  0  0  0  0
   27.3711  -10.5489  -15.9266 C   0  0  0  0  0  0  0  0  0  0  0  0
   27.9444  -11.5635  -15.1963 C   0  0  0  0  0  0  0  0  0  0  0  0
   27.3523  -12.8019  -15.1467 C   0  0  0  0  0  0  0  0  0  0  0  0
   25.5414  -16.8378  -16.0843 C   0  0  0  0  0  0  0  0  0  0  0  0
   24.6852  -17.1954  -16.9238 O   0  0  0  0  0  0  0  0  0  0  0  0
   25.7674  -17.6970  -15.0042 N   0  0  0  0  0  0  0  0  0  0  0  0
   25.2136  -18.9280  -14.6290 C   0  0  1  0  0  0  0  0  0  0  0  0
   25.8837  -19.7977  -13.6185 C   0  0  0  0  0  0  0  0  0  0  0  0
   25.2201  -21.1355  -13.4470 C   0  0  0  0  0  0  0  0  0  0  0  0
   25.6976  -22.1393  -14.4804 C   0  0  0  0  0  0  0  0  0  0  0  0
   24.9894  -23.4607  -14.1694 C   0  0  0  0  0  0  0  0  0  0  0  0
   25.4451  -24.4914  -15.0667 N   0  0  0  0  0  0  0  0  0  0  0  0
   23.7740  -18.8082  -14.4042 C   0  0  0  0  0  0  0  0  0  0  0  0
   23.3740  -18.1029  -13.4196 O   0  0  0  0  0  0  0  0  0  0  0  0
   19.1251  -18.6781  -15.9460 C   0  0  0  0  0  0  0  0  0  0  0  0
   20.5980  -18.7940  -16.1442 C   0  0  1  0  0  0  0  0  0  0  0  0
   21.1187  -17.4881  -16.6917 C   0  0  0  0  0  0  0  0  0  0  0  0
   21.3331  -19.2126  -14.8933 C   0  0  2  0  0  0  0  0  0  0  0  0
   22.7443  -19.3985  -15.1715 N   0  0  0  0  0  0  0  0  0  0  0  0
   20.7430  -20.3780  -14.2387 C   0  0  0  0  0  0  0  0  0  0  0  0
   19.9790  -20.3316  -13.2441 O   0  0  0  0  0  0  0  0  0  0  0  0
   21.0246  -21.6686  -14.7256 O   0  0  0  0  0  0  0  0  0  0  0  0
  2  1  1  6
  3  4  1  0
  3  2  1  0
  4  5  2  0
  5  6  1  0
  7  6  2  0
  8  7  1  0
  9  4  1  0
  9  8  2  0
 10  2  1  0
 10 11  2  0
 12 10  1  0
 13 12  1  0
 13 14  1  1
 14 15  1  0
 15 16  1  0
 17 16  1  0
 18 17  1  0
 19 13  1  0
 20 19  2  0
 22 21  1  1
 23 22  1  0
 24 22  1  0
 24 25  1  6
 25 19  1  0
 26 28  1  0
 26 24  1  0
 27 26  2  0
M  END
$$$$
