FKV.pdb
     RDKit          3D

 28 28  0  0  1  0  0  0  0  0999 V2000
   18.7442  -12.2427  -17.4516 N   0  0  0  0  0  0  0  0  0  0  0  0
   18.9373  -11.6599  -16.1335 C   0  0  1  0  0  0  0  0  0  0  0  0
   20.2186  -12.1784  -15.5902 C   0  0  0  0  0  0  0  0  0  0  0  0
   20.3381  -13.6201  -15.4621 C   0  0  0  0  0  0  0  0  0  0  0  0
   19.7726  -14.2140  -14.3396 C   0  0  0  0  0  0  0  0  0  0  0  0
   19.8377  -15.5718  -14.1387 C   0  0  0  0  0  0  0  0  0  0  0  0
   20.4631  -16.3854  -15.0395 C   0  0  0  0  0  0  0  0  0  0  0  0
   21.0286  -15.8156  -16.1562 C   0  0  0  0  0  0  0  0  0  0  0  0
   20.9602  -14.4577  -16.3516 C   0  0  0  0  0  0  0  0  0  0  0  0
   18.8804  -10.1641  -16.2008 C   0  0  0  0  0  0  0  0  0  0  0  0
   19.6756   -9.5423  -16.9402 O   0  0  0  0  0  0  0  0  0  0  0  0
   17.9674   -9.3997  -15.4673 N   0  0  0  0  0  0  0  0  0  0  0  0
   17.6215   -8.0422  -15.4888 C   0  0  1  0  0  0  0  0  0  0  0  0
   16.2211   -7.6003  -15.2236 C   0  0  0  0  0  0  0  0  0  0  0  0
   15.2058   -8.2685  -16.1078 C   0  0  0  0  0  0  0  0  0  0  0  0
   14.1885   -9.0572  -15.3038 C   0  0  0  0  0  0  0  0  0  0  0  0
   13.1402   -9.5642  -16.2980 C   0  0  0  0  0  0  0  0  0  0  0  0
   12.1293  -10.3246  -15.6089 N   0  0  0  0  0  0  0  0  0  0  0  0
   18.6116   -7.2377  -14.7749 C   0  0  0  0  0  0  0  0  0  0  0  0
   18.9011   -7.5623  -13.5758 O   0  0  0  0  0  0  0  0  0  0  0  0
   22.5954   -4.5578  -14.2760 C   0  0  0  0  0  0  0  0  0  0  0  0
   21.6131   -5.3750  -15.0439 C   0  0  1  0  0  0  0  0  0  0  0  0
   22.1250   -6.7912  -15.1346 C   0  0  0  0  0  0  0  0  0  0  0  0
   20.2173   -5.3168  -14.4704 C   0  0  2  0  0  0  0  0  0  0  0  0
   19.3056   -6.1110  -15.2713 N   0  0  0  0  0  0  0  0  0  0  0  0
   19.7305   -3.9537  -14.2713 C   0  0  0  0  0  0  0  0  0  0  0  0
   18.9187   -3.3647  -15.0257 O   0  0  0  0  0  0  0  0  0  0  0  0
   20.1783   -3.2079  -13.1644 O   0  0  0  0  0  0  0  0  0  0  0  0
  2  1  1  6
  3  4  1  0
  3  2  1  0
  4  5  2  0
  5  6  1  0
  7  6  2  0
  8  7  1  0
  9  4  1  0
  9  8  2  0
 10  2  1  0
 10 11  2  0
 12 10  1  0
 13 12  1  0
 13 14  1  1
 14 15  1  0
 15 16  1  0
 17 16  1  0
 18 17  1  0
 19 13  1  0
 20 19  2  0
 22 21  1  1
 23 22  1  0
 24 22  1  0
 24 25  1  6
 25 19  1  0
 26 28  1  0
 26 24  1  0
 27 26  2  0
M  END
$$$$
