FKV.pdb
     RDKit          3D

 28 28  0  0  1  0  0  0  0  0999 V2000
   28.6278  -21.1046   -9.2414 N   0  0  0  0  0  0  0  0  0  0  0  0
   27.1810  -21.0150   -9.1274 C   0  0  1  0  0  0  0  0  0  0  0  0
   26.8638  -19.8426   -8.2727 C   0  0  0  0  0  0  0  0  0  0  0  0
   27.4421  -19.8299   -6.9404 C   0  0  0  0  0  0  0  0  0  0  0  0
   27.3168  -20.9836   -6.1751 C   0  0  0  0  0  0  0  0  0  0  0  0
   27.8348  -21.0596   -4.9046 C   0  0  0  0  0  0  0  0  0  0  0  0
   28.4925  -19.9990   -4.3503 C   0  0  0  0  0  0  0  0  0  0  0  0
   28.6262  -18.8490   -5.0926 C   0  0  0  0  0  0  0  0  0  0  0  0
   28.1063  -18.7792   -6.3621 C   0  0  0  0  0  0  0  0  0  0  0  0
   26.5444  -20.9541  -10.4825 C   0  0  0  0  0  0  0  0  0  0  0  0
   26.9715  -20.1455  -11.3366 O   0  0  0  0  0  0  0  0  0  0  0  0
   25.4723  -21.7684  -10.8612 N   0  0  0  0  0  0  0  0  0  0  0  0
   24.8718  -22.0464  -12.0961 C   0  0  1  0  0  0  0  0  0  0  0  0
   24.7030  -23.4508  -12.5713 C   0  0  0  0  0  0  0  0  0  0  0  0
   24.2071  -23.5474  -13.9870 C   0  0  0  0  0  0  0  0  0  0  0  0
   24.1334  -24.9868  -14.4625 C   0  0  0  0  0  0  0  0  0  0  0  0
   23.7183  -24.9420  -15.9357 C   0  0  0  0  0  0  0  0  0  0  0  0
   24.8812  -24.8087  -16.7753 N   0  0  0  0  0  0  0  0  0  0  0  0
   23.6693  -21.2376  -12.2879 C   0  0  0  0  0  0  0  0  0  0  0  0
   22.9446  -20.9836  -11.2695 O   0  0  0  0  0  0  0  0  0  0  0  0
   20.8644  -18.1071  -14.9515 C   0  0  0  0  0  0  0  0  0  0  0  0
   22.0958  -18.9260  -14.7638 C   0  0  1  0  0  0  0  0  0  0  0  0
   23.2775  -17.9998  -14.6166 C   0  0  0  0  0  0  0  0  0  0  0  0
   21.9930  -19.8946  -13.6099 C   0  0  2  0  0  0  0  0  0  0  0  0
   23.2022  -20.6883  -13.5036 N   0  0  0  0  0  0  0  0  0  0  0  0
   20.7919  -20.7253  -13.6576 C   0  0  0  0  0  0  0  0  0  0  0  0
   20.6281  -21.7059  -14.4234 O   0  0  0  0  0  0  0  0  0  0  0  0
   19.7130  -20.4415  -12.7987 O   0  0  0  0  0  0  0  0  0  0  0  0
  2  1  1  6
  3  4  1  0
  3  2  1  0
  4  5  2  0
  5  6  1  0
  7  6  2  0
  8  7  1  0
  9  4  1  0
  9  8  2  0
 10  2  1  0
 10 11  2  0
 12 10  1  0
 13 12  1  0
 13 14  1  1
 14 15  1  0
 15 16  1  0
 17 16  1  0
 18 17  1  0
 19 13  1  0
 20 19  2  0
 22 21  1  1
 23 22  1  0
 24 22  1  0
 24 25  1  6
 25 19  1  0
 26 28  1  0
 26 24  1  0
 27 26  2  0
M  END
$$$$
