FKV.pdb
     RDKit          3D

 28 28  0  0  1  0  0  0  0  0999 V2000
   28.4601  -20.9712   -9.3012 N   0  0  0  0  0  0  0  0  0  0  0  0
   27.0530  -20.8619   -8.9514 C   0  0  1  0  0  0  0  0  0  0  0  0
   26.9137  -19.7599   -7.9655 C   0  0  0  0  0  0  0  0  0  0  0  0
   27.6884  -19.8758   -6.7425 C   0  0  0  0  0  0  0  0  0  0  0  0
   28.2544  -18.7148   -6.2286 C   0  0  0  0  0  0  0  0  0  0  0  0
   29.0017  -18.7324   -5.0755 C   0  0  0  0  0  0  0  0  0  0  0  0
   29.2133  -19.8966   -4.3941 C   0  0  0  0  0  0  0  0  0  0  0  0
   28.6611  -21.0555   -4.8875 C   0  0  0  0  0  0  0  0  0  0  0  0
   27.9151  -21.0315   -6.0406 C   0  0  0  0  0  0  0  0  0  0  0  0
   26.2139  -20.6732  -10.1784 C   0  0  0  0  0  0  0  0  0  0  0  0
   26.1347  -19.5444  -10.7125 O   0  0  0  0  0  0  0  0  0  0  0  0
   25.4941  -21.7107  -10.7797 N   0  0  0  0  0  0  0  0  0  0  0  0
   24.8109  -21.8201  -11.9980 C   0  0  1  0  0  0  0  0  0  0  0  0
   24.8480  -23.0837  -12.7906 C   0  0  0  0  0  0  0  0  0  0  0  0
   24.1789  -22.9681  -14.1317 C   0  0  0  0  0  0  0  0  0  0  0  0
   25.1749  -23.0808  -15.2713 C   0  0  0  0  0  0  0  0  0  0  0  0
   24.3898  -22.8492  -16.5654 C   0  0  0  0  0  0  0  0  0  0  0  0
   25.2791  -22.8823  -17.6981 N   0  0  0  0  0  0  0  0  0  0  0  0
   23.4655  -21.2571  -11.8967 C   0  0  0  0  0  0  0  0  0  0  0  0
   22.8623  -21.3344  -10.7755 O   0  0  0  0  0  0  0  0  0  0  0  0
   19.7096  -18.4733  -13.6070 C   0  0  0  0  0  0  0  0  0  0  0  0
   21.1175  -18.9595  -13.6662 C   0  0  1  0  0  0  0  0  0  0  0  0
   22.0428  -17.8061  -13.3668 C   0  0  0  0  0  0  0  0  0  0  0  0
   21.3759  -20.1383  -12.7585 C   0  0  2  0  0  0  0  0  0  0  0  0
   22.7342  -20.6189  -12.9241 N   0  0  0  0  0  0  0  0  0  0  0  0
   20.3918  -21.2082  -12.9061 C   0  0  0  0  0  0  0  0  0  0  0  0
   20.4269  -22.0979  -13.7905 O   0  0  0  0  0  0  0  0  0  0  0  0
   19.3067  -21.2860  -12.0124 O   0  0  0  0  0  0  0  0  0  0  0  0
  2  1  1  6
  3  4  1  0
  3  2  1  0
  4  5  2  0
  5  6  1  0
  7  6  2  0
  8  7  1  0
  9  4  1  0
  9  8  2  0
 10  2  1  0
 10 11  2  0
 12 10  1  0
 13 12  1  0
 13 14  1  1
 14 15  1  0
 15 16  1  0
 17 16  1  0
 18 17  1  0
 19 13  1  0
 20 19  2  0
 22 21  1  1
 23 22  1  0
 24 22  1  0
 24 25  1  6
 25 19  1  0
 26 28  1  0
 26 24  1  0
 27 26  2  0
M  END
$$$$
