LHH.pdb
     RDKit          3D

 29 30  0  0  1  0  0  0  0  0999 V2000
    7.4074  -12.6640   18.7370 C   0  0  0  0  0  0  0  0  0  0  0  0
    8.7515  -13.0934   19.2893 C   0  0  1  0  0  0  0  0  0  0  0  0
    9.5915  -11.9314   19.7159 C   0  0  0  0  0  0  0  0  0  0  0  0
    8.6146  -14.1519   20.3345 C   0  0  0  0  0  0  0  0  0  0  0  0
    9.8874  -14.5176   21.0131 C   0  0  2  0  0  0  0  0  0  0  0  0
   10.9683  -14.7994   20.0964 N   0  0  0  0  0  0  0  0  0  0  0  0
    9.6056  -15.7089   21.8844 C   0  0  0  0  0  0  0  0  0  0  0  0
    8.5186  -15.7005   22.5170 O   0  0  0  0  0  0  0  0  0  0  0  0
   10.5034  -16.7945   22.0009 N   0  0  0  0  0  0  0  0  0  0  0  0
   10.1502  -18.0007   22.7662 C   0  0  1  0  0  0  0  0  0  0  0  0
   10.4142  -19.2311   21.9548 C   0  0  0  0  0  0  0  0  0  0  0  0
    9.5324  -19.2918   20.7862 C   0  0  0  0  0  0  0  0  0  0  0  0
    8.1676  -19.3840   20.7693 C   0  0  0  0  0  0  0  0  0  0  0  0
    7.7934  -19.4368   19.4908 N   0  0  0  0  0  0  0  0  0  0  0  0
    8.8672  -19.3816   18.7135 C   0  0  0  0  0  0  0  0  0  0  0  0
    9.9504  -19.2922   19.4820 N   0  0  0  0  0  0  0  0  0  0  0  0
   10.9508  -18.0025   23.9967 C   0  0  0  0  0  0  0  0  0  0  0  0
   11.0656  -18.9901   24.7639 O   0  0  0  0  0  0  0  0  0  0  0  0
   11.6554  -16.8319   24.3793 N   0  0  0  0  0  0  0  0  0  0  0  0
   11.5981  -16.3239   25.7565 C   0  0  1  0  0  0  0  0  0  0  0  0
   10.3232  -15.5615   25.8962 C   0  0  0  0  0  0  0  0  0  0  0  0
   10.0593  -15.0671   27.2450 C   0  0  0  0  0  0  0  0  0  0  0  0
   10.8876  -15.2094   28.3282 C   0  0  0  0  0  0  0  0  0  0  0  0
   10.2827  -14.6192   29.3709 N   0  0  0  0  0  0  0  0  0  0  0  0
    9.1110  -14.1235   28.9492 C   0  0  0  0  0  0  0  0  0  0  0  0
    8.9781  -14.4001   27.6465 N   0  0  0  0  0  0  0  0  0  0  0  0
   11.7155  -17.4410   26.7277 C   0  0  0  0  0  0  0  0  0  0  0  0
   12.6858  -17.4800   27.5257 O   0  0  0  0  0  0  0  0  0  0  0  0
   10.7904  -18.4719   26.8068 O   0  0  0  0  0  0  0  0  0  0  0  0
  2  1  1  1
  2  3  1  0
  4  2  1  0
  5  4  1  0
  5  6  1  6
  7  8  2  0
  7  5  1  0
  9  7  1  0
 10 11  1  6
 10  9  1  0
 11 12  1  0
 12 13  2  0
 12 16  1  0
 13 14  1  0
 14 15  1  0
 16 15  2  0
 17 10  1  0
 18 17  2  0
 19 17  1  0
 20 19  1  0
 21 22  1  0
 20 21  1  6
 22 23  2  0
 23 24  1  0
 25 24  1  0
 26 22  1  0
 26 25  2  0
 27 20  1  0
 27 29  1  0
 28 27  2  0
M  END
$$$$
