LHH.pdb
     RDKit          3D

 29 30  0  0  1  0  0  0  0  0999 V2000
    8.3785  -12.2382   18.2522 C   0  0  0  0  0  0  0  0  0  0  0  0
    8.5050  -13.2098   19.4081 C   0  0  1  0  0  0  0  0  0  0  0  0
    7.5245  -12.9269   20.5020 C   0  0  0  0  0  0  0  0  0  0  0  0
    8.4985  -14.6309   18.9479 C   0  0  0  0  0  0  0  0  0  0  0  0
    8.6882  -15.6319   20.0325 C   0  0  2  0  0  0  0  0  0  0  0  0
    8.2900  -15.1512   21.3357 N   0  0  0  0  0  0  0  0  0  0  0  0
   10.1384  -16.0253   20.0317 C   0  0  0  0  0  0  0  0  0  0  0  0
   10.5572  -16.6339   19.0139 O   0  0  0  0  0  0  0  0  0  0  0  0
   11.0049  -15.7355   21.1103 N   0  0  0  0  0  0  0  0  0  0  0  0
   12.4073  -16.1814   21.1063 C   0  0  1  0  0  0  0  0  0  0  0  0
   13.3264  -15.0155   20.9123 C   0  0  0  0  0  0  0  0  0  0  0  0
   13.6718  -14.8453   19.4986 C   0  0  0  0  0  0  0  0  0  0  0  0
   13.2577  -15.6022   18.4370 C   0  0  0  0  0  0  0  0  0  0  0  0
   13.8389  -15.1011   17.3469 N   0  0  0  0  0  0  0  0  0  0  0  0
   14.5962  -14.0659   17.6861 C   0  0  0  0  0  0  0  0  0  0  0  0
   14.5131  -13.8853   19.0024 N   0  0  0  0  0  0  0  0  0  0  0  0
   12.6702  -16.8489   22.3871 C   0  0  0  0  0  0  0  0  0  0  0  0
   12.2505  -16.4385   23.4973 O   0  0  0  0  0  0  0  0  0  0  0  0
   13.4448  -18.0373   22.4152 N   0  0  0  0  0  0  0  0  0  0  0  0
   13.6749  -18.7674   23.6690 C   0  0  1  0  0  0  0  0  0  0  0  0
   13.5270  -20.2216   23.3699 C   0  0  0  0  0  0  0  0  0  0  0  0
   12.1530  -20.6515   23.1240 C   0  0  0  0  0  0  0  0  0  0  0  0
   11.0442  -19.8453   23.1437 C   0  0  0  0  0  0  0  0  0  0  0  0
    9.9840  -20.6214   22.8698 N   0  0  0  0  0  0  0  0  0  0  0  0
   10.4199  -21.8752   22.6847 C   0  0  0  0  0  0  0  0  0  0  0  0
   11.7490  -21.8892   22.8413 N   0  0  0  0  0  0  0  0  0  0  0  0
   15.0044  -18.4236   24.2340 C   0  0  0  0  0  0  0  0  0  0  0  0
   15.8565  -17.8354   23.5215 O   0  0  0  0  0  0  0  0  0  0  0  0
   15.3696  -18.7227   25.5386 O   0  0  0  0  0  0  0  0  0  0  0  0
  2  1  1  6
  2  3  1  0
  4  2  1  0
  5  4  1  0
  5  6  1  1
  7  8  2  0
  7  5  1  0
  9  7  1  0
 10 11  1  1
 10  9  1  0
 11 12  1  0
 12 13  2  0
 12 16  1  0
 13 14  1  0
 14 15  1  0
 16 15  2  0
 17 10  1  0
 18 17  2  0
 19 17  1  0
 20 19  1  0
 21 22  1  0
 20 21  1  6
 22 23  2  0
 23 24  1  0
 25 24  1  0
 26 22  1  0
 26 25  2  0
 27 20  1  0
 27 29  1  0
 28 27  2  0
M  END
$$$$
