LHH.pdb
     RDKit          3D

 29 30  0  0  1  0  0  0  0  0999 V2000
    6.5013  -10.0577   25.3091 C   0  0  0  0  0  0  0  0  0  0  0  0
    6.7140  -11.3703   26.0355 C   0  0  1  0  0  0  0  0  0  0  0  0
    6.0155  -11.4112   27.3577 C   0  0  0  0  0  0  0  0  0  0  0  0
    6.4188  -12.5467   25.1633 C   0  0  0  0  0  0  0  0  0  0  0  0
    6.7712  -13.8627   25.7618 C   0  0  2  0  0  0  0  0  0  0  0  0
    7.7451  -13.7693   26.8253 N   0  0  0  0  0  0  0  0  0  0  0  0
    7.2789  -14.7392   24.6520 C   0  0  0  0  0  0  0  0  0  0  0  0
    6.4510  -15.5334   24.1367 O   0  0  0  0  0  0  0  0  0  0  0  0
    8.6158  -14.6890   24.1952 N   0  0  0  0  0  0  0  0  0  0  0  0
    9.1623  -15.7318   23.3123 C   0  0  1  0  0  0  0  0  0  0  0  0
    9.8758  -15.1126   22.1507 C   0  0  0  0  0  0  0  0  0  0  0  0
    8.9266  -14.5371   21.1943 C   0  0  0  0  0  0  0  0  0  0  0  0
    7.5602  -14.5494   21.2581 C   0  0  0  0  0  0  0  0  0  0  0  0
    7.1105  -13.9334   20.1647 N   0  0  0  0  0  0  0  0  0  0  0  0
    8.1389  -13.5394   19.4248 C   0  0  0  0  0  0  0  0  0  0  0  0
    9.2680  -13.8969   20.0327 N   0  0  0  0  0  0  0  0  0  0  0  0
   10.0764  -16.5604   24.1079 C   0  0  0  0  0  0  0  0  0  0  0  0
   11.0458  -16.1102   24.7672 O   0  0  0  0  0  0  0  0  0  0  0  0
    9.8863  -17.9654   24.1612 N   0  0  0  0  0  0  0  0  0  0  0  0
   10.6132  -18.7965   25.1302 C   0  0  1  0  0  0  0  0  0  0  0  0
    9.6561  -19.8186   25.6453 C   0  0  0  0  0  0  0  0  0  0  0  0
   10.2446  -20.7886   26.5650 C   0  0  0  0  0  0  0  0  0  0  0  0
   11.5277  -20.7612   27.0473 C   0  0  0  0  0  0  0  0  0  0  0  0
   11.6703  -21.8218   27.8572 N   0  0  0  0  0  0  0  0  0  0  0  0
   10.5092  -22.4909   27.8788 C   0  0  0  0  0  0  0  0  0  0  0  0
    9.6387  -21.8547   27.0860 N   0  0  0  0  0  0  0  0  0  0  0  0
   11.8179  -19.3948   24.5012 C   0  0  0  0  0  0  0  0  0  0  0  0
   11.7769  -19.7781   23.3049 O   0  0  0  0  0  0  0  0  0  0  0  0
   13.0185  -19.5593   25.1766 O   0  0  0  0  0  0  0  0  0  0  0  0
  2  1  1  6
  2  3  1  0
  4  2  1  0
  5  4  1  0
  5  6  1  1
  7  8  2  0
  7  5  1  0
  9  7  1  0
 10 11  1  6
 10  9  1  0
 11 12  1  0
 12 13  2  0
 12 16  1  0
 13 14  1  0
 14 15  1  0
 16 15  2  0
 17 10  1  0
 18 17  2  0
 19 17  1  0
 20 19  1  0
 21 22  1  0
 20 21  1  6
 22 23  2  0
 23 24  1  0
 25 24  1  0
 26 22  1  0
 26 25  2  0
 27 20  1  0
 27 29  1  0
 28 27  2  0
M  END
$$$$
