LHH.pdb
     RDKit          3D

 29 30  0  0  1  0  0  0  0  0999 V2000
    6.9738  -12.7628   18.6710 C   0  0  0  0  0  0  0  0  0  0  0  0
    8.4147  -13.1448   18.9426 C   0  0  1  0  0  0  0  0  0  0  0  0
    9.2737  -11.9573   19.2425 C   0  0  0  0  0  0  0  0  0  0  0  0
    8.5227  -14.2362   19.9569 C   0  0  0  0  0  0  0  0  0  0  0  0
    9.9093  -14.5134   20.4202 C   0  0  2  0  0  0  0  0  0  0  0  0
   10.8256  -14.8172   19.3450 N   0  0  0  0  0  0  0  0  0  0  0  0
    9.8373  -15.6544   21.3952 C   0  0  0  0  0  0  0  0  0  0  0  0
    8.9063  -15.6166   22.2400 O   0  0  0  0  0  0  0  0  0  0  0  0
   10.7593  -16.7259   21.3805 N   0  0  0  0  0  0  0  0  0  0  0  0
   10.7025  -17.7979   22.3869 C   0  0  1  0  0  0  0  0  0  0  0  0
   11.5160  -18.9745   21.9444 C   0  0  0  0  0  0  0  0  0  0  0  0
   10.8448  -19.7043   20.8656 C   0  0  0  0  0  0  0  0  0  0  0  0
    9.5137  -19.9995   20.7543 C   0  0  0  0  0  0  0  0  0  0  0  0
    9.3588  -20.6965   19.6285 N   0  0  0  0  0  0  0  0  0  0  0  0
   10.5365  -20.8471   19.0364 C   0  0  0  0  0  0  0  0  0  0  0  0
   11.4685  -20.2476   19.7741 N   0  0  0  0  0  0  0  0  0  0  0  0
   11.2120  -17.2542   23.6518 C   0  0  0  0  0  0  0  0  0  0  0  0
   12.3557  -16.7562   23.7974 O   0  0  0  0  0  0  0  0  0  0  0  0
   10.3901  -17.2742   24.8081 N   0  0  0  0  0  0  0  0  0  0  0  0
   10.8639  -16.7337   26.0892 C   0  0  1  0  0  0  0  0  0  0  0  0
    9.8343  -15.7679   26.5721 C   0  0  0  0  0  0  0  0  0  0  0  0
   10.0980  -15.2161   27.8984 C   0  0  0  0  0  0  0  0  0  0  0  0
   11.1852  -15.5000   28.6841 C   0  0  0  0  0  0  0  0  0  0  0  0
   11.0517  -14.7930   29.8171 N   0  0  0  0  0  0  0  0  0  0  0  0
    9.9140  -14.0889   29.7395 C   0  0  0  0  0  0  0  0  0  0  0  0
    9.3329  -14.3509   28.5627 N   0  0  0  0  0  0  0  0  0  0  0  0
   11.1248  -17.8333   27.0525 C   0  0  0  0  0  0  0  0  0  0  0  0
   11.8904  -17.6426   28.0309 O   0  0  0  0  0  0  0  0  0  0  0  0
   10.5565  -19.0931   26.9308 O   0  0  0  0  0  0  0  0  0  0  0  0
  2  1  1  1
  2  3  1  0
  4  2  1  0
  5  4  1  0
  5  6  1  6
  7  8  2  0
  7  5  1  0
  9  7  1  0
 10 11  1  6
 10  9  1  0
 11 12  1  0
 12 13  2  0
 12 16  1  0
 13 14  1  0
 14 15  1  0
 16 15  2  0
 17 10  1  0
 18 17  2  0
 19 17  1  0
 20 19  1  0
 21 22  1  0
 20 21  1  1
 22 23  2  0
 23 24  1  0
 25 24  1  0
 26 22  1  0
 26 25  2  0
 27 20  1  0
 27 29  1  0
 28 27  2  0
M  END
$$$$
