LHH.pdb
     RDKit          3D

 29 30  0  0  1  0  0  0  0  0999 V2000
    7.2094  -12.0106   20.5880 C   0  0  0  0  0  0  0  0  0  0  0  0
    7.2858  -13.5180   20.4538 C   0  0  1  0  0  0  0  0  0  0  0  0
    6.4094  -14.0392   19.3593 C   0  0  0  0  0  0  0  0  0  0  0  0
    8.6969  -14.0020   20.3758 C   0  0  0  0  0  0  0  0  0  0  0  0
    8.8492  -15.4790   20.4740 C   0  0  2  0  0  0  0  0  0  0  0  0
    7.7709  -16.2117   19.8506 N   0  0  0  0  0  0  0  0  0  0  0  0
    8.9520  -15.8238   21.9328 C   0  0  0  0  0  0  0  0  0  0  0  0
    9.7637  -15.1486   22.6162 O   0  0  0  0  0  0  0  0  0  0  0  0
    8.1842  -16.8514   22.5267 N   0  0  0  0  0  0  0  0  0  0  0  0
    8.3643  -17.2220   23.9395 C   0  0  1  0  0  0  0  0  0  0  0  0
    7.3564  -18.2534   24.3423 C   0  0  0  0  0  0  0  0  0  0  0  0
    7.5357  -18.6479   25.7420 C   0  0  0  0  0  0  0  0  0  0  0  0
    8.3866  -18.1035   26.6644 C   0  0  0  0  0  0  0  0  0  0  0  0
    8.2319  -18.7917   27.7957 N   0  0  0  0  0  0  0  0  0  0  0  0
    7.3218  -19.7400   27.6151 C   0  0  0  0  0  0  0  0  0  0  0  0
    6.8765  -19.6757   26.3622 N   0  0  0  0  0  0  0  0  0  0  0  0
    9.7308  -17.7339   24.0990 C   0  0  0  0  0  0  0  0  0  0  0  0
   10.2620  -18.5801   23.3381 O   0  0  0  0  0  0  0  0  0  0  0  0
   10.5363  -17.2675   25.1699 N   0  0  0  0  0  0  0  0  0  0  0  0
   11.8432  -17.8726   25.4600 C   0  0  1  0  0  0  0  0  0  0  0  0
   12.8802  -16.8274   25.2186 C   0  0  0  0  0  0  0  0  0  0  0  0
   13.1874  -16.5948   23.8098 C   0  0  0  0  0  0  0  0  0  0  0  0
   12.5528  -17.1774   22.7432 C   0  0  0  0  0  0  0  0  0  0  0  0
   13.1298  -16.7009   21.6291 N   0  0  0  0  0  0  0  0  0  0  0  0
   14.0962  -15.8458   21.9913 C   0  0  0  0  0  0  0  0  0  0  0  0
   14.1281  -15.7837   23.3278 N   0  0  0  0  0  0  0  0  0  0  0  0
   11.8715  -18.4091   26.8443 C   0  0  0  0  0  0  0  0  0  0  0  0
   10.9776  -18.0794   27.6641 O   0  0  0  0  0  0  0  0  0  0  0  0
   12.8548  -19.2768   27.2969 O   0  0  0  0  0  0  0  0  0  0  0  0
  2  1  1  6
  2  3  1  0
  4  2  1  0
  5  4  1  0
  5  6  1  1
  7  8  2  0
  7  5  1  0
  9  7  1  0
 10 11  1  6
 10  9  1  0
 11 12  1  0
 12 13  2  0
 12 16  1  0
 13 14  1  0
 14 15  1  0
 16 15  2  0
 17 10  1  0
 18 17  2  0
 19 17  1  0
 20 19  1  0
 21 22  1  0
 20 21  1  1
 22 23  2  0
 23 24  1  0
 25 24  1  0
 26 22  1  0
 26 25  2  0
 27 20  1  0
 27 29  1  0
 28 27  2  0
M  END
$$$$
