LHH.pdb
     RDKit          3D

 29 30  0  0  1  0  0  0  0  0999 V2000
    7.5997  -12.0547   26.7099 C   0  0  0  0  0  0  0  0  0  0  0  0
    6.5505  -12.9521   26.0855 C   0  0  1  0  0  0  0  0  0  0  0  0
    5.1813  -12.3517   26.1367 C   0  0  0  0  0  0  0  0  0  0  0  0
    6.9516  -13.4187   24.7243 C   0  0  0  0  0  0  0  0  0  0  0  0
    6.4642  -14.7792   24.3696 C   0  0  2  0  0  0  0  0  0  0  0  0
    5.5896  -15.3552   25.3652 N   0  0  0  0  0  0  0  0  0  0  0  0
    7.6718  -15.6476   24.1571 C   0  0  0  0  0  0  0  0  0  0  0  0
    7.8704  -16.5551   25.0050 O   0  0  0  0  0  0  0  0  0  0  0  0
    8.5528  -15.4703   23.0659 N   0  0  0  0  0  0  0  0  0  0  0  0
    9.6086  -16.4511   22.7676 C   0  0  1  0  0  0  0  0  0  0  0  0
   10.2262  -16.1656   21.4338 C   0  0  0  0  0  0  0  0  0  0  0  0
    9.2394  -16.2901   20.3579 C   0  0  0  0  0  0  0  0  0  0  0  0
    8.5236  -17.3998   20.0006 C   0  0  0  0  0  0  0  0  0  0  0  0
    7.7686  -17.0604   18.9556 N   0  0  0  0  0  0  0  0  0  0  0  0
    7.9852  -15.7880   18.6486 C   0  0  0  0  0  0  0  0  0  0  0  0
    8.8846  -15.2888   19.4935 N   0  0  0  0  0  0  0  0  0  0  0  0
   10.6108  -16.3716   23.8373 C   0  0  0  0  0  0  0  0  0  0  0  0
   11.4912  -15.4795   23.9162 O   0  0  0  0  0  0  0  0  0  0  0  0
   10.6191  -17.3471   24.8675 N   0  0  0  0  0  0  0  0  0  0  0  0
   11.4235  -17.1647   26.0832 C   0  0  1  0  0  0  0  0  0  0  0  0
   10.5752  -16.4385   27.0726 C   0  0  0  0  0  0  0  0  0  0  0  0
   11.2148  -16.2114   28.3659 C   0  0  0  0  0  0  0  0  0  0  0  0
   12.4652  -16.6407   28.7291 C   0  0  0  0  0  0  0  0  0  0  0  0
   12.6759  -16.2292   29.9892 N   0  0  0  0  0  0  0  0  0  0  0  0
   11.5877  -15.5626   30.3991 C   0  0  0  0  0  0  0  0  0  0  0  0
   10.6953  -15.5541   29.4018 N   0  0  0  0  0  0  0  0  0  0  0  0
   11.9092  -18.4747   26.5863 C   0  0  0  0  0  0  0  0  0  0  0  0
   11.2707  -19.5246   26.3223 O   0  0  0  0  0  0  0  0  0  0  0  0
   13.0584  -18.6095   27.3517 O   0  0  0  0  0  0  0  0  0  0  0  0
  2  1  1  6
  2  3  1  0
  4  2  1  0
  5  4  1  0
  5  6  1  1
  7  8  2  0
  7  5  1  0
  9  7  1  0
 10 11  1  6
 10  9  1  0
 11 12  1  0
 12 13  2  0
 12 16  1  0
 13 14  1  0
 14 15  1  0
 16 15  2  0
 17 10  1  0
 18 17  2  0
 19 17  1  0
 20 19  1  0
 21 22  1  0
 20 21  1  1
 22 23  2  0
 23 24  1  0
 25 24  1  0
 26 22  1  0
 26 25  2  0
 27 20  1  0
 27 29  1  0
 28 27  2  0
M  END
$$$$
