LHH.pdb
     RDKit          3D

 29 30  0  0  1  0  0  0  0  0999 V2000
    8.1753  -15.7469   16.1978 C   0  0  0  0  0  0  0  0  0  0  0  0
    8.7386  -16.7038   17.2288 C   0  0  1  0  0  0  0  0  0  0  0  0
    9.2649  -17.9616   16.6133 C   0  0  0  0  0  0  0  0  0  0  0  0
    9.7083  -16.0318   18.1452 C   0  0  0  0  0  0  0  0  0  0  0  0
   10.1781  -16.8784   19.2751 C   0  0  2  0  0  0  0  0  0  0  0  0
    9.3198  -18.0097   19.5426 N   0  0  0  0  0  0  0  0  0  0  0  0
   10.2837  -15.9939   20.4852 C   0  0  0  0  0  0  0  0  0  0  0  0
   11.1556  -15.0883   20.4477 O   0  0  0  0  0  0  0  0  0  0  0  0
    9.4543  -16.1547   21.6187 N   0  0  0  0  0  0  0  0  0  0  0  0
    9.5625  -15.2566   22.7794 C   0  0  1  0  0  0  0  0  0  0  0  0
    8.2226  -14.6846   23.1248 C   0  0  0  0  0  0  0  0  0  0  0  0
    7.5652  -14.1275   21.9397 C   0  0  0  0  0  0  0  0  0  0  0  0
    6.4021  -14.5439   21.3522 C   0  0  0  0  0  0  0  0  0  0  0  0
    6.1990  -13.7660   20.2888 N   0  0  0  0  0  0  0  0  0  0  0  0
    7.1860  -12.8849   20.1907 C   0  0  0  0  0  0  0  0  0  0  0  0
    8.0406  -13.0833   21.1919 N   0  0  0  0  0  0  0  0  0  0  0  0
   10.1053  -16.0342   23.9000 C   0  0  0  0  0  0  0  0  0  0  0  0
   10.2153  -15.6006   25.0735 O   0  0  0  0  0  0  0  0  0  0  0  0
   10.5452  -17.3658   23.6846 N   0  0  0  0  0  0  0  0  0  0  0  0
   11.1094  -18.1682   24.7782 C   0  0  1  0  0  0  0  0  0  0  0  0
   10.9773  -19.6029   24.3906 C   0  0  0  0  0  0  0  0  0  0  0  0
   11.5217  -20.5449   25.3650 C   0  0  0  0  0  0  0  0  0  0  0  0
   12.0278  -20.2217   26.5976 C   0  0  0  0  0  0  0  0  0  0  0  0
   12.4220  -21.3661   27.1775 N   0  0  0  0  0  0  0  0  0  0  0  0
   12.1688  -22.3733   26.3304 C   0  0  0  0  0  0  0  0  0  0  0  0
   11.6174  -21.8660   25.2215 N   0  0  0  0  0  0  0  0  0  0  0  0
   12.5136  -17.7666   25.0463 C   0  0  0  0  0  0  0  0  0  0  0  0
   12.9177  -17.6479   26.2306 O   0  0  0  0  0  0  0  0  0  0  0  0
   13.4299  -17.5079   24.0372 O   0  0  0  0  0  0  0  0  0  0  0  0
  2  1  1  6
  2  3  1  0
  4  2  1  0
  5  4  1  0
  5  6  1  1
  7  8  2  0
  7  5  1  0
  9  7  1  0
 10 11  1  1
 10  9  1  0
 11 12  1  0
 12 13  2  0
 12 16  1  0
 13 14  1  0
 14 15  1  0
 16 15  2  0
 17 10  1  0
 18 17  2  0
 19 17  1  0
 20 19  1  0
 21 22  1  0
 20 21  1  6
 22 23  2  0
 23 24  1  0
 25 24  1  0
 26 22  1  0
 26 25  2  0
 27 20  1  0
 27 29  1  0
 28 27  2  0
M  END
$$$$
