LHH.pdb
     RDKit          3D

 29 30  0  0  1  0  0  0  0  0999 V2000
    8.2139  -12.1136   25.3195 C   0  0  0  0  0  0  0  0  0  0  0  0
    7.4619  -13.4290   25.3333 C   0  0  1  0  0  0  0  0  0  0  0  0
    6.1617  -13.3360   26.0672 C   0  0  0  0  0  0  0  0  0  0  0  0
    7.3395  -14.0179   23.9659 C   0  0  0  0  0  0  0  0  0  0  0  0
    8.6069  -14.5708   23.4162 C   0  0  2  0  0  0  0  0  0  0  0  0
    8.5309  -14.8970   22.0105 N   0  0  0  0  0  0  0  0  0  0  0  0
    8.9543  -15.7879   24.2259 C   0  0  0  0  0  0  0  0  0  0  0  0
    8.5627  -15.8010   25.4210 O   0  0  0  0  0  0  0  0  0  0  0  0
    9.6836  -16.8741   23.6904 N   0  0  0  0  0  0  0  0  0  0  0  0
    9.9050  -18.1042   24.4673 C   0  0  1  0  0  0  0  0  0  0  0  0
   10.3723  -19.2106   23.5732 C   0  0  0  0  0  0  0  0  0  0  0  0
    9.3386  -19.5758   22.6012 C   0  0  0  0  0  0  0  0  0  0  0  0
    7.9973  -19.7305   22.8215 C   0  0  0  0  0  0  0  0  0  0  0  0
    7.4478  -20.0904   21.6614 N   0  0  0  0  0  0  0  0  0  0  0  0
    8.3902  -20.1661   20.7306 C   0  0  0  0  0  0  0  0  0  0  0  0
    9.5625  -19.8551   21.2793 N   0  0  0  0  0  0  0  0  0  0  0  0
   10.9040  -17.8085   25.5016 C   0  0  0  0  0  0  0  0  0  0  0  0
   12.0251  -17.2905   25.2740 O   0  0  0  0  0  0  0  0  0  0  0  0
   10.6230  -18.1131   26.8586 N   0  0  0  0  0  0  0  0  0  0  0  0
   11.6493  -17.9701   27.8999 C   0  0  1  0  0  0  0  0  0  0  0  0
   10.9838  -17.3910   29.1032 C   0  0  0  0  0  0  0  0  0  0  0  0
   10.4437  -16.0481   28.9076 C   0  0  0  0  0  0  0  0  0  0  0  0
   10.5561  -15.2961   27.7667 C   0  0  0  0  0  0  0  0  0  0  0  0
    9.9279  -14.1322   27.9947 N   0  0  0  0  0  0  0  0  0  0  0  0
    9.4381  -14.1584   29.2420 C   0  0  0  0  0  0  0  0  0  0  0  0
    9.7563  -15.3336   29.7977 N   0  0  0  0  0  0  0  0  0  0  0  0
   12.3012  -19.2766   28.1699 C   0  0  0  0  0  0  0  0  0  0  0  0
   13.2282  -19.3531   29.0152 O   0  0  0  0  0  0  0  0  0  0  0  0
   11.9356  -20.4494   27.5251 O   0  0  0  0  0  0  0  0  0  0  0  0
  2  1  1  6
  2  3  1  0
  4  2  1  0
  5  4  1  0
  5  6  1  6
  7  8  2  0
  7  5  1  0
  9  7  1  0
 10 11  1  6
 10  9  1  0
 11 12  1  0
 12 13  2  0
 12 16  1  0
 13 14  1  0
 14 15  1  0
 16 15  2  0
 17 10  1  0
 18 17  2  0
 19 17  1  0
 20 19  1  0
 21 22  1  0
 20 21  1  1
 22 23  2  0
 23 24  1  0
 25 24  1  0
 26 22  1  0
 26 25  2  0
 27 20  1  0
 27 29  1  0
 28 27  2  0
M  END
$$$$
