LHH.pdb
     RDKit          3D

 29 30  0  0  1  0  0  0  0  0999 V2000
    4.8370  -12.0878   27.3086 C   0  0  0  0  0  0  0  0  0  0  0  0
    6.1321  -12.0068   26.5263 C   0  0  1  0  0  0  0  0  0  0  0  0
    7.2400  -11.3877   27.3181 C   0  0  0  0  0  0  0  0  0  0  0  0
    6.4950  -13.3172   25.9076 C   0  0  0  0  0  0  0  0  0  0  0  0
    7.7862  -13.3141   25.1680 C   0  0  2  0  0  0  0  0  0  0  0  0
    7.9742  -12.1430   24.3426 N   0  0  0  0  0  0  0  0  0  0  0  0
    7.8295  -14.5638   24.3349 C   0  0  0  0  0  0  0  0  0  0  0  0
    6.9869  -15.4556   24.6115 O   0  0  0  0  0  0  0  0  0  0  0  0
    8.7620  -14.7476   23.2885 N   0  0  0  0  0  0  0  0  0  0  0  0
    8.8487  -16.0208   22.5558 C   0  0  1  0  0  0  0  0  0  0  0  0
    9.4368  -15.8029   21.1962 C   0  0  0  0  0  0  0  0  0  0  0  0
    8.5942  -14.9129   20.3932 C   0  0  0  0  0  0  0  0  0  0  0  0
    7.2506  -14.6897   20.5201 C   0  0  0  0  0  0  0  0  0  0  0  0
    6.9038  -13.8271   19.5646 N   0  0  0  0  0  0  0  0  0  0  0  0
    7.9743  -13.5055   18.8499 C   0  0  0  0  0  0  0  0  0  0  0  0
    9.0279  -14.1577   19.3362 N   0  0  0  0  0  0  0  0  0  0  0  0
    9.6794  -16.9380   23.3455 C   0  0  0  0  0  0  0  0  0  0  0  0
   10.6630  -16.5808   24.0397 O   0  0  0  0  0  0  0  0  0  0  0  0
    9.3849  -18.3260   23.3511 N   0  0  0  0  0  0  0  0  0  0  0  0
    9.5924  -19.1441   24.5535 C   0  0  1  0  0  0  0  0  0  0  0  0
    8.7268  -18.5798   25.6297 C   0  0  0  0  0  0  0  0  0  0  0  0
    8.6838  -19.3784   26.8519 C   0  0  0  0  0  0  0  0  0  0  0  0
    7.6011  -20.0819   27.3132 C   0  0  0  0  0  0  0  0  0  0  0  0
    7.9718  -20.6755   28.4584 N   0  0  0  0  0  0  0  0  0  0  0  0
    9.2489  -20.3511   28.7035 C   0  0  0  0  0  0  0  0  0  0  0  0
    9.6812  -19.5566   27.7171 N   0  0  0  0  0  0  0  0  0  0  0  0
    9.3042  -20.5722   24.2663 C   0  0  0  0  0  0  0  0  0  0  0  0
    8.4955  -20.8786   23.3542 O   0  0  0  0  0  0  0  0  0  0  0  0
    9.8924  -21.6158   24.9660 O   0  0  0  0  0  0  0  0  0  0  0  0
  2  1  1  1
  2  3  1  0
  4  2  1  0
  5  4  1  0
  5  6  1  6
  7  8  2  0
  7  5  1  0
  9  7  1  0
 10 11  1  6
 10  9  1  0
 11 12  1  0
 12 13  2  0
 12 16  1  0
 13 14  1  0
 14 15  1  0
 16 15  2  0
 17 10  1  0
 18 17  2  0
 19 17  1  0
 20 19  1  0
 21 22  1  0
 20 21  1  1
 22 23  2  0
 23 24  1  0
 25 24  1  0
 26 22  1  0
 26 25  2  0
 27 20  1  0
 27 29  1  0
 28 27  2  0
M  END
$$$$
