LHH.pdb
     RDKit          3D

 29 30  0  0  1  0  0  0  0  0999 V2000
    7.4036  -12.1132   19.5471 C   0  0  0  0  0  0  0  0  0  0  0  0
    8.5538  -13.0308   19.1851 C   0  0  1  0  0  0  0  0  0  0  0  0
    9.8835  -12.3573   19.3116 C   0  0  0  0  0  0  0  0  0  0  0  0
    8.4723  -14.3394   19.9011 C   0  0  0  0  0  0  0  0  0  0  0  0
    9.6428  -15.2333   19.6883 C   0  0  2  0  0  0  0  0  0  0  0  0
    9.7548  -15.7225   18.3332 N   0  0  0  0  0  0  0  0  0  0  0  0
    9.5173  -16.3754   20.6566 C   0  0  0  0  0  0  0  0  0  0  0  0
    9.1178  -17.4717   20.1873 O   0  0  0  0  0  0  0  0  0  0  0  0
    9.8278  -16.2451   22.0296 N   0  0  0  0  0  0  0  0  0  0  0  0
   10.1181  -17.4224   22.8634 C   0  0  1  0  0  0  0  0  0  0  0  0
   11.3205  -18.1478   22.3437 C   0  0  0  0  0  0  0  0  0  0  0  0
   10.9399  -19.1582   21.3532 C   0  0  0  0  0  0  0  0  0  0  0  0
   10.0642  -20.1976   21.5093 C   0  0  0  0  0  0  0  0  0  0  0  0
   10.0465  -20.8721   20.3595 N   0  0  0  0  0  0  0  0  0  0  0  0
   10.8736  -20.2964   19.4966 C   0  0  0  0  0  0  0  0  0  0  0  0
   11.4368  -19.2406   20.0797 N   0  0  0  0  0  0  0  0  0  0  0  0
   10.3406  -16.9560   24.2374 C   0  0  0  0  0  0  0  0  0  0  0  0
   11.3012  -16.2280   24.5900 O   0  0  0  0  0  0  0  0  0  0  0  0
    9.4342  -17.3301   25.2628 N   0  0  0  0  0  0  0  0  0  0  0  0
    9.6389  -16.9039   26.6537 C   0  0  1  0  0  0  0  0  0  0  0  0
    8.2951  -16.6072   27.2300 C   0  0  0  0  0  0  0  0  0  0  0  0
    7.6043  -15.4823   26.6050 C   0  0  0  0  0  0  0  0  0  0  0  0
    8.2040  -14.3915   26.0302 C   0  0  0  0  0  0  0  0  0  0  0  0
    7.2252  -13.5941   25.5750 N   0  0  0  0  0  0  0  0  0  0  0  0
    6.0493  -14.1716   25.8582 C   0  0  0  0  0  0  0  0  0  0  0  0
    6.2861  -15.3278   26.4891 N   0  0  0  0  0  0  0  0  0  0  0  0
   10.3786  -17.9442   27.4124 C   0  0  0  0  0  0  0  0  0  0  0  0
   10.6015  -19.0646   26.8880 O   0  0  0  0  0  0  0  0  0  0  0  0
   10.8505  -17.7450   28.7017 O   0  0  0  0  0  0  0  0  0  0  0  0
  2  1  1  1
  2  3  1  0
  4  2  1  0
  5  4  1  0
  5  6  1  6
  7  8  2  0
  7  5  1  0
  9  7  1  0
 10 11  1  6
 10  9  1  0
 11 12  1  0
 12 13  2  0
 12 16  1  0
 13 14  1  0
 14 15  1  0
 16 15  2  0
 17 10  1  0
 18 17  2  0
 19 17  1  0
 20 19  1  0
 21 22  1  0
 20 21  1  1
 22 23  2  0
 23 24  1  0
 25 24  1  0
 26 22  1  0
 26 25  2  0
 27 20  1  0
 27 29  1  0
 28 27  2  0
M  END
$$$$
