LHH.pdb
     RDKit          3D

 29 30  0  0  1  0  0  0  0  0999 V2000
    6.5571  -11.5182   26.9909 C   0  0  0  0  0  0  0  0  0  0  0  0
    6.5298  -12.1451   25.6117 C   0  0  1  0  0  0  0  0  0  0  0  0
    6.8371  -11.1589   24.5297 C   0  0  0  0  0  0  0  0  0  0  0  0
    7.3570  -13.3873   25.5453 C   0  0  0  0  0  0  0  0  0  0  0  0
    7.5405  -13.9341   24.1736 C   0  0  2  0  0  0  0  0  0  0  0  0
    6.2974  -14.1548   23.4707 N   0  0  0  0  0  0  0  0  0  0  0  0
    8.3136  -15.2162   24.3010 C   0  0  0  0  0  0  0  0  0  0  0  0
    8.1680  -15.8586   25.3725 O   0  0  0  0  0  0  0  0  0  0  0  0
    9.1666  -15.6939   23.2800 N   0  0  0  0  0  0  0  0  0  0  0  0
    9.8588  -16.9867   23.4038 C   0  0  1  0  0  0  0  0  0  0  0  0
   10.5105  -17.3573   22.1078 C   0  0  0  0  0  0  0  0  0  0  0  0
   11.0333  -18.7254   22.1522 C   0  0  0  0  0  0  0  0  0  0  0  0
   10.9904  -19.6060   23.1982 C   0  0  0  0  0  0  0  0  0  0  0  0
   11.6074  -20.7187   22.8002 N   0  0  0  0  0  0  0  0  0  0  0  0
   12.0316  -20.5666   21.5523 C   0  0  0  0  0  0  0  0  0  0  0  0
   11.6930  -19.3511   21.1281 N   0  0  0  0  0  0  0  0  0  0  0  0
   10.8550  -16.8621   24.4749 C   0  0  0  0  0  0  0  0  0  0  0  0
   11.6507  -15.8976   24.5915 O   0  0  0  0  0  0  0  0  0  0  0  0
   10.9574  -17.8764   25.4618 N   0  0  0  0  0  0  0  0  0  0  0  0
   11.9230  -17.7722   26.5640 C   0  0  1  0  0  0  0  0  0  0  0  0
   11.1417  -17.6404   27.8282 C   0  0  0  0  0  0  0  0  0  0  0  0
   10.5732  -16.3138   28.0519 C   0  0  0  0  0  0  0  0  0  0  0  0
   10.8209  -15.1967   27.2965 C   0  0  0  0  0  0  0  0  0  0  0  0
   10.1098  -14.1910   27.8297 N   0  0  0  0  0  0  0  0  0  0  0  0
    9.4384  -14.6680   28.8871 C   0  0  0  0  0  0  0  0  0  0  0  0
    9.7250  -15.9685   29.0196 N   0  0  0  0  0  0  0  0  0  0  0  0
   12.8371  -18.9425   26.5663 C   0  0  0  0  0  0  0  0  0  0  0  0
   12.5765  -19.9443   25.8533 O   0  0  0  0  0  0  0  0  0  0  0  0
   13.9934  -18.9947   27.3310 O   0  0  0  0  0  0  0  0  0  0  0  0
  2  1  1  1
  2  3  1  0
  4  2  1  0
  5  4  1  0
  5  6  1  1
  7  8  2  0
  7  5  1  0
  9  7  1  0
 10 11  1  6
 10  9  1  0
 11 12  1  0
 12 13  2  0
 12 16  1  0
 13 14  1  0
 14 15  1  0
 16 15  2  0
 17 10  1  0
 18 17  2  0
 19 17  1  0
 20 19  1  0
 21 22  1  0
 20 21  1  1
 22 23  2  0
 23 24  1  0
 25 24  1  0
 26 22  1  0
 26 25  2  0
 27 20  1  0
 27 29  1  0
 28 27  2  0
M  END
$$$$
