IHY.pdb
     RDKit          3D

 31 32  0  0  1  0  0  0  0  0999 V2000
   27.3446  -13.9652  -15.6983 C   0  0  0  0  0  0  0  0  0  0  0  0
   26.5279  -15.0557  -16.3019 C   0  0  0  0  0  0  0  0  0  0  0  0
   27.1939  -16.4037  -16.3352 C   0  0  2  0  0  0  0  0  0  0  0  0
   28.4221  -16.2764  -17.2068 C   0  0  0  0  0  0  0  0  0  0  0  0
   26.2465  -17.4512  -16.8104 C   0  0  2  0  0  0  0  0  0  0  0  0
   25.8702  -17.1542  -18.1778 N   0  0  0  0  0  0  0  0  0  0  0  0
   25.0580  -17.5959  -15.9485 C   0  0  0  0  0  0  0  0  0  0  0  0
   25.0880  -17.9206  -14.7516 O   0  0  0  0  0  0  0  0  0  0  0  0
   23.7590  -17.3513  -16.5014 N   0  0  0  0  0  0  0  0  0  0  0  0
   22.5731  -17.3754  -15.6907 C   0  0  1  0  0  0  0  0  0  0  0  0
   21.6103  -16.2928  -15.8508 C   0  0  0  0  0  0  0  0  0  0  0  0
   20.4122  -16.2359  -15.0320 C   0  0  0  0  0  0  0  0  0  0  0  0
   19.9132  -16.9750  -14.0087 C   0  0  0  0  0  0  0  0  0  0  0  0
   18.7487  -16.4609  -13.5956 N   0  0  0  0  0  0  0  0  0  0  0  0
   18.5209  -15.3902  -14.3699 C   0  0  0  0  0  0  0  0  0  0  0  0
   19.5034  -15.2252  -15.2463 N   0  0  0  0  0  0  0  0  0  0  0  0
   21.9772  -18.7447  -15.7265 C   0  0  0  0  0  0  0  0  0  0  0  0
   22.0074  -19.3251  -16.8597 O   0  0  0  0  0  0  0  0  0  0  0  0
   19.9353  -19.1743   -8.6417 O   0  0  0  0  0  0  0  0  0  0  0  0
   20.2687  -19.7750   -9.8522 C   0  0  0  0  0  0  0  0  0  0  0  0
   19.4304  -20.6423  -10.5062 C   0  0  0  0  0  0  0  0  0  0  0  0
   19.7590  -21.2339  -11.6985 C   0  0  0  0  0  0  0  0  0  0  0  0
   20.9713  -20.9721  -12.2953 C   0  0  0  0  0  0  0  0  0  0  0  0
   21.3955  -21.5774  -13.5690 C   0  0  0  0  0  0  0  0  0  0  0  0
   20.9187  -20.7244  -14.7153 C   0  0  2  0  0  0  0  0  0  0  0  0
   21.4158  -19.3699  -14.5996 N   0  0  0  0  0  0  0  0  0  0  0  0
   19.4414  -20.6623  -14.7750 C   0  0  0  0  0  0  0  0  0  0  0  0
   18.7893  -19.5125  -14.2849 O   0  0  0  0  0  0  0  0  0  0  0  0
   21.8283  -20.0894  -11.6331 C   0  0  0  0  0  0  0  0  0  0  0  0
   21.4831  -19.5067  -10.4413 C   0  0  0  0  0  0  0  0  0  0  0  0
   18.6933  -21.5579  -15.2316 O   0  0  0  0  0  0  0  0  0  0  0  0
  2  1  1  0
  2  3  1  0
  3  4  1  6
  5  3  1  0
  5  6  1  6
  7  8  2  0
  7  5  1  0
  9  7  1  0
 10  9  1  0
 10 11  1  6
 12 11  1  0
 13 12  2  0
 14 15  1  0
 14 13  1  0
 15 16  2  0
 16 12  1  0
 17 10  1  0
 17 18  2  0
 19 20  1  0
 20 21  2  0
 21 22  1  0
 23 24  1  0
 23 22  2  0
 25 26  1  0
 25 24  1  1
 26 17  1  0
 27 25  1  0
 28 27  1  0
 29 23  1  0
 30 29  2  0
 30 20  1  0
 31 27  2  0
M  END
$$$$
