IHY.pdb
     RDKit          3D

 31 32  0  0  1  0  0  0  0  0999 V2000
   15.2358   -9.7545  -18.5242 C   0  0  0  0  0  0  0  0  0  0  0  0
   16.3801  -10.7092  -18.5294 C   0  0  0  0  0  0  0  0  0  0  0  0
   17.5217  -10.3370  -17.6239 C   0  0  2  0  0  0  0  0  0  0  0  0
   18.0344   -8.9898  -18.0784 C   0  0  0  0  0  0  0  0  0  0  0  0
   18.5713  -11.3947  -17.6326 C   0  0  2  0  0  0  0  0  0  0  0  0
   17.9788  -12.6436  -17.1982 N   0  0  0  0  0  0  0  0  0  0  0  0
   19.7514  -11.0509  -16.8167 C   0  0  0  0  0  0  0  0  0  0  0  0
   19.8107  -11.1518  -15.5818 O   0  0  0  0  0  0  0  0  0  0  0  0
   20.9317  -10.5619  -17.4652 N   0  0  0  0  0  0  0  0  0  0  0  0
   22.0734  -10.1083  -16.7203 C   0  0  1  0  0  0  0  0  0  0  0  0
   23.3706  -10.6991  -17.0252 C   0  0  0  0  0  0  0  0  0  0  0  0
   24.5674  -10.2678  -16.3248 C   0  0  0  0  0  0  0  0  0  0  0  0
   24.8267   -9.4050  -15.3095 C   0  0  0  0  0  0  0  0  0  0  0  0
   26.1368   -9.3970  -15.0364 N   0  0  0  0  0  0  0  0  0  0  0  0
   26.6987  -10.2645  -15.8906 C   0  0  0  0  0  0  0  0  0  0  0  0
   25.7819  -10.8074  -16.6814 N   0  0  0  0  0  0  0  0  0  0  0  0
   22.0694   -8.6155  -16.6690 C   0  0  0  0  0  0  0  0  0  0  0  0
   22.0572   -8.0291  -17.7994 O   0  0  0  0  0  0  0  0  0  0  0  0
   16.7299   -5.4745  -18.7183 O   0  0  0  0  0  0  0  0  0  0  0  0
   17.7223   -5.5792  -17.7481 C   0  0  0  0  0  0  0  0  0  0  0  0
   17.4437   -5.7882  -16.4208 C   0  0  0  0  0  0  0  0  0  0  0  0
   18.4214   -5.8913  -15.4652 C   0  0  0  0  0  0  0  0  0  0  0  0
   19.7490   -5.7859  -15.8127 C   0  0  0  0  0  0  0  0  0  0  0  0
   20.8512   -5.8770  -14.8404 C   0  0  0  0  0  0  0  0  0  0  0  0
   22.0739   -6.4396  -15.5166 C   0  0  2  0  0  0  0  0  0  0  0  0
   22.0782   -7.8863  -15.4672 N   0  0  0  0  0  0  0  0  0  0  0  0
   23.3213   -5.9599  -14.8811 C   0  0  0  0  0  0  0  0  0  0  0  0
   24.2465   -6.9082  -14.3991 O   0  0  0  0  0  0  0  0  0  0  0  0
   20.0376   -5.5732  -17.1631 C   0  0  0  0  0  0  0  0  0  0  0  0
   19.0470   -5.4728  -18.1054 C   0  0  0  0  0  0  0  0  0  0  0  0
   23.6436   -4.7591  -14.7257 O   0  0  0  0  0  0  0  0  0  0  0  0
  2  1  1  0
  2  3  1  0
  3  4  1  6
  5  3  1  0
  5  6  1  1
  7  8  2  0
  7  5  1  0
  9  7  1  0
 10  9  1  0
 10 11  1  6
 12 11  1  0
 13 12  2  0
 14 15  1  0
 14 13  1  0
 15 16  2  0
 16 12  1  0
 17 10  1  0
 17 18  2  0
 19 20  1  0
 20 21  2  0
 21 22  1  0
 23 24  1  0
 23 22  2  0
 25 26  1  0
 25 24  1  1
 26 17  1  0
 27 25  1  0
 28 27  1  0
 29 23  1  0
 30 29  2  0
 30 20  1  0
 31 27  2  0
M  END
$$$$
