IHY.pdb
     RDKit          3D

 31 32  0  0  1  0  0  0  0  0999 V2000
   28.7930  -21.4863  -10.0525 C   0  0  0  0  0  0  0  0  0  0  0  0
   28.8502  -21.2283  -11.5191 C   0  0  0  0  0  0  0  0  0  0  0  0
   27.6001  -20.6359  -12.1089 C   0  0  2  0  0  0  0  0  0  0  0  0
   26.4593  -21.5687  -11.7728 C   0  0  0  0  0  0  0  0  0  0  0  0
   27.7596  -20.4123  -13.5736 C   0  0  2  0  0  0  0  0  0  0  0  0
   28.9104  -19.5595  -13.7928 N   0  0  0  0  0  0  0  0  0  0  0  0
   26.5522  -19.8552  -14.2126 C   0  0  0  0  0  0  0  0  0  0  0  0
   26.1626  -18.6842  -14.0877 O   0  0  0  0  0  0  0  0  0  0  0  0
   25.7480  -20.7002  -15.0446 N   0  0  0  0  0  0  0  0  0  0  0  0
   24.5411  -20.2272  -15.6640 C   0  0  1  0  0  0  0  0  0  0  0  0
   24.3003  -20.5817  -17.0572 C   0  0  0  0  0  0  0  0  0  0  0  0
   23.0964  -20.1409  -17.7394 C   0  0  0  0  0  0  0  0  0  0  0  0
   22.0230  -19.3832  -17.3985 C   0  0  0  0  0  0  0  0  0  0  0  0
   21.1886  -19.2737  -18.4390 N   0  0  0  0  0  0  0  0  0  0  0  0
   21.7490  -19.9704  -19.4383 C   0  0  0  0  0  0  0  0  0  0  0  0
   22.8997  -20.5061  -19.0513 N   0  0  0  0  0  0  0  0  0  0  0  0
   23.3853  -20.4797  -14.7519 C   0  0  0  0  0  0  0  0  0  0  0  0
   23.3574  -21.6318  -14.2101 O   0  0  0  0  0  0  0  0  0  0  0  0
   16.2993  -19.9983   -9.7003 O   0  0  0  0  0  0  0  0  0  0  0  0
   17.4286  -19.6758  -10.4472 C   0  0  0  0  0  0  0  0  0  0  0  0
   18.6997  -19.7335   -9.9334 C   0  0  0  0  0  0  0  0  0  0  0  0
   19.8120  -19.4158  -10.6692 C   0  0  0  0  0  0  0  0  0  0  0  0
   19.6891  -19.0177  -11.9811 C   0  0  0  0  0  0  0  0  0  0  0  0
   20.8368  -18.6526  -12.8284 C   0  0  0  0  0  0  0  0  0  0  0  0
   21.3003  -19.8623  -13.5969 C   0  0  2  0  0  0  0  0  0  0  0  0
   22.3852  -19.5261  -14.4943 N   0  0  0  0  0  0  0  0  0  0  0  0
   20.2086  -20.4502  -14.4046 C   0  0  0  0  0  0  0  0  0  0  0  0
   19.6058  -21.6462  -13.9644 O   0  0  0  0  0  0  0  0  0  0  0  0
   18.3967  -18.9576  -12.5086 C   0  0  0  0  0  0  0  0  0  0  0  0
   17.2956  -19.2791  -11.7582 C   0  0  0  0  0  0  0  0  0  0  0  0
   19.7556  -19.9744  -15.4717 O   0  0  0  0  0  0  0  0  0  0  0  0
  2  1  1  0
  2  3  1  0
  3  4  1  6
  5  3  1  0
  5  6  1  1
  7  8  2  0
  7  5  1  0
  9  7  1  0
 10  9  1  0
 10 11  1  6
 12 11  1  0
 13 12  2  0
 14 15  1  0
 14 13  1  0
 15 16  2  0
 16 12  1  0
 17 10  1  0
 17 18  2  0
 19 20  1  0
 20 21  2  0
 21 22  1  0
 23 24  1  0
 23 22  2  0
 25 26  1  0
 25 24  1  6
 26 17  1  0
 27 25  1  0
 28 27  1  0
 29 23  1  0
 30 29  2  0
 30 20  1  0
 31 27  2  0
M  END
$$$$
