IHY.pdb
     RDKit          3D

 31 32  0  0  1  0  0  0  0  0999 V2000
   23.5813  -16.3280  -19.3530 C   0  0  0  0  0  0  0  0  0  0  0  0
   24.6144  -17.0467  -18.5549 C   0  0  0  0  0  0  0  0  0  0  0  0
   24.3465  -18.5110  -18.3411 C   0  0  2  0  0  0  0  0  0  0  0  0
   22.9981  -18.6272  -17.6683 C   0  0  0  0  0  0  0  0  0  0  0  0
   25.4463  -19.1420  -17.5581 C   0  0  2  0  0  0  0  0  0  0  0  0
   26.7033  -18.8915  -18.2339 N   0  0  0  0  0  0  0  0  0  0  0  0
   25.2426  -20.5846  -17.3261 C   0  0  0  0  0  0  0  0  0  0  0  0
   25.1242  -21.4349  -18.2216 O   0  0  0  0  0  0  0  0  0  0  0  0
   25.1714  -21.0736  -15.9812 N   0  0  0  0  0  0  0  0  0  0  0  0
   24.8533  -22.4437  -15.6885 C   0  0  1  0  0  0  0  0  0  0  0  0
   25.9378  -23.3278  -15.2798 C   0  0  0  0  0  0  0  0  0  0  0  0
   27.1795  -23.3782  -16.0312 C   0  0  0  0  0  0  0  0  0  0  0  0
   27.6627  -22.7443  -17.1300 C   0  0  0  0  0  0  0  0  0  0  0  0
   28.9054  -23.1649  -17.3939 N   0  0  0  0  0  0  0  0  0  0  0  0
   29.1989  -24.0699  -16.4490 C   0  0  0  0  0  0  0  0  0  0  0  0
   28.1812  -24.2229  -15.6113 N   0  0  0  0  0  0  0  0  0  0  0  0
   23.6477  -22.4943  -14.8080 C   0  0  0  0  0  0  0  0  0  0  0  0
   23.5478  -21.5476  -13.9620 O   0  0  0  0  0  0  0  0  0  0  0  0
   15.7687  -22.6994  -11.4813 O   0  0  0  0  0  0  0  0  0  0  0  0
   16.9405  -22.6196  -12.2281 C   0  0  0  0  0  0  0  0  0  0  0  0
   17.0676  -23.1840  -13.4724 C   0  0  0  0  0  0  0  0  0  0  0  0
   18.2219  -23.1054  -14.2079 C   0  0  0  0  0  0  0  0  0  0  0  0
   19.3205  -22.4414  -13.7112 C   0  0  0  0  0  0  0  0  0  0  0  0
   20.5949  -22.3245  -14.4396 C   0  0  0  0  0  0  0  0  0  0  0  0
   21.5141  -23.4451  -14.0293 C   0  0  2  0  0  0  0  0  0  0  0  0
   22.6768  -23.5076  -14.8893 N   0  0  0  0  0  0  0  0  0  0  0  0
   20.8360  -24.7592  -14.0864 C   0  0  0  0  0  0  0  0  0  0  0  0
   20.9071  -25.5093  -15.2779 O   0  0  0  0  0  0  0  0  0  0  0  0
   19.1958  -21.8650  -12.4446 C   0  0  0  0  0  0  0  0  0  0  0  0
   18.0335  -21.9533  -11.7231 C   0  0  0  0  0  0  0  0  0  0  0  0
   20.1866  -25.2841  -13.1521 O   0  0  0  0  0  0  0  0  0  0  0  0
  2  1  1  0
  2  3  1  0
  3  4  1  1
  5  3  1  0
  5  6  1  6
  7  8  2  0
  7  5  1  0
  9  7  1  0
 10  9  1  0
 10 11  1  1
 12 11  1  0
 13 12  2  0
 14 15  1  0
 14 13  1  0
 15 16  2  0
 16 12  1  0
 17 10  1  0
 17 18  2  0
 19 20  1  0
 20 21  2  0
 21 22  1  0
 23 24  1  0
 23 22  2  0
 25 26  1  0
 25 24  1  6
 26 17  1  0
 27 25  1  0
 28 27  1  0
 29 23  1  0
 30 29  2  0
 30 20  1  0
 31 27  2  0
M  END
$$$$
