IHY.pdb
     RDKit          3D

 31 32  0  0  1  0  0  0  0  0999 V2000
   33.7828  -32.4156   -7.8591 C   0  0  0  0  0  0  0  0  0  0  0  0
   32.9569  -33.5852   -7.4461 C   0  0  0  0  0  0  0  0  0  0  0  0
   33.6557  -34.5718   -6.5516 C   0  0  2  0  0  0  0  0  0  0  0  0
   34.7735  -35.1941   -7.3564 C   0  0  0  0  0  0  0  0  0  0  0  0
   32.6932  -35.5752   -6.0156 C   0  0  2  0  0  0  0  0  0  0  0  0
   32.0826  -36.2762   -7.1270 N   0  0  0  0  0  0  0  0  0  0  0  0
   31.6715  -34.9865   -5.1290 C   0  0  0  0  0  0  0  0  0  0  0  0
   31.9164  -34.2721   -4.1449 O   0  0  0  0  0  0  0  0  0  0  0  0
   30.2862  -35.2378   -5.3947 N   0  0  0  0  0  0  0  0  0  0  0  0
   29.2452  -34.7027   -4.5615 C   0  0  1  0  0  0  0  0  0  0  0  0
   27.9340  -34.4812   -5.1586 C   0  0  0  0  0  0  0  0  0  0  0  0
   27.7819  -33.6276   -6.3235 C   0  0  0  0  0  0  0  0  0  0  0  0
   28.6333  -32.9461   -7.1317 C   0  0  0  0  0  0  0  0  0  0  0  0
   27.9488  -32.3160   -8.0936 N   0  0  0  0  0  0  0  0  0  0  0  0
   26.6575  -32.6088   -7.8819 C   0  0  0  0  0  0  0  0  0  0  0  0
   26.5208  -33.3972   -6.8234 N   0  0  0  0  0  0  0  0  0  0  0  0
   29.2183  -35.4450   -3.2655 C   0  0  0  0  0  0  0  0  0  0  0  0
   29.2056  -36.7148   -3.3624 O   0  0  0  0  0  0  0  0  0  0  0  0
   35.1421  -37.1786   -1.9148 O   0  0  0  0  0  0  0  0  0  0  0  0
   33.9324  -36.7323   -1.3907 C   0  0  0  0  0  0  0  0  0  0  0  0
   33.1914  -37.4698   -0.5020 C   0  0  0  0  0  0  0  0  0  0  0  0
   31.9998  -37.0302    0.0143 C   0  0  0  0  0  0  0  0  0  0  0  0
   31.4930  -35.8035   -0.3504 C   0  0  0  0  0  0  0  0  0  0  0  0
   30.2168  -35.2708    0.1555 C   0  0  0  0  0  0  0  0  0  0  0  0
   29.1118  -35.6082   -0.8110 C   0  0  2  0  0  0  0  0  0  0  0  0
   29.2074  -34.8071   -2.0129 N   0  0  0  0  0  0  0  0  0  0  0  0
   27.7756  -35.3791   -0.2178 C   0  0  0  0  0  0  0  0  0  0  0  0
   27.4432  -36.0386    0.9831 O   0  0  0  0  0  0  0  0  0  0  0  0
   32.2442  -35.0488   -1.2550 C   0  0  0  0  0  0  0  0  0  0  0  0
   33.4340  -35.5042   -1.7610 C   0  0  0  0  0  0  0  0  0  0  0  0
   26.8864  -34.6351   -0.6930 O   0  0  0  0  0  0  0  0  0  0  0  0
  2  1  1  0
  2  3  1  0
  3  4  1  6
  5  3  1  0
  5  6  1  6
  7  8  2  0
  7  5  1  0
  9  7  1  0
 10  9  1  0
 10 11  1  6
 12 11  1  0
 13 12  2  0
 14 15  1  0
 14 13  1  0
 15 16  2  0
 16 12  1  0
 17 10  1  0
 17 18  2  0
 19 20  1  0
 20 21  2  0
 21 22  1  0
 23 24  1  0
 23 22  2  0
 25 26  1  0
 25 24  1  1
 26 17  1  0
 27 25  1  0
 28 27  1  0
 29 23  1  0
 30 29  2  0
 30 20  1  0
 31 27  2  0
M  END
$$$$
