IHY.pdb
     RDKit          3D

 31 32  0  0  1  0  0  0  0  0999 V2000
   24.2706  -21.5331  -18.0075 C   0  0  0  0  0  0  0  0  0  0  0  0
   23.7696  -22.4491  -16.9442 C   0  0  0  0  0  0  0  0  0  0  0  0
   24.5687  -23.7104  -16.7642 C   0  0  2  0  0  0  0  0  0  0  0  0
   23.7658  -24.8403  -17.3667 C   0  0  0  0  0  0  0  0  0  0  0  0
   24.8975  -23.9288  -15.3273 C   0  0  2  0  0  0  0  0  0  0  0  0
   23.6637  -24.1013  -14.5874 N   0  0  0  0  0  0  0  0  0  0  0  0
   25.7217  -22.8511  -14.7480 C   0  0  0  0  0  0  0  0  0  0  0  0
   26.8485  -22.5273  -15.1535 O   0  0  0  0  0  0  0  0  0  0  0  0
   25.2149  -22.1040  -13.6355 N   0  0  0  0  0  0  0  0  0  0  0  0
   25.9470  -21.0097  -13.0604 C   0  0  1  0  0  0  0  0  0  0  0  0
   25.5944  -19.6565  -13.4719 C   0  0  0  0  0  0  0  0  0  0  0  0
   26.3065  -18.9986  -14.5531 C   0  0  0  0  0  0  0  0  0  0  0  0
   27.3180  -19.3476  -15.3882 C   0  0  0  0  0  0  0  0  0  0  0  0
   27.5836  -18.3442  -16.2330 N   0  0  0  0  0  0  0  0  0  0  0  0
   26.7277  -17.3604  -15.9204 C   0  0  0  0  0  0  0  0  0  0  0  0
   25.9435  -17.7210  -14.9126 N   0  0  0  0  0  0  0  0  0  0  0  0
   26.0443  -21.2022  -11.5823 C   0  0  0  0  0  0  0  0  0  0  0  0
   25.0411  -21.7658  -11.0367 O   0  0  0  0  0  0  0  0  0  0  0  0
   27.8341  -20.4421   -3.1039 O   0  0  0  0  0  0  0  0  0  0  0  0
   27.9393  -20.3658   -4.4897 C   0  0  0  0  0  0  0  0  0  0  0  0
   27.4309  -19.3186   -5.2161 C   0  0  0  0  0  0  0  0  0  0  0  0
   27.5346  -19.2435   -6.5811 C   0  0  0  0  0  0  0  0  0  0  0  0
   28.1677  -20.2408   -7.2875 C   0  0  0  0  0  0  0  0  0  0  0  0
   28.3085  -20.2321   -8.7533 C   0  0  0  0  0  0  0  0  0  0  0  0
   27.0899  -20.8576   -9.3799 C   0  0  2  0  0  0  0  0  0  0  0  0
   27.1568  -20.7970  -10.8246 N   0  0  0  0  0  0  0  0  0  0  0  0
   25.8453  -20.1796   -8.9543 C   0  0  0  0  0  0  0  0  0  0  0  0
   25.4794  -18.9726   -9.5843 O   0  0  0  0  0  0  0  0  0  0  0  0
   28.6871  -21.3092   -6.5520 C   0  0  0  0  0  0  0  0  0  0  0  0
   28.5744  -21.3678   -5.1871 C   0  0  0  0  0  0  0  0  0  0  0  0
   25.0636  -20.5859   -8.0632 O   0  0  0  0  0  0  0  0  0  0  0  0
  2  1  1  0
  2  3  1  0
  3  4  1  1
  5  3  1  0
  5  6  1  1
  7  8  2  0
  7  5  1  0
  9  7  1  0
 10  9  1  0
 10 11  1  1
 12 11  1  0
 13 12  2  0
 14 15  1  0
 14 13  1  0
 15 16  2  0
 16 12  1  0
 17 10  1  0
 17 18  2  0
 19 20  1  0
 20 21  2  0
 21 22  1  0
 23 24  1  0
 23 22  2  0
 25 26  1  0
 25 24  1  1
 26 17  1  0
 27 25  1  0
 28 27  1  0
 29 23  1  0
 30 29  2  0
 30 20  1  0
 31 27  2  0
M  END
$$$$
