IHY.pdb
     RDKit          3D

 31 32  0  0  1  0  0  0  0  0999 V2000
   23.1617  -39.3670  -12.4679 C   0  0  0  0  0  0  0  0  0  0  0  0
   22.3164  -38.1715  -12.1903 C   0  0  0  0  0  0  0  0  0  0  0  0
   22.9579  -37.1293  -11.3161 C   0  0  2  0  0  0  0  0  0  0  0  0
   23.4218  -37.8236  -10.0563 C   0  0  0  0  0  0  0  0  0  0  0  0
   22.0146  -36.0066  -11.0508 C   0  0  2  0  0  0  0  0  0  0  0  0
   21.6320  -35.4101  -12.3146 N   0  0  0  0  0  0  0  0  0  0  0  0
   22.5590  -34.9949  -10.1253 C   0  0  0  0  0  0  0  0  0  0  0  0
   23.4470  -34.1782  -10.4137 O   0  0  0  0  0  0  0  0  0  0  0  0
   22.0477  -34.9223   -8.7888 N   0  0  0  0  0  0  0  0  0  0  0  0
   22.5132  -33.9381   -7.8514 C   0  0  1  0  0  0  0  0  0  0  0  0
   21.5283  -33.2790   -7.0027 C   0  0  0  0  0  0  0  0  0  0  0  0
   20.4920  -32.4405   -7.5789 C   0  0  0  0  0  0  0  0  0  0  0  0
   20.1909  -32.0110   -8.8309 C   0  0  0  0  0  0  0  0  0  0  0  0
   19.0892  -31.2517   -8.8037 N   0  0  0  0  0  0  0  0  0  0  0  0
   18.7004  -31.2086   -7.5212 C   0  0  0  0  0  0  0  0  0  0  0  0
   19.5231  -31.9143   -6.7557 N   0  0  0  0  0  0  0  0  0  0  0  0
   23.7011  -34.4734   -7.1211 C   0  0  0  0  0  0  0  0  0  0  0  0
   23.7118  -35.7344   -6.9436 O   0  0  0  0  0  0  0  0  0  0  0  0
   31.4511  -35.8465   -3.3438 O   0  0  0  0  0  0  0  0  0  0  0  0
   30.3726  -35.2687   -4.0073 C   0  0  0  0  0  0  0  0  0  0  0  0
   29.6062  -35.9544   -4.9157 C   0  0  0  0  0  0  0  0  0  0  0  0
   28.5439  -35.3852   -5.5692 C   0  0  0  0  0  0  0  0  0  0  0  0
   28.2012  -34.0735   -5.3310 C   0  0  0  0  0  0  0  0  0  0  0  0
   27.0803  -33.3938   -6.0019 C   0  0  0  0  0  0  0  0  0  0  0  0
   25.8552  -34.2683   -5.9461 C   0  0  2  0  0  0  0  0  0  0  0  0
   24.7476  -33.6602   -6.6524 N   0  0  0  0  0  0  0  0  0  0  0  0
   25.4230  -34.5183   -4.5531 C   0  0  0  0  0  0  0  0  0  0  0  0
   25.5872  -35.8097   -4.0119 O   0  0  0  0  0  0  0  0  0  0  0  0
   28.9788  -33.3713   -4.4067 C   0  0  0  0  0  0  0  0  0  0  0  0
   30.0376  -33.9567   -3.7622 C   0  0  0  0  0  0  0  0  0  0  0  0
   24.9107  -33.6694   -3.7868 O   0  0  0  0  0  0  0  0  0  0  0  0
  2  1  1  0
  2  3  1  0
  3  4  1  1
  5  3  1  0
  5  6  1  6
  7  8  2  0
  7  5  1  0
  9  7  1  0
 10  9  1  0
 10 11  1  1
 12 11  1  0
 13 12  2  0
 14 15  1  0
 14 13  1  0
 15 16  2  0
 16 12  1  0
 17 10  1  0
 17 18  2  0
 19 20  1  0
 20 21  2  0
 21 22  1  0
 23 24  1  0
 23 22  2  0
 25 26  1  0
 25 24  1  1
 26 17  1  0
 27 25  1  0
 28 27  1  0
 29 23  1  0
 30 29  2  0
 30 20  1  0
 31 27  2  0
M  END
$$$$
