IHY.pdb
     RDKit          3D

 31 32  0  0  1  0  0  0  0  0999 V2000
   18.3267  -16.2195  -21.0206 C   0  0  0  0  0  0  0  0  0  0  0  0
   19.3632  -16.5528  -20.0032 C   0  0  0  0  0  0  0  0  0  0  0  0
   19.6560  -15.4594  -19.0130 C   0  0  2  0  0  0  0  0  0  0  0  0
   18.3553  -15.1188  -18.3226 C   0  0  0  0  0  0  0  0  0  0  0  0
   20.2834  -14.2880  -19.6874 C   0  0  2  0  0  0  0  0  0  0  0  0
   21.3687  -14.7578  -20.5246 N   0  0  0  0  0  0  0  0  0  0  0  0
   20.7459  -13.2519  -18.7445 C   0  0  0  0  0  0  0  0  0  0  0  0
   20.3125  -13.1007  -17.5921 O   0  0  0  0  0  0  0  0  0  0  0  0
   21.7688  -12.3373  -19.1568 N   0  0  0  0  0  0  0  0  0  0  0  0
   22.3047  -11.3468  -18.2647 C   0  0  1  0  0  0  0  0  0  0  0  0
   23.7446  -11.3346  -18.0381 C   0  0  0  0  0  0  0  0  0  0  0  0
   24.4252  -12.5063  -17.5157 C   0  0  0  0  0  0  0  0  0  0  0  0
   24.0317  -13.7304  -17.0807 C   0  0  0  0  0  0  0  0  0  0  0  0
   25.0971  -14.4523  -16.7137 N   0  0  0  0  0  0  0  0  0  0  0  0
   26.1652  -13.6691  -16.9230 C   0  0  0  0  0  0  0  0  0  0  0  0
   25.7967  -12.4894  -17.4060 N   0  0  0  0  0  0  0  0  0  0  0  0
   21.7185  -10.0135  -18.5963 C   0  0  0  0  0  0  0  0  0  0  0  0
   22.0354   -9.5449  -19.7373 O   0  0  0  0  0  0  0  0  0  0  0  0
   17.4156   -2.7470  -19.9861 O   0  0  0  0  0  0  0  0  0  0  0  0
   17.7902   -4.0381  -19.6256 C   0  0  0  0  0  0  0  0  0  0  0  0
   17.4236   -4.6120  -18.4343 C   0  0  0  0  0  0  0  0  0  0  0  0
   17.7926   -5.8837  -18.0792 C   0  0  0  0  0  0  0  0  0  0  0  0
   18.5630   -6.6476  -18.9263 C   0  0  0  0  0  0  0  0  0  0  0  0
   19.0044   -8.0160  -18.6082 C   0  0  0  0  0  0  0  0  0  0  0  0
   20.4205   -7.9819  -18.0959 C   0  0  2  0  0  0  0  0  0  0  0  0
   20.8728   -9.3058  -17.7245 N   0  0  0  0  0  0  0  0  0  0  0  0
   20.5535   -7.1073  -16.9097 C   0  0  0  0  0  0  0  0  0  0  0  0
   20.6623   -5.7147  -17.1010 O   0  0  0  0  0  0  0  0  0  0  0  0
   18.9386   -6.0675  -20.1406 C   0  0  0  0  0  0  0  0  0  0  0  0
   18.5603   -4.7943  -20.4794 C   0  0  0  0  0  0  0  0  0  0  0  0
   20.5796   -7.4956  -15.7186 O   0  0  0  0  0  0  0  0  0  0  0  0
  2  1  1  0
  2  3  1  0
  3  4  1  6
  5  3  1  0
  5  6  1  1
  7  8  2  0
  7  5  1  0
  9  7  1  0
 10  9  1  0
 10 11  1  6
 12 11  1  0
 13 12  2  0
 14 15  1  0
 14 13  1  0
 15 16  2  0
 16 12  1  0
 17 10  1  0
 17 18  2  0
 19 20  1  0
 20 21  2  0
 21 22  1  0
 23 24  1  0
 23 22  2  0
 25 26  1  0
 25 24  1  1
 26 17  1  0
 27 25  1  0
 28 27  1  0
 29 23  1  0
 30 29  2  0
 30 20  1  0
 31 27  2  0
M  END
$$$$
