IHY.pdb
     RDKit          3D

 31 32  0  0  1  0  0  0  0  0999 V2000
   27.0106  -18.6885  -18.1599 C   0  0  0  0  0  0  0  0  0  0  0  0
   27.9436  -18.5745  -17.0035 C   0  0  0  0  0  0  0  0  0  0  0  0
   27.2834  -18.3098  -15.6785 C   0  0  2  0  0  0  0  0  0  0  0  0
   27.8038  -16.9833  -15.1746 C   0  0  0  0  0  0  0  0  0  0  0  0
   27.5300  -19.4324  -14.7300 C   0  0  2  0  0  0  0  0  0  0  0  0
   27.2570  -20.6839  -15.4072 N   0  0  0  0  0  0  0  0  0  0  0  0
   26.7535  -19.3204  -13.4806 C   0  0  0  0  0  0  0  0  0  0  0  0
   26.6587  -18.2896  -12.7971 O   0  0  0  0  0  0  0  0  0  0  0  0
   26.0452  -20.4662  -12.9922 N   0  0  0  0  0  0  0  0  0  0  0  0
   25.1995  -20.3973  -11.8328 C   0  0  1  0  0  0  0  0  0  0  0  0
   23.8253  -20.8672  -11.9570 C   0  0  0  0  0  0  0  0  0  0  0  0
   22.9065  -20.2407  -12.8909 C   0  0  0  0  0  0  0  0  0  0  0  0
   22.9806  -19.1975  -13.7562 C   0  0  0  0  0  0  0  0  0  0  0  0
   21.8184  -19.0543  -14.4042 N   0  0  0  0  0  0  0  0  0  0  0  0
   21.0126  -20.0190  -13.9373 C   0  0  0  0  0  0  0  0  0  0  0  0
   21.6362  -20.7524  -13.0241 N   0  0  0  0  0  0  0  0  0  0  0  0
   25.9351  -20.9391  -10.6511 C   0  0  0  0  0  0  0  0  0  0  0  0
   26.5933  -22.0092  -10.8598 O   0  0  0  0  0  0  0  0  0  0  0  0
   28.7940  -18.9483   -2.7009 O   0  0  0  0  0  0  0  0  0  0  0  0
   28.5957  -19.3646   -4.0142 C   0  0  0  0  0  0  0  0  0  0  0  0
   28.8145  -20.6555   -4.4247 C   0  0  0  0  0  0  0  0  0  0  0  0
   28.6192  -21.0654   -5.7183 C   0  0  0  0  0  0  0  0  0  0  0  0
   28.1864  -20.1741   -6.6736 C   0  0  0  0  0  0  0  0  0  0  0  0
   27.9641  -20.5403   -8.0825 C   0  0  0  0  0  0  0  0  0  0  0  0
   26.5408  -20.9982   -8.2652 C   0  0  2  0  0  0  0  0  0  0  0  0
   25.9167  -20.3271   -9.3857 N   0  0  0  0  0  0  0  0  0  0  0  0
   25.7206  -20.7322   -7.0626 C   0  0  0  0  0  0  0  0  0  0  0  0
   25.8290  -21.6038   -5.9598 O   0  0  0  0  0  0  0  0  0  0  0  0
   27.9620  -18.8585   -6.2602 C   0  0  0  0  0  0  0  0  0  0  0  0
   28.1624  -18.4661   -4.9622 C   0  0  0  0  0  0  0  0  0  0  0  0
   24.9167  -19.7808   -6.9259 O   0  0  0  0  0  0  0  0  0  0  0  0
  2  1  1  0
  2  3  1  0
  3  4  1  1
  5  3  1  0
  5  6  1  6
  7  8  2  0
  7  5  1  0
  9  7  1  0
 10  9  1  0
 10 11  1  6
 12 11  1  0
 13 12  2  0
 14 15  1  0
 14 13  1  0
 15 16  2  0
 16 12  1  0
 17 10  1  0
 17 18  2  0
 19 20  1  0
 20 21  2  0
 21 22  1  0
 23 24  1  0
 23 22  2  0
 25 26  1  0
 25 24  1  1
 26 17  1  0
 27 25  1  0
 28 27  1  0
 29 23  1  0
 30 29  2  0
 30 20  1  0
 31 27  2  0
M  END
$$$$
