IHY.pdb
     RDKit          3D

 31 32  0  0  1  0  0  0  0  0999 V2000
   29.4904  -30.2994  -19.3373 C   0  0  0  0  0  0  0  0  0  0  0  0
   29.4502  -30.5506  -17.8690 C   0  0  0  0  0  0  0  0  0  0  0  0
   28.3893  -31.5168  -17.4189 C   0  0  2  0  0  0  0  0  0  0  0  0
   27.0510  -30.9154  -17.7821 C   0  0  0  0  0  0  0  0  0  0  0  0
   28.5223  -31.8097  -15.9638 C   0  0  2  0  0  0  0  0  0  0  0  0
   29.8995  -32.1615  -15.6827 N   0  0  0  0  0  0  0  0  0  0  0  0
   27.5964  -32.8576  -15.4936 C   0  0  0  0  0  0  0  0  0  0  0  0
   26.3652  -32.8319  -15.6428 O   0  0  0  0  0  0  0  0  0  0  0  0
   28.1236  -34.0020  -14.8114 N   0  0  0  0  0  0  0  0  0  0  0  0
   27.2679  -35.0032  -14.2374 C   0  0  1  0  0  0  0  0  0  0  0  0
   27.3736  -36.3670  -14.7410 C   0  0  0  0  0  0  0  0  0  0  0  0
   26.5713  -37.4347  -14.1706 C   0  0  0  0  0  0  0  0  0  0  0  0
   25.6716  -37.5230  -13.1581 C   0  0  0  0  0  0  0  0  0  0  0  0
   25.2046  -38.7737  -13.0659 N   0  0  0  0  0  0  0  0  0  0  0  0
   25.8201  -39.4712  -14.0317 C   0  0  0  0  0  0  0  0  0  0  0  0
   26.6505  -38.6952  -14.7166 N   0  0  0  0  0  0  0  0  0  0  0  0
   27.3019  -34.8883  -12.7484 C   0  0  0  0  0  0  0  0  0  0  0  0
   28.4594  -34.7456  -12.2369 O   0  0  0  0  0  0  0  0  0  0  0  0
   26.8335  -33.0366   -4.4333 O   0  0  0  0  0  0  0  0  0  0  0  0
   26.8081  -33.1530   -5.8200 C   0  0  0  0  0  0  0  0  0  0  0  0
   27.7107  -33.9156   -6.5175 C   0  0  0  0  0  0  0  0  0  0  0  0
   27.6856  -34.0303   -7.8834 C   0  0  0  0  0  0  0  0  0  0  0  0
   26.7307  -33.3676   -8.6206 C   0  0  0  0  0  0  0  0  0  0  0  0
   26.6483  -33.4363  -10.0893 C   0  0  0  0  0  0  0  0  0  0  0  0
   26.2817  -34.8360  -10.5081 C   0  0  2  0  0  0  0  0  0  0  0  0
   26.1483  -34.9321  -11.9463 N   0  0  0  0  0  0  0  0  0  0  0  0
   25.0034  -35.2721   -9.9034 C   0  0  0  0  0  0  0  0  0  0  0  0
   25.0274  -36.2759   -8.9137 O   0  0  0  0  0  0  0  0  0  0  0  0
   25.8093  -32.5899   -7.9147 C   0  0  0  0  0  0  0  0  0  0  0  0
   25.8492  -32.4869   -6.5484 C   0  0  0  0  0  0  0  0  0  0  0  0
   23.8703  -34.8231  -10.1942 O   0  0  0  0  0  0  0  0  0  0  0  0
  2  1  1  0
  2  3  1  0
  3  4  1  1
  5  3  1  0
  5  6  1  6
  7  8  2  0
  7  5  1  0
  9  7  1  0
 10  9  1  0
 10 11  1  1
 12 11  1  0
 13 12  2  0
 14 15  1  0
 14 13  1  0
 15 16  2  0
 16 12  1  0
 17 10  1  0
 17 18  2  0
 19 20  1  0
 20 21  2  0
 21 22  1  0
 23 24  1  0
 23 22  2  0
 25 26  1  0
 25 24  1  6
 26 17  1  0
 27 25  1  0
 28 27  1  0
 29 23  1  0
 30 29  2  0
 30 20  1  0
 31 27  2  0
M  END
$$$$
