FWT.pdb
     RDKit          3D

 33 35  0  0  1  0  0  0  0  0999 V2000
   26.0376  -20.6777  -19.5854 N   0  0  0  0  0  0  0  0  0  0  0  0
   24.9284  -21.2605  -18.8807 C   0  0  1  0  0  0  0  0  0  0  0  0
   25.2236  -22.7233  -18.6831 C   0  0  0  0  0  0  0  0  0  0  0  0
   24.7762  -23.5682  -19.7927 C   0  0  0  0  0  0  0  0  0  0  0  0
   23.4347  -23.8564  -19.9272 C   0  0  0  0  0  0  0  0  0  0  0  0
   22.9564  -24.6539  -20.9623 C   0  0  0  0  0  0  0  0  0  0  0  0
   23.8255  -25.1889  -21.9004 C   0  0  0  0  0  0  0  0  0  0  0  0
   25.1616  -24.9051  -21.7708 C   0  0  0  0  0  0  0  0  0  0  0  0
   25.6248  -24.1079  -20.7332 C   0  0  0  0  0  0  0  0  0  0  0  0
   24.8028  -20.6571  -17.5046 C   0  0  0  0  0  0  0  0  0  0  0  0
   25.8650  -20.2784  -16.9042 O   0  0  0  0  0  0  0  0  0  0  0  0
   23.5158  -20.5406  -16.9474 N   0  0  0  0  0  0  0  0  0  0  0  0
   23.1990  -19.9494  -15.6984 C   0  0  1  0  0  0  0  0  0  0  0  0
   22.0212  -19.0312  -15.6865 C   0  0  0  0  0  0  0  0  0  0  0  0
   22.3802  -17.7593  -16.3669 C   0  0  0  0  0  0  0  0  0  0  0  0
   22.9396  -16.6347  -15.7598 C   0  0  0  0  0  0  0  0  0  0  0  0
   23.1550  -15.6885  -16.6863 N   0  0  0  0  0  0  0  0  0  0  0  0
   22.7483  -16.1750  -17.8725 C   0  0  0  0  0  0  0  0  0  0  0  0
   22.7515  -15.5891  -19.1349 C   0  0  0  0  0  0  0  0  0  0  0  0
   22.2589  -16.3293  -20.1828 C   0  0  0  0  0  0  0  0  0  0  0  0
   21.7700  -17.6056  -20.0394 C   0  0  0  0  0  0  0  0  0  0  0  0
   21.7697  -18.1805  -18.7870 C   0  0  0  0  0  0  0  0  0  0  0  0
   22.2550  -17.4754  -17.7071 C   0  0  0  0  0  0  0  0  0  0  0  0
   23.2461  -20.8848  -14.5259 C   0  0  0  0  0  0  0  0  0  0  0  0
   22.6040  -21.9612  -14.4543 O   0  0  0  0  0  0  0  0  0  0  0  0
   25.7879  -19.8911  -11.2840 C   0  0  0  0  0  0  0  0  0  0  0  0
   25.4567  -21.3258  -11.6070 C   0  0  1  0  0  0  0  0  0  0  0  0
   25.6291  -22.1399  -10.5007 O   0  0  0  0  0  0  0  0  0  0  0  0
   24.0935  -21.4725  -12.2308 C   0  0  2  0  0  0  0  0  0  0  0  0
   24.0526  -20.5852  -13.3979 N   0  0  0  0  0  0  0  0  0  0  0  0
   23.0812  -21.0525  -11.2379 C   0  0  0  0  0  0  0  0  0  0  0  0
   22.4346  -19.9895  -11.3833 O   0  0  0  0  0  0  0  0  0  0  0  0
   22.8576  -21.8608  -10.1344 O   0  0  0  0  0  0  0  0  0  0  0  0
  2  1  1  1
  2  3  1  0
  3  4  1  0
  4  5  2  0
  5  6  1  0
  7  6  2  0
  8  7  1  0
  9  4  1  0
  9  8  2  0
 10 12  1  0
 10  2  1  0
 11 10  2  0
 13 12  1  0
 13 14  1  6
 15 23  1  0
 15 14  1  0
 16 15  2  0
 17 16  1  0
 17 18  1  0
 18 19  1  0
 18 23  2  0
 19 20  2  0
 20 21  1  0
 22 21  2  0
 23 22  1  0
 24 13  1  0
 25 24  2  0
 27 26  1  1
 27 28  1  0
 29 27  1  0
 29 30  1  6
 30 24  1  0
 31 33  1  0
 31 29  1  0
 32 31  2  0
M  END
$$$$
