FWT.pdb
     RDKit          3D

 33 35  0  0  1  0  0  0  0  0999 V2000
   29.7444  -26.8487  -16.0004 N   0  0  0  0  0  0  0  0  0  0  0  0
   29.0288  -26.5328  -17.2065 C   0  0  1  0  0  0  0  0  0  0  0  0
   28.3449  -27.7873  -17.6802 C   0  0  0  0  0  0  0  0  0  0  0  0
   29.2610  -28.7746  -18.2553 C   0  0  0  0  0  0  0  0  0  0  0  0
   29.5239  -29.9386  -17.5648 C   0  0  0  0  0  0  0  0  0  0  0  0
   30.3863  -30.9090  -18.0654 C   0  0  0  0  0  0  0  0  0  0  0  0
   31.0145  -30.7319  -19.2883 C   0  0  0  0  0  0  0  0  0  0  0  0
   30.7562  -29.5751  -19.9794 C   0  0  0  0  0  0  0  0  0  0  0  0
   29.8935  -28.6154  -19.4680 C   0  0  0  0  0  0  0  0  0  0  0  0
   27.9397  -25.5287  -16.9252 C   0  0  0  0  0  0  0  0  0  0  0  0
   27.4581  -25.4646  -15.7436 O   0  0  0  0  0  0  0  0  0  0  0  0
   27.5056  -24.7083  -17.9831 N   0  0  0  0  0  0  0  0  0  0  0  0
   26.5547  -23.6610  -17.8892 C   0  0  1  0  0  0  0  0  0  0  0  0
   26.9481  -22.3596  -18.5072 C   0  0  0  0  0  0  0  0  0  0  0  0
   25.8755  -21.3576  -18.2722 C   0  0  0  0  0  0  0  0  0  0  0  0
   25.6899  -20.6139  -17.1066 C   0  0  0  0  0  0  0  0  0  0  0  0
   24.6425  -19.7906  -17.2650 N   0  0  0  0  0  0  0  0  0  0  0  0
   24.1499  -19.9858  -18.5012 C   0  0  0  0  0  0  0  0  0  0  0  0
   23.0704  -19.3881  -19.1451 C   0  0  0  0  0  0  0  0  0  0  0  0
   22.7862  -19.7965  -20.4261 C   0  0  0  0  0  0  0  0  0  0  0  0
   23.5120  -20.7566  -21.0892 C   0  0  0  0  0  0  0  0  0  0  0  0
   24.5798  -21.3446  -20.4466 C   0  0  0  0  0  0  0  0  0  0  0  0
   24.9021  -20.9654  -19.1616 C   0  0  0  0  0  0  0  0  0  0  0  0
   25.1391  -24.0640  -18.1821 C   0  0  0  0  0  0  0  0  0  0  0  0
   24.7750  -24.6570  -19.2270 O   0  0  0  0  0  0  0  0  0  0  0  0
   22.8423  -24.9786  -15.0887 C   0  0  0  0  0  0  0  0  0  0  0  0
   22.4649  -25.3557  -16.4986 C   0  0  1  0  0  0  0  0  0  0  0  0
   21.1635  -25.8239  -16.5594 O   0  0  0  0  0  0  0  0  0  0  0  0
   22.7298  -24.2437  -17.4795 C   0  0  2  0  0  0  0  0  0  0  0  0
   24.1041  -23.7838  -17.2533 N   0  0  0  0  0  0  0  0  0  0  0  0
   21.7760  -23.1471  -17.2064 C   0  0  0  0  0  0  0  0  0  0  0  0
   22.1225  -22.1360  -16.5531 O   0  0  0  0  0  0  0  0  0  0  0  0
   20.4814  -23.2570  -17.6890 O   0  0  0  0  0  0  0  0  0  0  0  0
  2  1  1  1
  2  3  1  0
  3  4  1  0
  4  5  2  0
  5  6  1  0
  7  6  2  0
  8  7  1  0
  9  4  1  0
  9  8  2  0
 10 12  1  0
 10  2  1  0
 11 10  2  0
 13 12  1  0
 13 14  1  6
 15 23  1  0
 15 14  1  0
 16 15  2  0
 17 16  1  0
 17 18  1  0
 18 19  1  0
 18 23  2  0
 19 20  2  0
 20 21  1  0
 22 21  2  0
 23 22  1  0
 24 13  1  0
 25 24  2  0
 27 26  1  1
 27 28  1  0
 29 27  1  0
 29 30  1  1
 30 24  1  0
 31 33  1  0
 31 29  1  0
 32 31  2  0
M  END
$$$$
