FWT.pdb
     RDKit          3D

 33 35  0  0  1  0  0  0  0  0999 V2000
   28.4356  -20.8910   -8.8064 N   0  0  0  0  0  0  0  0  0  0  0  0
   27.0238  -20.7074   -8.6071 C   0  0  1  0  0  0  0  0  0  0  0  0
   26.8379  -19.5719   -7.6366 C   0  0  0  0  0  0  0  0  0  0  0  0
   27.5918  -19.7337   -6.3915 C   0  0  0  0  0  0  0  0  0  0  0  0
   28.3833  -18.6995   -5.9388 C   0  0  0  0  0  0  0  0  0  0  0  0
   29.1203  -18.8009   -4.7630 C   0  0  0  0  0  0  0  0  0  0  0  0
   29.0802  -19.9593   -4.0025 C   0  0  0  0  0  0  0  0  0  0  0  0
   28.2941  -20.9914   -4.4488 C   0  0  0  0  0  0  0  0  0  0  0  0
   27.5640  -20.8764   -5.6237 C   0  0  0  0  0  0  0  0  0  0  0  0
   26.3605  -20.2865   -9.8942 C   0  0  0  0  0  0  0  0  0  0  0  0
   26.1836  -19.0400  -10.1111 O   0  0  0  0  0  0  0  0  0  0  0  0
   25.9672  -21.2923  -10.7965 N   0  0  0  0  0  0  0  0  0  0  0  0
   25.3331  -21.0876  -12.0478 C   0  0  1  0  0  0  0  0  0  0  0  0
   26.0701  -21.5869  -13.2469 C   0  0  0  0  0  0  0  0  0  0  0  0
   25.3908  -21.1068  -14.4789 C   0  0  0  0  0  0  0  0  0  0  0  0
   25.4566  -19.8145  -15.0003 C   0  0  0  0  0  0  0  0  0  0  0  0
   24.7438  -19.7549  -16.1354 N   0  0  0  0  0  0  0  0  0  0  0  0
   24.2214  -20.9743  -16.3569 C   0  0  0  0  0  0  0  0  0  0  0  0
   23.4062  -21.4308  -17.3884 C   0  0  0  0  0  0  0  0  0  0  0  0
   23.0096  -22.7462  -17.3534 C   0  0  0  0  0  0  0  0  0  0  0  0
   23.3784  -23.6178  -16.3571 C   0  0  0  0  0  0  0  0  0  0  0  0
   24.1859  -23.1601  -15.3386 C   0  0  0  0  0  0  0  0  0  0  0  0
   24.6086  -21.8485  -15.3334 C   0  0  0  0  0  0  0  0  0  0  0  0
   23.8647  -21.3968  -12.0707 C   0  0  0  0  0  0  0  0  0  0  0  0
   23.3573  -22.4505  -11.6145 O   0  0  0  0  0  0  0  0  0  0  0  0
   19.2608  -19.9361  -12.1855 C   0  0  0  0  0  0  0  0  0  0  0  0
   20.7410  -19.8831  -11.9048 C   0  0  1  0  0  0  0  0  0  0  0  0
   21.0020  -20.0796  -10.5595 O   0  0  0  0  0  0  0  0  0  0  0  0
   21.5259  -20.8137  -12.7919 C   0  0  2  0  0  0  0  0  0  0  0  0
   22.9436  -20.4745  -12.6304 N   0  0  0  0  0  0  0  0  0  0  0  0
   21.1054  -20.5854  -14.1912 C   0  0  0  0  0  0  0  0  0  0  0  0
   21.6313  -19.6855  -14.8861 O   0  0  0  0  0  0  0  0  0  0  0  0
   20.1115  -21.3899  -14.7260 O   0  0  0  0  0  0  0  0  0  0  0  0
  2  1  1  6
  2  3  1  0
  3  4  1  0
  4  5  2  0
  5  6  1  0
  7  6  2  0
  8  7  1  0
  9  4  1  0
  9  8  2  0
 10 12  1  0
 10  2  1  0
 11 10  2  0
 13 12  1  0
 13 14  1  6
 15 23  1  0
 15 14  1  0
 16 15  2  0
 17 16  1  0
 17 18  1  0
 18 19  1  0
 18 23  2  0
 19 20  2  0
 20 21  1  0
 22 21  2  0
 23 22  1  0
 24 13  1  0
 25 24  2  0
 27 26  1  1
 27 28  1  0
 29 27  1  0
 29 30  1  6
 30 24  1  0
 31 33  1  0
 31 29  1  0
 32 31  2  0
M  END
$$$$
