FWT.pdb
     RDKit          3D

 33 35  0  0  1  0  0  0  0  0999 V2000
   28.4511  -20.8005  -15.7942 N   0  0  0  0  0  0  0  0  0  0  0  0
   27.7514  -20.0063  -14.8214 C   0  0  1  0  0  0  0  0  0  0  0  0
   26.9877  -18.9392  -15.5589 C   0  0  0  0  0  0  0  0  0  0  0  0
   27.8451  -17.9852  -16.2658 C   0  0  0  0  0  0  0  0  0  0  0  0
   27.8095  -17.9328  -17.6430 C   0  0  0  0  0  0  0  0  0  0  0  0
   28.6034  -17.0460  -18.3636 C   0  0  0  0  0  0  0  0  0  0  0  0
   29.4644  -16.1781  -17.7099 C   0  0  0  0  0  0  0  0  0  0  0  0
   29.5035  -16.2264  -16.3393 C   0  0  0  0  0  0  0  0  0  0  0  0
   28.7059  -17.1163  -15.6332 C   0  0  0  0  0  0  0  0  0  0  0  0
   26.7289  -20.8433  -14.0951 C   0  0  0  0  0  0  0  0  0  0  0  0
   25.9078  -21.5387  -14.7840 O   0  0  0  0  0  0  0  0  0  0  0  0
   26.7295  -20.8166  -12.6881 N   0  0  0  0  0  0  0  0  0  0  0  0
   25.8275  -21.5085  -11.8412 C   0  0  1  0  0  0  0  0  0  0  0  0
   26.3836  -21.9866  -10.5403 C   0  0  0  0  0  0  0  0  0  0  0  0
   26.4953  -20.8405   -9.6003 C   0  0  0  0  0  0  0  0  0  0  0  0
   25.7840  -19.6430   -9.6799 C   0  0  0  0  0  0  0  0  0  0  0  0
   26.1207  -18.8549   -8.6477 N   0  0  0  0  0  0  0  0  0  0  0  0
   27.0297  -19.5138   -7.9072 C   0  0  0  0  0  0  0  0  0  0  0  0
   27.6931  -19.1307   -6.7452 C   0  0  0  0  0  0  0  0  0  0  0  0
   28.5910  -20.0177   -6.2016 C   0  0  0  0  0  0  0  0  0  0  0  0
   28.8584  -21.2496   -6.7487 C   0  0  0  0  0  0  0  0  0  0  0  0
   28.1983  -21.6234   -7.8991 C   0  0  0  0  0  0  0  0  0  0  0  0
   27.2883  -20.7661   -8.4787 C   0  0  0  0  0  0  0  0  0  0  0  0
   24.4672  -20.8858  -11.7228 C   0  0  0  0  0  0  0  0  0  0  0  0
   24.2553  -19.7291  -11.2834 O   0  0  0  0  0  0  0  0  0  0  0  0
   22.4550  -19.5798  -14.1314 C   0  0  0  0  0  0  0  0  0  0  0  0
   21.6177  -20.6858  -13.5415 C   0  0  1  0  0  0  0  0  0  0  0  0
   21.6443  -21.8146  -14.3426 O   0  0  0  0  0  0  0  0  0  0  0  0
   21.9828  -20.9793  -12.1099 C   0  0  2  0  0  0  0  0  0  0  0  0
   23.3098  -21.6038  -12.1197 N   0  0  0  0  0  0  0  0  0  0  0  0
   20.9831  -21.9198  -11.5595 C   0  0  0  0  0  0  0  0  0  0  0  0
   21.2778  -23.1152  -11.3286 O   0  0  0  0  0  0  0  0  0  0  0  0
   19.7037  -21.4533  -11.3011 O   0  0  0  0  0  0  0  0  0  0  0  0
  2  1  1  6
  2  3  1  0
  3  4  1  0
  4  5  2  0
  5  6  1  0
  7  6  2  0
  8  7  1  0
  9  4  1  0
  9  8  2  0
 10 12  1  0
 10  2  1  0
 11 10  2  0
 13 12  1  0
 13 14  1  1
 15 23  1  0
 15 14  1  0
 16 15  2  0
 17 16  1  0
 17 18  1  0
 18 19  1  0
 18 23  2  0
 19 20  2  0
 20 21  1  0
 22 21  2  0
 23 22  1  0
 24 13  1  0
 25 24  2  0
 27 26  1  6
 27 28  1  0
 29 27  1  0
 29 30  1  6
 30 24  1  0
 31 33  1  0
 31 29  1  0
 32 31  2  0
M  END
$$$$
