FWT.pdb
     RDKit          3D

 33 35  0  0  1  0  0  0  0  0999 V2000
   23.9267  -17.1492  -18.2004 N   0  0  0  0  0  0  0  0  0  0  0  0
   24.0097  -18.1509  -17.1726 C   0  0  1  0  0  0  0  0  0  0  0  0
   24.8017  -17.5753  -16.0292 C   0  0  0  0  0  0  0  0  0  0  0  0
   26.2104  -17.3372  -16.3513 C   0  0  0  0  0  0  0  0  0  0  0  0
   26.7395  -16.0747  -16.1869 C   0  0  0  0  0  0  0  0  0  0  0  0
   28.0708  -15.7942  -16.4783 C   0  0  0  0  0  0  0  0  0  0  0  0
   28.9150  -16.7881  -16.9486 C   0  0  0  0  0  0  0  0  0  0  0  0
   28.3932  -18.0461  -17.1140 C   0  0  0  0  0  0  0  0  0  0  0  0
   27.0631  -18.3119  -16.8192 C   0  0  0  0  0  0  0  0  0  0  0  0
   22.6380  -18.4649  -16.6310 C   0  0  0  0  0  0  0  0  0  0  0  0
   21.8770  -17.4951  -16.2950 O   0  0  0  0  0  0  0  0  0  0  0  0
   22.2623  -19.8167  -16.5218 N   0  0  0  0  0  0  0  0  0  0  0  0
   20.9902  -20.2984  -16.1226 C   0  0  1  0  0  0  0  0  0  0  0  0
   20.1760  -20.9610  -17.1848 C   0  0  0  0  0  0  0  0  0  0  0  0
   19.7401  -19.9449  -18.1783 C   0  0  0  0  0  0  0  0  0  0  0  0
   18.7402  -18.9905  -17.9897 C   0  0  0  0  0  0  0  0  0  0  0  0
   18.6406  -18.2260  -19.0877 N   0  0  0  0  0  0  0  0  0  0  0  0
   19.5496  -18.6641  -19.9770 C   0  0  0  0  0  0  0  0  0  0  0  0
   19.8407  -18.2158  -21.2621 C   0  0  0  0  0  0  0  0  0  0  0  0
   20.8303  -18.8693  -21.9565 C   0  0  0  0  0  0  0  0  0  0  0  0
   21.5349  -19.9317  -21.4435 C   0  0  0  0  0  0  0  0  0  0  0  0
   21.2423  -20.3709  -20.1706 C   0  0  0  0  0  0  0  0  0  0  0  0
   20.2581  -19.7448  -19.4369 C   0  0  0  0  0  0  0  0  0  0  0  0
   20.9724  -21.0237  -14.8089 C   0  0  0  0  0  0  0  0  0  0  0  0
   21.7780  -21.9331  -14.4928 O   0  0  0  0  0  0  0  0  0  0  0  0
   21.3213  -19.6437  -11.4459 C   0  0  0  0  0  0  0  0  0  0  0  0
   20.0142  -20.3946  -11.4482 C   0  0  1  0  0  0  0  0  0  0  0  0
   18.9378  -19.5242  -11.4635 O   0  0  0  0  0  0  0  0  0  0  0  0
   19.9467  -21.4233  -12.5464 C   0  0  2  0  0  0  0  0  0  0  0  0
   20.0060  -20.7013  -13.8217 N   0  0  0  0  0  0  0  0  0  0  0  0
   18.6600  -22.1428  -12.4296 C   0  0  0  0  0  0  0  0  0  0  0  0
   17.7332  -21.9482  -13.2497 O   0  0  0  0  0  0  0  0  0  0  0  0
   18.4945  -23.0437  -11.3894 O   0  0  0  0  0  0  0  0  0  0  0  0
  2  1  1  6
  2  3  1  0
  3  4  1  0
  4  5  2  0
  5  6  1  0
  7  6  2  0
  8  7  1  0
  9  4  1  0
  9  8  2  0
 10 12  1  0
 10  2  1  0
 11 10  2  0
 13 12  1  0
 13 14  1  6
 15 23  1  0
 15 14  1  0
 16 15  2  0
 17 16  1  0
 17 18  1  0
 18 19  1  0
 18 23  2  0
 19 20  2  0
 20 21  1  0
 22 21  2  0
 23 22  1  0
 24 13  1  0
 25 24  2  0
 27 26  1  6
 27 28  1  0
 29 27  1  0
 29 30  1  6
 30 24  1  0
 31 33  1  0
 31 29  1  0
 32 31  2  0
M  END
$$$$
