FWT.pdb
     RDKit          3D

 33 35  0  0  1  0  0  0  0  0999 V2000
   28.7065  -20.9435  -13.7403 N   0  0  0  0  0  0  0  0  0  0  0  0
   27.7553  -20.3059  -12.8713 C   0  0  1  0  0  0  0  0  0  0  0  0
   26.6461  -19.7537  -13.7261 C   0  0  0  0  0  0  0  0  0  0  0  0
   27.0862  -18.7170  -14.6623 C   0  0  0  0  0  0  0  0  0  0  0  0
   26.1554  -18.0799  -15.4551 C   0  0  0  0  0  0  0  0  0  0  0  0
   26.5198  -17.0888  -16.3611 C   0  0  0  0  0  0  0  0  0  0  0  0
   27.8459  -16.7080  -16.4952 C   0  0  0  0  0  0  0  0  0  0  0  0
   28.7761  -17.3391  -15.7086 C   0  0  0  0  0  0  0  0  0  0  0  0
   28.3984  -18.3262  -14.8088 C   0  0  0  0  0  0  0  0  0  0  0  0
   27.1244  -21.3175  -11.9482 C   0  0  0  0  0  0  0  0  0  0  0  0
   27.6328  -22.4879  -11.8853 O   0  0  0  0  0  0  0  0  0  0  0  0
   26.0015  -20.9205  -11.1984 N   0  0  0  0  0  0  0  0  0  0  0  0
   26.0213  -20.4037   -9.8785 C   0  0  1  0  0  0  0  0  0  0  0  0
   27.1587  -19.4947   -9.5462 C   0  0  0  0  0  0  0  0  0  0  0  0
   27.9994  -20.1211   -8.4925 C   0  0  0  0  0  0  0  0  0  0  0  0
   28.9919  -21.0798   -8.6982 C   0  0  0  0  0  0  0  0  0  0  0  0
   29.5601  -21.3924   -7.5237 N   0  0  0  0  0  0  0  0  0  0  0  0
   28.9589  -20.6605   -6.5688 C   0  0  0  0  0  0  0  0  0  0  0  0
   29.1760  -20.6204   -5.1946 C   0  0  0  0  0  0  0  0  0  0  0  0
   28.3941  -19.7702   -4.4500 C   0  0  0  0  0  0  0  0  0  0  0  0
   27.4205  -18.9691   -4.9967 C   0  0  0  0  0  0  0  0  0  0  0  0
   27.2105  -19.0130   -6.3578 C   0  0  0  0  0  0  0  0  0  0  0  0
   27.9719  -19.8503   -7.1441 C   0  0  0  0  0  0  0  0  0  0  0  0
   24.6950  -19.9211   -9.3684 C   0  0  0  0  0  0  0  0  0  0  0  0
   24.4351  -18.7229   -9.0989 O   0  0  0  0  0  0  0  0  0  0  0  0
   20.9965  -20.3492  -11.7989 C   0  0  0  0  0  0  0  0  0  0  0  0
   22.3447  -20.5717  -11.1624 C   0  0  1  0  0  0  0  0  0  0  0  0
   23.2864  -19.6903  -11.6654 O   0  0  0  0  0  0  0  0  0  0  0  0
   22.2775  -20.5555   -9.6577 C   0  0  2  0  0  0  0  0  0  0  0  0
   23.6288  -20.8333   -9.1599 N   0  0  0  0  0  0  0  0  0  0  0  0
   21.3474  -21.6200   -9.2233 C   0  0  0  0  0  0  0  0  0  0  0  0
   21.7612  -22.6278   -8.6049 O   0  0  0  0  0  0  0  0  0  0  0  0
   19.9991  -21.4836   -9.5140 O   0  0  0  0  0  0  0  0  0  0  0  0
  2  1  1  6
  2  3  1  0
  3  4  1  0
  4  5  2  0
  5  6  1  0
  7  6  2  0
  8  7  1  0
  9  4  1  0
  9  8  2  0
 10 12  1  0
 10  2  1  0
 11 10  2  0
 13 12  1  0
 13 14  1  6
 15 23  1  0
 15 14  1  0
 16 15  2  0
 17 16  1  0
 17 18  1  0
 18 19  1  0
 18 23  2  0
 19 20  2  0
 20 21  1  0
 22 21  2  0
 23 22  1  0
 24 13  1  0
 25 24  2  0
 27 26  1  6
 27 28  1  0
 29 27  1  0
 29 30  1  1
 30 24  1  0
 31 33  1  0
 31 29  1  0
 32 31  2  0
M  END
$$$$
