FWT.pdb
     RDKit          3D

 33 35  0  0  1  0  0  0  0  0999 V2000
   27.8328  -22.0121  -14.9973 N   0  0  0  0  0  0  0  0  0  0  0  0
   27.0790  -20.8890  -14.5106 C   0  0  1  0  0  0  0  0  0  0  0  0
   26.1954  -20.4056  -15.6293 C   0  0  0  0  0  0  0  0  0  0  0  0
   26.9306  -19.7788  -16.7299 C   0  0  0  0  0  0  0  0  0  0  0  0
   27.3658  -18.4770  -16.5999 C   0  0  0  0  0  0  0  0  0  0  0  0
   28.0678  -17.8340  -17.6147 C   0  0  0  0  0  0  0  0  0  0  0  0
   28.3538  -18.4914  -18.8012 C   0  0  0  0  0  0  0  0  0  0  0  0
   27.9227  -19.7870  -18.9355 C   0  0  0  0  0  0  0  0  0  0  0  0
   27.2234  -20.4161  -17.9148 C   0  0  0  0  0  0  0  0  0  0  0  0
   26.1626  -21.3146  -13.3914 C   0  0  0  0  0  0  0  0  0  0  0  0
   25.4797  -22.3848  -13.5345 O   0  0  0  0  0  0  0  0  0  0  0  0
   26.1046  -20.5081  -12.2396 N   0  0  0  0  0  0  0  0  0  0  0  0
   25.1089  -20.5647  -11.2321 C   0  0  1  0  0  0  0  0  0  0  0  0
   25.4431  -19.8941   -9.9402 C   0  0  0  0  0  0  0  0  0  0  0  0
   26.7771  -20.3564   -9.4748 C   0  0  0  0  0  0  0  0  0  0  0  0
   27.6289  -21.2231  -10.1600 C   0  0  0  0  0  0  0  0  0  0  0  0
   28.7560  -21.3927   -9.4522 N   0  0  0  0  0  0  0  0  0  0  0  0
   28.6507  -20.6585   -8.3302 C   0  0  0  0  0  0  0  0  0  0  0  0
   29.5403  -20.4991   -7.2718 C   0  0  0  0  0  0  0  0  0  0  0  0
   29.1588  -19.6805   -6.2359 C   0  0  0  0  0  0  0  0  0  0  0  0
   27.9532  -19.0219   -6.2009 C   0  0  0  0  0  0  0  0  0  0  0  0
   27.0767  -19.1835   -7.2519 C   0  0  0  0  0  0  0  0  0  0  0  0
   27.4178  -19.9943   -8.3127 C   0  0  0  0  0  0  0  0  0  0  0  0
   23.7116  -20.2941  -11.7079 C   0  0  0  0  0  0  0  0  0  0  0  0
   23.3811  -19.3014  -12.4016 O   0  0  0  0  0  0  0  0  0  0  0  0
   21.9676  -22.6929  -13.6525 C   0  0  0  0  0  0  0  0  0  0  0  0
   21.3705  -21.3324  -13.3978 C   0  0  1  0  0  0  0  0  0  0  0  0
   20.1465  -21.1973  -14.0303 O   0  0  0  0  0  0  0  0  0  0  0  0
   21.3069  -21.0004  -11.9299 C   0  0  2  0  0  0  0  0  0  0  0  0
   22.6559  -21.1848  -11.3844 N   0  0  0  0  0  0  0  0  0  0  0  0
   20.3649  -21.9386  -11.2824 C   0  0  0  0  0  0  0  0  0  0  0  0
   20.7653  -22.7888  -10.4541 O   0  0  0  0  0  0  0  0  0  0  0  0
   19.0202  -21.8615  -11.6096 O   0  0  0  0  0  0  0  0  0  0  0  0
  2  1  1  6
  2  3  1  0
  3  4  1  0
  4  5  2  0
  5  6  1  0
  7  6  2  0
  8  7  1  0
  9  4  1  0
  9  8  2  0
 10 12  1  0
 10  2  1  0
 11 10  2  0
 13 12  1  0
 13 14  1  1
 15 23  1  0
 15 14  1  0
 16 15  2  0
 17 16  1  0
 17 18  1  0
 18 19  1  0
 18 23  2  0
 19 20  2  0
 20 21  1  0
 22 21  2  0
 23 22  1  0
 24 13  1  0
 25 24  2  0
 27 26  1  1
 27 28  1  0
 29 27  1  0
 29 30  1  1
 30 24  1  0
 31 33  1  0
 31 29  1  0
 32 31  2  0
M  END
$$$$
