FWT.pdb
     RDKit          3D

 33 35  0  0  1  0  0  0  0  0999 V2000
   25.7195  -22.2220  -14.1271 N   0  0  0  0  0  0  0  0  0  0  0  0
   25.3280  -21.0210  -13.4410 C   0  0  1  0  0  0  0  0  0  0  0  0
   23.9718  -20.6168  -13.9542 C   0  0  0  0  0  0  0  0  0  0  0  0
   23.9752  -20.1993  -15.3580 C   0  0  0  0  0  0  0  0  0  0  0  0
   24.6378  -19.0459  -15.7208 C   0  0  0  0  0  0  0  0  0  0  0  0
   24.6718  -18.6040  -17.0397 C   0  0  0  0  0  0  0  0  0  0  0  0
   24.0326  -19.3193  -18.0404 C   0  0  0  0  0  0  0  0  0  0  0  0
   23.3718  -20.4678  -17.6845 C   0  0  0  0  0  0  0  0  0  0  0  0
   23.3460  -20.8969  -16.3647 C   0  0  0  0  0  0  0  0  0  0  0  0
   25.1684  -21.2855  -11.9652 C   0  0  0  0  0  0  0  0  0  0  0  0
   24.4416  -22.2692  -11.5959 O   0  0  0  0  0  0  0  0  0  0  0  0
   25.8307  -20.4316  -11.0637 N   0  0  0  0  0  0  0  0  0  0  0  0
   25.7052  -20.4516   -9.6517 C   0  0  1  0  0  0  0  0  0  0  0  0
   26.7839  -19.7578   -8.8867 C   0  0  0  0  0  0  0  0  0  0  0  0
   26.6857  -20.1271   -7.4501 C   0  0  0  0  0  0  0  0  0  0  0  0
   25.7401  -20.9845   -6.8872 C   0  0  0  0  0  0  0  0  0  0  0  0
   25.9750  -21.1057   -5.5718 N   0  0  0  0  0  0  0  0  0  0  0  0
   27.0462  -20.3484   -5.2745 C   0  0  0  0  0  0  0  0  0  0  0  0
   27.6832  -20.1284   -4.0568 C   0  0  0  0  0  0  0  0  0  0  0  0
   28.7678  -19.2844   -4.0479 C   0  0  0  0  0  0  0  0  0  0  0  0
   29.2435  -18.6571   -5.1742 C   0  0  0  0  0  0  0  0  0  0  0  0
   28.6088  -18.8792   -6.3770 C   0  0  0  0  0  0  0  0  0  0  0  0
   27.5175  -19.7188   -6.4334 C   0  0  0  0  0  0  0  0  0  0  0  0
   24.3242  -20.1713   -9.1356 C   0  0  0  0  0  0  0  0  0  0  0  0
   23.7380  -19.0671   -9.2493 O   0  0  0  0  0  0  0  0  0  0  0  0
   21.5973  -21.8925  -10.3277 C   0  0  0  0  0  0  0  0  0  0  0  0
   21.3939  -20.7732   -9.3387 C   0  0  1  0  0  0  0  0  0  0  0  0
   20.0478  -20.5592   -9.0960 O   0  0  0  0  0  0  0  0  0  0  0  0
   22.1885  -20.9741   -8.0749 C   0  0  2  0  0  0  0  0  0  0  0  0
   23.5856  -21.1828   -8.4693 N   0  0  0  0  0  0  0  0  0  0  0  0
   21.6701  -22.1761   -7.3870 C   0  0  0  0  0  0  0  0  0  0  0  0
   22.3805  -23.1983   -7.2471 O   0  0  0  0  0  0  0  0  0  0  0  0
   20.3744  -22.1533   -6.8954 O   0  0  0  0  0  0  0  0  0  0  0  0
  2  1  1  6
  2  3  1  0
  3  4  1  0
  4  5  2  0
  5  6  1  0
  7  6  2  0
  8  7  1  0
  9  4  1  0
  9  8  2  0
 10 12  1  0
 10  2  1  0
 11 10  2  0
 13 12  1  0
 13 14  1  1
 15 23  1  0
 15 14  1  0
 16 15  2  0
 17 16  1  0
 17 18  1  0
 18 19  1  0
 18 23  2  0
 19 20  2  0
 20 21  1  0
 22 21  2  0
 23 22  1  0
 24 13  1  0
 25 24  2  0
 27 26  1  6
 27 28  1  0
 29 27  1  0
 29 30  1  6
 30 24  1  0
 31 33  1  0
 31 29  1  0
 32 31  2  0
M  END
$$$$
