FWT.pdb
     RDKit          3D

 33 35  0  0  1  0  0  0  0  0999 V2000
   25.4805  -21.4065   -7.9719 N   0  0  0  0  0  0  0  0  0  0  0  0
   26.0520  -20.1588   -8.3997 C   0  0  1  0  0  0  0  0  0  0  0  0
   27.5384  -20.2291   -8.1722 C   0  0  0  0  0  0  0  0  0  0  0  0
   27.9290  -20.0289   -6.7750 C   0  0  0  0  0  0  0  0  0  0  0  0
   29.2661  -20.0232   -6.4389 C   0  0  0  0  0  0  0  0  0  0  0  0
   29.6915  -19.8377   -5.1272 C   0  0  0  0  0  0  0  0  0  0  0  0
   28.7721  -19.6509   -4.1067 C   0  0  0  0  0  0  0  0  0  0  0  0
   27.4402  -19.6558   -4.4360 C   0  0  0  0  0  0  0  0  0  0  0  0
   27.0300  -19.8419   -5.7489 C   0  0  0  0  0  0  0  0  0  0  0  0
   25.8521  -19.9685   -9.8821 C   0  0  0  0  0  0  0  0  0  0  0  0
   26.0940  -18.8210  -10.3889 O   0  0  0  0  0  0  0  0  0  0  0  0
   25.4067  -21.0694  -10.6372 N   0  0  0  0  0  0  0  0  0  0  0  0
   25.0232  -21.0435  -12.0017 C   0  0  1  0  0  0  0  0  0  0  0  0
   25.8805  -21.8279  -12.9398 C   0  0  0  0  0  0  0  0  0  0  0  0
   27.2048  -21.1653  -13.0692 C   0  0  0  0  0  0  0  0  0  0  0  0
   28.3783  -21.5450  -12.4175 C   0  0  0  0  0  0  0  0  0  0  0  0
   29.3804  -20.7377  -12.7969 N   0  0  0  0  0  0  0  0  0  0  0  0
   28.8819  -19.8490  -13.6748 C   0  0  0  0  0  0  0  0  0  0  0  0
   29.5052  -18.8039  -14.3504 C   0  0  0  0  0  0  0  0  0  0  0  0
   28.7344  -18.0397  -15.1932 C   0  0  0  0  0  0  0  0  0  0  0  0
   27.3930  -18.2601  -15.3945 C   0  0  0  0  0  0  0  0  0  0  0  0
   26.7814  -19.2964  -14.7230 C   0  0  0  0  0  0  0  0  0  0  0  0
   27.5157  -20.0896  -13.8683 C   0  0  0  0  0  0  0  0  0  0  0  0
   23.5521  -21.2084  -12.2484 C   0  0  0  0  0  0  0  0  0  0  0  0
   22.7981  -21.9404  -11.5615 O   0  0  0  0  0  0  0  0  0  0  0  0
   21.0003  -21.1482  -11.1414 C   0  0  0  0  0  0  0  0  0  0  0  0
   20.7835  -20.1860  -12.2815 C   0  0  1  0  0  0  0  0  0  0  0  0
   21.1164  -18.8933  -11.9147 O   0  0  0  0  0  0  0  0  0  0  0  0
   21.4747  -20.6291  -13.5443 C   0  0  2  0  0  0  0  0  0  0  0  0
   22.9183  -20.5154  -13.3116 N   0  0  0  0  0  0  0  0  0  0  0  0
   21.0641  -19.7247  -14.6398 C   0  0  0  0  0  0  0  0  0  0  0  0
   21.8317  -18.8288  -15.0611 O   0  0  0  0  0  0  0  0  0  0  0  0
   19.8055  -19.8854  -15.1977 O   0  0  0  0  0  0  0  0  0  0  0  0
  2  1  1  6
  2  3  1  0
  3  4  1  0
  4  5  2  0
  5  6  1  0
  7  6  2  0
  8  7  1  0
  9  4  1  0
  9  8  2  0
 10 12  1  0
 10  2  1  0
 11 10  2  0
 13 12  1  0
 13 14  1  6
 15 23  1  0
 15 14  1  0
 16 15  2  0
 17 16  1  0
 17 18  1  0
 18 19  1  0
 18 23  2  0
 19 20  2  0
 20 21  1  0
 22 21  2  0
 23 22  1  0
 24 13  1  0
 25 24  2  0
 27 26  1  1
 27 28  1  0
 29 27  1  0
 29 30  1  1
 30 24  1  0
 31 33  1  0
 31 29  1  0
 32 31  2  0
M  END
$$$$
