FWT.pdb
     RDKit          3D

 33 35  0  0  1  0  0  0  0  0999 V2000
   27.1783  -21.6881  -15.0753 N   0  0  0  0  0  0  0  0  0  0  0  0
   27.4060  -20.7196  -14.0376 C   0  0  1  0  0  0  0  0  0  0  0  0
   26.7704  -19.4243  -14.4668 C   0  0  0  0  0  0  0  0  0  0  0  0
   27.4475  -18.7834  -15.5962 C   0  0  0  0  0  0  0  0  0  0  0  0
   26.9340  -18.9313  -16.8671 C   0  0  0  0  0  0  0  0  0  0  0  0
   27.5380  -18.3444  -17.9747 C   0  0  0  0  0  0  0  0  0  0  0  0
   28.6883  -17.5842  -17.8313 C   0  0  0  0  0  0  0  0  0  0  0  0
   29.2034  -17.4341  -16.5685 C   0  0  0  0  0  0  0  0  0  0  0  0
   28.5903  -18.0253  -15.4725 C   0  0  0  0  0  0  0  0  0  0  0  0
   26.7134  -21.1381  -12.7653 C   0  0  0  0  0  0  0  0  0  0  0  0
   25.6031  -21.7642  -12.8515 O   0  0  0  0  0  0  0  0  0  0  0  0
   27.3272  -20.8165  -11.5403 N   0  0  0  0  0  0  0  0  0  0  0  0
   26.6704  -20.6694  -10.2926 C   0  0  1  0  0  0  0  0  0  0  0  0
   27.4796  -20.0666   -9.1917 C   0  0  0  0  0  0  0  0  0  0  0  0
   26.8096  -20.3228   -7.8897 C   0  0  0  0  0  0  0  0  0  0  0  0
   25.5803  -20.9578   -7.7115 C   0  0  0  0  0  0  0  0  0  0  0  0
   25.3058  -21.0385   -6.4008 N   0  0  0  0  0  0  0  0  0  0  0  0
   26.3259  -20.4717   -5.7319 C   0  0  0  0  0  0  0  0  0  0  0  0
   26.5194  -20.2967   -4.3648 C   0  0  0  0  0  0  0  0  0  0  0  0
   27.6707  -19.6650   -3.9595 C   0  0  0  0  0  0  0  0  0  0  0  0
   28.6256  -19.2051   -4.8342 C   0  0  0  0  0  0  0  0  0  0  0  0
   28.4285  -19.3816   -6.1865 C   0  0  0  0  0  0  0  0  0  0  0  0
   27.2888  -20.0107   -6.6385 C   0  0  0  0  0  0  0  0  0  0  0  0
   25.2704  -20.1352  -10.3740 C   0  0  0  0  0  0  0  0  0  0  0  0
   24.9741  -18.9170  -10.3096 O   0  0  0  0  0  0  0  0  0  0  0  0
   20.9456  -20.7468  -12.4394 C   0  0  0  0  0  0  0  0  0  0  0  0
   22.3874  -21.0603  -12.1302 C   0  0  1  0  0  0  0  0  0  0  0  0
   23.2180  -20.6637  -13.1643 O   0  0  0  0  0  0  0  0  0  0  0  0
   22.8187  -20.5134  -10.7947 C   0  0  2  0  0  0  0  0  0  0  0  0
   24.1714  -21.0176  -10.5356 N   0  0  0  0  0  0  0  0  0  0  0  0
   21.8840  -21.0146   -9.7642 C   0  0  0  0  0  0  0  0  0  0  0  0
   20.7012  -20.6055   -9.7096 O   0  0  0  0  0  0  0  0  0  0  0  0
   22.3415  -21.9524   -8.8519 O   0  0  0  0  0  0  0  0  0  0  0  0
  2  1  1  6
  2  3  1  0
  3  4  1  0
  4  5  2  0
  5  6  1  0
  7  6  2  0
  8  7  1  0
  9  4  1  0
  9  8  2  0
 10 12  1  0
 10  2  1  0
 11 10  2  0
 13 12  1  0
 13 14  1  1
 15 23  1  0
 15 14  1  0
 16 15  2  0
 17 16  1  0
 17 18  1  0
 18 19  1  0
 18 23  2  0
 19 20  2  0
 20 21  1  0
 22 21  2  0
 23 22  1  0
 24 13  1  0
 25 24  2  0
 27 26  1  6
 27 28  1  0
 29 27  1  0
 29 30  1  1
 30 24  1  0
 31 33  1  0
 31 29  1  0
 32 31  2  0
M  END
$$$$
