FWT.pdb
     RDKit          3D

 33 35  0  0  1  0  0  0  0  0999 V2000
   25.5237  -21.3993   -9.6133 N   0  0  0  0  0  0  0  0  0  0  0  0
   26.1913  -20.1766   -9.9679 C   0  0  1  0  0  0  0  0  0  0  0  0
   27.6207  -20.2800   -9.5075 C   0  0  0  0  0  0  0  0  0  0  0  0
   27.7828  -20.1414   -8.0586 C   0  0  0  0  0  0  0  0  0  0  0  0
   27.1810  -19.0859   -7.4069 C   0  0  0  0  0  0  0  0  0  0  0  0
   27.3033  -18.9072   -6.0325 C   0  0  0  0  0  0  0  0  0  0  0  0
   28.0433  -19.7960   -5.2682 C   0  0  0  0  0  0  0  0  0  0  0  0
   28.6443  -20.8480   -5.9120 C   0  0  0  0  0  0  0  0  0  0  0  0
   28.5137  -21.0141   -7.2839 C   0  0  0  0  0  0  0  0  0  0  0  0
   26.2325  -20.0143  -11.4664 C   0  0  0  0  0  0  0  0  0  0  0  0
   25.9463  -21.0218  -12.1981 O   0  0  0  0  0  0  0  0  0  0  0  0
   26.5859  -18.7555  -11.9870 N   0  0  0  0  0  0  0  0  0  0  0  0
   26.5640  -18.3835  -13.3549 C   0  0  1  0  0  0  0  0  0  0  0  0
   26.4152  -16.9244  -13.6363 C   0  0  0  0  0  0  0  0  0  0  0  0
   26.1543  -16.7256  -15.0861 C   0  0  0  0  0  0  0  0  0  0  0  0
   27.0532  -16.2037  -16.0165 C   0  0  0  0  0  0  0  0  0  0  0  0
   26.4847  -16.1988  -17.2317 N   0  0  0  0  0  0  0  0  0  0  0  0
   25.2442  -16.7032  -17.1068 C   0  0  0  0  0  0  0  0  0  0  0  0
   24.2529  -16.9029  -18.0632 C   0  0  0  0  0  0  0  0  0  0  0  0
   23.0583  -17.4359  -17.6417 C   0  0  0  0  0  0  0  0  0  0  0  0
   22.8043  -17.7755  -16.3346 C   0  0  0  0  0  0  0  0  0  0  0  0
   23.7898  -17.5757  -15.3924 C   0  0  0  0  0  0  0  0  0  0  0  0
   25.0039  -17.0444  -15.7699 C   0  0  0  0  0  0  0  0  0  0  0  0
   27.5941  -19.0606  -14.2108 C   0  0  0  0  0  0  0  0  0  0  0  0
   28.8267  -19.0527  -13.9727 O   0  0  0  0  0  0  0  0  0  0  0  0
   28.6012  -22.3099  -14.5750 C   0  0  0  0  0  0  0  0  0  0  0  0
   28.0656  -21.9350  -15.9333 C   0  0  1  0  0  0  0  0  0  0  0  0
   26.7738  -22.4013  -16.1073 O   0  0  0  0  0  0  0  0  0  0  0  0
   28.1950  -20.4606  -16.2132 C   0  0  2  0  0  0  0  0  0  0  0  0
   27.2074  -19.7717  -15.3758 N   0  0  0  0  0  0  0  0  0  0  0  0
   27.8961  -20.2318  -17.6433 C   0  0  0  0  0  0  0  0  0  0  0  0
   26.8341  -19.6717  -18.0007 O   0  0  0  0  0  0  0  0  0  0  0  0
   28.8178  -20.6507  -18.5900 O   0  0  0  0  0  0  0  0  0  0  0  0
  2  1  1  6
  2  3  1  0
  3  4  1  0
  4  5  2  0
  5  6  1  0
  7  6  2  0
  8  7  1  0
  9  4  1  0
  9  8  2  0
 10 12  1  0
 10  2  1  0
 11 10  2  0
 13 12  1  0
 13 14  1  1
 15 23  1  0
 15 14  1  0
 16 15  2  0
 17 16  1  0
 17 18  1  0
 18 19  1  0
 18 23  2  0
 19 20  2  0
 20 21  1  0
 22 21  2  0
 23 22  1  0
 24 13  1  0
 25 24  2  0
 27 26  1  1
 27 28  1  0
 29 27  1  0
 29 30  1  1
 30 24  1  0
 31 33  1  0
 31 29  1  0
 32 31  2  0
M  END
$$$$
