FWT.pdb
     RDKit          3D

 33 35  0  0  1  0  0  0  0  0999 V2000
   26.0293  -18.1203  -19.1732 N   0  0  0  0  0  0  0  0  0  0  0  0
   25.8789  -17.5154  -17.8778 C   0  0  1  0  0  0  0  0  0  0  0  0
   24.6847  -16.6005  -17.9308 C   0  0  0  0  0  0  0  0  0  0  0  0
   24.9183  -15.3730  -18.6947 C   0  0  0  0  0  0  0  0  0  0  0  0
   25.6355  -14.3442  -18.1221 C   0  0  0  0  0  0  0  0  0  0  0  0
   25.8855  -13.1570  -18.8034 C   0  0  0  0  0  0  0  0  0  0  0  0
   25.4150  -12.9713  -20.0940 C   0  0  0  0  0  0  0  0  0  0  0  0
   24.7007  -13.9923  -20.6683 C   0  0  0  0  0  0  0  0  0  0  0  0
   24.4587  -15.1713  -19.9770 C   0  0  0  0  0  0  0  0  0  0  0  0
   25.5719  -18.5643  -16.8390 C   0  0  0  0  0  0  0  0  0  0  0  0
   24.8381  -19.5562  -17.1706 O   0  0  0  0  0  0  0  0  0  0  0  0
   26.1111  -18.3976  -15.5498 N   0  0  0  0  0  0  0  0  0  0  0  0
   25.8231  -19.1987  -14.4162 C   0  0  1  0  0  0  0  0  0  0  0  0
   26.8085  -19.1300  -13.2961 C   0  0  0  0  0  0  0  0  0  0  0  0
   26.5300  -20.2216  -12.3263 C   0  0  0  0  0  0  0  0  0  0  0  0
   26.6168  -21.5897  -12.5852 C   0  0  0  0  0  0  0  0  0  0  0  0
   26.3231  -22.2742  -11.4693 N   0  0  0  0  0  0  0  0  0  0  0  0
   26.0494  -21.3824  -10.5004 C   0  0  0  0  0  0  0  0  0  0  0  0
   25.6848  -21.5797   -9.1719 C   0  0  0  0  0  0  0  0  0  0  0  0
   25.4539  -20.4652   -8.4016 C   0  0  0  0  0  0  0  0  0  0  0  0
   25.5660  -19.1820   -8.8806 C   0  0  0  0  0  0  0  0  0  0  0  0
   25.9276  -18.9930  -10.1968 C   0  0  0  0  0  0  0  0  0  0  0  0
   26.1699  -20.0818  -11.0060 C   0  0  0  0  0  0  0  0  0  0  0  0
   24.3926  -19.1633  -13.9638 C   0  0  0  0  0  0  0  0  0  0  0  0
   23.8201  -18.1424  -13.5099 O   0  0  0  0  0  0  0  0  0  0  0  0
   21.0377  -19.7932  -15.5857 C   0  0  0  0  0  0  0  0  0  0  0  0
   21.3065  -20.8465  -14.5413 C   0  0  1  0  0  0  0  0  0  0  0  0
   21.7346  -22.0282  -15.1218 O   0  0  0  0  0  0  0  0  0  0  0  0
   22.2362  -20.3582  -13.4614 C   0  0  2  0  0  0  0  0  0  0  0  0
   23.5869  -20.3289  -14.0322 N   0  0  0  0  0  0  0  0  0  0  0  0
   22.1817  -21.3147  -12.3348 C   0  0  0  0  0  0  0  0  0  0  0  0
   23.1310  -22.0993  -12.1058 O   0  0  0  0  0  0  0  0  0  0  0  0
   21.0537  -21.3292  -11.5295 O   0  0  0  0  0  0  0  0  0  0  0  0
  2  1  1  6
  2  3  1  0
  3  4  1  0
  4  5  2  0
  5  6  1  0
  7  6  2  0
  8  7  1  0
  9  4  1  0
  9  8  2  0
 10 12  1  0
 10  2  1  0
 11 10  2  0
 13 12  1  0
 13 14  1  1
 15 23  1  0
 15 14  1  0
 16 15  2  0
 17 16  1  0
 17 18  1  0
 18 19  1  0
 18 23  2  0
 19 20  2  0
 20 21  1  0
 22 21  2  0
 23 22  1  0
 24 13  1  0
 25 24  2  0
 27 26  1  6
 27 28  1  0
 29 27  1  0
 29 30  1  6
 30 24  1  0
 31 33  1  0
 31 29  1  0
 32 31  2  0
M  END
$$$$
