FWT.pdb
     RDKit          3D

 33 35  0  0  1  0  0  0  0  0999 V2000
   18.8151  -20.0113  -13.8968 N   0  0  0  0  0  0  0  0  0  0  0  0
   19.8649  -20.5004  -14.7485 C   0  0  1  0  0  0  0  0  0  0  0  0
   19.2373  -20.9650  -16.0354 C   0  0  0  0  0  0  0  0  0  0  0  0
   18.3337  -22.1056  -15.8703 C   0  0  0  0  0  0  0  0  0  0  0  0
   16.9711  -21.8958  -15.8645 C   0  0  0  0  0  0  0  0  0  0  0  0
   16.0687  -22.9438  -15.7105 C   0  0  0  0  0  0  0  0  0  0  0  0
   16.5187  -24.2458  -15.5564 C   0  0  0  0  0  0  0  0  0  0  0  0
   17.8739  -24.4598  -15.5615 C   0  0  0  0  0  0  0  0  0  0  0  0
   18.7627  -23.4049  -15.7160 C   0  0  0  0  0  0  0  0  0  0  0  0
   20.8127  -19.3848  -15.1100 C   0  0  0  0  0  0  0  0  0  0  0  0
   20.3285  -18.2306  -15.3661 O   0  0  0  0  0  0  0  0  0  0  0  0
   22.1899  -19.6718  -15.1477 N   0  0  0  0  0  0  0  0  0  0  0  0
   23.2220  -18.7604  -15.4855 C   0  0  1  0  0  0  0  0  0  0  0  0
   24.4953  -18.8962  -14.7171 C   0  0  0  0  0  0  0  0  0  0  0  0
   25.4284  -17.8085  -15.1120 C   0  0  0  0  0  0  0  0  0  0  0  0
   25.2762  -16.4525  -14.8215 C   0  0  0  0  0  0  0  0  0  0  0  0
   26.3239  -15.7715  -15.3098 N   0  0  0  0  0  0  0  0  0  0  0  0
   27.1451  -16.6538  -15.9068 C   0  0  0  0  0  0  0  0  0  0  0  0
   28.3540  -16.4545  -16.5669 C   0  0  0  0  0  0  0  0  0  0  0  0
   28.9807  -17.5570  -17.0965 C   0  0  0  0  0  0  0  0  0  0  0  0
   28.4716  -18.8300  -17.0035 C   0  0  0  0  0  0  0  0  0  0  0  0
   27.2745  -19.0210  -16.3485 C   0  0  0  0  0  0  0  0  0  0  0  0
   26.6113  -17.9443  -15.8009 C   0  0  0  0  0  0  0  0  0  0  0  0
   23.4255  -18.5529  -16.9578 C   0  0  0  0  0  0  0  0  0  0  0  0
   23.6821  -19.4730  -17.7723 O   0  0  0  0  0  0  0  0  0  0  0  0
   21.2826  -17.6555  -19.7262 C   0  0  0  0  0  0  0  0  0  0  0  0
   22.2820  -16.5408  -19.5500 C   0  0  1  0  0  0  0  0  0  0  0  0
   21.7297  -15.4800  -18.8526 O   0  0  0  0  0  0  0  0  0  0  0  0
   23.5765  -17.0219  -18.9487 C   0  0  2  0  0  0  0  0  0  0  0  0
   23.3321  -17.2544  -17.5214 N   0  0  0  0  0  0  0  0  0  0  0  0
   24.5919  -15.9611  -19.1238 C   0  0  0  0  0  0  0  0  0  0  0  0
   25.0088  -15.2970  -18.1469 O   0  0  0  0  0  0  0  0  0  0  0  0
   25.0790  -15.7113  -20.3972 O   0  0  0  0  0  0  0  0  0  0  0  0
  2  1  1  1
  2  3  1  0
  3  4  1  0
  4  5  2  0
  5  6  1  0
  7  6  2  0
  8  7  1  0
  9  4  1  0
  9  8  2  0
 10 12  1  0
 10  2  1  0
 11 10  2  0
 13 12  1  0
 13 14  1  6
 15 23  1  0
 15 14  1  0
 16 15  2  0
 17 16  1  0
 17 18  1  0
 18 19  1  0
 18 23  2  0
 19 20  2  0
 20 21  1  0
 22 21  2  0
 23 22  1  0
 24 13  1  0
 25 24  2  0
 27 26  1  1
 27 28  1  0
 29 27  1  0
 29 30  1  1
 30 24  1  0
 31 33  1  0
 31 29  1  0
 32 31  2  0
M  END
$$$$
