FWT.pdb
     RDKit          3D

 33 35  0  0  1  0  0  0  0  0999 V2000
   25.0492  -18.9672   -8.8027 N   0  0  0  0  0  0  0  0  0  0  0  0
   25.6184  -19.7887   -9.8359 C   0  0  1  0  0  0  0  0  0  0  0  0
   26.1389  -21.0461   -9.1926 C   0  0  0  0  0  0  0  0  0  0  0  0
   27.2653  -20.8188   -8.2847 C   0  0  0  0  0  0  0  0  0  0  0  0
   27.0258  -20.3444   -7.0125 C   0  0  0  0  0  0  0  0  0  0  0  0
   28.0592  -20.1106   -6.1106 C   0  0  0  0  0  0  0  0  0  0  0  0
   29.3766  -20.3508   -6.4690 C   0  0  0  0  0  0  0  0  0  0  0  0
   29.6203  -20.8230   -7.7340 C   0  0  0  0  0  0  0  0  0  0  0  0
   28.5795  -21.0517   -8.6234 C   0  0  0  0  0  0  0  0  0  0  0  0
   24.5547  -20.2151  -10.8159 C   0  0  0  0  0  0  0  0  0  0  0  0
   23.3695  -20.4144  -10.3827 O   0  0  0  0  0  0  0  0  0  0  0  0
   24.9221  -20.3732  -12.1652 N   0  0  0  0  0  0  0  0  0  0  0  0
   24.0833  -20.1588  -13.2878 C   0  0  1  0  0  0  0  0  0  0  0  0
   24.7654  -19.7279  -14.5444 C   0  0  0  0  0  0  0  0  0  0  0  0
   23.7469  -19.2788  -15.5297 C   0  0  0  0  0  0  0  0  0  0  0  0
   23.1098  -18.0378  -15.5418 C   0  0  0  0  0  0  0  0  0  0  0  0
   22.2760  -17.9748  -16.5911 N   0  0  0  0  0  0  0  0  0  0  0  0
   22.3601  -19.1425  -17.2532 C   0  0  0  0  0  0  0  0  0  0  0  0
   21.6974  -19.5790  -18.3966 C   0  0  0  0  0  0  0  0  0  0  0  0
   21.9782  -20.8448  -18.8523 C   0  0  0  0  0  0  0  0  0  0  0  0
   22.8727  -21.6863  -18.2357 C   0  0  0  0  0  0  0  0  0  0  0  0
   23.5259  -21.2484  -17.1042 C   0  0  0  0  0  0  0  0  0  0  0  0
   23.2763  -19.9858  -16.6118 C   0  0  0  0  0  0  0  0  0  0  0  0
   23.0325  -21.2087  -13.5017 C   0  0  0  0  0  0  0  0  0  0  0  0
   23.2746  -22.4326  -13.6411 O   0  0  0  0  0  0  0  0  0  0  0  0
   20.3455  -22.5844  -11.4116 C   0  0  0  0  0  0  0  0  0  0  0  0
   19.7235  -21.8651  -12.5814 C   0  0  1  0  0  0  0  0  0  0  0  0
   19.3022  -20.5965  -12.2214 O   0  0  0  0  0  0  0  0  0  0  0  0
   20.6194  -21.8592  -13.7922 C   0  0  2  0  0  0  0  0  0  0  0  0
   21.6603  -20.8531  -13.5571 N   0  0  0  0  0  0  0  0  0  0  0  0
   19.8065  -21.4834  -14.9690 C   0  0  0  0  0  0  0  0  0  0  0  0
   19.9604  -20.3764  -15.5347 O   0  0  0  0  0  0  0  0  0  0  0  0
   18.8635  -22.3835  -15.4400 O   0  0  0  0  0  0  0  0  0  0  0  0
  2  1  1  1
  2  3  1  0
  3  4  1  0
  4  5  2  0
  5  6  1  0
  7  6  2  0
  8  7  1  0
  9  4  1  0
  9  8  2  0
 10 12  1  0
 10  2  1  0
 11 10  2  0
 13 12  1  0
 13 14  1  6
 15 23  1  0
 15 14  1  0
 16 15  2  0
 17 16  1  0
 17 18  1  0
 18 19  1  0
 18 23  2  0
 19 20  2  0
 20 21  1  0
 22 21  2  0
 23 22  1  0
 24 13  1  0
 25 24  2  0
 27 26  1  1
 27 28  1  0
 29 27  1  0
 29 30  1  1
 30 24  1  0
 31 33  1  0
 31 29  1  0
 32 31  2  0
M  END
$$$$
