FWT.pdb
     RDKit          3D

 33 35  0  0  1  0  0  0  0  0999 V2000
   27.1837  -24.2013  -16.2151 N   0  0  0  0  0  0  0  0  0  0  0  0
   27.0282  -22.8124  -15.8783 C   0  0  1  0  0  0  0  0  0  0  0  0
   26.0281  -22.2148  -16.8316 C   0  0  0  0  0  0  0  0  0  0  0  0
   26.5425  -22.0443  -18.1922 C   0  0  0  0  0  0  0  0  0  0  0  0
   27.6874  -21.3040  -18.3964 C   0  0  0  0  0  0  0  0  0  0  0  0
   28.2183  -21.1105  -19.6679 C   0  0  0  0  0  0  0  0  0  0  0  0
   27.6038  -21.6631  -20.7809 C   0  0  0  0  0  0  0  0  0  0  0  0
   26.4640  -22.4007  -20.5830 C   0  0  0  0  0  0  0  0  0  0  0  0
   25.9455  -22.5857  -19.3087 C   0  0  0  0  0  0  0  0  0  0  0  0
   26.4445  -22.6678  -14.4956 C   0  0  0  0  0  0  0  0  0  0  0  0
   25.3933  -23.3326  -14.2036 O   0  0  0  0  0  0  0  0  0  0  0  0
   27.0894  -21.8035  -13.5914 N   0  0  0  0  0  0  0  0  0  0  0  0
   26.5695  -21.3573  -12.3502 C   0  0  1  0  0  0  0  0  0  0  0  0
   27.5653  -20.8169  -11.3773 C   0  0  0  0  0  0  0  0  0  0  0  0
   26.8677  -20.4214  -10.1256 C   0  0  0  0  0  0  0  0  0  0  0  0
   25.5347  -20.0237  -10.0210 C   0  0  0  0  0  0  0  0  0  0  0  0
   25.2444  -19.7708   -8.7358 N   0  0  0  0  0  0  0  0  0  0  0  0
   26.3556  -19.9950   -8.0119 C   0  0  0  0  0  0  0  0  0  0  0  0
   26.5790  -19.8716   -6.6437 C   0  0  0  0  0  0  0  0  0  0  0  0
   27.8372  -20.1634   -6.1742 C   0  0  0  0  0  0  0  0  0  0  0  0
   28.8699  -20.5660   -6.9866 C   0  0  0  0  0  0  0  0  0  0  0  0
   28.6425  -20.6865   -8.3404 C   0  0  0  0  0  0  0  0  0  0  0  0
   27.3957  -20.4052   -8.8554 C   0  0  0  0  0  0  0  0  0  0  0  0
   25.3159  -20.5381  -12.4476 C   0  0  0  0  0  0  0  0  0  0  0  0
   25.2957  -19.2884  -12.5652 O   0  0  0  0  0  0  0  0  0  0  0  0
   23.0778  -20.1320  -15.0482 C   0  0  0  0  0  0  0  0  0  0  0  0
   22.2500  -20.7179  -13.9329 C   0  0  1  0  0  0  0  0  0  0  0  0
   22.0531  -22.0758  -14.1168 O   0  0  0  0  0  0  0  0  0  0  0  0
   22.8073  -20.3895  -12.5726 C   0  0  2  0  0  0  0  0  0  0  0  0
   24.0429  -21.1631  -12.4115 N   0  0  0  0  0  0  0  0  0  0  0  0
   21.8160  -20.7980  -11.5541 C   0  0  0  0  0  0  0  0  0  0  0  0
   22.0373  -21.7627  -10.7862 O   0  0  0  0  0  0  0  0  0  0  0  0
   20.6278  -20.0903  -11.4621 O   0  0  0  0  0  0  0  0  0  0  0  0
  2  1  1  6
  2  3  1  0
  3  4  1  0
  4  5  2  0
  5  6  1  0
  7  6  2  0
  8  7  1  0
  9  4  1  0
  9  8  2  0
 10 12  1  0
 10  2  1  0
 11 10  2  0
 13 12  1  0
 13 14  1  6
 15 23  1  0
 15 14  1  0
 16 15  2  0
 17 16  1  0
 17 18  1  0
 18 19  1  0
 18 23  2  0
 19 20  2  0
 20 21  1  0
 22 21  2  0
 23 22  1  0
 24 13  1  0
 25 24  2  0
 27 26  1  6
 27 28  1  0
 29 27  1  0
 29 30  1  1
 30 24  1  0
 31 33  1  0
 31 29  1  0
 32 31  2  0
M  END
$$$$
