VWN.pdb
     RDKit          3D

 30 31  0  0  1  0  0  0  0  0999 V2000
   28.5186  -17.9488  -16.0079 C   0  0  0  0  0  0  0  0  0  0  0  0
   27.7732  -18.6587  -14.9333 C   0  0  1  0  0  0  0  0  0  0  0  0
   26.3169  -18.7111  -15.2800 C   0  0  0  0  0  0  0  0  0  0  0  0
   28.3300  -20.0062  -14.5470 C   0  0  2  0  0  0  0  0  0  0  0  0
   28.1110  -20.8959  -15.7009 N   0  0  0  0  0  0  0  0  0  0  0  0
   27.6113  -20.5924  -13.3976 C   0  0  0  0  0  0  0  0  0  0  0  0
   26.5698  -21.3108  -13.6380 O   0  0  0  0  0  0  0  0  0  0  0  0
   27.9984  -20.4144  -12.0511 N   0  0  0  0  0  0  0  0  0  0  0  0
   27.2122  -21.0199  -10.9932 C   0  0  1  0  0  0  0  0  0  0  0  0
   28.0205  -21.1556   -9.7395 C   0  0  0  0  0  0  0  0  0  0  0  0
   27.3271  -20.8835   -8.4882 C   0  0  0  0  0  0  0  0  0  0  0  0
   25.9443  -21.0419   -8.3104 C   0  0  0  0  0  0  0  0  0  0  0  0
   25.7034  -20.7327   -7.0377 N   0  0  0  0  0  0  0  0  0  0  0  0
   26.8353  -20.3829   -6.3737 C   0  0  0  0  0  0  0  0  0  0  0  0
   27.0841  -19.9850   -5.0742 C   0  0  0  0  0  0  0  0  0  0  0  0
   28.3478  -19.6697   -4.6457 C   0  0  0  0  0  0  0  0  0  0  0  0
   29.3830  -19.7578   -5.5473 C   0  0  0  0  0  0  0  0  0  0  0  0
   29.1187  -20.1570   -6.8424 C   0  0  0  0  0  0  0  0  0  0  0  0
   27.8449  -20.4821   -7.2989 C   0  0  0  0  0  0  0  0  0  0  0  0
   25.9080  -20.3827  -10.8979 C   0  0  0  0  0  0  0  0  0  0  0  0
   25.8827  -19.1072  -11.0416 O   0  0  0  0  0  0  0  0  0  0  0  0
   21.4502  -19.2235  -12.5696 N   0  0  0  0  0  0  0  0  0  0  0  0
   22.5246  -19.7839  -13.3664 C   0  0  0  0  0  0  0  0  0  0  0  0
   22.4497  -19.7451  -14.6068 O   0  0  0  0  0  0  0  0  0  0  0  0
   23.6575  -20.3736  -12.6797 C   0  0  0  0  0  0  0  0  0  0  0  0
   23.4528  -20.3825  -11.1753 C   0  0  2  0  0  0  0  0  0  0  0  0
   24.6797  -21.0415  -10.6702 N   0  0  0  0  0  0  0  0  0  0  0  0
   22.2819  -21.1756  -10.7796 C   0  0  0  0  0  0  0  0  0  0  0  0
   21.4181  -20.7136   -9.7783 O   0  0  0  0  0  0  0  0  0  0  0  0
   22.0165  -22.2677  -11.3052 O   0  0  0  0  0  0  0  0  0  0  0  0
  2  1  1  6
  2  3  1  0
  4  2  1  0
  4  5  1  6
  6  7  2  0
  6  4  1  0
  8  6  1  0
  9  8  1  0
  9 10  1  1
 10 11  1  0
 11 19  1  0
 11 12  2  0
 12 13  1  0
 13 14  1  0
 14 15  2  0
 16 15  1  0
 17 16  2  0
 18 19  2  0
 18 17  1  0
 19 14  1  0
 20 21  2  0
 20  9  1  0
 23 22  1  0
 23 25  1  0
 24 23  2  0
 26 25  1  6
 26 27  1  0
 27 20  1  0
 28 26  1  0
 29 28  1  0
 30 28  2  0
M  END
$$$$
