VWN.pdb
     RDKit          3D

 30 31  0  0  1  0  0  0  0  0999 V2000
   27.7526  -22.1389  -15.7541 C   0  0  0  0  0  0  0  0  0  0  0  0
   28.3540  -20.8969  -15.1973 C   0  0  1  0  0  0  0  0  0  0  0  0
   29.2060  -20.2385  -16.2387 C   0  0  0  0  0  0  0  0  0  0  0  0
   27.3791  -19.9434  -14.5528 C   0  0  2  0  0  0  0  0  0  0  0  0
   28.1195  -18.6947  -14.3008 N   0  0  0  0  0  0  0  0  0  0  0  0
   26.8999  -20.4413  -13.2475 C   0  0  0  0  0  0  0  0  0  0  0  0
   26.0753  -21.4307  -13.2432 O   0  0  0  0  0  0  0  0  0  0  0  0
   27.2926  -19.8993  -12.0039 N   0  0  0  0  0  0  0  0  0  0  0  0
   26.7084  -20.4151  -10.7805 C   0  0  1  0  0  0  0  0  0  0  0  0
   27.5863  -20.1175   -9.6040 C   0  0  0  0  0  0  0  0  0  0  0  0
   27.0223  -20.3885   -8.2890 C   0  0  0  0  0  0  0  0  0  0  0  0
   25.8269  -21.0934   -8.0815 C   0  0  0  0  0  0  0  0  0  0  0  0
   25.6704  -21.1632   -6.7609 N   0  0  0  0  0  0  0  0  0  0  0  0
   26.6823  -20.5510   -6.0932 C   0  0  0  0  0  0  0  0  0  0  0  0
   26.9498  -20.3599   -4.7513 C   0  0  0  0  0  0  0  0  0  0  0  0
   28.0632  -19.6811   -4.3272 C   0  0  0  0  0  0  0  0  0  0  0  0
   28.9253  -19.1846   -5.2771 C   0  0  0  0  0  0  0  0  0  0  0  0
   28.6446  -19.3838   -6.6143 C   0  0  0  0  0  0  0  0  0  0  0  0
   27.5216  -20.0696   -7.0674 C   0  0  0  0  0  0  0  0  0  0  0  0
   25.3032  -20.0498  -10.6924 C   0  0  0  0  0  0  0  0  0  0  0  0
   25.0287  -18.8008  -10.8060 O   0  0  0  0  0  0  0  0  0  0  0  0
   20.3966  -19.7530  -11.6239 N   0  0  0  0  0  0  0  0  0  0  0  0
   21.2113  -20.5114  -12.5535 C   0  0  0  0  0  0  0  0  0  0  0  0
   20.7335  -20.8485  -13.6506 O   0  0  0  0  0  0  0  0  0  0  0  0
   22.5665  -20.8511  -12.1648 C   0  0  0  0  0  0  0  0  0  0  0  0
   22.8607  -20.4199  -10.7390 C   0  0  2  0  0  0  0  0  0  0  0  0
   24.2262  -20.9432  -10.5017 N   0  0  0  0  0  0  0  0  0  0  0  0
   21.9366  -21.0287   -9.7737 C   0  0  0  0  0  0  0  0  0  0  0  0
   21.0768  -20.2267   -9.0124 O   0  0  0  0  0  0  0  0  0  0  0  0
   21.8825  -22.2554   -9.5954 O   0  0  0  0  0  0  0  0  0  0  0  0
  2  1  1  6
  2  3  1  0
  4  2  1  0
  4  5  1  1
  6  7  2  0
  6  4  1  0
  8  6  1  0
  9  8  1  0
  9 10  1  1
 10 11  1  0
 11 19  1  0
 11 12  2  0
 12 13  1  0
 13 14  1  0
 14 15  2  0
 16 15  1  0
 17 16  2  0
 18 19  2  0
 18 17  1  0
 19 14  1  0
 20 21  2  0
 20  9  1  0
 23 22  1  0
 23 25  1  0
 24 23  2  0
 26 25  1  6
 26 27  1  0
 27 20  1  0
 28 26  1  0
 29 28  1  0
 30 28  2  0
M  END
$$$$
