VWN.pdb
     RDKit          3D

 30 31  0  0  1  0  0  0  0  0999 V2000
   29.5810  -20.7996  -13.8549 C   0  0  0  0  0  0  0  0  0  0  0  0
   28.7761  -20.9687  -12.6149 C   0  0  1  0  0  0  0  0  0  0  0  0
   29.0686  -19.8465  -11.6669 C   0  0  0  0  0  0  0  0  0  0  0  0
   27.2984  -21.1796  -12.8313 C   0  0  2  0  0  0  0  0  0  0  0  0
   26.7952  -19.9647  -13.4961 N   0  0  0  0  0  0  0  0  0  0  0  0
   26.5669  -21.3175  -11.5557 C   0  0  0  0  0  0  0  0  0  0  0  0
   26.6426  -22.4427  -10.9337 O   0  0  0  0  0  0  0  0  0  0  0  0
   25.7912  -20.2895  -10.9759 N   0  0  0  0  0  0  0  0  0  0  0  0
   25.0268  -20.5599   -9.7732 C   0  0  1  0  0  0  0  0  0  0  0  0
   25.2196  -19.4708   -8.7631 C   0  0  0  0  0  0  0  0  0  0  0  0
   26.4933  -19.4591   -8.0572 C   0  0  0  0  0  0  0  0  0  0  0  0
   27.6769  -18.9254   -8.5894 C   0  0  0  0  0  0  0  0  0  0  0  0
   28.5995  -19.0685   -7.6398 N   0  0  0  0  0  0  0  0  0  0  0  0
   28.0980  -19.6599   -6.5249 C   0  0  0  0  0  0  0  0  0  0  0  0
   28.6555  -20.0171   -5.3122 C   0  0  0  0  0  0  0  0  0  0  0  0
   27.9175  -20.6271   -4.3307 C   0  0  0  0  0  0  0  0  0  0  0  0
   26.5886  -20.8823   -4.5775 C   0  0  0  0  0  0  0  0  0  0  0  0
   26.0457  -20.5194   -5.7941 C   0  0  0  0  0  0  0  0  0  0  0  0
   26.7751  -19.8992   -6.8041 C   0  0  0  0  0  0  0  0  0  0  0  0
   23.6649  -20.9444  -10.1097 C   0  0  0  0  0  0  0  0  0  0  0  0
   23.3089  -20.7776  -11.3318 O   0  0  0  0  0  0  0  0  0  0  0  0
   19.1942  -24.4089   -9.4131 N   0  0  0  0  0  0  0  0  0  0  0  0
   19.3948  -23.0413   -8.9744 C   0  0  0  0  0  0  0  0  0  0  0  0
   18.4201  -22.2726   -8.9050 O   0  0  0  0  0  0  0  0  0  0  0  0
   20.7379  -22.6175   -8.6290 C   0  0  0  0  0  0  0  0  0  0  0  0
   21.4086  -21.8976   -9.7855 C   0  0  2  0  0  0  0  0  0  0  0  0
   22.7135  -21.4862   -9.2177 N   0  0  0  0  0  0  0  0  0  0  0  0
   20.6646  -20.7014  -10.2004 C   0  0  0  0  0  0  0  0  0  0  0  0
   19.7375  -20.7710  -11.2481 O   0  0  0  0  0  0  0  0  0  0  0  0
   20.8257  -19.6007   -9.6509 O   0  0  0  0  0  0  0  0  0  0  0  0
  2  1  1  6
  2  3  1  0
  4  2  1  0
  4  5  1  1
  6  7  2  0
  6  4  1  0
  8  6  1  0
  9  8  1  0
  9 10  1  1
 10 11  1  0
 11 19  1  0
 11 12  2  0
 12 13  1  0
 13 14  1  0
 14 15  2  0
 16 15  1  0
 17 16  2  0
 18 19  2  0
 18 17  1  0
 19 14  1  0
 20 21  2  0
 20  9  1  0
 23 22  1  0
 23 25  1  0
 24 23  2  0
 26 25  1  1
 26 27  1  0
 27 20  1  0
 28 26  1  0
 29 28  1  0
 30 28  2  0
M  END
$$$$
