VWN.pdb
     RDKit          3D

 30 31  0  0  1  0  0  0  0  0999 V2000
   24.3196  -19.3433  -14.6020 C   0  0  0  0  0  0  0  0  0  0  0  0
   24.0972  -19.9573  -13.2649 C   0  0  1  0  0  0  0  0  0  0  0  0
   23.2340  -21.1733  -13.4057 C   0  0  0  0  0  0  0  0  0  0  0  0
   25.3467  -20.2185  -12.4615 C   0  0  2  0  0  0  0  0  0  0  0  0
   26.1328  -21.2073  -13.2199 N   0  0  0  0  0  0  0  0  0  0  0  0
   25.0429  -20.8150  -11.1450 C   0  0  0  0  0  0  0  0  0  0  0  0
   25.1033  -22.0967  -11.0333 O   0  0  0  0  0  0  0  0  0  0  0  0
   24.6921  -20.0650  -10.0009 N   0  0  0  0  0  0  0  0  0  0  0  0
   24.5322  -20.7361   -8.7250 C   0  0  1  0  0  0  0  0  0  0  0  0
   25.2788  -20.0140   -7.6459 C   0  0  0  0  0  0  0  0  0  0  0  0
   26.7090  -20.2750   -7.5606 C   0  0  0  0  0  0  0  0  0  0  0  0
   27.4424  -20.9413   -8.5541 C   0  0  0  0  0  0  0  0  0  0  0  0
   28.7047  -20.9504   -8.1298 N   0  0  0  0  0  0  0  0  0  0  0  0
   28.8439  -20.3359   -6.9267 C   0  0  0  0  0  0  0  0  0  0  0  0
   29.9285  -20.1075   -6.1019 C   0  0  0  0  0  0  0  0  0  0  0  0
   29.7983  -19.4554   -4.9028 C   0  0  0  0  0  0  0  0  0  0  0  0
   28.5472  -19.0242   -4.5276 C   0  0  0  0  0  0  0  0  0  0  0  0
   27.4729  -19.2596   -5.3625 C   0  0  0  0  0  0  0  0  0  0  0  0
   27.5817  -19.9186   -6.5834 C   0  0  0  0  0  0  0  0  0  0  0  0
   23.1333  -21.0569   -8.4888 C   0  0  0  0  0  0  0  0  0  0  0  0
   22.2760  -20.1652   -8.8325 O   0  0  0  0  0  0  0  0  0  0  0  0
   18.5918  -23.2058   -7.7935 N   0  0  0  0  0  0  0  0  0  0  0  0
   19.5674  -24.2654   -7.9625 C   0  0  0  0  0  0  0  0  0  0  0  0
   19.1799  -25.4422   -8.0650 O   0  0  0  0  0  0  0  0  0  0  0  0
   20.9724  -23.9089   -8.0065 C   0  0  0  0  0  0  0  0  0  0  0  0
   21.1721  -22.4129   -7.8408 C   0  0  2  0  0  0  0  0  0  0  0  0
   22.6426  -22.2557   -7.9261 N   0  0  0  0  0  0  0  0  0  0  0  0
   20.7111  -21.9335   -6.5316 C   0  0  0  0  0  0  0  0  0  0  0  0
   19.3801  -21.5363   -6.3503 O   0  0  0  0  0  0  0  0  0  0  0  0
   21.4685  -21.8605   -5.5516 O   0  0  0  0  0  0  0  0  0  0  0  0
  2  1  1  6
  2  3  1  0
  4  2  1  0
  4  5  1  6
  6  7  2  0
  6  4  1  0
  8  6  1  0
  9  8  1  0
  9 10  1  1
 10 11  1  0
 11 19  1  0
 11 12  2  0
 12 13  1  0
 13 14  1  0
 14 15  2  0
 16 15  1  0
 17 16  2  0
 18 19  2  0
 18 17  1  0
 19 14  1  0
 20 21  2  0
 20  9  1  0
 23 22  1  0
 23 25  1  0
 24 23  2  0
 26 25  1  1
 26 27  1  0
 27 20  1  0
 28 26  1  0
 29 28  1  0
 30 28  2  0
M  END
$$$$
