VWN.pdb
     RDKit          3D

 30 31  0  0  1  0  0  0  0  0999 V2000
   29.1703  -20.6628  -16.1382 C   0  0  0  0  0  0  0  0  0  0  0  0
   28.2841  -21.1113  -15.0301 C   0  0  1  0  0  0  0  0  0  0  0  0
   29.0033  -20.9758  -13.7231 C   0  0  0  0  0  0  0  0  0  0  0  0
   26.9128  -20.4837  -15.0093 C   0  0  2  0  0  0  0  0  0  0  0  0
   27.1202  -19.0274  -14.9251 N   0  0  0  0  0  0  0  0  0  0  0  0
   26.1383  -20.8868  -13.8181 C   0  0  0  0  0  0  0  0  0  0  0  0
   25.7395  -22.1091  -13.7412 O   0  0  0  0  0  0  0  0  0  0  0  0
   25.8103  -20.0137  -12.7577 N   0  0  0  0  0  0  0  0  0  0  0  0
   24.9407  -20.4749  -11.6923 C   0  0  1  0  0  0  0  0  0  0  0  0
   25.3881  -19.9360  -10.3683 C   0  0  0  0  0  0  0  0  0  0  0  0
   26.6350  -20.4701   -9.8386 C   0  0  0  0  0  0  0  0  0  0  0  0
   27.5171  -21.2737  -10.5768 C   0  0  0  0  0  0  0  0  0  0  0  0
   28.5438  -21.5256   -9.7670 N   0  0  0  0  0  0  0  0  0  0  0  0
   28.3909  -20.9411   -8.5507 C   0  0  0  0  0  0  0  0  0  0  0  0
   29.1655  -20.9225   -7.4069 C   0  0  0  0  0  0  0  0  0  0  0  0
   28.7714  -20.2487   -6.2796 C   0  0  0  0  0  0  0  0  0  0  0  0
   27.5700  -19.5792   -6.3066 C   0  0  0  0  0  0  0  0  0  0  0  0
   26.8070  -19.6069   -7.4571 C   0  0  0  0  0  0  0  0  0  0  0  0
   27.1872  -20.2833   -8.6123 C   0  0  0  0  0  0  0  0  0  0  0  0
   23.5446  -20.3022  -12.0621 C   0  0  0  0  0  0  0  0  0  0  0  0
   23.3164  -19.6626  -13.1517 O   0  0  0  0  0  0  0  0  0  0  0  0
   20.8446  -20.6579  -14.7454 N   0  0  0  0  0  0  0  0  0  0  0  0
   21.4073  -21.9472  -14.3933 C   0  0  0  0  0  0  0  0  0  0  0  0
   21.6849  -22.7591  -15.2930 O   0  0  0  0  0  0  0  0  0  0  0  0
   21.6279  -22.2440  -12.9911 C   0  0  0  0  0  0  0  0  0  0  0  0
   21.2022  -21.0874  -12.1042 C   0  0  2  0  0  0  0  0  0  0  0  0
   22.4309  -20.7791  -11.3362 N   0  0  0  0  0  0  0  0  0  0  0  0
   20.1336  -21.4678  -11.1716 C   0  0  0  0  0  0  0  0  0  0  0  0
   20.4321  -22.1834  -10.0050 O   0  0  0  0  0  0  0  0  0  0  0  0
   18.9448  -21.1777  -11.3765 O   0  0  0  0  0  0  0  0  0  0  0  0
  2  1  1  6
  2  3  1  0
  4  2  1  0
  4  5  1  1
  6  7  2  0
  6  4  1  0
  8  6  1  0
  9  8  1  0
  9 10  1  1
 10 11  1  0
 11 19  1  0
 11 12  2  0
 12 13  1  0
 13 14  1  0
 14 15  2  0
 16 15  1  0
 17 16  2  0
 18 19  2  0
 18 17  1  0
 19 14  1  0
 20 21  2  0
 20  9  1  0
 23 22  1  0
 23 25  1  0
 24 23  2  0
 26 25  1  6
 26 27  1  0
 27 20  1  0
 28 26  1  0
 29 28  1  0
 30 28  2  0
M  END
$$$$
