VWN.pdb
     RDKit          3D

 30 31  0  0  1  0  0  0  0  0999 V2000
   27.0987  -18.8062  -16.1169 C   0  0  0  0  0  0  0  0  0  0  0  0
   26.4518  -19.3338  -14.8850 C   0  0  1  0  0  0  0  0  0  0  0  0
   25.0323  -19.7085  -15.1819 C   0  0  0  0  0  0  0  0  0  0  0  0
   27.2097  -20.4309  -14.1803 C   0  0  2  0  0  0  0  0  0  0  0  0
   27.0332  -21.6488  -14.9907 N   0  0  0  0  0  0  0  0  0  0  0  0
   26.6573  -20.7114  -12.8396 C   0  0  0  0  0  0  0  0  0  0  0  0
   25.7135  -21.5825  -12.7444 O   0  0  0  0  0  0  0  0  0  0  0  0
   27.1028  -20.0835  -11.6555 N   0  0  0  0  0  0  0  0  0  0  0  0
   26.5176  -20.4574  -10.3821 C   0  0  1  0  0  0  0  0  0  0  0  0
   27.3217  -19.9075   -9.2443 C   0  0  0  0  0  0  0  0  0  0  0  0
   26.9037  -20.3000   -7.9056 C   0  0  0  0  0  0  0  0  0  0  0  0
   25.8045  -21.1314   -7.6423 C   0  0  0  0  0  0  0  0  0  0  0  0
   25.7718  -21.2831   -6.3197 N   0  0  0  0  0  0  0  0  0  0  0  0
   26.7747  -20.6065   -5.7027 C   0  0  0  0  0  0  0  0  0  0  0  0
   27.1392  -20.4573   -4.3784 C   0  0  0  0  0  0  0  0  0  0  0  0
   28.2149  -19.6920   -4.0080 C   0  0  0  0  0  0  0  0  0  0  0  0
   28.9388  -19.0638   -4.9947 C   0  0  0  0  0  0  0  0  0  0  0  0
   28.5624  -19.2226   -6.3137 C   0  0  0  0  0  0  0  0  0  0  0  0
   27.4752  -19.9944   -6.7125 C   0  0  0  0  0  0  0  0  0  0  0  0
   25.0843  -20.2095  -10.3865 C   0  0  0  0  0  0  0  0  0  0  0  0
   24.7085  -19.0324  -10.7352 O   0  0  0  0  0  0  0  0  0  0  0  0
   20.5336  -19.9075  -12.6114 N   0  0  0  0  0  0  0  0  0  0  0  0
   20.9489  -21.1364  -11.9630 C   0  0  0  0  0  0  0  0  0  0  0  0
   20.1011  -22.0087  -11.7066 O   0  0  0  0  0  0  0  0  0  0  0  0
   22.3516  -21.3035  -11.6352 C   0  0  0  0  0  0  0  0  0  0  0  0
   22.6736  -20.7369  -10.2638 C   0  0  2  0  0  0  0  0  0  0  0  0
   24.0815  -21.1453  -10.0504 N   0  0  0  0  0  0  0  0  0  0  0  0
   21.8362  -21.3246   -9.2104 C   0  0  0  0  0  0  0  0  0  0  0  0
   22.4201  -22.0391   -8.1565 O   0  0  0  0  0  0  0  0  0  0  0  0
   20.6003  -21.2156   -9.2123 O   0  0  0  0  0  0  0  0  0  0  0  0
  2  1  1  6
  2  3  1  0
  4  2  1  0
  4  5  1  6
  6  7  2  0
  6  4  1  0
  8  6  1  0
  9  8  1  0
  9 10  1  1
 10 11  1  0
 11 19  1  0
 11 12  2  0
 12 13  1  0
 13 14  1  0
 14 15  2  0
 16 15  1  0
 17 16  2  0
 18 19  2  0
 18 17  1  0
 19 14  1  0
 20 21  2  0
 20  9  1  0
 23 22  1  0
 23 25  1  0
 24 23  2  0
 26 25  1  6
 26 27  1  0
 27 20  1  0
 28 26  1  0
 29 28  1  0
 30 28  2  0
M  END
$$$$
