VWN.pdb
     RDKit          3D

 30 31  0  0  1  0  0  0  0  0999 V2000
   28.5519  -18.7488  -16.0081 C   0  0  0  0  0  0  0  0  0  0  0  0
   27.7111  -19.2322  -14.8795 C   0  0  1  0  0  0  0  0  0  0  0  0
   26.2634  -19.1336  -15.2511 C   0  0  0  0  0  0  0  0  0  0  0  0
   28.0828  -20.5891  -14.3360 C   0  0  2  0  0  0  0  0  0  0  0  0
   27.6275  -21.5772  -15.3296 N   0  0  0  0  0  0  0  0  0  0  0  0
   27.3855  -20.8870  -13.0686 C   0  0  0  0  0  0  0  0  0  0  0  0
   26.2489  -21.4896  -13.1308 O   0  0  0  0  0  0  0  0  0  0  0  0
   27.8905  -20.5529  -11.7927 N   0  0  0  0  0  0  0  0  0  0  0  0
   27.0957  -20.8312  -10.6117 C   0  0  1  0  0  0  0  0  0  0  0  0
   27.9030  -20.6291   -9.3664 C   0  0  0  0  0  0  0  0  0  0  0  0
   27.1598  -20.5596   -8.1159 C   0  0  0  0  0  0  0  0  0  0  0  0
   25.8159  -20.9407   -7.9833 C   0  0  0  0  0  0  0  0  0  0  0  0
   25.5138  -20.7669   -6.6980 N   0  0  0  0  0  0  0  0  0  0  0  0
   26.5693  -20.2978   -5.9837 C   0  0  0  0  0  0  0  0  0  0  0  0
   26.7368  -19.9636   -4.6537 C   0  0  0  0  0  0  0  0  0  0  0  0
   27.9310  -19.4910   -4.1735 C   0  0  0  0  0  0  0  0  0  0  0  0
   28.9789  -19.3525   -5.0538 C   0  0  0  0  0  0  0  0  0  0  0  0
   28.7962  -19.6908   -6.3800 C   0  0  0  0  0  0  0  0  0  0  0  0
   27.5940  -20.1726   -6.8890 C   0  0  0  0  0  0  0  0  0  0  0  0
   25.8020  -20.1721  -10.7001 C   0  0  0  0  0  0  0  0  0  0  0  0
   25.8110  -18.9409  -11.0639 O   0  0  0  0  0  0  0  0  0  0  0  0
   21.3710  -19.2670  -12.6598 N   0  0  0  0  0  0  0  0  0  0  0  0
   22.4842  -19.9002  -13.3402 C   0  0  0  0  0  0  0  0  0  0  0  0
   22.4552  -20.0218  -14.5771 O   0  0  0  0  0  0  0  0  0  0  0  0
   23.6009  -20.3721  -12.5444 C   0  0  0  0  0  0  0  0  0  0  0  0
   23.3578  -20.1551  -11.0614 C   0  0  2  0  0  0  0  0  0  0  0  0
   24.5500  -20.7668  -10.4295 N   0  0  0  0  0  0  0  0  0  0  0  0
   22.1527  -20.8490  -10.5896 C   0  0  0  0  0  0  0  0  0  0  0  0
   22.2195  -22.1867  -10.1794 O   0  0  0  0  0  0  0  0  0  0  0  0
   21.0467  -20.2893  -10.5379 O   0  0  0  0  0  0  0  0  0  0  0  0
  2  1  1  6
  2  3  1  0
  4  2  1  0
  4  5  1  6
  6  7  2  0
  6  4  1  0
  8  6  1  0
  9  8  1  0
  9 10  1  1
 10 11  1  0
 11 19  1  0
 11 12  2  0
 12 13  1  0
 13 14  1  0
 14 15  2  0
 16 15  1  0
 17 16  2  0
 18 19  2  0
 18 17  1  0
 19 14  1  0
 20 21  2  0
 20  9  1  0
 23 22  1  0
 23 25  1  0
 24 23  2  0
 26 25  1  6
 26 27  1  0
 27 20  1  0
 28 26  1  0
 29 28  1  0
 30 28  2  0
M  END
$$$$
