VWN.pdb
     RDKit          3D

 30 31  0  0  1  0  0  0  0  0999 V2000
   28.3472  -18.2961  -15.9324 C   0  0  0  0  0  0  0  0  0  0  0  0
   27.6418  -18.9188  -14.7796 C   0  0  1  0  0  0  0  0  0  0  0  0
   26.1728  -18.9860  -15.0641 C   0  0  0  0  0  0  0  0  0  0  0  0
   28.2074  -20.2379  -14.3162 C   0  0  2  0  0  0  0  0  0  0  0  0
   27.8893  -21.2217  -15.3660 N   0  0  0  0  0  0  0  0  0  0  0  0
   27.5699  -20.7051  -13.0685 C   0  0  0  0  0  0  0  0  0  0  0  0
   26.5550  -21.4920  -13.1658 O   0  0  0  0  0  0  0  0  0  0  0  0
   28.0070  -20.3426  -11.7755 N   0  0  0  0  0  0  0  0  0  0  0  0
   27.2809  -20.8187  -10.6136 C   0  0  1  0  0  0  0  0  0  0  0  0
   28.0826  -20.6167   -9.3646 C   0  0  0  0  0  0  0  0  0  0  0  0
   27.3424  -20.6255   -8.1104 C   0  0  0  0  0  0  0  0  0  0  0  0
   26.0286  -21.1008   -7.9816 C   0  0  0  0  0  0  0  0  0  0  0  0
   25.7215  -20.9760   -6.6919 N   0  0  0  0  0  0  0  0  0  0  0  0
   26.7457  -20.4509   -5.9710 C   0  0  0  0  0  0  0  0  0  0  0  0
   26.8964  -20.1348   -4.6346 C   0  0  0  0  0  0  0  0  0  0  0  0
   28.0576  -19.5915   -4.1482 C   0  0  0  0  0  0  0  0  0  0  0  0
   29.0892  -19.3624   -5.0288 C   0  0  0  0  0  0  0  0  0  0  0  0
   28.9237  -19.6837   -6.3614 C   0  0  0  0  0  0  0  0  0  0  0  0
   27.7550  -20.2360   -6.8768 C   0  0  0  0  0  0  0  0  0  0  0  0
   25.9114  -20.3287  -10.6314 C   0  0  0  0  0  0  0  0  0  0  0  0
   25.7593  -19.0544  -10.5946 O   0  0  0  0  0  0  0  0  0  0  0  0
   21.3737  -20.6363  -14.1263 N   0  0  0  0  0  0  0  0  0  0  0  0
   21.8945  -20.2539  -12.8280 C   0  0  0  0  0  0  0  0  0  0  0  0
   21.3377  -19.3434  -12.1903 O   0  0  0  0  0  0  0  0  0  0  0  0
   23.0563  -20.9552  -12.3169 C   0  0  0  0  0  0  0  0  0  0  0  0
   23.4635  -20.4343  -10.9500 C   0  0  2  0  0  0  0  0  0  0  0  0
   24.7477  -21.1264  -10.6923 N   0  0  0  0  0  0  0  0  0  0  0  0
   22.4990  -20.8033   -9.9060 C   0  0  0  0  0  0  0  0  0  0  0  0
   21.3444  -20.0362   -9.7044 O   0  0  0  0  0  0  0  0  0  0  0  0
   22.6658  -21.7900   -9.1727 O   0  0  0  0  0  0  0  0  0  0  0  0
  2  1  1  6
  2  3  1  0
  4  2  1  0
  4  5  1  6
  6  7  2  0
  6  4  1  0
  8  6  1  0
  9  8  1  0
  9 10  1  1
 10 11  1  0
 11 19  1  0
 11 12  2  0
 12 13  1  0
 13 14  1  0
 14 15  2  0
 16 15  1  0
 17 16  2  0
 18 19  2  0
 18 17  1  0
 19 14  1  0
 20 21  2  0
 20  9  1  0
 23 22  1  0
 23 25  1  0
 24 23  2  0
 26 25  1  6
 26 27  1  0
 27 20  1  0
 28 26  1  0
 29 28  1  0
 30 28  2  0
M  END
$$$$
