VWN.pdb
     RDKit          3D

 30 31  0  0  1  0  0  0  0  0999 V2000
   17.8364   -8.4905  -20.3769 C   0  0  0  0  0  0  0  0  0  0  0  0
   18.0037   -9.8818  -19.8763 C   0  0  1  0  0  0  0  0  0  0  0  0
   17.7931  -10.8504  -20.9992 C   0  0  0  0  0  0  0  0  0  0  0  0
   19.2784  -10.1415  -19.1130 C   0  0  2  0  0  0  0  0  0  0  0  0
   19.1962  -11.5277  -18.6204 N   0  0  0  0  0  0  0  0  0  0  0  0
   19.4049   -9.2626  -17.9328 C   0  0  0  0  0  0  0  0  0  0  0  0
   18.6347   -9.4880  -16.9254 O   0  0  0  0  0  0  0  0  0  0  0  0
   20.3206   -8.1913  -17.8414 N   0  0  0  0  0  0  0  0  0  0  0  0
   20.3874   -7.4072  -16.6230 C   0  0  1  0  0  0  0  0  0  0  0  0
   21.8037   -7.2671  -16.1564 C   0  0  0  0  0  0  0  0  0  0  0  0
   22.3007   -8.3101  -15.2699 C   0  0  0  0  0  0  0  0  0  0  0  0
   23.3318   -9.1990  -15.6099 C   0  0  0  0  0  0  0  0  0  0  0  0
   23.5189   -9.9662  -14.5376 N   0  0  0  0  0  0  0  0  0  0  0  0
   22.6794   -9.6383  -13.5217 C   0  0  0  0  0  0  0  0  0  0  0  0
   22.4957  -10.1405  -12.2478 C   0  0  0  0  0  0  0  0  0  0  0  0
   21.5493   -9.6264  -11.3992 C   0  0  0  0  0  0  0  0  0  0  0  0
   20.7714   -8.5833  -11.8451 C   0  0  0  0  0  0  0  0  0  0  0  0
   20.9668   -8.0920  -13.1206 C   0  0  0  0  0  0  0  0  0  0  0  0
   21.9211   -8.5976  -13.9984 C   0  0  0  0  0  0  0  0  0  0  0  0
   19.5885   -6.1983  -16.7495 C   0  0  0  0  0  0  0  0  0  0  0  0
   19.6430   -5.5923  -17.8800 O   0  0  0  0  0  0  0  0  0  0  0  0
   16.5989   -2.7427  -18.4136 N   0  0  0  0  0  0  0  0  0  0  0  0
   16.1427   -3.8284  -17.5672 C   0  0  0  0  0  0  0  0  0  0  0  0
   14.9629   -3.8435  -17.1756 O   0  0  0  0  0  0  0  0  0  0  0  0
   17.0890   -4.8662  -17.2063 C   0  0  0  0  0  0  0  0  0  0  0  0
   18.0134   -4.4123  -16.0905 C   0  0  2  0  0  0  0  0  0  0  0  0
   18.7613   -5.6442  -15.7478 N   0  0  0  0  0  0  0  0  0  0  0  0
   17.2724   -3.9537  -14.9085 C   0  0  0  0  0  0  0  0  0  0  0  0
   17.0593   -2.5863  -14.6917 O   0  0  0  0  0  0  0  0  0  0  0  0
   16.8152   -4.7443  -14.0687 O   0  0  0  0  0  0  0  0  0  0  0  0
  2  1  1  6
  2  3  1  0
  4  2  1  0
  4  5  1  1
  6  7  2  0
  6  4  1  0
  8  6  1  0
  9  8  1  0
  9 10  1  6
 10 11  1  0
 11 19  1  0
 11 12  2  0
 12 13  1  0
 13 14  1  0
 14 15  2  0
 16 15  1  0
 17 16  2  0
 18 19  2  0
 18 17  1  0
 19 14  1  0
 20 21  2  0
 20  9  1  0
 23 22  1  0
 23 25  1  0
 24 23  2  0
 26 25  1  6
 26 27  1  0
 27 20  1  0
 28 26  1  0
 29 28  1  0
 30 28  2  0
M  END
$$$$
