VWN.pdb
     RDKit          3D

 30 31  0  0  1  0  0  0  0  0999 V2000
   27.0300  -22.3073  -16.5006 C   0  0  0  0  0  0  0  0  0  0  0  0
   28.0904  -21.3410  -16.8959 C   0  0  1  0  0  0  0  0  0  0  0  0
   29.3393  -22.0838  -17.2592 C   0  0  0  0  0  0  0  0  0  0  0  0
   27.6847  -20.3343  -17.9432 C   0  0  2  0  0  0  0  0  0  0  0  0
   28.8708  -19.4994  -18.2028 N   0  0  0  0  0  0  0  0  0  0  0  0
   26.6133  -19.4383  -17.4630 C   0  0  0  0  0  0  0  0  0  0  0  0
   26.9260  -18.5233  -16.6123 O   0  0  0  0  0  0  0  0  0  0  0  0
   25.2672  -19.5230  -17.8818 N   0  0  0  0  0  0  0  0  0  0  0  0
   24.2870  -18.6045  -17.3345 C   0  0  1  0  0  0  0  0  0  0  0  0
   23.8212  -17.6375  -18.3792 C   0  0  0  0  0  0  0  0  0  0  0  0
   22.7639  -16.7168  -17.9854 C   0  0  0  0  0  0  0  0  0  0  0  0
   22.8407  -15.8700  -16.8692 C   0  0  0  0  0  0  0  0  0  0  0  0
   21.7092  -15.1678  -16.8670 N   0  0  0  0  0  0  0  0  0  0  0  0
   20.8996  -15.4996  -17.9056 C   0  0  0  0  0  0  0  0  0  0  0  0
   19.6528  -15.0623  -18.3094 C   0  0  0  0  0  0  0  0  0  0  0  0
   19.0309  -15.5787  -19.4170 C   0  0  0  0  0  0  0  0  0  0  0  0
   19.6808  -16.5571  -20.1329 C   0  0  0  0  0  0  0  0  0  0  0  0
   20.9265  -16.9837  -19.7171 C   0  0  0  0  0  0  0  0  0  0  0  0
   21.5764  -16.4738  -18.5972 C   0  0  0  0  0  0  0  0  0  0  0  0
   23.2779  -19.3273  -16.5761 C   0  0  0  0  0  0  0  0  0  0  0  0
   22.9853  -20.5062  -16.9918 O   0  0  0  0  0  0  0  0  0  0  0  0
   19.7826  -21.0817  -13.3351 N   0  0  0  0  0  0  0  0  0  0  0  0
   20.7186  -20.2487  -12.6048 C   0  0  0  0  0  0  0  0  0  0  0  0
   20.6446  -20.1883  -11.3653 O   0  0  0  0  0  0  0  0  0  0  0  0
   21.7160  -19.5105  -13.3553 C   0  0  0  0  0  0  0  0  0  0  0  0
   21.5533  -19.7182  -14.8505 C   0  0  2  0  0  0  0  0  0  0  0  0
   22.6050  -18.8505  -15.4297 N   0  0  0  0  0  0  0  0  0  0  0  0
   20.2401  -19.2717  -15.3328 C   0  0  0  0  0  0  0  0  0  0  0  0
   19.2465  -20.2062  -15.6514 O   0  0  0  0  0  0  0  0  0  0  0  0
   19.9636  -18.0708  -15.4768 O   0  0  0  0  0  0  0  0  0  0  0  0
  2  1  1  6
  2  3  1  0
  4  2  1  0
  4  5  1  1
  6  7  2  0
  6  4  1  0
  8  6  1  0
  9  8  1  0
  9 10  1  6
 10 11  1  0
 11 19  1  0
 11 12  2  0
 12 13  1  0
 13 14  1  0
 14 15  2  0
 16 15  1  0
 17 16  2  0
 18 19  2  0
 18 17  1  0
 19 14  1  0
 20 21  2  0
 20  9  1  0
 23 22  1  0
 23 25  1  0
 24 23  2  0
 26 25  1  1
 26 27  1  0
 27 20  1  0
 28 26  1  0
 29 28  1  0
 30 28  2  0
M  END
$$$$
