VWN.pdb
     RDKit          3D

 30 31  0  0  1  0  0  0  0  0999 V2000
   27.6417  -18.3770  -14.7060 C   0  0  0  0  0  0  0  0  0  0  0  0
   28.0100  -19.6065  -15.4589 C   0  0  1  0  0  0  0  0  0  0  0  0
   28.8543  -19.2400  -16.6407 C   0  0  0  0  0  0  0  0  0  0  0  0
   28.6152  -20.7113  -14.6295 C   0  0  2  0  0  0  0  0  0  0  0  0
   28.6028  -21.9209  -15.4707 N   0  0  0  0  0  0  0  0  0  0  0  0
   27.8097  -21.0042  -13.4267 C   0  0  0  0  0  0  0  0  0  0  0  0
   26.7274  -21.6865  -13.5750 O   0  0  0  0  0  0  0  0  0  0  0  0
   28.1556  -20.5832  -12.1238 N   0  0  0  0  0  0  0  0  0  0  0  0
   27.2807  -20.9017  -11.0116 C   0  0  1  0  0  0  0  0  0  0  0  0
   28.0062  -20.7693   -9.7079 C   0  0  0  0  0  0  0  0  0  0  0  0
   27.1809  -20.5886   -8.5218 C   0  0  0  0  0  0  0  0  0  0  0  0
   25.7935  -20.7971   -8.4959 C   0  0  0  0  0  0  0  0  0  0  0  0
   25.4146  -20.5674   -7.2401 N   0  0  0  0  0  0  0  0  0  0  0  0
   26.4607  -20.2228   -6.4455 C   0  0  0  0  0  0  0  0  0  0  0  0
   26.5629  -19.8919   -5.1080 C   0  0  0  0  0  0  0  0  0  0  0  0
   27.7651  -19.5646   -4.5356 C   0  0  0  0  0  0  0  0  0  0  0  0
   28.8885  -19.5714   -5.3294 C   0  0  0  0  0  0  0  0  0  0  0  0
   28.7705  -19.9043   -6.6642 C   0  0  0  0  0  0  0  0  0  0  0  0
   27.5615  -20.2402   -7.2659 C   0  0  0  0  0  0  0  0  0  0  0  0
   26.0045  -20.2183  -11.1541 C   0  0  0  0  0  0  0  0  0  0  0  0
   26.0541  -18.9695  -11.4477 O   0  0  0  0  0  0  0  0  0  0  0  0
   23.1677  -19.3823  -15.3625 N   0  0  0  0  0  0  0  0  0  0  0  0
   22.9414  -19.4960  -13.9345 C   0  0  0  0  0  0  0  0  0  0  0  0
   21.8771  -19.0752  -13.4491 O   0  0  0  0  0  0  0  0  0  0  0  0
   23.9752  -20.1027  -13.1184 C   0  0  0  0  0  0  0  0  0  0  0  0
   23.5862  -20.1205  -11.6508 C   0  0  2  0  0  0  0  0  0  0  0  0
   24.7294  -20.8069  -11.0054 N   0  0  0  0  0  0  0  0  0  0  0  0
   22.3615  -20.8946  -11.4111 C   0  0  0  0  0  0  0  0  0  0  0  0
   21.1885  -20.2540  -10.9917 O   0  0  0  0  0  0  0  0  0  0  0  0
   22.3176  -22.1248  -11.5657 O   0  0  0  0  0  0  0  0  0  0  0  0
  2  1  1  1
  2  3  1  0
  4  2  1  0
  4  5  1  6
  6  7  2  0
  6  4  1  0
  8  6  1  0
  9  8  1  0
  9 10  1  1
 10 11  1  0
 11 19  1  0
 11 12  2  0
 12 13  1  0
 13 14  1  0
 14 15  2  0
 16 15  1  0
 17 16  2  0
 18 19  2  0
 18 17  1  0
 19 14  1  0
 20 21  2  0
 20  9  1  0
 23 22  1  0
 23 25  1  0
 24 23  2  0
 26 25  1  6
 26 27  1  0
 27 20  1  0
 28 26  1  0
 29 28  1  0
 30 28  2  0
M  END
$$$$
