VWN.pdb
     RDKit          3D

 30 31  0  0  1  0  0  0  0  0999 V2000
   28.5887  -19.8586  -17.1494 C   0  0  0  0  0  0  0  0  0  0  0  0
   27.7584  -20.2093  -15.9653 C   0  0  1  0  0  0  0  0  0  0  0  0
   26.3510  -20.4818  -16.3994 C   0  0  0  0  0  0  0  0  0  0  0  0
   28.3195  -21.2993  -15.0868 C   0  0  2  0  0  0  0  0  0  0  0  0
   28.1470  -22.5626  -15.8252 N   0  0  0  0  0  0  0  0  0  0  0  0
   27.5733  -21.4262  -13.8185 C   0  0  0  0  0  0  0  0  0  0  0  0
   26.6638  -22.3348  -13.7403 O   0  0  0  0  0  0  0  0  0  0  0  0
   27.7981  -20.6129  -12.6860 N   0  0  0  0  0  0  0  0  0  0  0  0
   27.0415  -20.8502  -11.4715 C   0  0  1  0  0  0  0  0  0  0  0  0
   27.7508  -20.2800  -10.2819 C   0  0  0  0  0  0  0  0  0  0  0  0
   27.0710  -20.4051   -9.0001 C   0  0  0  0  0  0  0  0  0  0  0  0
   25.7366  -20.8156   -8.8600 C   0  0  0  0  0  0  0  0  0  0  0  0
   25.4987  -20.8382   -7.5499 N   0  0  0  0  0  0  0  0  0  0  0  0
   26.5872  -20.4697   -6.8263 C   0  0  0  0  0  0  0  0  0  0  0  0
   26.8202  -20.3354   -5.4711 C   0  0  0  0  0  0  0  0  0  0  0  0
   28.0355  -19.9270   -4.9850 C   0  0  0  0  0  0  0  0  0  0  0  0
   29.0375  -19.6482   -5.8852 C   0  0  0  0  0  0  0  0  0  0  0  0
   28.7897  -19.7872   -7.2364 C   0  0  0  0  0  0  0  0  0  0  0  0
   27.5649  -20.2005   -7.7520 C   0  0  0  0  0  0  0  0  0  0  0  0
   25.6431  -20.4992  -11.6644 C   0  0  0  0  0  0  0  0  0  0  0  0
   25.4014  -19.2921  -12.0285 O   0  0  0  0  0  0  0  0  0  0  0  0
   23.4048  -23.7062  -14.2255 N   0  0  0  0  0  0  0  0  0  0  0  0
   23.0202  -22.3542  -13.8689 C   0  0  0  0  0  0  0  0  0  0  0  0
   23.0956  -21.4524  -14.7213 O   0  0  0  0  0  0  0  0  0  0  0  0
   22.5567  -22.1024  -12.5180 C   0  0  0  0  0  0  0  0  0  0  0  0
   23.2141  -20.8687  -11.9254 C   0  0  2  0  0  0  0  0  0  0  0  0
   24.5412  -21.3659  -11.4940 N   0  0  0  0  0  0  0  0  0  0  0  0
   22.4862  -20.3601  -10.7558 C   0  0  0  0  0  0  0  0  0  0  0  0
   21.6597  -19.2349  -10.8693 O   0  0  0  0  0  0  0  0  0  0  0  0
   22.5739  -20.8955   -9.6401 O   0  0  0  0  0  0  0  0  0  0  0  0
  2  1  1  6
  2  3  1  0
  4  2  1  0
  4  5  1  6
  6  7  2  0
  6  4  1  0
  8  6  1  0
  9  8  1  0
  9 10  1  1
 10 11  1  0
 11 19  1  0
 11 12  2  0
 12 13  1  0
 13 14  1  0
 14 15  2  0
 16 15  1  0
 17 16  2  0
 18 19  2  0
 18 17  1  0
 19 14  1  0
 20 21  2  0
 20  9  1  0
 23 22  1  0
 23 25  1  0
 24 23  2  0
 26 25  1  1
 26 27  1  0
 27 20  1  0
 28 26  1  0
 29 28  1  0
 30 28  2  0
M  END
$$$$
