VEL.pdb
     RDKit          3D

 25 24  0  0  1  0  0  0  0  0999 V2000
    7.3927  -14.7470   18.0129 C   0  0  0  0  0  0  0  0  0  0  0  0
    7.8897  -13.5072   18.6761 C   0  0  2  0  0  0  0  0  0  0  0  0
    8.4262  -12.5938   17.5748 C   0  0  0  0  0  0  0  0  0  0  0  0
    8.9870  -13.7132   19.6575 C   0  0  2  0  0  0  0  0  0  0  0  0
   10.0788  -14.4002   19.0373 N   0  0  0  0  0  0  0  0  0  0  0  0
    8.5602  -14.4694   20.8629 C   0  0  0  0  0  0  0  0  0  0  0  0
    7.5280  -14.1924   21.5103 O   0  0  0  0  0  0  0  0  0  0  0  0
    9.3594  -15.5415   21.2860 N   0  0  0  0  0  0  0  0  0  0  0  0
    9.0179  -16.4278   22.4162 C   0  0  1  0  0  0  0  0  0  0  0  0
    9.9521  -17.6025   22.3814 C   0  0  0  0  0  0  0  0  0  0  0  0
    9.7128  -18.5169   21.2193 C   0  0  0  0  0  0  0  0  0  0  0  0
   10.6787  -19.6443   21.2044 C   0  0  0  0  0  0  0  0  0  0  0  0
   10.6138  -20.4871   20.2939 O   0  0  0  0  0  0  0  0  0  0  0  0
    9.0371  -15.6807   23.6824 C   0  0  0  0  0  0  0  0  0  0  0  0
   10.1703  -15.2554   24.0770 O   0  0  0  0  0  0  0  0  0  0  0  0
   11.6269  -19.7439   22.1890 O   0  0  0  0  0  0  0  0  0  0  0  0
    8.3179  -11.9567   26.8612 C   0  0  0  0  0  0  0  0  0  0  0  0
    7.1036  -12.8437   27.1501 C   0  0  1  0  0  0  0  0  0  0  0  0
    5.8797  -11.9392   27.3397 C   0  0  0  0  0  0  0  0  0  0  0  0
    6.8961  -13.7838   26.0047 C   0  0  0  0  0  0  0  0  0  0  0  0
    8.1012  -14.6195   25.7379 C   0  0  2  0  0  0  0  0  0  0  0  0
    7.9297  -15.3813   24.4996 N   0  0  0  0  0  0  0  0  0  0  0  0
    8.3573  -15.5432   26.8411 C   0  0  0  0  0  0  0  0  0  0  0  0
    8.1462  -16.9124   26.7512 O   0  0  0  0  0  0  0  0  0  0  0  0
    8.7970  -15.0543   27.9453 O   0  0  0  0  0  0  0  0  0  0  0  0
  2  1  1  6
  2  3  1  0
  4  2  1  0
  4  5  1  6
  6  4  1  0
  6  7  2  0
  8  6  1  0
  9  8  1  0
  9 10  1  1
 11 10  1  0
 12 11  1  0
 13 12  2  0
 14  9  1  0
 15 14  2  0
 16 12  1  0
 18 17  1  6
 18 20  1  0
 19 18  1  0
 21 20  1  1
 21 23  1  0
 21 22  1  0
 22 14  1  0
 23 24  1  0
 25 23  2  0
M  END
$$$$
