VEL.pdb
     RDKit          3D

 25 24  0  0  1  0  0  0  0  0999 V2000
    7.3768  -12.5803   20.5853 C   0  0  0  0  0  0  0  0  0  0  0  0
    8.5850  -13.1191   19.8971 C   0  0  2  0  0  0  0  0  0  0  0  0
    8.7079  -12.3818   18.5642 C   0  0  0  0  0  0  0  0  0  0  0  0
    8.5445  -14.5747   19.5985 C   0  0  2  0  0  0  0  0  0  0  0  0
    7.4743  -14.8612   18.6923 N   0  0  0  0  0  0  0  0  0  0  0  0
    8.3906  -15.4173   20.8124 C   0  0  0  0  0  0  0  0  0  0  0  0
    7.2845  -15.8384   21.2131 O   0  0  0  0  0  0  0  0  0  0  0  0
    9.5456  -15.7497   21.5351 N   0  0  0  0  0  0  0  0  0  0  0  0
    9.5581  -16.6670   22.6919 C   0  0  1  0  0  0  0  0  0  0  0  0
   10.7240  -17.5990   22.5304 C   0  0  0  0  0  0  0  0  0  0  0  0
   10.8371  -18.6049   23.6346 C   0  0  0  0  0  0  0  0  0  0  0  0
   12.0339  -19.4673   23.4664 C   0  0  0  0  0  0  0  0  0  0  0  0
   12.1923  -20.0841   22.3997 O   0  0  0  0  0  0  0  0  0  0  0  0
    9.5632  -15.9093   23.9519 C   0  0  0  0  0  0  0  0  0  0  0  0
   10.5375  -15.1104   24.1336 O   0  0  0  0  0  0  0  0  0  0  0  0
   12.9468  -19.5739   24.4831 O   0  0  0  0  0  0  0  0  0  0  0  0
    5.8814  -12.6992   26.2736 C   0  0  0  0  0  0  0  0  0  0  0  0
    7.2031  -13.3147   25.8054 C   0  0  1  0  0  0  0  0  0  0  0  0
    8.3170  -12.2813   26.0138 C   0  0  0  0  0  0  0  0  0  0  0  0
    7.4763  -14.5557   26.5953 C   0  0  0  0  0  0  0  0  0  0  0  0
    8.7643  -15.1975   26.2062 C   0  0  2  0  0  0  0  0  0  0  0  0
    8.5971  -15.9714   24.9749 N   0  0  0  0  0  0  0  0  0  0  0  0
    9.2568  -16.0761   27.2651 C   0  0  0  0  0  0  0  0  0  0  0  0
   10.0432  -15.6304   28.3188 O   0  0  0  0  0  0  0  0  0  0  0  0
    8.9436  -17.3212   27.2079 O   0  0  0  0  0  0  0  0  0  0  0  0
  2  1  1  6
  2  3  1  0
  4  2  1  0
  4  5  1  6
  6  4  1  0
  6  7  2  0
  8  6  1  0
  9  8  1  0
  9 10  1  6
 11 10  1  0
 12 11  1  0
 13 12  2  0
 14  9  1  0
 15 14  2  0
 16 12  1  0
 18 17  1  1
 18 20  1  0
 19 18  1  0
 21 20  1  1
 21 23  1  0
 21 22  1  0
 22 14  1  0
 23 24  1  0
 25 23  2  0
M  END
$$$$
