VEL.pdb
     RDKit          3D

 25 24  0  0  1  0  0  0  0  0999 V2000
    7.1780  -12.7874   20.2168 C   0  0  0  0  0  0  0  0  0  0  0  0
    8.4601  -13.1403   19.5417 C   0  0  2  0  0  0  0  0  0  0  0  0
    8.4982  -12.3712   18.2218 C   0  0  0  0  0  0  0  0  0  0  0  0
    8.6286  -14.5821   19.2219 C   0  0  2  0  0  0  0  0  0  0  0  0
    7.6871  -14.9765   18.2185 N   0  0  0  0  0  0  0  0  0  0  0  0
    8.4745  -15.4664   20.4057 C   0  0  0  0  0  0  0  0  0  0  0  0
    7.3617  -15.8073   20.8606 O   0  0  0  0  0  0  0  0  0  0  0  0
    9.6372  -15.9346   21.0348 N   0  0  0  0  0  0  0  0  0  0  0  0
    9.6416  -16.6757   22.3117 C   0  0  1  0  0  0  0  0  0  0  0  0
   10.8592  -17.5537   22.3327 C   0  0  0  0  0  0  0  0  0  0  0  0
   11.0665  -18.2498   23.6428 C   0  0  0  0  0  0  0  0  0  0  0  0
   10.4893  -19.6176   23.6311 C   0  0  0  0  0  0  0  0  0  0  0  0
   10.7557  -20.3807   22.6876 O   0  0  0  0  0  0  0  0  0  0  0  0
    9.5493  -15.7473   23.4480 C   0  0  0  0  0  0  0  0  0  0  0  0
   10.3795  -14.7823   23.4655 O   0  0  0  0  0  0  0  0  0  0  0  0
    9.6733  -20.0229   24.6549 O   0  0  0  0  0  0  0  0  0  0  0  0
    8.2900  -11.9925   26.5445 C   0  0  0  0  0  0  0  0  0  0  0  0
    7.3540  -13.1613   26.8650 C   0  0  1  0  0  0  0  0  0  0  0  0
    5.9427  -12.6028   27.0849 C   0  0  0  0  0  0  0  0  0  0  0  0
    7.3689  -14.1316   25.7261 C   0  0  0  0  0  0  0  0  0  0  0  0
    8.6799  -14.8298   25.5996 C   0  0  2  0  0  0  0  0  0  0  0  0
    8.6322  -15.8118   24.5150 N   0  0  0  0  0  0  0  0  0  0  0  0
    9.0410  -15.5037   26.8451 C   0  0  0  0  0  0  0  0  0  0  0  0
    9.7803  -14.8970   27.8514 O   0  0  0  0  0  0  0  0  0  0  0  0
    8.6529  -16.7182   27.0063 O   0  0  0  0  0  0  0  0  0  0  0  0
  2  1  1  6
  2  3  1  0
  4  2  1  0
  4  5  1  6
  6  4  1  0
  6  7  2  0
  8  6  1  0
  9  8  1  0
  9 10  1  1
 11 10  1  0
 12 11  1  0
 13 12  2  0
 14  9  1  0
 15 14  2  0
 16 12  1  0
 18 17  1  6
 18 20  1  0
 19 18  1  0
 21 20  1  1
 21 23  1  0
 21 22  1  0
 22 14  1  0
 23 24  1  0
 25 23  2  0
M  END
$$$$
