VEL.pdb
     RDKit          3D

 25 24  0  0  1  0  0  0  0  0999 V2000
    7.6942  -12.6922   18.1773 C   0  0  0  0  0  0  0  0  0  0  0  0
    7.7679  -13.4433   19.4635 C   0  0  2  0  0  0  0  0  0  0  0  0
    8.7273  -12.6789   20.3748 C   0  0  0  0  0  0  0  0  0  0  0  0
    8.2744  -14.8364   19.3523 C   0  0  2  0  0  0  0  0  0  0  0  0
    7.4614  -15.5841   18.4420 N   0  0  0  0  0  0  0  0  0  0  0  0
    8.3226  -15.5477   20.6557 C   0  0  0  0  0  0  0  0  0  0  0  0
    7.2975  -15.8999   21.2775 O   0  0  0  0  0  0  0  0  0  0  0  0
    9.5811  -15.8321   21.2055 N   0  0  0  0  0  0  0  0  0  0  0  0
    9.7799  -16.5431   22.4840 C   0  0  1  0  0  0  0  0  0  0  0  0
   11.1405  -17.1769   22.4540 C   0  0  0  0  0  0  0  0  0  0  0  0
   11.4600  -17.9559   23.6930 C   0  0  0  0  0  0  0  0  0  0  0  0
   12.7863  -18.6159   23.5956 C   0  0  0  0  0  0  0  0  0  0  0  0
   13.4225  -18.8560   24.6354 O   0  0  0  0  0  0  0  0  0  0  0  0
    9.5642  -15.6342   23.6194 C   0  0  0  0  0  0  0  0  0  0  0  0
   10.2677  -14.5734   23.6430 O   0  0  0  0  0  0  0  0  0  0  0  0
   13.2930  -18.9520   22.3673 O   0  0  0  0  0  0  0  0  0  0  0  0
    7.7139  -11.8661   26.3929 C   0  0  0  0  0  0  0  0  0  0  0  0
    6.9278  -13.1444   26.6979 C   0  0  1  0  0  0  0  0  0  0  0  0
    5.4403  -12.7842   26.7958 C   0  0  0  0  0  0  0  0  0  0  0  0
    7.1617  -14.1396   25.6055 C   0  0  0  0  0  0  0  0  0  0  0  0
    8.5006  -14.7865   25.7116 C   0  0  2  0  0  0  0  0  0  0  0  0
    8.6542  -15.8132   24.6794 N   0  0  0  0  0  0  0  0  0  0  0  0
    8.6907  -15.3930   27.0275 C   0  0  0  0  0  0  0  0  0  0  0  0
    8.6032  -16.7597   27.2549 O   0  0  0  0  0  0  0  0  0  0  0  0
    8.9484  -14.6145   28.0171 O   0  0  0  0  0  0  0  0  0  0  0  0
  2  1  1  6
  2  3  1  0
  4  2  1  0
  4  5  1  6
  6  4  1  0
  6  7  2  0
  8  6  1  0
  9  8  1  0
  9 10  1  6
 11 10  1  0
 12 11  1  0
 13 12  2  0
 14  9  1  0
 15 14  2  0
 16 12  1  0
 18 17  1  6
 18 20  1  0
 19 18  1  0
 21 20  1  1
 21 23  1  0
 21 22  1  0
 22 14  1  0
 23 24  1  0
 25 23  2  0
M  END
$$$$
