VEL.pdb
     RDKit          3D

 25 24  0  0  1  0  0  0  0  0999 V2000
    7.8331  -12.5595   18.6395 C   0  0  0  0  0  0  0  0  0  0  0  0
    7.7805  -13.3840   19.8810 C   0  0  2  0  0  0  0  0  0  0  0  0
    8.6124  -12.6577   20.9372 C   0  0  0  0  0  0  0  0  0  0  0  0
    8.3304  -14.7587   19.7490 C   0  0  2  0  0  0  0  0  0  0  0  0
    7.6779  -15.4487   18.6782 N   0  0  0  0  0  0  0  0  0  0  0  0
    8.2032  -15.5621   20.9922 C   0  0  0  0  0  0  0  0  0  0  0  0
    7.1203  -16.0507   21.3793 O   0  0  0  0  0  0  0  0  0  0  0  0
    9.3572  -15.7760   21.7600 N   0  0  0  0  0  0  0  0  0  0  0  0
    9.3879  -16.5884   22.9924 C   0  0  1  0  0  0  0  0  0  0  0  0
   10.5086  -17.5791   22.8655 C   0  0  0  0  0  0  0  0  0  0  0  0
   10.2230  -18.6761   21.8862 C   0  0  0  0  0  0  0  0  0  0  0  0
   11.3477  -19.6421   21.8058 C   0  0  0  0  0  0  0  0  0  0  0  0
   12.3951  -19.4074   22.4313 O   0  0  0  0  0  0  0  0  0  0  0  0
    9.4798  -15.7242   24.1784 C   0  0  0  0  0  0  0  0  0  0  0  0
   10.5126  -14.9853   24.2676 O   0  0  0  0  0  0  0  0  0  0  0  0
   11.2204  -20.7763   21.0471 O   0  0  0  0  0  0  0  0  0  0  0  0
    5.9356  -12.2872   26.1834 C   0  0  0  0  0  0  0  0  0  0  0  0
    7.2492  -12.9614   25.7773 C   0  0  1  0  0  0  0  0  0  0  0  0
    8.3460  -11.8905   25.7285 C   0  0  0  0  0  0  0  0  0  0  0  0
    7.5881  -14.0227   26.7759 C   0  0  0  0  0  0  0  0  0  0  0  0
    8.8089  -14.7869   26.3917 C   0  0  2  0  0  0  0  0  0  0  0  0
    8.5392  -15.6248   25.2220 N   0  0  0  0  0  0  0  0  0  0  0  0
    9.2720  -15.6295   27.4923 C   0  0  0  0  0  0  0  0  0  0  0  0
   10.0693  -15.1591   28.5269 O   0  0  0  0  0  0  0  0  0  0  0  0
    8.9209  -16.8658   27.4923 O   0  0  0  0  0  0  0  0  0  0  0  0
  2  1  1  6
  2  3  1  0
  4  2  1  0
  4  5  1  6
  6  4  1  0
  6  7  2  0
  8  6  1  0
  9  8  1  0
  9 10  1  6
 11 10  1  0
 12 11  1  0
 13 12  2  0
 14  9  1  0
 15 14  2  0
 16 12  1  0
 18 17  1  1
 18 20  1  0
 19 18  1  0
 21 20  1  1
 21 23  1  0
 21 22  1  0
 22 14  1  0
 23 24  1  0
 25 23  2  0
M  END
$$$$
