VEL.pdb
     RDKit          3D

 25 24  0  0  1  0  0  0  0  0999 V2000
    8.3038  -12.5034   18.2245 C   0  0  0  0  0  0  0  0  0  0  0  0
    7.9296  -13.3327   19.4061 C   0  0  2  0  0  0  0  0  0  0  0  0
    8.3820  -12.5698   20.6506 C   0  0  0  0  0  0  0  0  0  0  0  0
    8.5578  -14.6790   19.4564 C   0  0  2  0  0  0  0  0  0  0  0  0
    8.2639  -15.4038   18.2577 N   0  0  0  0  0  0  0  0  0  0  0  0
    8.1252  -15.4836   20.6279 C   0  0  0  0  0  0  0  0  0  0  0  0
    6.9803  -15.9731   20.7323 O   0  0  0  0  0  0  0  0  0  0  0  0
    9.0514  -15.6976   21.6591 N   0  0  0  0  0  0  0  0  0  0  0  0
    8.7726  -16.5069   22.8620 C   0  0  1  0  0  0  0  0  0  0  0  0
    9.5484  -17.7871   22.7482 C   0  0  0  0  0  0  0  0  0  0  0  0
   10.9907  -17.5783   22.4019 C   0  0  0  0  0  0  0  0  0  0  0  0
   11.7164  -18.8684   22.2868 C   0  0  0  0  0  0  0  0  0  0  0  0
   11.7086  -19.4744   21.2024 O   0  0  0  0  0  0  0  0  0  0  0  0
    9.0587  -15.7359   24.0808 C   0  0  0  0  0  0  0  0  0  0  0  0
   10.1237  -15.0384   24.0781 O   0  0  0  0  0  0  0  0  0  0  0  0
   12.3838  -19.3752   23.3713 O   0  0  0  0  0  0  0  0  0  0  0  0
    5.9966  -12.2437   26.6236 C   0  0  0  0  0  0  0  0  0  0  0  0
    7.2047  -12.9820   26.0402 C   0  0  1  0  0  0  0  0  0  0  0  0
    8.3577  -11.9812   25.8950 C   0  0  0  0  0  0  0  0  0  0  0  0
    7.5869  -14.1024   26.9551 C   0  0  0  0  0  0  0  0  0  0  0  0
    8.7135  -14.9130   26.4112 C   0  0  2  0  0  0  0  0  0  0  0  0
    8.2720  -15.6843   25.2479 N   0  0  0  0  0  0  0  0  0  0  0  0
    9.2431  -15.8256   27.4224 C   0  0  0  0  0  0  0  0  0  0  0  0
    9.9941  -15.4022   28.5105 O   0  0  0  0  0  0  0  0  0  0  0  0
    8.9984  -17.0801   27.2877 O   0  0  0  0  0  0  0  0  0  0  0  0
  2  1  1  6
  2  3  1  0
  4  2  1  0
  4  5  1  6
  6  4  1  0
  6  7  2  0
  8  6  1  0
  9  8  1  0
  9 10  1  6
 11 10  1  0
 12 11  1  0
 13 12  2  0
 14  9  1  0
 15 14  2  0
 16 12  1  0
 18 17  1  1
 18 20  1  0
 19 18  1  0
 21 20  1  1
 21 23  1  0
 21 22  1  0
 22 14  1  0
 23 24  1  0
 25 23  2  0
M  END
$$$$
