VEL.pdb
     RDKit          3D

 25 24  0  0  1  0  0  0  0  0999 V2000
    7.4230  -12.7406   20.4114 C   0  0  0  0  0  0  0  0  0  0  0  0
    8.5494  -13.2459   19.5750 C   0  0  2  0  0  0  0  0  0  0  0  0
    8.4465  -12.5516   18.2176 C   0  0  0  0  0  0  0  0  0  0  0  0
    8.5429  -14.7116   19.3269 C   0  0  2  0  0  0  0  0  0  0  0  0
    7.4181  -15.0682   18.5168 N   0  0  0  0  0  0  0  0  0  0  0  0
    8.5161  -15.5166   20.5751 C   0  0  0  0  0  0  0  0  0  0  0  0
    7.4563  -15.8861   21.1243 O   0  0  0  0  0  0  0  0  0  0  0  0
    9.7417  -15.8729   21.1565 N   0  0  0  0  0  0  0  0  0  0  0  0
    9.8664  -16.6773   22.3882 C   0  0  1  0  0  0  0  0  0  0  0  0
   11.1793  -17.4034   22.3355 C   0  0  0  0  0  0  0  0  0  0  0  0
   11.4269  -18.2697   23.5322 C   0  0  0  0  0  0  0  0  0  0  0  0
   12.7523  -18.9349   23.4592 C   0  0  0  0  0  0  0  0  0  0  0  0
   13.7394  -18.2813   23.0828 O   0  0  0  0  0  0  0  0  0  0  0  0
    9.6942  -15.8304   23.5777 C   0  0  0  0  0  0  0  0  0  0  0  0
   10.3643  -14.7485   23.6099 O   0  0  0  0  0  0  0  0  0  0  0  0
   12.8732  -20.2554   23.8056 O   0  0  0  0  0  0  0  0  0  0  0  0
    8.3932  -12.3017   26.7546 C   0  0  0  0  0  0  0  0  0  0  0  0
    7.3193  -13.3918   26.8097 C   0  0  1  0  0  0  0  0  0  0  0  0
    5.9434  -12.7173   26.7442 C   0  0  0  0  0  0  0  0  0  0  0  0
    7.5066  -14.3273   25.6571 C   0  0  0  0  0  0  0  0  0  0  0  0
    8.7570  -15.1294   25.7816 C   0  0  2  0  0  0  0  0  0  0  0  0
    8.8586  -16.0898   24.6814 N   0  0  0  0  0  0  0  0  0  0  0  0
    8.7988  -15.8471   27.0540 C   0  0  0  0  0  0  0  0  0  0  0  0
    9.4358  -15.3541   28.1847 O   0  0  0  0  0  0  0  0  0  0  0  0
    8.2168  -16.9910   27.1187 O   0  0  0  0  0  0  0  0  0  0  0  0
  2  1  1  1
  2  3  1  0
  4  2  1  0
  4  5  1  6
  6  4  1  0
  6  7  2  0
  8  6  1  0
  9  8  1  0
  9 10  1  1
 11 10  1  0
 12 11  1  0
 13 12  2  0
 14  9  1  0
 15 14  2  0
 16 12  1  0
 18 17  1  6
 18 20  1  0
 19 18  1  0
 21 20  1  6
 21 23  1  0
 21 22  1  0
 22 14  1  0
 23 24  1  0
 25 23  2  0
M  END
$$$$
