VEL.pdb
     RDKit          3D

 25 24  0  0  1  0  0  0  0  0999 V2000
    7.2141  -12.7323   20.7609 C   0  0  0  0  0  0  0  0  0  0  0  0
    8.4566  -13.1059   20.0256 C   0  0  2  0  0  0  0  0  0  0  0  0
    8.5164  -12.2322   18.7733 C   0  0  0  0  0  0  0  0  0  0  0  0
    8.5258  -14.5233   19.5832 C   0  0  2  0  0  0  0  0  0  0  0  0
    7.4944  -14.7911   18.6276 N   0  0  0  0  0  0  0  0  0  0  0  0
    8.4123  -15.4926   20.7034 C   0  0  0  0  0  0  0  0  0  0  0  0
    7.3375  -16.0467   21.0181 O   0  0  0  0  0  0  0  0  0  0  0  0
    9.5703  -15.7926   21.4356 N   0  0  0  0  0  0  0  0  0  0  0  0
    9.5948  -16.6914   22.6066 C   0  0  1  0  0  0  0  0  0  0  0  0
   10.7507  -17.6349   22.4413 C   0  0  0  0  0  0  0  0  0  0  0  0
   10.8905  -18.6064   23.5730 C   0  0  0  0  0  0  0  0  0  0  0  0
   10.4843  -19.9762   23.1694 C   0  0  0  0  0  0  0  0  0  0  0  0
   10.6685  -20.3431   21.9968 O   0  0  0  0  0  0  0  0  0  0  0  0
    9.6262  -15.9137   23.8540 C   0  0  0  0  0  0  0  0  0  0  0  0
   10.6678  -15.2123   24.0632 O   0  0  0  0  0  0  0  0  0  0  0  0
    9.9135  -20.8176   24.0884 O   0  0  0  0  0  0  0  0  0  0  0  0
    5.9476  -12.5833   26.2083 C   0  0  0  0  0  0  0  0  0  0  0  0
    7.2565  -13.2016   25.7088 C   0  0  1  0  0  0  0  0  0  0  0  0
    8.3780  -12.1721   25.8944 C   0  0  0  0  0  0  0  0  0  0  0  0
    7.5438  -14.4453   26.4893 C   0  0  0  0  0  0  0  0  0  0  0  0
    8.8191  -15.0917   26.0676 C   0  0  2  0  0  0  0  0  0  0  0  0
    8.6193  -15.8596   24.8373 N   0  0  0  0  0  0  0  0  0  0  0  0
    9.3320  -15.9771   27.1110 C   0  0  0  0  0  0  0  0  0  0  0  0
   10.1438  -15.5394   28.1486 O   0  0  0  0  0  0  0  0  0  0  0  0
    9.0125  -17.2206   27.0553 O   0  0  0  0  0  0  0  0  0  0  0  0
  2  1  1  6
  2  3  1  0
  4  2  1  0
  4  5  1  6
  6  4  1  0
  6  7  2  0
  8  6  1  0
  9  8  1  0
  9 10  1  6
 11 10  1  0
 12 11  1  0
 13 12  2  0
 14  9  1  0
 15 14  2  0
 16 12  1  0
 18 17  1  1
 18 20  1  0
 19 18  1  0
 21 20  1  1
 21 23  1  0
 21 22  1  0
 22 14  1  0
 23 24  1  0
 25 23  2  0
M  END
$$$$
