VEL.pdb
     RDKit          3D

 25 24  0  0  1  0  0  0  0  0999 V2000
    7.1903  -12.7273   20.8303 C   0  0  0  0  0  0  0  0  0  0  0  0
    8.3950  -13.2102   20.0957 C   0  0  2  0  0  0  0  0  0  0  0  0
    8.3938  -12.5223   18.7312 C   0  0  0  0  0  0  0  0  0  0  0  0
    8.4414  -14.6764   19.8551 C   0  0  2  0  0  0  0  0  0  0  0  0
    7.4359  -15.0513   18.9079 N   0  0  0  0  0  0  0  0  0  0  0  0
    8.2648  -15.4788   21.0928 C   0  0  0  0  0  0  0  0  0  0  0  0
    7.1560  -15.9151   21.4690 O   0  0  0  0  0  0  0  0  0  0  0  0
    9.4007  -15.7537   21.8681 N   0  0  0  0  0  0  0  0  0  0  0  0
    9.3807  -16.5694   23.0985 C   0  0  1  0  0  0  0  0  0  0  0  0
   10.4380  -17.6274   22.9691 C   0  0  0  0  0  0  0  0  0  0  0  0
   10.4644  -18.5841   24.1215 C   0  0  0  0  0  0  0  0  0  0  0  0
   11.4829  -19.6464   23.9253 C   0  0  0  0  0  0  0  0  0  0  0  0
   11.8383  -20.3334   24.8975 O   0  0  0  0  0  0  0  0  0  0  0  0
    9.5257  -15.7155   24.2866 C   0  0  0  0  0  0  0  0  0  0  0  0
   10.6031  -15.0436   24.3785 O   0  0  0  0  0  0  0  0  0  0  0  0
   12.0179  -19.8578   22.6814 O   0  0  0  0  0  0  0  0  0  0  0  0
    5.9875  -12.3372   26.4535 C   0  0  0  0  0  0  0  0  0  0  0  0
    7.2637  -13.0188   25.9518 C   0  0  1  0  0  0  0  0  0  0  0  0
    8.3233  -11.9377   25.7059 C   0  0  0  0  0  0  0  0  0  0  0  0
    7.7351  -13.9998   26.9785 C   0  0  0  0  0  0  0  0  0  0  0  0
    8.9251  -14.7693   26.5161 C   0  0  2  0  0  0  0  0  0  0  0  0
    8.5921  -15.5594   25.3295 N   0  0  0  0  0  0  0  0  0  0  0  0
    9.4181  -15.6591   27.5654 C   0  0  0  0  0  0  0  0  0  0  0  0
   10.1198  -15.2100   28.6759 O   0  0  0  0  0  0  0  0  0  0  0  0
    9.1882  -16.9177   27.4439 O   0  0  0  0  0  0  0  0  0  0  0  0
  2  1  1  6
  2  3  1  0
  4  2  1  0
  4  5  1  6
  6  4  1  0
  6  7  2  0
  8  6  1  0
  9  8  1  0
  9 10  1  6
 11 10  1  0
 12 11  1  0
 13 12  2  0
 14  9  1  0
 15 14  2  0
 16 12  1  0
 18 17  1  1
 18 20  1  0
 19 18  1  0
 21 20  1  1
 21 23  1  0
 21 22  1  0
 22 14  1  0
 23 24  1  0
 25 23  2  0
M  END
$$$$
