VEL.pdb
     RDKit          3D

 25 24  0  0  1  0  0  0  0  0999 V2000
    7.5603  -12.4719   18.8907 C   0  0  0  0  0  0  0  0  0  0  0  0
    7.6915  -13.3358   20.0991 C   0  0  2  0  0  0  0  0  0  0  0  0
    8.6317  -12.6159   21.0651 C   0  0  0  0  0  0  0  0  0  0  0  0
    8.2587  -14.6871   19.8500 C   0  0  2  0  0  0  0  0  0  0  0  0
    7.4785  -15.3741   18.8661 N   0  0  0  0  0  0  0  0  0  0  0  0
    8.3393  -15.5233   21.0753 C   0  0  0  0  0  0  0  0  0  0  0  0
    7.3598  -16.1426   21.5426 O   0  0  0  0  0  0  0  0  0  0  0  0
    9.5758  -15.6152   21.7307 N   0  0  0  0  0  0  0  0  0  0  0  0
    9.8324  -16.4984   22.8856 C   0  0  1  0  0  0  0  0  0  0  0  0
   11.1856  -17.1213   22.6998 C   0  0  0  0  0  0  0  0  0  0  0  0
   11.2217  -18.1485   21.6101 C   0  0  0  0  0  0  0  0  0  0  0  0
   12.5707  -18.7538   21.4754 C   0  0  0  0  0  0  0  0  0  0  0  0
   13.2158  -19.0326   22.4999 O   0  0  0  0  0  0  0  0  0  0  0  0
    9.6786  -15.7577   24.1464 C   0  0  0  0  0  0  0  0  0  0  0  0
   10.4909  -14.7983   24.3474 O   0  0  0  0  0  0  0  0  0  0  0  0
   13.0882  -18.9978   20.2300 O   0  0  0  0  0  0  0  0  0  0  0  0
    5.6354  -13.0541   25.9138 C   0  0  0  0  0  0  0  0  0  0  0  0
    7.0855  -13.5016   25.7094 C   0  0  1  0  0  0  0  0  0  0  0  0
    8.0030  -12.3027   25.9795 C   0  0  0  0  0  0  0  0  0  0  0  0
    7.3916  -14.6258   26.6481 C   0  0  0  0  0  0  0  0  0  0  0  0
    8.7340  -15.2216   26.3930 C   0  0  2  0  0  0  0  0  0  0  0  0
    8.7206  -15.9962   25.1508 N   0  0  0  0  0  0  0  0  0  0  0  0
    9.1456  -16.0867   27.4966 C   0  0  0  0  0  0  0  0  0  0  0  0
    9.3636  -17.4502   27.3536 O   0  0  0  0  0  0  0  0  0  0  0  0
    9.3086  -15.5500   28.6529 O   0  0  0  0  0  0  0  0  0  0  0  0
  2  1  1  6
  2  3  1  0
  4  2  1  0
  4  5  1  6
  6  4  1  0
  6  7  2  0
  8  6  1  0
  9  8  1  0
  9 10  1  6
 11 10  1  0
 12 11  1  0
 13 12  2  0
 14  9  1  0
 15 14  2  0
 16 12  1  0
 18 17  1  1
 18 20  1  0
 19 18  1  0
 21 20  1  1
 21 23  1  0
 21 22  1  0
 22 14  1  0
 23 24  1  0
 25 23  2  0
M  END
$$$$
