VEL.pdb
     RDKit          3D

 25 24  0  0  1  0  0  0  0  0999 V2000
    7.6383  -12.6533   20.0336 C   0  0  0  0  0  0  0  0  0  0  0  0
    8.7243  -13.3494   19.2853 C   0  0  2  0  0  0  0  0  0  0  0  0
    8.7604  -12.7453   17.8821 C   0  0  0  0  0  0  0  0  0  0  0  0
    8.5451  -14.8172   19.1336 C   0  0  2  0  0  0  0  0  0  0  0  0
    7.4402  -15.0906   18.2658 N   0  0  0  0  0  0  0  0  0  0  0  0
    8.3314  -15.5178   20.4261 C   0  0  0  0  0  0  0  0  0  0  0  0
    7.2016  -15.6768   20.9356 O   0  0  0  0  0  0  0  0  0  0  0  0
    9.4556  -16.0197   21.0978 N   0  0  0  0  0  0  0  0  0  0  0  0
    9.3929  -16.7376   22.3864 C   0  0  1  0  0  0  0  0  0  0  0  0
   10.5580  -17.6823   22.4467 C   0  0  0  0  0  0  0  0  0  0  0  0
   10.7074  -18.3565   23.7760 C   0  0  0  0  0  0  0  0  0  0  0  0
   11.8606  -19.2915   23.7870 C   0  0  0  0  0  0  0  0  0  0  0  0
   12.5808  -19.3550   24.7973 O   0  0  0  0  0  0  0  0  0  0  0  0
    9.3312  -15.7857   23.5053 C   0  0  0  0  0  0  0  0  0  0  0  0
   10.3250  -15.0022   23.6436 O   0  0  0  0  0  0  0  0  0  0  0  0
   12.1180  -20.0708   22.6893 O   0  0  0  0  0  0  0  0  0  0  0  0
    8.1981  -11.9951   26.7489 C   0  0  0  0  0  0  0  0  0  0  0  0
    7.1897  -13.1191   27.0031 C   0  0  1  0  0  0  0  0  0  0  0  0
    5.8211  -12.4855   27.2817 C   0  0  0  0  0  0  0  0  0  0  0  0
    7.1280  -14.0075   25.8008 C   0  0  0  0  0  0  0  0  0  0  0  0
    8.4097  -14.7333   25.5718 C   0  0  2  0  0  0  0  0  0  0  0  0
    8.2825  -15.6471   24.4352 N   0  0  0  0  0  0  0  0  0  0  0  0
    8.8064  -15.4902   26.7573 C   0  0  0  0  0  0  0  0  0  0  0  0
    8.1388  -16.6270   27.1925 O   0  0  0  0  0  0  0  0  0  0  0  0
    9.8228  -15.0738   27.4246 O   0  0  0  0  0  0  0  0  0  0  0  0
  2  1  1  1
  2  3  1  0
  4  2  1  0
  4  5  1  6
  6  4  1  0
  6  7  2  0
  8  6  1  0
  9  8  1  0
  9 10  1  1
 11 10  1  0
 12 11  1  0
 13 12  2  0
 14  9  1  0
 15 14  2  0
 16 12  1  0
 18 17  1  6
 18 20  1  0
 19 18  1  0
 21 20  1  1
 21 23  1  0
 21 22  1  0
 22 14  1  0
 23 24  1  0
 25 23  2  0
M  END
$$$$
