VEL.pdb
     RDKit          3D

 25 24  0  0  1  0  0  0  0  0999 V2000
    7.8104  -12.7260   17.9797 C   0  0  0  0  0  0  0  0  0  0  0  0
    7.7673  -13.4927   19.2581 C   0  0  2  0  0  0  0  0  0  0  0  0
    8.6695  -12.7605   20.2507 C   0  0  0  0  0  0  0  0  0  0  0  0
    8.2502  -14.8957   19.1688 C   0  0  2  0  0  0  0  0  0  0  0  0
    7.4704  -15.6243   18.2150 N   0  0  0  0  0  0  0  0  0  0  0  0
    8.2159  -15.6107   20.4706 C   0  0  0  0  0  0  0  0  0  0  0  0
    7.1540  -15.9732   21.0205 O   0  0  0  0  0  0  0  0  0  0  0  0
    9.4365  -15.8866   21.1038 N   0  0  0  0  0  0  0  0  0  0  0  0
    9.5526  -16.5720   22.4062 C   0  0  1  0  0  0  0  0  0  0  0  0
   10.7714  -17.4474   22.3611 C   0  0  0  0  0  0  0  0  0  0  0  0
   11.0292  -18.1726   23.6462 C   0  0  0  0  0  0  0  0  0  0  0  0
   12.2838  -18.9641   23.5838 C   0  0  0  0  0  0  0  0  0  0  0  0
   12.6751  -19.3956   22.4865 O   0  0  0  0  0  0  0  0  0  0  0  0
    9.5531  -15.5956   23.5055 C   0  0  0  0  0  0  0  0  0  0  0  0
   10.2730  -14.5577   23.3466 O   0  0  0  0  0  0  0  0  0  0  0  0
   12.9938  -19.2097   24.7301 O   0  0  0  0  0  0  0  0  0  0  0  0
    6.4265  -11.6707   26.1284 C   0  0  0  0  0  0  0  0  0  0  0  0
    7.6304  -12.5643   26.4401 C   0  0  1  0  0  0  0  0  0  0  0  0
    7.5086  -13.0492   27.8900 C   0  0  0  0  0  0  0  0  0  0  0  0
    7.6434  -13.7223   25.4928 C   0  0  0  0  0  0  0  0  0  0  0  0
    8.8465  -14.5835   25.6742 C   0  0  2  0  0  0  0  0  0  0  0  0
    8.8334  -15.6873   24.7126 N   0  0  0  0  0  0  0  0  0  0  0  0
    8.9077  -15.1255   27.0300 C   0  0  0  0  0  0  0  0  0  0  0  0
    9.8601  -14.7366   27.9623 O   0  0  0  0  0  0  0  0  0  0  0  0
    8.0345  -16.0067   27.3656 O   0  0  0  0  0  0  0  0  0  0  0  0
  2  1  1  6
  2  3  1  0
  4  2  1  0
  4  5  1  6
  6  4  1  0
  6  7  2  0
  8  6  1  0
  9  8  1  0
  9 10  1  6
 11 10  1  0
 12 11  1  0
 13 12  2  0
 14  9  1  0
 15 14  2  0
 16 12  1  0
 18 17  1  6
 18 20  1  0
 19 18  1  0
 21 20  1  1
 21 23  1  0
 21 22  1  0
 22 14  1  0
 23 24  1  0
 25 23  2  0
M  END
$$$$
