FKC.pdb
     RDKit          3D

 27 27  0  0  1  0  0  0  0  0999 V2000
   28.6680  -20.9355   -9.0246 N   0  0  0  0  0  0  0  0  0  0  0  0
   27.2346  -20.8768   -8.8117 C   0  0  1  0  0  0  0  0  0  0  0  0
   26.9012  -19.6187   -8.0186 C   0  0  0  0  0  0  0  0  0  0  0  0
   27.5055  -19.5965   -6.6824 C   0  0  0  0  0  0  0  0  0  0  0  0
   28.2362  -18.5354   -6.2298 C   0  0  0  0  0  0  0  0  0  0  0  0
   28.7770  -18.5709   -4.9733 C   0  0  0  0  0  0  0  0  0  0  0  0
   28.5929  -19.6662   -4.1574 C   0  0  0  0  0  0  0  0  0  0  0  0
   27.8493  -20.7438   -4.6203 C   0  0  0  0  0  0  0  0  0  0  0  0
   27.3002  -20.7217   -5.8805 C   0  0  0  0  0  0  0  0  0  0  0  0
   26.5330  -20.7536  -10.1110 C   0  0  0  0  0  0  0  0  0  0  0  0
   27.0058  -20.0184  -11.0095 O   0  0  0  0  0  0  0  0  0  0  0  0
   25.3326  -21.4735  -10.3158 N   0  0  0  0  0  0  0  0  0  0  0  0
   24.6754  -21.5557  -11.5812 C   0  0  1  0  0  0  0  0  0  0  0  0
   24.8125  -22.9328  -12.1974 C   0  0  0  0  0  0  0  0  0  0  0  0
   24.3094  -22.8138  -13.6305 C   0  0  0  0  0  0  0  0  0  0  0  0
   24.5142  -24.1352  -14.3366 C   0  0  0  0  0  0  0  0  0  0  0  0
   24.0597  -23.9453  -15.7754 C   0  0  0  0  0  0  0  0  0  0  0  0
   22.6379  -24.1012  -15.8622 N   0  0  0  0  0  0  0  0  0  0  0  0
   23.2771  -21.0917  -11.5581 C   0  0  0  0  0  0  0  0  0  0  0  0
   22.5473  -21.3987  -10.5939 O   0  0  0  0  0  0  0  0  0  0  0  0
   22.8019  -20.3109  -12.6299 N   0  0  0  0  0  0  0  0  0  0  0  0
   21.4532  -19.7982  -12.6533 C   0  0  1  0  0  0  0  0  0  0  0  0
   21.4374  -18.4021  -13.2426 C   0  0  0  0  0  0  0  0  0  0  0  0
   22.4751  -18.4264  -14.7305 S   0  0  0  0  0  0  0  0  0  0  0  0
   20.6438  -20.6550  -13.5479 C   0  0  0  0  0  0  0  0  0  0  0  0
   19.2644  -20.5088  -13.5271 O   0  0  0  0  0  0  0  0  0  0  0  0
   21.1945  -21.4988  -14.3115 O   0  0  0  0  0  0  0  0  0  0  0  0
  2  1  1  6
  3  4  1  0
  3  2  1  0
  4  5  2  0
  5  6  1  0
  7  6  2  0
  8  7  1  0
  9  8  2  0
  9  4  1  0
 10  2  1  0
 10 11  2  0
 12 10  1  0
 13 12  1  0
 13 19  1  0
 13 14  1  1
 15 14  1  0
 16 15  1  0
 17 16  1  0
 18 17  1  0
 19 20  2  0
 19 21  1  0
 21 22  1  0
 22 25  1  0
 22 23  1  6
 24 23  1  0
 25 27  2  0
 25 26  1  0
M  END
$$$$
