FKC.pdb
     RDKit          3D

 27 27  0  0  1  0  0  0  0  0999 V2000
   16.9530  -10.0966  -17.0251 N   0  0  0  0  0  0  0  0  0  0  0  0
   18.1141   -9.6432  -17.7666 C   0  0  1  0  0  0  0  0  0  0  0  0
   17.6915   -8.5330  -18.7214 C   0  0  0  0  0  0  0  0  0  0  0  0
   16.7159   -8.9697  -19.7257 C   0  0  0  0  0  0  0  0  0  0  0  0
   15.3864   -8.6737  -19.6283 C   0  0  0  0  0  0  0  0  0  0  0  0
   14.5220   -9.1086  -20.5959 C   0  0  0  0  0  0  0  0  0  0  0  0
   14.9775   -9.8429  -21.6696 C   0  0  0  0  0  0  0  0  0  0  0  0
   16.3301  -10.1423  -21.7660 C   0  0  0  0  0  0  0  0  0  0  0  0
   17.2098   -9.7119  -20.8011 C   0  0  0  0  0  0  0  0  0  0  0  0
   19.1065   -9.0477  -16.8414 C   0  0  0  0  0  0  0  0  0  0  0  0
   18.7224   -8.4948  -15.7841 O   0  0  0  0  0  0  0  0  0  0  0  0
   20.4807   -9.1144  -17.1707 N   0  0  0  0  0  0  0  0  0  0  0  0
   21.5124   -8.5905  -16.3335 C   0  0  1  0  0  0  0  0  0  0  0  0
   22.8698   -9.1606  -16.6906 C   0  0  0  0  0  0  0  0  0  0  0  0
   23.0238  -10.4417  -15.8804 C   0  0  0  0  0  0  0  0  0  0  0  0
   24.3847  -11.0399  -16.1573 C   0  0  0  0  0  0  0  0  0  0  0  0
   24.3915  -12.4315  -15.5441 C   0  0  0  0  0  0  0  0  0  0  0  0
   25.6345  -13.0845  -15.8305 N   0  0  0  0  0  0  0  0  0  0  0  0
   21.5283   -7.1191  -16.2565 C   0  0  0  0  0  0  0  0  0  0  0  0
   21.7441   -6.4555  -17.2907 O   0  0  0  0  0  0  0  0  0  0  0  0
   21.2979   -6.5008  -15.0120 N   0  0  0  0  0  0  0  0  0  0  0  0
   21.2764   -5.0645  -14.8727 C   0  0  1  0  0  0  0  0  0  0  0  0
   19.9437   -4.6164  -14.3074 C   0  0  0  0  0  0  0  0  0  0  0  0
   18.6693   -5.0111  -15.5368 S   0  0  0  0  0  0  0  0  0  0  0  0
   22.3153   -4.6751  -13.8935 C   0  0  0  0  0  0  0  0  0  0  0  0
   22.5337   -3.3236  -13.6695 O   0  0  0  0  0  0  0  0  0  0  0  0
   22.9867   -5.5511  -13.2770 O   0  0  0  0  0  0  0  0  0  0  0  0
  2  1  1  1
  3  4  1  0
  3  2  1  0
  4  5  2  0
  5  6  1  0
  7  6  2  0
  8  7  1  0
  9  8  2  0
  9  4  1  0
 10  2  1  0
 10 11  2  0
 12 10  1  0
 13 12  1  0
 13 19  1  0
 13 14  1  6
 15 14  1  0
 16 15  1  0
 17 16  1  0
 18 17  1  0
 19 20  2  0
 19 21  1  0
 21 22  1  0
 22 25  1  0
 22 23  1  1
 24 23  1  0
 25 27  2  0
 25 26  1  0
M  END
$$$$
