FKC.pdb
     RDKit          3D

 27 27  0  0  1  0  0  0  0  0999 V2000
   24.2532  -20.8114   -9.2979 N   0  0  0  0  0  0  0  0  0  0  0  0
   25.0371  -19.9788  -10.1899 C   0  0  1  0  0  0  0  0  0  0  0  0
   26.4283  -20.5832  -10.3392 C   0  0  0  0  0  0  0  0  0  0  0  0
   27.2482  -20.4612   -9.1292 C   0  0  0  0  0  0  0  0  0  0  0  0
   26.9585  -19.5670   -8.1387 C   0  0  0  0  0  0  0  0  0  0  0  0
   27.7602  -19.4974   -7.0320 C   0  0  0  0  0  0  0  0  0  0  0  0
   28.8585  -20.3202   -6.9043 C   0  0  0  0  0  0  0  0  0  0  0  0
   29.1505  -21.2286   -7.9131 C   0  0  0  0  0  0  0  0  0  0  0  0
   28.3538  -21.3093   -9.0306 C   0  0  0  0  0  0  0  0  0  0  0  0
   24.4326  -19.9746  -11.5428 C   0  0  0  0  0  0  0  0  0  0  0  0
   23.2405  -20.3305  -11.6959 O   0  0  0  0  0  0  0  0  0  0  0  0
   25.2180  -19.5658  -12.6460 N   0  0  0  0  0  0  0  0  0  0  0  0
   24.6784  -19.3345  -13.9480 C   0  0  1  0  0  0  0  0  0  0  0  0
   25.7431  -18.8796  -14.9250 C   0  0  0  0  0  0  0  0  0  0  0  0
   25.2635  -17.5502  -15.4941 C   0  0  0  0  0  0  0  0  0  0  0  0
   26.3119  -17.0124  -16.4419 C   0  0  0  0  0  0  0  0  0  0  0  0
   25.7211  -15.7770  -17.1033 C   0  0  0  0  0  0  0  0  0  0  0  0
   26.6975  -15.1663  -17.9559 N   0  0  0  0  0  0  0  0  0  0  0  0
   23.8839  -20.4591  -14.4726 C   0  0  0  0  0  0  0  0  0  0  0  0
   24.4512  -21.5396  -14.7316 O   0  0  0  0  0  0  0  0  0  0  0  0
   22.5002  -20.2816  -14.6673 N   0  0  0  0  0  0  0  0  0  0  0  0
   21.5817  -21.3942  -14.6307 C   0  0  1  0  0  0  0  0  0  0  0  0
   21.6058  -22.0440  -13.2619 C   0  0  0  0  0  0  0  0  0  0  0  0
   20.3387  -23.3424  -13.2523 S   0  0  0  0  0  0  0  0  0  0  0  0
   20.2118  -20.8753  -14.8398 C   0  0  0  0  0  0  0  0  0  0  0  0
   19.1708  -21.7874  -14.9340 O   0  0  0  0  0  0  0  0  0  0  0  0
   19.9952  -19.6331  -14.9305 O   0  0  0  0  0  0  0  0  0  0  0  0
  2  1  1  1
  3  4  1  0
  3  2  1  0
  4  5  2  0
  5  6  1  0
  7  6  2  0
  8  7  1  0
  9  8  2  0
  9  4  1  0
 10  2  1  0
 10 11  2  0
 12 10  1  0
 13 12  1  0
 13 19  1  0
 13 14  1  6
 15 14  1  0
 16 15  1  0
 17 16  1  0
 18 17  1  0
 19 20  2  0
 19 21  1  0
 21 22  1  0
 22 25  1  0
 22 23  1  1
 24 23  1  0
 25 27  2  0
 25 26  1  0
M  END
$$$$
