FKC.pdb
     RDKit          3D

 27 27  0  0  1  0  0  0  0  0999 V2000
   28.3364  -21.0321  -10.0741 N   0  0  0  0  0  0  0  0  0  0  0  0
   26.9097  -20.9814   -9.8188 C   0  0  1  0  0  0  0  0  0  0  0  0
   26.6002  -19.7540   -8.9699 C   0  0  0  0  0  0  0  0  0  0  0  0
   27.1586  -19.8277   -7.6157 C   0  0  0  0  0  0  0  0  0  0  0  0
   28.2707  -19.1270   -7.2461 C   0  0  0  0  0  0  0  0  0  0  0  0
   28.7471  -19.2354   -5.9678 C   0  0  0  0  0  0  0  0  0  0  0  0
   28.1170  -20.0445   -5.0471 C   0  0  0  0  0  0  0  0  0  0  0  0
   26.9861  -20.7559   -5.4258 C   0  0  0  0  0  0  0  0  0  0  0  0
   26.4966  -20.6565   -6.7067 C   0  0  0  0  0  0  0  0  0  0  0  0
   26.1718  -20.8094  -11.0922 C   0  0  0  0  0  0  0  0  0  0  0  0
   26.5237  -19.9210  -11.9035 O   0  0  0  0  0  0  0  0  0  0  0  0
   25.0748  -21.6576  -11.3717 N   0  0  0  0  0  0  0  0  0  0  0  0
   24.2825  -21.5484  -12.5549 C   0  0  1  0  0  0  0  0  0  0  0  0
   23.9972  -22.9042  -13.1677 C   0  0  0  0  0  0  0  0  0  0  0  0
   25.1592  -23.2039  -14.1063 C   0  0  0  0  0  0  0  0  0  0  0  0
   24.8884  -24.5058  -14.8264 C   0  0  0  0  0  0  0  0  0  0  0  0
   26.0027  -24.6904  -15.8448 C   0  0  0  0  0  0  0  0  0  0  0  0
   25.8685  -25.9633  -16.4890 N   0  0  0  0  0  0  0  0  0  0  0  0
   23.0587  -20.7462  -12.3812 C   0  0  0  0  0  0  0  0  0  0  0  0
   22.9025  -20.0895  -11.3320 O   0  0  0  0  0  0  0  0  0  0  0  0
   22.0958  -20.7435  -13.4093 N   0  0  0  0  0  0  0  0  0  0  0  0
   20.9721  -19.8382  -13.3915 C   0  0  1  0  0  0  0  0  0  0  0  0
   21.4486  -18.4134  -13.5901 C   0  0  0  0  0  0  0  0  0  0  0  0
   19.9930  -17.3341  -13.5008 S   0  0  0  0  0  0  0  0  0  0  0  0
   20.0923  -20.1641  -14.5358 C   0  0  0  0  0  0  0  0  0  0  0  0
   18.7235  -20.2200  -14.3174 O   0  0  0  0  0  0  0  0  0  0  0  0
   20.5751  -20.3861  -15.6830 O   0  0  0  0  0  0  0  0  0  0  0  0
  2  1  1  6
  3  4  1  0
  3  2  1  0
  4  5  2  0
  5  6  1  0
  7  6  2  0
  8  7  1  0
  9  8  2  0
  9  4  1  0
 10  2  1  0
 10 11  2  0
 12 10  1  0
 13 12  1  0
 13 19  1  0
 13 14  1  1
 15 14  1  0
 16 15  1  0
 17 16  1  0
 18 17  1  0
 19 20  2  0
 19 21  1  0
 21 22  1  0
 22 25  1  0
 22 23  1  6
 24 23  1  0
 25 27  2  0
 25 26  1  0
M  END
$$$$
