FKC.pdb
     RDKit          3D

 27 27  0  0  1  0  0  0  0  0999 V2000
   25.0627  -12.3322  -18.3154 N   0  0  0  0  0  0  0  0  0  0  0  0
   24.3532  -12.2561  -17.0528 C   0  0  1  0  0  0  0  0  0  0  0  0
   25.3666  -12.2064  -15.9156 C   0  0  0  0  0  0  0  0  0  0  0  0
   26.0494  -13.4844  -15.6887 C   0  0  0  0  0  0  0  0  0  0  0  0
   25.5502  -14.4393  -14.8499 C   0  0  0  0  0  0  0  0  0  0  0  0
   26.2315  -15.6133  -14.6766 C   0  0  0  0  0  0  0  0  0  0  0  0
   27.4175  -15.8444  -15.3395 C   0  0  0  0  0  0  0  0  0  0  0  0
   27.9227  -14.8715  -16.1920 C   0  0  0  0  0  0  0  0  0  0  0  0
   27.2487  -13.6873  -16.3754 C   0  0  0  0  0  0  0  0  0  0  0  0
   23.5779  -10.9954  -16.9812 C   0  0  0  0  0  0  0  0  0  0  0  0
   24.0156   -9.9600  -17.5360 O   0  0  0  0  0  0  0  0  0  0  0  0
   22.3479  -10.9828  -16.2826 N   0  0  0  0  0  0  0  0  0  0  0  0
   21.4459   -9.8757  -16.3060 C   0  0  1  0  0  0  0  0  0  0  0  0
   20.0146  -10.3118  -16.0683 C   0  0  0  0  0  0  0  0  0  0  0  0
   19.1383   -9.1141  -16.4129 C   0  0  0  0  0  0  0  0  0  0  0  0
   17.6872   -9.4921  -16.2177 C   0  0  0  0  0  0  0  0  0  0  0  0
   16.8577   -8.2670  -16.5694 C   0  0  0  0  0  0  0  0  0  0  0  0
   15.4766   -8.5130  -16.2771 N   0  0  0  0  0  0  0  0  0  0  0  0
   21.8437   -8.7636  -15.4249 C   0  0  0  0  0  0  0  0  0  0  0  0
   22.1487   -9.0027  -14.2391 O   0  0  0  0  0  0  0  0  0  0  0  0
   21.8687   -7.4564  -15.9490 N   0  0  0  0  0  0  0  0  0  0  0  0
   22.3033   -6.3313  -15.1566 C   0  0  1  0  0  0  0  0  0  0  0  0
   23.1137   -5.3762  -16.0094 C   0  0  0  0  0  0  0  0  0  0  0  0
   23.5722   -3.9663  -14.9638 S   0  0  0  0  0  0  0  0  0  0  0  0
   21.1055   -5.5931  -14.6983 C   0  0  0  0  0  0  0  0  0  0  0  0
   21.0675   -5.1538  -13.3830 O   0  0  0  0  0  0  0  0  0  0  0  0
   20.1415   -5.3683  -15.4847 O   0  0  0  0  0  0  0  0  0  0  0  0
  2  1  1  6
  3  4  1  0
  3  2  1  0
  4  5  2  0
  5  6  1  0
  7  6  2  0
  8  7  1  0
  9  8  2  0
  9  4  1  0
 10  2  1  0
 10 11  2  0
 12 10  1  0
 13 12  1  0
 13 19  1  0
 13 14  1  1
 15 14  1  0
 16 15  1  0
 17 16  1  0
 18 17  1  0
 19 20  2  0
 19 21  1  0
 21 22  1  0
 22 25  1  0
 22 23  1  6
 24 23  1  0
 25 27  2  0
 25 26  1  0
M  END
$$$$
