FKC.pdb
     RDKit          3D

 27 27  0  0  1  0  0  0  0  0999 V2000
   28.5093  -21.3326   -9.0596 N   0  0  0  0  0  0  0  0  0  0  0  0
   27.1243  -20.9779   -8.8159 C   0  0  1  0  0  0  0  0  0  0  0  0
   27.0761  -19.6646   -8.0440 C   0  0  0  0  0  0  0  0  0  0  0  0
   27.6883  -19.7490   -6.7139 C   0  0  0  0  0  0  0  0  0  0  0  0
   27.1519  -20.5042   -5.7106 C   0  0  0  0  0  0  0  0  0  0  0  0
   27.7670  -20.5444   -4.4889 C   0  0  0  0  0  0  0  0  0  0  0  0
   28.9232  -19.8308   -4.2580 C   0  0  0  0  0  0  0  0  0  0  0  0
   29.4664  -19.0637   -5.2803 C   0  0  0  0  0  0  0  0  0  0  0  0
   28.8590  -19.0141   -6.5127 C   0  0  0  0  0  0  0  0  0  0  0  0
   26.4283  -20.7364  -10.1015 C   0  0  0  0  0  0  0  0  0  0  0  0
   26.9919  -20.0714  -11.0022 O   0  0  0  0  0  0  0  0  0  0  0  0
   25.1298  -21.2649  -10.2909 N   0  0  0  0  0  0  0  0  0  0  0  0
   24.5303  -21.4260  -11.5771 C   0  0  1  0  0  0  0  0  0  0  0  0
   24.7307  -22.8263  -12.1193 C   0  0  0  0  0  0  0  0  0  0  0  0
   24.3238  -22.7806  -13.5868 C   0  0  0  0  0  0  0  0  0  0  0  0
   24.6152  -24.1218  -14.2215 C   0  0  0  0  0  0  0  0  0  0  0  0
   24.1865  -24.0269  -15.6775 C   0  0  0  0  0  0  0  0  0  0  0  0
   24.3689  -25.2931  -16.3231 N   0  0  0  0  0  0  0  0  0  0  0  0
   23.1203  -21.0020  -11.6351 C   0  0  0  0  0  0  0  0  0  0  0  0
   22.3380  -21.3566  -10.7303 O   0  0  0  0  0  0  0  0  0  0  0  0
   22.6940  -20.2044  -12.7150 N   0  0  0  0  0  0  0  0  0  0  0  0
   21.3307  -19.7438  -12.8240 C   0  0  1  0  0  0  0  0  0  0  0  0
   21.2041  -18.7590  -13.9689 C   0  0  0  0  0  0  0  0  0  0  0  0
   22.0131  -17.2185  -13.4550 S   0  0  0  0  0  0  0  0  0  0  0  0
   20.4714  -20.9028  -13.1527 C   0  0  0  0  0  0  0  0  0  0  0  0
   19.1084  -20.7983  -12.9169 O   0  0  0  0  0  0  0  0  0  0  0  0
   20.9663  -21.9611  -13.6358 O   0  0  0  0  0  0  0  0  0  0  0  0
  2  1  1  6
  3  4  1  0
  3  2  1  0
  4  5  2  0
  5  6  1  0
  7  6  2  0
  8  7  1  0
  9  8  2  0
  9  4  1  0
 10  2  1  0
 10 11  2  0
 12 10  1  0
 13 12  1  0
 13 19  1  0
 13 14  1  1
 15 14  1  0
 16 15  1  0
 17 16  1  0
 18 17  1  0
 19 20  2  0
 19 21  1  0
 21 22  1  0
 22 25  1  0
 22 23  1  6
 24 23  1  0
 25 27  2  0
 25 26  1  0
M  END
$$$$
