FKC.pdb
     RDKit          3D

 27 27  0  0  1  0  0  0  0  0999 V2000
   26.9590  -30.2319  -17.0520 N   0  0  0  0  0  0  0  0  0  0  0  0
   27.5659  -31.5370  -16.8741 C   0  0  1  0  0  0  0  0  0  0  0  0
   28.5462  -31.4745  -15.7088 C   0  0  0  0  0  0  0  0  0  0  0  0
   29.9334  -31.2471  -16.1274 C   0  0  0  0  0  0  0  0  0  0  0  0
   30.3794  -30.0248  -16.5416 C   0  0  0  0  0  0  0  0  0  0  0  0
   31.6852  -29.8721  -16.9213 C   0  0  0  0  0  0  0  0  0  0  0  0
   32.5574  -30.9388  -16.8909 C   0  0  0  0  0  0  0  0  0  0  0  0
   32.1009  -32.1807  -16.4692 C   0  0  0  0  0  0  0  0  0  0  0  0
   30.7916  -32.3484  -16.0849 C   0  0  0  0  0  0  0  0  0  0  0  0
   26.5321  -32.5311  -16.5016 C   0  0  0  0  0  0  0  0  0  0  0  0
   25.3991  -32.1453  -16.1294 O   0  0  0  0  0  0  0  0  0  0  0  0
   26.8450  -33.9089  -16.5733 N   0  0  0  0  0  0  0  0  0  0  0  0
   25.8817  -34.9422  -16.3636 C   0  0  1  0  0  0  0  0  0  0  0  0
   26.2187  -36.1928  -17.1493 C   0  0  0  0  0  0  0  0  0  0  0  0
   27.5394  -36.7076  -16.5909 C   0  0  0  0  0  0  0  0  0  0  0  0
   27.9417  -37.9544  -17.3460 C   0  0  0  0  0  0  0  0  0  0  0  0
   29.1894  -38.5005  -16.6694 C   0  0  0  0  0  0  0  0  0  0  0  0
   29.6453  -39.6711  -17.3588 N   0  0  0  0  0  0  0  0  0  0  0  0
   25.6162  -35.2305  -14.9431 C   0  0  0  0  0  0  0  0  0  0  0  0
   26.5438  -35.1281  -14.1152 O   0  0  0  0  0  0  0  0  0  0  0  0
   24.3167  -35.6149  -14.5587 N   0  0  0  0  0  0  0  0  0  0  0  0
   23.9737  -35.8464  -13.1762 C   0  0  1  0  0  0  0  0  0  0  0  0
   23.2585  -34.6371  -12.6080 C   0  0  0  0  0  0  0  0  0  0  0  0
   24.5036  -33.6015  -11.7903 S   0  0  0  0  0  0  0  0  0  0  0  0
   23.0242  -36.9797  -13.1145 C   0  0  0  0  0  0  0  0  0  0  0  0
   23.1896  -37.9217  -12.1097 O   0  0  0  0  0  0  0  0  0  0  0  0
   22.0865  -37.0872  -13.9555 O   0  0  0  0  0  0  0  0  0  0  0  0
  2  1  1  1
  3  4  1  0
  3  2  1  0
  4  5  2  0
  5  6  1  0
  7  6  2  0
  8  7  1  0
  9  8  2  0
  9  4  1  0
 10  2  1  0
 10 11  2  0
 12 10  1  0
 13 12  1  0
 13 19  1  0
 13 14  1  6
 15 14  1  0
 16 15  1  0
 17 16  1  0
 18 17  1  0
 19 20  2  0
 19 21  1  0
 21 22  1  0
 22 25  1  0
 22 23  1  6
 24 23  1  0
 25 27  2  0
 25 26  1  0
M  END
$$$$
