FKC.pdb
     RDKit          3D

 27 27  0  0  1  0  0  0  0  0999 V2000
   19.1611  -24.4009  -11.9666 N   0  0  0  0  0  0  0  0  0  0  0  0
   19.1682  -23.7626  -10.6644 C   0  0  1  0  0  0  0  0  0  0  0  0
   18.6097  -22.3510  -10.7999 C   0  0  0  0  0  0  0  0  0  0  0  0
   19.5915  -21.3826  -11.2990 C   0  0  0  0  0  0  0  0  0  0  0  0
   20.5001  -20.7765  -10.4795 C   0  0  0  0  0  0  0  0  0  0  0  0
   21.3924  -19.8800  -11.0015 C   0  0  0  0  0  0  0  0  0  0  0  0
   21.3855  -19.5806  -12.3468 C   0  0  0  0  0  0  0  0  0  0  0  0
   20.4604  -20.1987  -13.1779 C   0  0  0  0  0  0  0  0  0  0  0  0
   19.5580  -21.1013  -12.6669 C   0  0  0  0  0  0  0  0  0  0  0  0
   18.2645  -24.4859   -9.7394 C   0  0  0  0  0  0  0  0  0  0  0  0
   17.3625  -25.2258  -10.1979 O   0  0  0  0  0  0  0  0  0  0  0  0
   18.4371  -24.3272   -8.3444 N   0  0  0  0  0  0  0  0  0  0  0  0
   17.6463  -25.0155   -7.3745 C   0  0  1  0  0  0  0  0  0  0  0  0
   18.4293  -25.2981   -6.1088 C   0  0  0  0  0  0  0  0  0  0  0  0
   17.5159  -26.1279   -5.2154 C   0  0  0  0  0  0  0  0  0  0  0  0
   18.2954  -26.5870   -4.0037 C   0  0  0  0  0  0  0  0  0  0  0  0
   17.3946  -27.5368   -3.2295 C   0  0  0  0  0  0  0  0  0  0  0  0
   18.0242  -27.9106   -1.9977 N   0  0  0  0  0  0  0  0  0  0  0  0
   16.3502  -24.3720   -7.0966 C   0  0  0  0  0  0  0  0  0  0  0  0
   16.3134  -23.1462   -6.8672 O   0  0  0  0  0  0  0  0  0  0  0  0
   15.1843  -25.1624   -7.0981 N   0  0  0  0  0  0  0  0  0  0  0  0
   13.8826  -24.5919   -6.8479 C   0  0  1  0  0  0  0  0  0  0  0  0
   12.8048  -25.6300   -7.0873 C   0  0  0  0  0  0  0  0  0  0  0  0
   11.2045  -24.8397   -6.7618 S   0  0  0  0  0  0  0  0  0  0  0  0
   13.8070  -24.2104   -5.4202 C   0  0  0  0  0  0  0  0  0  0  0  0
   14.1116  -25.1704   -4.4663 O   0  0  0  0  0  0  0  0  0  0  0  0
   13.4733  -23.0399   -5.0781 O   0  0  0  0  0  0  0  0  0  0  0  0
  2  1  1  6
  3  4  1  0
  3  2  1  0
  4  5  2  0
  5  6  1  0
  7  6  2  0
  8  7  1  0
  9  8  2  0
  9  4  1  0
 10  2  1  0
 10 11  2  0
 12 10  1  0
 13 12  1  0
 13 19  1  0
 13 14  1  1
 15 14  1  0
 16 15  1  0
 17 16  1  0
 18 17  1  0
 19 20  2  0
 19 21  1  0
 21 22  1  0
 22 25  1  0
 22 23  1  1
 24 23  1  0
 25 27  2  0
 25 26  1  0
M  END
$$$$
