FKC.pdb
     RDKit          3D

 27 27  0  0  1  0  0  0  0  0999 V2000
   27.0594  -18.0379   -8.3207 N   0  0  0  0  0  0  0  0  0  0  0  0
   27.0567  -19.4742   -8.5214 C   0  0  1  0  0  0  0  0  0  0  0  0
   26.5379  -20.1514   -7.2584 C   0  0  0  0  0  0  0  0  0  0  0  0
   27.4612  -20.0505   -6.1233 C   0  0  0  0  0  0  0  0  0  0  0  0
   28.5930  -19.2879   -6.1690 C   0  0  0  0  0  0  0  0  0  0  0  0
   29.4180  -19.2323   -5.0787 C   0  0  0  0  0  0  0  0  0  0  0  0
   29.1202  -19.9377   -3.9328 C   0  0  0  0  0  0  0  0  0  0  0  0
   27.9685  -20.7123   -3.8891 C   0  0  0  0  0  0  0  0  0  0  0  0
   27.1306  -20.7775   -4.9772 C   0  0  0  0  0  0  0  0  0  0  0  0
   26.1159  -19.8333   -9.6084 C   0  0  0  0  0  0  0  0  0  0  0  0
   24.9608  -19.3466   -9.6215 O   0  0  0  0  0  0  0  0  0  0  0  0
   26.5415  -20.7260  -10.6198 N   0  0  0  0  0  0  0  0  0  0  0  0
   25.9839  -20.7424  -11.9346 C   0  0  1  0  0  0  0  0  0  0  0  0
   26.9675  -21.2760  -12.9557 C   0  0  0  0  0  0  0  0  0  0  0  0
   26.2915  -21.1405  -14.3143 C   0  0  0  0  0  0  0  0  0  0  0  0
   27.1886  -21.7403  -15.3736 C   0  0  0  0  0  0  0  0  0  0  0  0
   26.5508  -21.4362  -16.7203 C   0  0  0  0  0  0  0  0  0  0  0  0
   27.2976  -22.0680  -17.7674 N   0  0  0  0  0  0  0  0  0  0  0  0
   24.6743  -21.4126  -12.0185 C   0  0  0  0  0  0  0  0  0  0  0  0
   24.5890  -22.6246  -11.7355 O   0  0  0  0  0  0  0  0  0  0  0  0
   23.5508  -20.6623  -12.4172 N   0  0  0  0  0  0  0  0  0  0  0  0
   22.2287  -21.2398  -12.4531 C   0  0  1  0  0  0  0  0  0  0  0  0
   21.1825  -20.1547  -12.2962 C   0  0  0  0  0  0  0  0  0  0  0  0
   21.2978  -19.5275  -10.5978 S   0  0  0  0  0  0  0  0  0  0  0  0
   22.0225  -21.8510  -13.7848 C   0  0  0  0  0  0  0  0  0  0  0  0
   20.9629  -22.7316  -13.9468 O   0  0  0  0  0  0  0  0  0  0  0  0
   22.7919  -21.5783  -14.7501 O   0  0  0  0  0  0  0  0  0  0  0  0
  2  1  1  1
  3  4  1  0
  3  2  1  0
  4  5  2  0
  5  6  1  0
  7  6  2  0
  8  7  1  0
  9  8  2  0
  9  4  1  0
 10  2  1  0
 10 11  2  0
 12 10  1  0
 13 12  1  0
 13 19  1  0
 13 14  1  6
 15 14  1  0
 16 15  1  0
 17 16  1  0
 18 17  1  0
 19 20  2  0
 19 21  1  0
 21 22  1  0
 22 25  1  0
 22 23  1  6
 24 23  1  0
 25 27  2  0
 25 26  1  0
M  END
$$$$
