FKC.pdb
     RDKit          3D

 27 27  0  0  1  0  0  0  0  0999 V2000
   23.5088  -12.3272  -16.7582 N   0  0  0  0  0  0  0  0  0  0  0  0
   22.6957  -11.8408  -17.8561 C   0  0  1  0  0  0  0  0  0  0  0  0
   21.4598  -12.7229  -17.9879 C   0  0  0  0  0  0  0  0  0  0  0  0
   21.7666  -14.0954  -18.4043 C   0  0  0  0  0  0  0  0  0  0  0  0
   21.6805  -15.1544  -17.5467 C   0  0  0  0  0  0  0  0  0  0  0  0
   21.9797  -16.4135  -17.9914 C   0  0  0  0  0  0  0  0  0  0  0  0
   22.3676  -16.6263  -19.2967 C   0  0  0  0  0  0  0  0  0  0  0  0
   22.4541  -15.5473  -20.1666 C   0  0  0  0  0  0  0  0  0  0  0  0
   22.1565  -14.2770  -19.7334 C   0  0  0  0  0  0  0  0  0  0  0  0
   22.2074  -10.4736  -17.5595 C   0  0  0  0  0  0  0  0  0  0  0  0
   22.0634  -10.1056  -16.3700 O   0  0  0  0  0  0  0  0  0  0  0  0
   21.9100   -9.6013  -18.6327 N   0  0  0  0  0  0  0  0  0  0  0  0
   21.5336   -8.2358  -18.4501 C   0  0  1  0  0  0  0  0  0  0  0  0
   21.9992   -7.3658  -19.5996 C   0  0  0  0  0  0  0  0  0  0  0  0
   21.6545   -5.9313  -19.2192 C   0  0  0  0  0  0  0  0  0  0  0  0
   22.1858   -4.9976  -20.2833 C   0  0  0  0  0  0  0  0  0  0  0  0
   21.9442   -3.5792  -19.7907 C   0  0  0  0  0  0  0  0  0  0  0  0
   22.2903   -2.6410  -20.8170 N   0  0  0  0  0  0  0  0  0  0  0  0
   20.1032   -8.0464  -18.1511 C   0  0  0  0  0  0  0  0  0  0  0  0
   19.2489   -8.5491  -18.9087 O   0  0  0  0  0  0  0  0  0  0  0  0
   19.7394   -7.3001  -17.0132 N   0  0  0  0  0  0  0  0  0  0  0  0
   18.3578   -7.1119  -16.6413 C   0  0  1  0  0  0  0  0  0  0  0  0
   17.8538   -8.3224  -15.8816 C   0  0  0  0  0  0  0  0  0  0  0  0
   18.9732   -8.5910  -14.4794 S   0  0  0  0  0  0  0  0  0  0  0  0
   18.2759   -5.9571  -15.7197 C   0  0  0  0  0  0  0  0  0  0  0  0
   19.4583   -5.3612  -15.3060 O   0  0  0  0  0  0  0  0  0  0  0  0
   17.1575   -5.5246  -15.3191 O   0  0  0  0  0  0  0  0  0  0  0  0
  2  1  1  1
  3  4  1  0
  3  2  1  0
  4  5  2  0
  5  6  1  0
  7  6  2  0
  8  7  1  0
  9  8  2  0
  9  4  1  0
 10  2  1  0
 10 11  2  0
 12 10  1  0
 13 12  1  0
 13 19  1  0
 13 14  1  6
 15 14  1  0
 16 15  1  0
 17 16  1  0
 18 17  1  0
 19 20  2  0
 19 21  1  0
 21 22  1  0
 22 25  1  0
 22 23  1  1
 24 23  1  0
 25 27  2  0
 25 26  1  0
M  END
$$$$
