FKC.pdb
     RDKit          3D

 27 27  0  0  1  0  0  0  0  0999 V2000
   17.7836  -10.4329  -18.8101 N   0  0  0  0  0  0  0  0  0  0  0  0
   18.7690   -9.4379  -19.1874 C   0  0  1  0  0  0  0  0  0  0  0  0
   18.0494   -8.1911  -19.6881 C   0  0  0  0  0  0  0  0  0  0  0  0
   17.3330   -8.4006  -20.9506 C   0  0  0  0  0  0  0  0  0  0  0  0
   17.9809   -8.5107  -22.1475 C   0  0  0  0  0  0  0  0  0  0  0  0
   17.2595   -8.7051  -23.2939 C   0  0  0  0  0  0  0  0  0  0  0  0
   15.8846   -8.7913  -23.2555 C   0  0  0  0  0  0  0  0  0  0  0  0
   15.2284   -8.6791  -22.0368 C   0  0  0  0  0  0  0  0  0  0  0  0
   15.9405   -8.4836  -20.8771 C   0  0  0  0  0  0  0  0  0  0  0  0
   19.5524   -9.0235  -18.0000 C   0  0  0  0  0  0  0  0  0  0  0  0
   18.9888   -8.9162  -16.8855 O   0  0  0  0  0  0  0  0  0  0  0  0
   20.9334   -8.7542  -18.1466 N   0  0  0  0  0  0  0  0  0  0  0  0
   21.7584   -8.2909  -17.0767 C   0  0  1  0  0  0  0  0  0  0  0  0
   23.1839   -8.7857  -17.2113 C   0  0  0  0  0  0  0  0  0  0  0  0
   23.2122  -10.1831  -16.6049 C   0  0  0  0  0  0  0  0  0  0  0  0
   24.5997  -10.7625  -16.7656 C   0  0  0  0  0  0  0  0  0  0  0  0
   24.5773  -12.1490  -16.1411 C   0  0  0  0  0  0  0  0  0  0  0  0
   25.8681  -12.7593  -16.2623 N   0  0  0  0  0  0  0  0  0  0  0  0
   21.6915   -6.8351  -16.8595 C   0  0  0  0  0  0  0  0  0  0  0  0
   21.9730   -6.0637  -17.7987 O   0  0  0  0  0  0  0  0  0  0  0  0
   21.3096   -6.3535  -15.5921 N   0  0  0  0  0  0  0  0  0  0  0  0
   21.3218   -4.9440  -15.2827 C   0  0  1  0  0  0  0  0  0  0  0  0
   19.9599   -4.5099  -14.7794 C   0  0  0  0  0  0  0  0  0  0  0  0
   20.0761   -2.7543  -14.3369 S   0  0  0  0  0  0  0  0  0  0  0  0
   22.2834   -4.7164  -14.1812 C   0  0  0  0  0  0  0  0  0  0  0  0
   23.1597   -3.6460  -14.2844 O   0  0  0  0  0  0  0  0  0  0  0  0
   22.3062   -5.4776  -13.1720 O   0  0  0  0  0  0  0  0  0  0  0  0
  2  1  1  1
  3  4  1  0
  3  2  1  0
  4  5  2  0
  5  6  1  0
  7  6  2  0
  8  7  1  0
  9  8  2  0
  9  4  1  0
 10  2  1  0
 10 11  2  0
 12 10  1  0
 13 12  1  0
 13 19  1  0
 13 14  1  6
 15 14  1  0
 16 15  1  0
 17 16  1  0
 18 17  1  0
 19 20  2  0
 19 21  1  0
 21 22  1  0
 22 25  1  0
 22 23  1  1
 24 23  1  0
 25 27  2  0
 25 26  1  0
M  END
$$$$
