FKC.pdb
     RDKit          3D

 27 27  0  0  1  0  0  0  0  0999 V2000
   19.6551  -12.0466  -17.5748 N   0  0  0  0  0  0  0  0  0  0  0  0
   18.7262  -11.0306  -17.1186 C   0  0  1  0  0  0  0  0  0  0  0  0
   18.2392  -11.3942  -15.7209 C   0  0  0  0  0  0  0  0  0  0  0  0
   17.3779  -12.5811  -15.6956 C   0  0  0  0  0  0  0  0  0  0  0  0
   16.1393  -12.5961  -16.2702 C   0  0  0  0  0  0  0  0  0  0  0  0
   15.3796  -13.7328  -16.2148 C   0  0  0  0  0  0  0  0  0  0  0  0
   15.8498  -14.8649  -15.5850 C   0  0  0  0  0  0  0  0  0  0  0  0
   17.1099  -14.8467  -15.0016 C   0  0  0  0  0  0  0  0  0  0  0  0
   17.8840  -13.7116  -15.0497 C   0  0  0  0  0  0  0  0  0  0  0  0
   19.4194   -9.7267  -16.9969 C   0  0  0  0  0  0  0  0  0  0  0  0
   20.6379   -9.6913  -16.7051 O   0  0  0  0  0  0  0  0  0  0  0  0
   18.6877   -8.5356  -17.2139 N   0  0  0  0  0  0  0  0  0  0  0  0
   19.2943   -7.2439  -17.2715 C   0  0  1  0  0  0  0  0  0  0  0  0
   18.5070   -6.2917  -18.1481 C   0  0  0  0  0  0  0  0  0  0  0  0
   18.7745   -6.7130  -19.5876 C   0  0  0  0  0  0  0  0  0  0  0  0
   17.9497   -5.8497  -20.5155 C   0  0  0  0  0  0  0  0  0  0  0  0
   18.1850   -6.3640  -21.9272 C   0  0  0  0  0  0  0  0  0  0  0  0
   17.2837   -5.7211  -22.8370 N   0  0  0  0  0  0  0  0  0  0  0  0
   19.5939   -6.6663  -15.9494 C   0  0  0  0  0  0  0  0  0  0  0  0
   18.6585   -6.4393  -15.1557 O   0  0  0  0  0  0  0  0  0  0  0  0
   20.9339   -6.3861  -15.6176 N   0  0  0  0  0  0  0  0  0  0  0  0
   21.2970   -5.8387  -14.3326 C   0  0  1  0  0  0  0  0  0  0  0  0
   22.4974   -6.5756  -13.7735 C   0  0  0  0  0  0  0  0  0  0  0  0
   21.9299   -8.2121  -13.2340 S   0  0  0  0  0  0  0  0  0  0  0  0
   21.7047   -4.4292  -14.5243 C   0  0  0  0  0  0  0  0  0  0  0  0
   21.7445   -3.9265  -15.8167 O   0  0  0  0  0  0  0  0  0  0  0  0
   22.0092   -3.7016  -13.5363 O   0  0  0  0  0  0  0  0  0  0  0  0
  2  1  1  1
  3  4  1  0
  3  2  1  0
  4  5  2  0
  5  6  1  0
  7  6  2  0
  8  7  1  0
  9  8  2  0
  9  4  1  0
 10  2  1  0
 10 11  2  0
 12 10  1  0
 13 12  1  0
 13 19  1  0
 13 14  1  1
 15 14  1  0
 16 15  1  0
 17 16  1  0
 18 17  1  0
 19 20  2  0
 19 21  1  0
 21 22  1  0
 22 25  1  0
 22 23  1  6
 24 23  1  0
 25 27  2  0
 25 26  1  0
M  END
$$$$
