FKC.pdb
     RDKit          3D

 27 27  0  0  1  0  0  0  0  0999 V2000
   26.5626  -20.2757  -15.4692 N   0  0  0  0  0  0  0  0  0  0  0  0
   25.7454  -19.4749  -14.5780 C   0  0  1  0  0  0  0  0  0  0  0  0
   25.0606  -18.3773  -15.3838 C   0  0  0  0  0  0  0  0  0  0  0  0
   25.9942  -17.3827  -15.9226 C   0  0  0  0  0  0  0  0  0  0  0  0
   26.5162  -16.3812  -15.1551 C   0  0  0  0  0  0  0  0  0  0  0  0
   27.3829  -15.4808  -15.7126 C   0  0  0  0  0  0  0  0  0  0  0  0
   27.7361  -15.5726  -17.0416 C   0  0  0  0  0  0  0  0  0  0  0  0
   27.2037  -16.5922  -17.8196 C   0  0  0  0  0  0  0  0  0  0  0  0
   26.3319  -17.5036  -17.2726 C   0  0  0  0  0  0  0  0  0  0  0  0
   24.6655  -20.3056  -13.9955 C   0  0  0  0  0  0  0  0  0  0  0  0
   24.2625  -21.3241  -14.6050 O   0  0  0  0  0  0  0  0  0  0  0  0
   24.1042  -19.9313  -12.7521 N   0  0  0  0  0  0  0  0  0  0  0  0
   23.0198  -20.6311  -12.1406 C   0  0  1  0  0  0  0  0  0  0  0  0
   23.0443  -20.4977  -10.6317 C   0  0  0  0  0  0  0  0  0  0  0  0
   21.9273  -21.3892  -10.1038 C   0  0  0  0  0  0  0  0  0  0  0  0
   21.9206  -21.3291   -8.5929 C   0  0  0  0  0  0  0  0  0  0  0  0
   20.8398  -22.2863   -8.1150 C   0  0  0  0  0  0  0  0  0  0  0  0
   20.7569  -22.2533   -6.6848 N   0  0  0  0  0  0  0  0  0  0  0  0
   21.7009  -20.3005  -12.7083 C   0  0  0  0  0  0  0  0  0  0  0  0
   21.2633  -19.1372  -12.5999 O   0  0  0  0  0  0  0  0  0  0  0  0
   20.9685  -21.3115  -13.3605 N   0  0  0  0  0  0  0  0  0  0  0  0
   19.6953  -21.0417  -13.9839 C   0  0  1  0  0  0  0  0  0  0  0  0
   19.5639  -21.8396  -15.2656 C   0  0  0  0  0  0  0  0  0  0  0  0
   20.8628  -21.2711  -16.3975 S   0  0  0  0  0  0  0  0  0  0  0  0
   18.6232  -21.5035  -13.0744 C   0  0  0  0  0  0  0  0  0  0  0  0
   17.3056  -21.2669  -13.4380 O   0  0  0  0  0  0  0  0  0  0  0  0
   18.9005  -22.0982  -11.9938 O   0  0  0  0  0  0  0  0  0  0  0  0
  2  1  1  6
  3  4  1  0
  3  2  1  0
  4  5  2  0
  5  6  1  0
  7  6  2  0
  8  7  1  0
  9  8  2  0
  9  4  1  0
 10  2  1  0
 10 11  2  0
 12 10  1  0
 13 12  1  0
 13 19  1  0
 13 14  1  1
 15 14  1  0
 16 15  1  0
 17 16  1  0
 18 17  1  0
 19 20  2  0
 19 21  1  0
 21 22  1  0
 22 25  1  0
 22 23  1  6
 24 23  1  0
 25 27  2  0
 25 26  1  0
M  END
$$$$
