EPD.pdb
     RDKit          3D

 25 25  0  0  1  0  0  0  0  0999 V2000
    9.5330  -15.3923   15.1696 N   0  0  0  0  0  0  0  0  0  0  0  0
    8.6411  -15.4527   16.3301 C   0  0  1  0  0  0  0  0  0  0  0  0
    8.3124  -16.9501   16.4867 C   0  0  0  0  0  0  0  0  0  0  0  0
    7.5930  -17.3351   15.2116 C   0  0  0  0  0  0  0  0  0  0  0  0
    7.2062  -18.7631   15.2002 C   0  0  0  0  0  0  0  0  0  0  0  0
    8.0474  -19.6845   15.0772 O   0  0  0  0  0  0  0  0  0  0  0  0
    9.3851  -14.9929   17.5108 C   0  0  0  0  0  0  0  0  0  0  0  0
   10.6679  -15.0422   17.4437 O   0  0  0  0  0  0  0  0  0  0  0  0
    5.8669  -19.0863   15.3304 O   0  0  0  0  0  0  0  0  0  0  0  0
    8.7743  -14.5067   18.6933 N   0  0  0  0  0  0  0  0  0  0  0  0
    7.3469  -14.3979   18.9200 C   0  0  0  0  0  0  0  0  0  0  0  0
    7.1656  -13.3123   19.9625 C   0  0  0  0  0  0  0  0  0  0  0  0
    8.5586  -12.8830   20.3162 C   0  0  0  0  0  0  0  0  0  0  0  0
    9.4286  -14.0411   19.8650 C   0  0  1  0  0  0  0  0  0  0  0  0
    9.4700  -15.0664   20.9501 C   0  0  0  0  0  0  0  0  0  0  0  0
    8.5574  -15.8997   21.1479 O   0  0  0  0  0  0  0  0  0  0  0  0
   10.5953  -15.0917   21.7892 N   0  0  0  0  0  0  0  0  0  0  0  0
   10.8177  -16.1330   22.8088 C   0  0  1  0  0  0  0  0  0  0  0  0
   12.2832  -16.0689   23.1253 C   0  0  0  0  0  0  0  0  0  0  0  0
   13.1936  -16.2457   21.9970 C   0  0  0  0  0  0  0  0  0  0  0  0
   12.9571  -17.2526   21.2383 O   0  0  0  0  0  0  0  0  0  0  0  0
    9.9254  -15.9205   23.9556 C   0  0  0  0  0  0  0  0  0  0  0  0
    9.2863  -14.8579   24.0835 O   0  0  0  0  0  0  0  0  0  0  0  0
   14.2663  -15.4818   21.6418 O   0  0  0  0  0  0  0  0  0  0  0  0
    9.7560  -16.8885   24.9412 O   0  0  0  0  0  0  0  0  0  0  0  0
  2  7  1  0
  2  1  1  6
  3  2  1  0
  4  3  1  0
  5  4  1  0
  6  5  2  0
  7  8  2  0
  9  5  1  0
 10  7  1  0
 10 14  1  0
 11 10  1  0
 12 11  1  0
 12 13  1  0
 13 14  1  0
 14 15  1  1
 15 17  1  0
 16 15  2  0
 18 17  1  0
 18 19  1  1
 19 20  1  0
 20 24  1  0
 20 21  2  0
 22 18  1  0
 23 22  2  0
 25 22  1  0
M  END
$$$$
