EPD.pdb
     RDKit          3D

 25 25  0  0  1  0  0  0  0  0999 V2000
    8.1918  -12.9709   19.0884 N   0  0  0  0  0  0  0  0  0  0  0  0
    7.3800  -13.4380   20.2148 C   0  0  1  0  0  0  0  0  0  0  0  0
    6.8301  -14.8021   19.7546 C   0  0  0  0  0  0  0  0  0  0  0  0
    8.0518  -15.6330   19.4248 C   0  0  0  0  0  0  0  0  0  0  0  0
    7.6942  -17.0047   19.0012 C   0  0  0  0  0  0  0  0  0  0  0  0
    6.5755  -17.2841   18.5091 O   0  0  0  0  0  0  0  0  0  0  0  0
    8.2634  -13.6361   21.3721 C   0  0  0  0  0  0  0  0  0  0  0  0
    9.5288  -13.5897   21.1507 O   0  0  0  0  0  0  0  0  0  0  0  0
    8.6323  -18.0102   19.1561 O   0  0  0  0  0  0  0  0  0  0  0  0
    7.8020  -13.8689   22.6913 N   0  0  0  0  0  0  0  0  0  0  0  0
    6.4185  -14.0629   23.0774 C   0  0  0  0  0  0  0  0  0  0  0  0
    6.3247  -13.6560   24.5347 C   0  0  0  0  0  0  0  0  0  0  0  0
    7.7259  -13.2844   24.9206 C   0  0  0  0  0  0  0  0  0  0  0  0
    8.5896  -13.9568   23.8702 C   0  0  1  0  0  0  0  0  0  0  0  0
    8.8494  -15.3670   24.2879 C   0  0  0  0  0  0  0  0  0  0  0  0
    8.0243  -16.2955   24.1353 O   0  0  0  0  0  0  0  0  0  0  0  0
   10.0871  -15.6600   24.8825 N   0  0  0  0  0  0  0  0  0  0  0  0
   10.6937  -17.0035   24.8620 C   0  0  1  0  0  0  0  0  0  0  0  0
   12.0750  -16.8045   24.3106 C   0  0  0  0  0  0  0  0  0  0  0  0
   12.9480  -17.9753   24.3235 C   0  0  0  0  0  0  0  0  0  0  0  0
   14.2073  -17.7361   24.2774 O   0  0  0  0  0  0  0  0  0  0  0  0
   10.6406  -17.6057   26.2003 C   0  0  0  0  0  0  0  0  0  0  0  0
   10.8045  -18.8310   26.3599 O   0  0  0  0  0  0  0  0  0  0  0  0
   12.6022  -19.2937   24.3767 O   0  0  0  0  0  0  0  0  0  0  0  0
   10.4069  -16.8404   27.3391 O   0  0  0  0  0  0  0  0  0  0  0  0
  2  7  1  0
  2  1  1  6
  3  2  1  0
  4  3  1  0
  5  4  1  0
  6  5  2  0
  7  8  2  0
  9  5  1  0
 10  7  1  0
 10 14  1  0
 11 10  1  0
 12 11  1  0
 12 13  1  0
 13 14  1  0
 14 15  1  1
 15 17  1  0
 16 15  2  0
 18 17  1  0
 18 19  1  1
 19 20  1  0
 20 24  1  0
 20 21  2  0
 22 18  1  0
 23 22  2  0
 25 22  1  0
M  END
$$$$
