EPD.pdb
     RDKit          3D

 25 25  0  0  1  0  0  0  0  0999 V2000
   84.6170  -44.2140  -45.9333 N   0  0  0  0  0  0  0  0  0  0  0  0
   84.0838  -44.8366  -44.7192 C   0  0  1  0  0  0  0  0  0  0  0  0
   82.6255  -45.1868  -45.0737 C   0  0  0  0  0  0  0  0  0  0  0  0
   81.8200  -43.9602  -44.7018 C   0  0  0  0  0  0  0  0  0  0  0  0
   81.3025  -44.0329  -43.3176 C   0  0  0  0  0  0  0  0  0  0  0  0
   80.6347  -43.1055  -42.8020 O   0  0  0  0  0  0  0  0  0  0  0  0
   84.8328  -46.0751  -44.4661 C   0  0  0  0  0  0  0  0  0  0  0  0
   84.7422  -46.5770  -43.2862 O   0  0  0  0  0  0  0  0  0  0  0  0
   81.5681  -45.1676  -42.5712 O   0  0  0  0  0  0  0  0  0  0  0  0
   85.6312  -46.7311  -45.4356 N   0  0  0  0  0  0  0  0  0  0  0  0
   85.9565  -46.2124  -46.7492 C   0  0  0  0  0  0  0  0  0  0  0  0
   86.2535  -47.4182  -47.6188 C   0  0  0  0  0  0  0  0  0  0  0  0
   86.1205  -48.5963  -46.6999 C   0  0  0  0  0  0  0  0  0  0  0  0
   86.2572  -48.0002  -45.3116 C   0  0  1  0  0  0  0  0  0  0  0  0
   87.7075  -47.8983  -44.9696 C   0  0  0  0  0  0  0  0  0  0  0  0
   88.1447  -47.9338  -43.7975 O   0  0  0  0  0  0  0  0  0  0  0  0
   88.6238  -47.7556  -46.0237 N   0  0  0  0  0  0  0  0  0  0  0  0
   90.0851  -47.7658  -45.8288 C   0  0  1  0  0  0  0  0  0  0  0  0
   90.6205  -46.7605  -46.8058 C   0  0  0  0  0  0  0  0  0  0  0  0
   90.9142  -47.2594  -48.1466 C   0  0  0  0  0  0  0  0  0  0  0  0
   90.2957  -46.6789  -49.1088 O   0  0  0  0  0  0  0  0  0  0  0  0
   90.4123  -47.4993  -44.4222 C   0  0  0  0  0  0  0  0  0  0  0  0
   89.8501  -48.1255  -43.5026 O   0  0  0  0  0  0  0  0  0  0  0  0
   91.7599  -48.2645  -48.5139 O   0  0  0  0  0  0  0  0  0  0  0  0
   91.3566  -46.5439  -44.0582 O   0  0  0  0  0  0  0  0  0  0  0  0
  2  7  1  0
  2  1  1  6
  3  2  1  0
  4  3  1  0
  5  4  1  0
  6  5  2  0
  7  8  2  0
  9  5  1  0
 10  7  1  0
 10 14  1  0
 11 10  1  0
 12 11  1  0
 12 13  1  0
 13 14  1  0
 14 15  1  6
 15 17  1  0
 16 15  2  0
 18 17  1  0
 18 19  1  6
 19 20  1  0
 20 24  1  0
 20 21  2  0
 22 18  1  0
 23 22  2  0
 25 22  1  0
M  END
$$$$
