EPD.pdb
     RDKit          3D

 25 25  0  0  1  0  0  0  0  0999 V2000
    7.7536  -14.3282   21.1040 N   0  0  0  0  0  0  0  0  0  0  0  0
    7.0321  -14.2103   22.3735 C   0  0  1  0  0  0  0  0  0  0  0  0
    6.3053  -15.5600   22.5311 C   0  0  0  0  0  0  0  0  0  0  0  0
    7.3601  -16.6132   22.2670 C   0  0  0  0  0  0  0  0  0  0  0  0
    6.8505  -17.9823   22.5013 C   0  0  0  0  0  0  0  0  0  0  0  0
    5.6270  -18.2548   22.4807 O   0  0  0  0  0  0  0  0  0  0  0  0
    8.0166  -14.0599   23.4539 C   0  0  0  0  0  0  0  0  0  0  0  0
    9.2527  -14.2185   23.1386 O   0  0  0  0  0  0  0  0  0  0  0  0
    7.7619  -18.9932   22.7513 O   0  0  0  0  0  0  0  0  0  0  0  0
    7.6806  -13.7539   24.7959 N   0  0  0  0  0  0  0  0  0  0  0  0
    6.3375  -13.7115   25.3388 C   0  0  0  0  0  0  0  0  0  0  0  0
    6.3938  -12.7824   26.5354 C   0  0  0  0  0  0  0  0  0  0  0  0
    7.8330  -12.3715   26.6351 C   0  0  0  0  0  0  0  0  0  0  0  0
    8.5770  -13.4361   25.8510 C   0  0  1  0  0  0  0  0  0  0  0  0
    8.8473  -14.5981   26.7495 C   0  0  0  0  0  0  0  0  0  0  0  0
    7.9565  -15.3750   27.1607 O   0  0  0  0  0  0  0  0  0  0  0  0
   10.1735  -14.8258   27.1502 N   0  0  0  0  0  0  0  0  0  0  0  0
   10.5938  -16.0190   27.9071 C   0  0  1  0  0  0  0  0  0  0  0  0
   12.0079  -16.2803   27.4787 C   0  0  0  0  0  0  0  0  0  0  0  0
   12.2207  -16.4780   26.0474 C   0  0  0  0  0  0  0  0  0  0  0  0
   11.3819  -17.2480   25.4570 O   0  0  0  0  0  0  0  0  0  0  0  0
   10.4125  -15.7974   29.3474 C   0  0  0  0  0  0  0  0  0  0  0  0
   10.1731  -14.6596   29.7967 O   0  0  0  0  0  0  0  0  0  0  0  0
   13.1965  -15.9529   25.2520 O   0  0  0  0  0  0  0  0  0  0  0  0
   10.4996  -16.8398   30.2656 O   0  0  0  0  0  0  0  0  0  0  0  0
  2  7  1  0
  2  1  1  6
  3  2  1  0
  4  3  1  0
  5  4  1  0
  6  5  2  0
  7  8  2  0
  9  5  1  0
 10  7  1  0
 10 14  1  0
 11 10  1  0
 12 11  1  0
 12 13  1  0
 13 14  1  0
 14 15  1  1
 15 17  1  0
 16 15  2  0
 18 17  1  0
 18 19  1  1
 19 20  1  0
 20 24  1  0
 20 21  2  0
 22 18  1  0
 23 22  2  0
 25 22  1  0
M  END
$$$$
