EPD.pdb
     RDKit          3D

 25 25  0  0  1  0  0  0  0  0999 V2000
    8.5491  -14.0362   20.9729 N   0  0  0  0  0  0  0  0  0  0  0  0
    7.5712  -13.8243   22.0428 C   0  0  1  0  0  0  0  0  0  0  0  0
    6.5658  -14.9810   21.8813 C   0  0  0  0  0  0  0  0  0  0  0  0
    7.4072  -16.2392   21.8568 C   0  0  0  0  0  0  0  0  0  0  0  0
    6.5771  -17.4633   21.8194 C   0  0  0  0  0  0  0  0  0  0  0  0
    6.7103  -18.3893   22.6540 O   0  0  0  0  0  0  0  0  0  0  0  0
    8.2605  -13.9569   23.3337 C   0  0  0  0  0  0  0  0  0  0  0  0
    9.4618  -14.4135   23.3057 O   0  0  0  0  0  0  0  0  0  0  0  0
    5.6215  -17.5840   20.8257 O   0  0  0  0  0  0  0  0  0  0  0  0
    7.6821  -13.6129   24.5805 N   0  0  0  0  0  0  0  0  0  0  0  0
    6.3234  -13.1492   24.7790 C   0  0  0  0  0  0  0  0  0  0  0  0
    6.3347  -12.3424   26.0624 C   0  0  0  0  0  0  0  0  0  0  0  0
    7.7454  -12.4378   26.5635 C   0  0  0  0  0  0  0  0  0  0  0  0
    8.3082  -13.6554   25.8549 C   0  0  1  0  0  0  0  0  0  0  0  0
    7.9495  -14.8777   26.6346 C   0  0  0  0  0  0  0  0  0  0  0  0
    6.8865  -15.5165   26.4669 O   0  0  0  0  0  0  0  0  0  0  0  0
    8.8575  -15.3289   27.6058 N   0  0  0  0  0  0  0  0  0  0  0  0
    9.5312  -16.6382   27.5333 C   0  0  1  0  0  0  0  0  0  0  0  0
   10.2406  -16.6444   26.2110 C   0  0  0  0  0  0  0  0  0  0  0  0
   11.0803  -17.8074   25.9365 C   0  0  0  0  0  0  0  0  0  0  0  0
   10.9185  -18.8124   26.7169 O   0  0  0  0  0  0  0  0  0  0  0  0
   10.3979  -16.8295   28.7033 C   0  0  0  0  0  0  0  0  0  0  0  0
   11.2375  -15.9673   29.0281 O   0  0  0  0  0  0  0  0  0  0  0  0
   12.0179  -17.9679   24.9589 O   0  0  0  0  0  0  0  0  0  0  0  0
   10.3197  -17.9724   29.4937 O   0  0  0  0  0  0  0  0  0  0  0  0
  2  7  1  0
  2  1  1  6
  3  2  1  0
  4  3  1  0
  5  4  1  0
  6  5  2  0
  7  8  2  0
  9  5  1  0
 10  7  1  0
 10 14  1  0
 11 10  1  0
 12 11  1  0
 12 13  1  0
 13 14  1  0
 14 15  1  1
 15 17  1  0
 16 15  2  0
 18 17  1  0
 18 19  1  6
 19 20  1  0
 20 24  1  0
 20 21  2  0
 22 18  1  0
 23 22  2  0
 25 22  1  0
M  END
$$$$
