EPD.pdb
     RDKit          3D

 25 25  0  0  1  0  0  0  0  0999 V2000
    8.9881  -16.8695   16.4002 N   0  0  0  0  0  0  0  0  0  0  0  0
    8.0743  -16.2193   17.3426 C   0  0  1  0  0  0  0  0  0  0  0  0
    7.0550  -17.3151   17.7102 C   0  0  0  0  0  0  0  0  0  0  0  0
    7.8583  -18.5958   17.7879 C   0  0  0  0  0  0  0  0  0  0  0  0
    7.0349  -19.7434   18.2284 C   0  0  0  0  0  0  0  0  0  0  0  0
    6.4915  -19.7843   19.3574 O   0  0  0  0  0  0  0  0  0  0  0  0
    8.8357  -15.8426   18.5415 C   0  0  0  0  0  0  0  0  0  0  0  0
   10.0149  -16.3405   18.6601 O   0  0  0  0  0  0  0  0  0  0  0  0
    6.8624  -20.8059   17.3586 O   0  0  0  0  0  0  0  0  0  0  0  0
    8.3481  -14.9761   19.5509 N   0  0  0  0  0  0  0  0  0  0  0  0
    7.0121  -14.4171   19.6073 C   0  0  0  0  0  0  0  0  0  0  0  0
    7.1212  -13.1409   20.4182 C   0  0  0  0  0  0  0  0  0  0  0  0
    8.5613  -13.0707   20.8319 C   0  0  0  0  0  0  0  0  0  0  0  0
    9.0589  -14.4961   20.6832 C   0  0  1  0  0  0  0  0  0  0  0  0
    8.7385  -15.2528   21.9303 C   0  0  0  0  0  0  0  0  0  0  0  0
    7.6469  -15.8332   22.1246 O   0  0  0  0  0  0  0  0  0  0  0  0
    9.7183  -15.3126   22.9341 N   0  0  0  0  0  0  0  0  0  0  0  0
   10.1305  -16.5696   23.5848 C   0  0  1  0  0  0  0  0  0  0  0  0
   10.5971  -17.4573   22.4686 C   0  0  0  0  0  0  0  0  0  0  0  0
   11.1963  -18.7289   22.8651 C   0  0  0  0  0  0  0  0  0  0  0  0
   10.3743  -19.6740   23.1411 O   0  0  0  0  0  0  0  0  0  0  0  0
   11.1330  -16.2995   24.6233 C   0  0  0  0  0  0  0  0  0  0  0  0
   11.1374  -16.9391   25.6933 O   0  0  0  0  0  0  0  0  0  0  0  0
   12.5175  -19.0465   22.9831 O   0  0  0  0  0  0  0  0  0  0  0  0
   12.1137  -15.3257   24.4591 O   0  0  0  0  0  0  0  0  0  0  0  0
  2  7  1  0
  2  1  1  6
  3  2  1  0
  4  3  1  0
  5  4  1  0
  6  5  2  0
  7  8  2  0
  9  5  1  0
 10  7  1  0
 10 14  1  0
 11 10  1  0
 12 11  1  0
 12 13  1  0
 13 14  1  0
 14 15  1  1
 15 17  1  0
 16 15  2  0
 18 17  1  0
 18 19  1  6
 19 20  1  0
 20 24  1  0
 20 21  2  0
 22 18  1  0
 23 22  2  0
 25 22  1  0
M  END
$$$$
