EPD.pdb
     RDKit          3D

 25 25  0  0  1  0  0  0  0  0999 V2000
    7.9970  -17.3948   17.0973 N   0  0  0  0  0  0  0  0  0  0  0  0
    7.3916  -16.8253   18.3036 C   0  0  1  0  0  0  0  0  0  0  0  0
    6.6911  -18.0177   18.9837 C   0  0  0  0  0  0  0  0  0  0  0  0
    7.6586  -19.1746   18.8533 C   0  0  0  0  0  0  0  0  0  0  0  0
    7.2485  -20.3379   19.6704 C   0  0  0  0  0  0  0  0  0  0  0  0
    7.1900  -20.2908   20.9218 O   0  0  0  0  0  0  0  0  0  0  0  0
    8.4680  -16.3334   19.1745 C   0  0  0  0  0  0  0  0  0  0  0  0
    9.6738  -16.5597   18.7907 O   0  0  0  0  0  0  0  0  0  0  0  0
    6.9191  -21.5165   19.0243 O   0  0  0  0  0  0  0  0  0  0  0  0
    8.2498  -15.6361   20.3884 N   0  0  0  0  0  0  0  0  0  0  0  0
    6.9563  -15.3696   20.9854 C   0  0  0  0  0  0  0  0  0  0  0  0
    7.1356  -14.1388   21.8520 C   0  0  0  0  0  0  0  0  0  0  0  0
    8.5897  -13.7914   21.7294 C   0  0  0  0  0  0  0  0  0  0  0  0
    9.2367  -15.0739   21.2414 C   0  0  1  0  0  0  0  0  0  0  0  0
    9.5437  -15.9393   22.4193 C   0  0  0  0  0  0  0  0  0  0  0  0
    8.7176  -16.7285   22.9303 O   0  0  0  0  0  0  0  0  0  0  0  0
   10.8292  -15.8588   22.9781 N   0  0  0  0  0  0  0  0  0  0  0  0
   11.4524  -16.9635   23.7296 C   0  0  1  0  0  0  0  0  0  0  0  0
   12.9245  -16.8385   23.4665 C   0  0  0  0  0  0  0  0  0  0  0  0
   13.7789  -17.8381   24.1020 C   0  0  0  0  0  0  0  0  0  0  0  0
   13.9053  -17.7401   25.3746 O   0  0  0  0  0  0  0  0  0  0  0  0
   11.0671  -16.8965   25.1451 C   0  0  0  0  0  0  0  0  0  0  0  0
   10.6992  -15.8226   25.6601 O   0  0  0  0  0  0  0  0  0  0  0  0
   14.4642  -18.8645   23.5211 O   0  0  0  0  0  0  0  0  0  0  0  0
   11.0957  -18.0201   25.9659 O   0  0  0  0  0  0  0  0  0  0  0  0
  2  7  1  0
  2  1  1  6
  3  2  1  0
  4  3  1  0
  5  4  1  0
  6  5  2  0
  7  8  2  0
  9  5  1  0
 10  7  1  0
 10 14  1  0
 11 10  1  0
 12 11  1  0
 12 13  1  0
 13 14  1  0
 14 15  1  1
 15 17  1  0
 16 15  2  0
 18 17  1  0
 18 19  1  1
 19 20  1  0
 20 24  1  0
 20 21  2  0
 22 18  1  0
 23 22  2  0
 25 22  1  0
M  END
$$$$
