EPD.pdb
     RDKit          3D

 25 25  0  0  1  0  0  0  0  0999 V2000
    8.7117  -14.5346   21.1291 N   0  0  0  0  0  0  0  0  0  0  0  0
    8.1474  -15.0351   22.3849 C   0  0  1  0  0  0  0  0  0  0  0  0
    8.6823  -16.4757   22.5012 C   0  0  0  0  0  0  0  0  0  0  0  0
    7.8845  -17.2788   21.4961 C   0  0  0  0  0  0  0  0  0  0  0  0
    8.4712  -18.6165   21.2609 C   0  0  0  0  0  0  0  0  0  0  0  0
    7.8147  -19.6732   21.4166 O   0  0  0  0  0  0  0  0  0  0  0  0
    8.6842  -14.2273   23.4887 C   0  0  0  0  0  0  0  0  0  0  0  0
    9.9203  -13.8837   23.4084 O   0  0  0  0  0  0  0  0  0  0  0  0
    9.7916  -18.6972   20.8547 O   0  0  0  0  0  0  0  0  0  0  0  0
    7.9252  -13.8151   24.6118 N   0  0  0  0  0  0  0  0  0  0  0  0
    6.5194  -13.4629   24.5945 C   0  0  0  0  0  0  0  0  0  0  0  0
    6.3014  -12.5334   25.7721 C   0  0  0  0  0  0  0  0  0  0  0  0
    7.6394  -12.4455   26.4447 C   0  0  0  0  0  0  0  0  0  0  0  0
    8.3843  -13.6703   25.9483 C   0  0  1  0  0  0  0  0  0  0  0  0
    8.0279  -14.8360   26.8113 C   0  0  0  0  0  0  0  0  0  0  0  0
    7.1429  -15.6697   26.5149 O   0  0  0  0  0  0  0  0  0  0  0  0
    8.7268  -14.9996   28.0180 N   0  0  0  0  0  0  0  0  0  0  0  0
    9.7846  -16.0090   28.2067 C   0  0  1  0  0  0  0  0  0  0  0  0
   10.6262  -15.9353   26.9666 C   0  0  0  0  0  0  0  0  0  0  0  0
   11.7458  -16.8702   26.8921 C   0  0  0  0  0  0  0  0  0  0  0  0
   11.8472  -17.7019   27.8633 O   0  0  0  0  0  0  0  0  0  0  0  0
   10.5058  -15.7610   29.4618 C   0  0  0  0  0  0  0  0  0  0  0  0
   10.5840  -16.6404   30.3417 O   0  0  0  0  0  0  0  0  0  0  0  0
   12.7022  -16.9766   25.9255 O   0  0  0  0  0  0  0  0  0  0  0  0
   11.1280  -14.5433   29.7207 O   0  0  0  0  0  0  0  0  0  0  0  0
  2  7  1  0
  2  1  1  6
  3  2  1  0
  4  3  1  0
  5  4  1  0
  6  5  2  0
  7  8  2  0
  9  5  1  0
 10  7  1  0
 10 14  1  0
 11 10  1  0
 12 11  1  0
 12 13  1  0
 13 14  1  0
 14 15  1  1
 15 17  1  0
 16 15  2  0
 18 17  1  0
 18 19  1  6
 19 20  1  0
 20 24  1  0
 20 21  2  0
 22 18  1  0
 23 22  2  0
 25 22  1  0
M  END
$$$$
