TWD.pdb
     RDKit          3D

 30 31  0  0  1  0  0  0  0  0999 V2000
    6.8001  -15.2678   18.1623 C   0  0  0  0  0  0  0  0  0  0  0  0
    7.7026  -15.4333   19.3542 C   0  0  1  0  0  0  0  0  0  0  0  0
    9.0006  -15.5506   18.9353 O   0  0  0  0  0  0  0  0  0  0  0  0
    7.4941  -14.3501   20.3957 C   0  0  2  0  0  0  0  0  0  0  0  0
    7.7337  -13.0430   19.8147 N   0  0  0  0  0  0  0  0  0  0  0  0
    8.3199  -14.6061   21.6075 C   0  0  0  0  0  0  0  0  0  0  0  0
    9.3667  -13.8977   21.7031 O   0  0  0  0  0  0  0  0  0  0  0  0
    8.0050  -15.5531   22.6060 N   0  0  0  0  0  0  0  0  0  0  0  0
    8.8778  -15.7288   23.7432 C   0  0  1  0  0  0  0  0  0  0  0  0
    8.1348  -15.9483   25.0114 C   0  0  0  0  0  0  0  0  0  0  0  0
    7.1822  -14.8987   25.4193 C   0  0  0  0  0  0  0  0  0  0  0  0
    5.7887  -15.0944   25.5227 C   0  0  0  0  0  0  0  0  0  0  0  0
    5.2307  -13.9723   25.9610 N   0  0  0  0  0  0  0  0  0  0  0  0
    6.1447  -13.0140   26.1665 C   0  0  0  0  0  0  0  0  0  0  0  0
    6.0139  -11.7138   26.5937 C   0  0  0  0  0  0  0  0  0  0  0  0
    7.1779  -10.9573   26.6801 C   0  0  0  0  0  0  0  0  0  0  0  0
    8.4153  -11.5157   26.3424 C   0  0  0  0  0  0  0  0  0  0  0  0
    8.4991  -12.8212   25.9209 C   0  0  0  0  0  0  0  0  0  0  0  0
    7.3628  -13.5997   25.8251 C   0  0  0  0  0  0  0  0  0  0  0  0
   10.0003  -16.6104   23.5450 C   0  0  0  0  0  0  0  0  0  0  0  0
    9.8391  -17.6942   22.9308 O   0  0  0  0  0  0  0  0  0  0  0  0
   11.3284  -16.3569   24.0043 N   0  0  0  0  0  0  0  0  0  0  0  0
   12.3623  -17.3705   23.9683 C   0  0  1  0  0  0  0  0  0  0  0  0
   13.7290  -16.8194   23.7712 C   0  0  0  0  0  0  0  0  0  0  0  0
   13.8606  -16.1745   22.4538 C   0  0  0  0  0  0  0  0  0  0  0  0
   13.2534  -16.6575   21.4784 O   0  0  0  0  0  0  0  0  0  0  0  0
   12.3290  -18.1330   25.2968 C   0  0  0  0  0  0  0  0  0  0  0  0
   11.4908  -17.7283   26.3185 O   0  0  0  0  0  0  0  0  0  0  0  0
   14.6364  -15.0438   22.2495 O   0  0  0  0  0  0  0  0  0  0  0  0
   13.0608  -19.1319   25.4728 O   0  0  0  0  0  0  0  0  0  0  0  0
  2  1  1  6
  2  3  1  0
  4  2  1  0
  4  5  1  6
  6  7  2  0
  6  4  1  0
  8  6  1  0
  9  8  1  0
  9 10  1  1
 10 11  1  0
 11 12  2  0
 11 19  1  0
 12 13  1  0
 13 14  1  0
 14 15  2  0
 15 16  1  0
 17 16  2  0
 18 17  1  0
 19 18  2  0
 19 14  1  0
 20 21  2  0
 20  9  1  0
 22 20  1  0
 23 24  1  1
 23 22  1  0
 25 29  1  0
 25 24  1  0
 26 25  2  0
 27 23  1  0
 28 27  1  0
 30 27  2  0
M  END
$$$$
