TWD.pdb
     RDKit          3D

 30 31  0  0  1  0  0  0  0  0999 V2000
    6.7503  -14.9924   18.4526 C   0  0  0  0  0  0  0  0  0  0  0  0
    7.5935  -15.2696   19.6670 C   0  0  1  0  0  0  0  0  0  0  0  0
    8.8473  -15.6572   19.2776 O   0  0  0  0  0  0  0  0  0  0  0  0
    7.5911  -14.1156   20.6518 C   0  0  2  0  0  0  0  0  0  0  0  0
    7.9348  -12.8791   19.9763 N   0  0  0  0  0  0  0  0  0  0  0  0
    8.4715  -14.4037   21.8170 C   0  0  0  0  0  0  0  0  0  0  0  0
    9.6038  -13.8348   21.7877 O   0  0  0  0  0  0  0  0  0  0  0  0
    8.1196  -15.2385   22.8998 N   0  0  0  0  0  0  0  0  0  0  0  0
    9.0949  -15.5648   23.9138 C   0  0  1  0  0  0  0  0  0  0  0  0
    8.5152  -15.5966   25.2818 C   0  0  0  0  0  0  0  0  0  0  0  0
    7.3793  -14.6944   25.5484 C   0  0  0  0  0  0  0  0  0  0  0  0
    6.0254  -15.0743   25.4321 C   0  0  0  0  0  0  0  0  0  0  0  0
    5.2614  -14.0495   25.7909 N   0  0  0  0  0  0  0  0  0  0  0  0
    5.9961  -12.9867   26.1464 C   0  0  0  0  0  0  0  0  0  0  0  0
    5.6282  -11.7290   26.5625 C   0  0  0  0  0  0  0  0  0  0  0  0
    6.6530  -10.8297   26.8371 C   0  0  0  0  0  0  0  0  0  0  0  0
    7.9912  -11.2099   26.6894 C   0  0  0  0  0  0  0  0  0  0  0  0
    8.3129  -12.4791   26.2715 C   0  0  0  0  0  0  0  0  0  0  0  0
    7.3196  -13.3965   25.9918 C   0  0  0  0  0  0  0  0  0  0  0  0
    9.9758  -16.6639   23.6095 C   0  0  0  0  0  0  0  0  0  0  0  0
    9.9479  -17.1854   22.4671 O   0  0  0  0  0  0  0  0  0  0  0  0
   10.9096  -17.2389   24.5241 N   0  0  0  0  0  0  0  0  0  0  0  0
   12.2596  -17.5852   24.1302 C   0  0  1  0  0  0  0  0  0  0  0  0
   13.0171  -16.4497   23.5407 C   0  0  0  0  0  0  0  0  0  0  0  0
   13.3421  -16.7007   22.1264 C   0  0  0  0  0  0  0  0  0  0  0  0
   12.9255  -17.7425   21.5837 O   0  0  0  0  0  0  0  0  0  0  0  0
   13.0071  -18.0793   25.3731 C   0  0  0  0  0  0  0  0  0  0  0  0
   13.7603  -19.2371   25.3260 O   0  0  0  0  0  0  0  0  0  0  0  0
   14.0968  -15.8211   21.3657 O   0  0  0  0  0  0  0  0  0  0  0  0
   12.9445  -17.4400   26.4462 O   0  0  0  0  0  0  0  0  0  0  0  0
  2  1  1  6
  2  3  1  0
  4  2  1  0
  4  5  1  6
  6  7  2  0
  6  4  1  0
  8  6  1  0
  9  8  1  0
  9 10  1  1
 10 11  1  0
 11 12  2  0
 11 19  1  0
 12 13  1  0
 13 14  1  0
 14 15  2  0
 15 16  1  0
 17 16  2  0
 18 17  1  0
 19 18  2  0
 19 14  1  0
 20 21  2  0
 20  9  1  0
 22 20  1  0
 23 24  1  1
 23 22  1  0
 25 29  1  0
 25 24  1  0
 26 25  2  0
 27 23  1  0
 28 27  1  0
 30 27  2  0
M  END
$$$$
