TWD.pdb
     RDKit          3D

 30 31  0  0  1  0  0  0  0  0999 V2000
    9.6269  -19.1424   18.2426 C   0  0  0  0  0  0  0  0  0  0  0  0
    9.5812  -18.4184   19.5603 C   0  0  1  0  0  0  0  0  0  0  0  0
   10.2592  -19.1402   20.5053 O   0  0  0  0  0  0  0  0  0  0  0  0
   10.0419  -16.9774   19.4478 C   0  0  2  0  0  0  0  0  0  0  0  0
   11.3595  -16.9178   18.8446 N   0  0  0  0  0  0  0  0  0  0  0  0
    9.9763  -16.2894   20.7662 C   0  0  0  0  0  0  0  0  0  0  0  0
   11.0950  -15.9251   21.2377 O   0  0  0  0  0  0  0  0  0  0  0  0
    8.7843  -16.0355   21.4787 N   0  0  0  0  0  0  0  0  0  0  0  0
    8.8351  -15.4350   22.7912 C   0  0  1  0  0  0  0  0  0  0  0  0
    7.8503  -14.3348   22.9601 C   0  0  0  0  0  0  0  0  0  0  0  0
    7.2122  -14.2050   24.2834 C   0  0  0  0  0  0  0  0  0  0  0  0
    6.3429  -15.1680   24.8384 C   0  0  0  0  0  0  0  0  0  0  0  0
    5.9871  -14.7723   26.0548 N   0  0  0  0  0  0  0  0  0  0  0  0
    6.5511  -13.6002   26.3773 C   0  0  0  0  0  0  0  0  0  0  0  0
    6.4486  -12.8263   27.5090 C   0  0  0  0  0  0  0  0  0  0  0  0
    7.1552  -11.6284   27.5210 C   0  0  0  0  0  0  0  0  0  0  0  0
    7.9293  -11.2485   26.4194 C   0  0  0  0  0  0  0  0  0  0  0  0
    8.0036  -12.0546   25.3087 C   0  0  0  0  0  0  0  0  0  0  0  0
    7.3153  -13.2507   25.2649 C   0  0  0  0  0  0  0  0  0  0  0  0
    8.9068  -16.3518   23.9006 C   0  0  0  0  0  0  0  0  0  0  0  0
    8.1395  -16.2001   24.8835 O   0  0  0  0  0  0  0  0  0  0  0  0
    9.8077  -17.4561   23.9899 N   0  0  0  0  0  0  0  0  0  0  0  0
   10.7054  -17.6287   25.1134 C   0  0  1  0  0  0  0  0  0  0  0  0
   12.0494  -17.0305   24.8983 C   0  0  0  0  0  0  0  0  0  0  0  0
   12.8713  -17.8682   24.0085 C   0  0  0  0  0  0  0  0  0  0  0  0
   12.3967  -18.9333   23.5686 O   0  0  0  0  0  0  0  0  0  0  0  0
   10.0667  -16.9689   26.3399 C   0  0  0  0  0  0  0  0  0  0  0  0
    9.8060  -17.7070   27.4789 O   0  0  0  0  0  0  0  0  0  0  0  0
   14.1603  -17.5205   23.6351 O   0  0  0  0  0  0  0  0  0  0  0  0
    9.7733  -15.7532   26.3249 O   0  0  0  0  0  0  0  0  0  0  0  0
  2  1  1  6
  2  3  1  0
  4  2  1  0
  4  5  1  1
  6  7  2  0
  6  4  1  0
  8  6  1  0
  9  8  1  0
  9 10  1  1
 10 11  1  0
 11 12  2  0
 11 19  1  0
 12 13  1  0
 13 14  1  0
 14 15  2  0
 15 16  1  0
 17 16  2  0
 18 17  1  0
 19 18  2  0
 19 14  1  0
 20 21  2  0
 20  9  1  0
 22 20  1  0
 23 24  1  6
 23 22  1  0
 25 29  1  0
 25 24  1  0
 26 25  2  0
 27 23  1  0
 28 27  1  0
 30 27  2  0
M  END
$$$$
