TWD.pdb
     RDKit          3D

 30 31  0  0  1  0  0  0  0  0999 V2000
    6.8871  -15.1607   17.9126 C   0  0  0  0  0  0  0  0  0  0  0  0
    7.7441  -15.2926   19.1417 C   0  0  1  0  0  0  0  0  0  0  0  0
    9.0617  -15.3665   18.7778 O   0  0  0  0  0  0  0  0  0  0  0  0
    7.4555  -14.2150   20.1697 C   0  0  2  0  0  0  0  0  0  0  0  0
    7.5899  -12.9012   19.5703 N   0  0  0  0  0  0  0  0  0  0  0  0
    8.3033  -14.3891   21.3808 C   0  0  0  0  0  0  0  0  0  0  0  0
    9.2843  -13.5913   21.4684 O   0  0  0  0  0  0  0  0  0  0  0  0
    8.0747  -15.3529   22.3868 N   0  0  0  0  0  0  0  0  0  0  0  0
    8.9974  -15.4861   23.4898 C   0  0  1  0  0  0  0  0  0  0  0  0
    8.3340  -15.9204   24.7468 C   0  0  0  0  0  0  0  0  0  0  0  0
    7.2733  -15.0456   25.2805 C   0  0  0  0  0  0  0  0  0  0  0  0
    5.9268  -15.4394   25.4311 C   0  0  0  0  0  0  0  0  0  0  0  0
    5.2483  -14.4406   25.9831 N   0  0  0  0  0  0  0  0  0  0  0  0
    6.0350  -13.3827   26.2230 C   0  0  0  0  0  0  0  0  0  0  0  0
    5.7546  -12.1479   26.7587 C   0  0  0  0  0  0  0  0  0  0  0  0
    6.8092  -11.2459   26.8526 C   0  0  0  0  0  0  0  0  0  0  0  0
    8.0896  -11.6012   26.4152 C   0  0  0  0  0  0  0  0  0  0  0  0
    8.3245  -12.8481   25.8869 C   0  0  0  0  0  0  0  0  0  0  0  0
    7.2998  -13.7674   25.7806 C   0  0  0  0  0  0  0  0  0  0  0  0
   10.2337  -16.1662   23.1977 C   0  0  0  0  0  0  0  0  0  0  0  0
   10.2229  -17.1930   22.4742 O   0  0  0  0  0  0  0  0  0  0  0  0
   11.5181  -15.7670   23.6775 N   0  0  0  0  0  0  0  0  0  0  0  0
   12.7157  -16.5331   23.4009 C   0  0  1  0  0  0  0  0  0  0  0  0
   13.9336  -15.6956   23.2395 C   0  0  0  0  0  0  0  0  0  0  0  0
   15.1288  -16.5271   23.0186 C   0  0  0  0  0  0  0  0  0  0  0  0
   14.9863  -17.7375   22.7581 O   0  0  0  0  0  0  0  0  0  0  0  0
   12.9402  -17.5040   24.5647 C   0  0  0  0  0  0  0  0  0  0  0  0
   12.1043  -17.4867   25.6653 O   0  0  0  0  0  0  0  0  0  0  0  0
   16.4164  -16.0179   23.0878 O   0  0  0  0  0  0  0  0  0  0  0  0
   13.8834  -18.3245   24.5327 O   0  0  0  0  0  0  0  0  0  0  0  0
  2  1  1  6
  2  3  1  0
  4  2  1  0
  4  5  1  6
  6  7  2  0
  6  4  1  0
  8  6  1  0
  9  8  1  0
  9 10  1  1
 10 11  1  0
 11 12  2  0
 11 19  1  0
 12 13  1  0
 13 14  1  0
 14 15  2  0
 15 16  1  0
 17 16  2  0
 18 17  1  0
 19 18  2  0
 19 14  1  0
 20 21  2  0
 20  9  1  0
 22 20  1  0
 23 24  1  1
 23 22  1  0
 25 29  1  0
 25 24  1  0
 26 25  2  0
 27 23  1  0
 28 27  1  0
 30 27  2  0
M  END
$$$$
