TWD.pdb
     RDKit          3D

 30 31  0  0  1  0  0  0  0  0999 V2000
    6.8091  -14.6590   17.8141 C   0  0  0  0  0  0  0  0  0  0  0  0
    7.6745  -14.9358   19.0128 C   0  0  1  0  0  0  0  0  0  0  0  0
    8.9796  -15.0598   18.6190 O   0  0  0  0  0  0  0  0  0  0  0  0
    7.4671  -13.9251   20.1250 C   0  0  2  0  0  0  0  0  0  0  0  0
    7.7108  -12.5823   19.6342 N   0  0  0  0  0  0  0  0  0  0  0  0
    8.2902  -14.2647   21.3179 C   0  0  0  0  0  0  0  0  0  0  0  0
    9.3610  -13.5973   21.4387 O   0  0  0  0  0  0  0  0  0  0  0  0
    7.9488  -15.2459   22.2738 N   0  0  0  0  0  0  0  0  0  0  0  0
    8.8332  -15.5209   23.3820 C   0  0  1  0  0  0  0  0  0  0  0  0
    8.1093  -15.9748   24.5980 C   0  0  0  0  0  0  0  0  0  0  0  0
    7.1435  -15.0321   25.1929 C   0  0  0  0  0  0  0  0  0  0  0  0
    5.7891  -15.3409   25.4404 C   0  0  0  0  0  0  0  0  0  0  0  0
    5.2127  -14.2980   26.0257 N   0  0  0  0  0  0  0  0  0  0  0  0
    6.0773  -13.2888   26.1985 C   0  0  0  0  0  0  0  0  0  0  0  0
    5.9106  -12.0350   26.7374 C   0  0  0  0  0  0  0  0  0  0  0  0
    7.0223  -11.1991   26.7478 C   0  0  0  0  0  0  0  0  0  0  0  0
    8.2452  -11.6361   26.2277 C   0  0  0  0  0  0  0  0  0  0  0  0
    8.3664  -12.8991   25.6994 C   0  0  0  0  0  0  0  0  0  0  0  0
    7.2826  -13.7542   25.6748 C   0  0  0  0  0  0  0  0  0  0  0  0
   10.0167  -16.2809   23.0693 C   0  0  0  0  0  0  0  0  0  0  0  0
    9.9957  -17.1017   22.1186 O   0  0  0  0  0  0  0  0  0  0  0  0
   11.2568  -16.1861   23.7709 N   0  0  0  0  0  0  0  0  0  0  0  0
   12.4086  -16.9868   23.4106 C   0  0  1  0  0  0  0  0  0  0  0  0
   13.6178  -16.1813   23.0947 C   0  0  0  0  0  0  0  0  0  0  0  0
   14.7572  -17.0441   22.7394 C   0  0  0  0  0  0  0  0  0  0  0  0
   15.6083  -17.3138   23.6089 O   0  0  0  0  0  0  0  0  0  0  0  0
   12.7318  -17.9139   24.5868 C   0  0  0  0  0  0  0  0  0  0  0  0
   13.6818  -18.9092   24.4565 O   0  0  0  0  0  0  0  0  0  0  0  0
   14.9254  -17.5743   21.4695 O   0  0  0  0  0  0  0  0  0  0  0  0
   12.1391  -17.7809   25.6801 O   0  0  0  0  0  0  0  0  0  0  0  0
  2  1  1  6
  2  3  1  0
  4  2  1  0
  4  5  1  6
  6  7  2  0
  6  4  1  0
  8  6  1  0
  9  8  1  0
  9 10  1  1
 10 11  1  0
 11 12  2  0
 11 19  1  0
 12 13  1  0
 13 14  1  0
 14 15  2  0
 15 16  1  0
 17 16  2  0
 18 17  1  0
 19 18  2  0
 19 14  1  0
 20 21  2  0
 20  9  1  0
 22 20  1  0
 23 24  1  1
 23 22  1  0
 25 29  1  0
 25 24  1  0
 26 25  2  0
 27 23  1  0
 28 27  1  0
 30 27  2  0
M  END
$$$$
