TWD.pdb
     RDKit          3D

 30 31  0  0  1  0  0  0  0  0999 V2000
    8.0675  -16.9959   19.7830 C   0  0  0  0  0  0  0  0  0  0  0  0
    8.1012  -15.5109   19.5460 C   0  0  1  0  0  0  0  0  0  0  0  0
    7.5283  -15.2252   18.3360 O   0  0  0  0  0  0  0  0  0  0  0  0
    7.5100  -14.7246   20.7009 C   0  0  2  0  0  0  0  0  0  0  0  0
    7.3516  -13.3315   20.3301 N   0  0  0  0  0  0  0  0  0  0  0  0
    8.3141  -14.9069   21.9403 C   0  0  0  0  0  0  0  0  0  0  0  0
    9.2801  -14.0977   22.0771 O   0  0  0  0  0  0  0  0  0  0  0  0
    8.0613  -15.8895   22.9219 N   0  0  0  0  0  0  0  0  0  0  0  0
    8.9016  -15.9810   24.0930 C   0  0  1  0  0  0  0  0  0  0  0  0
    8.1232  -16.0354   25.3578 C   0  0  0  0  0  0  0  0  0  0  0  0
    7.1743  -14.9343   25.6076 C   0  0  0  0  0  0  0  0  0  0  0  0
    5.7713  -15.0833   25.5955 C   0  0  0  0  0  0  0  0  0  0  0  0
    5.2148  -13.9189   25.9070 N   0  0  0  0  0  0  0  0  0  0  0  0
    6.1388  -12.9749   26.1326 C   0  0  0  0  0  0  0  0  0  0  0  0
    6.0148  -11.6455   26.4605 C   0  0  0  0  0  0  0  0  0  0  0  0
    7.1914  -10.9179   26.6038 C   0  0  0  0  0  0  0  0  0  0  0  0
    8.4344  -11.5324   26.4179 C   0  0  0  0  0  0  0  0  0  0  0  0
    8.5110  -12.8653   26.0916 C   0  0  0  0  0  0  0  0  0  0  0  0
    7.3620  -13.6163   25.9429 C   0  0  0  0  0  0  0  0  0  0  0  0
    9.9882  -16.9242   24.0159 C   0  0  0  0  0  0  0  0  0  0  0  0
    9.7763  -18.0829   23.5795 O   0  0  0  0  0  0  0  0  0  0  0  0
   11.3338  -16.6532   24.4094 N   0  0  0  0  0  0  0  0  0  0  0  0
   12.3384  -17.6937   24.4853 C   0  0  1  0  0  0  0  0  0  0  0  0
   13.7326  -17.1790   24.4399 C   0  0  0  0  0  0  0  0  0  0  0  0
   13.9689  -16.3820   23.2243 C   0  0  0  0  0  0  0  0  0  0  0  0
   13.4415  -16.7385   22.1528 O   0  0  0  0  0  0  0  0  0  0  0  0
   12.1399  -18.4533   25.8010 C   0  0  0  0  0  0  0  0  0  0  0  0
   12.9520  -19.5242   26.1235 O   0  0  0  0  0  0  0  0  0  0  0  0
   14.7586  -15.2425   23.2197 O   0  0  0  0  0  0  0  0  0  0  0  0
   11.2397  -18.1130   26.5997 O   0  0  0  0  0  0  0  0  0  0  0  0
  2  1  1  1
  2  3  1  0
  4  2  1  0
  4  5  1  6
  6  7  2  0
  6  4  1  0
  8  6  1  0
  9  8  1  0
  9 10  1  1
 10 11  1  0
 11 12  2  0
 11 19  1  0
 12 13  1  0
 13 14  1  0
 14 15  2  0
 15 16  1  0
 17 16  2  0
 18 17  1  0
 19 18  2  0
 19 14  1  0
 20 21  2  0
 20  9  1  0
 22 20  1  0
 23 24  1  1
 23 22  1  0
 25 29  1  0
 25 24  1  0
 26 25  2  0
 27 23  1  0
 28 27  1  0
 30 27  2  0
M  END
$$$$
