TWD.pdb
     RDKit          3D

 30 31  0  0  1  0  0  0  0  0999 V2000
    8.4904  -16.9742   19.6053 C   0  0  0  0  0  0  0  0  0  0  0  0
    8.3407  -15.5038   19.3260 C   0  0  1  0  0  0  0  0  0  0  0  0
    7.7577  -15.3255   18.1004 O   0  0  0  0  0  0  0  0  0  0  0  0
    7.6350  -14.7678   20.4493 C   0  0  2  0  0  0  0  0  0  0  0  0
    7.3477  -13.4030   20.0518 N   0  0  0  0  0  0  0  0  0  0  0  0
    8.4125  -14.8514   21.7160 C   0  0  0  0  0  0  0  0  0  0  0  0
    9.2926  -13.9516   21.8657 O   0  0  0  0  0  0  0  0  0  0  0  0
    8.2225  -15.8366   22.7091 N   0  0  0  0  0  0  0  0  0  0  0  0
    9.1171  -15.9113   23.8404 C   0  0  1  0  0  0  0  0  0  0  0  0
    8.3986  -16.0151   25.1372 C   0  0  0  0  0  0  0  0  0  0  0  0
    7.3221  -15.0381   25.3859 C   0  0  0  0  0  0  0  0  0  0  0  0
    5.9465  -15.3387   25.2937 C   0  0  0  0  0  0  0  0  0  0  0  0
    5.2496  -14.2591   25.6274 N   0  0  0  0  0  0  0  0  0  0  0  0
    6.0508  -13.2324   25.9430 C   0  0  0  0  0  0  0  0  0  0  0  0
    5.7639  -11.9427   26.3231 C   0  0  0  0  0  0  0  0  0  0  0  0
    6.8439  -11.0990   26.5602 C   0  0  0  0  0  0  0  0  0  0  0  0
    8.1550  -11.5639   26.4123 C   0  0  0  0  0  0  0  0  0  0  0  0
    8.3952  -12.8624   26.0312 C   0  0  0  0  0  0  0  0  0  0  0  0
    7.3455  -13.7260   25.7892 C   0  0  0  0  0  0  0  0  0  0  0  0
   10.2355  -16.8090   23.7003 C   0  0  0  0  0  0  0  0  0  0  0  0
   10.0708  -17.9269   23.1516 O   0  0  0  0  0  0  0  0  0  0  0  0
   11.5630  -16.5354   24.1495 N   0  0  0  0  0  0  0  0  0  0  0  0
   12.6044  -17.5419   24.1331 C   0  0  1  0  0  0  0  0  0  0  0  0
   13.9683  -16.9836   23.9369 C   0  0  0  0  0  0  0  0  0  0  0  0
   14.0565  -16.2155   22.6835 C   0  0  0  0  0  0  0  0  0  0  0  0
   13.5533  -16.6880   21.6457 O   0  0  0  0  0  0  0  0  0  0  0  0
   12.5685  -18.2871   25.4714 C   0  0  0  0  0  0  0  0  0  0  0  0
   13.3734  -19.3905   25.6829 O   0  0  0  0  0  0  0  0  0  0  0  0
   14.6793  -14.9793   22.6068 O   0  0  0  0  0  0  0  0  0  0  0  0
   11.8096  -17.9053   26.3892 O   0  0  0  0  0  0  0  0  0  0  0  0
  2  1  1  1
  2  3  1  0
  4  2  1  0
  4  5  1  6
  6  7  2  0
  6  4  1  0
  8  6  1  0
  9  8  1  0
  9 10  1  1
 10 11  1  0
 11 12  2  0
 11 19  1  0
 12 13  1  0
 13 14  1  0
 14 15  2  0
 15 16  1  0
 17 16  2  0
 18 17  1  0
 19 18  2  0
 19 14  1  0
 20 21  2  0
 20  9  1  0
 22 20  1  0
 23 24  1  1
 23 22  1  0
 25 29  1  0
 25 24  1  0
 26 25  2  0
 27 23  1  0
 28 27  1  0
 30 27  2  0
M  END
$$$$
