TWD.pdb
     RDKit          3D

 30 31  0  0  1  0  0  0  0  0999 V2000
    6.4537  -16.9020   18.6296 C   0  0  0  0  0  0  0  0  0  0  0  0
    7.3304  -16.8435   19.8505 C   0  0  1  0  0  0  0  0  0  0  0  0
    8.5531  -17.3889   19.5653 O   0  0  0  0  0  0  0  0  0  0  0  0
    7.4086  -15.4492   20.4434 C   0  0  2  0  0  0  0  0  0  0  0  0
    7.8119  -14.4947   19.4286 N   0  0  0  0  0  0  0  0  0  0  0  0
    8.2889  -15.4260   21.6436 C   0  0  0  0  0  0  0  0  0  0  0  0
    9.4352  -14.9178   21.4586 O   0  0  0  0  0  0  0  0  0  0  0  0
    7.9226  -15.9179   22.9152 N   0  0  0  0  0  0  0  0  0  0  0  0
    8.9085  -16.0261   23.9650 C   0  0  1  0  0  0  0  0  0  0  0  0
    8.3017  -16.1068   25.3192 C   0  0  0  0  0  0  0  0  0  0  0  0
    7.3522  -15.0415   25.6918 C   0  0  0  0  0  0  0  0  0  0  0  0
    5.9679  -15.2459   25.8732 C   0  0  0  0  0  0  0  0  0  0  0  0
    5.4127  -14.1011   26.2527 N   0  0  0  0  0  0  0  0  0  0  0  0
    6.3200  -13.1191   26.3446 C   0  0  0  0  0  0  0  0  0  0  0  0
    6.1883  -11.7924   26.6802 C   0  0  0  0  0  0  0  0  0  0  0  0
    7.3431  -11.0175   26.6570 C   0  0  0  0  0  0  0  0  0  0  0  0
    8.5726  -11.5843   26.3049 C   0  0  0  0  0  0  0  0  0  0  0  0
    8.6577  -12.9164   25.9776 C   0  0  0  0  0  0  0  0  0  0  0  0
    7.5305  -13.7137   25.9918 C   0  0  0  0  0  0  0  0  0  0  0  0
    9.9783  -16.9623   23.7299 C   0  0  0  0  0  0  0  0  0  0  0  0
    9.9046  -17.7610   22.7632 O   0  0  0  0  0  0  0  0  0  0  0  0
   11.1571  -17.0722   24.5284 N   0  0  0  0  0  0  0  0  0  0  0  0
   12.3902  -17.6266   24.0089 C   0  0  1  0  0  0  0  0  0  0  0  0
   12.9109  -16.9059   22.8173 C   0  0  0  0  0  0  0  0  0  0  0  0
   14.1964  -17.4691   22.3712 C   0  0  0  0  0  0  0  0  0  0  0  0
   14.3780  -18.6999   22.4454 O   0  0  0  0  0  0  0  0  0  0  0  0
   13.4454  -17.5647   25.1180 C   0  0  0  0  0  0  0  0  0  0  0  0
   13.1360  -17.0268   26.3530 O   0  0  0  0  0  0  0  0  0  0  0  0
   15.2218  -16.6836   21.8675 O   0  0  0  0  0  0  0  0  0  0  0  0
   14.6006  -18.0006   24.9188 O   0  0  0  0  0  0  0  0  0  0  0  0
  2  1  1  6
  2  3  1  0
  4  2  1  0
  4  5  1  6
  6  7  2  0
  6  4  1  0
  8  6  1  0
  9  8  1  0
  9 10  1  1
 10 11  1  0
 11 12  2  0
 11 19  1  0
 12 13  1  0
 13 14  1  0
 14 15  2  0
 15 16  1  0
 17 16  2  0
 18 17  1  0
 19 18  2  0
 19 14  1  0
 20 21  2  0
 20  9  1  0
 22 20  1  0
 23 24  1  6
 23 22  1  0
 25 29  1  0
 25 24  1  0
 26 25  2  0
 27 23  1  0
 28 27  1  0
 30 27  2  0
M  END
$$$$
