TWD.pdb
     RDKit          3D

 30 31  0  0  1  0  0  0  0  0999 V2000
    8.9515  -18.5341   17.3339 C   0  0  0  0  0  0  0  0  0  0  0  0
    9.0839  -18.0450   18.7502 C   0  0  1  0  0  0  0  0  0  0  0  0
   10.0761  -18.7412   19.3863 O   0  0  0  0  0  0  0  0  0  0  0  0
    9.2477  -16.5390   18.8319 C   0  0  2  0  0  0  0  0  0  0  0  0
   10.4274  -16.1224   18.0984 N   0  0  0  0  0  0  0  0  0  0  0  0
    9.2514  -16.0766   20.2468 C   0  0  0  0  0  0  0  0  0  0  0  0
   10.4010  -15.9218   20.7578 O   0  0  0  0  0  0  0  0  0  0  0  0
    8.0910  -15.8140   21.0068 N   0  0  0  0  0  0  0  0  0  0  0  0
    8.1940  -15.5406   22.4212 C   0  0  1  0  0  0  0  0  0  0  0  0
    6.9427  -14.9774   22.9919 C   0  0  0  0  0  0  0  0  0  0  0  0
    6.9251  -14.7224   24.4444 C   0  0  0  0  0  0  0  0  0  0  0  0
    6.8843  -15.7376   25.4236 C   0  0  0  0  0  0  0  0  0  0  0  0
    6.9307  -15.1748   26.6252 N   0  0  0  0  0  0  0  0  0  0  0  0
    6.9997  -13.8391   26.5423 C   0  0  0  0  0  0  0  0  0  0  0  0
    7.0472  -12.8720   27.5184 C   0  0  0  0  0  0  0  0  0  0  0  0
    7.0900  -11.5481   27.0941 C   0  0  0  0  0  0  0  0  0  0  0  0
    7.0843  -11.2382   25.7299 C   0  0  0  0  0  0  0  0  0  0  0  0
    7.0372  -12.2383   24.7883 C   0  0  0  0  0  0  0  0  0  0  0  0
    6.9951  -13.5628   25.1759 C   0  0  0  0  0  0  0  0  0  0  0  0
    8.8061  -16.5727   23.2189 C   0  0  0  0  0  0  0  0  0  0  0  0
    8.7051  -17.7739   22.8656 O   0  0  0  0  0  0  0  0  0  0  0  0
    9.5410  -16.3466   24.4222 N   0  0  0  0  0  0  0  0  0  0  0  0
   10.7483  -17.0821   24.7370 C   0  0  1  0  0  0  0  0  0  0  0  0
   11.8549  -16.8505   23.7714 C   0  0  0  0  0  0  0  0  0  0  0  0
   13.0553  -17.6202   24.1391 C   0  0  0  0  0  0  0  0  0  0  0  0
   12.9887  -18.8639   24.1835 O   0  0  0  0  0  0  0  0  0  0  0  0
   11.2178  -16.6539   26.1311 C   0  0  0  0  0  0  0  0  0  0  0  0
   12.2655  -17.3080   26.7514 O   0  0  0  0  0  0  0  0  0  0  0  0
   14.2667  -17.0167   24.4401 O   0  0  0  0  0  0  0  0  0  0  0  0
   10.6579  -15.7065   26.7252 O   0  0  0  0  0  0  0  0  0  0  0  0
  2  1  1  6
  2  3  1  0
  4  2  1  0
  4  5  1  1
  6  7  2  0
  6  4  1  0
  8  6  1  0
  9  8  1  0
  9 10  1  1
 10 11  1  0
 11 12  2  0
 11 19  1  0
 12 13  1  0
 13 14  1  0
 14 15  2  0
 15 16  1  0
 17 16  2  0
 18 17  1  0
 19 18  2  0
 19 14  1  0
 20 21  2  0
 20  9  1  0
 22 20  1  0
 23 24  1  6
 23 22  1  0
 25 29  1  0
 25 24  1  0
 26 25  2  0
 27 23  1  0
 28 27  1  0
 30 27  2  0
M  END
$$$$
