TWD.pdb
     RDKit          3D

 30 31  0  0  1  0  0  0  0  0999 V2000
    8.3549  -16.4213   17.8641 C   0  0  0  0  0  0  0  0  0  0  0  0
    8.6408  -14.9874   17.5110 C   0  0  1  0  0  0  0  0  0  0  0  0
    8.4493  -14.7972   16.1690 O   0  0  0  0  0  0  0  0  0  0  0  0
    7.8720  -14.0105   18.3806 C   0  0  2  0  0  0  0  0  0  0  0  0
    8.0724  -12.6538   17.9085 N   0  0  0  0  0  0  0  0  0  0  0  0
    8.2218  -14.1820   19.8173 C   0  0  0  0  0  0  0  0  0  0  0  0
    9.3720  -13.7612   20.1435 O   0  0  0  0  0  0  0  0  0  0  0  0
    7.3726  -14.7613   20.7849 N   0  0  0  0  0  0  0  0  0  0  0  0
    7.7698  -14.7984   22.1729 C   0  0  1  0  0  0  0  0  0  0  0  0
    6.6120  -14.8689   23.1019 C   0  0  0  0  0  0  0  0  0  0  0  0
    6.8985  -14.7187   24.5409 C   0  0  0  0  0  0  0  0  0  0  0  0
    7.0856  -15.8017   25.4258 C   0  0  0  0  0  0  0  0  0  0  0  0
    7.3756  -15.3246   26.6303 N   0  0  0  0  0  0  0  0  0  0  0  0
    7.4003  -13.9848   26.6377 C   0  0  0  0  0  0  0  0  0  0  0  0
    7.6358  -13.0885   27.6533 C   0  0  0  0  0  0  0  0  0  0  0  0
    7.5626  -11.7371   27.3326 C   0  0  0  0  0  0  0  0  0  0  0  0
    7.2615  -11.3314   26.0281 C   0  0  0  0  0  0  0  0  0  0  0  0
    7.0344  -12.2629   25.0434 C   0  0  0  0  0  0  0  0  0  0  0  0
    7.1004  -13.6123   25.3282 C   0  0  0  0  0  0  0  0  0  0  0  0
    8.8525  -15.6933   22.4941 C   0  0  0  0  0  0  0  0  0  0  0  0
    8.8457  -16.8652   22.0421 O   0  0  0  0  0  0  0  0  0  0  0  0
    9.9726  -15.3582   23.3141 N   0  0  0  0  0  0  0  0  0  0  0  0
   11.0862  -16.2645   23.5044 C   0  0  1  0  0  0  0  0  0  0  0  0
   12.4129  -15.6323   23.2794 C   0  0  0  0  0  0  0  0  0  0  0  0
   13.4982  -16.6247   23.3574 C   0  0  0  0  0  0  0  0  0  0  0  0
   13.2356  -17.8276   23.1643 O   0  0  0  0  0  0  0  0  0  0  0  0
   11.0324  -16.7907   24.9424 C   0  0  0  0  0  0  0  0  0  0  0  0
   11.8392  -17.8413   25.3367 O   0  0  0  0  0  0  0  0  0  0  0  0
   14.8104  -16.2763   23.6381 O   0  0  0  0  0  0  0  0  0  0  0  0
   10.2571  -16.2751   25.7774 O   0  0  0  0  0  0  0  0  0  0  0  0
  2  1  1  1
  2  3  1  0
  4  2  1  0
  4  5  1  6
  6  7  2  0
  6  4  1  0
  8  6  1  0
  9  8  1  0
  9 10  1  1
 10 11  1  0
 11 12  2  0
 11 19  1  0
 12 13  1  0
 13 14  1  0
 14 15  2  0
 15 16  1  0
 17 16  2  0
 18 17  1  0
 19 18  2  0
 19 14  1  0
 20 21  2  0
 20  9  1  0
 22 20  1  0
 23 24  1  1
 23 22  1  0
 25 29  1  0
 25 24  1  0
 26 25  2  0
 27 23  1  0
 28 27  1  0
 30 27  2  0
M  END
$$$$
