TWD.pdb
     RDKit          3D

 30 31  0  0  1  0  0  0  0  0999 V2000
    7.7201  -16.9494   18.8345 C   0  0  0  0  0  0  0  0  0  0  0  0
    8.3790  -16.8590   20.1837 C   0  0  1  0  0  0  0  0  0  0  0  0
    9.7183  -17.1132   20.0594 O   0  0  0  0  0  0  0  0  0  0  0  0
    8.0697  -15.5553   20.8952 C   0  0  2  0  0  0  0  0  0  0  0  0
    8.3615  -14.4296   20.0286 N   0  0  0  0  0  0  0  0  0  0  0  0
    8.7760  -15.4782   22.2033 C   0  0  0  0  0  0  0  0  0  0  0  0
    9.6577  -14.5713   22.2845 O   0  0  0  0  0  0  0  0  0  0  0  0
    8.5200  -16.3257   23.3030 N   0  0  0  0  0  0  0  0  0  0  0  0
    9.2829  -16.1870   24.5215 C   0  0  1  0  0  0  0  0  0  0  0  0
    8.4318  -16.2075   25.7396 C   0  0  0  0  0  0  0  0  0  0  0  0
    7.4566  -15.1117   25.8932 C   0  0  0  0  0  0  0  0  0  0  0  0
    6.0596  -15.3010   25.9531 C   0  0  0  0  0  0  0  0  0  0  0  0
    5.4764  -14.1238   26.1452 N   0  0  0  0  0  0  0  0  0  0  0  0
    6.3763  -13.1337   26.2210 C   0  0  0  0  0  0  0  0  0  0  0  0
    6.2201  -11.7786   26.3931 C   0  0  0  0  0  0  0  0  0  0  0  0
    7.3766  -11.0059   26.4033 C   0  0  0  0  0  0  0  0  0  0  0  0
    8.6317  -11.6027   26.2439 C   0  0  0  0  0  0  0  0  0  0  0  0
    8.7406  -12.9624   26.0757 C   0  0  0  0  0  0  0  0  0  0  0  0
    7.6125  -13.7582   26.0619 C   0  0  0  0  0  0  0  0  0  0  0  0
   10.4778  -16.9874   24.6106 C   0  0  0  0  0  0  0  0  0  0  0  0
   11.0468  -17.1340   25.7208 O   0  0  0  0  0  0  0  0  0  0  0  0
   11.1000  -17.6505   23.5096 N   0  0  0  0  0  0  0  0  0  0  0  0
   12.2589  -18.5026   23.6791 C   0  0  1  0  0  0  0  0  0  0  0  0
   12.1865  -19.7671   22.9003 C   0  0  0  0  0  0  0  0  0  0  0  0
   11.9806  -19.5010   21.4666 C   0  0  0  0  0  0  0  0  0  0  0  0
   11.8654  -18.3223   21.0786 O   0  0  0  0  0  0  0  0  0  0  0  0
   13.4963  -17.7200   23.2276 C   0  0  0  0  0  0  0  0  0  0  0  0
   14.7654  -18.2104   23.4713 O   0  0  0  0  0  0  0  0  0  0  0  0
   11.9094  -20.5129   20.5215 O   0  0  0  0  0  0  0  0  0  0  0  0
   13.3727  -16.6270   22.6325 O   0  0  0  0  0  0  0  0  0  0  0  0
  2  1  1  6
  2  3  1  0
  4  2  1  0
  4  5  1  6
  6  7  2  0
  6  4  1  0
  8  6  1  0
  9  8  1  0
  9 10  1  1
 10 11  1  0
 11 12  2  0
 11 19  1  0
 12 13  1  0
 13 14  1  0
 14 15  2  0
 15 16  1  0
 17 16  2  0
 18 17  1  0
 19 18  2  0
 19 14  1  0
 20 21  2  0
 20  9  1  0
 22 20  1  0
 23 24  1  6
 23 22  1  0
 25 29  1  0
 25 24  1  0
 26 25  2  0
 27 23  1  0
 28 27  1  0
 30 27  2  0
M  END
$$$$
