CCH.pdb
     RDKit          3D

 23 23  0  0  1  0  0  0  0  0999 V2000
    8.4917  -17.3235   16.4364 N   0  0  0  0  0  0  0  0  0  0  0  0
    8.2948  -17.9308   17.7408 C   0  0  1  0  0  0  0  0  0  0  0  0
    8.8965  -19.3185   17.7731 C   0  0  0  0  0  0  0  0  0  0  0  0
    8.6298  -20.0304   19.4089 S   0  0  0  0  0  0  0  0  0  0  0  0
    8.8755  -17.0456   18.7758 C   0  0  0  0  0  0  0  0  0  0  0  0
   10.0374  -16.5989   18.5859 O   0  0  0  0  0  0  0  0  0  0  0  0
    8.1702  -16.6871   19.9660 N   0  0  0  0  0  0  0  0  0  0  0  0
    8.7606  -15.8811   21.0025 C   0  0  1  0  0  0  0  0  0  0  0  0
    7.7070  -15.1911   21.8345 C   0  0  0  0  0  0  0  0  0  0  0  0
    6.2533  -14.7606   20.8366 S   0  0  0  0  0  0  0  0  0  0  0  0
    9.5659  -16.7395   21.9412 C   0  0  0  0  0  0  0  0  0  0  0  0
    9.2143  -17.9132   22.2054 O   0  0  0  0  0  0  0  0  0  0  0  0
   10.7460  -16.2485   22.5554 N   0  0  0  0  0  0  0  0  0  0  0  0
   11.5338  -17.0857   23.5064 C   0  0  1  0  0  0  0  0  0  0  0  0
   12.9683  -16.6181   23.4562 C   0  0  0  0  0  0  0  0  0  0  0  0
   13.6887  -17.0836   22.2600 C   0  0  0  0  0  0  0  0  0  0  0  0
   13.2204  -18.0643   21.3637 C   0  0  0  0  0  0  0  0  0  0  0  0
   14.1599  -18.1887   20.4329 N   0  0  0  0  0  0  0  0  0  0  0  0
   15.1929  -17.3707   20.6553 C   0  0  0  0  0  0  0  0  0  0  0  0
   14.8756  -16.7074   21.7801 N   0  0  0  0  0  0  0  0  0  0  0  0
   10.9120  -17.0089   24.8309 C   0  0  0  0  0  0  0  0  0  0  0  0
   11.1786  -17.8111   25.9067 O   0  0  0  0  0  0  0  0  0  0  0  0
   10.0246  -16.1076   25.0261 O   0  0  0  0  0  0  0  0  0  0  0  0
  2  1  1  6
  3  2  1  0
  4  3  1  0
  5  2  1  0
  5  7  1  0
  6  5  2  0
  8  7  1  0
  8 11  1  0
  8  9  1  1
 10  9  1  0
 11 13  1  0
 11 12  2  0
 13 14  1  0
 14 15  1  1
 15 16  1  0
 16 17  2  0
 18 17  1  0
 19 18  1  0
 20 19  2  0
 20 16  1  0
 21 14  1  0
 21 22  1  0
 23 21  2  0
M  END
$$$$
