CCH.pdb
     RDKit          3D

 23 23  0  0  1  0  0  0  0  0999 V2000
    9.3002  -20.5863   17.1562 N   0  0  0  0  0  0  0  0  0  0  0  0
    9.1706  -20.8412   18.5800 C   0  0  1  0  0  0  0  0  0  0  0  0
    9.2460  -22.3261   18.8593 C   0  0  0  0  0  0  0  0  0  0  0  0
    8.4052  -22.6683   20.4181 S   0  0  0  0  0  0  0  0  0  0  0  0
   10.2179  -20.0829   19.3014 C   0  0  0  0  0  0  0  0  0  0  0  0
   11.1694  -19.6056   18.6290 O   0  0  0  0  0  0  0  0  0  0  0  0
   10.1839  -19.8784   20.7154 N   0  0  0  0  0  0  0  0  0  0  0  0
   11.1771  -19.1005   21.4089 C   0  0  1  0  0  0  0  0  0  0  0  0
   10.5718  -18.3240   22.5532 C   0  0  0  0  0  0  0  0  0  0  0  0
   11.8300  -17.3585   23.4360 S   0  0  0  0  0  0  0  0  0  0  0  0
   12.2304  -19.9994   21.9996 C   0  0  0  0  0  0  0  0  0  0  0  0
   13.3042  -19.5304   22.4445 O   0  0  0  0  0  0  0  0  0  0  0  0
   12.0417  -21.4031   22.0713 N   0  0  0  0  0  0  0  0  0  0  0  0
   13.0541  -22.2921   22.7122 C   0  0  1  0  0  0  0  0  0  0  0  0
   14.3887  -22.0182   22.0619 C   0  0  0  0  0  0  0  0  0  0  0  0
   14.4086  -22.3321   20.6239 C   0  0  0  0  0  0  0  0  0  0  0  0
   13.3095  -22.8121   19.8850 C   0  0  0  0  0  0  0  0  0  0  0  0
   13.7439  -22.9641   18.6389 N   0  0  0  0  0  0  0  0  0  0  0  0
   15.0298  -22.6223   18.5144 C   0  0  0  0  0  0  0  0  0  0  0  0
   15.4089  -22.2399   19.7457 N   0  0  0  0  0  0  0  0  0  0  0  0
   13.0243  -22.0750   24.1609 C   0  0  0  0  0  0  0  0  0  0  0  0
   13.7529  -22.7478   25.1033 O   0  0  0  0  0  0  0  0  0  0  0  0
   12.2434  -21.1689   24.6162 O   0  0  0  0  0  0  0  0  0  0  0  0
  2  1  1  6
  3  2  1  0
  4  3  1  0
  5  2  1  0
  5  7  1  0
  6  5  2  0
  8  7  1  0
  8 11  1  0
  8  9  1  1
 10  9  1  0
 11 13  1  0
 11 12  2  0
 13 14  1  0
 14 15  1  6
 15 16  1  0
 16 17  2  0
 18 17  1  0
 19 18  1  0
 20 19  2  0
 20 16  1  0
 21 14  1  0
 21 22  1  0
 23 21  2  0
M  END
$$$$
