CCH.pdb
     RDKit          3D

 23 23  0  0  1  0  0  0  0  0999 V2000
    8.0754  -13.4759   19.9289 N   0  0  0  0  0  0  0  0  0  0  0  0
    7.2311  -14.0633   20.9542 C   0  0  1  0  0  0  0  0  0  0  0  0
    6.7194  -15.4147   20.5061 C   0  0  0  0  0  0  0  0  0  0  0  0
    5.6299  -16.0766   21.7823 S   0  0  0  0  0  0  0  0  0  0  0  0
    7.9976  -14.1470   22.2182 C   0  0  0  0  0  0  0  0  0  0  0  0
    9.1975  -14.5237   22.1567 O   0  0  0  0  0  0  0  0  0  0  0  0
    7.4277  -13.8188   23.4870 N   0  0  0  0  0  0  0  0  0  0  0  0
    8.1439  -13.9884   24.7243 C   0  0  1  0  0  0  0  0  0  0  0  0
    7.4693  -13.2562   25.8589 C   0  0  0  0  0  0  0  0  0  0  0  0
    5.6620  -13.3753   25.7412 S   0  0  0  0  0  0  0  0  0  0  0  0
    8.1905  -15.4430   25.1094 C   0  0  0  0  0  0  0  0  0  0  0  0
    7.4893  -16.2923   24.5110 O   0  0  0  0  0  0  0  0  0  0  0  0
    9.0277  -15.8981   26.1596 N   0  0  0  0  0  0  0  0  0  0  0  0
    9.5077  -17.3097   26.2154 C   0  0  1  0  0  0  0  0  0  0  0  0
   10.2388  -17.6014   24.9273 C   0  0  0  0  0  0  0  0  0  0  0  0
   10.7959  -18.9628   24.8719 C   0  0  0  0  0  0  0  0  0  0  0  0
   10.7091  -19.9155   25.9060 C   0  0  0  0  0  0  0  0  0  0  0  0
   11.3320  -21.0000   25.4584 N   0  0  0  0  0  0  0  0  0  0  0  0
   11.8120  -20.8249   24.2236 C   0  0  0  0  0  0  0  0  0  0  0  0
   11.4683  -19.5688   23.8916 N   0  0  0  0  0  0  0  0  0  0  0  0
   10.3106  -17.4885   27.4278 C   0  0  0  0  0  0  0  0  0  0  0  0
   10.5258  -18.6605   28.1002 O   0  0  0  0  0  0  0  0  0  0  0  0
   10.8785  -16.4570   27.9293 O   0  0  0  0  0  0  0  0  0  0  0  0
  2  1  1  6
  3  2  1  0
  4  3  1  0
  5  2  1  0
  5  7  1  0
  6  5  2  0
  8  7  1  0
  8 11  1  0
  8  9  1  1
 10  9  1  0
 11 13  1  0
 11 12  2  0
 13 14  1  0
 14 15  1  6
 15 16  1  0
 16 17  2  0
 18 17  1  0
 19 18  1  0
 20 19  2  0
 20 16  1  0
 21 14  1  0
 21 22  1  0
 23 21  2  0
M  END
$$$$
