CCH.pdb
     RDKit          3D

 23 23  0  0  1  0  0  0  0  0999 V2000
   -1.9392  -25.4251   21.6345 N   0  0  0  0  0  0  0  0  0  0  0  0
   -2.1102  -24.5162   22.7542 C   0  0  1  0  0  0  0  0  0  0  0  0
   -2.4262  -23.1222   22.2589 C   0  0  0  0  0  0  0  0  0  0  0  0
   -0.8913  -22.3244   21.7478 S   0  0  0  0  0  0  0  0  0  0  0  0
   -3.1671  -25.0455   23.6458 C   0  0  0  0  0  0  0  0  0  0  0  0
   -4.1490  -25.6286   23.1155 O   0  0  0  0  0  0  0  0  0  0  0  0
   -3.1094  -24.9178   25.0681 N   0  0  0  0  0  0  0  0  0  0  0  0
   -4.0877  -25.5151   25.9391 C   0  0  1  0  0  0  0  0  0  0  0  0
   -3.5438  -26.7482   26.6189 C   0  0  0  0  0  0  0  0  0  0  0  0
   -2.2560  -27.5424   25.6163 S   0  0  0  0  0  0  0  0  0  0  0  0
   -4.4791  -24.5523   27.0283 C   0  0  0  0  0  0  0  0  0  0  0  0
   -3.6098  -23.9563   27.7065 O   0  0  0  0  0  0  0  0  0  0  0  0
   -5.8415  -24.2894   27.3212 N   0  0  0  0  0  0  0  0  0  0  0  0
   -6.2382  -23.2108   28.2727 C   0  0  1  0  0  0  0  0  0  0  0  0
   -6.9540  -22.1395   27.4859 C   0  0  0  0  0  0  0  0  0  0  0  0
   -6.0887  -21.4641   26.5052 C   0  0  0  0  0  0  0  0  0  0  0  0
   -5.0183  -20.6063   26.8256 C   0  0  0  0  0  0  0  0  0  0  0  0
   -4.5038  -20.2133   25.6658 N   0  0  0  0  0  0  0  0  0  0  0  0
   -5.1532  -20.7462   24.6264 C   0  0  0  0  0  0  0  0  0  0  0  0
   -6.1176  -21.5068   25.1718 N   0  0  0  0  0  0  0  0  0  0  0  0
   -7.0266  -23.8028   29.3565 C   0  0  0  0  0  0  0  0  0  0  0  0
   -7.2103  -23.2861   30.6100 O   0  0  0  0  0  0  0  0  0  0  0  0
   -7.6127  -24.9182   29.1324 O   0  0  0  0  0  0  0  0  0  0  0  0
  2  1  1  6
  3  2  1  0
  4  3  1  0
  5  2  1  0
  5  7  1  0
  6  5  2  0
  8  7  1  0
  8 11  1  0
  8  9  1  1
 10  9  1  0
 11 13  1  0
 11 12  2  0
 13 14  1  0
 14 15  1  6
 15 16  1  0
 16 17  2  0
 18 17  1  0
 19 18  1  0
 20 19  2  0
 20 16  1  0
 21 14  1  0
 21 22  1  0
 23 21  2  0
M  END
$$$$
