CCH.pdb
     RDKit          3D

 23 23  0  0  1  0  0  0  0  0999 V2000
   11.3725  -20.6855   15.2086 N   0  0  0  0  0  0  0  0  0  0  0  0
   10.4053  -21.0071   16.2431 C   0  0  1  0  0  0  0  0  0  0  0  0
   10.2857  -22.5063   16.4062 C   0  0  0  0  0  0  0  0  0  0  0  0
   11.8752  -23.1607   16.9530 S   0  0  0  0  0  0  0  0  0  0  0  0
   10.8070  -20.3383   17.5014 C   0  0  0  0  0  0  0  0  0  0  0  0
   11.8855  -19.6883   17.5058 O   0  0  0  0  0  0  0  0  0  0  0  0
   10.0218  -20.4057   18.6936 N   0  0  0  0  0  0  0  0  0  0  0  0
   10.4101  -19.7488   19.9143 C   0  0  1  0  0  0  0  0  0  0  0  0
    9.2624  -18.9739   20.5150 C   0  0  0  0  0  0  0  0  0  0  0  0
    7.7257  -19.9394   20.4863 S   0  0  0  0  0  0  0  0  0  0  0  0
   10.8392  -20.7614   20.9425 C   0  0  0  0  0  0  0  0  0  0  0  0
   10.2323  -21.8507   21.0686 O   0  0  0  0  0  0  0  0  0  0  0  0
   11.9419  -20.5155   21.7996 N   0  0  0  0  0  0  0  0  0  0  0  0
   12.3134  -21.4721   22.8827 C   0  0  1  0  0  0  0  0  0  0  0  0
   13.8008  -21.7150   22.7959 C   0  0  0  0  0  0  0  0  0  0  0  0
   14.1910  -22.5109   21.6207 C   0  0  0  0  0  0  0  0  0  0  0  0
   13.2985  -23.2061   20.7814 C   0  0  0  0  0  0  0  0  0  0  0  0
   14.0477  -23.7879   19.8515 N   0  0  0  0  0  0  0  0  0  0  0  0
   15.3468  -23.5253   20.0222 C   0  0  0  0  0  0  0  0  0  0  0  0
   15.4030  -22.7418   21.1126 N   0  0  0  0  0  0  0  0  0  0  0  0
   11.8560  -20.9337   24.1663 C   0  0  0  0  0  0  0  0  0  0  0  0
   11.6789  -21.6324   25.3292 O   0  0  0  0  0  0  0  0  0  0  0  0
   11.5873  -19.6841   24.2316 O   0  0  0  0  0  0  0  0  0  0  0  0
  2  1  1  6
  3  2  1  0
  4  3  1  0
  5  2  1  0
  5  7  1  0
  6  5  2  0
  8  7  1  0
  8 11  1  0
  8  9  1  1
 10  9  1  0
 11 13  1  0
 11 12  2  0
 13 14  1  0
 14 15  1  1
 15 16  1  0
 16 17  2  0
 18 17  1  0
 19 18  1  0
 20 19  2  0
 20 16  1  0
 21 14  1  0
 21 22  1  0
 23 21  2  0
M  END
$$$$
