CCH.pdb
     RDKit          3D

 23 23  0  0  1  0  0  0  0  0999 V2000
    8.2360  -14.7531   19.9644 N   0  0  0  0  0  0  0  0  0  0  0  0
    7.3433  -14.8823   21.1026 C   0  0  1  0  0  0  0  0  0  0  0  0
    6.6870  -16.2454   21.1065 C   0  0  0  0  0  0  0  0  0  0  0  0
    7.9601  -17.5048   20.8898 S   0  0  0  0  0  0  0  0  0  0  0  0
    8.1078  -14.6265   22.3445 C   0  0  0  0  0  0  0  0  0  0  0  0
    9.3531  -14.8110   22.3193 O   0  0  0  0  0  0  0  0  0  0  0  0
    7.4868  -14.1834   23.5530 N   0  0  0  0  0  0  0  0  0  0  0  0
    8.2259  -13.9708   24.7700 C   0  0  1  0  0  0  0  0  0  0  0  0
    7.4221  -13.1817   25.7748 C   0  0  0  0  0  0  0  0  0  0  0  0
    8.4018  -12.8037   27.2552 S   0  0  0  0  0  0  0  0  0  0  0  0
    8.5626  -15.2877   25.4172 C   0  0  0  0  0  0  0  0  0  0  0  0
    7.6877  -16.1705   25.5784 O   0  0  0  0  0  0  0  0  0  0  0  0
    9.8783  -15.5710   25.8643 N   0  0  0  0  0  0  0  0  0  0  0  0
   10.2080  -16.8565   26.5459 C   0  0  1  0  0  0  0  0  0  0  0  0
   11.5789  -17.2876   26.0834 C   0  0  0  0  0  0  0  0  0  0  0  0
   11.5867  -17.8235   24.7124 C   0  0  0  0  0  0  0  0  0  0  0  0
   10.4421  -18.0296   23.9175 C   0  0  0  0  0  0  0  0  0  0  0  0
   10.8808  -18.5198   22.7635 N   0  0  0  0  0  0  0  0  0  0  0  0
   12.2111  -18.6462   22.7494 C   0  0  0  0  0  0  0  0  0  0  0  0
   12.6145  -18.2123   23.9556 N   0  0  0  0  0  0  0  0  0  0  0  0
   10.0823  -16.6699   27.9937 C   0  0  0  0  0  0  0  0  0  0  0  0
    9.9795  -17.6538   28.9388 O   0  0  0  0  0  0  0  0  0  0  0  0
   10.0634  -15.4725   28.4452 O   0  0  0  0  0  0  0  0  0  0  0  0
  2  1  1  6
  3  2  1  0
  4  3  1  0
  5  2  1  0
  5  7  1  0
  6  5  2  0
  8  7  1  0
  8 11  1  0
  8  9  1  1
 10  9  1  0
 11 13  1  0
 11 12  2  0
 13 14  1  0
 14 15  1  1
 15 16  1  0
 16 17  2  0
 18 17  1  0
 19 18  1  0
 20 19  2  0
 20 16  1  0
 21 14  1  0
 21 22  1  0
 23 21  2  0
M  END
$$$$
