CCH.pdb
     RDKit          3D

 23 23  0  0  1  0  0  0  0  0999 V2000
    7.3549  -16.7284   18.9568 N   0  0  0  0  0  0  0  0  0  0  0  0
    7.8474  -16.3155   20.2590 C   0  0  1  0  0  0  0  0  0  0  0  0
    6.6928  -16.0064   21.1864 C   0  0  0  0  0  0  0  0  0  0  0  0
    7.3497  -15.5779   22.8107 S   0  0  0  0  0  0  0  0  0  0  0  0
    8.7287  -17.3762   20.7981 C   0  0  0  0  0  0  0  0  0  0  0  0
    8.3146  -18.5646   20.7571 O   0  0  0  0  0  0  0  0  0  0  0  0
   10.0152  -17.0987   21.3552 N   0  0  0  0  0  0  0  0  0  0  0  0
   10.8523  -18.1253   21.9188 C   0  0  1  0  0  0  0  0  0  0  0  0
   12.2557  -18.0600   21.3666 C   0  0  0  0  0  0  0  0  0  0  0  0
   12.9426  -16.3854   21.5025 S   0  0  0  0  0  0  0  0  0  0  0  0
   10.9613  -17.9543   23.4106 C   0  0  0  0  0  0  0  0  0  0  0  0
   10.9875  -16.8139   23.9297 O   0  0  0  0  0  0  0  0  0  0  0  0
   11.0376  -19.0763   24.2746 N   0  0  0  0  0  0  0  0  0  0  0  0
   11.2235  -18.9135   25.7460 C   0  0  1  0  0  0  0  0  0  0  0  0
   10.1079  -19.6580   26.4388 C   0  0  0  0  0  0  0  0  0  0  0  0
    8.7949  -19.0108   26.2843 C   0  0  0  0  0  0  0  0  0  0  0  0
    8.5649  -17.6223   26.3442 C   0  0  0  0  0  0  0  0  0  0  0  0
    7.2600  -17.4586   26.1576 N   0  0  0  0  0  0  0  0  0  0  0  0
    6.6314  -18.6250   25.9828 C   0  0  0  0  0  0  0  0  0  0  0  0
    7.5969  -19.5561   26.0655 N   0  0  0  0  0  0  0  0  0  0  0  0
   12.5718  -19.3609   26.1046 C   0  0  0  0  0  0  0  0  0  0  0  0
   13.2880  -18.9926   27.2106 O   0  0  0  0  0  0  0  0  0  0  0  0
   13.1616  -20.1800   25.3177 O   0  0  0  0  0  0  0  0  0  0  0  0
  2  1  1  6
  3  2  1  0
  4  3  1  0
  5  2  1  0
  5  7  1  0
  6  5  2  0
  8  7  1  0
  8 11  1  0
  8  9  1  6
 10  9  1  0
 11 13  1  0
 11 12  2  0
 13 14  1  0
 14 15  1  1
 15 16  1  0
 16 17  2  0
 18 17  1  0
 19 18  1  0
 20 19  2  0
 20 16  1  0
 21 14  1  0
 21 22  1  0
 23 21  2  0
M  END
$$$$
