CCH.pdb
     RDKit          3D

 23 23  0  0  1  0  0  0  0  0999 V2000
    8.6935  -14.9721   13.5547 N   0  0  0  0  0  0  0  0  0  0  0  0
    8.4869  -15.5615   14.8658 C   0  0  1  0  0  0  0  0  0  0  0  0
    8.9259  -17.0093   14.8688 C   0  0  0  0  0  0  0  0  0  0  0  0
    8.3603  -17.7856   16.3956 S   0  0  0  0  0  0  0  0  0  0  0  0
    9.2116  -14.7557   15.8746 C   0  0  0  0  0  0  0  0  0  0  0  0
    9.5327  -13.5773   15.5685 O   0  0  0  0  0  0  0  0  0  0  0  0
    9.5532  -15.2648   17.1656 N   0  0  0  0  0  0  0  0  0  0  0  0
    9.7275  -14.4124   18.3125 C   0  0  1  0  0  0  0  0  0  0  0  0
    8.4484  -13.6935   18.6670 C   0  0  0  0  0  0  0  0  0  0  0  0
    8.6524  -12.6761   20.1562 S   0  0  0  0  0  0  0  0  0  0  0  0
   10.1199  -15.2257   19.5170 C   0  0  0  0  0  0  0  0  0  0  0  0
    9.5088  -16.2795   19.8118 O   0  0  0  0  0  0  0  0  0  0  0  0
   11.1918  -14.8263   20.3552 N   0  0  0  0  0  0  0  0  0  0  0  0
   12.3641  -15.7172   20.5963 C   0  0  1  0  0  0  0  0  0  0  0  0
   12.9348  -16.1051   19.2536 C   0  0  0  0  0  0  0  0  0  0  0  0
   12.6438  -17.4989   18.8804 C   0  0  0  0  0  0  0  0  0  0  0  0
   11.5507  -18.2519   19.3523 C   0  0  0  0  0  0  0  0  0  0  0  0
   11.6533  -19.4458   18.7792 N   0  0  0  0  0  0  0  0  0  0  0  0
   12.7203  -19.5240   17.9785 C   0  0  0  0  0  0  0  0  0  0  0  0
   13.3065  -18.3175   18.0611 N   0  0  0  0  0  0  0  0  0  0  0  0
   13.3050  -15.0304   21.4849 C   0  0  0  0  0  0  0  0  0  0  0  0
   14.0393  -15.5953   22.4916 O   0  0  0  0  0  0  0  0  0  0  0  0
   13.4741  -13.7721   21.3231 O   0  0  0  0  0  0  0  0  0  0  0  0
  2  1  1  6
  3  2  1  0
  4  3  1  0
  5  2  1  0
  5  7  1  0
  6  5  2  0
  8  7  1  0
  8 11  1  0
  8  9  1  1
 10  9  1  0
 11 13  1  0
 11 12  2  0
 13 14  1  0
 14 15  1  6
 15 16  1  0
 16 17  2  0
 18 17  1  0
 19 18  1  0
 20 19  2  0
 20 16  1  0
 21 14  1  0
 21 22  1  0
 23 21  2  0
M  END
$$$$
