CCH.pdb
     RDKit          3D

 23 23  0  0  1  0  0  0  0  0999 V2000
    8.3919  -13.5896   20.0214 N   0  0  0  0  0  0  0  0  0  0  0  0
    7.4128  -13.5624   21.0935 C   0  0  1  0  0  0  0  0  0  0  0  0
    6.2349  -14.4494   20.7552 C   0  0  0  0  0  0  0  0  0  0  0  0
    6.8319  -16.1290   20.4787 S   0  0  0  0  0  0  0  0  0  0  0  0
    8.0716  -13.9658   22.3565 C   0  0  0  0  0  0  0  0  0  0  0  0
    9.2092  -14.5007   22.2839 O   0  0  0  0  0  0  0  0  0  0  0  0
    7.4669  -13.7705   23.6366 N   0  0  0  0  0  0  0  0  0  0  0  0
    8.1248  -14.1284   24.8661 C   0  0  1  0  0  0  0  0  0  0  0  0
    7.4784  -13.4592   26.0547 C   0  0  0  0  0  0  0  0  0  0  0  0
    5.6831  -13.7260   26.0686 S   0  0  0  0  0  0  0  0  0  0  0  0
    8.0340  -15.6132   25.0978 C   0  0  0  0  0  0  0  0  0  0  0  0
    6.9700  -16.2375   24.8763 O   0  0  0  0  0  0  0  0  0  0  0  0
    9.1474  -16.3516   25.5732 N   0  0  0  0  0  0  0  0  0  0  0  0
    9.0118  -17.7749   25.9997 C   0  0  1  0  0  0  0  0  0  0  0  0
    9.7956  -18.6257   25.0297 C   0  0  0  0  0  0  0  0  0  0  0  0
    9.1230  -18.7942   23.7312 C   0  0  0  0  0  0  0  0  0  0  0  0
    7.8440  -18.2977   23.4117 C   0  0  0  0  0  0  0  0  0  0  0  0
    7.6123  -18.6628   22.1558 N   0  0  0  0  0  0  0  0  0  0  0  0
    8.6346  -19.3523   21.6407 C   0  0  0  0  0  0  0  0  0  0  0  0
    9.5437  -19.4163   22.6283 N   0  0  0  0  0  0  0  0  0  0  0  0
    9.4367  -17.8923   27.3970 C   0  0  0  0  0  0  0  0  0  0  0  0
    9.3437  -19.0041   28.1889 O   0  0  0  0  0  0  0  0  0  0  0  0
    9.9499  -16.8622   27.9570 O   0  0  0  0  0  0  0  0  0  0  0  0
  2  1  1  6
  3  2  1  0
  4  3  1  0
  5  2  1  0
  5  7  1  0
  6  5  2  0
  8  7  1  0
  8 11  1  0
  8  9  1  1
 10  9  1  0
 11 13  1  0
 11 12  2  0
 13 14  1  0
 14 15  1  6
 15 16  1  0
 16 17  2  0
 18 17  1  0
 19 18  1  0
 20 19  2  0
 20 16  1  0
 21 14  1  0
 21 22  1  0
 23 21  2  0
M  END
$$$$
