CCH.pdb
     RDKit          3D

 23 23  0  0  1  0  0  0  0  0999 V2000
    9.5641  -17.6494   19.0433 N   0  0  0  0  0  0  0  0  0  0  0  0
    8.3609  -17.2813   19.7683 C   0  0  1  0  0  0  0  0  0  0  0  0
    7.4826  -18.4942   19.9835 C   0  0  0  0  0  0  0  0  0  0  0  0
    7.1544  -19.2657   18.3864 S   0  0  0  0  0  0  0  0  0  0  0  0
    8.7466  -16.6371   21.0443 C   0  0  0  0  0  0  0  0  0  0  0  0
    9.8776  -16.9110   21.5252 O   0  0  0  0  0  0  0  0  0  0  0  0
    7.8892  -15.7278   21.7375 N   0  0  0  0  0  0  0  0  0  0  0  0
    8.2756  -15.0831   22.9653 C   0  0  1  0  0  0  0  0  0  0  0  0
    7.6128  -13.7352   23.1149 C   0  0  0  0  0  0  0  0  0  0  0  0
    7.9384  -12.6750   21.6781 S   0  0  0  0  0  0  0  0  0  0  0  0
    7.8533  -15.9115   24.1494 C   0  0  0  0  0  0  0  0  0  0  0  0
    6.7308  -16.4681   24.1808 O   0  0  0  0  0  0  0  0  0  0  0  0
    8.7107  -16.0882   25.2651 N   0  0  0  0  0  0  0  0  0  0  0  0
    8.8449  -17.4116   25.9408 C   0  0  1  0  0  0  0  0  0  0  0  0
    9.2742  -18.4202   24.9027 C   0  0  0  0  0  0  0  0  0  0  0  0
    8.1487  -19.1717   24.3237 C   0  0  0  0  0  0  0  0  0  0  0  0
    6.8025  -19.0457   24.7193 C   0  0  0  0  0  0  0  0  0  0  0  0
    6.1160  -19.8894   23.9569 N   0  0  0  0  0  0  0  0  0  0  0  0
    6.9073  -20.5474   23.1044 C   0  0  0  0  0  0  0  0  0  0  0  0
    8.1452  -20.0868   23.3527 N   0  0  0  0  0  0  0  0  0  0  0  0
    9.7628  -17.2729   27.0743 C   0  0  0  0  0  0  0  0  0  0  0  0
    9.6362  -17.8573   28.3048 O   0  0  0  0  0  0  0  0  0  0  0  0
   10.7964  -16.5335   26.9227 O   0  0  0  0  0  0  0  0  0  0  0  0
  2  1  1  1
  3  2  1  0
  4  3  1  0
  5  2  1  0
  5  7  1  0
  6  5  2  0
  8  7  1  0
  8 11  1  0
  8  9  1  1
 10  9  1  0
 11 13  1  0
 11 12  2  0
 13 14  1  0
 14 15  1  6
 15 16  1  0
 16 17  2  0
 18 17  1  0
 19 18  1  0
 20 19  2  0
 20 16  1  0
 21 14  1  0
 21 22  1  0
 23 21  2  0
M  END
$$$$
