CCH.pdb
     RDKit          3D

 23 23  0  0  1  0  0  0  0  0999 V2000
    6.8138  -13.7845   19.0854 N   0  0  0  0  0  0  0  0  0  0  0  0
    6.9982  -14.7211   20.1798 C   0  0  1  0  0  0  0  0  0  0  0  0
    7.7461  -15.9474   19.7047 C   0  0  0  0  0  0  0  0  0  0  0  0
    6.5553  -17.1483   19.0772 S   0  0  0  0  0  0  0  0  0  0  0  0
    7.6991  -14.0336   21.2880 C   0  0  0  0  0  0  0  0  0  0  0  0
    7.8037  -12.7800   21.2323 O   0  0  0  0  0  0  0  0  0  0  0  0
    8.2527  -14.7365   22.4024 N   0  0  0  0  0  0  0  0  0  0  0  0
    8.2973  -14.1748   23.7272 C   0  0  1  0  0  0  0  0  0  0  0  0
    6.9374  -13.6915   24.1693 C   0  0  0  0  0  0  0  0  0  0  0  0
    6.9518  -13.1777   25.9100 S   0  0  0  0  0  0  0  0  0  0  0  0
    8.7372  -15.2137   24.7239 C   0  0  0  0  0  0  0  0  0  0  0  0
    7.9151  -16.0147   25.2273 O   0  0  0  0  0  0  0  0  0  0  0  0
   10.0935  -15.3191   25.1245 N   0  0  0  0  0  0  0  0  0  0  0  0
   10.5535  -16.4092   26.0334 C   0  0  1  0  0  0  0  0  0  0  0  0
    9.5764  -16.4985   27.1808 C   0  0  0  0  0  0  0  0  0  0  0  0
    9.7981  -15.4725   28.2127 C   0  0  0  0  0  0  0  0  0  0  0  0
    9.6529  -14.0848   28.0187 C   0  0  0  0  0  0  0  0  0  0  0  0
    9.9422  -13.5193   29.1853 N   0  0  0  0  0  0  0  0  0  0  0  0
   10.2612  -14.4266   30.1132 C   0  0  0  0  0  0  0  0  0  0  0  0
   10.1640  -15.6123   29.4883 N   0  0  0  0  0  0  0  0  0  0  0  0
   10.6983  -17.6430   25.2566 C   0  0  0  0  0  0  0  0  0  0  0  0
   11.3707  -18.7728   25.6349 O   0  0  0  0  0  0  0  0  0  0  0  0
   10.1489  -17.6932   24.1017 O   0  0  0  0  0  0  0  0  0  0  0  0
  2  1  1  6
  3  2  1  0
  4  3  1  0
  5  2  1  0
  5  7  1  0
  6  5  2  0
  8  7  1  0
  8 11  1  0
  8  9  1  1
 10  9  1  0
 11 13  1  0
 11 12  2  0
 13 14  1  0
 14 15  1  1
 15 16  1  0
 16 17  2  0
 18 17  1  0
 19 18  1  0
 20 19  2  0
 20 16  1  0
 21 14  1  0
 21 22  1  0
 23 21  2  0
M  END
$$$$
