CCH.pdb
     RDKit          3D

 23 23  0  0  1  0  0  0  0  0999 V2000
    6.3623  -20.9363   21.0564 N   0  0  0  0  0  0  0  0  0  0  0  0
    6.4410  -19.9652   22.1333 C   0  0  1  0  0  0  0  0  0  0  0  0
    5.0564  -19.4988   22.5257 C   0  0  0  0  0  0  0  0  0  0  0  0
    5.1880  -18.4512   23.9882 S   0  0  0  0  0  0  0  0  0  0  0  0
    7.1712  -20.5679   23.2716 C   0  0  0  0  0  0  0  0  0  0  0  0
    6.8396  -21.7258   23.6386 O   0  0  0  0  0  0  0  0  0  0  0  0
    8.2249  -19.8877   23.9570 N   0  0  0  0  0  0  0  0  0  0  0  0
    8.9342  -20.4753   25.0634 C   0  0  1  0  0  0  0  0  0  0  0  0
    9.6298  -21.7525   24.6591 C   0  0  0  0  0  0  0  0  0  0  0  0
   10.6453  -22.4094   26.0125 S   0  0  0  0  0  0  0  0  0  0  0  0
   10.0000  -19.5363   25.5625 C   0  0  0  0  0  0  0  0  0  0  0  0
   10.6592  -18.8264   24.7673 O   0  0  0  0  0  0  0  0  0  0  0  0
   10.2915  -19.4254   26.9459 N   0  0  0  0  0  0  0  0  0  0  0  0
   10.5897  -18.1054   27.5742 C   0  0  1  0  0  0  0  0  0  0  0  0
    9.3279  -17.2776   27.5337 C   0  0  0  0  0  0  0  0  0  0  0  0
    9.5641  -15.8471   27.7873 C   0  0  0  0  0  0  0  0  0  0  0  0
   10.8245  -15.2645   28.0250 C   0  0  0  0  0  0  0  0  0  0  0  0
   10.6009  -13.9675   28.2041 N   0  0  0  0  0  0  0  0  0  0  0  0
    9.3028  -13.6669   28.1016 C   0  0  0  0  0  0  0  0  0  0  0  0
    8.6938  -14.8373   27.8463 N   0  0  0  0  0  0  0  0  0  0  0  0
   11.1289  -18.3323   28.9176 C   0  0  0  0  0  0  0  0  0  0  0  0
   11.9902  -17.5180   29.6008 O   0  0  0  0  0  0  0  0  0  0  0  0
   10.7731  -19.3950   29.5356 O   0  0  0  0  0  0  0  0  0  0  0  0
  2  1  1  6
  3  2  1  0
  4  3  1  0
  5  2  1  0
  5  7  1  0
  6  5  2  0
  8  7  1  0
  8 11  1  0
  8  9  1  6
 10  9  1  0
 11 13  1  0
 11 12  2  0
 13 14  1  0
 14 15  1  1
 15 16  1  0
 16 17  2  0
 18 17  1  0
 19 18  1  0
 20 19  2  0
 20 16  1  0
 21 14  1  0
 21 22  1  0
 23 21  2  0
M  END
$$$$
