WQL.pdb
     RDKit          3D

 32 33  0  0  1  0  0  0  0  0999 V2000
   27.9072  -19.8870  -16.2697 N   0  0  0  0  0  0  0  0  0  0  0  0
   27.1777  -20.7335  -15.3176 C   0  0  1  0  0  0  0  0  0  0  0  0
   27.0527  -19.9442  -14.0527 C   0  0  0  0  0  0  0  0  0  0  0  0
   28.2807  -19.7527  -13.2986 C   0  0  0  0  0  0  0  0  0  0  0  0
   29.0169  -18.5677  -13.3210 C   0  0  0  0  0  0  0  0  0  0  0  0
   30.1158  -18.6814  -12.5658 N   0  0  0  0  0  0  0  0  0  0  0  0
   30.1120  -19.9288  -12.0450 C   0  0  0  0  0  0  0  0  0  0  0  0
   30.9714  -20.5861  -11.2011 C   0  0  0  0  0  0  0  0  0  0  0  0
   30.7619  -21.8673  -10.7823 C   0  0  0  0  0  0  0  0  0  0  0  0
   29.6316  -22.5259  -11.2323 C   0  0  0  0  0  0  0  0  0  0  0  0
   28.7495  -21.9212  -12.0693 C   0  0  0  0  0  0  0  0  0  0  0  0
   28.9886  -20.6110  -12.4821 C   0  0  0  0  0  0  0  0  0  0  0  0
   25.9456  -21.2516  -15.8887 C   0  0  0  0  0  0  0  0  0  0  0  0
   25.2498  -20.5980  -16.6989 O   0  0  0  0  0  0  0  0  0  0  0  0
   23.2171  -23.3478  -18.6657 N   0  0  0  0  0  0  0  0  0  0  0  0
   24.4888  -23.9491  -18.7661 C   0  0  0  0  0  0  0  0  0  0  0  0
   25.0421  -23.9406  -19.9090 O   0  0  0  0  0  0  0  0  0  0  0  0
   25.1611  -24.5673  -17.5964 C   0  0  0  0  0  0  0  0  0  0  0  0
   24.2563  -24.4322  -16.4073 C   0  0  0  0  0  0  0  0  0  0  0  0
   24.2307  -23.0150  -15.9446 C   0  0  2  0  0  0  0  0  0  0  0  0
   25.5070  -22.5376  -15.5225 N   0  0  0  0  0  0  0  0  0  0  0  0
   23.2403  -22.7493  -14.8651 C   0  0  0  0  0  0  0  0  0  0  0  0
   22.7307  -23.7321  -14.2809 O   0  0  0  0  0  0  0  0  0  0  0  0
   23.2023  -21.3103  -10.1957 C   0  0  0  0  0  0  0  0  0  0  0  0
   24.4307  -21.1199  -11.0605 C   0  0  2  0  0  0  0  0  0  0  0  0
   25.3221  -20.0141  -10.6380 C   0  0  0  0  0  0  0  0  0  0  0  0
   24.2351  -21.2874  -12.5021 C   0  0  0  0  0  0  0  0  0  0  0  0
   22.8835  -21.0935  -13.0662 C   0  0  2  0  0  0  0  0  0  0  0  0
   22.8493  -21.4705  -14.4691 N   0  0  0  0  0  0  0  0  0  0  0  0
   22.4311  -19.6968  -13.0045 C   0  0  0  0  0  0  0  0  0  0  0  0
   22.5157  -18.7586  -14.0165 O   0  0  0  0  0  0  0  0  0  0  0  0
   21.9020  -19.2497  -11.9229 O   0  0  0  0  0  0  0  0  0  0  0  0
  2  1  1  6
  3  2  1  0
  4  3  1  0
  5  4  2  0
  6  7  1  0
  6  5  1  0
  7 12  2  0
  8  7  1  0
  8  9  2  0
  9 10  1  0
 10 11  2  0
 12  4  1  0
 12 11  1  0
 13  2  1  0
 14 13  2  0
 16 17  2  0
 16 15  1  0
 18 16  1  0
 19 18  1  0
 20 21  1  0
 20 19  1  1
 21 13  1  0
 22 20  1  0
 23 22  2  0
 25 24  1  1
 25 27  1  0
 26 25  1  0
 28 27  1  6
 28 30  1  0
 28 29  1  0
 29 22  1  0
 30 31  1  0
 32 30  2  0
M  END
$$$$
