WQL.pdb
     RDKit          3D

 32 33  0  0  1  0  0  0  0  0999 V2000
   27.6761  -19.9672  -16.1665 N   0  0  0  0  0  0  0  0  0  0  0  0
   27.1653  -20.9527  -15.2058 C   0  0  1  0  0  0  0  0  0  0  0  0
   27.0170  -20.2388  -13.8993 C   0  0  0  0  0  0  0  0  0  0  0  0
   28.2541  -19.9118  -13.2093 C   0  0  0  0  0  0  0  0  0  0  0  0
   29.1473  -18.9381  -13.6575 C   0  0  0  0  0  0  0  0  0  0  0  0
   30.2143  -18.8712  -12.8526 N   0  0  0  0  0  0  0  0  0  0  0  0
   30.0341  -19.7903  -11.8778 C   0  0  0  0  0  0  0  0  0  0  0  0
   30.7881  -20.1505  -10.7894 C   0  0  0  0  0  0  0  0  0  0  0  0
   30.4003  -21.1159   -9.9072 C   0  0  0  0  0  0  0  0  0  0  0  0
   29.1930  -21.7552  -10.1263 C   0  0  0  0  0  0  0  0  0  0  0  0
   28.4093  -21.4371  -11.1887 C   0  0  0  0  0  0  0  0  0  0  0  0
   28.8304  -20.4464  -12.0751 C   0  0  0  0  0  0  0  0  0  0  0  0
   25.9890  -21.6410  -15.7112 C   0  0  0  0  0  0  0  0  0  0  0  0
   24.9831  -21.0320  -16.1411 O   0  0  0  0  0  0  0  0  0  0  0  0
   25.1360  -27.8477  -16.7599 N   0  0  0  0  0  0  0  0  0  0  0  0
   23.8393  -27.2943  -16.7234 C   0  0  0  0  0  0  0  0  0  0  0  0
   22.8690  -28.0841  -16.9403 O   0  0  0  0  0  0  0  0  0  0  0  0
   23.6058  -25.8555  -16.4449 C   0  0  0  0  0  0  0  0  0  0  0  0
   24.9353  -25.1968  -16.2227 C   0  0  0  0  0  0  0  0  0  0  0  0
   24.7421  -23.7533  -15.9035 C   0  0  2  0  0  0  0  0  0  0  0  0
   25.9687  -23.0480  -15.7213 N   0  0  0  0  0  0  0  0  0  0  0  0
   23.8694  -23.5068  -14.7226 C   0  0  0  0  0  0  0  0  0  0  0  0
   24.2530  -23.9330  -13.6099 O   0  0  0  0  0  0  0  0  0  0  0  0
   20.6521  -20.4196  -11.8032 C   0  0  0  0  0  0  0  0  0  0  0  0
   22.1433  -20.6730  -11.7309 C   0  0  2  0  0  0  0  0  0  0  0  0
   22.9306  -19.5761  -11.1204 C   0  0  0  0  0  0  0  0  0  0  0  0
   22.7399  -21.3387  -12.8908 C   0  0  0  0  0  0  0  0  0  0  0  0
   21.9804  -22.4100  -13.5677 C   0  0  2  0  0  0  0  0  0  0  0  0
   22.6518  -22.8298  -14.7860 N   0  0  0  0  0  0  0  0  0  0  0  0
   20.6293  -21.9917  -13.9657 C   0  0  0  0  0  0  0  0  0  0  0  0
   20.2661  -21.4203  -15.1712 O   0  0  0  0  0  0  0  0  0  0  0  0
   19.6519  -22.1445  -13.1466 O   0  0  0  0  0  0  0  0  0  0  0  0
  2  1  1  6
  3  2  1  0
  4  3  1  0
  5  4  2  0
  6  7  1  0
  6  5  1  0
  7 12  2  0
  8  7  1  0
  8  9  2  0
  9 10  1  0
 10 11  2  0
 12  4  1  0
 12 11  1  0
 13  2  1  0
 14 13  2  0
 16 17  2  0
 16 15  1  0
 18 16  1  0
 19 18  1  0
 20 21  1  0
 20 19  1  1
 21 13  1  0
 22 20  1  0
 23 22  2  0
 25 24  1  6
 25 27  1  0
 26 25  1  0
 28 27  1  6
 28 30  1  0
 28 29  1  0
 29 22  1  0
 30 31  1  0
 32 30  2  0
M  END
$$$$
