WQL.pdb
     RDKit          3D

 32 33  0  0  1  0  0  0  0  0999 V2000
   22.4511  -20.4757  -15.9234 N   0  0  0  0  0  0  0  0  0  0  0  0
   23.3209  -19.3371  -15.6037 C   0  0  1  0  0  0  0  0  0  0  0  0
   22.5976  -18.5214  -14.5790 C   0  0  0  0  0  0  0  0  0  0  0  0
   21.4072  -17.8279  -15.0429 C   0  0  0  0  0  0  0  0  0  0  0  0
   20.1104  -18.2569  -14.7581 C   0  0  0  0  0  0  0  0  0  0  0  0
   19.2104  -17.4538  -15.3376 N   0  0  0  0  0  0  0  0  0  0  0  0
   19.8999  -16.4991  -16.0014 C   0  0  0  0  0  0  0  0  0  0  0  0
   19.5055  -15.4212  -16.7532 C   0  0  0  0  0  0  0  0  0  0  0  0
   20.3901  -14.5595  -17.3327 C   0  0  0  0  0  0  0  0  0  0  0  0
   21.7421  -14.7893  -17.1499 C   0  0  0  0  0  0  0  0  0  0  0  0
   22.1854  -15.8420  -16.4156 C   0  0  0  0  0  0  0  0  0  0  0  0
   21.2590  -16.7075  -15.8348 C   0  0  0  0  0  0  0  0  0  0  0  0
   24.6686  -19.7645  -15.2660 C   0  0  0  0  0  0  0  0  0  0  0  0
   24.9094  -20.8564  -14.7026 O   0  0  0  0  0  0  0  0  0  0  0  0
   28.9965  -16.5675  -17.7320 N   0  0  0  0  0  0  0  0  0  0  0  0
   28.5854  -17.7635  -18.3561 C   0  0  0  0  0  0  0  0  0  0  0  0
   28.6751  -17.8139  -19.6217 O   0  0  0  0  0  0  0  0  0  0  0  0
   28.0696  -18.9186  -17.5801 C   0  0  0  0  0  0  0  0  0  0  0  0
   28.0999  -18.5589  -16.1239 C   0  0  0  0  0  0  0  0  0  0  0  0
   27.0943  -19.3683  -15.3778 C   0  0  2  0  0  0  0  0  0  0  0  0
   25.7534  -18.9247  -15.5790 N   0  0  0  0  0  0  0  0  0  0  0  0
   27.3541  -19.4558  -13.9144 C   0  0  0  0  0  0  0  0  0  0  0  0
   27.1627  -18.4309  -13.2218 O   0  0  0  0  0  0  0  0  0  0  0  0
   25.8230  -19.4023  -10.2946 C   0  0  0  0  0  0  0  0  0  0  0  0
   25.8521  -20.8322  -10.7922 C   0  0  2  0  0  0  0  0  0  0  0  0
   24.8805  -21.7380  -10.1353 C   0  0  0  0  0  0  0  0  0  0  0  0
   27.1769  -21.3886  -11.0744 C   0  0  0  0  0  0  0  0  0  0  0  0
   28.1358  -20.5852  -11.8605 C   0  0  2  0  0  0  0  0  0  0  0  0
   27.7975  -20.6123  -13.2733 N   0  0  0  0  0  0  0  0  0  0  0  0
   29.5162  -21.0781  -11.7585 C   0  0  0  0  0  0  0  0  0  0  0  0
   30.3821  -20.8876  -10.6976 O   0  0  0  0  0  0  0  0  0  0  0  0
   30.0203  -21.7546  -12.7269 O   0  0  0  0  0  0  0  0  0  0  0  0
  2  1  1  1
  3  2  1  0
  4  3  1  0
  5  4  2  0
  6  7  1  0
  6  5  1  0
  7 12  2  0
  8  7  1  0
  8  9  2  0
  9 10  1  0
 10 11  2  0
 12  4  1  0
 12 11  1  0
 13  2  1  0
 14 13  2  0
 16 17  2  0
 16 15  1  0
 18 16  1  0
 19 18  1  0
 20 21  1  0
 20 19  1  1
 21 13  1  0
 22 20  1  0
 23 22  2  0
 25 24  1  1
 25 27  1  0
 26 25  1  0
 28 27  1  1
 28 30  1  0
 28 29  1  0
 29 22  1  0
 30 31  1  0
 32 30  2  0
M  END
$$$$
