WQL.pdb
     RDKit          3D

 32 33  0  0  1  0  0  0  0  0999 V2000
   25.0635  -18.2088  -15.5659 N   0  0  0  0  0  0  0  0  0  0  0  0
   26.0344  -18.3917  -14.4800 C   0  0  1  0  0  0  0  0  0  0  0  0
   26.7250  -17.0769  -14.2984 C   0  0  0  0  0  0  0  0  0  0  0  0
   27.4594  -16.5798  -15.4503 C   0  0  0  0  0  0  0  0  0  0  0  0
   27.2994  -15.2924  -15.9639 C   0  0  0  0  0  0  0  0  0  0  0  0
   28.0708  -15.1165  -17.0432 N   0  0  0  0  0  0  0  0  0  0  0  0
   28.7384  -16.2743  -17.2467 C   0  0  0  0  0  0  0  0  0  0  0  0
   29.6616  -16.6621  -18.1847 C   0  0  0  0  0  0  0  0  0  0  0  0
   30.2305  -17.9018  -18.1948 C   0  0  0  0  0  0  0  0  0  0  0  0
   29.8550  -18.8017  -17.2134 C   0  0  0  0  0  0  0  0  0  0  0  0
   28.9449  -18.4686  -16.2623 C   0  0  0  0  0  0  0  0  0  0  0  0
   28.3786  -17.1944  -16.2759 C   0  0  0  0  0  0  0  0  0  0  0  0
   25.4207  -18.9758  -13.2989 C   0  0  0  0  0  0  0  0  0  0  0  0
   24.4101  -18.4821  -12.7489 O   0  0  0  0  0  0  0  0  0  0  0  0
   22.3268  -21.4928  -11.0465 N   0  0  0  0  0  0  0  0  0  0  0  0
   22.4923  -21.6702  -12.4358 C   0  0  0  0  0  0  0  0  0  0  0  0
   21.4635  -21.5146  -13.1636 O   0  0  0  0  0  0  0  0  0  0  0  0
   23.8044  -22.0228  -13.0329 C   0  0  0  0  0  0  0  0  0  0  0  0
   24.8137  -22.1218  -11.9273 C   0  0  0  0  0  0  0  0  0  0  0  0
   25.3648  -20.7715  -11.6178 C   0  0  2  0  0  0  0  0  0  0  0  0
   25.9772  -20.1422  -12.7421 N   0  0  0  0  0  0  0  0  0  0  0  0
   26.3253  -20.7567  -10.4802 C   0  0  0  0  0  0  0  0  0  0  0  0
   27.5206  -21.0424  -10.7173 O   0  0  0  0  0  0  0  0  0  0  0  0
   28.5157  -18.0532   -6.8917 C   0  0  0  0  0  0  0  0  0  0  0  0
   27.6308  -19.2607   -6.6637 C   0  0  2  0  0  0  0  0  0  0  0  0
   27.4286  -19.6225   -5.2410 C   0  0  0  0  0  0  0  0  0  0  0  0
   27.8034  -20.3714   -7.6024 C   0  0  0  0  0  0  0  0  0  0  0  0
   26.6102  -21.1174   -8.0525 C   0  0  2  0  0  0  0  0  0  0  0  0
   25.9691  -20.4433   -9.1687 N   0  0  0  0  0  0  0  0  0  0  0  0
   25.5861  -21.2464   -7.0067 C   0  0  0  0  0  0  0  0  0  0  0  0
   24.2923  -20.7617   -7.0572 O   0  0  0  0  0  0  0  0  0  0  0  0
   25.8711  -21.8568   -5.9131 O   0  0  0  0  0  0  0  0  0  0  0  0
  2  1  1  6
  3  2  1  0
  4  3  1  0
  5  4  2  0
  6  7  1  0
  6  5  1  0
  7 12  2  0
  8  7  1  0
  8  9  2  0
  9 10  1  0
 10 11  2  0
 12  4  1  0
 12 11  1  0
 13  2  1  0
 14 13  2  0
 16 17  2  0
 16 15  1  0
 18 16  1  0
 19 18  1  0
 20 21  1  0
 20 19  1  6
 21 13  1  0
 22 20  1  0
 23 22  2  0
 25 24  1  1
 25 27  1  0
 26 25  1  0
 28 27  1  1
 28 30  1  0
 28 29  1  0
 29 22  1  0
 30 31  1  0
 32 30  2  0
M  END
$$$$
