WQL.pdb
     RDKit          3D

 32 33  0  0  1  0  0  0  0  0999 V2000
   19.6890  -16.9242  -16.1848 N   0  0  0  0  0  0  0  0  0  0  0  0
   21.0528  -17.3483  -16.5245 C   0  0  1  0  0  0  0  0  0  0  0  0
   21.8846  -16.1060  -16.5826 C   0  0  0  0  0  0  0  0  0  0  0  0
   21.5979  -15.1996  -17.6824 C   0  0  0  0  0  0  0  0  0  0  0  0
   21.1542  -13.8894  -17.4998 C   0  0  0  0  0  0  0  0  0  0  0  0
   20.9368  -13.2969  -18.6798 N   0  0  0  0  0  0  0  0  0  0  0  0
   21.2330  -14.2023  -19.6390 C   0  0  0  0  0  0  0  0  0  0  0  0
   21.2084  -14.1457  -21.0097 C   0  0  0  0  0  0  0  0  0  0  0  0
   21.5702  -15.1966  -21.8004 C   0  0  0  0  0  0  0  0  0  0  0  0
   21.9784  -16.3671  -21.1862 C   0  0  0  0  0  0  0  0  0  0  0  0
   22.0202  -16.4759  -19.8332 C   0  0  0  0  0  0  0  0  0  0  0  0
   21.6444  -15.3859  -19.0489 C   0  0  0  0  0  0  0  0  0  0  0  0
   21.5230  -18.4089  -15.6488 C   0  0  0  0  0  0  0  0  0  0  0  0
   21.3938  -18.3639  -14.4042 O   0  0  0  0  0  0  0  0  0  0  0  0
   21.7331  -24.4731  -16.6979 N   0  0  0  0  0  0  0  0  0  0  0  0
   22.4753  -24.3273  -15.5076 C   0  0  0  0  0  0  0  0  0  0  0  0
   22.8080  -25.3923  -14.9013 O   0  0  0  0  0  0  0  0  0  0  0  0
   22.8568  -22.9950  -14.9768 C   0  0  0  0  0  0  0  0  0  0  0  0
   22.3308  -21.9469  -15.9125 C   0  0  0  0  0  0  0  0  0  0  0  0
   22.6324  -20.5882  -15.3776 C   0  0  2  0  0  0  0  0  0  0  0  0
   22.1512  -19.5354  -16.2114 N   0  0  0  0  0  0  0  0  0  0  0  0
   24.0763  -20.3550  -15.0991 C   0  0  0  0  0  0  0  0  0  0  0  0
   24.7678  -19.8193  -15.9943 O   0  0  0  0  0  0  0  0  0  0  0  0
   28.3685  -21.3688  -10.6724 C   0  0  0  0  0  0  0  0  0  0  0  0
   27.9978  -20.9288  -12.0732 C   0  0  2  0  0  0  0  0  0  0  0  0
   28.7960  -19.7970  -12.6001 C   0  0  0  0  0  0  0  0  0  0  0  0
   26.5678  -20.9229  -12.3885 C   0  0  0  0  0  0  0  0  0  0  0  0
   26.1401  -20.5668  -13.7571 C   0  0  2  0  0  0  0  0  0  0  0  0
   24.7001  -20.6989  -13.9001 N   0  0  0  0  0  0  0  0  0  0  0  0
   26.7365  -21.4287  -14.7869 C   0  0  0  0  0  0  0  0  0  0  0  0
   27.7502  -21.0849  -15.6621 O   0  0  0  0  0  0  0  0  0  0  0  0
   26.3057  -22.6295  -14.9351 O   0  0  0  0  0  0  0  0  0  0  0  0
  2  1  1  1
  3  2  1  0
  4  3  1  0
  5  4  2  0
  6  7  1  0
  6  5  1  0
  7 12  2  0
  8  7  1  0
  8  9  2  0
  9 10  1  0
 10 11  2  0
 12  4  1  0
 12 11  1  0
 13  2  1  0
 14 13  2  0
 16 17  2  0
 16 15  1  0
 18 16  1  0
 19 18  1  0
 20 21  1  0
 20 19  1  6
 21 13  1  0
 22 20  1  0
 23 22  2  0
 25 24  1  1
 25 27  1  0
 26 25  1  0
 28 27  1  1
 28 30  1  0
 28 29  1  0
 29 22  1  0
 30 31  1  0
 32 30  2  0
M  END
$$$$
