WQL.pdb
     RDKit          3D

 32 33  0  0  1  0  0  0  0  0999 V2000
   28.1459  -22.3410  -10.3316 N   0  0  0  0  0  0  0  0  0  0  0  0
   27.2498  -21.1823  -10.2322 C   0  0  1  0  0  0  0  0  0  0  0  0
   28.0719  -20.0508   -9.7009 C   0  0  0  0  0  0  0  0  0  0  0  0
   28.7513  -20.2959   -8.4393 C   0  0  0  0  0  0  0  0  0  0  0  0
   29.9427  -21.0151   -8.3376 C   0  0  0  0  0  0  0  0  0  0  0  0
   30.3240  -21.1166   -7.0588 N   0  0  0  0  0  0  0  0  0  0  0  0
   29.3970  -20.4715   -6.3159 C   0  0  0  0  0  0  0  0  0  0  0  0
   29.2793  -20.2460   -4.9676 C   0  0  0  0  0  0  0  0  0  0  0  0
   28.2465  -19.5412   -4.4224 C   0  0  0  0  0  0  0  0  0  0  0  0
   27.2794  -19.0350   -5.2725 C   0  0  0  0  0  0  0  0  0  0  0  0
   27.3483  -19.2304   -6.6146 C   0  0  0  0  0  0  0  0  0  0  0  0
   28.4149  -19.9551   -7.1451 C   0  0  0  0  0  0  0  0  0  0  0  0
   26.5355  -20.9433  -11.4753 C   0  0  0  0  0  0  0  0  0  0  0  0
   27.1128  -20.8806  -12.5846 O   0  0  0  0  0  0  0  0  0  0  0  0
   24.3016  -25.0884  -13.7835 N   0  0  0  0  0  0  0  0  0  0  0  0
   23.5404  -24.1632  -14.5276 C   0  0  0  0  0  0  0  0  0  0  0  0
   22.9043  -24.6137  -15.5300 O   0  0  0  0  0  0  0  0  0  0  0  0
   23.4770  -22.7253  -14.1658 C   0  0  0  0  0  0  0  0  0  0  0  0
   24.3407  -22.5048  -12.9590 C   0  0  0  0  0  0  0  0  0  0  0  0
   24.3471  -21.0592  -12.5939 C   0  0  2  0  0  0  0  0  0  0  0  0
   25.1390  -20.7729  -11.4424 N   0  0  0  0  0  0  0  0  0  0  0  0
   22.9899  -20.4795  -12.3965 C   0  0  0  0  0  0  0  0  0  0  0  0
   22.5211  -20.4643  -11.2360 O   0  0  0  0  0  0  0  0  0  0  0  0
   21.2154  -16.2990  -13.2269 C   0  0  0  0  0  0  0  0  0  0  0  0
   21.1379  -17.1880  -14.4504 C   0  0  2  0  0  0  0  0  0  0  0  0
   20.8409  -16.4774  -15.7164 C   0  0  0  0  0  0  0  0  0  0  0  0
   20.4882  -18.4868  -14.2619 C   0  0  0  0  0  0  0  0  0  0  0  0
   20.9245  -19.3474  -13.1430 C   0  0  2  0  0  0  0  0  0  0  0  0
   22.2135  -19.9540  -13.4290 N   0  0  0  0  0  0  0  0  0  0  0  0
   19.9978  -20.4564  -12.8773 C   0  0  0  0  0  0  0  0  0  0  0  0
   18.8527  -20.4050  -12.1043 O   0  0  0  0  0  0  0  0  0  0  0  0
   20.2317  -21.6126  -13.3853 O   0  0  0  0  0  0  0  0  0  0  0  0
  2  1  1  6
  3  2  1  0
  4  3  1  0
  5  4  2  0
  6  7  1  0
  6  5  1  0
  7 12  2  0
  8  7  1  0
  8  9  2  0
  9 10  1  0
 10 11  2  0
 12  4  1  0
 12 11  1  0
 13  2  1  0
 14 13  2  0
 16 17  2  0
 16 15  1  0
 18 16  1  0
 19 18  1  0
 20 21  1  0
 20 19  1  1
 21 13  1  0
 22 20  1  0
 23 22  2  0
 25 24  1  1
 25 27  1  0
 26 25  1  0
 28 27  1  6
 28 30  1  0
 28 29  1  0
 29 22  1  0
 30 31  1  0
 32 30  2  0
M  END
$$$$
