WQL.pdb
     RDKit          3D

 32 33  0  0  1  0  0  0  0  0999 V2000
   26.6162  -19.6571  -11.3985 N   0  0  0  0  0  0  0  0  0  0  0  0
   26.1327  -21.0432  -11.4022 C   0  0  1  0  0  0  0  0  0  0  0  0
   25.7512  -21.3665   -9.9921 C   0  0  0  0  0  0  0  0  0  0  0  0
   26.7075  -20.9759   -8.9692 C   0  0  0  0  0  0  0  0  0  0  0  0
   26.4029  -20.0930   -7.9326 C   0  0  0  0  0  0  0  0  0  0  0  0
   27.4757  -19.8856   -7.1599 N   0  0  0  0  0  0  0  0  0  0  0  0
   28.4846  -20.6229   -7.6757 C   0  0  0  0  0  0  0  0  0  0  0  0
   29.7902  -20.8061   -7.2954 C   0  0  0  0  0  0  0  0  0  0  0  0
   30.6488  -21.6255   -7.9678 C   0  0  0  0  0  0  0  0  0  0  0  0
   30.1752  -22.2975   -9.0805 C   0  0  0  0  0  0  0  0  0  0  0  0
   28.8919  -22.1507   -9.4996 C   0  0  0  0  0  0  0  0  0  0  0  0
   28.0358  -21.3061   -8.7937 C   0  0  0  0  0  0  0  0  0  0  0  0
   25.1169  -21.2586  -12.4194 C   0  0  0  0  0  0  0  0  0  0  0  0
   24.2189  -20.4213  -12.6648 O   0  0  0  0  0  0  0  0  0  0  0  0
   24.4706  -23.5025  -17.8594 N   0  0  0  0  0  0  0  0  0  0  0  0
   25.7092  -23.2343  -17.2407 C   0  0  0  0  0  0  0  0  0  0  0  0
   26.6547  -22.8390  -17.9905 O   0  0  0  0  0  0  0  0  0  0  0  0
   25.9116  -23.4024  -15.7802 C   0  0  0  0  0  0  0  0  0  0  0  0
   24.5897  -23.7430  -15.1576 C   0  0  0  0  0  0  0  0  0  0  0  0
   24.1833  -22.6703  -14.2053 C   0  0  2  0  0  0  0  0  0  0  0  0
   25.1332  -22.4529  -13.1634 N   0  0  0  0  0  0  0  0  0  0  0  0
   22.8426  -22.8815  -13.5929 C   0  0  0  0  0  0  0  0  0  0  0  0
   22.7836  -23.5074  -12.5106 O   0  0  0  0  0  0  0  0  0  0  0  0
   18.3714  -19.6261  -11.9182 C   0  0  0  0  0  0  0  0  0  0  0  0
   18.9663  -21.0187  -11.9020 C   0  0  2  0  0  0  0  0  0  0  0  0
   18.8866  -21.7127  -10.5952 C   0  0  0  0  0  0  0  0  0  0  0  0
   20.2043  -21.1983  -12.6631 C   0  0  0  0  0  0  0  0  0  0  0  0
   20.4153  -22.4648  -13.3942 C   0  0  2  0  0  0  0  0  0  0  0  0
   21.6520  -22.4227  -14.1559 N   0  0  0  0  0  0  0  0  0  0  0  0
   19.3468  -22.7542  -14.3604 C   0  0  0  0  0  0  0  0  0  0  0  0
   18.2294  -23.5385  -14.1416 O   0  0  0  0  0  0  0  0  0  0  0  0
   19.4113  -22.2583  -15.5434 O   0  0  0  0  0  0  0  0  0  0  0  0
  2  1  1  1
  3  2  1  0
  4  3  1  0
  5  4  2  0
  6  7  1  0
  6  5  1  0
  7 12  2  0
  8  7  1  0
  8  9  2  0
  9 10  1  0
 10 11  2  0
 12  4  1  0
 12 11  1  0
 13  2  1  0
 14 13  2  0
 16 17  2  0
 16 15  1  0
 18 16  1  0
 19 18  1  0
 20 21  1  0
 20 19  1  1
 21 13  1  0
 22 20  1  0
 23 22  2  0
 25 24  1  1
 25 27  1  0
 26 25  1  0
 28 27  1  6
 28 30  1  0
 28 29  1  0
 29 22  1  0
 30 31  1  0
 32 30  2  0
M  END
$$$$
