WQL.pdb
     RDKit          3D

 32 33  0  0  1  0  0  0  0  0999 V2000
   25.6687  -21.1364  -13.4935 N   0  0  0  0  0  0  0  0  0  0  0  0
   25.1000  -20.9312  -12.1558 C   0  0  1  0  0  0  0  0  0  0  0  0
   26.0365  -20.0186  -11.4287 C   0  0  0  0  0  0  0  0  0  0  0  0
   27.3513  -20.5626  -11.1308 C   0  0  0  0  0  0  0  0  0  0  0  0
   28.3574  -20.7026  -12.0874 C   0  0  0  0  0  0  0  0  0  0  0  0
   29.4470  -21.2607  -11.5469 N   0  0  0  0  0  0  0  0  0  0  0  0
   29.1704  -21.4899  -10.2436 C   0  0  0  0  0  0  0  0  0  0  0  0
   29.9076  -22.0245   -9.2173 C   0  0  0  0  0  0  0  0  0  0  0  0
   29.4254  -22.1516   -7.9477 C   0  0  0  0  0  0  0  0  0  0  0  0
   28.1359  -21.7205   -7.6916 C   0  0  0  0  0  0  0  0  0  0  0  0
   27.3639  -21.1847   -8.6719 C   0  0  0  0  0  0  0  0  0  0  0  0
   27.8820  -21.0671   -9.9612 C   0  0  0  0  0  0  0  0  0  0  0  0
   23.7064  -20.5226  -12.2178 C   0  0  0  0  0  0  0  0  0  0  0  0
   23.3583  -19.3444  -12.4588 O   0  0  0  0  0  0  0  0  0  0  0  0
   18.4572  -20.1732  -14.4263 N   0  0  0  0  0  0  0  0  0  0  0  0
   19.2184  -21.2737  -14.8718 C   0  0  0  0  0  0  0  0  0  0  0  0
   18.6977  -22.0115  -15.7645 O   0  0  0  0  0  0  0  0  0  0  0  0
   20.5684  -21.5672  -14.3299 C   0  0  0  0  0  0  0  0  0  0  0  0
   20.9228  -20.4949  -13.3422 C   0  0  0  0  0  0  0  0  0  0  0  0
   21.3233  -21.1096  -12.0442 C   0  0  2  0  0  0  0  0  0  0  0  0
   22.6999  -21.4813  -11.9984 N   0  0  0  0  0  0  0  0  0  0  0  0
   20.4978  -22.2850  -11.6517 C   0  0  0  0  0  0  0  0  0  0  0  0
   20.6570  -23.3523  -12.2859 O   0  0  0  0  0  0  0  0  0  0  0  0
   16.9596  -24.2551   -6.9389 C   0  0  0  0  0  0  0  0  0  0  0  0
   17.7499  -24.5314   -8.2008 C   0  0  2  0  0  0  0  0  0  0  0  0
   18.5194  -25.7976   -8.1867 C   0  0  0  0  0  0  0  0  0  0  0  0
   18.4052  -23.3751   -8.8157 C   0  0  0  0  0  0  0  0  0  0  0  0
   18.8976  -23.4885  -10.2040 C   0  0  2  0  0  0  0  0  0  0  0  0
   19.5597  -22.2638  -10.6199 N   0  0  0  0  0  0  0  0  0  0  0  0
   17.8219  -23.7253  -11.1766 C   0  0  0  0  0  0  0  0  0  0  0  0
   16.8251  -22.8365  -11.5343 O   0  0  0  0  0  0  0  0  0  0  0  0
   17.7511  -24.8572  -11.7795 O   0  0  0  0  0  0  0  0  0  0  0  0
  2  1  1  6
  3  2  1  0
  4  3  1  0
  5  4  2  0
  6  7  1  0
  6  5  1  0
  7 12  2  0
  8  7  1  0
  8  9  2  0
  9 10  1  0
 10 11  2  0
 12  4  1  0
 12 11  1  0
 13  2  1  0
 14 13  2  0
 16 17  2  0
 16 15  1  0
 18 16  1  0
 19 18  1  0
 20 21  1  0
 20 19  1  6
 21 13  1  0
 22 20  1  0
 23 22  2  0
 25 24  1  1
 25 27  1  0
 26 25  1  0
 28 27  1  1
 28 30  1  0
 28 29  1  0
 29 22  1  0
 30 31  1  0
 32 30  2  0
M  END
$$$$
