WQL.pdb
     RDKit          3D

 32 33  0  0  1  0  0  0  0  0999 V2000
   27.2415  -22.2677  -13.2106 N   0  0  0  0  0  0  0  0  0  0  0  0
   26.1818  -21.4324  -12.6321 C   0  0  1  0  0  0  0  0  0  0  0  0
   26.8514  -20.2126  -12.0824 C   0  0  0  0  0  0  0  0  0  0  0  0
   27.7820  -20.4366  -10.9882 C   0  0  0  0  0  0  0  0  0  0  0  0
   29.1566  -20.5912  -11.1709 C   0  0  0  0  0  0  0  0  0  0  0  0
   29.7648  -20.8183  -10.0006 N   0  0  0  0  0  0  0  0  0  0  0  0
   28.8058  -20.8145   -9.0478 C   0  0  0  0  0  0  0  0  0  0  0  0
   28.8478  -20.9803   -7.6864 C   0  0  0  0  0  0  0  0  0  0  0  0
   27.7354  -20.9225   -6.8991 C   0  0  0  0  0  0  0  0  0  0  0  0
   26.5154  -20.6862   -7.5072 C   0  0  0  0  0  0  0  0  0  0  0  0
   26.4186  -20.5159   -8.8509 C   0  0  0  0  0  0  0  0  0  0  0  0
   27.5719  -20.5804   -9.6320 C   0  0  0  0  0  0  0  0  0  0  0  0
   25.0935  -21.2134  -13.5704 C   0  0  0  0  0  0  0  0  0  0  0  0
   25.1755  -20.4048  -14.5228 O   0  0  0  0  0  0  0  0  0  0  0  0
   22.1361  -25.5849  -14.4653 N   0  0  0  0  0  0  0  0  0  0  0  0
   23.5083  -25.2900  -14.6030 C   0  0  0  0  0  0  0  0  0  0  0  0
   24.3275  -26.2275  -14.3533 O   0  0  0  0  0  0  0  0  0  0  0  0
   23.9865  -23.9485  -15.0204 C   0  0  0  0  0  0  0  0  0  0  0  0
   22.7901  -23.0749  -15.2578 C   0  0  0  0  0  0  0  0  0  0  0  0
   22.8685  -21.8587  -14.3990 C   0  0  2  0  0  0  0  0  0  0  0  0
   23.8946  -21.9326  -13.4106 N   0  0  0  0  0  0  0  0  0  0  0  0
   21.5855  -21.5071  -13.7302 C   0  0  0  0  0  0  0  0  0  0  0  0
   21.4561  -21.7965  -12.5193 O   0  0  0  0  0  0  0  0  0  0  0  0
   17.7532  -19.1297  -15.8882 C   0  0  0  0  0  0  0  0  0  0  0  0
   18.8442  -18.4647  -15.0753 C   0  0  2  0  0  0  0  0  0  0  0  0
   20.0351  -18.0521  -15.8545 C   0  0  0  0  0  0  0  0  0  0  0  0
   19.0954  -19.0328  -13.7491 C   0  0  0  0  0  0  0  0  0  0  0  0
   19.3382  -20.4852  -13.6291 C   0  0  2  0  0  0  0  0  0  0  0  0
   20.5225  -20.8753  -14.3751 N   0  0  0  0  0  0  0  0  0  0  0  0
   18.2333  -21.2970  -14.1577 C   0  0  0  0  0  0  0  0  0  0  0  0
   16.9692  -21.4220  -13.6118 O   0  0  0  0  0  0  0  0  0  0  0  0
   18.4080  -21.9837  -15.2289 O   0  0  0  0  0  0  0  0  0  0  0  0
  2  1  1  6
  3  2  1  0
  4  3  1  0
  5  4  2  0
  6  7  1  0
  6  5  1  0
  7 12  2  0
  8  7  1  0
  8  9  2  0
  9 10  1  0
 10 11  2  0
 12  4  1  0
 12 11  1  0
 13  2  1  0
 14 13  2  0
 16 17  2  0
 16 15  1  0
 18 16  1  0
 19 18  1  0
 20 21  1  0
 20 19  1  1
 21 13  1  0
 22 20  1  0
 23 22  2  0
 25 24  1  6
 25 27  1  0
 26 25  1  0
 28 27  1  6
 28 30  1  0
 28 29  1  0
 29 22  1  0
 30 31  1  0
 32 30  2  0
M  END
$$$$
