WQL.pdb
     RDKit          3D

 32 33  0  0  1  0  0  0  0  0999 V2000
   19.0920  -23.6428  -10.5684 N   0  0  0  0  0  0  0  0  0  0  0  0
   19.4095  -23.5809   -9.1364 C   0  0  1  0  0  0  0  0  0  0  0  0
   19.5842  -22.1337   -8.7996 C   0  0  0  0  0  0  0  0  0  0  0  0
   20.7377  -21.4774   -9.3931 C   0  0  0  0  0  0  0  0  0  0  0  0
   20.7285  -20.9207  -10.6724 C   0  0  0  0  0  0  0  0  0  0  0  0
   21.9304  -20.4159  -10.9752 N   0  0  0  0  0  0  0  0  0  0  0  0
   22.7321  -20.6333   -9.9087 C   0  0  0  0  0  0  0  0  0  0  0  0
   24.0446  -20.3241   -9.6545 C   0  0  0  0  0  0  0  0  0  0  0  0
   24.6629  -20.6317   -8.4782 C   0  0  0  0  0  0  0  0  0  0  0  0
   23.9282  -21.2838   -7.5041 C   0  0  0  0  0  0  0  0  0  0  0  0
   22.6262  -21.6133   -7.7053 C   0  0  0  0  0  0  0  0  0  0  0  0
   22.0192  -21.2873   -8.9176 C   0  0  0  0  0  0  0  0  0  0  0  0
   18.4509  -24.3263   -8.3375 C   0  0  0  0  0  0  0  0  0  0  0  0
   17.2416  -24.4204   -8.6479 O   0  0  0  0  0  0  0  0  0  0  0  0
   15.7508  -28.9956   -4.9873 N   0  0  0  0  0  0  0  0  0  0  0  0
   16.6496  -29.0026   -6.0741 C   0  0  0  0  0  0  0  0  0  0  0  0
   17.3806  -30.0317   -6.2112 O   0  0  0  0  0  0  0  0  0  0  0  0
   16.7463  -27.8649   -7.0221 C   0  0  0  0  0  0  0  0  0  0  0  0
   18.1173  -27.2673   -6.9024 C   0  0  0  0  0  0  0  0  0  0  0  0
   18.0177  -25.8489   -6.4539 C   0  0  2  0  0  0  0  0  0  0  0  0
   18.8883  -24.9711   -7.1657 N   0  0  0  0  0  0  0  0  0  0  0  0
   18.2380  -25.6597   -4.9936 C   0  0  0  0  0  0  0  0  0  0  0  0
   19.4066  -25.4467   -4.5989 O   0  0  0  0  0  0  0  0  0  0  0  0
   14.6222  -25.4581   -3.2672 C   0  0  0  0  0  0  0  0  0  0  0  0
   15.1682  -24.7152   -2.0659 C   0  0  2  0  0  0  0  0  0  0  0  0
   14.3051  -23.6177   -1.5695 C   0  0  0  0  0  0  0  0  0  0  0  0
   16.6107  -24.4629   -2.0665 C   0  0  0  0  0  0  0  0  0  0  0  0
   17.5135  -25.4833   -2.6380 C   0  0  2  0  0  0  0  0  0  0  0  0
   17.2185  -25.7065   -4.0431 N   0  0  0  0  0  0  0  0  0  0  0  0
   17.3912  -26.7910   -1.9792 C   0  0  0  0  0  0  0  0  0  0  0  0
   16.9958  -27.9767   -2.5702 O   0  0  0  0  0  0  0  0  0  0  0  0
   17.6610  -26.8975   -0.7280 O   0  0  0  0  0  0  0  0  0  0  0  0
  2  1  1  6
  3  2  1  0
  4  3  1  0
  5  4  2  0
  6  7  1  0
  6  5  1  0
  7 12  2  0
  8  7  1  0
  8  9  2  0
  9 10  1  0
 10 11  2  0
 12  4  1  0
 12 11  1  0
 13  2  1  0
 14 13  2  0
 16 17  2  0
 16 15  1  0
 18 16  1  0
 19 18  1  0
 20 21  1  0
 20 19  1  6
 21 13  1  0
 22 20  1  0
 23 22  2  0
 25 24  1  6
 25 27  1  0
 26 25  1  0
 28 27  1  1
 28 30  1  0
 28 29  1  0
 29 22  1  0
 30 31  1  0
 32 30  2  0
M  END
$$$$
