WQL.pdb
     RDKit          3D

 32 33  0  0  1  0  0  0  0  0999 V2000
   20.8790  -13.2218  -19.2738 N   0  0  0  0  0  0  0  0  0  0  0  0
   19.9397  -12.2899  -18.6377 C   0  0  1  0  0  0  0  0  0  0  0  0
   19.4049  -12.9838  -17.4248 C   0  0  0  0  0  0  0  0  0  0  0  0
   18.7129  -14.2397  -17.6640 C   0  0  0  0  0  0  0  0  0  0  0  0
   19.1431  -15.4622  -17.1469 C   0  0  0  0  0  0  0  0  0  0  0  0
   18.3414  -16.4538  -17.5529 N   0  0  0  0  0  0  0  0  0  0  0  0
   17.3864  -15.8982  -18.3319 C   0  0  0  0  0  0  0  0  0  0  0  0
   16.3094  -16.4245  -18.9996 C   0  0  0  0  0  0  0  0  0  0  0  0
   15.4473  -15.6615  -19.7312 C   0  0  0  0  0  0  0  0  0  0  0  0
   15.6754  -14.2986  -19.7982 C   0  0  0  0  0  0  0  0  0  0  0  0
   16.7272  -13.7275  -19.1567 C   0  0  0  0  0  0  0  0  0  0  0  0
   17.5933  -14.5312  -18.4161 C   0  0  0  0  0  0  0  0  0  0  0  0
   20.5342  -10.9796  -18.4318 C   0  0  0  0  0  0  0  0  0  0  0  0
   21.7382  -10.8252  -18.1249 O   0  0  0  0  0  0  0  0  0  0  0  0
   17.8527   -5.4958  -18.5847 N   0  0  0  0  0  0  0  0  0  0  0  0
   19.2101   -5.1463  -18.7407 C   0  0  0  0  0  0  0  0  0  0  0  0
   19.5086   -3.9192  -18.6076 O   0  0  0  0  0  0  0  0  0  0  0  0
   20.2525   -6.1573  -19.0466 C   0  0  0  0  0  0  0  0  0  0  0  0
   19.5811   -7.4872  -19.2242 C   0  0  0  0  0  0  0  0  0  0  0  0
   20.3003   -8.5304  -18.4385 C   0  0  2  0  0  0  0  0  0  0  0  0
   19.7335   -9.8319  -18.5794 N   0  0  0  0  0  0  0  0  0  0  0  0
   20.4231   -8.2173  -16.9880 C   0  0  0  0  0  0  0  0  0  0  0  0
   19.4427   -8.4623  -16.2495 O   0  0  0  0  0  0  0  0  0  0  0  0
   21.2474  -10.2645  -13.7190 C   0  0  0  0  0  0  0  0  0  0  0  0
   22.5694   -9.8341  -14.3194 C   0  0  2  0  0  0  0  0  0  0  0  0
   23.7384  -10.6344  -13.8850 C   0  0  0  0  0  0  0  0  0  0  0  0
   22.7774   -8.3904  -14.4495 C   0  0  0  0  0  0  0  0  0  0  0  0
   21.6733   -7.5536  -14.9628 C   0  0  2  0  0  0  0  0  0  0  0  0
   21.5659   -7.6679  -16.4073 N   0  0  0  0  0  0  0  0  0  0  0  0
   21.8557   -6.1241  -14.6756 C   0  0  0  0  0  0  0  0  0  0  0  0
   22.0745   -5.1200  -15.6005 O   0  0  0  0  0  0  0  0  0  0  0  0
   21.8234   -5.7134  -13.4591 O   0  0  0  0  0  0  0  0  0  0  0  0
  2  1  1  1
  3  2  1  0
  4  3  1  0
  5  4  2  0
  6  7  1  0
  6  5  1  0
  7 12  2  0
  8  7  1  0
  8  9  2  0
  9 10  1  0
 10 11  2  0
 12  4  1  0
 12 11  1  0
 13  2  1  0
 14 13  2  0
 16 17  2  0
 16 15  1  0
 18 16  1  0
 19 18  1  0
 20 21  1  0
 20 19  1  6
 21 13  1  0
 22 20  1  0
 23 22  2  0
 25 24  1  1
 25 27  1  0
 26 25  1  0
 28 27  1  6
 28 30  1  0
 28 29  1  0
 29 22  1  0
 30 31  1  0
 32 30  2  0
M  END
$$$$
