WRR.pdb
     RDKit          3D

 37 38  0  0  1  0  0  0  0  0999 V2000
   28.5011  -20.7536   -9.2485 N   0  0  0  0  0  0  0  0  0  0  0  0
   27.0954  -20.5716   -9.2098 C   0  0  1  0  0  0  0  0  0  0  0  0
   26.6051  -19.3466   -8.4947 C   0  0  0  0  0  0  0  0  0  0  0  0
   27.3380  -19.0032   -7.2692 C   0  0  0  0  0  0  0  0  0  0  0  0
   28.0774  -17.8770   -6.9735 C   0  0  0  0  0  0  0  0  0  0  0  0
   28.5821  -18.0149   -5.7615 N   0  0  0  0  0  0  0  0  0  0  0  0
   28.2175  -19.2006   -5.2033 C   0  0  0  0  0  0  0  0  0  0  0  0
   28.4926  -19.7703   -3.9812 C   0  0  0  0  0  0  0  0  0  0  0  0
   27.9700  -21.0047   -3.6878 C   0  0  0  0  0  0  0  0  0  0  0  0
   27.1896  -21.6378   -4.6144 C   0  0  0  0  0  0  0  0  0  0  0  0
   26.9089  -21.0806   -5.8344 C   0  0  0  0  0  0  0  0  0  0  0  0
   27.4210  -19.8316   -6.1695 C   0  0  0  0  0  0  0  0  0  0  0  0
   26.4923  -20.5879  -10.5976 C   0  0  0  0  0  0  0  0  0  0  0  0
   26.7719  -19.6639  -11.3902 O   0  0  0  0  0  0  0  0  0  0  0  0
   25.2109  -24.4945  -17.0683 N   0  0  0  0  0  0  0  0  0  0  0  0
   25.7866  -25.3305  -16.0420 C   0  0  0  0  0  0  0  0  0  0  0  0
   26.8824  -25.9561  -16.2509 N   0  0  0  0  0  0  0  0  0  0  0  0
   25.1545  -25.4731  -14.7781 N   0  0  0  0  0  0  0  0  0  0  0  0
   23.9433  -24.7531  -14.4336 C   0  0  0  0  0  0  0  0  0  0  0  0
   24.2394  -23.2973  -14.1312 C   0  0  0  0  0  0  0  0  0  0  0  0
   24.8652  -23.0983  -12.7993 C   0  0  0  0  0  0  0  0  0  0  0  0
   25.0741  -21.7088  -12.3500 C   0  0  2  0  0  0  0  0  0  0  0  0
   25.6167  -21.6374  -11.0079 N   0  0  0  0  0  0  0  0  0  0  0  0
   23.9413  -20.7741  -12.5728 C   0  0  0  0  0  0  0  0  0  0  0  0
   23.0893  -20.6596  -11.6615 O   0  0  0  0  0  0  0  0  0  0  0  0
   27.2766  -26.6184  -15.5630 N   0  0  0  0  0  0  0  0  0  0  0  0
   21.7607  -13.9793  -15.4416 C   0  0  0  0  0  0  0  0  0  0  0  0
   23.1286  -14.2635  -15.7407 N   0  0  0  0  0  0  0  0  0  0  0  0
   24.0461  -13.4318  -15.3973 N   0  0  0  0  0  0  0  0  0  0  0  0
   23.5175  -15.4511  -16.4127 C   0  0  0  0  0  0  0  0  0  0  0  0
   22.6122  -16.5025  -16.7406 C   0  0  0  0  0  0  0  0  0  0  0  0
   22.0176  -17.1967  -15.5069 C   0  0  0  0  0  0  0  0  0  0  0  0
   23.0176  -18.2271  -15.1047 C   0  0  2  0  0  0  0  0  0  0  0  0
   22.6006  -19.0997  -13.9421 N   0  0  0  0  0  0  0  0  0  0  0  0
   23.7519  -20.0018  -13.7417 C   0  0  0  0  0  0  0  0  0  0  0  0
   21.3940  -19.8953  -14.2885 O   0  0  0  0  0  0  0  0  0  0  0  0
   21.4977  -21.1033  -14.9632 O   0  0  0  0  0  0  0  0  0  0  0  0
  2  1  1  6
  2  3  1  0
  3  4  1  0
  4 12  1  0
  4  5  2  0
  5  6  1  0
  7  6  1  0
  7  8  2  0
  9  8  1  0
 10  9  2  0
 11 12  2  0
 11 10  1  0
 12  7  1  0
 13  2  1  0
 14 13  2  0
 15 16  1  0
 16 18  1  0
 17 16  2  0
 18 19  1  0
 19 20  1  0
 20 21  1  0
 22 21  1  1
 22 24  1  0
 22 23  1  0
 23 13  1  0
 24 34  1  0
 25 24  2  0
 27 29  1  0
 27 26  1  0
 28 27  2  0
 30 31  1  0
 30 29  1  0
 32 31  1  0
 33 32  1  1
 34 33  1  0
 35 36  1  0
 35 33  1  0
 37 35  2  0
M  END
$$$$
