WRR.pdb
     RDKit          3D

 37 38  0  0  1  0  0  0  0  0999 V2000
   17.7448  -15.5721    1.9396 N   0  0  0  0  0  0  0  0  0  0  0  0
   18.1940  -15.8215    3.2612 C   0  0  1  0  0  0  0  0  0  0  0  0
   17.5426  -15.0145    4.3460 C   0  0  0  0  0  0  0  0  0  0  0  0
   18.2422  -13.7750    4.7083 C   0  0  0  0  0  0  0  0  0  0  0  0
   18.0850  -12.4988    4.2092 C   0  0  0  0  0  0  0  0  0  0  0  0
   18.9504  -11.7048    4.8122 N   0  0  0  0  0  0  0  0  0  0  0  0
   19.7048  -12.3869    5.7154 C   0  0  0  0  0  0  0  0  0  0  0  0
   20.7108  -11.9903    6.5665 C   0  0  0  0  0  0  0  0  0  0  0  0
   21.2975  -12.9217    7.3858 C   0  0  0  0  0  0  0  0  0  0  0  0
   20.8691  -14.2189    7.3377 C   0  0  0  0  0  0  0  0  0  0  0  0
   19.8684  -14.6255    6.4945 C   0  0  0  0  0  0  0  0  0  0  0  0
   19.2499  -13.7115    5.6480 C   0  0  0  0  0  0  0  0  0  0  0  0
   18.0800  -17.2867    3.6220 C   0  0  0  0  0  0  0  0  0  0  0  0
   17.2535  -17.9978    3.0128 O   0  0  0  0  0  0  0  0  0  0  0  0
   21.9076  -24.1775    3.8604 N   0  0  0  0  0  0  0  0  0  0  0  0
   20.9989  -24.4455    4.9496 C   0  0  0  0  0  0  0  0  0  0  0  0
   20.6602  -25.6455    5.2344 N   0  0  0  0  0  0  0  0  0  0  0  0
   20.4658  -23.3864    5.7317 N   0  0  0  0  0  0  0  0  0  0  0  0
   20.5637  -21.9982    5.3229 C   0  0  0  0  0  0  0  0  0  0  0  0
   19.9477  -21.0780    6.3584 C   0  0  0  0  0  0  0  0  0  0  0  0
   19.9126  -19.6584    5.9237 C   0  0  0  0  0  0  0  0  0  0  0  0
   18.8990  -19.2825    4.9199 C   0  0  2  0  0  0  0  0  0  0  0  0
   18.8989  -17.8603    4.6403 N   0  0  0  0  0  0  0  0  0  0  0  0
   17.5369  -19.8369    5.1292 C   0  0  0  0  0  0  0  0  0  0  0  0
   16.8906  -19.4405    6.1265 O   0  0  0  0  0  0  0  0  0  0  0  0
   19.9696  -25.8610    5.9718 N   0  0  0  0  0  0  0  0  0  0  0  0
   12.3925  -24.7122   -0.3037 C   0  0  0  0  0  0  0  0  0  0  0  0
   11.7033  -24.3361    0.8900 N   0  0  0  0  0  0  0  0  0  0  0  0
   10.4218  -24.2391    0.8871 N   0  0  0  0  0  0  0  0  0  0  0  0
   12.3935  -24.0630    2.0993 C   0  0  0  0  0  0  0  0  0  0  0  0
   13.6616  -23.4135    2.1525 C   0  0  0  0  0  0  0  0  0  0  0  0
   14.2083  -23.2682    3.5799 C   0  0  0  0  0  0  0  0  0  0  0  0
   15.4197  -22.4070    3.4604 C   0  0  1  0  0  0  0  0  0  0  0  0
   15.6460  -21.4618    4.6190 N   0  0  0  0  0  0  0  0  0  0  0  0
   16.9136  -20.7833    4.2839 C   0  0  0  0  0  0  0  0  0  0  0  0
   15.8012  -22.2162    5.8900 O   0  0  0  0  0  0  0  0  0  0  0  0
   16.9531  -22.9408    6.1607 O   0  0  0  0  0  0  0  0  0  0  0  0
  2  1  1  6
  2  3  1  0
  3  4  1  0
  4 12  1  0
  4  5  2  0
  5  6  1  0
  7  6  1  0
  7  8  2  0
  9  8  1  0
 10  9  2  0
 11 12  2  0
 11 10  1  0
 12  7  1  0
 13  2  1  0
 14 13  2  0
 15 16  1  0
 16 18  1  0
 17 16  2  0
 18 19  1  0
 19 20  1  0
 20 21  1  0
 22 21  1  1
 22 24  1  0
 22 23  1  0
 23 13  1  0
 24 34  1  0
 25 24  2  0
 27 29  1  0
 27 26  1  0
 28 27  2  0
 30 31  1  0
 30 29  1  0
 32 31  1  0
 33 32  1  6
 34 33  1  0
 35 36  1  0
 35 33  1  0
 37 35  2  0
M  END
$$$$
