WRR.pdb
     RDKit          3D

 37 38  0  0  1  0  0  0  0  0999 V2000
   25.4590  -18.6903   -8.5965 N   0  0  0  0  0  0  0  0  0  0  0  0
   26.1853  -19.7948   -9.1098 C   0  0  1  0  0  0  0  0  0  0  0  0
   26.1254  -21.0595   -8.3041 C   0  0  0  0  0  0  0  0  0  0  0  0
   26.3887  -20.8986   -6.8682 C   0  0  0  0  0  0  0  0  0  0  0  0
   25.5219  -20.9931   -5.7995 C   0  0  0  0  0  0  0  0  0  0  0  0
   26.1953  -20.7429   -4.6919 N   0  0  0  0  0  0  0  0  0  0  0  0
   27.5032  -20.4777   -4.9548 C   0  0  0  0  0  0  0  0  0  0  0  0
   28.5668  -20.1716   -4.1370 C   0  0  0  0  0  0  0  0  0  0  0  0
   29.7998  -19.9552   -4.6989 C   0  0  0  0  0  0  0  0  0  0  0  0
   29.9424  -20.0490   -6.0551 C   0  0  0  0  0  0  0  0  0  0  0  0
   28.8908  -20.3531   -6.8795 C   0  0  0  0  0  0  0  0  0  0  0  0
   27.6253  -20.5782   -6.3480 C   0  0  0  0  0  0  0  0  0  0  0  0
   25.7815  -20.1153  -10.5325 C   0  0  0  0  0  0  0  0  0  0  0  0
   24.5885  -19.9667  -10.8714 O   0  0  0  0  0  0  0  0  0  0  0  0
   28.1292  -18.1404  -17.0740 N   0  0  0  0  0  0  0  0  0  0  0  0
   28.3331  -19.3029  -17.9052 C   0  0  0  0  0  0  0  0  0  0  0  0
   28.1556  -19.2379  -19.1702 N   0  0  0  0  0  0  0  0  0  0  0  0
   28.7397  -20.5410  -17.3402 N   0  0  0  0  0  0  0  0  0  0  0  0
   28.9008  -20.7225  -15.9101 C   0  0  0  0  0  0  0  0  0  0  0  0
   27.5918  -20.4978  -15.1790 C   0  0  0  0  0  0  0  0  0  0  0  0
   27.7192  -20.6406  -13.7064 C   0  0  0  0  0  0  0  0  0  0  0  0
   26.4804  -20.5652  -12.9090 C   0  0  2  0  0  0  0  0  0  0  0  0
   26.7391  -20.5802  -11.4829 N   0  0  0  0  0  0  0  0  0  0  0  0
   25.3869  -21.4853  -13.3143 C   0  0  0  0  0  0  0  0  0  0  0  0
   25.2416  -22.5447  -12.6615 O   0  0  0  0  0  0  0  0  0  0  0  0
   28.2148  -20.0719  -19.7768 N   0  0  0  0  0  0  0  0  0  0  0  0
   18.0931  -22.4497  -12.7822 C   0  0  0  0  0  0  0  0  0  0  0  0
   18.5684  -22.5080  -11.4361 N   0  0  0  0  0  0  0  0  0  0  0  0
   17.9349  -23.2055  -10.5621 N   0  0  0  0  0  0  0  0  0  0  0  0
   19.7347  -21.8137  -11.0225 C   0  0  0  0  0  0  0  0  0  0  0  0
   20.4817  -20.9508  -11.8769 C   0  0  0  0  0  0  0  0  0  0  0  0
   20.9913  -21.6481  -13.1465 C   0  0  0  0  0  0  0  0  0  0  0  0
   22.4402  -21.3080  -13.2376 C   0  0  1  0  0  0  0  0  0  0  0  0
   23.1448  -21.8458  -14.4628 N   0  0  0  0  0  0  0  0  0  0  0  0
   24.4952  -21.2540  -14.3867 C   0  0  0  0  0  0  0  0  0  0  0  0
   22.4655  -21.3882  -15.7029 O   0  0  0  0  0  0  0  0  0  0  0  0
   21.3728  -22.0703  -16.2185 O   0  0  0  0  0  0  0  0  0  0  0  0
  2  1  1  1
  2  3  1  0
  3  4  1  0
  4 12  1  0
  4  5  2  0
  5  6  1  0
  7  6  1  0
  7  8  2  0
  9  8  1  0
 10  9  2  0
 11 12  2  0
 11 10  1  0
 12  7  1  0
 13  2  1  0
 14 13  2  0
 15 16  1  0
 16 18  1  0
 17 16  2  0
 18 19  1  0
 19 20  1  0
 20 21  1  0
 22 21  1  6
 22 24  1  0
 22 23  1  0
 23 13  1  0
 24 34  1  0
 25 24  2  0
 27 29  1  0
 27 26  1  0
 28 27  2  0
 30 31  1  0
 30 29  1  0
 32 31  1  0
 33 32  1  1
 34 33  1  0
 35 36  1  0
 35 33  1  0
 37 35  2  0
M  END
$$$$
