WRR.pdb
     RDKit          3D

 37 38  0  0  1  0  0  0  0  0999 V2000
   27.1895  -21.7212  -15.7745 N   0  0  0  0  0  0  0  0  0  0  0  0
   26.4369  -22.0139  -14.6089 C   0  0  1  0  0  0  0  0  0  0  0  0
   26.2575  -20.8859  -13.6352 C   0  0  0  0  0  0  0  0  0  0  0  0
   27.5014  -20.2635  -13.1640 C   0  0  0  0  0  0  0  0  0  0  0  0
   28.2479  -19.2519  -13.7312 C   0  0  0  0  0  0  0  0  0  0  0  0
   29.3060  -19.0370  -12.9715 N   0  0  0  0  0  0  0  0  0  0  0  0
   29.3202  -19.8661  -11.8933 C   0  0  0  0  0  0  0  0  0  0  0  0
   30.2014  -20.0048  -10.8454 C   0  0  0  0  0  0  0  0  0  0  0  0
   29.9462  -20.9449   -9.8791 C   0  0  0  0  0  0  0  0  0  0  0  0
   28.8246  -21.7197   -9.9796 C   0  0  0  0  0  0  0  0  0  0  0  0
   27.9399  -21.5908  -11.0182 C   0  0  0  0  0  0  0  0  0  0  0  0
   28.1643  -20.6500  -12.0178 C   0  0  0  0  0  0  0  0  0  0  0  0
   25.0722  -22.5710  -14.9511 C   0  0  0  0  0  0  0  0  0  0  0  0
   24.1830  -21.7910  -15.3522 O   0  0  0  0  0  0  0  0  0  0  0  0
   27.2967  -27.9886  -18.0710 N   0  0  0  0  0  0  0  0  0  0  0  0
   26.4508  -28.5755  -17.0592 C   0  0  0  0  0  0  0  0  0  0  0  0
   26.9195  -29.4379  -16.2391 N   0  0  0  0  0  0  0  0  0  0  0  0
   25.0839  -28.2062  -16.9475 N   0  0  0  0  0  0  0  0  0  0  0  0
   24.4976  -27.1569  -17.7595 C   0  0  0  0  0  0  0  0  0  0  0  0
   24.5151  -25.8272  -17.0316 C   0  0  0  0  0  0  0  0  0  0  0  0
   23.5775  -25.7847  -15.8808 C   0  0  0  0  0  0  0  0  0  0  0  0
   23.4885  -24.5203  -15.1262 C   0  0  2  0  0  0  0  0  0  0  0  0
   24.7923  -23.9645  -14.8230 N   0  0  0  0  0  0  0  0  0  0  0  0
   22.5677  -24.5199  -13.9606 C   0  0  0  0  0  0  0  0  0  0  0  0
   22.6274  -23.5515  -13.1680 O   0  0  0  0  0  0  0  0  0  0  0  0
   26.3644  -29.8013  -15.4473 N   0  0  0  0  0  0  0  0  0  0  0  0
   15.5779  -21.1373  -13.6429 C   0  0  0  0  0  0  0  0  0  0  0  0
   16.0138  -21.2650  -12.2882 N   0  0  0  0  0  0  0  0  0  0  0  0
   15.5392  -20.4829  -11.3856 N   0  0  0  0  0  0  0  0  0  0  0  0
   16.9661  -22.2411  -11.8964 C   0  0  0  0  0  0  0  0  0  0  0  0
   17.6525  -23.0855  -12.8175 C   0  0  0  0  0  0  0  0  0  0  0  0
   18.5113  -24.1580  -12.1319 C   0  0  0  0  0  0  0  0  0  0  0  0
   19.6657  -24.3930  -13.0460 C   0  0  1  0  0  0  0  0  0  0  0  0
   20.6427  -25.4490  -12.5796 N   0  0  0  0  0  0  0  0  0  0  0  0
   21.6259  -25.5355  -13.6773 C   0  0  0  0  0  0  0  0  0  0  0  0
   19.9605  -26.7587  -12.4122 O   0  0  0  0  0  0  0  0  0  0  0  0
   19.6460  -27.2507  -11.1536 O   0  0  0  0  0  0  0  0  0  0  0  0
  2  1  1  6
  2  3  1  0
  3  4  1  0
  4 12  1  0
  4  5  2  0
  5  6  1  0
  7  6  1  0
  7  8  2  0
  9  8  1  0
 10  9  2  0
 11 12  2  0
 11 10  1  0
 12  7  1  0
 13  2  1  0
 14 13  2  0
 15 16  1  0
 16 18  1  0
 17 16  2  0
 18 19  1  0
 19 20  1  0
 20 21  1  0
 22 21  1  1
 22 24  1  0
 22 23  1  0
 23 13  1  0
 24 34  1  0
 25 24  2  0
 27 29  1  0
 27 26  1  0
 28 27  2  0
 30 31  1  0
 30 29  1  0
 32 31  1  0
 33 32  1  1
 34 33  1  0
 35 36  1  0
 35 33  1  0
 37 35  2  0
M  END
$$$$
