WRR.pdb
     RDKit          3D

 37 38  0  0  1  0  0  0  0  0999 V2000
   26.8239  -16.8862  -19.1740 N   0  0  0  0  0  0  0  0  0  0  0  0
   26.4083  -16.4878  -17.8781 C   0  0  1  0  0  0  0  0  0  0  0  0
   25.3447  -15.4306  -17.8190 C   0  0  0  0  0  0  0  0  0  0  0  0
   25.7368  -14.1193  -18.3515 C   0  0  0  0  0  0  0  0  0  0  0  0
   25.2521  -13.4344  -19.4461 C   0  0  0  0  0  0  0  0  0  0  0  0
   25.9239  -12.3039  -19.5628 N   0  0  0  0  0  0  0  0  0  0  0  0
   26.8606  -12.1794  -18.5844 C   0  0  0  0  0  0  0  0  0  0  0  0
   27.7763  -11.1918  -18.3017 C   0  0  0  0  0  0  0  0  0  0  0  0
   28.6073  -11.3422  -17.2202 C   0  0  0  0  0  0  0  0  0  0  0  0
   28.5058  -12.4671  -16.4503 C   0  0  0  0  0  0  0  0  0  0  0  0
   27.5980  -13.4570  -16.7218 C   0  0  0  0  0  0  0  0  0  0  0  0
   26.7391  -13.3418  -17.8098 C   0  0  0  0  0  0  0  0  0  0  0  0
   25.9533  -17.6699  -17.0502 C   0  0  0  0  0  0  0  0  0  0  0  0
   25.3436  -18.6040  -17.6123 O   0  0  0  0  0  0  0  0  0  0  0  0
   26.4377  -22.5246  -11.0494 N   0  0  0  0  0  0  0  0  0  0  0  0
   25.7095  -21.6762  -10.1363 C   0  0  0  0  0  0  0  0  0  0  0  0
   24.8207  -22.1680   -9.3591 N   0  0  0  0  0  0  0  0  0  0  0  0
   25.9661  -20.2805  -10.0759 N   0  0  0  0  0  0  0  0  0  0  0  0
   26.6543  -19.5740  -11.1395 C   0  0  0  0  0  0  0  0  0  0  0  0
   25.9009  -19.6895  -12.4501 C   0  0  0  0  0  0  0  0  0  0  0  0
   26.5299  -18.9146  -13.5497 C   0  0  0  0  0  0  0  0  0  0  0  0
   25.8140  -18.8649  -14.8386 C   0  0  2  0  0  0  0  0  0  0  0  0
   26.2109  -17.7298  -15.6479 N   0  0  0  0  0  0  0  0  0  0  0  0
   24.3416  -19.0504  -14.7744 C   0  0  0  0  0  0  0  0  0  0  0  0
   23.6338  -18.0410  -14.5512 O   0  0  0  0  0  0  0  0  0  0  0  0
   24.2389  -21.5750   -8.7452 N   0  0  0  0  0  0  0  0  0  0  0  0
   20.1486  -26.8154  -15.3236 C   0  0  0  0  0  0  0  0  0  0  0  0
   19.1135  -25.9208  -14.9116 N   0  0  0  0  0  0  0  0  0  0  0  0
   17.9179  -26.3594  -14.7396 N   0  0  0  0  0  0  0  0  0  0  0  0
   19.3621  -24.5431  -14.6801 C   0  0  0  0  0  0  0  0  0  0  0  0
   20.6375  -23.9322  -14.8603 C   0  0  0  0  0  0  0  0  0  0  0  0
   20.6244  -22.4174  -14.6099 C   0  0  0  0  0  0  0  0  0  0  0  0
   22.0125  -21.9515  -14.8921 C   0  0  1  0  0  0  0  0  0  0  0  0
   22.2227  -20.4597  -14.7604 N   0  0  0  0  0  0  0  0  0  0  0  0
   23.6770  -20.2863  -14.9461 C   0  0  0  0  0  0  0  0  0  0  0  0
   21.8302  -19.9912  -13.4057 O   0  0  0  0  0  0  0  0  0  0  0  0
   20.5812  -19.4348  -13.1705 O   0  0  0  0  0  0  0  0  0  0  0  0
  2  1  1  6
  2  3  1  0
  3  4  1  0
  4 12  1  0
  4  5  2  0
  5  6  1  0
  7  6  1  0
  7  8  2  0
  9  8  1  0
 10  9  2  0
 11 12  2  0
 11 10  1  0
 12  7  1  0
 13  2  1  0
 14 13  2  0
 15 16  1  0
 16 18  1  0
 17 16  2  0
 18 19  1  0
 19 20  1  0
 20 21  1  0
 22 21  1  1
 22 24  1  0
 22 23  1  0
 23 13  1  0
 24 34  1  0
 25 24  2  0
 27 29  1  0
 27 26  1  0
 28 27  2  0
 30 31  1  0
 30 29  1  0
 32 31  1  0
 33 32  1  6
 34 33  1  0
 35 36  1  0
 35 33  1  0
 37 35  2  0
M  END
$$$$
