WRR.pdb
     RDKit          3D

 37 38  0  0  1  0  0  0  0  0999 V2000
   24.4341  -19.7366   -8.4381 N   0  0  0  0  0  0  0  0  0  0  0  0
   25.6901  -20.0573   -9.0128 C   0  0  1  0  0  0  0  0  0  0  0  0
   26.4190  -21.2204   -8.4060 C   0  0  0  0  0  0  0  0  0  0  0  0
   26.7316  -21.0853   -6.9773 C   0  0  0  0  0  0  0  0  0  0  0  0
   25.9570  -21.3838   -5.8759 C   0  0  0  0  0  0  0  0  0  0  0  0
   26.6383  -21.0722   -4.7890 N   0  0  0  0  0  0  0  0  0  0  0  0
   27.8628  -20.5668   -5.0980 C   0  0  0  0  0  0  0  0  0  0  0  0
   28.9015  -20.1171   -4.3153 C   0  0  0  0  0  0  0  0  0  0  0  0
   30.0438  -19.6585   -4.9217 C   0  0  0  0  0  0  0  0  0  0  0  0
   30.1230  -19.6596   -6.2863 C   0  0  0  0  0  0  0  0  0  0  0  0
   29.0954  -20.1048   -7.0760 C   0  0  0  0  0  0  0  0  0  0  0  0
   27.9210  -20.5763   -6.4989 C   0  0  0  0  0  0  0  0  0  0  0  0
   25.5783  -20.2892  -10.5040 C   0  0  0  0  0  0  0  0  0  0  0  0
   24.4628  -20.5687  -10.9914 O   0  0  0  0  0  0  0  0  0  0  0  0
   27.7046  -17.7850  -18.5512 N   0  0  0  0  0  0  0  0  0  0  0  0
   28.7402  -18.1921  -17.6316 C   0  0  0  0  0  0  0  0  0  0  0  0
   29.6147  -19.0587  -17.9782 N   0  0  0  0  0  0  0  0  0  0  0  0
   28.8153  -17.6376  -16.3261 N   0  0  0  0  0  0  0  0  0  0  0  0
   27.8326  -17.9358  -15.3016 C   0  0  0  0  0  0  0  0  0  0  0  0
   27.9262  -19.3825  -14.8581 C   0  0  0  0  0  0  0  0  0  0  0  0
   27.8889  -19.5390  -13.3818 C   0  0  0  0  0  0  0  0  0  0  0  0
   26.6074  -19.9478  -12.7763 C   0  0  2  0  0  0  0  0  0  0  0  0
   26.7219  -20.1922  -11.3522 N   0  0  0  0  0  0  0  0  0  0  0  0
   25.8570  -21.0107  -13.4931 C   0  0  0  0  0  0  0  0  0  0  0  0
   26.0298  -22.1966  -13.1280 O   0  0  0  0  0  0  0  0  0  0  0  0
   30.3730  -19.3581  -17.3438 N   0  0  0  0  0  0  0  0  0  0  0  0
   18.2867  -22.5157  -11.6841 C   0  0  0  0  0  0  0  0  0  0  0  0
   19.1091  -23.6420  -11.9948 N   0  0  0  0  0  0  0  0  0  0  0  0
   18.9759  -24.7353  -11.3326 N   0  0  0  0  0  0  0  0  0  0  0  0
   20.0826  -23.5971  -13.0261 C   0  0  0  0  0  0  0  0  0  0  0  0
   20.6080  -22.3843  -13.5605 C   0  0  0  0  0  0  0  0  0  0  0  0
   21.7013  -22.6103  -14.6146 C   0  0  0  0  0  0  0  0  0  0  0  0
   22.8542  -21.7679  -14.1846 C   0  0  1  0  0  0  0  0  0  0  0  0
   24.0569  -21.8194  -15.0998 N   0  0  0  0  0  0  0  0  0  0  0  0
   24.9598  -20.7828  -14.5616 C   0  0  0  0  0  0  0  0  0  0  0  0
   23.6719  -21.4752  -16.4934 O   0  0  0  0  0  0  0  0  0  0  0  0
   23.2255  -22.4469  -17.3775 O   0  0  0  0  0  0  0  0  0  0  0  0
  2  1  1  1
  2  3  1  0
  3  4  1  0
  4 12  1  0
  4  5  2  0
  5  6  1  0
  7  6  1  0
  7  8  2  0
  9  8  1  0
 10  9  2  0
 11 12  2  0
 11 10  1  0
 12  7  1  0
 13  2  1  0
 14 13  2  0
 15 16  1  0
 16 18  1  0
 17 16  2  0
 18 19  1  0
 19 20  1  0
 20 21  1  0
 22 21  1  6
 22 24  1  0
 22 23  1  0
 23 13  1  0
 24 34  1  0
 25 24  2  0
 27 29  1  0
 27 26  1  0
 28 27  2  0
 30 31  1  0
 30 29  1  0
 32 31  1  0
 33 32  1  1
 34 33  1  0
 35 36  1  0
 35 33  1  0
 37 35  2  0
M  END
$$$$
