WRR.pdb
     RDKit          3D

 37 38  0  0  1  0  0  0  0  0999 V2000
   28.0913  -19.6419  -10.5411 N   0  0  0  0  0  0  0  0  0  0  0  0
   27.1323  -20.6859  -10.5077 C   0  0  1  0  0  0  0  0  0  0  0  0
   26.4006  -20.8726   -9.2107 C   0  0  0  0  0  0  0  0  0  0  0  0
   27.1506  -20.4852   -8.0089 C   0  0  0  0  0  0  0  0  0  0  0  0
   26.7971  -19.6230   -6.9920 C   0  0  0  0  0  0  0  0  0  0  0  0
   27.7976  -19.5572   -6.1333 N   0  0  0  0  0  0  0  0  0  0  0  0
   28.8363  -20.3461   -6.5191 C   0  0  0  0  0  0  0  0  0  0  0  0
   30.0651  -20.5985   -5.9535 C   0  0  0  0  0  0  0  0  0  0  0  0
   30.9237  -21.4648   -6.5822 C   0  0  0  0  0  0  0  0  0  0  0  0
   30.5386  -22.0558   -7.7531 C   0  0  0  0  0  0  0  0  0  0  0  0
   29.3178  -21.8122   -8.3258 C   0  0  0  0  0  0  0  0  0  0  0  0
   28.4203  -20.9396   -7.7195 C   0  0  0  0  0  0  0  0  0  0  0  0
   26.1115  -20.5414  -11.6154 C   0  0  0  0  0  0  0  0  0  0  0  0
   25.4656  -19.4763  -11.7084 O   0  0  0  0  0  0  0  0  0  0  0  0
   24.6148  -19.3058  -19.5321 N   0  0  0  0  0  0  0  0  0  0  0  0
   23.4108  -19.4055  -18.7421 C   0  0  0  0  0  0  0  0  0  0  0  0
   22.2656  -19.1956  -19.2715 N   0  0  0  0  0  0  0  0  0  0  0  0
   23.4691  -19.7435  -17.3637 N   0  0  0  0  0  0  0  0  0  0  0  0
   24.7265  -19.8799  -16.6535 C   0  0  0  0  0  0  0  0  0  0  0  0
   24.9561  -21.3137  -16.2177 C   0  0  0  0  0  0  0  0  0  0  0  0
   25.7505  -21.4186  -14.9674 C   0  0  0  0  0  0  0  0  0  0  0  0
   25.0079  -21.4383  -13.6929 C   0  0  2  0  0  0  0  0  0  0  0  0
   25.8808  -21.5976  -12.5469 N   0  0  0  0  0  0  0  0  0  0  0  0
   23.8154  -22.3229  -13.6466 C   0  0  0  0  0  0  0  0  0  0  0  0
   23.9553  -23.5133  -14.0109 O   0  0  0  0  0  0  0  0  0  0  0  0
   21.3857  -19.3196  -18.7446 N   0  0  0  0  0  0  0  0  0  0  0  0
   17.6363  -23.3491   -8.4319 C   0  0  0  0  0  0  0  0  0  0  0  0
   18.3900  -24.3964   -9.0454 N   0  0  0  0  0  0  0  0  0  0  0  0
   17.8089  -25.4921   -9.3820 N   0  0  0  0  0  0  0  0  0  0  0  0
   19.7795  -24.2680   -9.3023 C   0  0  0  0  0  0  0  0  0  0  0  0
   20.3322  -23.2777  -10.1662 C   0  0  0  0  0  0  0  0  0  0  0  0
   19.5949  -23.1650  -11.5083 C   0  0  0  0  0  0  0  0  0  0  0  0
   20.3720  -22.1782  -12.3120 C   0  0  2  0  0  0  0  0  0  0  0  0
   21.3361  -22.7850  -13.3066 N   0  0  0  0  0  0  0  0  0  0  0  0
   22.5289  -21.9194  -13.2212 C   0  0  0  0  0  0  0  0  0  0  0  0
   20.7749  -22.7322  -14.6817 O   0  0  0  0  0  0  0  0  0  0  0  0
   20.4900  -21.5216  -15.2967 O   0  0  0  0  0  0  0  0  0  0  0  0
  2  1  1  1
  2  3  1  0
  3  4  1  0
  4 12  1  0
  4  5  2  0
  5  6  1  0
  7  6  1  0
  7  8  2  0
  9  8  1  0
 10  9  2  0
 11 12  2  0
 11 10  1  0
 12  7  1  0
 13  2  1  0
 14 13  2  0
 15 16  1  0
 16 18  1  0
 17 16  2  0
 18 19  1  0
 19 20  1  0
 20 21  1  0
 22 21  1  6
 22 24  1  0
 22 23  1  0
 23 13  1  0
 24 34  1  0
 25 24  2  0
 27 29  1  0
 27 26  1  0
 28 27  2  0
 30 31  1  0
 30 29  1  0
 32 31  1  0
 33 32  1  1
 34 33  1  0
 35 36  1  0
 35 33  1  0
 37 35  2  0
M  END
$$$$
