WRR.pdb
     RDKit          3D

 37 38  0  0  1  0  0  0  0  0999 V2000
   27.8938  -22.5777  -10.2772 N   0  0  0  0  0  0  0  0  0  0  0  0
   27.0785  -21.5169   -9.8073 C   0  0  1  0  0  0  0  0  0  0  0  0
   27.7778  -20.2201   -9.5214 C   0  0  0  0  0  0  0  0  0  0  0  0
   28.8148  -20.2850   -8.4835 C   0  0  0  0  0  0  0  0  0  0  0  0
   30.1016  -20.7761   -8.5561 C   0  0  0  0  0  0  0  0  0  0  0  0
   30.6625  -20.6557   -7.3671 N   0  0  0  0  0  0  0  0  0  0  0  0
   29.8078  -20.0962   -6.4689 C   0  0  0  0  0  0  0  0  0  0  0  0
   29.9450  -19.7771   -5.1373 C   0  0  0  0  0  0  0  0  0  0  0  0
   28.8882  -19.2032   -4.4765 C   0  0  0  0  0  0  0  0  0  0  0  0
   27.7265  -18.9620   -5.1553 C   0  0  0  0  0  0  0  0  0  0  0  0
   27.5782  -19.2753   -6.4811 C   0  0  0  0  0  0  0  0  0  0  0  0
   28.6260  -19.8591   -7.1852 C   0  0  0  0  0  0  0  0  0  0  0  0
   25.9257  -21.2407  -10.7478 C   0  0  0  0  0  0  0  0  0  0  0  0
   26.0938  -21.4006  -11.9751 O   0  0  0  0  0  0  0  0  0  0  0  0
   18.7123  -22.5600  -12.0972 N   0  0  0  0  0  0  0  0  0  0  0  0
   18.2959  -21.1796  -12.1675 C   0  0  0  0  0  0  0  0  0  0  0  0
   17.6821  -20.7366  -13.1985 N   0  0  0  0  0  0  0  0  0  0  0  0
   18.5525  -20.2851  -11.0944 N   0  0  0  0  0  0  0  0  0  0  0  0
   19.7546  -20.3704  -10.2872 C   0  0  0  0  0  0  0  0  0  0  0  0
   20.9970  -20.3880  -11.1558 C   0  0  0  0  0  0  0  0  0  0  0  0
   22.2519  -20.4958  -10.3692 C   0  0  0  0  0  0  0  0  0  0  0  0
   23.5144  -20.6208  -11.1219 C   0  0  2  0  0  0  0  0  0  0  0  0
   24.6601  -20.8044  -10.2533 N   0  0  0  0  0  0  0  0  0  0  0  0
   23.7431  -19.6082  -12.1845 C   0  0  0  0  0  0  0  0  0  0  0  0
   24.3539  -18.5599  -11.8722 O   0  0  0  0  0  0  0  0  0  0  0  0
   17.3448  -19.7621  -13.2604 N   0  0  0  0  0  0  0  0  0  0  0  0
   26.8434  -18.1733  -18.1127 C   0  0  0  0  0  0  0  0  0  0  0  0
   28.1924  -18.1286  -17.6439 N   0  0  0  0  0  0  0  0  0  0  0  0
   29.1077  -17.5993  -18.3742 N   0  0  0  0  0  0  0  0  0  0  0  0
   28.5640  -18.6548  -16.3796 C   0  0  0  0  0  0  0  0  0  0  0  0
   27.6295  -19.1821  -15.4409 C   0  0  0  0  0  0  0  0  0  0  0  0
   26.1787  -18.7757  -15.7367 C   0  0  0  0  0  0  0  0  0  0  0  0
   25.3648  -19.3589  -14.6318 C   0  0  1  0  0  0  0  0  0  0  0  0
   23.9039  -18.9682  -14.6423 N   0  0  0  0  0  0  0  0  0  0  0  0
   23.3201  -19.7396  -13.5271 C   0  0  0  0  0  0  0  0  0  0  0  0
   23.2616  -19.3700  -15.9209 O   0  0  0  0  0  0  0  0  0  0  0  0
   23.0405  -20.7052  -16.2267 O   0  0  0  0  0  0  0  0  0  0  0  0
  2  1  1  6
  2  3  1  0
  3  4  1  0
  4 12  1  0
  4  5  2  0
  5  6  1  0
  7  6  1  0
  7  8  2  0
  9  8  1  0
 10  9  2  0
 11 12  2  0
 11 10  1  0
 12  7  1  0
 13  2  1  0
 14 13  2  0
 15 16  1  0
 16 18  1  0
 17 16  2  0
 18 19  1  0
 19 20  1  0
 20 21  1  0
 22 21  1  1
 22 24  1  0
 22 23  1  0
 23 13  1  0
 24 34  1  0
 25 24  2  0
 27 29  1  0
 27 26  1  0
 28 27  2  0
 30 31  1  0
 30 29  1  0
 32 31  1  0
 33 32  1  1
 34 33  1  0
 35 36  1  0
 35 33  1  0
 37 35  2  0
M  END
$$$$
