WRR.pdb
     RDKit          3D

 37 38  0  0  1  0  0  0  0  0999 V2000
   27.1354  -19.7994  -17.4836 N   0  0  0  0  0  0  0  0  0  0  0  0
   27.5188  -19.2158  -16.2494 C   0  0  1  0  0  0  0  0  0  0  0  0
   26.9959  -17.8354  -15.9782 C   0  0  0  0  0  0  0  0  0  0  0  0
   27.2712  -16.8457  -17.0278 C   0  0  0  0  0  0  0  0  0  0  0  0
   26.3928  -16.0857  -17.7716 C   0  0  0  0  0  0  0  0  0  0  0  0
   27.0894  -15.3533  -18.6208 N   0  0  0  0  0  0  0  0  0  0  0  0
   28.4247  -15.5784  -18.4920 C   0  0  0  0  0  0  0  0  0  0  0  0
   29.5174  -15.0547  -19.1442 C   0  0  0  0  0  0  0  0  0  0  0  0
   30.7731  -15.4780  -18.7878 C   0  0  0  0  0  0  0  0  0  0  0  0
   30.9087  -16.4077  -17.7950 C   0  0  0  0  0  0  0  0  0  0  0  0
   29.8282  -16.9362  -17.1385 C   0  0  0  0  0  0  0  0  0  0  0  0
   28.5392  -16.5334  -17.4718 C   0  0  0  0  0  0  0  0  0  0  0  0
   27.1577  -20.1021  -15.0772 C   0  0  0  0  0  0  0  0  0  0  0  0
   26.0588  -20.6958  -15.0829 O   0  0  0  0  0  0  0  0  0  0  0  0
   33.2240  -22.3428   -9.6029 N   0  0  0  0  0  0  0  0  0  0  0  0
   32.6740  -22.8174  -10.8503 C   0  0  0  0  0  0  0  0  0  0  0  0
   33.1762  -23.8369  -11.4371 N   0  0  0  0  0  0  0  0  0  0  0  0
   31.5622  -22.1687  -11.4507 N   0  0  0  0  0  0  0  0  0  0  0  0
   31.1002  -20.8645  -11.0152 C   0  0  0  0  0  0  0  0  0  0  0  0
   29.9553  -20.3730  -11.8789 C   0  0  0  0  0  0  0  0  0  0  0  0
   28.8155  -21.3239  -11.9255 C   0  0  0  0  0  0  0  0  0  0  0  0
   27.6578  -20.9529  -12.7610 C   0  0  2  0  0  0  0  0  0  0  0  0
   28.0502  -20.2666  -13.9759 N   0  0  0  0  0  0  0  0  0  0  0  0
   26.5292  -20.2931  -12.0558 C   0  0  0  0  0  0  0  0  0  0  0  0
   26.5132  -19.0409  -12.0203 O   0  0  0  0  0  0  0  0  0  0  0  0
   32.8315  -24.1691  -12.3525 N   0  0  0  0  0  0  0  0  0  0  0  0
   20.5060  -24.2613  -14.0725 C   0  0  0  0  0  0  0  0  0  0  0  0
   19.8896  -23.5966  -12.9682 N   0  0  0  0  0  0  0  0  0  0  0  0
   18.8209  -24.0808  -12.4437 N   0  0  0  0  0  0  0  0  0  0  0  0
   20.4241  -22.4023  -12.4192 C   0  0  0  0  0  0  0  0  0  0  0  0
   21.6215  -21.7871  -12.8888 C   0  0  0  0  0  0  0  0  0  0  0  0
   22.7780  -21.8657  -11.8820 C   0  0  0  0  0  0  0  0  0  0  0  0
   23.1807  -20.4537  -11.6217 C   0  0  1  0  0  0  0  0  0  0  0  0
   24.3724  -20.2899  -10.7052 N   0  0  0  0  0  0  0  0  0  0  0  0
   25.4681  -20.9759  -11.4181 C   0  0  0  0  0  0  0  0  0  0  0  0
   24.1273  -20.9575   -9.4002 O   0  0  0  0  0  0  0  0  0  0  0  0
   23.2478  -20.4205   -8.4711 O   0  0  0  0  0  0  0  0  0  0  0  0
  2  1  1  6
  2  3  1  0
  3  4  1  0
  4 12  1  0
  4  5  2  0
  5  6  1  0
  7  6  1  0
  7  8  2  0
  9  8  1  0
 10  9  2  0
 11 12  2  0
 11 10  1  0
 12  7  1  0
 13  2  1  0
 14 13  2  0
 15 16  1  0
 16 18  1  0
 17 16  2  0
 18 19  1  0
 19 20  1  0
 20 21  1  0
 22 21  1  1
 22 24  1  0
 22 23  1  0
 23 13  1  0
 24 34  1  0
 25 24  2  0
 27 29  1  0
 27 26  1  0
 28 27  2  0
 30 31  1  0
 30 29  1  0
 32 31  1  0
 33 32  1  6
 34 33  1  0
 35 36  1  0
 35 33  1  0
 37 35  2  0
M  END
$$$$
