WRR.pdb
     RDKit          3D

 37 38  0  0  1  0  0  0  0  0999 V2000
   27.3141  -22.4913  -13.2311 N   0  0  0  0  0  0  0  0  0  0  0  0
   26.2831  -22.0211  -12.3786 C   0  0  1  0  0  0  0  0  0  0  0  0
   26.6070  -20.8113  -11.5516 C   0  0  0  0  0  0  0  0  0  0  0  0
   27.7748  -20.9503  -10.6719 C   0  0  0  0  0  0  0  0  0  0  0  0
   29.0830  -21.2515  -10.9885 C   0  0  0  0  0  0  0  0  0  0  0  0
   29.7830  -21.3002   -9.8703 N   0  0  0  0  0  0  0  0  0  0  0  0
   29.0044  -21.0421   -8.7852 C   0  0  0  0  0  0  0  0  0  0  0  0
   29.2858  -20.9792   -7.4396 C   0  0  0  0  0  0  0  0  0  0  0  0
   28.2748  -20.6855   -6.5595 C   0  0  0  0  0  0  0  0  0  0  0  0
   27.0145  -20.4622   -7.0394 C   0  0  0  0  0  0  0  0  0  0  0  0
   26.7223  -20.5220   -8.3769 C   0  0  0  0  0  0  0  0  0  0  0  0
   27.7197  -20.8180   -9.3001 C   0  0  0  0  0  0  0  0  0  0  0  0
   25.0069  -21.7482  -13.1447 C   0  0  0  0  0  0  0  0  0  0  0  0
   25.0259  -20.9160  -14.0759 O   0  0  0  0  0  0  0  0  0  0  0  0
   27.9542  -25.6348  -16.8531 N   0  0  0  0  0  0  0  0  0  0  0  0
   26.5906  -26.1023  -16.9296 C   0  0  0  0  0  0  0  0  0  0  0  0
   26.3134  -27.2088  -17.5080 N   0  0  0  0  0  0  0  0  0  0  0  0
   25.5288  -25.3494  -16.3611 N   0  0  0  0  0  0  0  0  0  0  0  0
   24.1551  -25.8150  -16.3782 C   0  0  0  0  0  0  0  0  0  0  0  0
   23.2303  -24.8162  -15.7109 C   0  0  0  0  0  0  0  0  0  0  0  0
   23.8727  -24.0975  -14.5811 C   0  0  0  0  0  0  0  0  0  0  0  0
   23.0329  -23.1631  -13.8079 C   0  0  2  0  0  0  0  0  0  0  0  0
   23.7935  -22.4251  -12.8192 N   0  0  0  0  0  0  0  0  0  0  0  0
   21.7626  -23.7174  -13.2735 C   0  0  0  0  0  0  0  0  0  0  0  0
   21.8143  -24.8025  -12.6495 O   0  0  0  0  0  0  0  0  0  0  0  0
   25.3473  -27.5693  -17.5700 N   0  0  0  0  0  0  0  0  0  0  0  0
   17.3754  -24.7431   -7.3936 C   0  0  0  0  0  0  0  0  0  0  0  0
   18.6726  -24.1673   -7.5581 N   0  0  0  0  0  0  0  0  0  0  0  0
   19.6580  -24.5947   -6.8524 N   0  0  0  0  0  0  0  0  0  0  0  0
   18.9170  -23.1246   -8.4889 C   0  0  0  0  0  0  0  0  0  0  0  0
   18.3268  -23.0726   -9.7856 C   0  0  0  0  0  0  0  0  0  0  0  0
   19.2552  -23.5875  -10.8949 C   0  0  0  0  0  0  0  0  0  0  0  0
   18.5141  -23.3727  -12.1709 C   0  0  2  0  0  0  0  0  0  0  0  0
   19.2258  -23.8647  -13.4113 N   0  0  0  0  0  0  0  0  0  0  0  0
   20.4943  -23.1097  -13.4182 C   0  0  0  0  0  0  0  0  0  0  0  0
   18.4414  -23.5394  -14.6310 O   0  0  0  0  0  0  0  0  0  0  0  0
   18.9038  -22.6179  -15.5595 O   0  0  0  0  0  0  0  0  0  0  0  0
  2  1  1  6
  2  3  1  0
  3  4  1  0
  4 12  1  0
  4  5  2  0
  5  6  1  0
  7  6  1  0
  7  8  2  0
  9  8  1  0
 10  9  2  0
 11 12  2  0
 11 10  1  0
 12  7  1  0
 13  2  1  0
 14 13  2  0
 15 16  1  0
 16 18  1  0
 17 16  2  0
 18 19  1  0
 19 20  1  0
 20 21  1  0
 22 21  1  1
 22 24  1  0
 22 23  1  0
 23 13  1  0
 24 34  1  0
 25 24  2  0
 27 29  1  0
 27 26  1  0
 28 27  2  0
 30 31  1  0
 30 29  1  0
 32 31  1  0
 33 32  1  1
 34 33  1  0
 35 36  1  0
 35 33  1  0
 37 35  2  0
M  END
$$$$
