WRR.pdb
     RDKit          3D

 37 38  0  0  1  0  0  0  0  0999 V2000
   24.8817  -23.2725  -13.0578 N   0  0  0  0  0  0  0  0  0  0  0  0
   24.2765  -22.5748  -14.1337 C   0  0  1  0  0  0  0  0  0  0  0  0
   24.0055  -23.3753  -15.3740 C   0  0  0  0  0  0  0  0  0  0  0  0
   25.1819  -24.0220  -15.9696 C   0  0  0  0  0  0  0  0  0  0  0  0
   25.6784  -25.2940  -15.7751 C   0  0  0  0  0  0  0  0  0  0  0  0
   26.7747  -25.4296  -16.4981 N   0  0  0  0  0  0  0  0  0  0  0  0
   27.0573  -24.2932  -17.1901 C   0  0  0  0  0  0  0  0  0  0  0  0
   28.0735  -23.9690  -18.0595 C   0  0  0  0  0  0  0  0  0  0  0  0
   28.0963  -22.7177  -18.6223 C   0  0  0  0  0  0  0  0  0  0  0  0
   27.1107  -21.8247  -18.3069 C   0  0  0  0  0  0  0  0  0  0  0  0
   26.0938  -22.1361  -17.4426 C   0  0  0  0  0  0  0  0  0  0  0  0
   26.0366  -23.3936  -16.8511 C   0  0  0  0  0  0  0  0  0  0  0  0
   22.9893  -21.9021  -13.7087 C   0  0  0  0  0  0  0  0  0  0  0  0
   22.2910  -22.4365  -12.8217 O   0  0  0  0  0  0  0  0  0  0  0  0
   20.2504  -14.0398  -16.2664 N   0  0  0  0  0  0  0  0  0  0  0  0
   20.5658  -15.3129  -16.8694 C   0  0  0  0  0  0  0  0  0  0  0  0
   20.9378  -15.3800  -18.0913 N   0  0  0  0  0  0  0  0  0  0  0  0
   20.4760  -16.5165  -16.1206 N   0  0  0  0  0  0  0  0  0  0  0  0
   19.9092  -16.5564  -14.7860 C   0  0  0  0  0  0  0  0  0  0  0  0
   19.9094  -17.9682  -14.2334 C   0  0  0  0  0  0  0  0  0  0  0  0
   21.1541  -18.7137  -14.5500 C   0  0  0  0  0  0  0  0  0  0  0  0
   21.2738  -20.0864  -14.0232 C   0  0  2  0  0  0  0  0  0  0  0  0
   22.5683  -20.6751  -14.3035 N   0  0  0  0  0  0  0  0  0  0  0  0
   20.1402  -20.9996  -14.3190 C   0  0  0  0  0  0  0  0  0  0  0  0
   20.3549  -21.9717  -15.0796 O   0  0  0  0  0  0  0  0  0  0  0  0
   21.1259  -16.2814  -18.5595 N   0  0  0  0  0  0  0  0  0  0  0  0
   19.2316  -27.7230  -11.2401 C   0  0  0  0  0  0  0  0  0  0  0  0
   18.0867  -26.9980  -10.7875 N   0  0  0  0  0  0  0  0  0  0  0  0
   17.4399  -27.4017   -9.7530 N   0  0  0  0  0  0  0  0  0  0  0  0
   17.6313  -25.8280  -11.4485 C   0  0  0  0  0  0  0  0  0  0  0  0
   18.0947  -25.4186  -12.7331 C   0  0  0  0  0  0  0  0  0  0  0  0
   17.3098  -24.2321  -13.3105 C   0  0  0  0  0  0  0  0  0  0  0  0
   18.2645  -23.0867  -13.3229 C   0  0  1  0  0  0  0  0  0  0  0  0
   17.7581  -21.8430  -14.0184 N   0  0  0  0  0  0  0  0  0  0  0  0
   18.8315  -20.8523  -13.8048 C   0  0  0  0  0  0  0  0  0  0  0  0
   16.5002  -21.3638  -13.3884 O   0  0  0  0  0  0  0  0  0  0  0  0
   16.4645  -20.1838  -12.6596 O   0  0  0  0  0  0  0  0  0  0  0  0
  2  1  1  1
  2  3  1  0
  3  4  1  0
  4 12  1  0
  4  5  2  0
  5  6  1  0
  7  6  1  0
  7  8  2  0
  9  8  1  0
 10  9  2  0
 11 12  2  0
 11 10  1  0
 12  7  1  0
 13  2  1  0
 14 13  2  0
 15 16  1  0
 16 18  1  0
 17 16  2  0
 18 19  1  0
 19 20  1  0
 20 21  1  0
 22 21  1  6
 22 24  1  0
 22 23  1  0
 23 13  1  0
 24 34  1  0
 25 24  2  0
 27 29  1  0
 27 26  1  0
 28 27  2  0
 30 31  1  0
 30 29  1  0
 32 31  1  0
 33 32  1  6
 34 33  1  0
 35 36  1  0
 35 33  1  0
 37 35  2  0
M  END
$$$$
