WRR.pdb
     RDKit          3D

 37 38  0  0  1  0  0  0  0  0999 V2000
   28.9834  -20.9410  -17.7942 N   0  0  0  0  0  0  0  0  0  0  0  0
   28.4366  -20.0541  -16.8323 C   0  0  1  0  0  0  0  0  0  0  0  0
   27.5057  -18.9999  -17.3563 C   0  0  0  0  0  0  0  0  0  0  0  0
   28.1229  -18.0076  -18.2458 C   0  0  0  0  0  0  0  0  0  0  0  0
   27.5593  -17.2716  -19.2671 C   0  0  0  0  0  0  0  0  0  0  0  0
   28.5014  -16.5257  -19.8137 N   0  0  0  0  0  0  0  0  0  0  0  0
   29.7028  -16.7181  -19.2056 C   0  0  0  0  0  0  0  0  0  0  0  0
   30.9467  -16.1706  -19.4222 C   0  0  0  0  0  0  0  0  0  0  0  0
   31.9954  -16.5623  -18.6287 C   0  0  0  0  0  0  0  0  0  0  0  0
   31.7801  -17.4850  -17.6434 C   0  0  0  0  0  0  0  0  0  0  0  0
   30.5463  -18.0370  -17.4184 C   0  0  0  0  0  0  0  0  0  0  0  0
   29.4586  -17.6665  -18.2022 C   0  0  0  0  0  0  0  0  0  0  0  0
   27.7338  -20.8018  -15.7201 C   0  0  0  0  0  0  0  0  0  0  0  0
   27.0969  -21.8401  -15.9967 O   0  0  0  0  0  0  0  0  0  0  0  0
   25.7979  -20.0842   -7.7339 N   0  0  0  0  0  0  0  0  0  0  0  0
   24.6172  -20.6803   -8.3120 C   0  0  0  0  0  0  0  0  0  0  0  0
   23.4674  -20.4902   -7.7851 N   0  0  0  0  0  0  0  0  0  0  0  0
   24.7036  -21.4850   -9.4792 N   0  0  0  0  0  0  0  0  0  0  0  0
   25.8452  -21.4315  -10.3726 C   0  0  0  0  0  0  0  0  0  0  0  0
   25.9258  -20.0920  -11.0779 C   0  0  0  0  0  0  0  0  0  0  0  0
   27.0120  -20.0344  -12.0890 C   0  0  0  0  0  0  0  0  0  0  0  0
   26.7286  -20.6027  -13.4204 C   0  0  2  0  0  0  0  0  0  0  0  0
   27.7903  -20.3392  -14.3713 N   0  0  0  0  0  0  0  0  0  0  0  0
   25.3739  -20.3361  -13.9685 C   0  0  0  0  0  0  0  0  0  0  0  0
   25.0834  -19.1530  -14.2608 O   0  0  0  0  0  0  0  0  0  0  0  0
   22.6027  -20.8739   -8.2000 N   0  0  0  0  0  0  0  0  0  0  0  0
   20.3015  -26.8495  -15.4978 C   0  0  0  0  0  0  0  0  0  0  0  0
   21.6261  -26.4120  -15.1893 N   0  0  0  0  0  0  0  0  0  0  0  0
   22.6177  -27.2161  -15.3370 N   0  0  0  0  0  0  0  0  0  0  0  0
   21.8914  -25.0996  -14.7195 C   0  0  0  0  0  0  0  0  0  0  0  0
   20.8709  -24.1637  -14.3803 C   0  0  0  0  0  0  0  0  0  0  0  0
   21.4222  -22.8283  -13.8604 C   0  0  0  0  0  0  0  0  0  0  0  0
   22.3951  -22.3665  -14.8917 C   0  0  1  0  0  0  0  0  0  0  0  0
   23.0098  -21.0106  -14.6256 N   0  0  0  0  0  0  0  0  0  0  0  0
   24.3838  -21.3218  -14.1846 C   0  0  0  0  0  0  0  0  0  0  0  0
   22.2807  -20.3075  -13.5380 O   0  0  0  0  0  0  0  0  0  0  0  0
   22.4206  -20.6920  -12.2122 O   0  0  0  0  0  0  0  0  0  0  0  0
  2  1  1  6
  2  3  1  0
  3  4  1  0
  4 12  1  0
  4  5  2  0
  5  6  1  0
  7  6  1  0
  7  8  2  0
  9  8  1  0
 10  9  2  0
 11 12  2  0
 11 10  1  0
 12  7  1  0
 13  2  1  0
 14 13  2  0
 15 16  1  0
 16 18  1  0
 17 16  2  0
 18 19  1  0
 19 20  1  0
 20 21  1  0
 22 21  1  1
 22 24  1  0
 22 23  1  0
 23 13  1  0
 24 34  1  0
 25 24  2  0
 27 29  1  0
 27 26  1  0
 28 27  2  0
 30 31  1  0
 30 29  1  0
 32 31  1  0
 33 32  1  6
 34 33  1  0
 35 36  1  0
 35 33  1  0
 37 35  2  0
M  END
$$$$
