WRR.pdb
     RDKit          3D

 37 38  0  0  1  0  0  0  0  0999 V2000
   25.0964  -16.2448  -18.1307 N   0  0  0  0  0  0  0  0  0  0  0  0
   25.3490  -16.8748  -16.8857 C   0  0  1  0  0  0  0  0  0  0  0  0
   25.5294  -15.9640  -15.7065 C   0  0  0  0  0  0  0  0  0  0  0  0
   26.7067  -15.0882  -15.7680 C   0  0  0  0  0  0  0  0  0  0  0  0
   26.8151  -13.7407  -15.4941 C   0  0  0  0  0  0  0  0  0  0  0  0
   28.0625  -13.3686  -15.7139 N   0  0  0  0  0  0  0  0  0  0  0  0
   28.8265  -14.4137  -16.1316 C   0  0  0  0  0  0  0  0  0  0  0  0
   30.1566  -14.5087  -16.4713 C   0  0  0  0  0  0  0  0  0  0  0  0
   30.6610  -15.7245  -16.8589 C   0  0  0  0  0  0  0  0  0  0  0  0
   29.8320  -16.8106  -16.8980 C   0  0  0  0  0  0  0  0  0  0  0  0
   28.5060  -16.7283  -16.5621 C   0  0  0  0  0  0  0  0  0  0  0  0
   27.9573  -15.5134  -16.1652 C   0  0  0  0  0  0  0  0  0  0  0  0
   24.2785  -17.8890  -16.5463 C   0  0  0  0  0  0  0  0  0  0  0  0
   23.1348  -17.7463  -17.0276 O   0  0  0  0  0  0  0  0  0  0  0  0
   27.7588  -20.5108  -12.4017 N   0  0  0  0  0  0  0  0  0  0  0  0
   27.0712  -21.0811  -11.2678 C   0  0  0  0  0  0  0  0  0  0  0  0
   27.4709  -20.8422  -10.0766 N   0  0  0  0  0  0  0  0  0  0  0  0
   25.9348  -21.9140  -11.4477 N   0  0  0  0  0  0  0  0  0  0  0  0
   25.3718  -22.1817  -12.7574 C   0  0  0  0  0  0  0  0  0  0  0  0
   24.8055  -20.9197  -13.3780 C   0  0  0  0  0  0  0  0  0  0  0  0
   24.1335  -21.1657  -14.6794 C   0  0  0  0  0  0  0  0  0  0  0  0
   23.5594  -19.9991  -15.3762 C   0  0  2  0  0  0  0  0  0  0  0  0
   24.5580  -18.9970  -15.6914 N   0  0  0  0  0  0  0  0  0  0  0  0
   22.3247  -19.4266  -14.7811 C   0  0  0  0  0  0  0  0  0  0  0  0
   22.4432  -18.7229  -13.7514 O   0  0  0  0  0  0  0  0  0  0  0  0
   26.9470  -21.1640   -9.2464 N   0  0  0  0  0  0  0  0  0  0  0  0
   15.8879  -22.2605  -12.7575 C   0  0  0  0  0  0  0  0  0  0  0  0
   14.8796  -21.8220  -13.6699 N   0  0  0  0  0  0  0  0  0  0  0  0
   13.6398  -21.8967  -13.3398 N   0  0  0  0  0  0  0  0  0  0  0  0
   15.2027  -21.2970  -14.9479 C   0  0  0  0  0  0  0  0  0  0  0  0
   16.5379  -21.1624  -15.4291 C   0  0  0  0  0  0  0  0  0  0  0  0
   17.4142  -20.2666  -14.5418 C   0  0  0  0  0  0  0  0  0  0  0  0
   18.7833  -20.3363  -15.1284 C   0  0  2  0  0  0  0  0  0  0  0  0
   19.7962  -19.4103  -14.4931 N   0  0  0  0  0  0  0  0  0  0  0  0
   21.0203  -19.6184  -15.2916 C   0  0  0  0  0  0  0  0  0  0  0  0
   20.0472  -19.7961  -13.0800 O   0  0  0  0  0  0  0  0  0  0  0  0
   19.5805  -19.0204  -12.0285 O   0  0  0  0  0  0  0  0  0  0  0  0
  2  1  1  6
  2  3  1  0
  3  4  1  0
  4 12  1  0
  4  5  2  0
  5  6  1  0
  7  6  1  0
  7  8  2  0
  9  8  1  0
 10  9  2  0
 11 12  2  0
 11 10  1  0
 12  7  1  0
 13  2  1  0
 14 13  2  0
 15 16  1  0
 16 18  1  0
 17 16  2  0
 18 19  1  0
 19 20  1  0
 20 21  1  0
 22 21  1  1
 22 24  1  0
 22 23  1  0
 23 13  1  0
 24 34  1  0
 25 24  2  0
 27 29  1  0
 27 26  1  0
 28 27  2  0
 30 31  1  0
 30 29  1  0
 32 31  1  0
 33 32  1  6
 34 33  1  0
 35 36  1  0
 35 33  1  0
 37 35  2  0
M  END
$$$$
