EPE.pdb
     RDKit          3D

 26 26  0  0  1  0  0  0  0  0999 V2000
   25.7650  -20.8838  -10.7577 N   0  0  0  0  0  0  0  0  0  0  0  0
   26.4343  -20.4053  -11.9311 C   0  0  1  0  0  0  0  0  0  0  0  0
   26.9618  -21.5992  -12.6759 C   0  0  0  0  0  0  0  0  0  0  0  0
   25.9116  -22.3864  -13.3893 C   0  0  0  0  0  0  0  0  0  0  0  0
   26.0090  -22.1877  -14.8776 C   0  0  0  0  0  0  0  0  0  0  0  0
   25.0144  -21.8160  -15.5714 O   0  0  0  0  0  0  0  0  0  0  0  0
   25.6505  -19.4634  -12.7231 C   0  0  0  0  0  0  0  0  0  0  0  0
   24.4434  -19.2063  -12.4052 O   0  0  0  0  0  0  0  0  0  0  0  0
   27.2083  -22.4043  -15.5614 O   0  0  0  0  0  0  0  0  0  0  0  0
   26.1304  -18.7580  -13.8918 N   0  0  0  0  0  0  0  0  0  0  0  0
   27.4567  -18.9106  -14.4224 C   0  0  0  0  0  0  0  0  0  0  0  0
   27.6541  -17.7612  -15.3696 C   0  0  0  0  0  0  0  0  0  0  0  0
   26.4384  -16.8459  -15.1346 C   0  0  0  0  0  0  0  0  0  0  0  0
   25.4189  -17.8455  -14.7189 C   0  0  1  0  0  0  0  0  0  0  0  0
   24.6842  -18.4911  -15.8297 C   0  0  0  0  0  0  0  0  0  0  0  0
   24.9696  -19.6370  -16.2750 O   0  0  0  0  0  0  0  0  0  0  0  0
   23.6107  -17.7799  -16.4149 N   0  0  0  0  0  0  0  0  0  0  0  0
   22.4138  -18.4366  -16.9832 C   0  0  1  0  0  0  0  0  0  0  0  0
   21.8827  -19.4229  -16.0255 C   0  0  0  0  0  0  0  0  0  0  0  0
   21.1090  -18.9309  -14.8609 C   0  0  0  0  0  0  0  0  0  0  0  0
   19.9043  -19.6936  -14.4846 C   0  0  0  0  0  0  0  0  0  0  0  0
   19.8408  -20.9330  -14.6753 O   0  0  0  0  0  0  0  0  0  0  0  0
   21.5119  -17.4634  -17.5706 C   0  0  0  0  0  0  0  0  0  0  0  0
   20.5621  -17.7844  -18.2997 O   0  0  0  0  0  0  0  0  0  0  0  0
   18.8144  -19.0686  -13.9077 O   0  0  0  0  0  0  0  0  0  0  0  0
   21.7014  -16.0929  -17.3173 O   0  0  0  0  0  0  0  0  0  0  0  0
  2  1  1  1
  2  7  1  0
  3  2  1  0
  4  3  1  0
  5  4  1  0
  6  5  2  0
  7  8  2  0
  7 10  1  0
  9  5  1  0
 10 11  1  0
 11 12  1  0
 13 12  1  0
 14 10  1  0
 14 13  1  0
 15 16  2  0
 14 15  1  6
 17 15  1  0
 18 17  1  0
 18 23  1  0
 18 19  1  1
 20 21  1  0
 20 19  1  0
 21 22  2  0
 23 26  1  0
 24 23  2  0
 25 21  1  0
M  END
$$$$
