EPE.pdb
     RDKit          3D

 26 26  0  0  1  0  0  0  0  0999 V2000
   32.7193  -37.2257   -3.7480 N   0  0  0  0  0  0  0  0  0  0  0  0
   31.3373  -37.2456   -4.1267 C   0  0  1  0  0  0  0  0  0  0  0  0
   30.9294  -38.6822   -4.2946 C   0  0  0  0  0  0  0  0  0  0  0  0
   31.4799  -39.3337   -5.5211 C   0  0  0  0  0  0  0  0  0  0  0  0
   30.3900  -40.0156   -6.3029 C   0  0  0  0  0  0  0  0  0  0  0  0
   30.3916  -40.0448   -7.5709 O   0  0  0  0  0  0  0  0  0  0  0  0
   30.4724  -36.4400   -3.2712 C   0  0  0  0  0  0  0  0  0  0  0  0
   30.7647  -36.2681   -2.0428 O   0  0  0  0  0  0  0  0  0  0  0  0
   29.3245  -40.6508   -5.6594 O   0  0  0  0  0  0  0  0  0  0  0  0
   29.2552  -35.7852   -3.6996 N   0  0  0  0  0  0  0  0  0  0  0  0
   28.7847  -35.7929   -5.0570 C   0  0  0  0  0  0  0  0  0  0  0  0
   27.7347  -34.7210   -5.1331 C   0  0  0  0  0  0  0  0  0  0  0  0
   27.8388  -33.9738   -3.7908 C   0  0  0  0  0  0  0  0  0  0  0  0
   28.3192  -35.0673   -2.9049 C   0  0  1  0  0  0  0  0  0  0  0  0
   27.2554  -35.9139   -2.3203 C   0  0  0  0  0  0  0  0  0  0  0  0
   27.0310  -37.0990   -2.6921 O   0  0  0  0  0  0  0  0  0  0  0  0
   26.4555  -35.3579   -1.2948 N   0  0  0  0  0  0  0  0  0  0  0  0
   26.1610  -36.0552   -0.0244 C   0  0  1  0  0  0  0  0  0  0  0  0
   27.4095  -36.5753    0.5611 C   0  0  0  0  0  0  0  0  0  0  0  0
   27.3625  -37.1542    1.9249 C   0  0  0  0  0  0  0  0  0  0  0  0
   28.6221  -37.6955    2.4681 C   0  0  0  0  0  0  0  0  0  0  0  0
   29.3488  -38.4520    1.7781 O   0  0  0  0  0  0  0  0  0  0  0  0
   25.2614  -35.2751    0.8047 C   0  0  0  0  0  0  0  0  0  0  0  0
   24.6635  -35.7540    1.7794 O   0  0  0  0  0  0  0  0  0  0  0  0
   29.0409  -37.3825    3.7480 O   0  0  0  0  0  0  0  0  0  0  0  0
   25.0418  -33.9171    0.5118 O   0  0  0  0  0  0  0  0  0  0  0  0
  2  1  1  1
  2  7  1  0
  3  2  1  0
  4  3  1  0
  5  4  1  0
  6  5  2  0
  7  8  2  0
  7 10  1  0
  9  5  1  0
 10 11  1  0
 11 12  1  0
 13 12  1  0
 14 10  1  0
 14 13  1  0
 15 16  2  0
 14 15  1  6
 17 15  1  0
 18 17  1  0
 18 23  1  0
 18 19  1  1
 20 21  1  0
 20 19  1  0
 21 22  2  0
 23 26  1  0
 24 23  2  0
 25 21  1  0
M  END
$$$$
