EPE.pdb
     RDKit          3D

 26 26  0  0  1  0  0  0  0  0999 V2000
   17.8191  -12.2067  -15.8531 N   0  0  0  0  0  0  0  0  0  0  0  0
   19.1454  -11.8338  -16.2475 C   0  0  1  0  0  0  0  0  0  0  0  0
   19.0939  -11.4193  -17.6911 C   0  0  0  0  0  0  0  0  0  0  0  0
   18.6124  -12.4887  -18.6164 C   0  0  0  0  0  0  0  0  0  0  0  0
   18.5999  -12.0020  -20.0402 C   0  0  0  0  0  0  0  0  0  0  0  0
   18.2035  -12.7351  -20.9963 O   0  0  0  0  0  0  0  0  0  0  0  0
   19.7941  -10.8906  -15.3429 C   0  0  0  0  0  0  0  0  0  0  0  0
   19.0936  -10.1388  -14.5891 O   0  0  0  0  0  0  0  0  0  0  0  0
   19.0257  -10.7124  -20.3698 O   0  0  0  0  0  0  0  0  0  0  0  0
   21.2242  -10.7143  -15.2105 N   0  0  0  0  0  0  0  0  0  0  0  0
   22.1913  -11.5346  -15.8855 C   0  0  0  0  0  0  0  0  0  0  0  0
   23.5026  -11.2695  -15.2018 C   0  0  0  0  0  0  0  0  0  0  0  0
   23.1362  -10.4347  -13.9609 C   0  0  0  0  0  0  0  0  0  0  0  0
   21.9203   -9.7332  -14.4516 C   0  0  1  0  0  0  0  0  0  0  0  0
   22.1762   -8.4757  -15.1888 C   0  0  0  0  0  0  0  0  0  0  0  0
   22.1471   -8.3930  -16.4478 O   0  0  0  0  0  0  0  0  0  0  0  0
   22.4675   -7.3144  -14.4356 N   0  0  0  0  0  0  0  0  0  0  0  0
   21.9432   -5.9734  -14.7727 C   0  0  1  0  0  0  0  0  0  0  0  0
   20.4868   -6.0455  -14.9862 C   0  0  0  0  0  0  0  0  0  0  0  0
   19.7387   -4.7816  -15.1860 C   0  0  0  0  0  0  0  0  0  0  0  0
   18.4123   -4.8800  -15.8228 C   0  0  0  0  0  0  0  0  0  0  0  0
   17.3929   -5.1645  -15.1472 O   0  0  0  0  0  0  0  0  0  0  0  0
   22.4787   -4.9624  -13.8803 C   0  0  0  0  0  0  0  0  0  0  0  0
   22.6631   -5.1653  -12.6713 O   0  0  0  0  0  0  0  0  0  0  0  0
   18.2521   -4.6573  -17.1778 O   0  0  0  0  0  0  0  0  0  0  0  0
   22.8107   -3.6914  -14.3831 O   0  0  0  0  0  0  0  0  0  0  0  0
  2  1  1  1
  2  7  1  0
  3  2  1  0
  4  3  1  0
  5  4  1  0
  6  5  2  0
  7  8  2  0
  7 10  1  0
  9  5  1  0
 10 11  1  0
 11 12  1  0
 13 12  1  0
 14 10  1  0
 14 13  1  0
 15 16  2  0
 14 15  1  6
 17 15  1  0
 18 17  1  0
 18 23  1  0
 18 19  1  1
 20 21  1  0
 20 19  1  0
 21 22  2  0
 23 26  1  0
 24 23  2  0
 25 21  1  0
M  END
$$$$
