EPE.pdb
     RDKit          3D

 26 26  0  0  1  0  0  0  0  0999 V2000
   19.1372   -8.8103  -16.7374 N   0  0  0  0  0  0  0  0  0  0  0  0
   19.6591   -7.8089  -15.8550 C   0  0  1  0  0  0  0  0  0  0  0  0
   19.4070   -6.4679  -16.4847 C   0  0  0  0  0  0  0  0  0  0  0  0
   20.1087   -6.2638  -17.7877 C   0  0  0  0  0  0  0  0  0  0  0  0
   19.8636   -4.8775  -18.3189 C   0  0  0  0  0  0  0  0  0  0  0  0
   20.2364   -4.5282  -19.4798 O   0  0  0  0  0  0  0  0  0  0  0  0
   19.2223   -7.9477  -14.4698 C   0  0  0  0  0  0  0  0  0  0  0  0
   18.1526   -8.5834  -14.1947 O   0  0  0  0  0  0  0  0  0  0  0  0
   19.2088   -3.9114  -17.5502 O   0  0  0  0  0  0  0  0  0  0  0  0
   19.9164   -7.4080  -13.3206 N   0  0  0  0  0  0  0  0  0  0  0  0
   21.1570   -6.6886  -13.4078 C   0  0  0  0  0  0  0  0  0  0  0  0
   21.7021   -6.6402  -12.0087 C   0  0  0  0  0  0  0  0  0  0  0  0
   20.7948   -7.5864  -11.2011 C   0  0  0  0  0  0  0  0  0  0  0  0
   19.5201   -7.4540  -11.9554 C   0  0  1  0  0  0  0  0  0  0  0  0
   18.6615   -6.3216  -11.5421 C   0  0  0  0  0  0  0  0  0  0  0  0
   18.8613   -5.1310  -11.9100 O   0  0  0  0  0  0  0  0  0  0  0  0
   17.5652   -6.5979  -10.6921 N   0  0  0  0  0  0  0  0  0  0  0  0
   16.5133   -5.6086  -10.3736 C   0  0  1  0  0  0  0  0  0  0  0  0
   15.1836   -6.2032  -10.5981 C   0  0  0  0  0  0  0  0  0  0  0  0
   13.9844   -5.3853  -10.2985 C   0  0  0  0  0  0  0  0  0  0  0  0
   12.6696   -6.0096  -10.5358 C   0  0  0  0  0  0  0  0  0  0  0  0
   11.6249   -5.5189  -10.0416 O   0  0  0  0  0  0  0  0  0  0  0  0
   16.7867   -4.9404   -9.1149 C   0  0  0  0  0  0  0  0  0  0  0  0
   17.4509   -5.4642   -8.2086 O   0  0  0  0  0  0  0  0  0  0  0  0
   12.5488   -7.1474  -11.3118 O   0  0  0  0  0  0  0  0  0  0  0  0
   16.2893   -3.6443   -8.8892 O   0  0  0  0  0  0  0  0  0  0  0  0
  2  1  1  6
  2  7  1  0
  3  2  1  0
  4  3  1  0
  5  4  1  0
  6  5  2  0
  7  8  2  0
  7 10  1  0
  9  5  1  0
 10 11  1  0
 11 12  1  0
 13 12  1  0
 14 10  1  0
 14 13  1  0
 15 16  2  0
 14 15  1  1
 17 15  1  0
 18 17  1  0
 18 23  1  0
 18 19  1  1
 20 21  1  0
 20 19  1  0
 21 22  2  0
 23 26  1  0
 24 23  2  0
 25 21  1  0
M  END
$$$$
