EPE.pdb
     RDKit          3D

 26 26  0  0  1  0  0  0  0  0999 V2000
   26.8122  -21.3668  -17.2749 N   0  0  0  0  0  0  0  0  0  0  0  0
   27.0256  -20.3511  -16.2866 C   0  0  1  0  0  0  0  0  0  0  0  0
   26.2191  -19.1476  -16.6859 C   0  0  0  0  0  0  0  0  0  0  0  0
   27.0421  -17.9629  -17.0743 C   0  0  0  0  0  0  0  0  0  0  0  0
   27.6931  -18.1765  -18.4140 C   0  0  0  0  0  0  0  0  0  0  0  0
   28.8977  -18.5588  -18.5212 O   0  0  0  0  0  0  0  0  0  0  0  0
   26.8411  -20.8069  -14.9129 C   0  0  0  0  0  0  0  0  0  0  0  0
   25.8714  -21.5792  -14.6176 O   0  0  0  0  0  0  0  0  0  0  0  0
   26.9918  -17.9626  -19.6037 O   0  0  0  0  0  0  0  0  0  0  0  0
   27.6909  -20.4510  -13.7971 N   0  0  0  0  0  0  0  0  0  0  0  0
   28.8456  -19.6046  -13.9166 C   0  0  0  0  0  0  0  0  0  0  0  0
   29.6262  -19.7942  -12.6470 C   0  0  0  0  0  0  0  0  0  0  0  0
   28.9417  -20.9777  -11.9387 C   0  0  0  0  0  0  0  0  0  0  0  0
   27.5473  -20.8231  -12.4319 C   0  0  1  0  0  0  0  0  0  0  0  0
   26.7025  -19.8979  -11.6442 C   0  0  0  0  0  0  0  0  0  0  0  0
   26.6137  -18.6629  -11.8891 O   0  0  0  0  0  0  0  0  0  0  0  0
   25.9619  -20.4341  -10.5650 N   0  0  0  0  0  0  0  0  0  0  0  0
   24.4870  -20.3691  -10.4787 C   0  0  1  0  0  0  0  0  0  0  0  0
   23.8928  -20.7774  -11.7641 C   0  0  0  0  0  0  0  0  0  0  0  0
   22.4159  -20.8478  -11.8688 C   0  0  0  0  0  0  0  0  0  0  0  0
   21.7902  -20.1554  -13.0107 C   0  0  0  0  0  0  0  0  0  0  0  0
   22.3760  -20.0814  -14.1188 O   0  0  0  0  0  0  0  0  0  0  0  0
   24.0071  -20.9773   -9.2519 C   0  0  0  0  0  0  0  0  0  0  0  0
   22.9195  -20.6791   -8.7369 O   0  0  0  0  0  0  0  0  0  0  0  0
   20.5413  -19.5736  -12.8961 O   0  0  0  0  0  0  0  0  0  0  0  0
   24.7891  -21.9482   -8.6007 O   0  0  0  0  0  0  0  0  0  0  0  0
  2  1  1  6
  2  7  1  0
  3  2  1  0
  4  3  1  0
  5  4  1  0
  6  5  2  0
  7  8  2  0
  7 10  1  0
  9  5  1  0
 10 11  1  0
 11 12  1  0
 13 12  1  0
 14 10  1  0
 14 13  1  0
 15 16  2  0
 14 15  1  1
 17 15  1  0
 18 17  1  0
 18 23  1  0
 18 19  1  6
 20 21  1  0
 20 19  1  0
 21 22  2  0
 23 26  1  0
 24 23  2  0
 25 21  1  0
M  END
$$$$
