EPE.pdb
     RDKit          3D

 26 26  0  0  1  0  0  0  0  0999 V2000
   28.8645  -21.6979  -16.9979 N   0  0  0  0  0  0  0  0  0  0  0  0
   28.2542  -20.9283  -15.9543 C   0  0  1  0  0  0  0  0  0  0  0  0
   28.0351  -19.5375  -16.4796 C   0  0  0  0  0  0  0  0  0  0  0  0
   26.8057  -19.3872  -17.3149 C   0  0  0  0  0  0  0  0  0  0  0  0
   26.7016  -17.9935  -17.8723 C   0  0  0  0  0  0  0  0  0  0  0  0
   25.7192  -17.6282  -18.5867 O   0  0  0  0  0  0  0  0  0  0  0  0
   27.0898  -21.5641  -15.3469 C   0  0  0  0  0  0  0  0  0  0  0  0
   26.4515  -22.4698  -15.9765 O   0  0  0  0  0  0  0  0  0  0  0  0
   27.6892  -17.0367  -17.6228 O   0  0  0  0  0  0  0  0  0  0  0  0
   26.5608  -21.2526  -14.0366 N   0  0  0  0  0  0  0  0  0  0  0  0
   27.0441  -20.1730  -13.2211 C   0  0  0  0  0  0  0  0  0  0  0  0
   26.5060  -20.4283  -11.8419 C   0  0  0  0  0  0  0  0  0  0  0  0
   25.9002  -21.8421  -11.9125 C   0  0  0  0  0  0  0  0  0  0  0  0
   25.4993  -21.8974  -13.3435 C   0  0  1  0  0  0  0  0  0  0  0  0
   24.1619  -21.3384  -13.6422 C   0  0  0  0  0  0  0  0  0  0  0  0
   23.9386  -20.1018  -13.7593 O   0  0  0  0  0  0  0  0  0  0  0  0
   23.0868  -22.2436  -13.8021 N   0  0  0  0  0  0  0  0  0  0  0  0
   21.6967  -21.8164  -14.0702 C   0  0  1  0  0  0  0  0  0  0  0  0
   20.7924  -22.3960  -13.0611 C   0  0  0  0  0  0  0  0  0  0  0  0
   19.3630  -22.0045  -13.0856 C   0  0  0  0  0  0  0  0  0  0  0  0
   18.4778  -22.6325  -12.0872 C   0  0  0  0  0  0  0  0  0  0  0  0
   18.7829  -22.6393  -10.8693 O   0  0  0  0  0  0  0  0  0  0  0  0
   21.6303  -20.3934  -14.3463 C   0  0  0  0  0  0  0  0  0  0  0  0
   22.2723  -19.5542  -13.6979 O   0  0  0  0  0  0  0  0  0  0  0  0
   17.2866  -23.2260  -12.4617 O   0  0  0  0  0  0  0  0  0  0  0  0
   20.8115  -19.9211  -15.3878 O   0  0  0  0  0  0  0  0  0  0  0  0
  2  1  1  6
  2  7  1  0
  3  2  1  0
  4  3  1  0
  5  4  1  0
  6  5  2  0
  7  8  2  0
  7 10  1  0
  9  5  1  0
 10 11  1  0
 11 12  1  0
 13 12  1  0
 14 10  1  0
 14 13  1  0
 15 16  2  0
 14 15  1  1
 17 15  1  0
 18 17  1  0
 18 23  1  0
 18 19  1  1
 20 21  1  0
 20 19  1  0
 21 22  2  0
 23 26  1  0
 24 23  2  0
 25 21  1  0
M  END
$$$$
