EPE.pdb
     RDKit          3D

 26 26  0  0  1  0  0  0  0  0999 V2000
   18.2742  -12.5718  -15.7487 N   0  0  0  0  0  0  0  0  0  0  0  0
   19.5330  -12.0463  -16.1882 C   0  0  1  0  0  0  0  0  0  0  0  0
   19.3416  -11.4997  -17.5749 C   0  0  0  0  0  0  0  0  0  0  0  0
   18.9467  -12.5258  -18.5863 C   0  0  0  0  0  0  0  0  0  0  0  0
   18.7917  -11.9060  -19.9486 C   0  0  0  0  0  0  0  0  0  0  0  0
   19.7038  -11.9795  -20.8269 O   0  0  0  0  0  0  0  0  0  0  0  0
   20.1675  -11.1416  -15.2354 C   0  0  0  0  0  0  0  0  0  0  0  0
   19.4573  -10.4664  -14.4206 O   0  0  0  0  0  0  0  0  0  0  0  0
   17.6274  -11.2205  -20.3055 O   0  0  0  0  0  0  0  0  0  0  0  0
   21.5931  -10.9231  -15.1183 N   0  0  0  0  0  0  0  0  0  0  0  0
   22.5728  -11.6484  -15.8787 C   0  0  0  0  0  0  0  0  0  0  0  0
   23.8895  -11.3912  -15.2024 C   0  0  0  0  0  0  0  0  0  0  0  0
   23.5228  -10.6755  -13.8893 C   0  0  0  0  0  0  0  0  0  0  0  0
   22.2714   -9.9823  -14.2951 C   0  0  1  0  0  0  0  0  0  0  0  0
   22.4647   -8.6597  -14.9306 C   0  0  0  0  0  0  0  0  0  0  0  0
   22.7627   -8.5136  -16.1482 O   0  0  0  0  0  0  0  0  0  0  0  0
   22.3059   -7.5084  -14.1244 N   0  0  0  0  0  0  0  0  0  0  0  0
   22.1121   -6.1499  -14.6755 C   0  0  1  0  0  0  0  0  0  0  0  0
   20.9541   -6.1409  -15.5870 C   0  0  0  0  0  0  0  0  0  0  0  0
   19.5986   -6.2985  -15.0085 C   0  0  0  0  0  0  0  0  0  0  0  0
   18.4558   -6.1751  -15.9324 C   0  0  0  0  0  0  0  0  0  0  0  0
   17.7151   -7.1593  -16.1759 O   0  0  0  0  0  0  0  0  0  0  0  0
   22.2003   -5.1445  -13.6330 C   0  0  0  0  0  0  0  0  0  0  0  0
   22.3289   -3.9358  -13.8767 O   0  0  0  0  0  0  0  0  0  0  0  0
   18.1645   -4.9739  -16.5518 O   0  0  0  0  0  0  0  0  0  0  0  0
   22.1396   -5.5313  -12.2820 O   0  0  0  0  0  0  0  0  0  0  0  0
  2  1  1  1
  2  7  1  0
  3  2  1  0
  4  3  1  0
  5  4  1  0
  6  5  2  0
  7  8  2  0
  7 10  1  0
  9  5  1  0
 10 11  1  0
 11 12  1  0
 13 12  1  0
 14 10  1  0
 14 13  1  0
 15 16  2  0
 14 15  1  6
 17 15  1  0
 18 17  1  0
 18 23  1  0
 18 19  1  1
 20 21  1  0
 20 19  1  0
 21 22  2  0
 23 26  1  0
 24 23  2  0
 25 21  1  0
M  END
$$$$
