EPE.pdb
     RDKit          3D

 26 26  0  0  1  0  0  0  0  0999 V2000
   28.3008  -21.3444  -15.8670 N   0  0  0  0  0  0  0  0  0  0  0  0
   27.8497  -20.7027  -14.6676 C   0  0  1  0  0  0  0  0  0  0  0  0
   28.0119  -19.2203  -14.8531 C   0  0  0  0  0  0  0  0  0  0  0  0
   26.9773  -18.5985  -15.7333 C   0  0  0  0  0  0  0  0  0  0  0  0
   27.5691  -18.1958  -17.0568 C   0  0  0  0  0  0  0  0  0  0  0  0
   27.6120  -16.9849  -17.4320 O   0  0  0  0  0  0  0  0  0  0  0  0
   26.5341  -21.1417  -14.2144 C   0  0  0  0  0  0  0  0  0  0  0  0
   25.7364  -21.7194  -15.0231 O   0  0  0  0  0  0  0  0  0  0  0  0
   28.1012  -19.1459  -17.9327 O   0  0  0  0  0  0  0  0  0  0  0  0
   26.0192  -20.9776  -12.8722 N   0  0  0  0  0  0  0  0  0  0  0  0
   26.7045  -20.2469  -11.8424 C   0  0  0  0  0  0  0  0  0  0  0  0
   26.0353  -20.6300  -10.5531 C   0  0  0  0  0  0  0  0  0  0  0  0
   25.1019  -21.7962  -10.9269 C   0  0  0  0  0  0  0  0  0  0  0  0
   24.7896  -21.4552  -12.3402 C   0  0  1  0  0  0  0  0  0  0  0  0
   23.6547  -20.5232  -12.5244 C   0  0  0  0  0  0  0  0  0  0  0  0
   23.7604  -19.2713  -12.4043 O   0  0  0  0  0  0  0  0  0  0  0  0
   22.3930  -21.0729  -12.8506 N   0  0  0  0  0  0  0  0  0  0  0  0
   21.2099  -20.2515  -13.1860 C   0  0  1  0  0  0  0  0  0  0  0  0
   21.1040  -20.1014  -14.6482 C   0  0  0  0  0  0  0  0  0  0  0  0
   20.8472  -21.3109  -15.4657 C   0  0  0  0  0  0  0  0  0  0  0  0
   19.5887  -21.3476  -16.2334 C   0  0  0  0  0  0  0  0  0  0  0  0
   18.7415  -20.4272  -16.1259 O   0  0  0  0  0  0  0  0  0  0  0  0
   20.0458  -20.6777  -12.4318 C   0  0  0  0  0  0  0  0  0  0  0  0
   19.9677  -21.7909  -11.8919 O   0  0  0  0  0  0  0  0  0  0  0  0
   19.3080  -22.3913  -17.0956 O   0  0  0  0  0  0  0  0  0  0  0  0
   18.9474  -19.8103  -12.2925 O   0  0  0  0  0  0  0  0  0  0  0  0
  2  1  1  6
  2  7  1  0
  3  2  1  0
  4  3  1  0
  5  4  1  0
  6  5  2  0
  7  8  2  0
  7 10  1  0
  9  5  1  0
 10 11  1  0
 11 12  1  0
 13 12  1  0
 14 10  1  0
 14 13  1  0
 15 16  2  0
 14 15  1  1
 17 15  1  0
 18 17  1  0
 18 23  1  0
 18 19  1  6
 20 21  1  0
 20 19  1  0
 21 22  2  0
 23 26  1  0
 24 23  2  0
 25 21  1  0
M  END
$$$$
