EPE.pdb
     RDKit          3D

 26 26  0  0  1  0  0  0  0  0999 V2000
   20.4067  -35.4609   -4.0840 N   0  0  0  0  0  0  0  0  0  0  0  0
   21.3298  -34.3656   -4.0378 C   0  0  1  0  0  0  0  0  0  0  0  0
   20.7759  -33.3401   -3.0891 C   0  0  0  0  0  0  0  0  0  0  0  0
   20.9688  -33.6763   -1.6464 C   0  0  0  0  0  0  0  0  0  0  0  0
   20.3413  -32.6325   -0.7627 C   0  0  0  0  0  0  0  0  0  0  0  0
   19.6269  -32.9424    0.2385 O   0  0  0  0  0  0  0  0  0  0  0  0
   22.7141  -34.7613   -3.8013 C   0  0  0  0  0  0  0  0  0  0  0  0
   22.9753  -35.8237   -3.1477 O   0  0  0  0  0  0  0  0  0  0  0  0
   20.5224  -31.2690   -1.0095 O   0  0  0  0  0  0  0  0  0  0  0  0
   23.8775  -34.0312   -4.2567 N   0  0  0  0  0  0  0  0  0  0  0  0
   23.8059  -32.7688   -4.9387 C   0  0  0  0  0  0  0  0  0  0  0  0
   25.1629  -32.5536   -5.5466 C   0  0  0  0  0  0  0  0  0  0  0  0
   25.8975  -33.8926   -5.3502 C   0  0  0  0  0  0  0  0  0  0  0  0
   25.2475  -34.3819   -4.1055 C   0  0  1  0  0  0  0  0  0  0  0  0
   25.8555  -33.8946   -2.8472 C   0  0  0  0  0  0  0  0  0  0  0  0
   25.3049  -33.0421   -2.0969 O   0  0  0  0  0  0  0  0  0  0  0  0
   27.1169  -34.4161   -2.4762 N   0  0  0  0  0  0  0  0  0  0  0  0
   27.4668  -34.7889   -1.0886 C   0  0  1  0  0  0  0  0  0  0  0  0
   26.3573  -35.5434   -0.4789 C   0  0  0  0  0  0  0  0  0  0  0  0
   26.5299  -36.0645    0.8979 C   0  0  0  0  0  0  0  0  0  0  0  0
   25.4518  -36.9163    1.4334 C   0  0  0  0  0  0  0  0  0  0  0  0
   25.7035  -38.0497    1.9113 O   0  0  0  0  0  0  0  0  0  0  0  0
   28.8129  -35.3253   -1.0141 C   0  0  0  0  0  0  0  0  0  0  0  0
   29.2625  -36.1254   -1.8475 O   0  0  0  0  0  0  0  0  0  0  0  0
   24.1364  -36.4906    1.4294 O   0  0  0  0  0  0  0  0  0  0  0  0
   29.6629  -34.9370    0.0371 O   0  0  0  0  0  0  0  0  0  0  0  0
  2  1  1  1
  2  7  1  0
  3  2  1  0
  4  3  1  0
  5  4  1  0
  6  5  2  0
  7  8  2  0
  7 10  1  0
  9  5  1  0
 10 11  1  0
 11 12  1  0
 13 12  1  0
 14 10  1  0
 14 13  1  0
 15 16  2  0
 14 15  1  1
 17 15  1  0
 18 17  1  0
 18 23  1  0
 18 19  1  6
 20 21  1  0
 20 19  1  0
 21 22  2  0
 23 26  1  0
 24 23  2  0
 25 21  1  0
M  END
$$$$
