EPE.pdb
     RDKit          3D

 26 26  0  0  1  0  0  0  0  0999 V2000
   17.3112  -11.3490  -18.5518 N   0  0  0  0  0  0  0  0  0  0  0  0
   17.0566  -10.7791  -17.2618 C   0  0  1  0  0  0  0  0  0  0  0  0
   17.4540  -11.7936  -16.2268 C   0  0  0  0  0  0  0  0  0  0  0  0
   16.4429  -12.8715  -16.0090 C   0  0  0  0  0  0  0  0  0  0  0  0
   16.9569  -13.9030  -15.0415 C   0  0  0  0  0  0  0  0  0  0  0  0
   17.6462  -14.8967  -15.4237 O   0  0  0  0  0  0  0  0  0  0  0  0
   17.6113   -9.4418  -17.0801 C   0  0  0  0  0  0  0  0  0  0  0  0
   18.5682   -9.0380  -17.8186 O   0  0  0  0  0  0  0  0  0  0  0  0
   16.6954  -13.8071  -13.6721 O   0  0  0  0  0  0  0  0  0  0  0  0
   17.1616   -8.4813  -16.0958 N   0  0  0  0  0  0  0  0  0  0  0  0
   16.0362   -8.6994  -15.2298 C   0  0  0  0  0  0  0  0  0  0  0  0
   15.6958   -7.3545  -14.6532 C   0  0  0  0  0  0  0  0  0  0  0  0
   16.5585   -6.3571  -15.4481 C   0  0  0  0  0  0  0  0  0  0  0  0
   17.7264   -7.2133  -15.7860 C   0  0  1  0  0  0  0  0  0  0  0  0
   18.7855   -7.2651  -14.7536 C   0  0  0  0  0  0  0  0  0  0  0  0
   19.0140   -8.2854  -14.0466 O   0  0  0  0  0  0  0  0  0  0  0  0
   19.5753   -6.1083  -14.5567 N   0  0  0  0  0  0  0  0  0  0  0  0
   21.0486   -6.1403  -14.4345 C   0  0  1  0  0  0  0  0  0  0  0  0
   21.6234   -6.9447  -15.5274 C   0  0  0  0  0  0  0  0  0  0  0  0
   23.0988   -7.0353  -15.6374 C   0  0  0  0  0  0  0  0  0  0  0  0
   23.6413   -7.8169  -16.7640 C   0  0  0  0  0  0  0  0  0  0  0  0
   24.8804   -7.9381  -16.9265 O   0  0  0  0  0  0  0  0  0  0  0  0
   21.5813   -4.8159  -14.1744 C   0  0  0  0  0  0  0  0  0  0  0  0
   22.6080   -4.6258  -13.5062 O   0  0  0  0  0  0  0  0  0  0  0  0
   22.8034   -8.4418  -17.6690 O   0  0  0  0  0  0  0  0  0  0  0  0
   20.9245   -3.6846  -14.6911 O   0  0  0  0  0  0  0  0  0  0  0  0
  2  1  1  6
  2  7  1  0
  3  2  1  0
  4  3  1  0
  5  4  1  0
  6  5  2  0
  7  8  2  0
  7 10  1  0
  9  5  1  0
 10 11  1  0
 11 12  1  0
 13 12  1  0
 14 10  1  0
 14 13  1  0
 15 16  2  0
 14 15  1  1
 17 15  1  0
 18 17  1  0
 18 23  1  0
 18 19  1  6
 20 21  1  0
 20 19  1  0
 21 22  2  0
 23 26  1  0
 24 23  2  0
 25 21  1  0
M  END
$$$$
