EPE.pdb
     RDKit          3D

 26 26  0  0  1  0  0  0  0  0999 V2000
   28.0975  -24.6201  -16.4541 N   0  0  0  0  0  0  0  0  0  0  0  0
   28.0952  -23.2065  -16.6897 C   0  0  1  0  0  0  0  0  0  0  0  0
   28.0251  -22.9903  -18.1752 C   0  0  0  0  0  0  0  0  0  0  0  0
   26.6972  -23.3154  -18.7773 C   0  0  0  0  0  0  0  0  0  0  0  0
   26.6977  -23.0459  -20.2577 C   0  0  0  0  0  0  0  0  0  0  0  0
   25.9290  -22.1846  -20.7831 O   0  0  0  0  0  0  0  0  0  0  0  0
   27.1147  -22.4711  -15.8981 C   0  0  0  0  0  0  0  0  0  0  0  0
   26.2224  -23.0975  -15.2383 O   0  0  0  0  0  0  0  0  0  0  0  0
   27.5524  -23.7372  -21.1206 O   0  0  0  0  0  0  0  0  0  0  0  0
   27.0508  -21.0301  -15.7827 N   0  0  0  0  0  0  0  0  0  0  0  0
   27.9142  -20.1366  -16.5038 C   0  0  0  0  0  0  0  0  0  0  0  0
   27.7742  -18.8000  -15.8321 C   0  0  0  0  0  0  0  0  0  0  0  0
   26.9631  -19.0858  -14.5549 C   0  0  0  0  0  0  0  0  0  0  0  0
   26.1545  -20.2521  -14.9989 C   0  0  1  0  0  0  0  0  0  0  0  0
   24.8919  -19.9124  -15.6924 C   0  0  0  0  0  0  0  0  0  0  0  0
   24.7931  -19.8259  -16.9476 O   0  0  0  0  0  0  0  0  0  0  0  0
   23.7448  -19.6741  -14.8999 N   0  0  0  0  0  0  0  0  0  0  0  0
   22.4057  -19.4061  -15.4671 C   0  0  1  0  0  0  0  0  0  0  0  0
   21.3650  -19.8549  -14.5250 C   0  0  0  0  0  0  0  0  0  0  0  0
   21.4391  -21.2379  -13.9970 C   0  0  0  0  0  0  0  0  0  0  0  0
   20.3194  -21.6953  -13.1533 C   0  0  0  0  0  0  0  0  0  0  0  0
   19.1310  -21.4342  -13.4630 O   0  0  0  0  0  0  0  0  0  0  0  0
   22.3299  -18.0669  -16.0203 C   0  0  0  0  0  0  0  0  0  0  0  0
   23.1371  -17.1733  -15.7256 O   0  0  0  0  0  0  0  0  0  0  0  0
   20.5449  -22.4275  -12.0024 O   0  0  0  0  0  0  0  0  0  0  0  0
   21.3079  -17.7437  -16.9311 O   0  0  0  0  0  0  0  0  0  0  0  0
  2  1  1  6
  2  7  1  0
  3  2  1  0
  4  3  1  0
  5  4  1  0
  6  5  2  0
  7  8  2  0
  7 10  1  0
  9  5  1  0
 10 11  1  0
 11 12  1  0
 13 12  1  0
 14 10  1  0
 14 13  1  0
 15 16  2  0
 14 15  1  6
 17 15  1  0
 18 17  1  0
 18 23  1  0
 18 19  1  1
 20 21  1  0
 20 19  1  0
 21 22  2  0
 23 26  1  0
 24 23  2  0
 25 21  1  0
M  END
$$$$
