STD.pdb
     RDKit          3D

 22 21  0  0  1  0  0  0  0  0999 V2000
   13.1094  -16.5563   15.9274 O   0  0  0  0  0  0  0  0  0  0  0  0
   12.4339  -16.2176   17.1173 C   0  0  0  0  0  0  0  0  0  0  0  0
   12.5089  -14.7122   17.2681 C   0  0  2  0  0  0  0  0  0  0  0  0
   13.9236  -14.3470   17.2754 N   0  0  0  0  0  0  0  0  0  0  0  0
   11.9011  -14.3264   18.5708 C   0  0  0  0  0  0  0  0  0  0  0  0
   12.6533  -13.9771   19.5297 O   0  0  0  0  0  0  0  0  0  0  0  0
    8.4327  -12.3119   19.4586 C   0  0  0  0  0  0  0  0  0  0  0  0
    8.5721  -13.6402   20.1430 C   0  0  1  0  0  0  0  0  0  0  0  0
    7.7349  -14.5636   19.5226 O   0  0  0  0  0  0  0  0  0  0  0  0
   10.0085  -14.1385   20.1319 C   0  0  2  0  0  0  0  0  0  0  0  0
   10.5059  -14.3259   18.8069 N   0  0  0  0  0  0  0  0  0  0  0  0
   10.1087  -15.3449   20.9748 C   0  0  0  0  0  0  0  0  0  0  0  0
   10.3987  -16.4306   20.4202 O   0  0  0  0  0  0  0  0  0  0  0  0
    9.8977  -15.3516   22.3724 N   0  0  0  0  0  0  0  0  0  0  0  0
   10.1806  -16.5609   23.1947 C   0  0  1  0  0  0  0  0  0  0  0  0
   11.6343  -16.9080   23.0762 C   0  0  0  0  0  0  0  0  0  0  0  0
   12.0227  -18.0127   23.9590 C   0  0  0  0  0  0  0  0  0  0  0  0
   12.7088  -17.8961   24.9973 O   0  0  0  0  0  0  0  0  0  0  0  0
    9.7832  -16.2337   24.5847 C   0  0  0  0  0  0  0  0  0  0  0  0
    9.3367  -15.0197   24.9960 O   0  0  0  0  0  0  0  0  0  0  0  0
   11.6270  -19.3409   23.6787 O   0  0  0  0  0  0  0  0  0  0  0  0
    9.8616  -17.1442   25.4628 O   0  0  0  0  0  0  0  0  0  0  0  0
  2  1  1  0
  3  2  1  0
  3  4  1  1
  5 11  1  0
  5  3  1  0
  6  5  2  0
  8  7  1  6
  8 10  1  0
  8  9  1  0
 10 11  1  6
 12 10  1  0
 12 14  1  0
 13 12  2  0
 15 14  1  0
 15 16  1  1
 16 17  1  0
 17 18  2  0
 19 20  1  0
 19 15  1  0
 21 17  1  0
 22 19  2  0
M  END
$$$$
