STD.pdb
     RDKit          3D

 22 21  0  0  1  0  0  0  0  0999 V2000
    9.6298  -17.4342   15.0843 O   0  0  0  0  0  0  0  0  0  0  0  0
    8.2561  -17.1203   15.1223 C   0  0  0  0  0  0  0  0  0  0  0  0
    8.1296  -15.6197   14.9587 C   0  0  2  0  0  0  0  0  0  0  0  0
    8.6375  -15.2838   13.6306 N   0  0  0  0  0  0  0  0  0  0  0  0
    8.9732  -14.9491   15.9852 C   0  0  0  0  0  0  0  0  0  0  0  0
   10.0998  -14.4731   15.6511 O   0  0  0  0  0  0  0  0  0  0  0  0
    7.6727  -12.4147   18.8470 C   0  0  0  0  0  0  0  0  0  0  0  0
    8.6353  -13.4408   19.3690 C   0  0  1  0  0  0  0  0  0  0  0  0
    7.9326  -14.3982   20.0956 O   0  0  0  0  0  0  0  0  0  0  0  0
    9.4254  -14.1013   18.2504 C   0  0  2  0  0  0  0  0  0  0  0  0
    8.5845  -14.8081   17.3385 N   0  0  0  0  0  0  0  0  0  0  0  0
   10.4902  -14.9361   18.8378 C   0  0  0  0  0  0  0  0  0  0  0  0
   10.3589  -16.1815   18.7893 O   0  0  0  0  0  0  0  0  0  0  0  0
   11.6521  -14.4169   19.4529 N   0  0  0  0  0  0  0  0  0  0  0  0
   12.6927  -15.3136   20.0289 C   0  0  1  0  0  0  0  0  0  0  0  0
   14.0178  -14.6129   19.9996 C   0  0  0  0  0  0  0  0  0  0  0  0
   14.5236  -14.4226   18.6363 C   0  0  0  0  0  0  0  0  0  0  0  0
   14.2896  -15.1805   17.6703 O   0  0  0  0  0  0  0  0  0  0  0  0
   12.2536  -15.6475   21.4046 C   0  0  0  0  0  0  0  0  0  0  0  0
   12.8151  -16.6061   22.1844 O   0  0  0  0  0  0  0  0  0  0  0  0
   15.3455  -13.3183   18.3134 O   0  0  0  0  0  0  0  0  0  0  0  0
   11.2842  -14.9990   21.9007 O   0  0  0  0  0  0  0  0  0  0  0  0
  2  1  1  0
  3  2  1  0
  3  4  1  6
  5 11  1  0
  5  3  1  0
  6  5  2  0
  8  7  1  6
  8 10  1  0
  8  9  1  0
 10 11  1  1
 12 10  1  0
 12 14  1  0
 13 12  2  0
 15 14  1  0
 15 16  1  1
 16 17  1  0
 17 18  2  0
 19 20  1  0
 19 15  1  0
 21 17  1  0
 22 19  2  0
M  END
$$$$
