STD.pdb
     RDKit          3D

 22 21  0  0  1  0  0  0  0  0999 V2000
   11.5641  -15.3016   17.0521 O   0  0  0  0  0  0  0  0  0  0  0  0
   11.1404  -13.9893   17.3438 C   0  0  0  0  0  0  0  0  0  0  0  0
    9.6962  -14.0691   17.7942 C   0  0  2  0  0  0  0  0  0  0  0  0
    9.0042  -12.9078   17.2400 N   0  0  0  0  0  0  0  0  0  0  0  0
    9.6492  -13.9989   19.2802 C   0  0  0  0  0  0  0  0  0  0  0  0
    9.9593  -12.9162   19.8625 O   0  0  0  0  0  0  0  0  0  0  0  0
    7.0021  -13.8080   21.6083 C   0  0  0  0  0  0  0  0  0  0  0  0
    7.8182  -14.9815   22.0654 C   0  0  1  0  0  0  0  0  0  0  0  0
    7.1844  -16.1581   21.6752 O   0  0  0  0  0  0  0  0  0  0  0  0
    9.2354  -14.9378   21.5166 C   0  0  2  0  0  0  0  0  0  0  0  0
    9.2711  -15.0903   20.0976 N   0  0  0  0  0  0  0  0  0  0  0  0
   10.0635  -15.9239   22.2360 C   0  0  0  0  0  0  0  0  0  0  0  0
   10.3493  -16.9946   21.6508 O   0  0  0  0  0  0  0  0  0  0  0  0
   10.5559  -15.7351   23.5475 N   0  0  0  0  0  0  0  0  0  0  0  0
   11.3004  -16.8107   24.2598 C   0  0  1  0  0  0  0  0  0  0  0  0
   12.6687  -16.3110   24.6143 C   0  0  0  0  0  0  0  0  0  0  0  0
   13.5791  -16.3005   23.4647 C   0  0  0  0  0  0  0  0  0  0  0  0
   13.7732  -17.2640   22.6925 O   0  0  0  0  0  0  0  0  0  0  0  0
   10.4961  -17.1678   25.4526 C   0  0  0  0  0  0  0  0  0  0  0  0
    9.3342  -16.5644   25.8108 O   0  0  0  0  0  0  0  0  0  0  0  0
   14.3292  -15.1461   23.1419 O   0  0  0  0  0  0  0  0  0  0  0  0
   10.9124  -18.1019   26.2011 O   0  0  0  0  0  0  0  0  0  0  0  0
  2  1  1  0
  3  2  1  0
  3  4  1  6
  5 11  1  0
  5  3  1  0
  6  5  2  0
  8  7  1  6
  8 10  1  0
  8  9  1  0
 10 11  1  6
 12 10  1  0
 12 14  1  0
 13 12  2  0
 15 14  1  0
 15 16  1  1
 16 17  1  0
 17 18  2  0
 19 20  1  0
 19 15  1  0
 21 17  1  0
 22 19  2  0
M  END
$$$$
