STD.pdb
     RDKit          3D

 22 21  0  0  1  0  0  0  0  0999 V2000
    8.0455  -18.1193   14.6976 O   0  0  0  0  0  0  0  0  0  0  0  0
    8.8190  -17.5137   15.7084 C   0  0  0  0  0  0  0  0  0  0  0  0
    8.4223  -16.0530   15.7687 C   0  0  2  0  0  0  0  0  0  0  0  0
    8.9489  -15.4105   14.5667 N   0  0  0  0  0  0  0  0  0  0  0  0
    9.0498  -15.4311   16.9664 C   0  0  0  0  0  0  0  0  0  0  0  0
   10.2385  -14.9965   16.8916 O   0  0  0  0  0  0  0  0  0  0  0  0
    7.3568  -12.7619   19.3203 C   0  0  0  0  0  0  0  0  0  0  0  0
    8.0578  -13.8127   20.1306 C   0  0  1  0  0  0  0  0  0  0  0  0
    7.1090  -14.6485   20.7133 O   0  0  0  0  0  0  0  0  0  0  0  0
    9.0316  -14.6238   19.2907 C   0  0  2  0  0  0  0  0  0  0  0  0
    8.3851  -15.2931   18.2080 N   0  0  0  0  0  0  0  0  0  0  0  0
    9.7934  -15.5288   20.1719 C   0  0  0  0  0  0  0  0  0  0  0  0
    9.5785  -16.7601   20.0819 O   0  0  0  0  0  0  0  0  0  0  0  0
   10.7529  -15.0918   21.1133 N   0  0  0  0  0  0  0  0  0  0  0  0
   11.4517  -16.0517   22.0127 C   0  0  1  0  0  0  0  0  0  0  0  0
   12.8978  -15.6692   22.1131 C   0  0  0  0  0  0  0  0  0  0  0  0
   13.6470  -16.5365   23.0280 C   0  0  0  0  0  0  0  0  0  0  0  0
   13.3060  -17.6907   23.3655 O   0  0  0  0  0  0  0  0  0  0  0  0
   10.7544  -15.9964   23.3194 C   0  0  0  0  0  0  0  0  0  0  0  0
   10.8863  -16.9191   24.3062 O   0  0  0  0  0  0  0  0  0  0  0  0
   14.8588  -16.1020   23.6129 O   0  0  0  0  0  0  0  0  0  0  0  0
    9.9749  -15.0227   23.5446 O   0  0  0  0  0  0  0  0  0  0  0  0
  2  1  1  0
  3  2  1  0
  3  4  1  6
  5 11  1  0
  5  3  1  0
  6  5  2  0
  8  7  1  6
  8 10  1  0
  8  9  1  0
 10 11  1  6
 12 10  1  0
 12 14  1  0
 13 12  2  0
 15 14  1  0
 15 16  1  1
 16 17  1  0
 17 18  2  0
 19 20  1  0
 19 15  1  0
 21 17  1  0
 22 19  2  0
M  END
$$$$
