STD.pdb
     RDKit          3D

 22 21  0  0  1  0  0  0  0  0999 V2000
    8.4339  -18.9283   18.7689 O   0  0  0  0  0  0  0  0  0  0  0  0
    7.5007  -18.2521   17.9573 C   0  0  0  0  0  0  0  0  0  0  0  0
    8.1525  -16.9660   17.4927 C   0  0  2  0  0  0  0  0  0  0  0  0
    9.2114  -17.3308   16.5543 N   0  0  0  0  0  0  0  0  0  0  0  0
    8.7587  -16.2803   18.6663 C   0  0  0  0  0  0  0  0  0  0  0  0
   10.0202  -16.2579   18.7912 O   0  0  0  0  0  0  0  0  0  0  0  0
    7.5913  -12.8610   20.6415 C   0  0  0  0  0  0  0  0  0  0  0  0
    7.8157  -14.0521   21.5265 C   0  0  1  0  0  0  0  0  0  0  0  0
    6.5836  -14.5667   21.9206 O   0  0  0  0  0  0  0  0  0  0  0  0
    8.6408  -15.1267   20.8365 C   0  0  2  0  0  0  0  0  0  0  0  0
    7.9955  -15.6390   19.6707 N   0  0  0  0  0  0  0  0  0  0  0  0
    8.9970  -16.1683   21.8184 C   0  0  0  0  0  0  0  0  0  0  0  0
    8.5729  -17.3316   21.6256 O   0  0  0  0  0  0  0  0  0  0  0  0
    9.7893  -15.9345   22.9654 N   0  0  0  0  0  0  0  0  0  0  0  0
   10.2019  -17.0482   23.8643 C   0  0  1  0  0  0  0  0  0  0  0  0
   11.0897  -17.9894   23.1069 C   0  0  0  0  0  0  0  0  0  0  0  0
   11.7132  -18.9949   23.9734 C   0  0  0  0  0  0  0  0  0  0  0  0
   11.1168  -19.9578   24.5019 O   0  0  0  0  0  0  0  0  0  0  0  0
   10.8846  -16.4286   25.0249 C   0  0  0  0  0  0  0  0  0  0  0  0
   11.7084  -15.3522   24.9534 O   0  0  0  0  0  0  0  0  0  0  0  0
   13.0924  -18.9361   24.2796 O   0  0  0  0  0  0  0  0  0  0  0  0
   10.6946  -16.9307   26.1730 O   0  0  0  0  0  0  0  0  0  0  0  0
  2  1  1  0
  3  2  1  0
  3  4  1  6
  5 11  1  0
  5  3  1  0
  6  5  2  0
  8  7  1  6
  8 10  1  0
  8  9  1  0
 10 11  1  6
 12 10  1  0
 12 14  1  0
 13 12  2  0
 15 14  1  0
 15 16  1  6
 16 17  1  0
 17 18  2  0
 19 20  1  0
 19 15  1  0
 21 17  1  0
 22 19  2  0
M  END
$$$$
