STD.pdb
     RDKit          3D

 22 21  0  0  1  0  0  0  0  0999 V2000
    9.2942  -19.6209   18.6574 O   0  0  0  0  0  0  0  0  0  0  0  0
    8.1404  -19.4123   17.8750 C   0  0  0  0  0  0  0  0  0  0  0  0
    8.2423  -18.0234   17.2789 C   0  0  2  0  0  0  0  0  0  0  0  0
    9.2868  -18.0651   16.2581 N   0  0  0  0  0  0  0  0  0  0  0  0
    8.6445  -17.0679   18.3467 C   0  0  0  0  0  0  0  0  0  0  0  0
    9.8649  -16.7455   18.4663 O   0  0  0  0  0  0  0  0  0  0  0  0
    6.0370  -15.5792   21.5306 C   0  0  0  0  0  0  0  0  0  0  0  0
    7.0735  -14.7407   20.8416 C   0  0  1  0  0  0  0  0  0  0  0  0
    7.5860  -13.8142   21.7456 O   0  0  0  0  0  0  0  0  0  0  0  0
    8.1947  -15.5864   20.2591 C   0  0  2  0  0  0  0  0  0  0  0  0
    7.7276  -16.4861   19.2539 N   0  0  0  0  0  0  0  0  0  0  0  0
    8.9177  -16.2545   21.3577 C   0  0  0  0  0  0  0  0  0  0  0  0
    8.6029  -17.4340   21.6407 O   0  0  0  0  0  0  0  0  0  0  0  0
    9.9461  -15.6450   22.1120 N   0  0  0  0  0  0  0  0  0  0  0  0
   10.7232  -16.4106   23.1262 C   0  0  1  0  0  0  0  0  0  0  0  0
   12.1236  -15.8779   23.1787 C   0  0  0  0  0  0  0  0  0  0  0  0
   13.0273  -16.7451   23.9414 C   0  0  0  0  0  0  0  0  0  0  0  0
   12.7767  -17.9209   24.2838 O   0  0  0  0  0  0  0  0  0  0  0  0
   10.0064  -16.2603   24.4149 C   0  0  0  0  0  0  0  0  0  0  0  0
   10.0884  -17.1324   25.4518 O   0  0  0  0  0  0  0  0  0  0  0  0
   14.2982  -16.2850   24.3566 O   0  0  0  0  0  0  0  0  0  0  0  0
    9.2589  -15.2491   24.5731 O   0  0  0  0  0  0  0  0  0  0  0  0
  2  1  1  0
  3  2  1  0
  3  4  1  6
  5 11  1  0
  5  3  1  0
  6  5  2  0
  8  7  1  1
  8 10  1  0
  8  9  1  0
 10 11  1  6
 12 10  1  0
 12 14  1  0
 13 12  2  0
 15 14  1  0
 15 16  1  1
 16 17  1  0
 17 18  2  0
 19 20  1  0
 19 15  1  0
 21 17  1  0
 22 19  2  0
M  END
$$$$
