STD.pdb
     RDKit          3D

 22 21  0  0  1  0  0  0  0  0999 V2000
   16.9115  -14.1986   19.6908 O   0  0  0  0  0  0  0  0  0  0  0  0
   16.4986  -13.4713   18.5562 C   0  0  0  0  0  0  0  0  0  0  0  0
   15.5821  -14.3695   17.7511 C   0  0  2  0  0  0  0  0  0  0  0  0
   15.2601  -13.6630   16.5134 N   0  0  0  0  0  0  0  0  0  0  0  0
   14.3288  -14.5956   18.5213 C   0  0  0  0  0  0  0  0  0  0  0  0
   13.4607  -13.6736   18.5827 O   0  0  0  0  0  0  0  0  0  0  0  0
   11.4720  -16.7052   18.0340 C   0  0  0  0  0  0  0  0  0  0  0  0
   11.9175  -16.9953   19.4374 C   0  0  1  0  0  0  0  0  0  0  0  0
   12.5463  -18.2370   19.4694 O   0  0  0  0  0  0  0  0  0  0  0  0
   12.8472  -15.9184   19.9737 C   0  0  2  0  0  0  0  0  0  0  0  0
   14.0428  -15.8026   19.2023 N   0  0  0  0  0  0  0  0  0  0  0  0
   13.0925  -16.1613   21.4078 C   0  0  0  0  0  0  0  0  0  0  0  0
   14.2739  -16.3485   21.7815 O   0  0  0  0  0  0  0  0  0  0  0  0
   12.0752  -16.1955   22.3885 N   0  0  0  0  0  0  0  0  0  0  0  0
   12.3757  -16.5326   23.8078 C   0  0  1  0  0  0  0  0  0  0  0  0
   11.1149  -16.4402   24.6137 C   0  0  0  0  0  0  0  0  0  0  0  0
   11.3060  -16.8555   26.0071 C   0  0  0  0  0  0  0  0  0  0  0  0
   10.9664  -17.9612   26.4807 O   0  0  0  0  0  0  0  0  0  0  0  0
   12.9551  -17.8969   23.8084 C   0  0  0  0  0  0  0  0  0  0  0  0
   12.7054  -18.8436   22.8683 O   0  0  0  0  0  0  0  0  0  0  0  0
   11.9150  -15.9915   26.9462 O   0  0  0  0  0  0  0  0  0  0  0  0
   13.7417  -18.2160   24.7496 O   0  0  0  0  0  0  0  0  0  0  0  0
  2  1  1  0
  3  2  1  0
  3  4  1  6
  5 11  1  0
  5  3  1  0
  6  5  2  0
  8  7  1  6
  8 10  1  0
  8  9  1  0
 10 11  1  6
 12 10  1  0
 12 14  1  0
 13 12  2  0
 15 14  1  0
 15 16  1  1
 16 17  1  0
 17 18  2  0
 19 20  1  0
 19 15  1  0
 21 17  1  0
 22 19  2  0
M  END
$$$$
