STD.pdb
     RDKit          3D

 22 21  0  0  1  0  0  0  0  0999 V2000
    9.9475  -17.0463   15.5166 O   0  0  0  0  0  0  0  0  0  0  0  0
    8.5569  -16.9127   15.7039 C   0  0  0  0  0  0  0  0  0  0  0  0
    8.2517  -15.4314   15.7908 C   0  0  2  0  0  0  0  0  0  0  0  0
    8.8094  -14.8029   14.5956 N   0  0  0  0  0  0  0  0  0  0  0  0
    8.9242  -14.8695   16.9938 C   0  0  0  0  0  0  0  0  0  0  0  0
   10.0217  -14.2488   16.8606 O   0  0  0  0  0  0  0  0  0  0  0  0
    7.2644  -12.7674   19.8792 C   0  0  0  0  0  0  0  0  0  0  0  0
    8.1515  -13.8357   20.4484 C   0  0  1  0  0  0  0  0  0  0  0  0
    7.3606  -14.8464   20.9880 O   0  0  0  0  0  0  0  0  0  0  0  0
    9.0979  -14.4060   19.4040 C   0  0  2  0  0  0  0  0  0  0  0  0
    8.4008  -14.9890   18.3030 N   0  0  0  0  0  0  0  0  0  0  0  0
   10.0417  -15.3307   20.0598 C   0  0  0  0  0  0  0  0  0  0  0  0
    9.9976  -16.5424   19.7434 O   0  0  0  0  0  0  0  0  0  0  0  0
   10.9949  -14.9333   21.0249 N   0  0  0  0  0  0  0  0  0  0  0  0
   11.8913  -15.9232   21.6846 C   0  0  1  0  0  0  0  0  0  0  0  0
   13.2939  -15.3936   21.6857 C   0  0  0  0  0  0  0  0  0  0  0  0
   14.2393  -16.3062   22.3367 C   0  0  0  0  0  0  0  0  0  0  0  0
   14.3103  -17.5366   22.1285 O   0  0  0  0  0  0  0  0  0  0  0  0
   11.3597  -16.1347   23.0520 C   0  0  0  0  0  0  0  0  0  0  0  0
   10.2841  -15.4902   23.5719 O   0  0  0  0  0  0  0  0  0  0  0  0
   15.1741  -15.8297   23.2847 O   0  0  0  0  0  0  0  0  0  0  0  0
   11.9426  -16.9748   23.8007 O   0  0  0  0  0  0  0  0  0  0  0  0
  2  1  1  0
  3  2  1  0
  3  4  1  6
  5 11  1  0
  5  3  1  0
  6  5  2  0
  8  7  1  6
  8 10  1  0
  8  9  1  0
 10 11  1  6
 12 10  1  0
 12 14  1  0
 13 12  2  0
 15 14  1  0
 15 16  1  1
 16 17  1  0
 17 18  2  0
 19 20  1  0
 19 15  1  0
 21 17  1  0
 22 19  2  0
M  END
$$$$
