STD.pdb
     RDKit          3D

 22 21  0  0  1  0  0  0  0  0999 V2000
    8.2222  -18.6775   18.6155 O   0  0  0  0  0  0  0  0  0  0  0  0
    8.9014  -18.3354   17.4287 C   0  0  0  0  0  0  0  0  0  0  0  0
    8.6024  -16.8789   17.1393 C   0  0  2  0  0  0  0  0  0  0  0  0
    9.3144  -16.5252   15.9134 N   0  0  0  0  0  0  0  0  0  0  0  0
    9.1214  -16.0475   18.2594 C   0  0  0  0  0  0  0  0  0  0  0  0
   10.3575  -15.7695   18.3076 O   0  0  0  0  0  0  0  0  0  0  0  0
    7.6661  -12.7233   20.1071 C   0  0  0  0  0  0  0  0  0  0  0  0
    7.9629  -13.8586   21.0426 C   0  0  1  0  0  0  0  0  0  0  0  0
    6.7669  -14.4601   21.4246 O   0  0  0  0  0  0  0  0  0  0  0  0
    8.8936  -14.8845   20.4157 C   0  0  2  0  0  0  0  0  0  0  0  0
    8.3008  -15.5386   19.2938 N   0  0  0  0  0  0  0  0  0  0  0  0
    9.3620  -15.8148   21.4601 C   0  0  0  0  0  0  0  0  0  0  0  0
    8.8580  -16.9615   21.4990 O   0  0  0  0  0  0  0  0  0  0  0  0
   10.3467  -15.4921   22.4216 N   0  0  0  0  0  0  0  0  0  0  0  0
   10.7873  -16.4814   23.4441 C   0  0  1  0  0  0  0  0  0  0  0  0
   12.1911  -16.1637   23.8640 C   0  0  0  0  0  0  0  0  0  0  0  0
   13.1615  -16.3688   22.7838 C   0  0  0  0  0  0  0  0  0  0  0  0
   12.9645  -17.0616   21.7623 O   0  0  0  0  0  0  0  0  0  0  0  0
    9.8222  -16.3939   24.5656 C   0  0  0  0  0  0  0  0  0  0  0  0
    8.8562  -15.4476   24.6826 O   0  0  0  0  0  0  0  0  0  0  0  0
   14.4404  -15.7676   22.8316 O   0  0  0  0  0  0  0  0  0  0  0  0
    9.8934  -17.2587   25.4894 O   0  0  0  0  0  0  0  0  0  0  0  0
  2  1  1  0
  3  2  1  0
  3  4  1  6
  5 11  1  0
  5  3  1  0
  6  5  2  0
  8  7  1  6
  8 10  1  0
  8  9  1  0
 10 11  1  6
 12 10  1  0
 12 14  1  0
 13 12  2  0
 15 14  1  0
 15 16  1  1
 16 17  1  0
 17 18  2  0
 19 20  1  0
 19 15  1  0
 21 17  1  0
 22 19  2  0
M  END
$$$$
