STD.pdb
     RDKit          3D

 22 21  0  0  1  0  0  0  0  0999 V2000
    7.1991  -17.7342   15.6642 O   0  0  0  0  0  0  0  0  0  0  0  0
    7.9739  -16.8888   16.4838 C   0  0  0  0  0  0  0  0  0  0  0  0
    8.4388  -17.7090   17.6695 C   0  0  2  0  0  0  0  0  0  0  0  0
    7.2704  -18.4099   18.1969 N   0  0  0  0  0  0  0  0  0  0  0  0
    8.9670  -16.7905   18.7148 C   0  0  0  0  0  0  0  0  0  0  0  0
    9.9820  -16.0749   18.4598 O   0  0  0  0  0  0  0  0  0  0  0  0
    6.9824  -14.2696   20.9987 C   0  0  0  0  0  0  0  0  0  0  0  0
    7.9308  -15.0927   21.8203 C   0  0  1  0  0  0  0  0  0  0  0  0
    7.2065  -16.0316   22.5498 O   0  0  0  0  0  0  0  0  0  0  0  0
    8.9766  -15.7843   20.9602 C   0  0  2  0  0  0  0  0  0  0  0  0
    8.3918  -16.6660   20.0017 N   0  0  0  0  0  0  0  0  0  0  0  0
    9.9670  -16.4391   21.8355 C   0  0  0  0  0  0  0  0  0  0  0  0
    9.8861  -17.6794   21.9948 O   0  0  0  0  0  0  0  0  0  0  0  0
   11.0041  -15.7522   22.5068 N   0  0  0  0  0  0  0  0  0  0  0  0
   12.0128  -16.4789   23.3272 C   0  0  1  0  0  0  0  0  0  0  0  0
   13.3467  -15.8123   23.1719 C   0  0  0  0  0  0  0  0  0  0  0  0
   14.4037  -16.4842   23.9347 C   0  0  0  0  0  0  0  0  0  0  0  0
   14.5321  -17.7223   24.0484 O   0  0  0  0  0  0  0  0  0  0  0  0
   11.5220  -16.4553   24.7256 C   0  0  0  0  0  0  0  0  0  0  0  0
   10.4170  -15.7887   25.1462 O   0  0  0  0  0  0  0  0  0  0  0  0
   15.3904  -15.7395   24.6212 O   0  0  0  0  0  0  0  0  0  0  0  0
   12.1721  -17.0995   25.6023 O   0  0  0  0  0  0  0  0  0  0  0  0
  2  1  1  0
  3  2  1  0
  3  4  1  1
  5 11  1  0
  5  3  1  0
  6  5  2  0
  8  7  1  6
  8 10  1  0
  8  9  1  0
 10 11  1  1
 12 10  1  0
 12 14  1  0
 13 12  2  0
 15 14  1  0
 15 16  1  1
 16 17  1  0
 17 18  2  0
 19 20  1  0
 19 15  1  0
 21 17  1  0
 22 19  2  0
M  END
$$$$
