STD.pdb
     RDKit          3D

 22 21  0  0  1  0  0  0  0  0999 V2000
    7.9613  -15.2350   15.3157 O   0  0  0  0  0  0  0  0  0  0  0  0
    8.8407  -16.3354   15.2641 C   0  0  0  0  0  0  0  0  0  0  0  0
    8.6880  -17.0988   16.5636 C   0  0  2  0  0  0  0  0  0  0  0  0
    7.2664  -17.3925   16.7297 N   0  0  0  0  0  0  0  0  0  0  0  0
    9.1398  -16.2341   17.6876 C   0  0  0  0  0  0  0  0  0  0  0  0
   10.3672  -15.9322   17.7865 O   0  0  0  0  0  0  0  0  0  0  0  0
    7.4236  -12.9210   19.2206 C   0  0  0  0  0  0  0  0  0  0  0  0
    7.7864  -13.9282   20.2723 C   0  0  1  0  0  0  0  0  0  0  0  0
    6.6288  -14.5607   20.7175 O   0  0  0  0  0  0  0  0  0  0  0  0
    8.7844  -14.9536   19.7584 C   0  0  2  0  0  0  0  0  0  0  0  0
    8.2632  -15.7184   18.6715 N   0  0  0  0  0  0  0  0  0  0  0  0
    9.2550  -15.7786   20.8870 C   0  0  0  0  0  0  0  0  0  0  0  0
    8.8589  -16.9654   20.9567 O   0  0  0  0  0  0  0  0  0  0  0  0
   10.1274  -15.3121   21.8966 N   0  0  0  0  0  0  0  0  0  0  0  0
   10.6411  -16.2202   22.9596 C   0  0  1  0  0  0  0  0  0  0  0  0
   12.0550  -15.8445   23.2875 C   0  0  0  0  0  0  0  0  0  0  0  0
   12.8252  -16.9694   23.8278 C   0  0  0  0  0  0  0  0  0  0  0  0
   12.3663  -18.1080   24.0628 O   0  0  0  0  0  0  0  0  0  0  0  0
    9.7290  -16.0780   24.1192 C   0  0  0  0  0  0  0  0  0  0  0  0
    9.4014  -17.0809   24.9732 O   0  0  0  0  0  0  0  0  0  0  0  0
   14.1994  -16.8307   24.1308 O   0  0  0  0  0  0  0  0  0  0  0  0
    9.2097  -14.9432   24.3405 O   0  0  0  0  0  0  0  0  0  0  0  0
  2  1  1  0
  3  2  1  0
  3  4  1  1
  5 11  1  0
  5  3  1  0
  6  5  2  0
  8  7  1  6
  8 10  1  0
  8  9  1  0
 10 11  1  6
 12 10  1  0
 12 14  1  0
 13 12  2  0
 15 14  1  0
 15 16  1  1
 16 17  1  0
 17 18  2  0
 19 20  1  0
 19 15  1  0
 21 17  1  0
 22 19  2  0
M  END
$$$$
