STD.pdb
     RDKit          3D

 22 21  0  0  1  0  0  0  0  0999 V2000
   -0.1900  -23.1965   23.8166 O   0  0  0  0  0  0  0  0  0  0  0  0
   -1.4714  -23.6302   24.2126 C   0  0  0  0  0  0  0  0  0  0  0  0
   -1.3142  -25.0057   24.8275 C   0  0  2  0  0  0  0  0  0  0  0  0
   -1.0706  -25.9442   23.7344 N   0  0  0  0  0  0  0  0  0  0  0  0
   -2.5825  -25.3765   25.5123 C   0  0  0  0  0  0  0  0  0  0  0  0
   -3.5582  -25.8060   24.8260 O   0  0  0  0  0  0  0  0  0  0  0  0
   -3.3416  -28.1073   27.7697 C   0  0  0  0  0  0  0  0  0  0  0  0
   -3.7990  -26.8602   28.4681 C   0  0  1  0  0  0  0  0  0  0  0  0
   -2.8699  -26.5180   29.4468 O   0  0  0  0  0  0  0  0  0  0  0  0
   -3.9959  -25.7049   27.4995 C   0  0  2  0  0  0  0  0  0  0  0  0
   -2.7675  -25.2763   26.9117 N   0  0  0  0  0  0  0  0  0  0  0  0
   -4.7322  -24.6230   28.1801 C   0  0  0  0  0  0  0  0  0  0  0  0
   -4.0982  -23.5935   28.5097 O   0  0  0  0  0  0  0  0  0  0  0  0
   -6.1117  -24.6759   28.4837 N   0  0  0  0  0  0  0  0  0  0  0  0
   -6.7780  -23.5937   29.2604 C   0  0  1  0  0  0  0  0  0  0  0  0
   -8.0689  -23.2296   28.5904 C   0  0  0  0  0  0  0  0  0  0  0  0
   -8.8144  -22.2029   29.3256 C   0  0  0  0  0  0  0  0  0  0  0  0
   -8.3044  -21.2161   29.8987 O   0  0  0  0  0  0  0  0  0  0  0  0
   -6.9747  -24.1142   30.6342 C   0  0  0  0  0  0  0  0  0  0  0  0
   -6.7132  -25.3879   31.0236 O   0  0  0  0  0  0  0  0  0  0  0  0
  -10.2225  -22.2670   29.4373 O   0  0  0  0  0  0  0  0  0  0  0  0
   -7.4194  -23.3234   31.5192 O   0  0  0  0  0  0  0  0  0  0  0  0
  2  1  1  0
  3  2  1  0
  3  4  1  6
  5 11  1  0
  5  3  1  0
  6  5  2  0
  8  7  1  6
  8 10  1  0
  8  9  1  0
 10 11  1  1
 12 10  1  0
 12 14  1  0
 13 12  2  0
 15 14  1  0
 15 16  1  6
 16 17  1  0
 17 18  2  0
 19 20  1  0
 19 15  1  0
 21 17  1  0
 22 19  2  0
M  END
$$$$
