STD.pdb
     RDKit          3D

 22 21  0  0  1  0  0  0  0  0999 V2000
   11.0963  -17.6650   16.4411 O   0  0  0  0  0  0  0  0  0  0  0  0
    9.8491  -17.1464   16.0382 C   0  0  0  0  0  0  0  0  0  0  0  0
   10.0165  -15.6514   15.8597 C   0  0  2  0  0  0  0  0  0  0  0  0
   11.1762  -15.4450   14.9953 N   0  0  0  0  0  0  0  0  0  0  0  0
   10.2839  -15.0334   17.1870 C   0  0  0  0  0  0  0  0  0  0  0  0
   11.4166  -14.5111   17.4138 O   0  0  0  0  0  0  0  0  0  0  0  0
    7.7736  -12.6875   19.2978 C   0  0  0  0  0  0  0  0  0  0  0  0
    8.4187  -13.7526   20.1354 C   0  0  1  0  0  0  0  0  0  0  0  0
    7.4868  -14.7524   20.4001 O   0  0  0  0  0  0  0  0  0  0  0  0
    9.6476  -14.3410   19.4608 C   0  0  2  0  0  0  0  0  0  0  0  0
    9.3298  -14.9931   18.2312 N   0  0  0  0  0  0  0  0  0  0  0  0
   10.3584  -15.2070   20.4203 C   0  0  0  0  0  0  0  0  0  0  0  0
   10.4592  -16.4271   20.1526 O   0  0  0  0  0  0  0  0  0  0  0  0
   10.9343  -14.7444   21.6255 N   0  0  0  0  0  0  0  0  0  0  0  0
   11.5529  -15.6842   22.6015 C   0  0  1  0  0  0  0  0  0  0  0  0
   10.5626  -16.7545   22.9501 C   0  0  0  0  0  0  0  0  0  0  0  0
    9.6233  -16.3334   23.9945 C   0  0  0  0  0  0  0  0  0  0  0  0
    8.7104  -17.0430   24.4693 O   0  0  0  0  0  0  0  0  0  0  0  0
   12.7742  -16.2239   21.9581 C   0  0  0  0  0  0  0  0  0  0  0  0
   12.9322  -16.3967   20.6211 O   0  0  0  0  0  0  0  0  0  0  0  0
    9.6945  -15.0380   24.5569 O   0  0  0  0  0  0  0  0  0  0  0  0
   13.7490  -16.5525   22.6985 O   0  0  0  0  0  0  0  0  0  0  0  0
  2  1  1  0
  3  2  1  0
  3  4  1  6
  5 11  1  0
  5  3  1  0
  6  5  2  0
  8  7  1  6
  8 10  1  0
  8  9  1  0
 10 11  1  6
 12 10  1  0
 12 14  1  0
 13 12  2  0
 15 14  1  0
 15 16  1  6
 16 17  1  0
 17 18  2  0
 19 20  1  0
 19 15  1  0
 21 17  1  0
 22 19  2  0
M  END
$$$$
