QHV.pdb
     RDKit          3D

 27 27  0  0  1  0  0  0  0  0999 V2000
   11.6056  -13.4690   19.8074 N   0  0  0  0  0  0  0  0  0  0  0  0
   10.9188  -13.6064   18.5882 C   0  0  0  0  0  0  0  0  0  0  0  0
   11.4315  -14.2474   17.6552 O   0  0  0  0  0  0  0  0  0  0  0  0
    9.5936  -12.9924   18.4148 C   0  0  0  0  0  0  0  0  0  0  0  0
    8.6610  -13.2820   19.5645 C   0  0  0  0  0  0  0  0  0  0  0  0
    8.4105  -14.7956   19.5464 C   0  0  2  0  0  0  0  0  0  0  0  0
    7.5197  -15.1682   18.4898 N   0  0  0  0  0  0  0  0  0  0  0  0
    7.8387  -15.2449   20.8397 C   0  0  0  0  0  0  0  0  0  0  0  0
    6.5742  -15.2079   20.9277 O   0  0  0  0  0  0  0  0  0  0  0  0
    8.6985  -15.6783   21.8778 N   0  0  0  0  0  0  0  0  0  0  0  0
    8.1374  -16.2259   23.0828 C   0  0  1  0  0  0  0  0  0  0  0  0
    8.6394  -17.6050   23.3331 C   0  0  0  0  0  0  0  0  0  0  0  0
    8.2698  -18.1148   24.6766 C   0  0  0  0  0  0  0  0  0  0  0  0
    9.0222  -18.1478   25.8314 C   0  0  0  0  0  0  0  0  0  0  0  0
    8.2549  -18.7085   26.8126 N   0  0  0  0  0  0  0  0  0  0  0  0
    7.0636  -19.0157   26.2896 C   0  0  0  0  0  0  0  0  0  0  0  0
    7.0848  -18.6550   25.0085 N   0  0  0  0  0  0  0  0  0  0  0  0
    8.4525  -15.2909   24.2136 C   0  0  0  0  0  0  0  0  0  0  0  0
    9.5723  -14.7648   24.2235 O   0  0  0  0  0  0  0  0  0  0  0  0
    5.9230  -12.6429   25.7490 C   0  0  0  0  0  0  0  0  0  0  0  0
    6.4691  -13.4933   26.8697 C   0  0  2  0  0  0  0  0  0  0  0  0
    6.7588  -12.5951   28.0518 C   0  0  0  0  0  0  0  0  0  0  0  0
    7.6723  -14.2559   26.4132 C   0  0  2  0  0  0  0  0  0  0  0  0
    7.5206  -15.0154   25.2277 N   0  0  0  0  0  0  0  0  0  0  0  0
    8.4539  -14.9020   27.4581 C   0  0  0  0  0  0  0  0  0  0  0  0
    8.1741  -16.0422   27.8723 O   0  0  0  0  0  0  0  0  0  0  0  0
    9.5401  -14.2451   28.0163 O   0  0  0  0  0  0  0  0  0  0  0  0
  2  1  1  0
  3  2  2  0
  4  2  1  0
  5  4  1  0
  6  5  1  0
  6  8  1  0
  6  7  1  6
  8  9  2  0
 10  8  1  0
 10 11  1  0
 11 12  1  1
 12 13  1  0
 13 17  1  0
 14 13  2  0
 14 15  1  0
 15 16  1  0
 17 16  2  0
 18 19  2  0
 18 11  1  0
 21 20  1  6
 21 23  1  0
 22 21  1  0
 23 24  1  6
 24 18  1  0
 25 23  1  0
 25 27  1  0
 26 25  2  0
M  END
$$$$
