QHV.pdb
     RDKit          3D

 27 27  0  0  1  0  0  0  0  0999 V2000
    9.5058  -12.2865   18.7360 N   0  0  0  0  0  0  0  0  0  0  0  0
    8.6586  -13.2535   18.1669 C   0  0  0  0  0  0  0  0  0  0  0  0
    9.0531  -13.9376   17.2073 O   0  0  0  0  0  0  0  0  0  0  0  0
    7.3052  -13.4574   18.7053 C   0  0  0  0  0  0  0  0  0  0  0  0
    7.3066  -13.7955   20.1754 C   0  0  0  0  0  0  0  0  0  0  0  0
    7.6366  -15.2907   20.2741 C   0  0  2  0  0  0  0  0  0  0  0  0
    6.6118  -16.0953   19.6816 N   0  0  0  0  0  0  0  0  0  0  0  0
    7.8072  -15.6945   21.6917 C   0  0  0  0  0  0  0  0  0  0  0  0
    6.7387  -15.8212   22.3627 O   0  0  0  0  0  0  0  0  0  0  0  0
    9.1063  -15.9118   22.2111 N   0  0  0  0  0  0  0  0  0  0  0  0
    9.2635  -16.3470   23.5722 C   0  0  1  0  0  0  0  0  0  0  0  0
   10.5050  -17.1512   23.7412 C   0  0  0  0  0  0  0  0  0  0  0  0
   10.3980  -18.5041   23.1415 C   0  0  0  0  0  0  0  0  0  0  0  0
    9.3167  -19.1004   22.5283 C   0  0  0  0  0  0  0  0  0  0  0  0
    9.6982  -20.3519   22.1359 N   0  0  0  0  0  0  0  0  0  0  0  0
   10.9742  -20.5324   22.4914 C   0  0  0  0  0  0  0  0  0  0  0  0
   11.3825  -19.4176   23.0934 N   0  0  0  0  0  0  0  0  0  0  0  0
    9.2448  -15.1350   24.4570 C   0  0  0  0  0  0  0  0  0  0  0  0
    9.8976  -14.1503   24.0893 O   0  0  0  0  0  0  0  0  0  0  0  0
    6.9014  -12.7288   25.0838 C   0  0  0  0  0  0  0  0  0  0  0  0
    7.0739  -13.2746   26.4802 C   0  0  2  0  0  0  0  0  0  0  0  0
    7.0090  -12.1194   27.4547 C   0  0  0  0  0  0  0  0  0  0  0  0
    8.3474  -14.0520   26.5877 C   0  0  2  0  0  0  0  0  0  0  0  0
    8.5182  -15.1070   25.6586 N   0  0  0  0  0  0  0  0  0  0  0  0
    8.8047  -14.3461   27.9384 C   0  0  0  0  0  0  0  0  0  0  0  0
    8.9120  -13.4541   28.8002 O   0  0  0  0  0  0  0  0  0  0  0  0
    9.1330  -15.6466   28.2902 O   0  0  0  0  0  0  0  0  0  0  0  0
  2  1  1  0
  3  2  2  0
  4  2  1  0
  5  4  1  0
  6  5  1  0
  6  8  1  0
  6  7  1  1
  8  9  2  0
 10  8  1  0
 10 11  1  0
 11 12  1  6
 12 13  1  0
 13 17  1  0
 14 13  2  0
 14 15  1  0
 15 16  1  0
 17 16  2  0
 18 19  2  0
 18 11  1  0
 21 20  1  6
 21 23  1  0
 22 21  1  0
 23 24  1  6
 24 18  1  0
 25 23  1  0
 25 27  1  0
 26 25  2  0
M  END
$$$$
