QHV.pdb
     RDKit          3D

 27 27  0  0  1  0  0  0  0  0999 V2000
    9.3247  -11.3895   18.9956 N   0  0  0  0  0  0  0  0  0  0  0  0
    9.0503  -12.7345   18.6914 C   0  0  0  0  0  0  0  0  0  0  0  0
    9.9811  -13.5134   18.4242 O   0  0  0  0  0  0  0  0  0  0  0  0
    7.6627  -13.2220   18.6888 C   0  0  0  0  0  0  0  0  0  0  0  0
    7.2343  -13.7709   20.0269 C   0  0  0  0  0  0  0  0  0  0  0  0
    7.6346  -15.2521   20.0341 C   0  0  2  0  0  0  0  0  0  0  0  0
    6.6954  -16.0539   19.3105 N   0  0  0  0  0  0  0  0  0  0  0  0
    7.7305  -15.7595   21.4251 C   0  0  0  0  0  0  0  0  0  0  0  0
    6.6375  -16.1163   21.9600 O   0  0  0  0  0  0  0  0  0  0  0  0
    8.9906  -15.8200   22.0679 N   0  0  0  0  0  0  0  0  0  0  0  0
    9.0766  -16.3046   23.4187 C   0  0  1  0  0  0  0  0  0  0  0  0
   10.2924  -17.1411   23.6150 C   0  0  0  0  0  0  0  0  0  0  0  0
   10.1739  -18.4809   22.9886 C   0  0  0  0  0  0  0  0  0  0  0  0
    9.1286  -19.0126   22.2637 C   0  0  0  0  0  0  0  0  0  0  0  0
    9.4805  -20.2792   21.8929 N   0  0  0  0  0  0  0  0  0  0  0  0
   10.7038  -20.5314   22.3694 C   0  0  0  0  0  0  0  0  0  0  0  0
   11.1088  -19.4457   23.0244 N   0  0  0  0  0  0  0  0  0  0  0  0
    9.0422  -15.1233   24.3436 C   0  0  0  0  0  0  0  0  0  0  0  0
    8.9695  -13.9996   23.8310 O   0  0  0  0  0  0  0  0  0  0  0  0
    7.8772  -12.7003   25.1609 C   0  0  0  0  0  0  0  0  0  0  0  0
    7.6930  -13.3787   26.4963 C   0  0  2  0  0  0  0  0  0  0  0  0
    7.5701  -12.3107   27.5604 C   0  0  0  0  0  0  0  0  0  0  0  0
    8.8141  -14.3332   26.7606 C   0  0  2  0  0  0  0  0  0  0  0  0
    9.0901  -15.2743   25.7391 N   0  0  0  0  0  0  0  0  0  0  0  0
    8.9005  -14.8581   28.1160 C   0  0  0  0  0  0  0  0  0  0  0  0
    9.0059  -14.1057   29.1022 O   0  0  0  0  0  0  0  0  0  0  0  0
    8.8662  -16.2275   28.3314 O   0  0  0  0  0  0  0  0  0  0  0  0
  2  1  1  0
  3  2  2  0
  4  2  1  0
  5  4  1  0
  6  5  1  0
  6  8  1  0
  6  7  1  6
  8  9  2  0
 10  8  1  0
 10 11  1  0
 11 12  1  6
 12 13  1  0
 13 17  1  0
 14 13  2  0
 14 15  1  0
 15 16  1  0
 17 16  2  0
 18 19  2  0
 18 11  1  0
 21 20  1  6
 21 23  1  0
 22 21  1  0
 23 24  1  6
 24 18  1  0
 25 23  1  0
 25 27  1  0
 26 25  2  0
M  END
$$$$
