QHV.pdb
     RDKit          3D

 27 27  0  0  1  0  0  0  0  0999 V2000
   16.0650  -16.1294   20.7261 N   0  0  0  0  0  0  0  0  0  0  0  0
   15.6486  -14.8766   20.2425 C   0  0  0  0  0  0  0  0  0  0  0  0
   16.4595  -14.1327   19.6651 O   0  0  0  0  0  0  0  0  0  0  0  0
   14.2539  -14.4442   20.4188 C   0  0  0  0  0  0  0  0  0  0  0  0
   13.2922  -15.6019   20.5199 C   0  0  0  0  0  0  0  0  0  0  0  0
   11.9865  -15.1372   19.8615 C   0  0  2  0  0  0  0  0  0  0  0  0
   12.2284  -14.1495   18.8542 N   0  0  0  0  0  0  0  0  0  0  0  0
   11.0624  -14.5739   20.8766 C   0  0  0  0  0  0  0  0  0  0  0  0
   11.1927  -13.3354   21.1160 O   0  0  0  0  0  0  0  0  0  0  0  0
   10.1130  -15.4132   21.5080 N   0  0  0  0  0  0  0  0  0  0  0  0
    9.0938  -14.8330   22.3397 C   0  0  1  0  0  0  0  0  0  0  0  0
    7.7356  -15.2619   21.9064 C   0  0  0  0  0  0  0  0  0  0  0  0
    7.3073  -14.6173   20.6405 C   0  0  0  0  0  0  0  0  0  0  0  0
    7.9717  -13.6864   19.8705 C   0  0  0  0  0  0  0  0  0  0  0  0
    7.1791  -13.3907   18.7981 N   0  0  0  0  0  0  0  0  0  0  0  0
    6.0575  -14.1117   18.8938 C   0  0  0  0  0  0  0  0  0  0  0  0
    6.1463  -14.8431   20.0025 N   0  0  0  0  0  0  0  0  0  0  0  0
    9.3821  -15.2070   23.7642 C   0  0  0  0  0  0  0  0  0  0  0  0
   10.1494  -16.1576   23.9602 O   0  0  0  0  0  0  0  0  0  0  0  0
    8.4049  -12.3023   26.5532 C   0  0  0  0  0  0  0  0  0  0  0  0
    8.3167  -13.6963   27.1247 C   0  0  2  0  0  0  0  0  0  0  0  0
    8.8840  -13.6732   28.5267 C   0  0  0  0  0  0  0  0  0  0  0  0
    9.0137  -14.6752   26.2339 C   0  0  2  0  0  0  0  0  0  0  0  0
    8.8092  -14.5125   24.8422 N   0  0  0  0  0  0  0  0  0  0  0  0
    9.0308  -16.0571   26.6925 C   0  0  0  0  0  0  0  0  0  0  0  0
    8.1486  -16.8681   26.3550 O   0  0  0  0  0  0  0  0  0  0  0  0
   10.0477  -16.4971   27.5262 O   0  0  0  0  0  0  0  0  0  0  0  0
  2  1  1  0
  3  2  2  0
  4  2  1  0
  5  4  1  0
  6  5  1  0
  6  8  1  0
  6  7  1  6
  8  9  2  0
 10  8  1  0
 10 11  1  0
 11 12  1  6
 12 13  1  0
 13 17  1  0
 14 13  2  0
 14 15  1  0
 15 16  1  0
 17 16  2  0
 18 19  2  0
 18 11  1  0
 21 20  1  6
 21 23  1  0
 22 21  1  0
 23 24  1  6
 24 18  1  0
 25 23  1  0
 25 27  1  0
 26 25  2  0
M  END
$$$$
