QHV.pdb
     RDKit          3D

 27 27  0  0  1  0  0  0  0  0999 V2000
    9.3772  -12.5903   18.8876 N   0  0  0  0  0  0  0  0  0  0  0  0
    8.6684  -13.2588   17.8740 C   0  0  0  0  0  0  0  0  0  0  0  0
    9.1172  -13.2847   16.7154 O   0  0  0  0  0  0  0  0  0  0  0  0
    7.3956  -13.9282   18.1823 C   0  0  0  0  0  0  0  0  0  0  0  0
    7.0974  -13.9629   19.6606 C   0  0  0  0  0  0  0  0  0  0  0  0
    8.0247  -15.0265   20.2631 C   0  0  2  0  0  0  0  0  0  0  0  0
    8.0631  -16.2083   19.4565 N   0  0  0  0  0  0  0  0  0  0  0  0
    7.5804  -15.3910   21.6311 C   0  0  0  0  0  0  0  0  0  0  0  0
    6.6795  -14.6540   22.1344 O   0  0  0  0  0  0  0  0  0  0  0  0
    8.1607  -16.5032   22.2876 N   0  0  0  0  0  0  0  0  0  0  0  0
    7.7262  -16.8519   23.6129 C   0  0  1  0  0  0  0  0  0  0  0  0
    8.1433  -18.2357   23.9703 C   0  0  0  0  0  0  0  0  0  0  0  0
    7.7780  -18.6037   25.3605 C   0  0  0  0  0  0  0  0  0  0  0  0
    7.0696  -17.8780   26.2945 C   0  0  0  0  0  0  0  0  0  0  0  0
    6.9861  -18.6309   27.4311 N   0  0  0  0  0  0  0  0  0  0  0  0
    7.6203  -19.7878   27.2156 C   0  0  0  0  0  0  0  0  0  0  0  0
    8.0907  -19.7595   25.9707 N   0  0  0  0  0  0  0  0  0  0  0  0
    8.2677  -15.8289   24.5682 C   0  0  0  0  0  0  0  0  0  0  0  0
    9.4645  -15.5317   24.4674 O   0  0  0  0  0  0  0  0  0  0  0  0
    6.1811  -12.5998   25.5627 C   0  0  0  0  0  0  0  0  0  0  0  0
    6.7031  -13.2465   26.8224 C   0  0  2  0  0  0  0  0  0  0  0  0
    7.1691  -12.1551   27.7604 C   0  0  0  0  0  0  0  0  0  0  0  0
    7.7811  -14.2322   26.5000 C   0  0  2  0  0  0  0  0  0  0  0  0
    7.4573  -15.2249   25.5433 N   0  0  0  0  0  0  0  0  0  0  0  0
    8.5740  -14.7036   27.6266 C   0  0  0  0  0  0  0  0  0  0  0  0
    8.5742  -15.9004   27.9697 O   0  0  0  0  0  0  0  0  0  0  0  0
    9.3537  -13.8107   28.3460 O   0  0  0  0  0  0  0  0  0  0  0  0
  2  1  1  0
  3  2  2  0
  4  2  1  0
  5  4  1  0
  6  5  1  0
  6  8  1  0
  6  7  1  6
  8  9  2  0
 10  8  1  0
 10 11  1  0
 11 12  1  1
 12 13  1  0
 13 17  1  0
 14 13  2  0
 14 15  1  0
 15 16  1  0
 17 16  2  0
 18 19  2  0
 18 11  1  0
 21 20  1  6
 21 23  1  0
 22 21  1  0
 23 24  1  1
 24 18  1  0
 25 23  1  0
 25 27  1  0
 26 25  2  0
M  END
$$$$
