QHV.pdb
     RDKit          3D

 27 27  0  0  1  0  0  0  0  0999 V2000
    9.9609  -11.8340   19.6888 N   0  0  0  0  0  0  0  0  0  0  0  0
    9.5946  -12.9945   18.9845 C   0  0  0  0  0  0  0  0  0  0  0  0
   10.4483  -13.8598   18.7261 O   0  0  0  0  0  0  0  0  0  0  0  0
    8.2019  -13.1866   18.5528 C   0  0  0  0  0  0  0  0  0  0  0  0
    7.3264  -13.7558   19.6414 C   0  0  0  0  0  0  0  0  0  0  0  0
    7.7527  -15.2191   19.8174 C   0  0  2  0  0  0  0  0  0  0  0  0
    7.2356  -16.0468   18.7704 N   0  0  0  0  0  0  0  0  0  0  0  0
    7.2844  -15.7452   21.1233 C   0  0  0  0  0  0  0  0  0  0  0  0
    6.0339  -15.9272   21.2296 O   0  0  0  0  0  0  0  0  0  0  0  0
    8.2197  -16.0102   22.1527 N   0  0  0  0  0  0  0  0  0  0  0  0
    7.7555  -16.4706   23.4331 C   0  0  1  0  0  0  0  0  0  0  0  0
    8.1673  -17.8797   23.6810 C   0  0  0  0  0  0  0  0  0  0  0  0
    7.8150  -18.3488   25.0438 C   0  0  0  0  0  0  0  0  0  0  0  0
    7.1259  -17.6893   26.0394 C   0  0  0  0  0  0  0  0  0  0  0  0
    7.0481  -18.5257   27.1165 N   0  0  0  0  0  0  0  0  0  0  0  0
    7.6671  -19.6690   26.8056 C   0  0  0  0  0  0  0  0  0  0  0  0
    8.1226  -19.5506   25.5604 N   0  0  0  0  0  0  0  0  0  0  0  0
    8.2725  -15.5325   24.4843 C   0  0  0  0  0  0  0  0  0  0  0  0
    9.4879  -15.3013   24.4944 O   0  0  0  0  0  0  0  0  0  0  0  0
    6.1138  -12.3243   25.5818 C   0  0  0  0  0  0  0  0  0  0  0  0
    6.6181  -13.0453   26.8080 C   0  0  2  0  0  0  0  0  0  0  0  0
    7.0515  -12.0117   27.8239 C   0  0  0  0  0  0  0  0  0  0  0  0
    7.7145  -13.9962   26.4455 C   0  0  2  0  0  0  0  0  0  0  0  0
    7.4196  -14.9336   25.4258 N   0  0  0  0  0  0  0  0  0  0  0  0
    8.4954  -14.5244   27.5552 C   0  0  0  0  0  0  0  0  0  0  0  0
    8.2980  -15.6676   28.0068 O   0  0  0  0  0  0  0  0  0  0  0  0
    9.4874  -13.7480   28.1348 O   0  0  0  0  0  0  0  0  0  0  0  0
  2  1  1  0
  3  2  2  0
  4  2  1  0
  5  4  1  0
  6  5  1  0
  6  8  1  0
  6  7  1  6
  8  9  2  0
 10  8  1  0
 10 11  1  0
 11 12  1  1
 12 13  1  0
 13 17  1  0
 14 13  2  0
 14 15  1  0
 15 16  1  0
 17 16  2  0
 18 19  2  0
 18 11  1  0
 21 20  1  6
 21 23  1  0
 22 21  1  0
 23 24  1  1
 24 18  1  0
 25 23  1  0
 25 27  1  0
 26 25  2  0
M  END
$$$$
