QHV.pdb
     RDKit          3D

 27 27  0  0  1  0  0  0  0  0999 V2000
    7.6568  -12.9837   16.1470 N   0  0  0  0  0  0  0  0  0  0  0  0
    7.7560  -14.3382   16.5109 C   0  0  0  0  0  0  0  0  0  0  0  0
    7.5922  -15.2248   15.6557 O   0  0  0  0  0  0  0  0  0  0  0  0
    8.0536  -14.7083   17.9029 C   0  0  0  0  0  0  0  0  0  0  0  0
    8.1422  -13.5128   18.8185 C   0  0  0  0  0  0  0  0  0  0  0  0
    9.0978  -13.9073   19.9523 C   0  0  2  0  0  0  0  0  0  0  0  0
   10.0615  -14.8714   19.5159 N   0  0  0  0  0  0  0  0  0  0  0  0
    8.3421  -14.4667   21.1002 C   0  0  0  0  0  0  0  0  0  0  0  0
    7.2399  -13.8987   21.3659 O   0  0  0  0  0  0  0  0  0  0  0  0
    8.8663  -15.5678   21.8196 N   0  0  0  0  0  0  0  0  0  0  0  0
    8.1594  -16.0680   22.9671 C   0  0  1  0  0  0  0  0  0  0  0  0
    8.4035  -17.5242   23.1581 C   0  0  0  0  0  0  0  0  0  0  0  0
    7.6765  -18.3616   22.1723 C   0  0  0  0  0  0  0  0  0  0  0  0
    6.8059  -17.9738   21.1761 C   0  0  0  0  0  0  0  0  0  0  0  0
    6.3892  -19.1001   20.5254 N   0  0  0  0  0  0  0  0  0  0  0  0
    6.9788  -20.1562   21.0948 C   0  0  0  0  0  0  0  0  0  0  0  0
    7.7480  -19.7004   22.0809 N   0  0  0  0  0  0  0  0  0  0  0  0
    8.5732  -15.2593   24.1618 C   0  0  0  0  0  0  0  0  0  0  0  0
    9.7728  -14.9767   24.2714 O   0  0  0  0  0  0  0  0  0  0  0  0
    6.4716  -12.1918   25.2381 C   0  0  0  0  0  0  0  0  0  0  0  0
    6.7602  -12.9741   26.4960 C   0  0  2  0  0  0  0  0  0  0  0  0
    7.1246  -11.9970   27.5917 C   0  0  0  0  0  0  0  0  0  0  0  0
    7.8281  -13.9920   26.2491 C   0  0  2  0  0  0  0  0  0  0  0  0
    7.6442  -14.8338   25.1253 N   0  0  0  0  0  0  0  0  0  0  0  0
    8.3640  -14.6554   27.4293 C   0  0  0  0  0  0  0  0  0  0  0  0
    8.1126  -15.8491   27.6782 O   0  0  0  0  0  0  0  0  0  0  0  0
    9.1762  -13.9549   28.3082 O   0  0  0  0  0  0  0  0  0  0  0  0
  2  1  1  0
  3  2  2  0
  4  2  1  0
  5  4  1  0
  6  5  1  0
  6  8  1  0
  6  7  1  6
  8  9  2  0
 10  8  1  0
 10 11  1  0
 11 12  1  1
 12 13  1  0
 13 17  1  0
 14 13  2  0
 14 15  1  0
 15 16  1  0
 17 16  2  0
 18 19  2  0
 18 11  1  0
 21 20  1  6
 21 23  1  0
 22 21  1  0
 23 24  1  6
 24 18  1  0
 25 23  1  0
 25 27  1  0
 26 25  2  0
M  END
$$$$
