QHV.pdb
     RDKit          3D

 27 27  0  0  1  0  0  0  0  0999 V2000
   10.3481  -12.9494   19.2641 N   0  0  0  0  0  0  0  0  0  0  0  0
    9.2532  -12.5940   18.4568 C   0  0  0  0  0  0  0  0  0  0  0  0
    9.4426  -12.1779   17.3012 O   0  0  0  0  0  0  0  0  0  0  0  0
    7.8830  -12.7139   18.9775 C   0  0  0  0  0  0  0  0  0  0  0  0
    7.8333  -13.3283   20.3543 C   0  0  0  0  0  0  0  0  0  0  0  0
    8.0235  -14.8383   20.1602 C   0  0  2  0  0  0  0  0  0  0  0  0
    6.9535  -15.4094   19.4001 N   0  0  0  0  0  0  0  0  0  0  0  0
    8.1035  -15.5266   21.4722 C   0  0  0  0  0  0  0  0  0  0  0  0
    6.9938  -15.7992   22.0220 O   0  0  0  0  0  0  0  0  0  0  0  0
    9.3677  -15.8361   22.0297 N   0  0  0  0  0  0  0  0  0  0  0  0
    9.4396  -16.4812   23.3125 C   0  0  1  0  0  0  0  0  0  0  0  0
   10.5101  -17.5157   23.3364 C   0  0  0  0  0  0  0  0  0  0  0  0
   10.1688  -18.7129   22.5291 C   0  0  0  0  0  0  0  0  0  0  0  0
    9.0368  -18.9651   21.7836 C   0  0  0  0  0  0  0  0  0  0  0  0
    9.1772  -20.2004   21.2180 N   0  0  0  0  0  0  0  0  0  0  0  0
   10.3564  -20.7037   21.5965 C   0  0  0  0  0  0  0  0  0  0  0  0
   10.9414  -19.8026   22.3823 N   0  0  0  0  0  0  0  0  0  0  0  0
    9.6452  -15.4243   24.3579 C   0  0  0  0  0  0  0  0  0  0  0  0
    9.9491  -14.2895   23.9695 O   0  0  0  0  0  0  0  0  0  0  0  0
    8.7924  -12.5769   27.6952 C   0  0  0  0  0  0  0  0  0  0  0  0
    8.5495  -13.5923   26.6055 C   0  0  2  0  0  0  0  0  0  0  0  0
    7.0699  -13.9042   26.5660 C   0  0  0  0  0  0  0  0  0  0  0  0
    9.3922  -14.8090   26.8228 C   0  0  2  0  0  0  0  0  0  0  0  0
    9.5011  -15.7000   25.7275 N   0  0  0  0  0  0  0  0  0  0  0  0
    9.2647  -15.4509   28.1235 C   0  0  0  0  0  0  0  0  0  0  0  0
    8.4944  -16.4120   28.3047 O   0  0  0  0  0  0  0  0  0  0  0  0
   10.0126  -14.9929   29.1976 O   0  0  0  0  0  0  0  0  0  0  0  0
  2  1  1  0
  3  2  2  0
  4  2  1  0
  5  4  1  0
  6  5  1  0
  6  8  1  0
  6  7  1  6
  8  9  2  0
 10  8  1  0
 10 11  1  0
 11 12  1  6
 12 13  1  0
 13 17  1  0
 14 13  2  0
 14 15  1  0
 15 16  1  0
 17 16  2  0
 18 19  2  0
 18 11  1  0
 21 20  1  1
 21 23  1  0
 22 21  1  0
 23 24  1  6
 24 18  1  0
 25 23  1  0
 25 27  1  0
 26 25  2  0
M  END
$$$$
