QHV.pdb
     RDKit          3D

 27 27  0  0  1  0  0  0  0  0999 V2000
    8.8603  -12.4640   18.4190 N   0  0  0  0  0  0  0  0  0  0  0  0
    8.2386  -13.3625   17.5341 C   0  0  0  0  0  0  0  0  0  0  0  0
    8.4548  -13.2816   16.3130 O   0  0  0  0  0  0  0  0  0  0  0  0
    7.3320  -14.3988   18.0511 C   0  0  0  0  0  0  0  0  0  0  0  0
    7.1986  -14.3612   19.5531 C   0  0  0  0  0  0  0  0  0  0  0  0
    8.4287  -15.0866   20.1141 C   0  0  2  0  0  0  0  0  0  0  0  0
    8.7508  -16.2485   19.3428 N   0  0  0  0  0  0  0  0  0  0  0  0
    8.1978  -15.4918   21.5226 C   0  0  0  0  0  0  0  0  0  0  0  0
    7.0422  -15.2495   21.9852 O   0  0  0  0  0  0  0  0  0  0  0  0
    9.2390  -16.1076   22.2585 N   0  0  0  0  0  0  0  0  0  0  0  0
    8.9958  -16.5392   23.6081 C   0  0  1  0  0  0  0  0  0  0  0  0
    9.9121  -17.6478   23.9929 C   0  0  0  0  0  0  0  0  0  0  0  0
    9.6013  -18.9181   23.2920 C   0  0  0  0  0  0  0  0  0  0  0  0
    8.5941  -19.1900   22.3907 C   0  0  0  0  0  0  0  0  0  0  0  0
    8.7110  -20.4988   22.0177 N   0  0  0  0  0  0  0  0  0  0  0  0
    9.7554  -21.0275   22.6634 C   0  0  0  0  0  0  0  0  0  0  0  0
   10.2808  -20.0699   23.4243 N   0  0  0  0  0  0  0  0  0  0  0  0
    9.1301  -15.3490   24.5123 C   0  0  0  0  0  0  0  0  0  0  0  0
   10.1423  -14.6486   24.3866 O   0  0  0  0  0  0  0  0  0  0  0  0
    6.4152  -12.6842   25.1796 C   0  0  0  0  0  0  0  0  0  0  0  0
    6.8305  -13.2270   26.5251 C   0  0  2  0  0  0  0  0  0  0  0  0
    6.9070  -12.0739   27.5012 C   0  0  0  0  0  0  0  0  0  0  0  0
    8.1193  -13.9783   26.4143 C   0  0  2  0  0  0  0  0  0  0  0  0
    8.1515  -15.0317   25.4685 N   0  0  0  0  0  0  0  0  0  0  0  0
    8.8048  -14.2600   27.6676 C   0  0  0  0  0  0  0  0  0  0  0  0
    8.9255  -15.4216   28.0991 O   0  0  0  0  0  0  0  0  0  0  0  0
    9.3423  -13.2205   28.4114 O   0  0  0  0  0  0  0  0  0  0  0  0
  2  1  1  0
  3  2  2  0
  4  2  1  0
  5  4  1  0
  6  5  1  0
  6  8  1  0
  6  7  1  6
  8  9  2  0
 10  8  1  0
 10 11  1  0
 11 12  1  1
 12 13  1  0
 13 17  1  0
 14 13  2  0
 14 15  1  0
 15 16  1  0
 17 16  2  0
 18 19  2  0
 18 11  1  0
 21 20  1  6
 21 23  1  0
 22 21  1  0
 23 24  1  1
 24 18  1  0
 25 23  1  0
 25 27  1  0
 26 25  2  0
M  END
$$$$
