QHV.pdb
     RDKit          3D

 27 27  0  0  1  0  0  0  0  0999 V2000
   15.2851  -12.9376   17.1969 N   0  0  0  0  0  0  0  0  0  0  0  0
   15.0107  -14.2529   16.7827 C   0  0  0  0  0  0  0  0  0  0  0  0
   15.7539  -14.8127   15.9590 O   0  0  0  0  0  0  0  0  0  0  0  0
   13.8446  -14.9683   17.3228 C   0  0  0  0  0  0  0  0  0  0  0  0
   13.6271  -14.7045   18.7920 C   0  0  0  0  0  0  0  0  0  0  0  0
   12.7538  -15.8538   19.3123 C   0  0  2  0  0  0  0  0  0  0  0  0
   11.9314  -16.3998   18.2758 N   0  0  0  0  0  0  0  0  0  0  0  0
   11.8854  -15.3880   20.4215 C   0  0  0  0  0  0  0  0  0  0  0  0
   12.4426  -14.6454   21.2853 O   0  0  0  0  0  0  0  0  0  0  0  0
   10.5252  -15.7790   20.4635 N   0  0  0  0  0  0  0  0  0  0  0  0
    9.7040  -15.3755   21.5724 C   0  0  1  0  0  0  0  0  0  0  0  0
    8.3502  -14.9564   21.1162 C   0  0  0  0  0  0  0  0  0  0  0  0
    8.3958  -14.0467   19.9449 C   0  0  0  0  0  0  0  0  0  0  0  0
    7.3549  -13.4458   19.2695 C   0  0  0  0  0  0  0  0  0  0  0  0
    7.8902  -12.6973   18.2600 N   0  0  0  0  0  0  0  0  0  0  0  0
    9.2202  -12.8255   18.3025 C   0  0  0  0  0  0  0  0  0  0  0  0
    9.5110  -13.6369   19.3168 N   0  0  0  0  0  0  0  0  0  0  0  0
    9.6490  -16.5106   22.5525 C   0  0  0  0  0  0  0  0  0  0  0  0
    8.8506  -17.4268   22.3198 O   0  0  0  0  0  0  0  0  0  0  0  0
   10.3612  -19.3394   22.7263 C   0  0  0  0  0  0  0  0  0  0  0  0
   11.4407  -18.8167   23.6423 C   0  0  2  0  0  0  0  0  0  0  0  0
   11.9201  -19.9569   24.5131 C   0  0  0  0  0  0  0  0  0  0  0  0
   10.9386  -17.6529   24.4367 C   0  0  2  0  0  0  0  0  0  0  0  0
   10.4670  -16.5434   23.6937 N   0  0  0  0  0  0  0  0  0  0  0  0
   11.7069  -17.3112   25.6255 C   0  0  0  0  0  0  0  0  0  0  0  0
   11.3776  -17.7182   26.7550 O   0  0  0  0  0  0  0  0  0  0  0  0
   12.8360  -16.5139   25.5144 O   0  0  0  0  0  0  0  0  0  0  0  0
  2  1  1  0
  3  2  2  0
  4  2  1  0
  5  4  1  0
  6  5  1  0
  6  8  1  0
  6  7  1  6
  8  9  2  0
 10  8  1  0
 10 11  1  0
 11 12  1  6
 12 13  1  0
 13 17  1  0
 14 13  2  0
 14 15  1  0
 15 16  1  0
 17 16  2  0
 18 19  2  0
 18 11  1  0
 21 20  1  6
 21 23  1  0
 22 21  1  0
 23 24  1  6
 24 18  1  0
 25 23  1  0
 25 27  1  0
 26 25  2  0
M  END
$$$$
