QHV.pdb
     RDKit          3D

 27 27  0  0  1  0  0  0  0  0999 V2000
    9.1472  -13.1433   17.1059 N   0  0  0  0  0  0  0  0  0  0  0  0
    7.8270  -13.1837   17.5878 C   0  0  0  0  0  0  0  0  0  0  0  0
    6.8934  -12.7747   16.8769 O   0  0  0  0  0  0  0  0  0  0  0  0
    7.5484  -13.7096   18.9328 C   0  0  0  0  0  0  0  0  0  0  0  0
    8.8034  -14.0331   19.7046 C   0  0  0  0  0  0  0  0  0  0  0  0
    8.8014  -15.5530   19.9146 C   0  0  2  0  0  0  0  0  0  0  0  0
    7.8189  -16.1954   19.0956 N   0  0  0  0  0  0  0  0  0  0  0  0
    8.5338  -15.8826   21.3363 C   0  0  0  0  0  0  0  0  0  0  0  0
    7.3154  -16.0515   21.6447 O   0  0  0  0  0  0  0  0  0  0  0  0
    9.6104  -15.9895   22.2496 N   0  0  0  0  0  0  0  0  0  0  0  0
    9.3593  -16.4278   23.5956 C   0  0  1  0  0  0  0  0  0  0  0  0
   10.3605  -17.4411   24.0283 C   0  0  0  0  0  0  0  0  0  0  0  0
   10.1720  -18.7540   23.3632 C   0  0  0  0  0  0  0  0  0  0  0  0
    9.8602  -19.9751   23.9222 C   0  0  0  0  0  0  0  0  0  0  0  0
    9.7921  -20.8909   22.9110 N   0  0  0  0  0  0  0  0  0  0  0  0
   10.0524  -20.2643   21.7591 C   0  0  0  0  0  0  0  0  0  0  0  0
   10.2785  -18.9837   22.0434 N   0  0  0  0  0  0  0  0  0  0  0  0
    9.3482  -15.2207   24.4873 C   0  0  0  0  0  0  0  0  0  0  0  0
    9.3651  -14.1096   23.9432 O   0  0  0  0  0  0  0  0  0  0  0  0
    7.7258  -12.9837   25.2020 C   0  0  0  0  0  0  0  0  0  0  0  0
    7.6174  -13.6649   26.5443 C   0  0  2  0  0  0  0  0  0  0  0  0
    7.2768  -12.6195   27.5831 C   0  0  0  0  0  0  0  0  0  0  0  0
    8.8770  -14.4071   26.8609 C   0  0  2  0  0  0  0  0  0  0  0  0
    9.3198  -15.3348   25.8869 N   0  0  0  0  0  0  0  0  0  0  0  0
    9.0294  -14.8484   28.2401 C   0  0  0  0  0  0  0  0  0  0  0  0
    8.5847  -15.9446   28.6279 O   0  0  0  0  0  0  0  0  0  0  0  0
    9.6835  -14.0397   29.1572 O   0  0  0  0  0  0  0  0  0  0  0  0
  2  1  1  0
  3  2  2  0
  4  2  1  0
  5  4  1  0
  6  5  1  0
  6  8  1  0
  6  7  1  6
  8  9  2  0
 10  8  1  0
 10 11  1  0
 11 12  1  1
 12 13  1  0
 13 17  1  0
 14 13  2  0
 14 15  1  0
 15 16  1  0
 17 16  2  0
 18 19  2  0
 18 11  1  0
 21 20  1  6
 21 23  1  0
 22 21  1  0
 23 24  1  6
 24 18  1  0
 25 23  1  0
 25 27  1  0
 26 25  2  0
M  END
$$$$
