QHV.pdb
     RDKit          3D

 27 27  0  0  1  0  0  0  0  0999 V2000
   15.6952  -13.7004   18.5172 N   0  0  0  0  0  0  0  0  0  0  0  0
   15.0165  -14.8289   18.0244 C   0  0  0  0  0  0  0  0  0  0  0  0
   15.5036  -15.4879   17.0902 O   0  0  0  0  0  0  0  0  0  0  0  0
   13.7301  -15.2313   18.6129 C   0  0  0  0  0  0  0  0  0  0  0  0
   13.4071  -14.4793   19.8800 C   0  0  0  0  0  0  0  0  0  0  0  0
   12.9632  -15.5311   20.9051 C   0  0  2  0  0  0  0  0  0  0  0  0
   12.3904  -16.6774   20.2674 N   0  0  0  0  0  0  0  0  0  0  0  0
   11.9700  -14.9561   21.8455 C   0  0  0  0  0  0  0  0  0  0  0  0
   12.2868  -13.8482   22.3747 O   0  0  0  0  0  0  0  0  0  0  0  0
   10.7593  -15.6448   22.0997 N   0  0  0  0  0  0  0  0  0  0  0  0
    9.8323  -15.1192   23.0648 C   0  0  1  0  0  0  0  0  0  0  0  0
    8.4245  -15.3895   22.6629 C   0  0  0  0  0  0  0  0  0  0  0  0
    7.9777  -14.5392   21.5321 C   0  0  0  0  0  0  0  0  0  0  0  0
    8.6932  -13.6097   20.8073 C   0  0  0  0  0  0  0  0  0  0  0  0
    7.8559  -13.0809   19.8665 N   0  0  0  0  0  0  0  0  0  0  0  0
    6.6580  -13.6596   19.9981 C   0  0  0  0  0  0  0  0  0  0  0  0
    6.7438  -14.5319   20.9999 N   0  0  0  0  0  0  0  0  0  0  0  0
   10.1657  -15.7086   24.4042 C   0  0  0  0  0  0  0  0  0  0  0  0
   10.9318  -16.6799   24.4251 O   0  0  0  0  0  0  0  0  0  0  0  0
    9.7185  -13.1585   27.5815 C   0  0  0  0  0  0  0  0  0  0  0  0
    9.4284  -14.5834   27.9852 C   0  0  2  0  0  0  0  0  0  0  0  0
   10.0549  -14.8319   29.3394 C   0  0  0  0  0  0  0  0  0  0  0  0
    9.9139  -15.5359   26.9389 C   0  0  2  0  0  0  0  0  0  0  0  0
    9.6349  -15.1867   25.5952 N   0  0  0  0  0  0  0  0  0  0  0  0
    9.7680  -16.9517   27.2462 C   0  0  0  0  0  0  0  0  0  0  0  0
    8.8358  -17.6293   26.7753 O   0  0  0  0  0  0  0  0  0  0  0  0
   10.6811  -17.5761   28.0823 O   0  0  0  0  0  0  0  0  0  0  0  0
  2  1  1  0
  3  2  2  0
  4  2  1  0
  5  4  1  0
  6  5  1  0
  6  8  1  0
  6  7  1  6
  8  9  2  0
 10  8  1  0
 10 11  1  0
 11 12  1  6
 12 13  1  0
 13 17  1  0
 14 13  2  0
 14 15  1  0
 15 16  1  0
 17 16  2  0
 18 19  2  0
 18 11  1  0
 21 20  1  6
 21 23  1  0
 22 21  1  0
 23 24  1  6
 24 18  1  0
 25 23  1  0
 25 27  1  0
 26 25  2  0
M  END
$$$$
