QHV.pdb
     RDKit          3D

 27 27  0  0  1  0  0  0  0  0999 V2000
   14.4744  -16.0564   18.0593 N   0  0  0  0  0  0  0  0  0  0  0  0
   13.3875  -16.8878   17.7365 C   0  0  0  0  0  0  0  0  0  0  0  0
   13.4356  -17.6088   16.7255 O   0  0  0  0  0  0  0  0  0  0  0  0
   12.1926  -16.9060   18.5938 C   0  0  0  0  0  0  0  0  0  0  0  0
   12.3181  -15.9950   19.7896 C   0  0  0  0  0  0  0  0  0  0  0  0
   11.8395  -16.8051   21.0016 C   0  0  2  0  0  0  0  0  0  0  0  0
   10.9881  -17.8862   20.6081 N   0  0  0  0  0  0  0  0  0  0  0  0
   11.1053  -15.9351   21.9532 C   0  0  0  0  0  0  0  0  0  0  0  0
   11.6908  -14.8600   22.2839 O   0  0  0  0  0  0  0  0  0  0  0  0
    9.8323  -16.3300   22.4308 N   0  0  0  0  0  0  0  0  0  0  0  0
    9.1737  -15.5395   23.4350 C   0  0  1  0  0  0  0  0  0  0  0  0
    7.7065  -15.7921   23.4434 C   0  0  0  0  0  0  0  0  0  0  0  0
    6.9766  -14.9005   24.3782 C   0  0  0  0  0  0  0  0  0  0  0  0
    6.9348  -13.5228   24.4118 C   0  0  0  0  0  0  0  0  0  0  0  0
    6.1296  -13.1557   25.4523 N   0  0  0  0  0  0  0  0  0  0  0  0
    5.6830  -14.2655   26.0491 C   0  0  0  0  0  0  0  0  0  0  0  0
    6.1977  -15.3049   25.3960 N   0  0  0  0  0  0  0  0  0  0  0  0
    9.8112  -15.8394   24.7602 C   0  0  0  0  0  0  0  0  0  0  0  0
   10.6326  -16.7637   24.8018 O   0  0  0  0  0  0  0  0  0  0  0  0
    9.9302  -12.7979   27.5687 C   0  0  0  0  0  0  0  0  0  0  0  0
    9.6454  -14.1436   28.1896 C   0  0  2  0  0  0  0  0  0  0  0  0
   10.4085  -14.2385   29.4921 C   0  0  0  0  0  0  0  0  0  0  0  0
    9.9865  -15.2453   27.2369 C   0  0  2  0  0  0  0  0  0  0  0  0
    9.4958  -15.1063   25.9159 N   0  0  0  0  0  0  0  0  0  0  0  0
    9.9234  -16.5972   27.7741 C   0  0  0  0  0  0  0  0  0  0  0  0
    8.9395  -17.3336   27.5751 O   0  0  0  0  0  0  0  0  0  0  0  0
   10.9766  -17.0923   28.5281 O   0  0  0  0  0  0  0  0  0  0  0  0
  2  1  1  0
  3  2  2  0
  4  2  1  0
  5  4  1  0
  6  5  1  0
  6  8  1  0
  6  7  1  6
  8  9  2  0
 10  8  1  0
 10 11  1  0
 11 12  1  1
 12 13  1  0
 13 17  1  0
 14 13  2  0
 14 15  1  0
 15 16  1  0
 17 16  2  0
 18 19  2  0
 18 11  1  0
 21 20  1  6
 21 23  1  0
 22 21  1  0
 23 24  1  6
 24 18  1  0
 25 23  1  0
 25 27  1  0
 26 25  2  0
M  END
$$$$
