QHV.pdb
     RDKit          3D

 27 27  0  0  1  0  0  0  0  0999 V2000
   12.7144  -15.2892   19.2567 N   0  0  0  0  0  0  0  0  0  0  0  0
   12.2465  -14.0774   19.7947 C   0  0  0  0  0  0  0  0  0  0  0  0
   13.0546  -13.2193   20.1882 O   0  0  0  0  0  0  0  0  0  0  0  0
   10.8012  -13.8231   19.8929 C   0  0  0  0  0  0  0  0  0  0  0  0
    9.9723  -14.9144   19.2625 C   0  0  0  0  0  0  0  0  0  0  0  0
    8.5083  -14.4736   19.3915 C   0  0  2  0  0  0  0  0  0  0  0  0
    8.3565  -13.0736   19.1356 N   0  0  0  0  0  0  0  0  0  0  0  0
    7.9909  -14.7743   20.7493 C   0  0  0  0  0  0  0  0  0  0  0  0
    7.3515  -13.8379   21.3170 O   0  0  0  0  0  0  0  0  0  0  0  0
    8.2259  -16.0452   21.3275 N   0  0  0  0  0  0  0  0  0  0  0  0
    7.6135  -16.3776   22.5850 C   0  0  1  0  0  0  0  0  0  0  0  0
    7.7067  -17.8377   22.8608 C   0  0  0  0  0  0  0  0  0  0  0  0
    7.0788  -18.2190   24.1498 C   0  0  0  0  0  0  0  0  0  0  0  0
    6.4396  -17.4216   25.0752 C   0  0  0  0  0  0  0  0  0  0  0  0
    6.0272  -18.2229   26.1016 N   0  0  0  0  0  0  0  0  0  0  0  0
    6.3957  -19.4785   25.8279 C   0  0  0  0  0  0  0  0  0  0  0  0
    7.0252  -19.4631   24.6551 N   0  0  0  0  0  0  0  0  0  0  0  0
    8.2651  -15.5527   23.6562 C   0  0  0  0  0  0  0  0  0  0  0  0
    9.4907  -15.3968   23.5897 O   0  0  0  0  0  0  0  0  0  0  0  0
    6.6060  -12.2165   25.0025 C   0  0  0  0  0  0  0  0  0  0  0  0
    7.0055  -13.0655   26.1845 C   0  0  2  0  0  0  0  0  0  0  0  0
    7.5859  -12.1594   27.2476 C   0  0  0  0  0  0  0  0  0  0  0  0
    7.9529  -14.1432   25.7619 C   0  0  2  0  0  0  0  0  0  0  0  0
    7.5231  -14.9746   24.6992 N   0  0  0  0  0  0  0  0  0  0  0  0
    8.6543  -14.8345   26.8345 C   0  0  0  0  0  0  0  0  0  0  0  0
    9.3358  -14.2168   27.6735 O   0  0  0  0  0  0  0  0  0  0  0  0
    8.5716  -16.2148   26.9385 O   0  0  0  0  0  0  0  0  0  0  0  0
  2  1  1  0
  3  2  2  0
  4  2  1  0
  5  4  1  0
  6  5  1  0
  6  8  1  0
  6  7  1  1
  8  9  2  0
 10  8  1  0
 10 11  1  0
 11 12  1  1
 12 13  1  0
 13 17  1  0
 14 13  2  0
 14 15  1  0
 15 16  1  0
 17 16  2  0
 18 19  2  0
 18 11  1  0
 21 20  1  6
 21 23  1  0
 22 21  1  0
 23 24  1  1
 24 18  1  0
 25 23  1  0
 25 27  1  0
 26 25  2  0
M  END
$$$$
