QHV.pdb
     RDKit          3D

 27 27  0  0  1  0  0  0  0  0999 V2000
   12.8512  -19.3663   24.3401 N   0  0  0  0  0  0  0  0  0  0  0  0
   13.7595  -18.7388   23.4694 C   0  0  0  0  0  0  0  0  0  0  0  0
   14.9824  -18.8655   23.6507 O   0  0  0  0  0  0  0  0  0  0  0  0
   13.2649  -17.9322   22.3435 C   0  0  0  0  0  0  0  0  0  0  0  0
   11.7592  -17.9152   22.2545 C   0  0  0  0  0  0  0  0  0  0  0  0
   11.4055  -16.9670   21.1013 C   0  0  2  0  0  0  0  0  0  0  0  0
   12.5758  -16.5285   20.4036 N   0  0  0  0  0  0  0  0  0  0  0  0
   10.6734  -15.7800   21.6080 C   0  0  0  0  0  0  0  0  0  0  0  0
   11.3547  -14.7162   21.7187 O   0  0  0  0  0  0  0  0  0  0  0  0
    9.2994  -15.8852   21.9328 N   0  0  0  0  0  0  0  0  0  0  0  0
    8.5645  -14.7061   22.3024 C   0  0  1  0  0  0  0  0  0  0  0  0
    7.2767  -14.6187   21.5604 C   0  0  0  0  0  0  0  0  0  0  0  0
    7.4665  -14.3743   20.1093 C   0  0  0  0  0  0  0  0  0  0  0  0
    7.8909  -13.2297   19.4685 C   0  0  0  0  0  0  0  0  0  0  0  0
    7.9080  -13.4855   18.1268 N   0  0  0  0  0  0  0  0  0  0  0  0
    7.5081  -14.7466   17.9349 C   0  0  0  0  0  0  0  0  0  0  0  0
    7.2463  -15.2689   19.1309 N   0  0  0  0  0  0  0  0  0  0  0  0
    8.3650  -14.7252   23.7898 C   0  0  0  0  0  0  0  0  0  0  0  0
    8.6978  -15.7507   24.3967 O   0  0  0  0  0  0  0  0  0  0  0  0
    7.1716  -11.0668   25.5085 C   0  0  0  0  0  0  0  0  0  0  0  0
    6.6672  -12.3005   26.2165 C   0  0  2  0  0  0  0  0  0  0  0  0
    6.6633  -12.0279   27.7043 C   0  0  0  0  0  0  0  0  0  0  0  0
    7.4921  -13.4928   25.8482 C   0  0  2  0  0  0  0  0  0  0  0  0
    7.8225  -13.6275   24.4778 N   0  0  0  0  0  0  0  0  0  0  0  0
    7.1511  -14.7384   26.5208 C   0  0  0  0  0  0  0  0  0  0  0  0
    6.2192  -15.4616   26.1227 O   0  0  0  0  0  0  0  0  0  0  0  0
    7.8720  -15.1438   27.6338 O   0  0  0  0  0  0  0  0  0  0  0  0
  2  1  1  0
  3  2  2  0
  4  2  1  0
  5  4  1  0
  6  5  1  0
  6  8  1  0
  6  7  1  1
  8  9  2  0
 10  8  1  0
 10 11  1  0
 11 12  1  6
 12 13  1  0
 13 17  1  0
 14 13  2  0
 14 15  1  0
 15 16  1  0
 17 16  2  0
 18 19  2  0
 18 11  1  0
 21 20  1  6
 21 23  1  0
 22 21  1  0
 23 24  1  6
 24 18  1  0
 25 23  1  0
 25 27  1  0
 26 25  2  0
M  END
$$$$
