RPD.pdb
     RDKit          3D

 27 27  0  0  1  0  0  0  0  0999 V2000
   13.1714  -11.9844  -10.1402 N   0  0  0  0  0  0  0  0  0  0  0  0
   12.4773  -10.7788  -10.3835 C   0  0  0  0  0  0  0  0  0  0  0  0
   11.6830  -10.3482   -9.4350 N   0  0  0  0  0  0  0  0  0  0  0  0
   12.5942  -10.0405  -11.5835 N   0  0  0  0  0  0  0  0  0  0  0  0
   13.7763   -9.1900  -11.7492 C   0  0  0  0  0  0  0  0  0  0  0  0
   14.9357  -10.0154  -12.1761 C   0  0  0  0  0  0  0  0  0  0  0  0
   16.1736   -9.2165  -12.3574 C   0  0  0  0  0  0  0  0  0  0  0  0
   17.2660   -9.3985  -11.3730 C   0  0  2  0  0  0  0  0  0  0  0  0
   16.8663   -9.3535   -9.9922 N   0  0  0  0  0  0  0  0  0  0  0  0
   18.2236   -8.2476  -11.5668 C   0  0  0  0  0  0  0  0  0  0  0  0
   18.2845   -7.3243  -10.6817 O   0  0  0  0  0  0  0  0  0  0  0  0
   11.1392   -9.4689   -9.5394 N   0  0  0  0  0  0  0  0  0  0  0  0
   19.0745   -8.1225  -12.6836 C   0  0  0  0  0  0  0  0  0  0  0  0
   19.1455   -8.9827  -13.8301 C   0  0  0  0  0  0  0  0  0  0  0  0
   20.5974   -9.0152  -14.2335 C   0  0  0  0  0  0  0  0  0  0  0  0
   21.2376   -7.8873  -13.4714 C   0  0  1  0  0  0  0  0  0  0  0  0
   20.0800   -7.0750  -12.8594 C   0  0  0  0  0  0  0  0  0  0  0  0
   19.6747   -6.1346  -13.9356 O   0  0  0  0  0  0  0  0  0  0  0  0
   18.9655   -6.5017  -14.9144 N   0  0  0  0  0  0  0  0  0  0  0  0
   20.0548   -4.7599  -13.9413 C   0  0  1  0  0  0  0  0  0  0  0  0
   19.5073   -3.8006  -14.8387 C   0  0  0  0  0  0  0  0  0  0  0  0
   19.6086   -2.3594  -14.3917 C   0  0  0  0  0  0  0  0  0  0  0  0
   20.9968   -2.0663  -13.8939 O   0  0  0  0  0  0  0  0  0  0  0  0
   21.3672   -2.3582  -12.7291 C   0  0  0  0  0  0  0  0  0  0  0  0
   20.1374   -3.9544  -16.1761 O   0  0  0  0  0  0  0  0  0  0  0  0
   21.2107   -4.8004  -16.3513 O   0  0  0  0  0  0  0  0  0  0  0  0
   21.9583   -1.4422  -14.7093 O   0  0  0  0  0  0  0  0  0  0  0  0
  2  1  1  0
  3  2  2  0
  4  2  1  0
  5  6  1  0
  5  4  1  0
  7  6  1  0
  8  7  1  0
  8  9  1  1
 10 12  1  0
 10  8  1  0
 11 10  2  0
 12 16  1  0
 13 12  1  0
 13 14  1  0
 14 15  1  0
 16 15  1  0
 16 17  1  6
 17 18  2  0
 19 17  1  0
 20 19  1  0
 20 21  1  6
 22 21  1  0
 22 23  2  0
 24 20  1  0
 24 25  1  0
 26 22  1  0
 27 24  2  0
M  END
$$$$
