RPD.pdb
     RDKit          3D

 27 27  0  0  1  0  0  0  0  0999 V2000
   30.2994  -20.1136  -11.3610 N   0  0  0  0  0  0  0  0  0  0  0  0
   30.3532  -21.5182  -11.4976 C   0  0  0  0  0  0  0  0  0  0  0  0
   31.0375  -22.1775  -10.5960 N   0  0  0  0  0  0  0  0  0  0  0  0
   29.7222  -22.2240  -12.5476 N   0  0  0  0  0  0  0  0  0  0  0  0
   28.9832  -21.4457  -13.5458 C   0  0  0  0  0  0  0  0  0  0  0  0
   27.6930  -22.1154  -13.8532 C   0  0  0  0  0  0  0  0  0  0  0  0
   26.5503  -21.1687  -13.8951 C   0  0  0  0  0  0  0  0  0  0  0  0
   26.3872  -20.2291  -12.7611 C   0  0  2  0  0  0  0  0  0  0  0  0
   25.8900  -20.8116  -11.5437 N   0  0  0  0  0  0  0  0  0  0  0  0
   25.3581  -19.2090  -13.1848 C   0  0  0  0  0  0  0  0  0  0  0  0
   24.2180  -19.1865  -12.6025 O   0  0  0  0  0  0  0  0  0  0  0  0
   31.0973  -23.2149  -10.6106 N   0  0  0  0  0  0  0  0  0  0  0  0
   25.5777  -18.2581  -14.2020 C   0  0  0  0  0  0  0  0  0  0  0  0
   26.7061  -18.1646  -15.0835 C   0  0  0  0  0  0  0  0  0  0  0  0
   26.9320  -16.6919  -15.3115 C   0  0  0  0  0  0  0  0  0  0  0  0
   25.6886  -16.0233  -14.7922 C   0  0  1  0  0  0  0  0  0  0  0  0
   24.6755  -17.1537  -14.5271 C   0  0  0  0  0  0  0  0  0  0  0  0
   24.0196  -17.3820  -15.8404 O   0  0  0  0  0  0  0  0  0  0  0  0
   24.6033  -17.9836  -16.7855 N   0  0  0  0  0  0  0  0  0  0  0  0
   22.6938  -16.9409  -16.1266 C   0  0  1  0  0  0  0  0  0  0  0  0
   21.8909  -17.4967  -17.1619 C   0  0  0  0  0  0  0  0  0  0  0  0
   20.4328  -17.7004  -16.8161 C   0  0  0  0  0  0  0  0  0  0  0  0
   20.2868  -18.8118  -15.8140 O   0  0  0  0  0  0  0  0  0  0  0  0
   21.0937  -19.7736  -15.7568 C   0  0  0  0  0  0  0  0  0  0  0  0
   22.0021  -16.6564  -18.3829 O   0  0  0  0  0  0  0  0  0  0  0  0
   22.6395  -15.4358  -18.3371 O   0  0  0  0  0  0  0  0  0  0  0  0
   19.2307  -18.8361  -14.8852 O   0  0  0  0  0  0  0  0  0  0  0  0
  2  1  1  0
  3  2  2  0
  4  2  1  0
  5  6  1  0
  5  4  1  0
  7  6  1  0
  8  7  1  0
  8  9  1  1
 10 12  1  0
 10  8  1  0
 11 10  2  0
 12 16  1  0
 13 12  1  0
 13 14  1  0
 14 15  1  0
 16 15  1  0
 16 17  1  6
 17 18  2  0
 19 17  1  0
 20 19  1  0
 20 21  1  6
 22 21  1  0
 22 23  2  0
 24 20  1  0
 24 25  1  0
 26 22  1  0
 27 24  2  0
M  END
$$$$
