RPD.pdb
     RDKit          3D

 27 27  0  0  1  0  0  0  0  0999 V2000
   18.4019  -20.0247  -16.4292 N   0  0  0  0  0  0  0  0  0  0  0  0
   18.7684  -21.3397  -16.0672 C   0  0  0  0  0  0  0  0  0  0  0  0
   17.9676  -22.3052  -16.4445 N   0  0  0  0  0  0  0  0  0  0  0  0
   19.9308  -21.6484  -15.3241 N   0  0  0  0  0  0  0  0  0  0  0  0
   20.6720  -20.5360  -14.7228 C   0  0  0  0  0  0  0  0  0  0  0  0
   21.6438  -19.9884  -15.7045 C   0  0  0  0  0  0  0  0  0  0  0  0
   23.0389  -19.9970  -15.1972 C   0  0  0  0  0  0  0  0  0  0  0  0
   24.0284  -20.8421  -15.9058 C   0  0  2  0  0  0  0  0  0  0  0  0
   23.5131  -22.0675  -16.4547 N   0  0  0  0  0  0  0  0  0  0  0  0
   25.0657  -21.2466  -14.8862 C   0  0  0  0  0  0  0  0  0  0  0  0
   25.1239  -22.4654  -14.4979 O   0  0  0  0  0  0  0  0  0  0  0  0
   18.2033  -23.3033  -16.2766 N   0  0  0  0  0  0  0  0  0  0  0  0
   25.9952  -20.3490  -14.3231 C   0  0  0  0  0  0  0  0  0  0  0  0
   26.1334  -18.9469  -14.5960 C   0  0  0  0  0  0  0  0  0  0  0  0
   27.6095  -18.6531  -14.5143 C   0  0  0  0  0  0  0  0  0  0  0  0
   28.2120  -19.8688  -13.8648 C   0  0  1  0  0  0  0  0  0  0  0  0
   27.0272  -20.7095  -13.3512 C   0  0  0  0  0  0  0  0  0  0  0  0
   26.7138  -20.1362  -12.0170 O   0  0  0  0  0  0  0  0  0  0  0  0
   26.1134  -19.0326  -11.8860 N   0  0  0  0  0  0  0  0  0  0  0  0
   27.0665  -20.7857  -10.7972 C   0  0  2  0  0  0  0  0  0  0  0  0
   26.3190  -20.6492   -9.5938 C   0  0  0  0  0  0  0  0  0  0  0  0
   26.5823  -19.3867   -8.8039 C   0  0  0  0  0  0  0  0  0  0  0  0
   27.3714  -19.7047   -7.5642 O   0  0  0  0  0  0  0  0  0  0  0  0
   27.5948  -20.8852   -7.1956 C   0  0  0  0  0  0  0  0  0  0  0  0
   24.8674  -20.7562   -9.8952 O   0  0  0  0  0  0  0  0  0  0  0  0
   24.0942  -21.7181   -9.2826 O   0  0  0  0  0  0  0  0  0  0  0  0
   27.9007  -18.6915   -6.7444 O   0  0  0  0  0  0  0  0  0  0  0  0
  2  1  1  0
  3  2  2  0
  4  2  1  0
  5  6  1  0
  5  4  1  0
  7  6  1  0
  8  7  1  0
  8  9  1  1
 10 12  1  0
 10  8  1  0
 11 10  2  0
 12 16  1  0
 13 12  1  0
 13 14  1  0
 14 15  1  0
 16 15  1  0
 16 17  1  1
 17 18  2  0
 19 17  1  0
 20 19  1  0
 20 21  1  6
 22 21  1  0
 22 23  2  0
 24 20  1  0
 24 25  1  0
 26 22  1  0
 27 24  2  0
M  END
$$$$
