RPD.pdb
     RDKit          3D

 27 27  0  0  1  0  0  0  0  0999 V2000
   18.8700  -22.4421  -16.5154 N   0  0  0  0  0  0  0  0  0  0  0  0
   19.0874  -23.0612  -15.2648 C   0  0  0  0  0  0  0  0  0  0  0  0
   19.1183  -24.3706  -15.2470 N   0  0  0  0  0  0  0  0  0  0  0  0
   19.2591  -22.3433  -14.0591 N   0  0  0  0  0  0  0  0  0  0  0  0
   19.1438  -20.8831  -14.1116 C   0  0  0  0  0  0  0  0  0  0  0  0
   20.4328  -20.2911  -14.5540 C   0  0  0  0  0  0  0  0  0  0  0  0
   21.2244  -19.7330  -13.4290 C   0  0  0  0  0  0  0  0  0  0  0  0
   22.5479  -20.3364  -13.1468 C   0  0  2  0  0  0  0  0  0  0  0  0
   23.1637  -21.0187  -14.2530 N   0  0  0  0  0  0  0  0  0  0  0  0
   22.3313  -21.3833  -12.0807 C   0  0  0  0  0  0  0  0  0  0  0  0
   22.1810  -22.6079  -12.4232 O   0  0  0  0  0  0  0  0  0  0  0  0
   19.2439  -24.8990  -14.3610 N   0  0  0  0  0  0  0  0  0  0  0  0
   22.2844  -21.0924  -10.7023 C   0  0  0  0  0  0  0  0  0  0  0  0
   22.3557  -19.8026  -10.0773 C   0  0  0  0  0  0  0  0  0  0  0  0
   23.1088  -20.0087   -8.7880 C   0  0  0  0  0  0  0  0  0  0  0  0
   23.1427  -21.4998   -8.5923 C   0  0  1  0  0  0  0  0  0  0  0  0
   22.1760  -22.0893   -9.6375 C   0  0  0  0  0  0  0  0  0  0  0  0
   20.8406  -22.0218   -8.9902 O   0  0  0  0  0  0  0  0  0  0  0  0
   20.1634  -20.9558   -8.9602 N   0  0  0  0  0  0  0  0  0  0  0  0
   20.2319  -23.1473   -8.3601 C   0  0  1  0  0  0  0  0  0  0  0  0
   18.8247  -23.2884   -8.2009 C   0  0  0  0  0  0  0  0  0  0  0  0
   18.1165  -24.0364   -9.3082 C   0  0  0  0  0  0  0  0  0  0  0  0
   16.8450  -23.3270   -9.6836 O   0  0  0  0  0  0  0  0  0  0  0  0
   16.4263  -22.3228   -9.0546 C   0  0  0  0  0  0  0  0  0  0  0  0
   18.5346  -23.9367   -6.8952 O   0  0  0  0  0  0  0  0  0  0  0  0
   17.2966  -23.8008   -6.3058 O   0  0  0  0  0  0  0  0  0  0  0  0
   16.0501  -23.7553  -10.7622 O   0  0  0  0  0  0  0  0  0  0  0  0
  2  1  1  0
  3  2  2  0
  4  2  1  0
  5  6  1  0
  5  4  1  0
  7  6  1  0
  8  7  1  0
  8  9  1  6
 10 12  1  0
 10  8  1  0
 11 10  2  0
 12 16  1  0
 13 12  1  0
 13 14  1  0
 14 15  1  0
 16 15  1  0
 16 17  1  1
 17 18  2  0
 19 17  1  0
 20 19  1  0
 20 21  1  1
 22 21  1  0
 22 23  2  0
 24 20  1  0
 24 25  1  0
 26 22  1  0
 27 24  2  0
M  END
$$$$
