RPD.pdb
     RDKit          3D

 27 27  0  0  1  0  0  0  0  0999 V2000
   21.7607  -20.5815  -16.7119 N   0  0  0  0  0  0  0  0  0  0  0  0
   22.5545  -19.4220  -16.5714 C   0  0  0  0  0  0  0  0  0  0  0  0
   21.9270  -18.2972  -16.3327 N   0  0  0  0  0  0  0  0  0  0  0  0
   23.9637  -19.4236  -16.6848 N   0  0  0  0  0  0  0  0  0  0  0  0
   24.6296  -20.7112  -16.9013 C   0  0  0  0  0  0  0  0  0  0  0  0
   26.1031  -20.5361  -16.8249 C   0  0  0  0  0  0  0  0  0  0  0  0
   26.5906  -20.3750  -15.4321 C   0  0  0  0  0  0  0  0  0  0  0  0
   27.0933  -21.5792  -14.7303 C   0  0  2  0  0  0  0  0  0  0  0  0
   27.5833  -22.6300  -15.5814 N   0  0  0  0  0  0  0  0  0  0  0  0
   25.9233  -22.1651  -13.9774 C   0  0  0  0  0  0  0  0  0  0  0  0
   25.5227  -23.3482  -14.2594 O   0  0  0  0  0  0  0  0  0  0  0  0
   22.4365  -17.3936  -16.2698 N   0  0  0  0  0  0  0  0  0  0  0  0
   25.2295  -21.4785  -12.9604 C   0  0  0  0  0  0  0  0  0  0  0  0
   25.4555  -20.1389  -12.4980 C   0  0  0  0  0  0  0  0  0  0  0  0
   25.1814  -20.1612  -11.0160 C   0  0  0  0  0  0  0  0  0  0  0  0
   24.4844  -21.4712  -10.7697 C   0  0  2  0  0  0  0  0  0  0  0  0
   24.1417  -22.0402  -12.1601 C   0  0  0  0  0  0  0  0  0  0  0  0
   22.8472  -21.4036  -12.5147 O   0  0  0  0  0  0  0  0  0  0  0  0
   22.7876  -20.3331  -13.1829 N   0  0  0  0  0  0  0  0  0  0  0  0
   21.5880  -21.9508  -12.1287 C   0  0  2  0  0  0  0  0  0  0  0  0
   20.4440  -21.9545  -12.9752 C   0  0  0  0  0  0  0  0  0  0  0  0
   19.5813  -23.1942  -12.8977 C   0  0  0  0  0  0  0  0  0  0  0  0
   18.3858  -23.0523  -13.7986 O   0  0  0  0  0  0  0  0  0  0  0  0
   18.1407  -21.9912  -14.4256 C   0  0  0  0  0  0  0  0  0  0  0  0
   19.6162  -20.7516  -12.6977 O   0  0  0  0  0  0  0  0  0  0  0  0
   18.8894  -20.1543  -13.7045 O   0  0  0  0  0  0  0  0  0  0  0  0
   17.4711  -24.1047  -13.9846 O   0  0  0  0  0  0  0  0  0  0  0  0
  2  1  1  0
  3  2  2  0
  4  2  1  0
  5  6  1  0
  5  4  1  0
  7  6  1  0
  8  7  1  0
  8  9  1  6
 10 12  1  0
 10  8  1  0
 11 10  2  0
 12 16  1  0
 13 12  1  0
 13 14  1  0
 14 15  1  0
 16 15  1  0
 16 17  1  1
 17 18  2  0
 19 17  1  0
 20 19  1  0
 20 21  1  1
 22 21  1  0
 22 23  2  0
 24 20  1  0
 24 25  1  0
 26 22  1  0
 27 24  2  0
M  END
$$$$
