RPD.pdb
     RDKit          3D

 27 27  0  0  1  0  0  0  0  0999 V2000
   21.2290  -19.6898  -14.4079 N   0  0  0  0  0  0  0  0  0  0  0  0
   20.9617  -21.0655  -14.2334 C   0  0  0  0  0  0  0  0  0  0  0  0
   19.7925  -21.4995  -14.6339 N   0  0  0  0  0  0  0  0  0  0  0  0
   21.8783  -21.9697  -13.6494 N   0  0  0  0  0  0  0  0  0  0  0  0
   23.0423  -21.4096  -12.9567 C   0  0  0  0  0  0  0  0  0  0  0  0
   22.6497  -20.9550  -11.5976 C   0  0  0  0  0  0  0  0  0  0  0  0
   23.7628  -20.2973  -10.8684 C   0  0  0  0  0  0  0  0  0  0  0  0
   25.0435  -21.0329  -10.7493 C   0  0  2  0  0  0  0  0  0  0  0  0
   25.5994  -21.0939   -9.4243 N   0  0  0  0  0  0  0  0  0  0  0  0
   26.0530  -20.2895  -11.5903 C   0  0  0  0  0  0  0  0  0  0  0  0
   26.6218  -19.2459  -11.1140 O   0  0  0  0  0  0  0  0  0  0  0  0
   19.4958  -22.4833  -14.4784 N   0  0  0  0  0  0  0  0  0  0  0  0
   26.4185  -20.6803  -12.8944 C   0  0  0  0  0  0  0  0  0  0  0  0
   25.9444  -21.8159  -13.6327 C   0  0  0  0  0  0  0  0  0  0  0  0
   27.1162  -22.2964  -14.4500 C   0  0  0  0  0  0  0  0  0  0  0  0
   28.1252  -21.1834  -14.3740 C   0  0  2  0  0  0  0  0  0  0  0  0
   27.3931  -19.9868  -13.7362 C   0  0  0  0  0  0  0  0  0  0  0  0
   26.7171  -19.3134  -14.8748 O   0  0  0  0  0  0  0  0  0  0  0  0
   25.6786  -19.7892  -15.4141 N   0  0  0  0  0  0  0  0  0  0  0  0
   27.1890  -18.0905  -15.4371 C   0  0  2  0  0  0  0  0  0  0  0  0
   26.3680  -17.2106  -16.1966 C   0  0  0  0  0  0  0  0  0  0  0  0
   26.8118  -15.7650  -16.2208 C   0  0  0  0  0  0  0  0  0  0  0  0
   25.9512  -14.9730  -17.1656 O   0  0  0  0  0  0  0  0  0  0  0  0
   26.3323  -14.6662  -18.3232 C   0  0  0  0  0  0  0  0  0  0  0  0
   26.2477  -17.7196  -17.5880 O   0  0  0  0  0  0  0  0  0  0  0  0
   25.0407  -17.6679  -18.2505 O   0  0  0  0  0  0  0  0  0  0  0  0
   24.6680  -14.5274  -16.7999 O   0  0  0  0  0  0  0  0  0  0  0  0
  2  1  1  0
  3  2  2  0
  4  2  1  0
  5  6  1  0
  5  4  1  0
  7  6  1  0
  8  7  1  0
  8  9  1  1
 10 12  1  0
 10  8  1  0
 11 10  2  0
 12 16  1  0
 13 12  1  0
 13 14  1  0
 14 15  1  0
 16 15  1  0
 16 17  1  6
 17 18  2  0
 19 17  1  0
 20 19  1  0
 20 21  1  6
 22 21  1  0
 22 23  2  0
 24 20  1  0
 24 25  1  0
 26 22  1  0
 27 24  2  0
M  END
$$$$
