RPD.pdb
     RDKit          3D

 27 27  0  0  1  0  0  0  0  0999 V2000
   22.2996  -29.3740  -14.7157 N   0  0  0  0  0  0  0  0  0  0  0  0
   22.9348  -30.0547  -15.7776 C   0  0  0  0  0  0  0  0  0  0  0  0
   23.2066  -29.3574  -16.8527 N   0  0  0  0  0  0  0  0  0  0  0  0
   23.2723  -31.4268  -15.7327 N   0  0  0  0  0  0  0  0  0  0  0  0
   23.6437  -31.9964  -14.4343 C   0  0  0  0  0  0  0  0  0  0  0  0
   22.4203  -32.3807  -13.6837 C   0  0  0  0  0  0  0  0  0  0  0  0
   22.7201  -32.9106  -12.3298 C   0  0  0  0  0  0  0  0  0  0  0  0
   23.1822  -34.3142  -12.2218 C   0  0  2  0  0  0  0  0  0  0  0  0
   22.2468  -35.3085  -12.6749 N   0  0  0  0  0  0  0  0  0  0  0  0
   23.4028  -34.5888  -10.7538 C   0  0  0  0  0  0  0  0  0  0  0  0
   22.4772  -35.1548  -10.0738 O   0  0  0  0  0  0  0  0  0  0  0  0
   23.6393  -29.7960  -17.6896 N   0  0  0  0  0  0  0  0  0  0  0  0
   24.5893  -34.2558  -10.0694 C   0  0  0  0  0  0  0  0  0  0  0  0
   25.5852  -33.2991  -10.4593 C   0  0  0  0  0  0  0  0  0  0  0  0
   26.9061  -33.8718  -10.0130 C   0  0  0  0  0  0  0  0  0  0  0  0
   26.5466  -34.9985   -9.0834 C   0  0  1  0  0  0  0  0  0  0  0  0
   25.0347  -34.8656   -8.8167 C   0  0  0  0  0  0  0  0  0  0  0  0
   24.9377  -33.8940   -7.6972 O   0  0  0  0  0  0  0  0  0  0  0  0
   25.1152  -32.6549   -7.8678 N   0  0  0  0  0  0  0  0  0  0  0  0
   24.6399  -34.2874   -6.3590 C   0  0  1  0  0  0  0  0  0  0  0  0
   24.5909  -33.3751   -5.2679 C   0  0  0  0  0  0  0  0  0  0  0  0
   23.6307  -33.7394   -4.1578 C   0  0  0  0  0  0  0  0  0  0  0  0
   22.2107  -33.5879   -4.6284 O   0  0  0  0  0  0  0  0  0  0  0  0
   21.9262  -33.2702   -5.8106 C   0  0  0  0  0  0  0  0  0  0  0  0
   25.9562  -33.1950   -4.7085 O   0  0  0  0  0  0  0  0  0  0  0  0
   26.1943  -32.2519   -3.7327 O   0  0  0  0  0  0  0  0  0  0  0  0
   21.1196  -33.7908   -3.7642 O   0  0  0  0  0  0  0  0  0  0  0  0
  2  1  1  0
  3  2  2  0
  4  2  1  0
  5  6  1  0
  5  4  1  0
  7  6  1  0
  8  7  1  0
  8  9  1  1
 10 12  1  0
 10  8  1  0
 11 10  2  0
 12 16  1  0
 13 12  1  0
 13 14  1  0
 14 15  1  0
 16 15  1  0
 16 17  1  1
 17 18  2  0
 19 17  1  0
 20 19  1  0
 20 21  1  1
 22 21  1  0
 22 23  2  0
 24 20  1  0
 24 25  1  0
 26 22  1  0
 27 24  2  0
M  END
$$$$
