RPD.pdb
     RDKit          3D

 27 27  0  0  1  0  0  0  0  0999 V2000
   24.8916  -24.1233  -13.4951 N   0  0  0  0  0  0  0  0  0  0  0  0
   24.5077  -24.2393  -14.8492 C   0  0  0  0  0  0  0  0  0  0  0  0
   24.4152  -25.4506  -15.3392 N   0  0  0  0  0  0  0  0  0  0  0  0
   24.2352  -23.1284  -15.6801 N   0  0  0  0  0  0  0  0  0  0  0  0
   24.1225  -23.3659  -17.1220 C   0  0  0  0  0  0  0  0  0  0  0  0
   25.1834  -22.6145  -17.8414 C   0  0  0  0  0  0  0  0  0  0  0  0
   24.9598  -21.1470  -17.8242 C   0  0  0  0  0  0  0  0  0  0  0  0
   25.7311  -20.3400  -16.8499 C   0  0  2  0  0  0  0  0  0  0  0  0
   26.7954  -21.0357  -16.1777 N   0  0  0  0  0  0  0  0  0  0  0  0
   24.7635  -19.9175  -15.7709 C   0  0  0  0  0  0  0  0  0  0  0  0
   24.9411  -20.3277  -14.5710 O   0  0  0  0  0  0  0  0  0  0  0  0
   24.1114  -25.6186  -16.3188 N   0  0  0  0  0  0  0  0  0  0  0  0
   23.6534  -19.0808  -16.0049 C   0  0  0  0  0  0  0  0  0  0  0  0
   23.2112  -18.5447  -17.2604 C   0  0  0  0  0  0  0  0  0  0  0  0
   22.6654  -17.1732  -16.9553 C   0  0  0  0  0  0  0  0  0  0  0  0
   22.5281  -17.1342  -15.4579 C   0  0  2  0  0  0  0  0  0  0  0  0
   22.7476  -18.5798  -14.9716 C   0  0  0  0  0  0  0  0  0  0  0  0
   21.4121  -19.2198  -15.0901 O   0  0  0  0  0  0  0  0  0  0  0  0
   20.8958  -19.4907  -16.2107 N   0  0  0  0  0  0  0  0  0  0  0  0
   20.6226  -19.5711  -13.9555 C   0  0  1  0  0  0  0  0  0  0  0  0
   19.4277  -20.3394  -14.0415 C   0  0  0  0  0  0  0  0  0  0  0  0
   19.1471  -21.2405  -12.8598 C   0  0  0  0  0  0  0  0  0  0  0  0
   18.8791  -22.6437  -13.3287 O   0  0  0  0  0  0  0  0  0  0  0  0
   18.8365  -22.9471  -14.5474 C   0  0  0  0  0  0  0  0  0  0  0  0
   18.2699  -19.4347  -14.2659 O   0  0  0  0  0  0  0  0  0  0  0  0
   17.2024  -19.8416  -15.0362 O   0  0  0  0  0  0  0  0  0  0  0  0
   18.6562  -23.6963  -12.4224 O   0  0  0  0  0  0  0  0  0  0  0  0
  2  1  1  0
  3  2  2  0
  4  2  1  0
  5  6  1  0
  5  4  1  0
  7  6  1  0
  8  7  1  0
  8  9  1  1
 10 12  1  0
 10  8  1  0
 11 10  2  0
 12 16  1  0
 13 12  1  0
 13 14  1  0
 14 15  1  0
 16 15  1  0
 16 17  1  6
 17 18  2  0
 19 17  1  0
 20 19  1  0
 20 21  1  6
 22 21  1  0
 22 23  2  0
 24 20  1  0
 24 25  1  0
 26 22  1  0
 27 24  2  0
M  END
$$$$
