RPD.pdb
     RDKit          3D

 27 27  0  0  1  0  0  0  0  0999 V2000
   27.1640  -20.9004  -10.7632 N   0  0  0  0  0  0  0  0  0  0  0  0
   25.8034  -21.1461  -10.4759 C   0  0  0  0  0  0  0  0  0  0  0  0
   25.3120  -20.5838   -9.3996 N   0  0  0  0  0  0  0  0  0  0  0  0
   24.9724  -21.9622  -11.2773 N   0  0  0  0  0  0  0  0  0  0  0  0
   25.2701  -22.0405  -12.7103 C   0  0  0  0  0  0  0  0  0  0  0  0
   24.4484  -21.0485  -13.4509 C   0  0  0  0  0  0  0  0  0  0  0  0
   25.0910  -20.5968  -14.7106 C   0  0  0  0  0  0  0  0  0  0  0  0
   26.4714  -20.0640  -14.6318 C   0  0  2  0  0  0  0  0  0  0  0  0
   27.0094  -19.9379  -13.3040 N   0  0  0  0  0  0  0  0  0  0  0  0
   26.4320  -18.6657  -15.1994 C   0  0  0  0  0  0  0  0  0  0  0  0
   26.1766  -17.6792  -14.4241 O   0  0  0  0  0  0  0  0  0  0  0  0
   24.3157  -20.7047   -9.1301 N   0  0  0  0  0  0  0  0  0  0  0  0
   26.6649  -18.3702  -16.5579 C   0  0  0  0  0  0  0  0  0  0  0  0
   26.9059  -19.2975  -17.6262 C   0  0  0  0  0  0  0  0  0  0  0  0
   27.8864  -18.6199  -18.5488 C   0  0  0  0  0  0  0  0  0  0  0  0
   27.9001  -17.1807  -18.1116 C   0  0  1  0  0  0  0  0  0  0  0  0
   26.7269  -17.0234  -17.1250 C   0  0  0  0  0  0  0  0  0  0  0  0
   25.5462  -16.7632  -17.9883 O   0  0  0  0  0  0  0  0  0  0  0  0
   24.9884  -17.6798  -18.6549 N   0  0  0  0  0  0  0  0  0  0  0  0
   24.9624  -15.4692  -18.1259 C   0  0  1  0  0  0  0  0  0  0  0  0
   23.5743  -15.2580  -18.3584 C   0  0  0  0  0  0  0  0  0  0  0  0
   22.7840  -14.7590  -17.1694 C   0  0  0  0  0  0  0  0  0  0  0  0
   21.3486  -14.5350  -17.5567 O   0  0  0  0  0  0  0  0  0  0  0  0
   20.5294  -15.4810  -17.6718 C   0  0  0  0  0  0  0  0  0  0  0  0
   23.3980  -14.3255  -19.5024 O   0  0  0  0  0  0  0  0  0  0  0  0
   22.2248  -14.3176  -20.2248 O   0  0  0  0  0  0  0  0  0  0  0  0
   20.8451  -13.2474  -17.8164 O   0  0  0  0  0  0  0  0  0  0  0  0
  2  1  1  0
  3  2  2  0
  4  2  1  0
  5  6  1  0
  5  4  1  0
  7  6  1  0
  8  7  1  0
  8  9  1  1
 10 12  1  0
 10  8  1  0
 11 10  2  0
 12 16  1  0
 13 12  1  0
 13 14  1  0
 14 15  1  0
 16 15  1  0
 16 17  1  6
 17 18  2  0
 19 17  1  0
 20 19  1  0
 20 21  1  6
 22 21  1  0
 22 23  2  0
 24 20  1  0
 24 25  1  0
 26 22  1  0
 27 24  2  0
M  END
$$$$
