RPD.pdb
     RDKit          3D

 27 27  0  0  1  0  0  0  0  0999 V2000
   24.9452  -26.3708  -15.5241 N   0  0  0  0  0  0  0  0  0  0  0  0
   23.9744  -25.3562  -15.6745 C   0  0  0  0  0  0  0  0  0  0  0  0
   22.7340  -25.7410  -15.8462 N   0  0  0  0  0  0  0  0  0  0  0  0
   24.2801  -23.9761  -15.6575 N   0  0  0  0  0  0  0  0  0  0  0  0
   25.6587  -23.5861  -15.3481 C   0  0  0  0  0  0  0  0  0  0  0  0
   25.8131  -23.3997  -13.8821 C   0  0  0  0  0  0  0  0  0  0  0  0
   25.1287  -22.1806  -13.3831 C   0  0  0  0  0  0  0  0  0  0  0  0
   25.9231  -21.2177  -12.5848 C   0  0  2  0  0  0  0  0  0  0  0  0
   25.6957  -21.2573  -11.1652 N   0  0  0  0  0  0  0  0  0  0  0  0
   25.5126  -19.8361  -13.0337 C   0  0  0  0  0  0  0  0  0  0  0  0
   24.5913  -19.2157  -12.3966 O   0  0  0  0  0  0  0  0  0  0  0  0
   21.9886  -25.0681  -16.1137 N   0  0  0  0  0  0  0  0  0  0  0  0
   26.0923  -19.1703  -14.1327 C   0  0  0  0  0  0  0  0  0  0  0  0
   27.1002  -19.6679  -15.0247 C   0  0  0  0  0  0  0  0  0  0  0  0
   27.9569  -18.4811  -15.3842 C   0  0  0  0  0  0  0  0  0  0  0  0
   27.1749  -17.2828  -14.9203 C   0  0  2  0  0  0  0  0  0  0  0  0
   25.7732  -17.8053  -14.5504 C   0  0  0  0  0  0  0  0  0  0  0  0
   25.0267  -17.8113  -15.8348 O   0  0  0  0  0  0  0  0  0  0  0  0
   25.4607  -18.4090  -16.8595 N   0  0  0  0  0  0  0  0  0  0  0  0
   23.7758  -17.1469  -16.0021 C   0  0  1  0  0  0  0  0  0  0  0  0
   22.5431  -17.8343  -16.1845 C   0  0  0  0  0  0  0  0  0  0  0  0
   22.2038  -18.8550  -15.1214 C   0  0  0  0  0  0  0  0  0  0  0  0
   20.8661  -19.4788  -15.4082 O   0  0  0  0  0  0  0  0  0  0  0  0
   20.1772  -19.1580  -16.4091 C   0  0  0  0  0  0  0  0  0  0  0  0
   21.4367  -16.8487  -16.3021 O   0  0  0  0  0  0  0  0  0  0  0  0
   21.6776  -15.5024  -16.1346 O   0  0  0  0  0  0  0  0  0  0  0  0
   20.3102  -20.4570  -14.5639 O   0  0  0  0  0  0  0  0  0  0  0  0
  2  1  1  0
  3  2  2  0
  4  2  1  0
  5  6  1  0
  5  4  1  0
  7  6  1  0
  8  7  1  0
  8  9  1  1
 10 12  1  0
 10  8  1  0
 11 10  2  0
 12 16  1  0
 13 12  1  0
 13 14  1  0
 14 15  1  0
 16 15  1  0
 16 17  1  6
 17 18  2  0
 19 17  1  0
 20 19  1  0
 20 21  1  6
 22 21  1  0
 22 23  2  0
 24 20  1  0
 24 25  1  0
 26 22  1  0
 27 24  2  0
M  END
$$$$
