RPD.pdb
     RDKit          3D

 27 27  0  0  1  0  0  0  0  0999 V2000
   22.5269  -23.8601  -13.1254 N   0  0  0  0  0  0  0  0  0  0  0  0
   23.8741  -24.2836  -13.1240 C   0  0  0  0  0  0  0  0  0  0  0  0
   24.1346  -25.4391  -13.6833 N   0  0  0  0  0  0  0  0  0  0  0  0
   24.9262  -23.5345  -12.5491 N   0  0  0  0  0  0  0  0  0  0  0  0
   24.5812  -22.2805  -11.8733 C   0  0  0  0  0  0  0  0  0  0  0  0
   25.8169  -21.6113  -11.3904 C   0  0  0  0  0  0  0  0  0  0  0  0
   26.1859  -20.4283  -12.2077 C   0  0  0  0  0  0  0  0  0  0  0  0
   25.9786  -20.5063  -13.6727 C   0  0  2  0  0  0  0  0  0  0  0  0
   27.1656  -20.7320  -14.4529 N   0  0  0  0  0  0  0  0  0  0  0  0
   25.4428  -19.1641  -14.1092 C   0  0  0  0  0  0  0  0  0  0  0  0
   24.3619  -18.7183  -13.5870 O   0  0  0  0  0  0  0  0  0  0  0  0
   25.1021  -25.8161  -13.7263 N   0  0  0  0  0  0  0  0  0  0  0  0
   26.0709  -18.3518  -15.0750 C   0  0  0  0  0  0  0  0  0  0  0  0
   27.2484  -18.6518  -15.8384 C   0  0  0  0  0  0  0  0  0  0  0  0
   27.9777  -17.3433  -16.0052 C   0  0  0  0  0  0  0  0  0  0  0  0
   26.9852  -16.2904  -15.5939 C   0  0  1  0  0  0  0  0  0  0  0  0
   25.6299  -17.0112  -15.4591 C   0  0  0  0  0  0  0  0  0  0  0  0
   25.0723  -17.0172  -16.8360 O   0  0  0  0  0  0  0  0  0  0  0  0
   25.6692  -16.4660  -17.8033 N   0  0  0  0  0  0  0  0  0  0  0  0
   23.8317  -17.6407  -17.1622 C   0  0  2  0  0  0  0  0  0  0  0  0
   22.6998  -16.9255  -17.6447 C   0  0  0  0  0  0  0  0  0  0  0  0
   21.7713  -16.3830  -16.5814 C   0  0  0  0  0  0  0  0  0  0  0  0
   21.0004  -17.5050  -15.9431 O   0  0  0  0  0  0  0  0  0  0  0  0
   21.1981  -18.7096  -16.2417 C   0  0  0  0  0  0  0  0  0  0  0  0
   23.1507  -15.8175  -18.5269 O   0  0  0  0  0  0  0  0  0  0  0  0
   22.8501  -15.8265  -19.8715 O   0  0  0  0  0  0  0  0  0  0  0  0
   20.0084  -17.2638  -14.9754 O   0  0  0  0  0  0  0  0  0  0  0  0
  2  1  1  0
  3  2  2  0
  4  2  1  0
  5  6  1  0
  5  4  1  0
  7  6  1  0
  8  7  1  0
  8  9  1  6
 10 12  1  0
 10  8  1  0
 11 10  2  0
 12 16  1  0
 13 12  1  0
 13 14  1  0
 14 15  1  0
 16 15  1  0
 16 17  1  6
 17 18  2  0
 19 17  1  0
 20 19  1  0
 20 21  1  1
 22 21  1  0
 22 23  2  0
 24 20  1  0
 24 25  1  0
 26 22  1  0
 27 24  2  0
M  END
$$$$
