RPD.pdb
     RDKit          3D

 27 27  0  0  1  0  0  0  0  0999 V2000
   18.7119  -25.4579   -7.1187 N   0  0  0  0  0  0  0  0  0  0  0  0
   17.5672  -24.6341   -7.0440 C   0  0  0  0  0  0  0  0  0  0  0  0
   16.9191  -24.6188   -5.9058 N   0  0  0  0  0  0  0  0  0  0  0  0
   17.0980  -23.8519   -8.1240 N   0  0  0  0  0  0  0  0  0  0  0  0
   17.7615  -24.0112   -9.4212 C   0  0  0  0  0  0  0  0  0  0  0  0
   19.1720  -23.5541   -9.3257 C   0  0  0  0  0  0  0  0  0  0  0  0
   19.6396  -22.8729  -10.5589 C   0  0  0  0  0  0  0  0  0  0  0  0
   19.0898  -23.3332  -11.8556 C   0  0  2  0  0  0  0  0  0  0  0  0
   19.1642  -24.7503  -12.0894 N   0  0  0  0  0  0  0  0  0  0  0  0
   19.9240  -22.6888  -12.9362 C   0  0  0  0  0  0  0  0  0  0  0  0
   20.6707  -23.4210  -13.6750 O   0  0  0  0  0  0  0  0  0  0  0  0
   16.0400  -24.0770   -5.7885 N   0  0  0  0  0  0  0  0  0  0  0  0
   19.9326  -21.3022  -13.1902 C   0  0  0  0  0  0  0  0  0  0  0  0
   19.2268  -20.2774  -12.4755 C   0  0  0  0  0  0  0  0  0  0  0  0
   18.8327  -19.2508  -13.5062 C   0  0  0  0  0  0  0  0  0  0  0  0
   19.6373  -19.5990  -14.7285 C   0  0  1  0  0  0  0  0  0  0  0  0
   20.6666  -20.6526  -14.2758 C   0  0  0  0  0  0  0  0  0  0  0  0
   21.8016  -19.8584  -13.7393 O   0  0  0  0  0  0  0  0  0  0  0  0
   21.6244  -18.7842  -13.0985 N   0  0  0  0  0  0  0  0  0  0  0  0
   23.1630  -20.2484  -13.9085 C   0  0  2  0  0  0  0  0  0  0  0  0
   23.9073  -19.9963  -15.0951 C   0  0  0  0  0  0  0  0  0  0  0  0
   23.6264  -20.9311  -16.2502 C   0  0  0  0  0  0  0  0  0  0  0  0
   24.5246  -20.6065  -17.4115 O   0  0  0  0  0  0  0  0  0  0  0  0
   24.0890  -20.0967  -18.4744 C   0  0  0  0  0  0  0  0  0  0  0  0
   23.6935  -18.5902  -15.5269 O   0  0  0  0  0  0  0  0  0  0  0  0
   22.4467  -18.1629  -15.9283 O   0  0  0  0  0  0  0  0  0  0  0  0
   25.9073  -20.8620  -17.3709 O   0  0  0  0  0  0  0  0  0  0  0  0
  2  1  1  0
  3  2  2  0
  4  2  1  0
  5  6  1  0
  5  4  1  0
  7  6  1  0
  8  7  1  0
  8  9  1  1
 10 12  1  0
 10  8  1  0
 11 10  2  0
 12 16  1  0
 13 12  1  0
 13 14  1  0
 14 15  1  0
 16 15  1  0
 16 17  1  1
 17 18  2  0
 19 17  1  0
 20 19  1  0
 20 21  1  6
 22 21  1  0
 22 23  2  0
 24 20  1  0
 24 25  1  0
 26 22  1  0
 27 24  2  0
M  END
$$$$
