RPD.pdb
     RDKit          3D

 27 27  0  0  1  0  0  0  0  0999 V2000
   19.4924  -23.2814  -10.0076 N   0  0  0  0  0  0  0  0  0  0  0  0
   19.9149  -24.4008  -10.7577 C   0  0  0  0  0  0  0  0  0  0  0  0
   19.1990  -25.4926  -10.6510 N   0  0  0  0  0  0  0  0  0  0  0  0
   21.0567  -24.3946  -11.5914 N   0  0  0  0  0  0  0  0  0  0  0  0
   22.2481  -23.6881  -11.1120 C   0  0  0  0  0  0  0  0  0  0  0  0
   22.3766  -22.3838  -11.8120 C   0  0  0  0  0  0  0  0  0  0  0  0
   23.7872  -22.0260  -12.1049 C   0  0  0  0  0  0  0  0  0  0  0  0
   24.5020  -21.1704  -11.1289 C   0  0  2  0  0  0  0  0  0  0  0  0
   23.6624  -20.3691  -10.2795 N   0  0  0  0  0  0  0  0  0  0  0  0
   25.3338  -20.1974  -11.9293 C   0  0  0  0  0  0  0  0  0  0  0  0
   24.9153  -18.9983  -12.0926 O   0  0  0  0  0  0  0  0  0  0  0  0
   19.4777  -26.3736  -11.1266 N   0  0  0  0  0  0  0  0  0  0  0  0
   26.5692  -20.5316  -12.5200 C   0  0  0  0  0  0  0  0  0  0  0  0
   27.2490  -21.7945  -12.4716 C   0  0  0  0  0  0  0  0  0  0  0  0
   28.7203  -21.4708  -12.4248 C   0  0  0  0  0  0  0  0  0  0  0  0
   28.8088  -20.0129  -12.7845 C   0  0  1  0  0  0  0  0  0  0  0  0
   27.4085  -19.6119  -13.2874 C   0  0  0  0  0  0  0  0  0  0  0  0
   27.4097  -19.9802  -14.7266 O   0  0  0  0  0  0  0  0  0  0  0  0
   27.7324  -21.1356  -15.1225 N   0  0  0  0  0  0  0  0  0  0  0  0
   27.0498  -19.0623  -15.7572 C   0  0  1  0  0  0  0  0  0  0  0  0
   25.8557  -19.1751  -16.5233 C   0  0  0  0  0  0  0  0  0  0  0  0
   24.6050  -19.4945  -15.7353 C   0  0  0  0  0  0  0  0  0  0  0  0
   23.4141  -19.5510  -16.6515 O   0  0  0  0  0  0  0  0  0  0  0  0
   23.5145  -19.3850  -17.8931 C   0  0  0  0  0  0  0  0  0  0  0  0
   25.6480  -17.9291  -17.3067 O   0  0  0  0  0  0  0  0  0  0  0  0
   25.3604  -17.9883  -18.6529 O   0  0  0  0  0  0  0  0  0  0  0  0
   22.1165  -19.7897  -16.1636 O   0  0  0  0  0  0  0  0  0  0  0  0
  2  1  1  0
  3  2  2  0
  4  2  1  0
  5  6  1  0
  5  4  1  0
  7  6  1  0
  8  7  1  0
  8  9  1  6
 10 12  1  0
 10  8  1  0
 11 10  2  0
 12 16  1  0
 13 12  1  0
 13 14  1  0
 14 15  1  0
 16 15  1  0
 16 17  1  6
 17 18  2  0
 19 17  1  0
 20 19  1  0
 20 21  1  6
 22 21  1  0
 22 23  2  0
 24 20  1  0
 24 25  1  0
 26 22  1  0
 27 24  2  0
M  END
$$$$
