RPD.pdb
     RDKit          3D

 27 27  0  0  1  0  0  0  0  0999 V2000
   28.1319  -25.9022  -17.2746 N   0  0  0  0  0  0  0  0  0  0  0  0
   29.3005  -25.1800  -16.9472 C   0  0  0  0  0  0  0  0  0  0  0  0
   30.4476  -25.7406  -17.2405 N   0  0  0  0  0  0  0  0  0  0  0  0
   29.2839  -23.9120  -16.3224 N   0  0  0  0  0  0  0  0  0  0  0  0
   27.9866  -23.2506  -16.1547 C   0  0  0  0  0  0  0  0  0  0  0  0
   27.7670  -22.2835  -17.2611 C   0  0  0  0  0  0  0  0  0  0  0  0
   26.9266  -21.1288  -16.8560 C   0  0  0  0  0  0  0  0  0  0  0  0
   27.3945  -20.2946  -15.7244 C   0  0  2  0  0  0  0  0  0  0  0  0
   27.8628  -21.0208  -14.5746 N   0  0  0  0  0  0  0  0  0  0  0  0
   26.2056  -19.4921  -15.2537 C   0  0  0  0  0  0  0  0  0  0  0  0
   25.5254  -19.9050  -14.2506 O   0  0  0  0  0  0  0  0  0  0  0  0
   31.3504  -25.3106  -16.9576 N   0  0  0  0  0  0  0  0  0  0  0  0
   25.7884  -18.2901  -15.8605 C   0  0  0  0  0  0  0  0  0  0  0  0
   26.3684  -17.6376  -16.9994 C   0  0  0  0  0  0  0  0  0  0  0  0
   26.2278  -16.1587  -16.7450 C   0  0  0  0  0  0  0  0  0  0  0  0
   25.2615  -16.0523  -15.5971 C   0  0  1  0  0  0  0  0  0  0  0  0
   24.6721  -17.4628  -15.4035 C   0  0  0  0  0  0  0  0  0  0  0  0
   23.5419  -17.5298  -16.3653 O   0  0  0  0  0  0  0  0  0  0  0  0
   23.7049  -17.8819  -17.5675 N   0  0  0  0  0  0  0  0  0  0  0  0
   22.2016  -17.2031  -16.0033 C   0  0  1  0  0  0  0  0  0  0  0  0
   21.1282  -18.1362  -16.0535 C   0  0  0  0  0  0  0  0  0  0  0  0
   21.4130  -19.4892  -15.4407 C   0  0  0  0  0  0  0  0  0  0  0  0
   20.2355  -20.4043  -15.6317 O   0  0  0  0  0  0  0  0  0  0  0  0
   20.0144  -20.9950  -16.7187 C   0  0  0  0  0  0  0  0  0  0  0  0
   19.9234  -17.5429  -15.4165 O   0  0  0  0  0  0  0  0  0  0  0  0
   20.0484  -16.6825  -14.3476 O   0  0  0  0  0  0  0  0  0  0  0  0
   19.3113  -20.6456  -14.5990 O   0  0  0  0  0  0  0  0  0  0  0  0
  2  1  1  0
  3  2  2  0
  4  2  1  0
  5  6  1  0
  5  4  1  0
  7  6  1  0
  8  7  1  0
  8  9  1  1
 10 12  1  0
 10  8  1  0
 11 10  2  0
 12 16  1  0
 13 12  1  0
 13 14  1  0
 14 15  1  0
 16 15  1  0
 16 17  1  6
 17 18  2  0
 19 17  1  0
 20 19  1  0
 20 21  1  6
 22 21  1  0
 22 23  2  0
 24 20  1  0
 24 25  1  0
 26 22  1  0
 27 24  2  0
M  END
$$$$
