RPD.pdb
     RDKit          3D

 27 27  0  0  1  0  0  0  0  0999 V2000
   19.1982  -11.3176  -15.7760 N   0  0  0  0  0  0  0  0  0  0  0  0
   18.5823  -12.5877  -15.7331 C   0  0  0  0  0  0  0  0  0  0  0  0
   17.3398  -12.6324  -15.3206 N   0  0  0  0  0  0  0  0  0  0  0  0
   19.2388  -13.7852  -16.0989 N   0  0  0  0  0  0  0  0  0  0  0  0
   20.7011  -13.7597  -16.1959 C   0  0  0  0  0  0  0  0  0  0  0  0
   21.1199  -14.0769  -17.5858 C   0  0  0  0  0  0  0  0  0  0  0  0
   21.8951  -12.9792  -18.2164 C   0  0  0  0  0  0  0  0  0  0  0  0
   23.3700  -13.0033  -18.0761 C   0  0  2  0  0  0  0  0  0  0  0  0
   23.8834  -13.9440  -17.1169 N   0  0  0  0  0  0  0  0  0  0  0  0
   23.7832  -11.6379  -17.5820 C   0  0  0  0  0  0  0  0  0  0  0  0
   24.1919  -11.5026  -16.3761 O   0  0  0  0  0  0  0  0  0  0  0  0
   16.8266  -13.5323  -15.2384 N   0  0  0  0  0  0  0  0  0  0  0  0
   23.7482  -10.4773  -18.3813 C   0  0  0  0  0  0  0  0  0  0  0  0
   23.2675  -10.3567  -19.7281 C   0  0  0  0  0  0  0  0  0  0  0  0
   24.1582   -9.3405  -20.3957 C   0  0  0  0  0  0  0  0  0  0  0  0
   24.9113   -8.6853  -19.2705 C   0  0  2  0  0  0  0  0  0  0  0  0
   24.2341   -9.1604  -17.9704 C   0  0  0  0  0  0  0  0  0  0  0  0
   23.1002   -8.2206  -17.7757 O   0  0  0  0  0  0  0  0  0  0  0  0
   21.9996   -8.3642  -18.3790 N   0  0  0  0  0  0  0  0  0  0  0  0
   23.1724   -7.0967  -16.9007 C   0  0  1  0  0  0  0  0  0  0  0  0
   22.0492   -6.2858  -16.5745 C   0  0  0  0  0  0  0  0  0  0  0  0
   22.1218   -5.5807  -15.2385 C   0  0  0  0  0  0  0  0  0  0  0  0
   22.0101   -6.5774  -14.1183 O   0  0  0  0  0  0  0  0  0  0  0  0
   21.8412   -7.8051  -14.3271 C   0  0  0  0  0  0  0  0  0  0  0  0
   21.8252   -5.2889  -17.6540 O   0  0  0  0  0  0  0  0  0  0  0  0
   20.6635   -4.5491  -17.6938 O   0  0  0  0  0  0  0  0  0  0  0  0
   22.0849   -6.1852  -12.7695 O   0  0  0  0  0  0  0  0  0  0  0  0
  2  1  1  0
  3  2  2  0
  4  2  1  0
  5  6  1  0
  5  4  1  0
  7  6  1  0
  8  7  1  0
  8  9  1  1
 10 12  1  0
 10  8  1  0
 11 10  2  0
 12 16  1  0
 13 12  1  0
 13 14  1  0
 14 15  1  0
 16 15  1  0
 16 17  1  6
 17 18  2  0
 19 17  1  0
 20 19  1  0
 20 21  1  6
 22 21  1  0
 22 23  2  0
 24 20  1  0
 24 25  1  0
 26 22  1  0
 27 24  2  0
M  END
$$$$
