PYY.pdb
     RDKit          3D

 32 34  0  0  1  0  0  0  0  0999 V2000
   27.8501  -20.5580  -16.9201 N   0  0  0  0  0  0  0  0  0  0  0  0
   29.0054  -20.6713  -17.7761 C   0  0  0  0  0  0  0  0  0  0  0  0
   29.6176  -22.0155  -17.5515 C   0  0  0  0  0  0  0  0  0  0  0  0
   28.8787  -22.5141  -16.3021 C   0  0  0  0  0  0  0  0  0  0  0  0
   27.5133  -21.8952  -16.5488 C   0  0  1  0  0  0  0  0  0  0  0  0
   26.6326  -21.9837  -15.3674 C   0  0  0  0  0  0  0  0  0  0  0  0
   25.9682  -23.0431  -15.2236 O   0  0  0  0  0  0  0  0  0  0  0  0
   23.7119  -20.6755   -7.0767 O   0  0  0  0  0  0  0  0  0  0  0  0
   24.3659  -20.5970   -8.3061 C   0  0  0  0  0  0  0  0  0  0  0  0
   25.4851  -21.3211   -8.5611 C   0  0  0  0  0  0  0  0  0  0  0  0
   26.1333  -21.2377   -9.7914 C   0  0  0  0  0  0  0  0  0  0  0  0
   25.6661  -20.4186  -10.7981 C   0  0  0  0  0  0  0  0  0  0  0  0
   26.3629  -20.3496  -12.0802 C   0  0  0  0  0  0  0  0  0  0  0  0
   25.6554  -21.0748  -13.2082 C   0  0  2  0  0  0  0  0  0  0  0  0
   26.4856  -20.9777  -14.4016 N   0  0  0  0  0  0  0  0  0  0  0  0
   24.2878  -20.5882  -13.4477 C   0  0  0  0  0  0  0  0  0  0  0  0
   24.0427  -19.4903  -14.0113 O   0  0  0  0  0  0  0  0  0  0  0  0
   24.5315  -19.6929  -10.5217 C   0  0  0  0  0  0  0  0  0  0  0  0
   23.8753  -19.7611   -9.3110 C   0  0  0  0  0  0  0  0  0  0  0  0
   16.6330  -19.3791  -16.8700 O   0  0  0  0  0  0  0  0  0  0  0  0
   17.8985  -19.7477  -16.3689 C   0  0  0  0  0  0  0  0  0  0  0  0
   18.9080  -18.8214  -16.2381 C   0  0  0  0  0  0  0  0  0  0  0  0
   20.1477  -19.1968  -15.7441 C   0  0  0  0  0  0  0  0  0  0  0  0
   20.4212  -20.4908  -15.3682 C   0  0  0  0  0  0  0  0  0  0  0  0
   21.7233  -20.8874  -14.8494 C   0  0  0  0  0  0  0  0  0  0  0  0
   21.8052  -20.8547  -13.3128 C   0  0  2  0  0  0  0  0  0  0  0  0
   23.1617  -21.3564  -13.0448 N   0  0  0  0  0  0  0  0  0  0  0  0
   20.7619  -21.6703  -12.7017 C   0  0  0  0  0  0  0  0  0  0  0  0
   19.6119  -21.0827  -12.2117 O   0  0  0  0  0  0  0  0  0  0  0  0
   19.4073  -21.4110  -15.5018 C   0  0  0  0  0  0  0  0  0  0  0  0
   18.1541  -21.0463  -15.9979 C   0  0  0  0  0  0  0  0  0  0  0  0
   20.8852  -22.9142  -12.6081 O   0  0  0  0  0  0  0  0  0  0  0  0
  1  5  1  0
  1  2  1  0
  2  3  1  0
  4  3  1  0
  5  4  1  0
  5  6  1  1
  7  6  2  0
  8  9  1  0
  9 10  2  0
 10 11  1  0
 12 13  1  0
 12 11  2  0
 14 13  1  1
 14 16  1  0
 14 15  1  0
 15  6  1  0
 16 17  2  0
 18 12  1  0
 19 18  2  0
 19  9  1  0
 21 22  2  0
 21 20  1  0
 23 22  1  0
 24 23  2  0
 26 25  1  6
 25 24  1  0
 27 26  1  0
 27 16  1  0
 28 29  1  0
 28 26  1  0
 30 24  1  0
 30 31  2  0
 31 21  1  0
 32 28  2  0
M  END
$$$$
