PYY.pdb
     RDKit          3D

 32 34  0  0  1  0  0  0  0  0999 V2000
   28.4771  -19.8992  -15.9186 N   0  0  0  0  0  0  0  0  0  0  0  0
   28.9860  -19.2353  -17.0934 C   0  0  0  0  0  0  0  0  0  0  0  0
   29.2722  -17.8136  -16.7340 C   0  0  0  0  0  0  0  0  0  0  0  0
   28.6126  -17.6789  -15.3548 C   0  0  0  0  0  0  0  0  0  0  0  0
   28.8602  -19.0774  -14.8153 C   0  0  1  0  0  0  0  0  0  0  0  0
   28.1020  -19.3466  -13.5777 C   0  0  0  0  0  0  0  0  0  0  0  0
   28.2940  -18.5704  -12.6055 O   0  0  0  0  0  0  0  0  0  0  0  0
   19.9494  -20.3648  -10.4985 O   0  0  0  0  0  0  0  0  0  0  0  0
   21.1748  -20.5636  -11.1343 C   0  0  0  0  0  0  0  0  0  0  0  0
   22.0398  -21.5245  -10.7217 C   0  0  0  0  0  0  0  0  0  0  0  0
   23.2622  -21.7174  -11.3614 C   0  0  0  0  0  0  0  0  0  0  0  0
   23.6429  -20.9425  -12.4372 C   0  0  0  0  0  0  0  0  0  0  0  0
   24.9296  -21.1652  -13.0921 C   0  0  0  0  0  0  0  0  0  0  0  0
   26.0825  -20.4068  -12.4639 C   0  0  2  0  0  0  0  0  0  0  0  0
   27.1899  -20.3985  -13.4107 N   0  0  0  0  0  0  0  0  0  0  0  0
   26.4839  -20.9371  -11.1517 C   0  0  0  0  0  0  0  0  0  0  0  0
   27.4743  -21.6974  -10.9964 O   0  0  0  0  0  0  0  0  0  0  0  0
   22.7540  -19.9744  -12.8410 C   0  0  0  0  0  0  0  0  0  0  0  0
   21.5397  -19.7673  -12.2216 C   0  0  0  0  0  0  0  0  0  0  0  0
   29.3276  -19.9109   -3.0875 O   0  0  0  0  0  0  0  0  0  0  0  0
   28.8575  -19.9367   -4.4167 C   0  0  0  0  0  0  0  0  0  0  0  0
   27.8468  -19.0985   -4.8291 C   0  0  0  0  0  0  0  0  0  0  0  0
   27.3938  -19.1339   -6.1389 C   0  0  0  0  0  0  0  0  0  0  0  0
   27.9249  -19.9941   -7.0708 C   0  0  0  0  0  0  0  0  0  0  0  0
   27.4499  -20.0333   -8.4474 C   0  0  0  0  0  0  0  0  0  0  0  0
   26.2729  -21.0018   -8.6609 C   0  0  2  0  0  0  0  0  0  0  0  0
   25.7540  -20.6036   -9.9784 N   0  0  0  0  0  0  0  0  0  0  0  0
   25.2824  -20.8865   -7.5966 C   0  0  0  0  0  0  0  0  0  0  0  0
   25.4466  -21.5755   -6.4108 O   0  0  0  0  0  0  0  0  0  0  0  0
   28.9347  -20.8288   -6.6512 C   0  0  0  0  0  0  0  0  0  0  0  0
   29.4004  -20.8034   -5.3351 C   0  0  0  0  0  0  0  0  0  0  0  0
   24.2670  -20.1645   -7.7339 O   0  0  0  0  0  0  0  0  0  0  0  0
  1  5  1  0
  1  2  1  0
  2  3  1  0
  4  3  1  0
  5  4  1  0
  5  6  1  1
  7  6  2  0
  8  9  1  0
  9 10  2  0
 10 11  1  0
 12 13  1  0
 12 11  2  0
 14 13  1  6
 14 16  1  0
 14 15  1  0
 15  6  1  0
 16 17  2  0
 18 12  1  0
 19 18  2  0
 19  9  1  0
 21 22  2  0
 21 20  1  0
 23 22  1  0
 24 23  2  0
 26 25  1  1
 25 24  1  0
 27 26  1  0
 27 16  1  0
 28 29  1  0
 28 26  1  0
 30 24  1  0
 30 31  2  0
 31 21  1  0
 32 28  2  0
M  END
$$$$
