PYY.pdb
     RDKit          3D

 32 34  0  0  1  0  0  0  0  0999 V2000
   17.0342  -13.7357  -16.6397 N   0  0  0  0  0  0  0  0  0  0  0  0
   17.0970  -15.1089  -17.0760 C   0  0  0  0  0  0  0  0  0  0  0  0
   18.5364  -15.4945  -17.1842 C   0  0  0  0  0  0  0  0  0  0  0  0
   19.2543  -14.1446  -17.0513 C   0  0  0  0  0  0  0  0  0  0  0  0
   18.3161  -13.4507  -16.0785 C   0  0  1  0  0  0  0  0  0  0  0  0
   18.6045  -12.0088  -15.9484 C   0  0  0  0  0  0  0  0  0  0  0  0
   19.5996  -11.6823  -15.2501 O   0  0  0  0  0  0  0  0  0  0  0  0
   14.9660  -10.7110  -21.8870 O   0  0  0  0  0  0  0  0  0  0  0  0
   15.8202  -10.2884  -20.8686 C   0  0  0  0  0  0  0  0  0  0  0  0
   16.8428  -11.0668  -20.4325 C   0  0  0  0  0  0  0  0  0  0  0  0
   17.6922  -10.6382  -19.4148 C   0  0  0  0  0  0  0  0  0  0  0  0
   17.5297   -9.4090  -18.8103 C   0  0  0  0  0  0  0  0  0  0  0  0
   18.4345   -8.9817  -17.7459 C   0  0  0  0  0  0  0  0  0  0  0  0
   18.1029   -9.5590  -16.3837 C   0  0  2  0  0  0  0  0  0  0  0  0
   17.8531  -10.9854  -16.5436 N   0  0  0  0  0  0  0  0  0  0  0  0
   16.9838   -8.8754  -15.7169 C   0  0  0  0  0  0  0  0  0  0  0  0
   15.7797   -9.0883  -16.0131 O   0  0  0  0  0  0  0  0  0  0  0  0
   16.4888   -8.6344  -19.2651 C   0  0  0  0  0  0  0  0  0  0  0  0
   15.6372   -9.0400  -20.2707 C   0  0  0  0  0  0  0  0  0  0  0  0
   13.6614  -12.5587  -11.4879 O   0  0  0  0  0  0  0  0  0  0  0  0
   14.2869  -11.3261  -11.7664 C   0  0  0  0  0  0  0  0  0  0  0  0
   15.6573  -11.2025  -11.7377 C   0  0  0  0  0  0  0  0  0  0  0  0
   16.2599   -9.9848  -12.0135 C   0  0  0  0  0  0  0  0  0  0  0  0
   15.5279   -8.8629  -12.3234 C   0  0  0  0  0  0  0  0  0  0  0  0
   16.1591   -7.5823  -12.6130 C   0  0  0  0  0  0  0  0  0  0  0  0
   16.0917   -7.1897  -14.0996 C   0  0  2  0  0  0  0  0  0  0  0  0
   17.2220   -7.9259  -14.6861 N   0  0  0  0  0  0  0  0  0  0  0  0
   16.1938   -5.7459  -14.2792 C   0  0  0  0  0  0  0  0  0  0  0  0
   15.1364   -4.9229  -13.9442 O   0  0  0  0  0  0  0  0  0  0  0  0
   14.1588   -8.9942  -12.3502 C   0  0  0  0  0  0  0  0  0  0  0  0
   13.5391  -10.2147  -12.0744 C   0  0  0  0  0  0  0  0  0  0  0  0
   17.2366   -5.2237  -14.7387 O   0  0  0  0  0  0  0  0  0  0  0  0
  1  5  1  0
  1  2  1  0
  2  3  1  0
  4  3  1  0
  5  4  1  0
  5  6  1  6
  7  6  2  0
  8  9  1  0
  9 10  2  0
 10 11  1  0
 12 13  1  0
 12 11  2  0
 14 13  1  6
 14 16  1  0
 14 15  1  0
 15  6  1  0
 16 17  2  0
 18 12  1  0
 19 18  2  0
 19  9  1  0
 21 22  2  0
 21 20  1  0
 23 22  1  0
 24 23  2  0
 26 25  1  1
 25 24  1  0
 27 26  1  0
 27 16  1  0
 28 29  1  0
 28 26  1  0
 30 24  1  0
 30 31  2  0
 31 21  1  0
 32 28  2  0
M  END
$$$$
