PYY.pdb
     RDKit          3D

 32 34  0  0  1  0  0  0  0  0999 V2000
   27.6361  -22.5807  -17.2773 N   0  0  0  0  0  0  0  0  0  0  0  0
   28.1633  -22.7079  -18.6137 C   0  0  0  0  0  0  0  0  0  0  0  0
   28.3535  -21.3338  -19.1687 C   0  0  0  0  0  0  0  0  0  0  0  0
   27.6223  -20.4559  -18.1440 C   0  0  0  0  0  0  0  0  0  0  0  0
   27.9205  -21.2397  -16.8770 C   0  0  1  0  0  0  0  0  0  0  0  0
   27.1200  -20.7768  -15.7263 C   0  0  0  0  0  0  0  0  0  0  0  0
   27.3587  -19.6214  -15.2874 O   0  0  0  0  0  0  0  0  0  0  0  0
   19.7378  -19.4369  -11.0661 O   0  0  0  0  0  0  0  0  0  0  0  0
   20.7394  -19.9520  -11.8887 C   0  0  0  0  0  0  0  0  0  0  0  0
   21.1495  -19.2945  -13.0028 C   0  0  0  0  0  0  0  0  0  0  0  0
   22.1506  -19.8150  -13.8199 C   0  0  0  0  0  0  0  0  0  0  0  0
   22.7644  -21.0161  -13.5316 C   0  0  0  0  0  0  0  0  0  0  0  0
   23.8128  -21.5403  -14.4035 C   0  0  0  0  0  0  0  0  0  0  0  0
   25.2006  -21.0204  -14.0833 C   0  0  2  0  0  0  0  0  0  0  0  0
   26.1200  -21.5285  -15.0929 N   0  0  0  0  0  0  0  0  0  0  0  0
   25.6456  -21.3464  -12.7194 C   0  0  0  0  0  0  0  0  0  0  0  0
   25.9076  -22.5200  -12.3489 O   0  0  0  0  0  0  0  0  0  0  0  0
   22.3360  -21.6677  -12.3993 C   0  0  0  0  0  0  0  0  0  0  0  0
   21.3471  -21.1698  -11.5776 C   0  0  0  0  0  0  0  0  0  0  0  0
   29.4925  -20.0727   -4.8520 O   0  0  0  0  0  0  0  0  0  0  0  0
   28.9780  -19.9916   -6.1623 C   0  0  0  0  0  0  0  0  0  0  0  0
   29.4354  -20.8245   -7.1579 C   0  0  0  0  0  0  0  0  0  0  0  0
   28.9212  -20.7345   -8.4422 C   0  0  0  0  0  0  0  0  0  0  0  0
   27.9464  -19.8236   -8.7748 C   0  0  0  0  0  0  0  0  0  0  0  0
   27.4051  -19.7270  -10.1238 C   0  0  0  0  0  0  0  0  0  0  0  0
   26.2259  -20.6826  -10.3795 C   0  0  2  0  0  0  0  0  0  0  0  0
   25.8030  -20.3259  -11.7424 N   0  0  0  0  0  0  0  0  0  0  0  0
   25.1699  -20.5098   -9.3885 C   0  0  0  0  0  0  0  0  0  0  0  0
   25.1889  -21.2342   -8.2126 O   0  0  0  0  0  0  0  0  0  0  0  0
   27.4942  -18.9945   -7.7745 C   0  0  0  0  0  0  0  0  0  0  0  0
   28.0035  -19.0747   -6.4769 C   0  0  0  0  0  0  0  0  0  0  0  0
   24.2278  -19.7057   -9.5811 O   0  0  0  0  0  0  0  0  0  0  0  0
  1  5  1  0
  1  2  1  0
  2  3  1  0
  4  3  1  0
  5  4  1  0
  5  6  1  1
  7  6  2  0
  8  9  1  0
  9 10  2  0
 10 11  1  0
 12 13  1  0
 12 11  2  0
 14 13  1  6
 14 16  1  0
 14 15  1  0
 15  6  1  0
 16 17  2  0
 18 12  1  0
 19 18  2  0
 19  9  1  0
 21 22  2  0
 21 20  1  0
 23 22  1  0
 24 23  2  0
 26 25  1  1
 25 24  1  0
 27 26  1  0
 27 16  1  0
 28 29  1  0
 28 26  1  0
 30 24  1  0
 30 31  2  0
 31 21  1  0
 32 28  2  0
M  END
$$$$
