PYY.pdb
     RDKit          3D

 32 34  0  0  1  0  0  0  0  0999 V2000
   32.7058  -28.8383  -19.1393 N   0  0  0  0  0  0  0  0  0  0  0  0
   33.4216  -27.7378  -19.7364 C   0  0  0  0  0  0  0  0  0  0  0  0
   32.4296  -26.8640  -20.4326 C   0  0  0  0  0  0  0  0  0  0  0  0
   31.1577  -27.7227  -20.4140 C   0  0  0  0  0  0  0  0  0  0  0  0
   31.3411  -28.4221  -19.0778 C   0  0  1  0  0  0  0  0  0  0  0  0
   30.3859  -29.5312  -18.8863 C   0  0  0  0  0  0  0  0  0  0  0  0
   29.3693  -29.5491  -19.6284 O   0  0  0  0  0  0  0  0  0  0  0  0
   27.6561  -37.8081  -17.2306 O   0  0  0  0  0  0  0  0  0  0  0  0
   28.3602  -36.6055  -17.2889 C   0  0  0  0  0  0  0  0  0  0  0  0
   28.7168  -36.0497  -18.4744 C   0  0  0  0  0  0  0  0  0  0  0  0
   29.4201  -34.8482  -18.5251 C   0  0  0  0  0  0  0  0  0  0  0  0
   29.7819  -34.1759  -17.3763 C   0  0  0  0  0  0  0  0  0  0  0  0
   30.5182  -32.9166  -17.4558 C   0  0  0  0  0  0  0  0  0  0  0  0
   29.6619  -31.7223  -17.8290 C   0  0  2  0  0  0  0  0  0  0  0  0
   30.5308  -30.5584  -17.9428 N   0  0  0  0  0  0  0  0  0  0  0  0
   28.5480  -31.4888  -16.8968 C   0  0  0  0  0  0  0  0  0  0  0  0
   28.7212  -31.1618  -15.6942 O   0  0  0  0  0  0  0  0  0  0  0  0
   29.4121  -34.7539  -16.1850 C   0  0  0  0  0  0  0  0  0  0  0  0
   28.7161  -35.9420  -16.1132 C   0  0  0  0  0  0  0  0  0  0  0  0
   21.6345  -31.0274  -21.0026 O   0  0  0  0  0  0  0  0  0  0  0  0
   22.5767  -30.8011  -19.9781 C   0  0  0  0  0  0  0  0  0  0  0  0
   22.2112  -30.8547  -18.6524 C   0  0  0  0  0  0  0  0  0  0  0  0
   23.1473  -30.6303  -17.6547 C   0  0  0  0  0  0  0  0  0  0  0  0
   24.4626  -30.3484  -17.9395 C   0  0  0  0  0  0  0  0  0  0  0  0
   25.4477  -30.1118  -16.8927 C   0  0  0  0  0  0  0  0  0  0  0  0
   26.1053  -31.4010  -16.3691 C   0  0  2  0  0  0  0  0  0  0  0  0
   27.1997  -31.6243  -17.3262 N   0  0  0  0  0  0  0  0  0  0  0  0
   25.1551  -32.5063  -16.3178 C   0  0  0  0  0  0  0  0  0  0  0  0
   24.1920  -32.5552  -15.3289 O   0  0  0  0  0  0  0  0  0  0  0  0
   24.8204  -30.2965  -19.2668 C   0  0  0  0  0  0  0  0  0  0  0  0
   23.8877  -30.5205  -20.2814 C   0  0  0  0  0  0  0  0  0  0  0  0
   25.1915  -33.4301  -17.1642 O   0  0  0  0  0  0  0  0  0  0  0  0
  1  5  1  0
  1  2  1  0
  2  3  1  0
  4  3  1  0
  5  4  1  0
  5  6  1  6
  7  6  2  0
  8  9  1  0
  9 10  2  0
 10 11  1  0
 12 13  1  0
 12 11  2  0
 14 13  1  1
 14 16  1  0
 14 15  1  0
 15  6  1  0
 16 17  2  0
 18 12  1  0
 19 18  2  0
 19  9  1  0
 21 22  2  0
 21 20  1  0
 23 22  1  0
 24 23  2  0
 26 25  1  6
 25 24  1  0
 27 26  1  0
 27 16  1  0
 28 29  1  0
 28 26  1  0
 30 24  1  0
 30 31  2  0
 31 21  1  0
 32 28  2  0
M  END
$$$$
