PYY.pdb
     RDKit          3D

 32 34  0  0  1  0  0  0  0  0999 V2000
   18.6497  -15.8608    2.8983 N   0  0  0  0  0  0  0  0  0  0  0  0
   18.0522  -15.1918    1.7689 C   0  0  0  0  0  0  0  0  0  0  0  0
   16.7239  -14.6582    2.1969 C   0  0  0  0  0  0  0  0  0  0  0  0
   16.5164  -15.3335    3.5594 C   0  0  0  0  0  0  0  0  0  0  0  0
   17.9549  -15.3731    4.0467 C   0  0  1  0  0  0  0  0  0  0  0  0
   18.1202  -16.2153    5.2478 C   0  0  0  0  0  0  0  0  0  0  0  0
   17.5450  -15.8345    6.3006 O   0  0  0  0  0  0  0  0  0  0  0  0
   13.9250  -20.8069    3.4889 O   0  0  0  0  0  0  0  0  0  0  0  0
   15.1390  -20.5323    4.1183 C   0  0  0  0  0  0  0  0  0  0  0  0
   15.2114  -20.3196    5.4567 C   0  0  0  0  0  0  0  0  0  0  0  0
   16.4275  -20.0457    6.0786 C   0  0  0  0  0  0  0  0  0  0  0  0
   17.6045  -19.9796    5.3624 C   0  0  0  0  0  0  0  0  0  0  0  0
   18.8675  -19.6920    6.0380 C   0  0  0  0  0  0  0  0  0  0  0  0
   19.0211  -18.2476    6.4729 C   0  0  2  0  0  0  0  0  0  0  0  0
   18.8675  -17.4008    5.2973 N   0  0  0  0  0  0  0  0  0  0  0  0
   20.2829  -17.9826    7.1814 C   0  0  0  0  0  0  0  0  0  0  0  0
   21.3903  -18.4411    6.7986 O   0  0  0  0  0  0  0  0  0  0  0  0
   17.5117  -20.1977    4.0082 C   0  0  0  0  0  0  0  0  0  0  0  0
   16.3183  -20.4701    3.3736 C   0  0  0  0  0  0  0  0  0  0  0  0
   20.1003  -10.8341    7.3033 O   0  0  0  0  0  0  0  0  0  0  0  0
   20.6536  -12.1205    7.4688 C   0  0  0  0  0  0  0  0  0  0  0  0
   21.5549  -12.3818    8.4756 C   0  0  0  0  0  0  0  0  0  0  0  0
   22.0915  -13.6510    8.6275 C   0  0  0  0  0  0  0  0  0  0  0  0
   21.7535  -14.6901    7.7928 C   0  0  0  0  0  0  0  0  0  0  0  0
   22.3167  -16.0242    7.9504 C   0  0  0  0  0  0  0  0  0  0  0  0
   21.5871  -16.8753    9.0051 C   0  0  2  0  0  0  0  0  0  0  0  0
   20.3037  -17.1780    8.3531 N   0  0  0  0  0  0  0  0  0  0  0  0
   21.4340  -16.1554   10.2642 C   0  0  0  0  0  0  0  0  0  0  0  0
   22.5402  -15.8421   11.0297 O   0  0  0  0  0  0  0  0  0  0  0  0
   20.8522  -14.4212    6.7890 C   0  0  0  0  0  0  0  0  0  0  0  0
   20.3041  -13.1475    6.6248 C   0  0  0  0  0  0  0  0  0  0  0  0
   20.3025  -15.8078   10.6767 O   0  0  0  0  0  0  0  0  0  0  0  0
  1  5  1  0
  1  2  1  0
  2  3  1  0
  4  3  1  0
  5  4  1  0
  5  6  1  1
  7  6  2  0
  8  9  1  0
  9 10  2  0
 10 11  1  0
 12 13  1  0
 12 11  2  0
 14 13  1  6
 14 16  1  0
 14 15  1  0
 15  6  1  0
 16 17  2  0
 18 12  1  0
 19 18  2  0
 19  9  1  0
 21 22  2  0
 21 20  1  0
 23 22  1  0
 24 23  2  0
 26 25  1  6
 25 24  1  0
 27 26  1  0
 27 16  1  0
 28 29  1  0
 28 26  1  0
 30 24  1  0
 30 31  2  0
 31 21  1  0
 32 28  2  0
M  END
$$$$
