PYY.pdb
     RDKit          3D

 32 34  0  0  1  0  0  0  0  0999 V2000
   25.8225  -11.8049  -18.6356 N   0  0  0  0  0  0  0  0  0  0  0  0
   26.5962  -12.7848  -19.3577 C   0  0  0  0  0  0  0  0  0  0  0  0
   25.6713  -13.5252  -20.2680 C   0  0  0  0  0  0  0  0  0  0  0  0
   24.2887  -13.0716  -19.7798 C   0  0  0  0  0  0  0  0  0  0  0  0
   24.6149  -11.6425  -19.3804 C   0  0  1  0  0  0  0  0  0  0  0  0
   23.5227  -11.0072  -18.6171 C   0  0  0  0  0  0  0  0  0  0  0  0
   22.3993  -10.9274  -19.1792 O   0  0  0  0  0  0  0  0  0  0  0  0
   21.1909  -16.0339  -15.0107 O   0  0  0  0  0  0  0  0  0  0  0  0
   21.5406  -14.6841  -15.0446 C   0  0  0  0  0  0  0  0  0  0  0  0
   20.7131  -13.7507  -15.5790 C   0  0  0  0  0  0  0  0  0  0  0  0
   21.0688  -12.4041  -15.6094 C   0  0  0  0  0  0  0  0  0  0  0  0
   22.2729  -11.9651  -15.0994 C   0  0  0  0  0  0  0  0  0  0  0  0
   22.6225  -10.5473  -15.1419 C   0  0  0  0  0  0  0  0  0  0  0  0
   22.5581   -9.9360  -16.5279 C   0  0  2  0  0  0  0  0  0  0  0  0
   23.6483  -10.4903  -17.3197 N   0  0  0  0  0  0  0  0  0  0  0  0
   22.5772   -8.4650  -16.5183 C   0  0  0  0  0  0  0  0  0  0  0  0
   23.5713   -7.7975  -16.1319 O   0  0  0  0  0  0  0  0  0  0  0  0
   23.0980  -12.9247  -14.5621 C   0  0  0  0  0  0  0  0  0  0  0  0
   22.7647  -14.2620  -14.5224 C   0  0  0  0  0  0  0  0  0  0  0  0
   20.4627   -0.2190  -18.9392 O   0  0  0  0  0  0  0  0  0  0  0  0
   20.5994   -1.6133  -18.7791 C   0  0  0  0  0  0  0  0  0  0  0  0
   19.6419   -2.3499  -18.1199 C   0  0  0  0  0  0  0  0  0  0  0  0
   19.7884   -3.7202  -17.9693 C   0  0  0  0  0  0  0  0  0  0  0  0
   20.8794   -4.3953  -18.4636 C   0  0  0  0  0  0  0  0  0  0  0  0
   21.0355   -5.8350  -18.3060 C   0  0  0  0  0  0  0  0  0  0  0  0
   21.4762   -6.2510  -16.8912 C   0  0  2  0  0  0  0  0  0  0  0  0
   21.4485   -7.7203  -16.9566 N   0  0  0  0  0  0  0  0  0  0  0  0
   20.5885   -5.7065  -15.8701 C   0  0  0  0  0  0  0  0  0  0  0  0
   19.4268   -6.3703  -15.5271 O   0  0  0  0  0  0  0  0  0  0  0  0
   21.8323   -3.6523  -19.1213 C   0  0  0  0  0  0  0  0  0  0  0  0
   21.6971   -2.2717  -19.2800 C   0  0  0  0  0  0  0  0  0  0  0  0
   20.8585   -4.6311  -15.2854 O   0  0  0  0  0  0  0  0  0  0  0  0
  1  5  1  0
  1  2  1  0
  2  3  1  0
  4  3  1  0
  5  4  1  0
  5  6  1  1
  7  6  2  0
  8  9  1  0
  9 10  2  0
 10 11  1  0
 12 13  1  0
 12 11  2  0
 14 13  1  1
 14 16  1  0
 14 15  1  0
 15  6  1  0
 16 17  2  0
 18 12  1  0
 19 18  2  0
 19  9  1  0
 21 22  2  0
 21 20  1  0
 23 22  1  0
 24 23  2  0
 26 25  1  6
 25 24  1  0
 27 26  1  0
 27 16  1  0
 28 29  1  0
 28 26  1  0
 30 24  1  0
 30 31  2  0
 31 21  1  0
 32 28  2  0
M  END
$$$$
