PYY.pdb
     RDKit          3D

 32 34  0  0  1  0  0  0  0  0999 V2000
   22.7985  -10.3950  -19.6989 N   0  0  0  0  0  0  0  0  0  0  0  0
   23.2697  -11.6311  -20.2735 C   0  0  0  0  0  0  0  0  0  0  0  0
   24.7003  -11.4451  -20.6618 C   0  0  0  0  0  0  0  0  0  0  0  0
   24.8902   -9.9288  -20.5196 C   0  0  0  0  0  0  0  0  0  0  0  0
   23.9722   -9.6660  -19.3378 C   0  0  1  0  0  0  0  0  0  0  0  0
   23.7367   -8.2256  -19.1163 C   0  0  0  0  0  0  0  0  0  0  0  0
   24.6967   -7.5491  -18.6635 O   0  0  0  0  0  0  0  0  0  0  0  0
   20.4470   -0.0549  -20.2080 O   0  0  0  0  0  0  0  0  0  0  0  0
   20.6766   -1.4305  -20.2252 C   0  0  0  0  0  0  0  0  0  0  0  0
   19.8120   -2.3008  -19.6448 C   0  0  0  0  0  0  0  0  0  0  0  0
   20.0477   -3.6736  -19.6658 C   0  0  0  0  0  0  0  0  0  0  0  0
   21.1658   -4.2036  -20.2754 C   0  0  0  0  0  0  0  0  0  0  0  0
   21.3900   -5.6472  -20.2852 C   0  0  0  0  0  0  0  0  0  0  0  0
   22.2900   -6.1406  -19.1693 C   0  0  2  0  0  0  0  0  0  0  0  0
   22.5276   -7.5636  -19.3731 N   0  0  0  0  0  0  0  0  0  0  0  0
   21.7623   -5.8575  -17.8255 C   0  0  0  0  0  0  0  0  0  0  0  0
   20.7513   -6.4384  -17.3526 O   0  0  0  0  0  0  0  0  0  0  0  0
   22.0301   -3.3070  -20.8580 C   0  0  0  0  0  0  0  0  0  0  0  0
   21.8152   -1.9451  -20.8482 C   0  0  0  0  0  0  0  0  0  0  0  0
   23.2896  -10.7192  -14.2724 O   0  0  0  0  0  0  0  0  0  0  0  0
   23.1912   -9.3162  -14.3737 C   0  0  0  0  0  0  0  0  0  0  0  0
   22.2446   -8.6171  -13.6599 C   0  0  0  0  0  0  0  0  0  0  0  0
   22.1584   -7.2377  -13.7685 C   0  0  0  0  0  0  0  0  0  0  0  0
   23.0011   -6.5165  -14.5811 C   0  0  0  0  0  0  0  0  0  0  0  0
   22.9118   -5.0671  -14.6970 C   0  0  0  0  0  0  0  0  0  0  0  0
   21.8120   -4.5977  -15.6660 C   0  0  2  0  0  0  0  0  0  0  0  0
   22.3877   -4.8955  -16.9864 N   0  0  0  0  0  0  0  0  0  0  0  0
   21.5013   -3.1846  -15.4823 C   0  0  0  0  0  0  0  0  0  0  0  0
   20.7108   -2.7738  -14.4268 O   0  0  0  0  0  0  0  0  0  0  0  0
   23.9446   -7.2221  -15.2913 C   0  0  0  0  0  0  0  0  0  0  0  0
   24.0422   -8.6113  -15.1912 C   0  0  0  0  0  0  0  0  0  0  0  0
   21.9417   -2.3176  -16.2732 O   0  0  0  0  0  0  0  0  0  0  0  0
  1  5  1  0
  1  2  1  0
  2  3  1  0
  4  3  1  0
  5  4  1  0
  5  6  1  6
  7  6  2  0
  8  9  1  0
  9 10  2  0
 10 11  1  0
 12 13  1  0
 12 11  2  0
 14 13  1  6
 14 16  1  0
 14 15  1  0
 15  6  1  0
 16 17  2  0
 18 12  1  0
 19 18  2  0
 19  9  1  0
 21 22  2  0
 21 20  1  0
 23 22  1  0
 24 23  2  0
 26 25  1  1
 25 24  1  0
 27 26  1  0
 27 16  1  0
 28 29  1  0
 28 26  1  0
 30 24  1  0
 30 31  2  0
 31 21  1  0
 32 28  2  0
M  END
$$$$
