RRH.pdb
     RDKit          3D

 33 33  0  0  1  0  0  0  0  0999 V2000
   12.9409  -20.6735    8.7221 N   0  0  0  0  0  0  0  0  0  0  0  0
   13.3998  -19.3313    8.5966 C   0  0  0  0  0  0  0  0  0  0  0  0
   13.4598  -18.8519    7.3977 N   0  0  0  0  0  0  0  0  0  0  0  0
   13.7607  -18.5936    9.7395 N   0  0  0  0  0  0  0  0  0  0  0  0
   13.6687  -19.2697   11.0387 C   0  0  0  0  0  0  0  0  0  0  0  0
   12.4040  -18.8543   11.6875 C   0  0  0  0  0  0  0  0  0  0  0  0
   12.1587  -19.3781   13.0563 C   0  0  0  0  0  0  0  0  0  0  0  0
   10.8155  -20.0173   13.1945 C   0  0  2  0  0  0  0  0  0  0  0  0
    9.8148  -19.2164   12.5412 N   0  0  0  0  0  0  0  0  0  0  0  0
   10.4966  -20.1931   14.6515 C   0  0  0  0  0  0  0  0  0  0  0  0
    9.9642  -19.2805   15.3095 O   0  0  0  0  0  0  0  0  0  0  0  0
   13.7506  -17.9000    7.1504 N   0  0  0  0  0  0  0  0  0  0  0  0
   10.8393  -27.2953   15.0409 C   0  0  0  0  0  0  0  0  0  0  0  0
   11.6718  -27.2702   16.1918 N   0  0  0  0  0  0  0  0  0  0  0  0
   12.6849  -28.0680   16.2591 N   0  0  0  0  0  0  0  0  0  0  0  0
   11.3791  -26.3687   17.2527 C   0  0  0  0  0  0  0  0  0  0  0  0
   10.2878  -25.4233   17.0352 C   0  0  0  0  0  0  0  0  0  0  0  0
   10.9241  -24.0376   17.0066 C   0  0  0  0  0  0  0  0  0  0  0  0
    9.7992  -23.0578   16.6738 C   0  0  1  0  0  0  0  0  0  0  0  0
   10.4170  -21.6810   16.6575 N   0  0  0  0  0  0  0  0  0  0  0  0
   10.8049  -21.4135   15.2878 C   0  0  0  0  0  0  0  0  0  0  0  0
   11.5664  -21.5434   17.5446 O   0  0  0  0  0  0  0  0  0  0  0  0
   12.2822  -22.5500   17.7819 N   0  0  0  0  0  0  0  0  0  0  0  0
   13.2838  -28.0942   17.1045 C   0  0  1  0  0  0  0  0  0  0  0  0
   11.9563  -20.3341   18.1812 C   0  0  0  0  0  0  0  0  0  0  0  0
   12.0438  -20.2492   19.6254 C   0  0  0  0  0  0  0  0  0  0  0  0
   11.0552  -21.1936   20.2753 C   0  0  0  0  0  0  0  0  0  0  0  0
   10.4811  -20.6512   21.5080 N   0  0  0  0  0  0  0  0  0  0  0  0
   10.7897  -19.4271   22.0698 C   0  0  0  0  0  0  0  0  0  0  0  0
   10.0596  -19.3033   23.1788 N   0  0  0  0  0  0  0  0  0  0  0  0
    9.3058  -20.4033   23.3325 C   0  0  0  0  0  0  0  0  0  0  0  0
    9.5641  -21.2279   22.3098 O   0  0  0  0  0  0  0  0  0  0  0  0
   13.4439  -20.5621   20.0630 O   0  0  0  0  0  0  0  0  0  0  0  0
  1  2  1  0
  2  4  1  0
  3  2  2  0
  4  5  1  0
  6  5  1  0
  7  6  1  0
  8  9  1  1
  8  7  1  0
 10 20  1  0
 10  8  1  0
 11 10  2  0
 13 12  1  0
 14 13  2  0
 15 13  1  0
 16 15  1  0
 17 16  1  0
 17 18  1  0
 19 18  1  6
 19 20  1  0
 19 21  1  0
 21 22  2  0
 23 21  1  0
 23 24  1  0
 24 25  1  1
 25 26  1  0
 26 30  1  0
 26 27  2  0
 27 28  1  0
 29 28  1  0
 30 29  2  0
 31 32  1  0
 31 24  1  0
 33 31  2  0
M  END
$$$$
