RRH.pdb
     RDKit          3D

 33 33  0  0  1  0  0  0  0  0999 V2000
    6.0172  -13.7003   15.0908 N   0  0  0  0  0  0  0  0  0  0  0  0
    6.9133  -14.7704   14.8081 C   0  0  0  0  0  0  0  0  0  0  0  0
    6.7634  -15.3626   13.6690 N   0  0  0  0  0  0  0  0  0  0  0  0
    7.8992  -15.1377   15.7428 N   0  0  0  0  0  0  0  0  0  0  0  0
    9.2376  -15.4494   15.2279 C   0  0  0  0  0  0  0  0  0  0  0  0
   10.1127  -15.7695   16.3789 C   0  0  0  0  0  0  0  0  0  0  0  0
   11.5465  -16.0123   16.0732 C   0  0  0  0  0  0  0  0  0  0  0  0
   11.9896  -17.3878   16.4522 C   0  0  2  0  0  0  0  0  0  0  0  0
   10.9774  -18.3490   16.1046 N   0  0  0  0  0  0  0  0  0  0  0  0
   12.2851  -17.4265   17.9242 C   0  0  0  0  0  0  0  0  0  0  0  0
   11.9728  -18.4110   18.6187 O   0  0  0  0  0  0  0  0  0  0  0  0
    7.3768  -16.0929   13.2919 N   0  0  0  0  0  0  0  0  0  0  0  0
   16.5110  -12.2256   17.1883 C   0  0  0  0  0  0  0  0  0  0  0  0
   17.3482  -13.3590   17.0080 N   0  0  0  0  0  0  0  0  0  0  0  0
   18.0740  -13.4483   15.9437 N   0  0  0  0  0  0  0  0  0  0  0  0
   17.3761  -14.3784   17.9999 C   0  0  0  0  0  0  0  0  0  0  0  0
   16.4210  -14.2592   19.0979 C   0  0  0  0  0  0  0  0  0  0  0  0
   15.4007  -15.3749   18.8977 C   0  0  0  0  0  0  0  0  0  0  0  0
   14.4043  -15.2545   20.0505 C   0  0  2  0  0  0  0  0  0  0  0  0
   13.4227  -16.3898   19.8929 N   0  0  0  0  0  0  0  0  0  0  0  0
   12.9282  -16.3285   18.5327 C   0  0  0  0  0  0  0  0  0  0  0  0
   12.3124  -16.3405   20.8372 O   0  0  0  0  0  0  0  0  0  0  0  0
   12.5403  -16.5150   22.0617 N   0  0  0  0  0  0  0  0  0  0  0  0
   18.6824  -14.2721   15.7846 C   0  0  1  0  0  0  0  0  0  0  0  0
   10.9570  -16.1057   20.4801 C   0  0  0  0  0  0  0  0  0  0  0  0
    9.9103  -16.1251   21.4824 C   0  0  0  0  0  0  0  0  0  0  0  0
    8.5959  -15.6655   20.8889 C   0  0  0  0  0  0  0  0  0  0  0  0
    8.6690  -14.3141   20.3304 N   0  0  0  0  0  0  0  0  0  0  0  0
    9.7767  -13.4887   20.3613 C   0  0  0  0  0  0  0  0  0  0  0  0
    9.4417  -12.3510   19.7515 N   0  0  0  0  0  0  0  0  0  0  0  0
    8.1667  -12.4331   19.3401 C   0  0  0  0  0  0  0  0  0  0  0  0
    7.6942  -13.6346   19.6946 O   0  0  0  0  0  0  0  0  0  0  0  0
    9.7828  -17.5081   22.0488 O   0  0  0  0  0  0  0  0  0  0  0  0
  1  2  1  0
  2  4  1  0
  3  2  2  0
  4  5  1  0
  6  5  1  0
  7  6  1  0
  8  9  1  1
  8  7  1  0
 10 20  1  0
 10  8  1  0
 11 10  2  0
 13 12  1  0
 14 13  2  0
 15 13  1  0
 16 15  1  0
 17 16  1  0
 17 18  1  0
 19 18  1  6
 19 20  1  0
 19 21  1  0
 21 22  2  0
 23 21  1  0
 23 24  1  0
 24 25  1  6
 25 26  1  0
 26 30  1  0
 26 27  2  0
 27 28  1  0
 29 28  1  0
 30 29  2  0
 31 32  1  0
 31 24  1  0
 33 31  2  0
M  END
$$$$
