RRH.pdb
     RDKit          3D

 33 33  0  0  1  0  0  0  0  0999 V2000
    8.0973  -12.0035   18.9796 N   0  0  0  0  0  0  0  0  0  0  0  0
    8.4594  -13.0456   18.0793 C   0  0  0  0  0  0  0  0  0  0  0  0
    8.6963  -12.6960   16.8576 N   0  0  0  0  0  0  0  0  0  0  0  0
    8.5458  -14.3762   18.5296 N   0  0  0  0  0  0  0  0  0  0  0  0
    7.3596  -14.9511   19.1745 C   0  0  0  0  0  0  0  0  0  0  0  0
    7.4757  -14.7330   20.6345 C   0  0  0  0  0  0  0  0  0  0  0  0
    6.4339  -15.3670   21.4837 C   0  0  0  0  0  0  0  0  0  0  0  0
    6.5294  -16.8578   21.4928 C   0  0  2  0  0  0  0  0  0  0  0  0
    5.2658  -17.4387   21.1252 N   0  0  0  0  0  0  0  0  0  0  0  0
    6.9572  -17.3197   22.8564 C   0  0  0  0  0  0  0  0  0  0  0  0
    6.1988  -17.2197   23.8383 O   0  0  0  0  0  0  0  0  0  0  0  0
    9.0407  -13.3157   16.1166 N   0  0  0  0  0  0  0  0  0  0  0  0
   13.4575  -22.2340   23.4413 C   0  0  0  0  0  0  0  0  0  0  0  0
   13.3600  -21.5991   24.7083 N   0  0  0  0  0  0  0  0  0  0  0  0
   14.2064  -21.9011   25.6357 N   0  0  0  0  0  0  0  0  0  0  0  0
   12.3337  -20.6412   24.9385 C   0  0  0  0  0  0  0  0  0  0  0  0
   10.9988  -21.1582   25.2261 C   0  0  0  0  0  0  0  0  0  0  0  0
   10.1139  -19.9404   25.4702 C   0  0  0  0  0  0  0  0  0  0  0  0
    9.6310  -19.4805   24.0949 C   0  0  2  0  0  0  0  0  0  0  0  0
    8.7225  -18.2986   24.3294 N   0  0  0  0  0  0  0  0  0  0  0  0
    8.2410  -17.8776   23.0298 C   0  0  0  0  0  0  0  0  0  0  0  0
    9.3723  -17.1859   25.0126 O   0  0  0  0  0  0  0  0  0  0  0  0
   10.3678  -16.6344   24.4772 N   0  0  0  0  0  0  0  0  0  0  0  0
   14.1398  -21.4689   26.5753 C   0  0  2  0  0  0  0  0  0  0  0  0
    8.9640  -16.6582   26.2674 C   0  0  0  0  0  0  0  0  0  0  0  0
    9.7049  -15.5841   26.8984 C   0  0  0  0  0  0  0  0  0  0  0  0
    8.7667  -14.6471   27.6286 C   0  0  0  0  0  0  0  0  0  0  0  0
    7.8221  -13.9796   26.7311 N   0  0  0  0  0  0  0  0  0  0  0  0
    7.8554  -14.0222   25.3504 C   0  0  0  0  0  0  0  0  0  0  0  0
    6.8316  -13.2926   24.9054 N   0  0  0  0  0  0  0  0  0  0  0  0
    6.1589  -12.7952   25.9550 C   0  0  0  0  0  0  0  0  0  0  0  0
    6.7654  -13.2158   27.0721 O   0  0  0  0  0  0  0  0  0  0  0  0
   10.7200  -16.1602   27.8405 O   0  0  0  0  0  0  0  0  0  0  0  0
  1  2  1  0
  2  4  1  0
  3  2  2  0
  4  5  1  0
  6  5  1  0
  7  6  1  0
  8  9  1  1
  8  7  1  0
 10 20  1  0
 10  8  1  0
 11 10  2  0
 13 12  1  0
 14 13  2  0
 15 13  1  0
 16 15  1  0
 17 16  1  0
 17 18  1  0
 19 18  1  1
 19 20  1  0
 19 21  1  0
 21 22  2  0
 23 21  1  0
 23 24  1  0
 24 25  1  1
 25 26  1  0
 26 30  1  0
 26 27  2  0
 27 28  1  0
 29 28  1  0
 30 29  2  0
 31 32  1  0
 31 24  1  0
 33 31  2  0
M  END
$$$$
