RRH.pdb
     RDKit          3D

 33 33  0  0  1  0  0  0  0  0999 V2000
   10.1528  -13.0692   19.0051 N   0  0  0  0  0  0  0  0  0  0  0  0
    8.8346  -13.0723   18.4664 C   0  0  0  0  0  0  0  0  0  0  0  0
    8.3112  -11.9173   18.2159 N   0  0  0  0  0  0  0  0  0  0  0  0
    8.1656  -14.2878   18.2310 N   0  0  0  0  0  0  0  0  0  0  0  0
    7.0698  -14.6446   19.1396 C   0  0  0  0  0  0  0  0  0  0  0  0
    7.6170  -14.7288   20.5130 C   0  0  0  0  0  0  0  0  0  0  0  0
    6.6654  -15.1301   21.5816 C   0  0  0  0  0  0  0  0  0  0  0  0
    6.6320  -16.6083   21.7953 C   0  0  2  0  0  0  0  0  0  0  0  0
    5.3248  -17.1249   21.4890 N   0  0  0  0  0  0  0  0  0  0  0  0
    7.0115  -16.9134   23.2160 C   0  0  0  0  0  0  0  0  0  0  0  0
    6.1920  -16.7848   24.1440 O   0  0  0  0  0  0  0  0  0  0  0  0
    7.3664  -11.7579   17.8501 N   0  0  0  0  0  0  0  0  0  0  0  0
   13.3762  -20.4338   27.9680 C   0  0  0  0  0  0  0  0  0  0  0  0
   12.2410  -21.2852   28.0360 N   0  0  0  0  0  0  0  0  0  0  0  0
   12.2712  -22.3219   28.8053 N   0  0  0  0  0  0  0  0  0  0  0  0
   11.0887  -20.9854   27.2575 C   0  0  0  0  0  0  0  0  0  0  0  0
   11.2841  -20.1343   26.0873 C   0  0  0  0  0  0  0  0  0  0  0  0
   10.2477  -19.0205   26.1930 C   0  0  0  0  0  0  0  0  0  0  0  0
    9.7379  -18.7751   24.7731 C   0  0  1  0  0  0  0  0  0  0  0  0
    8.7470  -17.6404   24.8604 N   0  0  0  0  0  0  0  0  0  0  0  0
    8.3195  -17.3540   23.5063 C   0  0  0  0  0  0  0  0  0  0  0  0
    9.2859  -16.4379   25.4853 O   0  0  0  0  0  0  0  0  0  0  0  0
   10.1440  -15.7571   24.8671 N   0  0  0  0  0  0  0  0  0  0  0  0
   11.4321  -22.9185   28.9240 C   0  0  1  0  0  0  0  0  0  0  0  0
    8.9129  -15.9575   26.7697 C   0  0  0  0  0  0  0  0  0  0  0  0
    9.4810  -14.7338   27.2994 C   0  0  0  0  0  0  0  0  0  0  0  0
    8.3925  -13.8324   27.8417 C   0  0  0  0  0  0  0  0  0  0  0  0
    7.4810  -13.3561   26.7997 N   0  0  0  0  0  0  0  0  0  0  0  0
    6.1351  -13.6552   26.7087 C   0  0  0  0  0  0  0  0  0  0  0  0
    5.6620  -13.0331   25.6281 N   0  0  0  0  0  0  0  0  0  0  0  0
    6.6604  -12.3562   25.0396 C   0  0  0  0  0  0  0  0  0  0  0  0
    7.7735  -12.5541   25.7569 O   0  0  0  0  0  0  0  0  0  0  0  0
   10.4786  -15.0652   28.3693 O   0  0  0  0  0  0  0  0  0  0  0  0
  1  2  1  0
  2  4  1  0
  3  2  2  0
  4  5  1  0
  6  5  1  0
  7  6  1  0
  8  9  1  1
  8  7  1  0
 10 20  1  0
 10  8  1  0
 11 10  2  0
 13 12  1  0
 14 13  2  0
 15 13  1  0
 16 15  1  0
 17 16  1  0
 17 18  1  0
 19 18  1  1
 19 20  1  0
 19 21  1  0
 21 22  2  0
 23 21  1  0
 23 24  1  0
 24 25  1  1
 25 26  1  0
 26 30  1  0
 26 27  2  0
 27 28  1  0
 29 28  1  0
 30 29  2  0
 31 32  1  0
 31 24  1  0
 33 31  2  0
M  END
$$$$
