RRH.pdb
     RDKit          3D

 33 33  0  0  1  0  0  0  0  0999 V2000
    8.7989  -12.0550   17.9458 N   0  0  0  0  0  0  0  0  0  0  0  0
    9.2820  -12.8017   19.0580 C   0  0  0  0  0  0  0  0  0  0  0  0
   10.2265  -12.2568   19.7521 N   0  0  0  0  0  0  0  0  0  0  0  0
    8.7367  -14.0639   19.3577 N   0  0  0  0  0  0  0  0  0  0  0  0
    7.7703  -14.6269   18.4076 C   0  0  0  0  0  0  0  0  0  0  0  0
    7.4586  -16.0113   18.8308 C   0  0  0  0  0  0  0  0  0  0  0  0
    8.3703  -17.0759   18.3370 C   0  0  0  0  0  0  0  0  0  0  0  0
    7.9891  -18.4332   18.8313 C   0  0  2  0  0  0  0  0  0  0  0  0
    6.7966  -18.8869   18.1669 N   0  0  0  0  0  0  0  0  0  0  0  0
    7.7894  -18.3820   20.3189 C   0  0  0  0  0  0  0  0  0  0  0  0
    6.6538  -18.2577   20.8131 O   0  0  0  0  0  0  0  0  0  0  0  0
   10.7314  -12.7032   20.5251 N   0  0  0  0  0  0  0  0  0  0  0  0
   11.9016  -22.7196   23.7486 C   0  0  0  0  0  0  0  0  0  0  0  0
   10.8489  -22.8805   24.6888 N   0  0  0  0  0  0  0  0  0  0  0  0
   10.3269  -24.0489   24.8623 N   0  0  0  0  0  0  0  0  0  0  0  0
   10.3844  -21.7553   25.4250 C   0  0  0  0  0  0  0  0  0  0  0  0
   10.9384  -20.4537   25.0631 C   0  0  0  0  0  0  0  0  0  0  0  0
    9.7608  -19.6047   24.5958 C   0  0  0  0  0  0  0  0  0  0  0  0
    9.8639  -19.5326   23.0726 C   0  0  1  0  0  0  0  0  0  0  0  0
    8.7637  -18.6097   22.6088 N   0  0  0  0  0  0  0  0  0  0  0  0
    8.9075  -18.4766   21.1736 C   0  0  0  0  0  0  0  0  0  0  0  0
    8.7928  -17.2970   23.2437 O   0  0  0  0  0  0  0  0  0  0  0  0
    9.7150  -16.4938   22.9499 N   0  0  0  0  0  0  0  0  0  0  0  0
    9.5257  -24.1811   25.5063 C   0  0  2  0  0  0  0  0  0  0  0  0
    7.8406  -16.8367   24.1929 C   0  0  0  0  0  0  0  0  0  0  0  0
    8.0157  -15.5639   24.8639 C   0  0  0  0  0  0  0  0  0  0  0  0
    6.6844  -15.0281   25.3453 C   0  0  0  0  0  0  0  0  0  0  0  0
    6.8168  -13.7844   26.1062 N   0  0  0  0  0  0  0  0  0  0  0  0
    7.0833  -12.5380   25.5724 C   0  0  0  0  0  0  0  0  0  0  0  0
    7.1247  -11.6722   26.5859 N   0  0  0  0  0  0  0  0  0  0  0  0
    6.8942  -12.3292   27.7334 C   0  0  0  0  0  0  0  0  0  0  0  0
    6.7058  -13.6217   27.4395 O   0  0  0  0  0  0  0  0  0  0  0  0
    8.9686  -15.7277   26.0107 O   0  0  0  0  0  0  0  0  0  0  0  0
  1  2  1  0
  2  4  1  0
  3  2  2  0
  4  5  1  0
  6  5  1  0
  7  6  1  0
  8  9  1  6
  8  7  1  0
 10 20  1  0
 10  8  1  0
 11 10  2  0
 13 12  1  0
 14 13  2  0
 15 13  1  0
 16 15  1  0
 17 16  1  0
 17 18  1  0
 19 18  1  6
 19 20  1  0
 19 21  1  0
 21 22  2  0
 23 21  1  0
 23 24  1  0
 24 25  1  1
 25 26  1  0
 26 30  1  0
 26 27  2  0
 27 28  1  0
 29 28  1  0
 30 29  2  0
 31 32  1  0
 31 24  1  0
 33 31  2  0
M  END
$$$$
