RRH.pdb
     RDKit          3D

 33 33  0  0  1  0  0  0  0  0999 V2000
   15.9910  -13.1151   17.3305 N   0  0  0  0  0  0  0  0  0  0  0  0
   16.4392  -14.4289   17.6485 C   0  0  0  0  0  0  0  0  0  0  0  0
   17.1713  -15.0190   16.7616 N   0  0  0  0  0  0  0  0  0  0  0  0
   16.0850  -15.0238   18.8737 N   0  0  0  0  0  0  0  0  0  0  0  0
   15.0543  -14.3566   19.6775 C   0  0  0  0  0  0  0  0  0  0  0  0
   13.7326  -14.8762   19.2579 C   0  0  0  0  0  0  0  0  0  0  0  0
   12.5503  -14.3401   19.9811 C   0  0  0  0  0  0  0  0  0  0  0  0
   11.2673  -14.9444   19.5116 C   0  0  2  0  0  0  0  0  0  0  0  0
   10.6789  -14.1257   18.4854 N   0  0  0  0  0  0  0  0  0  0  0  0
   10.3341  -15.0975   20.6783 C   0  0  0  0  0  0  0  0  0  0  0  0
    9.5861  -14.1676   21.0319 O   0  0  0  0  0  0  0  0  0  0  0  0
   17.5755  -15.9573   16.8511 N   0  0  0  0  0  0  0  0  0  0  0  0
    8.3944  -22.6164   20.2951 C   0  0  0  0  0  0  0  0  0  0  0  0
    8.5333  -21.4661   19.4732 N   0  0  0  0  0  0  0  0  0  0  0  0
    9.0995  -21.5769   18.3179 N   0  0  0  0  0  0  0  0  0  0  0  0
    8.0483  -20.2100   19.9325 C   0  0  0  0  0  0  0  0  0  0  0  0
    8.4052  -19.8209   21.2938 C   0  0  0  0  0  0  0  0  0  0  0  0
    8.8028  -18.3501   21.2258 C   0  0  0  0  0  0  0  0  0  0  0  0
    9.1061  -17.9227   22.6616 C   0  0  2  0  0  0  0  0  0  0  0  0
    9.5278  -16.4751   22.6010 N   0  0  0  0  0  0  0  0  0  0  0  0
   10.3028  -16.3163   21.3875 C   0  0  0  0  0  0  0  0  0  0  0  0
   10.3041  -16.0415   23.7570 O   0  0  0  0  0  0  0  0  0  0  0  0
   11.3973  -16.6098   24.0101 N   0  0  0  0  0  0  0  0  0  0  0  0
    9.3199  -20.7365   17.7528 C   0  0  2  0  0  0  0  0  0  0  0  0
    9.9185  -15.0022   24.6463 C   0  0  0  0  0  0  0  0  0  0  0  0
    9.6392  -15.2827   26.0406 C   0  0  0  0  0  0  0  0  0  0  0  0
    8.1491  -15.2425   26.3039 C   0  0  0  0  0  0  0  0  0  0  0  0
    7.6070  -13.8827   26.2809 N   0  0  0  0  0  0  0  0  0  0  0  0
    8.3353  -12.7288   26.0630 C   0  0  0  0  0  0  0  0  0  0  0  0
    7.4831  -11.7045   26.1190 N   0  0  0  0  0  0  0  0  0  0  0  0
    6.2495  -12.1734   26.3635 C   0  0  0  0  0  0  0  0  0  0  0  0
    6.3257  -13.5064   26.4625 O   0  0  0  0  0  0  0  0  0  0  0  0
   10.2075  -16.6215   26.4072 O   0  0  0  0  0  0  0  0  0  0  0  0
  1  2  1  0
  2  4  1  0
  3  2  2  0
  4  5  1  0
  6  5  1  0
  7  6  1  0
  8  9  1  6
  8  7  1  0
 10 20  1  0
 10  8  1  0
 11 10  2  0
 13 12  1  0
 14 13  2  0
 15 13  1  0
 16 15  1  0
 17 16  1  0
 17 18  1  0
 19 18  1  6
 19 20  1  0
 19 21  1  0
 21 22  2  0
 23 21  1  0
 23 24  1  0
 24 25  1  1
 25 26  1  0
 26 30  1  0
 26 27  2  0
 27 28  1  0
 29 28  1  0
 30 29  2  0
 31 32  1  0
 31 24  1  0
 33 31  2  0
M  END
$$$$
