RRH.pdb
     RDKit          3D

 33 33  0  0  1  0  0  0  0  0999 V2000
   12.2348  -17.2798   16.3446 N   0  0  0  0  0  0  0  0  0  0  0  0
   12.5133  -16.1241   15.5606 C   0  0  0  0  0  0  0  0  0  0  0  0
   13.7521  -15.9205   15.2531 N   0  0  0  0  0  0  0  0  0  0  0  0
   11.4700  -15.2695   15.1584 N   0  0  0  0  0  0  0  0  0  0  0  0
   10.1068  -15.6257   15.5687 C   0  0  0  0  0  0  0  0  0  0  0  0
    9.7893  -14.8844   16.8108 C   0  0  0  0  0  0  0  0  0  0  0  0
    8.4163  -15.0569   17.3524 C   0  0  0  0  0  0  0  0  0  0  0  0
    8.1645  -14.2123   18.5586 C   0  0  2  0  0  0  0  0  0  0  0  0
    8.2679  -12.8182   18.2192 N   0  0  0  0  0  0  0  0  0  0  0  0
    9.1461  -14.5780   19.6348 C   0  0  0  0  0  0  0  0  0  0  0  0
   10.0955  -13.8267   19.9237 O   0  0  0  0  0  0  0  0  0  0  0  0
   14.1193  -15.0891   14.7781 N   0  0  0  0  0  0  0  0  0  0  0  0
    7.2191  -21.9375   22.9069 C   0  0  0  0  0  0  0  0  0  0  0  0
    7.9257  -21.9824   21.6754 N   0  0  0  0  0  0  0  0  0  0  0  0
    8.0010  -23.0971   21.0278 N   0  0  0  0  0  0  0  0  0  0  0  0
    8.5399  -20.8017   21.1728 C   0  0  0  0  0  0  0  0  0  0  0  0
    8.5655  -19.6412   22.0584 C   0  0  0  0  0  0  0  0  0  0  0  0
    9.1978  -18.5079   21.2572 C   0  0  0  0  0  0  0  0  0  0  0  0
    9.1902  -17.2827   22.1709 C   0  0  1  0  0  0  0  0  0  0  0  0
    9.8784  -16.1744   21.4124 N   0  0  0  0  0  0  0  0  0  0  0  0
    8.9914  -15.7942   20.3321 C   0  0  0  0  0  0  0  0  0  0  0  0
   11.1857  -16.5485   20.8852 O   0  0  0  0  0  0  0  0  0  0  0  0
   11.2900  -16.8675   19.6730 N   0  0  0  0  0  0  0  0  0  0  0  0
    8.4853  -23.1470   20.1129 C   0  0  2  0  0  0  0  0  0  0  0  0
   12.3848  -16.5841   21.6471 C   0  0  0  0  0  0  0  0  0  0  0  0
   13.6258  -16.0683   21.1043 C   0  0  0  0  0  0  0  0  0  0  0  0
   13.4722  -14.6143   20.7126 C   0  0  0  0  0  0  0  0  0  0  0  0
   14.6728  -14.0700   20.0756 N   0  0  0  0  0  0  0  0  0  0  0  0
   15.9721  -14.4574   20.3422 C   0  0  0  0  0  0  0  0  0  0  0  0
   16.7718  -13.7309   19.5604 N   0  0  0  0  0  0  0  0  0  0  0  0
   16.0225  -12.9039   18.8147 C   0  0  0  0  0  0  0  0  0  0  0  0
   14.7380  -13.1117   19.1302 O   0  0  0  0  0  0  0  0  0  0  0  0
   14.7227  -16.2336   22.1139 O   0  0  0  0  0  0  0  0  0  0  0  0
  1  2  1  0
  2  4  1  0
  3  2  2  0
  4  5  1  0
  6  5  1  0
  7  6  1  0
  8  9  1  6
  8  7  1  0
 10 20  1  0
 10  8  1  0
 11 10  2  0
 13 12  1  0
 14 13  2  0
 15 13  1  0
 16 15  1  0
 17 16  1  0
 17 18  1  0
 19 18  1  1
 19 20  1  0
 19 21  1  0
 21 22  2  0
 23 21  1  0
 23 24  1  0
 24 25  1  6
 25 26  1  0
 26 30  1  0
 26 27  2  0
 27 28  1  0
 29 28  1  0
 30 29  2  0
 31 32  1  0
 31 24  1  0
 33 31  2  0
M  END
$$$$
