RRH.pdb
     RDKit          3D

 33 33  0  0  1  0  0  0  0  0999 V2000
    9.2790  -14.5783   16.3098 N   0  0  0  0  0  0  0  0  0  0  0  0
    8.3278  -13.5863   15.9370 C   0  0  0  0  0  0  0  0  0  0  0  0
    8.0898  -13.4617   14.6727 N   0  0  0  0  0  0  0  0  0  0  0  0
    7.6981  -12.8002   16.9199 N   0  0  0  0  0  0  0  0  0  0  0  0
    7.9297  -13.1583   18.3241 C   0  0  0  0  0  0  0  0  0  0  0  0
    7.6381  -14.6009   18.4874 C   0  0  0  0  0  0  0  0  0  0  0  0
    8.5098  -15.3503   19.4292 C   0  0  0  0  0  0  0  0  0  0  0  0
    8.1461  -16.7963   19.5214 C   0  0  2  0  0  0  0  0  0  0  0  0
    7.1253  -17.1141   18.5588 N   0  0  0  0  0  0  0  0  0  0  0  0
    7.6838  -17.1041   20.9168 C   0  0  0  0  0  0  0  0  0  0  0  0
    6.4930  -16.9581   21.2484 O   0  0  0  0  0  0  0  0  0  0  0  0
    7.4371  -12.7915   14.2524 N   0  0  0  0  0  0  0  0  0  0  0  0
   12.1439  -20.4098   22.6842 C   0  0  0  0  0  0  0  0  0  0  0  0
   11.8202  -21.2217   21.5643 N   0  0  0  0  0  0  0  0  0  0  0  0
   12.7169  -21.4442   20.6620 N   0  0  0  0  0  0  0  0  0  0  0  0
   10.5155  -21.7775   21.4514 C   0  0  0  0  0  0  0  0  0  0  0  0
    9.5320  -21.3641   22.4482 C   0  0  0  0  0  0  0  0  0  0  0  0
    9.3601  -19.8583   22.2779 C   0  0  0  0  0  0  0  0  0  0  0  0
    8.3307  -19.4251   23.3213 C   0  0  1  0  0  0  0  0  0  0  0  0
    8.2156  -17.9240   23.2167 N   0  0  0  0  0  0  0  0  0  0  0  0
    8.6140  -17.5674   21.8704 C   0  0  0  0  0  0  0  0  0  0  0  0
    9.0272  -17.2042   24.1915 O   0  0  0  0  0  0  0  0  0  0  0  0
   10.1934  -16.8521   23.8784 N   0  0  0  0  0  0  0  0  0  0  0  0
   12.4959  -22.0121   19.8238 C   0  0  2  0  0  0  0  0  0  0  0  0
    8.5994  -16.8579   25.5017 C   0  0  0  0  0  0  0  0  0  0  0  0
    9.4815  -16.1514   26.4091 C   0  0  0  0  0  0  0  0  0  0  0  0
    8.7094  -15.6232   27.5991 C   0  0  0  0  0  0  0  0  0  0  0  0
    9.5794  -15.0603   28.6334 N   0  0  0  0  0  0  0  0  0  0  0  0
   10.8206  -14.4920   28.4202 C   0  0  0  0  0  0  0  0  0  0  0  0
   11.2878  -14.1010   29.6065 N   0  0  0  0  0  0  0  0  0  0  0  0
   10.3863  -14.4030   30.5539 C   0  0  0  0  0  0  0  0  0  0  0  0
    9.3408  -14.9901   29.9580 O   0  0  0  0  0  0  0  0  0  0  0  0
   10.5826  -17.0675   26.8542 O   0  0  0  0  0  0  0  0  0  0  0  0
  1  2  1  0
  2  4  1  0
  3  2  2  0
  4  5  1  0
  6  5  1  0
  7  6  1  0
  8  9  1  6
  8  7  1  0
 10 20  1  0
 10  8  1  0
 11 10  2  0
 13 12  1  0
 14 13  2  0
 15 13  1  0
 16 15  1  0
 17 16  1  0
 17 18  1  0
 19 18  1  6
 19 20  1  0
 19 21  1  0
 21 22  2  0
 23 21  1  0
 23 24  1  0
 24 25  1  6
 25 26  1  0
 26 30  1  0
 26 27  2  0
 27 28  1  0
 29 28  1  0
 30 29  2  0
 31 32  1  0
 31 24  1  0
 33 31  2  0
M  END
$$$$
