RRH.pdb
     RDKit          3D

 33 33  0  0  1  0  0  0  0  0999 V2000
    9.1985  -13.0876   21.4068 N   0  0  0  0  0  0  0  0  0  0  0  0
    8.4724  -14.3116   21.4576 C   0  0  0  0  0  0  0  0  0  0  0  0
    9.0365  -15.2914   22.0841 N   0  0  0  0  0  0  0  0  0  0  0  0
    7.2086  -14.4143   20.8470 N   0  0  0  0  0  0  0  0  0  0  0  0
    7.1372  -14.1966   19.3975 C   0  0  0  0  0  0  0  0  0  0  0  0
    7.5492  -15.4479   18.7213 C   0  0  0  0  0  0  0  0  0  0  0  0
    8.5761  -15.3173   17.6550 C   0  0  0  0  0  0  0  0  0  0  0  0
    8.8865  -16.6206   16.9940 C   0  0  2  0  0  0  0  0  0  0  0  0
    7.6888  -17.1950   16.4416 N   0  0  0  0  0  0  0  0  0  0  0  0
    9.5156  -17.5475   17.9943 C   0  0  0  0  0  0  0  0  0  0  0  0
    8.9242  -18.5700   18.3866 O   0  0  0  0  0  0  0  0  0  0  0  0
    8.6751  -16.2494   22.1406 N   0  0  0  0  0  0  0  0  0  0  0  0
   16.3738  -18.0163   17.6272 C   0  0  0  0  0  0  0  0  0  0  0  0
   15.9212  -17.2575   16.5147 N   0  0  0  0  0  0  0  0  0  0  0  0
   16.6317  -16.2652   16.0927 N   0  0  0  0  0  0  0  0  0  0  0  0
   14.6939  -17.5997   15.8818 C   0  0  0  0  0  0  0  0  0  0  0  0
   13.8862  -18.6347   16.5208 C   0  0  0  0  0  0  0  0  0  0  0  0
   12.8724  -17.9044   17.3952 C   0  0  0  0  0  0  0  0  0  0  0  0
   12.5702  -18.8363   18.5683 C   0  0  1  0  0  0  0  0  0  0  0  0
   11.4960  -18.1642   19.3879 N   0  0  0  0  0  0  0  0  0  0  0  0
   10.7998  -17.2561   18.4996 C   0  0  0  0  0  0  0  0  0  0  0  0
   12.0080  -17.4434   20.5477 O   0  0  0  0  0  0  0  0  0  0  0  0
   13.1181  -16.8579   20.4653 N   0  0  0  0  0  0  0  0  0  0  0  0
   16.3348  -15.7140   15.2669 C   0  0  1  0  0  0  0  0  0  0  0  0
   11.3397  -17.3446   21.7980 C   0  0  0  0  0  0  0  0  0  0  0  0
   10.9705  -16.0535   22.3434 C   0  0  0  0  0  0  0  0  0  0  0  0
   10.1345  -15.2751   21.3502 C   0  0  0  0  0  0  0  0  0  0  0  0
   10.9408  -14.4106   20.4866 N   0  0  0  0  0  0  0  0  0  0  0  0
   12.3067  -14.5061   20.3009 C   0  0  0  0  0  0  0  0  0  0  0  0
   12.6596  -13.5458   19.4455 N   0  0  0  0  0  0  0  0  0  0  0  0
   11.5666  -12.8531   19.0888 C   0  0  0  0  0  0  0  0  0  0  0  0
   10.5150  -13.3826   19.7262 O   0  0  0  0  0  0  0  0  0  0  0  0
   10.2242  -16.2466   23.6301 O   0  0  0  0  0  0  0  0  0  0  0  0
  1  2  1  0
  2  4  1  0
  3  2  2  0
  4  5  1  0
  6  5  1  0
  7  6  1  0
  8  9  1  1
  8  7  1  0
 10 20  1  0
 10  8  1  0
 11 10  2  0
 13 12  1  0
 14 13  2  0
 15 13  1  0
 16 15  1  0
 17 16  1  0
 17 18  1  0
 19 18  1  6
 19 20  1  0
 19 21  1  0
 21 22  2  0
 23 21  1  0
 23 24  1  0
 24 25  1  6
 25 26  1  0
 26 30  1  0
 26 27  2  0
 27 28  1  0
 29 28  1  0
 30 29  2  0
 31 32  1  0
 31 24  1  0
 33 31  2  0
M  END
$$$$
