RRH.pdb
     RDKit          3D

 33 33  0  0  1  0  0  0  0  0999 V2000
   12.7744  -14.4527   21.2788 N   0  0  0  0  0  0  0  0  0  0  0  0
   12.8137  -13.8729   19.9787 C   0  0  0  0  0  0  0  0  0  0  0  0
   13.9763  -13.5155   19.5414 N   0  0  0  0  0  0  0  0  0  0  0  0
   11.6292  -13.7124   19.2358 N   0  0  0  0  0  0  0  0  0  0  0  0
   10.5233  -12.9881   19.8729 C   0  0  0  0  0  0  0  0  0  0  0  0
    9.3529  -13.0420   18.9673 C   0  0  0  0  0  0  0  0  0  0  0  0
    8.1491  -13.7452   19.4821 C   0  0  0  0  0  0  0  0  0  0  0  0
    8.2044  -15.2206   19.2539 C   0  0  2  0  0  0  0  0  0  0  0  0
    7.0862  -15.6415   18.4527 N   0  0  0  0  0  0  0  0  0  0  0  0
    8.2133  -15.9280   20.5787 C   0  0  0  0  0  0  0  0  0  0  0  0
    7.1555  -16.1623   21.1915 O   0  0  0  0  0  0  0  0  0  0  0  0
   14.1657  -13.1004   18.6229 N   0  0  0  0  0  0  0  0  0  0  0  0
   12.1604  -22.7383   22.9670 C   0  0  0  0  0  0  0  0  0  0  0  0
   10.7545  -22.5359   22.9906 N   0  0  0  0  0  0  0  0  0  0  0  0
    9.9662  -23.5368   22.7800 N   0  0  0  0  0  0  0  0  0  0  0  0
   10.2346  -21.2363   23.2450 C   0  0  0  0  0  0  0  0  0  0  0  0
   11.2045  -20.1670   23.4633 C   0  0  0  0  0  0  0  0  0  0  0  0
   10.3942  -18.8883   23.6486 C   0  0  0  0  0  0  0  0  0  0  0  0
   10.2717  -18.2555   22.2627 C   0  0  1  0  0  0  0  0  0  0  0  0
    9.5150  -16.9626   22.4441 N   0  0  0  0  0  0  0  0  0  0  0  0
    9.4412  -16.3354   21.1404 C   0  0  0  0  0  0  0  0  0  0  0  0
   10.1271  -16.0550   23.4078 O   0  0  0  0  0  0  0  0  0  0  0  0
   10.8568  -15.1190   22.9913 N   0  0  0  0  0  0  0  0  0  0  0  0
    8.9372  -23.4142   22.7987 C   0  0  1  0  0  0  0  0  0  0  0  0
    9.9640  -16.1419   24.8169 C   0  0  0  0  0  0  0  0  0  0  0  0
    9.5432  -14.9896   25.5888 C   0  0  0  0  0  0  0  0  0  0  0  0
    8.2610  -14.4125   25.0283 C   0  0  0  0  0  0  0  0  0  0  0  0
    7.7431  -13.3016   25.8289 N   0  0  0  0  0  0  0  0  0  0  0  0
    8.3714  -12.7342   26.9209 C   0  0  0  0  0  0  0  0  0  0  0  0
    7.5830  -11.7566   27.3695 N   0  0  0  0  0  0  0  0  0  0  0  0
    6.4853  -11.6906   26.5998 C   0  0  0  0  0  0  0  0  0  0  0  0
    6.5837  -12.6362   25.6571 O   0  0  0  0  0  0  0  0  0  0  0  0
    9.3648  -15.3849   27.0247 O   0  0  0  0  0  0  0  0  0  0  0  0
  1  2  1  0
  2  4  1  0
  3  2  2  0
  4  5  1  0
  6  5  1  0
  7  6  1  0
  8  9  1  6
  8  7  1  0
 10 20  1  0
 10  8  1  0
 11 10  2  0
 13 12  1  0
 14 13  2  0
 15 13  1  0
 16 15  1  0
 17 16  1  0
 17 18  1  0
 19 18  1  6
 19 20  1  0
 19 21  1  0
 21 22  2  0
 23 21  1  0
 23 24  1  0
 24 25  1  1
 25 26  1  0
 26 30  1  0
 26 27  2  0
 27 28  1  0
 29 28  1  0
 30 29  2  0
 31 32  1  0
 31 24  1  0
 33 31  2  0
M  END
$$$$
