RRH.pdb
     RDKit          3D

 33 33  0  0  1  0  0  0  0  0999 V2000
    6.9511  -12.3132   18.3910 N   0  0  0  0  0  0  0  0  0  0  0  0
    7.8363  -12.8322   17.4037 C   0  0  0  0  0  0  0  0  0  0  0  0
    7.3532  -12.9742   16.2132 N   0  0  0  0  0  0  0  0  0  0  0  0
    9.1622  -13.1627   17.7407 N   0  0  0  0  0  0  0  0  0  0  0  0
    9.4134  -14.5142   18.2545 C   0  0  0  0  0  0  0  0  0  0  0  0
   10.8602  -14.6366   18.5454 C   0  0  0  0  0  0  0  0  0  0  0  0
   11.3822  -13.8134   19.6670 C   0  0  0  0  0  0  0  0  0  0  0  0
   12.1199  -14.6258   20.6808 C   0  0  2  0  0  0  0  0  0  0  0  0
   12.7502  -15.7544   20.0496 N   0  0  0  0  0  0  0  0  0  0  0  0
   11.1646  -15.0721   21.7502 C   0  0  0  0  0  0  0  0  0  0  0  0
   10.4259  -14.2587   22.3351 O   0  0  0  0  0  0  0  0  0  0  0  0
    7.8347  -13.4176   15.4237 N   0  0  0  0  0  0  0  0  0  0  0  0
    6.6550  -20.2520   21.1606 C   0  0  0  0  0  0  0  0  0  0  0  0
    7.4025  -20.4770   19.9737 N   0  0  0  0  0  0  0  0  0  0  0  0
    6.7796  -20.7033   18.8654 N   0  0  0  0  0  0  0  0  0  0  0  0
    8.8241  -20.4504   20.0215 C   0  0  0  0  0  0  0  0  0  0  0  0
    9.4376  -20.2059   21.3237 C   0  0  0  0  0  0  0  0  0  0  0  0
    9.4056  -18.6956   21.5327 C   0  0  0  0  0  0  0  0  0  0  0  0
   10.0838  -18.4359   22.8777 C   0  0  2  0  0  0  0  0  0  0  0  0
   10.1334  -16.9380   23.0539 N   0  0  0  0  0  0  0  0  0  0  0  0
   11.1014  -16.4371   22.0997 C   0  0  0  0  0  0  0  0  0  0  0  0
   10.4904  -16.5178   24.4041 O   0  0  0  0  0  0  0  0  0  0  0  0
   11.5152  -17.0044   24.9472 N   0  0  0  0  0  0  0  0  0  0  0  0
    7.3020  -20.9456   18.0037 C   0  0  2  0  0  0  0  0  0  0  0  0
    9.7571  -15.5791   25.1792 C   0  0  0  0  0  0  0  0  0  0  0  0
    9.5067  -15.8125   26.5876 C   0  0  0  0  0  0  0  0  0  0  0  0
    8.0550  -15.5442   26.9220 C   0  0  0  0  0  0  0  0  0  0  0  0
    7.6286  -14.1944   26.5487 N   0  0  0  0  0  0  0  0  0  0  0  0
    8.4543  -13.1880   26.0855 C   0  0  0  0  0  0  0  0  0  0  0  0
    7.6896  -12.1194   25.8582 N   0  0  0  0  0  0  0  0  0  0  0  0
    6.4167  -12.4187   26.1615 C   0  0  0  0  0  0  0  0  0  0  0  0
    6.3798  -13.6886   26.5840 O   0  0  0  0  0  0  0  0  0  0  0  0
    9.8807  -17.2224   26.9372 O   0  0  0  0  0  0  0  0  0  0  0  0
  1  2  1  0
  2  4  1  0
  3  2  2  0
  4  5  1  0
  6  5  1  0
  7  6  1  0
  8  9  1  6
  8  7  1  0
 10 20  1  0
 10  8  1  0
 11 10  2  0
 13 12  1  0
 14 13  2  0
 15 13  1  0
 16 15  1  0
 17 16  1  0
 17 18  1  0
 19 18  1  6
 19 20  1  0
 19 21  1  0
 21 22  2  0
 23 21  1  0
 23 24  1  0
 24 25  1  1
 25 26  1  0
 26 30  1  0
 26 27  2  0
 27 28  1  0
 29 28  1  0
 30 29  2  0
 31 32  1  0
 31 24  1  0
 33 31  2  0
M  END
$$$$
