RRH.pdb
     RDKit          3D

 33 33  0  0  1  0  0  0  0  0999 V2000
    9.7959  -14.0978   15.1259 N   0  0  0  0  0  0  0  0  0  0  0  0
    8.4505  -13.7718   14.7918 C   0  0  0  0  0  0  0  0  0  0  0  0
    8.1445  -13.8018   13.5363 N   0  0  0  0  0  0  0  0  0  0  0  0
    7.5280  -13.4391   15.8011 N   0  0  0  0  0  0  0  0  0  0  0  0
    7.9641  -13.5913   17.1940 C   0  0  0  0  0  0  0  0  0  0  0  0
    8.2685  -15.0212   17.4295 C   0  0  0  0  0  0  0  0  0  0  0  0
    8.5365  -15.4184   18.8362 C   0  0  0  0  0  0  0  0  0  0  0  0
    8.7607  -16.8878   18.9853 C   0  0  2  0  0  0  0  0  0  0  0  0
    7.7143  -17.6197   18.3227 N   0  0  0  0  0  0  0  0  0  0  0  0
    8.8190  -17.2357   20.4451 C   0  0  0  0  0  0  0  0  0  0  0  0
    7.7859  -17.5025   21.0860 O   0  0  0  0  0  0  0  0  0  0  0  0
    7.2293  -13.5627   13.1402 N   0  0  0  0  0  0  0  0  0  0  0  0
   13.6197  -19.0619   19.1902 C   0  0  0  0  0  0  0  0  0  0  0  0
   12.5333  -19.9712   19.2957 N   0  0  0  0  0  0  0  0  0  0  0  0
   11.8024  -20.2089   18.2579 N   0  0  0  0  0  0  0  0  0  0  0  0
   12.2651  -20.6062   20.5401 C   0  0  0  0  0  0  0  0  0  0  0  0
   12.7430  -19.9314   21.7435 C   0  0  0  0  0  0  0  0  0  0  0  0
   11.5002  -19.5624   22.5468 C   0  0  0  0  0  0  0  0  0  0  0  0
   11.5661  -18.0512   22.7658 C   0  0  2  0  0  0  0  0  0  0  0  0
   10.1746  -17.5192   22.5252 N   0  0  0  0  0  0  0  0  0  0  0  0
   10.0659  -17.2615   21.1038 C   0  0  0  0  0  0  0  0  0  0  0  0
    9.8694  -16.3110   23.2828 O   0  0  0  0  0  0  0  0  0  0  0  0
   10.4204  -15.2279   22.9585 N   0  0  0  0  0  0  0  0  0  0  0  0
   11.0096  -20.8745   18.3092 C   0  0  1  0  0  0  0  0  0  0  0  0
    8.9774  -16.2531   24.3876 C   0  0  0  0  0  0  0  0  0  0  0  0
    8.6927  -14.9946   25.0478 C   0  0  0  0  0  0  0  0  0  0  0  0
    7.2025  -14.7299   25.0699 C   0  0  0  0  0  0  0  0  0  0  0  0
    6.8537  -13.5206   25.8178 N   0  0  0  0  0  0  0  0  0  0  0  0
    7.3602  -12.2561   25.5861 C   0  0  0  0  0  0  0  0  0  0  0  0
    6.7972  -11.4339   26.4724 N   0  0  0  0  0  0  0  0  0  0  0  0
    5.9577  -12.1357   27.2498 C   0  0  0  0  0  0  0  0  0  0  0  0
    5.9926  -13.4127   26.8489 O   0  0  0  0  0  0  0  0  0  0  0  0
    9.2484  -15.0213   26.4407 O   0  0  0  0  0  0  0  0  0  0  0  0
  1  2  1  0
  2  4  1  0
  3  2  2  0
  4  5  1  0
  6  5  1  0
  7  6  1  0
  8  9  1  1
  8  7  1  0
 10 20  1  0
 10  8  1  0
 11 10  2  0
 13 12  1  0
 14 13  2  0
 15 13  1  0
 16 15  1  0
 17 16  1  0
 17 18  1  0
 19 18  1  6
 19 20  1  0
 19 21  1  0
 21 22  2  0
 23 21  1  0
 23 24  1  0
 24 25  1  1
 25 26  1  0
 26 30  1  0
 26 27  2  0
 27 28  1  0
 29 28  1  0
 30 29  2  0
 31 32  1  0
 31 24  1  0
 33 31  2  0
M  END
$$$$
