RRH.pdb
     RDKit          3D

 33 33  0  0  1  0  0  0  0  0999 V2000
    8.5113  -11.3495   18.8388 N   0  0  0  0  0  0  0  0  0  0  0  0
    8.2163  -12.6427   18.3205 C   0  0  0  0  0  0  0  0  0  0  0  0
    7.4333  -12.6876   17.2931 N   0  0  0  0  0  0  0  0  0  0  0  0
    8.7660  -13.7912   18.9201 N   0  0  0  0  0  0  0  0  0  0  0  0
    8.6273  -13.9279   20.3746 C   0  0  0  0  0  0  0  0  0  0  0  0
    8.3447  -15.3490   20.6805 C   0  0  0  0  0  0  0  0  0  0  0  0
    8.3914  -15.7400   22.1134 C   0  0  0  0  0  0  0  0  0  0  0  0
    8.2061  -17.2087   22.3142 C   0  0  2  0  0  0  0  0  0  0  0  0
    7.0488  -17.6666   21.5928 N   0  0  0  0  0  0  0  0  0  0  0  0
    8.0731  -17.4963   23.7823 C   0  0  0  0  0  0  0  0  0  0  0  0
    6.9682  -17.4404   24.3526 O   0  0  0  0  0  0  0  0  0  0  0  0
    7.1374  -13.5403   16.8063 N   0  0  0  0  0  0  0  0  0  0  0  0
   12.5064  -23.6506   25.4821 C   0  0  0  0  0  0  0  0  0  0  0  0
   12.3152  -22.7299   24.4173 N   0  0  0  0  0  0  0  0  0  0  0  0
   13.0767  -22.7969   23.3766 N   0  0  0  0  0  0  0  0  0  0  0  0
   11.2898  -21.7482   24.5113 C   0  0  0  0  0  0  0  0  0  0  0  0
   10.4558  -21.7755   25.7094 C   0  0  0  0  0  0  0  0  0  0  0  0
    9.4432  -20.6464   25.5493 C   0  0  0  0  0  0  0  0  0  0  0  0
   10.1203  -19.3860   26.0870 C   0  0  2  0  0  0  0  0  0  0  0  0
    9.1328  -18.2581   25.9133 N   0  0  0  0  0  0  0  0  0  0  0  0
    9.2195  -17.8364   24.5302 C   0  0  0  0  0  0  0  0  0  0  0  0
    9.3718  -17.1272   26.8026 O   0  0  0  0  0  0  0  0  0  0  0  0
    9.3248  -17.3046   28.0469 N   0  0  0  0  0  0  0  0  0  0  0  0
   12.9621  -22.1296   22.5920 C   0  0  2  0  0  0  0  0  0  0  0  0
    9.6610  -15.8050   26.3694 C   0  0  0  0  0  0  0  0  0  0  0  0
    9.9745  -14.7616   27.3253 C   0  0  0  0  0  0  0  0  0  0  0  0
    8.7112  -14.2332   27.9705 C   0  0  0  0  0  0  0  0  0  0  0  0
    7.7642  -13.6873   26.9965 N   0  0  0  0  0  0  0  0  0  0  0  0
    7.9499  -13.6468   25.6279 C   0  0  0  0  0  0  0  0  0  0  0  0
    6.8668  -13.0785   25.0965 N   0  0  0  0  0  0  0  0  0  0  0  0
    6.0105  -12.7619   26.0804 C   0  0  0  0  0  0  0  0  0  0  0  0
    6.5600  -13.1346   27.2430 O   0  0  0  0  0  0  0  0  0  0  0  0
   10.9167  -15.2971   28.3623 O   0  0  0  0  0  0  0  0  0  0  0  0
  1  2  1  0
  2  4  1  0
  3  2  2  0
  4  5  1  0
  6  5  1  0
  7  6  1  0
  8  9  1  6
  8  7  1  0
 10 20  1  0
 10  8  1  0
 11 10  2  0
 13 12  1  0
 14 13  2  0
 15 13  1  0
 16 15  1  0
 17 16  1  0
 17 18  1  0
 19 18  1  6
 19 20  1  0
 19 21  1  0
 21 22  2  0
 23 21  1  0
 23 24  1  0
 24 25  1  6
 25 26  1  0
 26 30  1  0
 26 27  2  0
 27 28  1  0
 29 28  1  0
 30 29  2  0
 31 32  1  0
 31 24  1  0
 33 31  2  0
M  END
$$$$
