RRH.pdb
     RDKit          3D

 33 33  0  0  1  0  0  0  0  0999 V2000
   20.4624  -13.0774   15.3818 N   0  0  0  0  0  0  0  0  0  0  0  0
   20.0104  -13.1512   14.0334 C   0  0  0  0  0  0  0  0  0  0  0  0
   20.4107  -12.2137   13.2387 N   0  0  0  0  0  0  0  0  0  0  0  0
   19.1725  -14.2041   13.6211 N   0  0  0  0  0  0  0  0  0  0  0  0
   18.4320  -14.9272   14.6615 C   0  0  0  0  0  0  0  0  0  0  0  0
   17.7384  -16.0704   14.0253 C   0  0  0  0  0  0  0  0  0  0  0  0
   17.0503  -17.0192   14.9390 C   0  0  0  0  0  0  0  0  0  0  0  0
   15.6350  -17.2788   14.5374 C   0  0  2  0  0  0  0  0  0  0  0  0
   14.8570  -16.0743   14.6529 N   0  0  0  0  0  0  0  0  0  0  0  0
   15.0668  -18.3705   15.3982 C   0  0  0  0  0  0  0  0  0  0  0  0
   14.1379  -18.1453   16.1955 O   0  0  0  0  0  0  0  0  0  0  0  0
   20.1449  -12.1140   12.2532 N   0  0  0  0  0  0  0  0  0  0  0  0
   13.3467  -26.1166   13.1061 C   0  0  0  0  0  0  0  0  0  0  0  0
   13.1480  -26.2488   14.5065 N   0  0  0  0  0  0  0  0  0  0  0  0
   12.2477  -27.0640   14.9451 N   0  0  0  0  0  0  0  0  0  0  0  0
   13.9415  -25.4831   15.4054 C   0  0  0  0  0  0  0  0  0  0  0  0
   14.7154  -24.3849   14.8336 C   0  0  0  0  0  0  0  0  0  0  0  0
   14.4311  -23.1652   15.7039 C   0  0  0  0  0  0  0  0  0  0  0  0
   15.2354  -22.0136   15.1013 C   0  0  2  0  0  0  0  0  0  0  0  0
   14.9664  -20.8031   15.9613 N   0  0  0  0  0  0  0  0  0  0  0  0
   15.5936  -19.6754   15.3030 C   0  0  0  0  0  0  0  0  0  0  0  0
   15.4628  -20.9316   17.3266 O   0  0  0  0  0  0  0  0  0  0  0  0
   16.6693  -20.6703   17.5679 N   0  0  0  0  0  0  0  0  0  0  0  0
   12.0362  -27.1253   15.9578 C   0  0  2  0  0  0  0  0  0  0  0  0
   14.6763  -21.3388   18.4380 C   0  0  0  0  0  0  0  0  0  0  0  0
   15.2405  -21.3803   19.7724 C   0  0  0  0  0  0  0  0  0  0  0  0
   14.1557  -21.6118   20.8024 C   0  0  0  0  0  0  0  0  0  0  0  0
   14.5813  -21.2664   22.1599 N   0  0  0  0  0  0  0  0  0  0  0  0
   15.8123  -20.7455   22.5100 C   0  0  0  0  0  0  0  0  0  0  0  0
   15.8080  -20.5696   23.8319 N   0  0  0  0  0  0  0  0  0  0  0  0
   14.6213  -20.9605   24.3224 C   0  0  0  0  0  0  0  0  0  0  0  0
   13.8709  -21.3869   23.2988 O   0  0  0  0  0  0  0  0  0  0  0  0
   16.2806  -22.4587   19.8446 O   0  0  0  0  0  0  0  0  0  0  0  0
  1  2  1  0
  2  4  1  0
  3  2  2  0
  4  5  1  0
  6  5  1  0
  7  6  1  0
  8  9  1  1
  8  7  1  0
 10 20  1  0
 10  8  1  0
 11 10  2  0
 13 12  1  0
 14 13  2  0
 15 13  1  0
 16 15  1  0
 17 16  1  0
 17 18  1  0
 19 18  1  6
 19 20  1  0
 19 21  1  0
 21 22  2  0
 23 21  1  0
 23 24  1  0
 24 25  1  1
 25 26  1  0
 26 30  1  0
 26 27  2  0
 27 28  1  0
 29 28  1  0
 30 29  2  0
 31 32  1  0
 31 24  1  0
 33 31  2  0
M  END
$$$$
