LFI.pdb
     RDKit          3D

 28 28  0  0  1  0  0  0  0  0999 V2000
    8.7923  -13.9218   16.8698 C   0  0  0  0  0  0  0  0  0  0  0  0
    8.5683  -15.1815   17.7053 C   0  0  1  0  0  0  0  0  0  0  0  0
    9.0640  -16.3379   16.8981 C   0  0  0  0  0  0  0  0  0  0  0  0
    9.2970  -15.0040   19.0156 C   0  0  0  0  0  0  0  0  0  0  0  0
    8.9810  -16.0880   20.0103 C   0  0  2  0  0  0  0  0  0  0  0  0
    7.6455  -16.6165   19.8187 N   0  0  0  0  0  0  0  0  0  0  0  0
    9.1408  -15.5052   21.3687 C   0  0  0  0  0  0  0  0  0  0  0  0
   10.2405  -14.9992   21.7071 O   0  0  0  0  0  0  0  0  0  0  0  0
    8.0835  -15.4893   22.3351 N   0  0  0  0  0  0  0  0  0  0  0  0
    8.2407  -14.8595   23.6320 C   0  0  1  0  0  0  0  0  0  0  0  0
    6.9431  -14.1869   24.0267 C   0  0  0  0  0  0  0  0  0  0  0  0
    7.0924  -13.4822   25.3247 C   0  0  0  0  0  0  0  0  0  0  0  0
    7.6766  -12.2511   25.4006 C   0  0  0  0  0  0  0  0  0  0  0  0
    7.7983  -11.6277   26.6156 C   0  0  0  0  0  0  0  0  0  0  0  0
    7.3503  -12.1973   27.7805 C   0  0  0  0  0  0  0  0  0  0  0  0
    6.7587  -13.4415   27.7125 C   0  0  0  0  0  0  0  0  0  0  0  0
    6.6373  -14.0674   26.4882 C   0  0  0  0  0  0  0  0  0  0  0  0
    8.6637  -15.8769   24.6040 C   0  0  0  0  0  0  0  0  0  0  0  0
    8.0290  -16.9809   24.7277 O   0  0  0  0  0  0  0  0  0  0  0  0
   13.6130  -18.8585   25.8353 C   0  0  0  0  0  0  0  0  0  0  0  0
   12.3011  -18.4156   26.4280 C   0  0  0  0  0  0  0  0  0  0  0  0
   11.6729  -17.2742   25.7178 C   0  0  2  0  0  0  0  0  0  0  0  0
   12.6057  -16.0798   25.5958 C   0  0  0  0  0  0  0  0  0  0  0  0
   10.3630  -16.8004   26.2498 C   0  0  2  0  0  0  0  0  0  0  0  0
    9.7839  -15.7285   25.4678 N   0  0  0  0  0  0  0  0  0  0  0  0
   10.3240  -16.5477   27.6907 C   0  0  0  0  0  0  0  0  0  0  0  0
   10.4892  -17.4906   28.6679 O   0  0  0  0  0  0  0  0  0  0  0  0
   10.1187  -15.3502   28.0811 O   0  0  0  0  0  0  0  0  0  0  0  0
  2  4  1  0
  2  1  1  6
  3  2  1  0
  5  4  1  0
  5  6  1  6
  7  8  2  0
  7  5  1  0
  9  7  1  0
 10  9  1  0
 10 11  1  1
 11 12  1  0
 12 13  2  0
 12 17  1  0
 13 14  1  0
 14 15  2  0
 16 15  1  0
 17 16  2  0
 18 10  1  0
 19 18  2  0
 20 21  1  0
 21 22  1  0
 22 23  1  1
 24 22  1  0
 24 25  1  6
 25 18  1  0
 26 24  1  0
 27 26  1  0
 28 26  2  0
M  END
$$$$
