LFI.pdb
     RDKit          3D

 28 28  0  0  1  0  0  0  0  0999 V2000
   10.3607  -20.8363   20.5016 C   0  0  0  0  0  0  0  0  0  0  0  0
   10.0633  -19.4622   19.9031 C   0  0  1  0  0  0  0  0  0  0  0  0
    8.7089  -19.5403   19.2753 C   0  0  0  0  0  0  0  0  0  0  0  0
   10.1554  -18.4434   21.0136 C   0  0  0  0  0  0  0  0  0  0  0  0
    9.6847  -17.0775   20.5928 C   0  0  2  0  0  0  0  0  0  0  0  0
   10.5252  -16.5195   19.5527 N   0  0  0  0  0  0  0  0  0  0  0  0
    9.6815  -16.2156   21.8042 C   0  0  0  0  0  0  0  0  0  0  0  0
   10.7506  -15.6833   22.1962 O   0  0  0  0  0  0  0  0  0  0  0  0
    8.4972  -15.9533   22.5663 N   0  0  0  0  0  0  0  0  0  0  0  0
    8.5064  -15.0687   23.7156 C   0  0  1  0  0  0  0  0  0  0  0  0
    7.1033  -14.5620   23.9732 C   0  0  0  0  0  0  0  0  0  0  0  0
    7.0626  -13.7381   25.2073 C   0  0  0  0  0  0  0  0  0  0  0  0
    6.5261  -14.2212   26.3655 C   0  0  0  0  0  0  0  0  0  0  0  0
    6.5048  -13.4339   27.4878 C   0  0  0  0  0  0  0  0  0  0  0  0
    7.0085  -12.1579   27.4983 C   0  0  0  0  0  0  0  0  0  0  0  0
    7.5525  -11.6620   26.3318 C   0  0  0  0  0  0  0  0  0  0  0  0
    7.5728  -12.4563   25.2031 C   0  0  0  0  0  0  0  0  0  0  0  0
    9.0613  -15.7941   24.8667 C   0  0  0  0  0  0  0  0  0  0  0  0
    8.5892  -16.9273   25.2270 O   0  0  0  0  0  0  0  0  0  0  0  0
   14.3092  -16.1917   24.9715 C   0  0  0  0  0  0  0  0  0  0  0  0
   12.8119  -16.2908   25.1008 C   0  0  0  0  0  0  0  0  0  0  0  0
   12.3121  -16.1029   26.4853 C   0  0  2  0  0  0  0  0  0  0  0  0
   12.9112  -17.1031   27.4612 C   0  0  0  0  0  0  0  0  0  0  0  0
   10.8316  -16.0965   26.6620 C   0  0  2  0  0  0  0  0  0  0  0  0
   10.1409  -15.3143   25.6584 N   0  0  0  0  0  0  0  0  0  0  0  0
   10.3620  -15.8311   28.0224 C   0  0  0  0  0  0  0  0  0  0  0  0
   10.3511  -16.7340   29.0499 O   0  0  0  0  0  0  0  0  0  0  0  0
    9.9225  -14.6621   28.2845 O   0  0  0  0  0  0  0  0  0  0  0  0
  2  4  1  0
  2  1  1  1
  3  2  1  0
  5  4  1  0
  5  6  1  6
  7  8  2  0
  7  5  1  0
  9  7  1  0
 10  9  1  0
 10 11  1  1
 11 12  1  0
 12 13  2  0
 12 17  1  0
 13 14  1  0
 14 15  2  0
 16 15  1  0
 17 16  2  0
 18 10  1  0
 19 18  2  0
 20 21  1  0
 21 22  1  0
 22 23  1  1
 24 22  1  0
 24 25  1  6
 25 18  1  0
 26 24  1  0
 27 26  1  0
 28 26  2  0
M  END
$$$$
