LFI.pdb
     RDKit          3D

 28 28  0  0  1  0  0  0  0  0999 V2000
    8.9385  -20.8551   19.7854 C   0  0  0  0  0  0  0  0  0  0  0  0
    8.4447  -19.4934   19.2986 C   0  0  1  0  0  0  0  0  0  0  0  0
    6.9768  -19.6225   19.0474 C   0  0  0  0  0  0  0  0  0  0  0  0
    8.7881  -18.4712   20.3554 C   0  0  0  0  0  0  0  0  0  0  0  0
    8.1450  -17.1341   20.1045 C   0  0  2  0  0  0  0  0  0  0  0  0
    8.5798  -16.5594   18.8473 N   0  0  0  0  0  0  0  0  0  0  0  0
    8.4923  -16.2519   21.2496 C   0  0  0  0  0  0  0  0  0  0  0  0
    9.6369  -15.7367   21.3181 O   0  0  0  0  0  0  0  0  0  0  0  0
    7.5705  -15.9505   22.3039 N   0  0  0  0  0  0  0  0  0  0  0  0
    7.9499  -15.1385   23.4441 C   0  0  1  0  0  0  0  0  0  0  0  0
    6.7134  -14.5058   24.0465 C   0  0  0  0  0  0  0  0  0  0  0  0
    7.0681  -13.6938   25.2374 C   0  0  0  0  0  0  0  0  0  0  0  0
    7.1424  -14.2523   26.4804 C   0  0  0  0  0  0  0  0  0  0  0  0
    7.4733  -13.4737   27.5593 C   0  0  0  0  0  0  0  0  0  0  0  0
    7.7382  -12.1327   27.4425 C   0  0  0  0  0  0  0  0  0  0  0  0
    7.6651  -11.5604   26.1897 C   0  0  0  0  0  0  0  0  0  0  0  0
    7.3317  -12.3461   25.1048 C   0  0  0  0  0  0  0  0  0  0  0  0
    8.6740  -15.9814   24.4054 C   0  0  0  0  0  0  0  0  0  0  0  0
    8.2072  -17.1122   24.7797 O   0  0  0  0  0  0  0  0  0  0  0  0
   13.7946  -16.8452   23.3879 C   0  0  0  0  0  0  0  0  0  0  0  0
   12.3536  -16.8485   23.8261 C   0  0  0  0  0  0  0  0  0  0  0  0
   12.1624  -16.5826   25.2734 C   0  0  2  0  0  0  0  0  0  0  0  0
   12.9362  -17.5535   26.1509 C   0  0  0  0  0  0  0  0  0  0  0  0
   10.7535  -16.5250   25.7579 C   0  0  2  0  0  0  0  0  0  0  0  0
    9.9218  -15.6247   24.9874 N   0  0  0  0  0  0  0  0  0  0  0  0
   10.5918  -16.3629   27.2033 C   0  0  0  0  0  0  0  0  0  0  0  0
   10.5709  -17.3783   28.1197 O   0  0  0  0  0  0  0  0  0  0  0  0
   10.4574  -15.1788   27.6596 O   0  0  0  0  0  0  0  0  0  0  0  0
  2  4  1  0
  2  1  1  1
  3  2  1  0
  5  4  1  0
  5  6  1  6
  7  8  2  0
  7  5  1  0
  9  7  1  0
 10  9  1  0
 10 11  1  1
 11 12  1  0
 12 13  2  0
 12 17  1  0
 13 14  1  0
 14 15  2  0
 16 15  1  0
 17 16  2  0
 18 10  1  0
 19 18  2  0
 20 21  1  0
 21 22  1  0
 22 23  1  1
 24 22  1  0
 24 25  1  6
 25 18  1  0
 26 24  1  0
 27 26  1  0
 28 26  2  0
M  END
$$$$
