LFI.pdb
     RDKit          3D

 28 28  0  0  1  0  0  0  0  0999 V2000
   11.6975  -16.8609   16.7974 C   0  0  0  0  0  0  0  0  0  0  0  0
   11.2705  -17.7171   17.9889 C   0  0  1  0  0  0  0  0  0  0  0  0
   12.2187  -18.8703   18.0633 C   0  0  0  0  0  0  0  0  0  0  0  0
   11.2882  -16.8414   19.2187 C   0  0  0  0  0  0  0  0  0  0  0  0
   10.9173  -17.5878   20.4716 C   0  0  2  0  0  0  0  0  0  0  0  0
    9.8778  -18.5661   20.2230 N   0  0  0  0  0  0  0  0  0  0  0  0
   10.4823  -16.5817   21.4760 C   0  0  0  0  0  0  0  0  0  0  0  0
   11.2359  -15.6174   21.7628 O   0  0  0  0  0  0  0  0  0  0  0  0
    9.2204  -16.6544   22.1504 N   0  0  0  0  0  0  0  0  0  0  0  0
    8.8721  -15.7434   23.2236 C   0  0  1  0  0  0  0  0  0  0  0  0
    7.3837  -15.4682   23.1883 C   0  0  0  0  0  0  0  0  0  0  0  0
    7.0198  -14.4290   24.1839 C   0  0  0  0  0  0  0  0  0  0  0  0
    7.3245  -13.1142   23.9808 C   0  0  0  0  0  0  0  0  0  0  0  0
    6.9734  -12.1797   24.9206 C   0  0  0  0  0  0  0  0  0  0  0  0
    6.3169  -12.5139   26.0779 C   0  0  0  0  0  0  0  0  0  0  0  0
    6.0053  -13.8406   26.2909 C   0  0  0  0  0  0  0  0  0  0  0  0
    6.3598  -14.7798   25.3435 C   0  0  0  0  0  0  0  0  0  0  0  0
    9.3044  -16.3286   24.5002 C   0  0  0  0  0  0  0  0  0  0  0  0
    9.4365  -17.5936   24.6393 O   0  0  0  0  0  0  0  0  0  0  0  0
   10.6684  -12.7386   28.6976 C   0  0  0  0  0  0  0  0  0  0  0  0
   10.7907  -13.7742   27.6107 C   0  0  0  0  0  0  0  0  0  0  0  0
   10.2513  -15.1056   27.9825 C   0  0  2  0  0  0  0  0  0  0  0  0
   11.0031  -15.7346   29.1448 C   0  0  0  0  0  0  0  0  0  0  0  0
   10.1475  -16.1103   26.8857 C   0  0  2  0  0  0  0  0  0  0  0  0
    9.6057  -15.5624   25.6599 N   0  0  0  0  0  0  0  0  0  0  0  0
    9.5443  -17.3900   27.2602 C   0  0  0  0  0  0  0  0  0  0  0  0
   10.2196  -18.4736   27.7510 O   0  0  0  0  0  0  0  0  0  0  0  0
    8.2823  -17.5182   27.1211 O   0  0  0  0  0  0  0  0  0  0  0  0
  2  4  1  0
  2  1  1  6
  3  2  1  0
  5  4  1  0
  5  6  1  6
  7  8  2  0
  7  5  1  0
  9  7  1  0
 10  9  1  0
 10 11  1  1
 11 12  1  0
 12 13  2  0
 12 17  1  0
 13 14  1  0
 14 15  2  0
 16 15  1  0
 17 16  2  0
 18 10  1  0
 19 18  2  0
 20 21  1  0
 21 22  1  0
 22 23  1  1
 24 22  1  0
 24 25  1  6
 25 18  1  0
 26 24  1  0
 27 26  1  0
 28 26  2  0
M  END
$$$$
