LFI.pdb
     RDKit          3D

 28 28  0  0  1  0  0  0  0  0999 V2000
    8.0259  -12.5757   18.1211 C   0  0  0  0  0  0  0  0  0  0  0  0
    8.1653  -14.0379   18.5423 C   0  0  1  0  0  0  0  0  0  0  0  0
    8.3599  -14.8378   17.2945 C   0  0  0  0  0  0  0  0  0  0  0  0
    9.3229  -14.1338   19.5068 C   0  0  0  0  0  0  0  0  0  0  0  0
    9.3459  -15.4346   20.2630 C   0  0  2  0  0  0  0  0  0  0  0  0
    8.1954  -16.2569   19.9472 N   0  0  0  0  0  0  0  0  0  0  0  0
    9.3925  -15.1057   21.7121 C   0  0  0  0  0  0  0  0  0  0  0  0
   10.4276  -14.5889   22.2036 O   0  0  0  0  0  0  0  0  0  0  0  0
    8.2949  -15.3522   22.5991 N   0  0  0  0  0  0  0  0  0  0  0  0
    8.2620  -14.8132   23.9450 C   0  0  1  0  0  0  0  0  0  0  0  0
    6.8514  -14.3760   24.2789 C   0  0  0  0  0  0  0  0  0  0  0  0
    6.8273  -13.6136   25.5523 C   0  0  0  0  0  0  0  0  0  0  0  0
    6.5894  -14.2323   26.7453 C   0  0  0  0  0  0  0  0  0  0  0  0
    6.5745  -13.4983   27.9032 C   0  0  0  0  0  0  0  0  0  0  0  0
    6.7925  -12.1438   27.9160 C   0  0  0  0  0  0  0  0  0  0  0  0
    7.0337  -11.5109   26.7146 C   0  0  0  0  0  0  0  0  0  0  0  0
    7.0481  -12.2517   25.5499 C   0  0  0  0  0  0  0  0  0  0  0  0
    8.7688  -15.8316   24.8752 C   0  0  0  0  0  0  0  0  0  0  0  0
    8.6426  -17.0800   24.6253 O   0  0  0  0  0  0  0  0  0  0  0  0
   14.0720  -16.1524   27.6005 C   0  0  0  0  0  0  0  0  0  0  0  0
   12.6493  -16.5974   27.8162 C   0  0  0  0  0  0  0  0  0  0  0  0
   11.6420  -15.7529   27.1277 C   0  0  2  0  0  0  0  0  0  0  0  0
   11.3369  -14.4729   27.8893 C   0  0  0  0  0  0  0  0  0  0  0  0
   10.3527  -16.4126   26.7733 C   0  0  2  0  0  0  0  0  0  0  0  0
    9.4257  -15.5278   26.0995 N   0  0  0  0  0  0  0  0  0  0  0  0
    9.7297  -17.1915   27.8442 C   0  0  0  0  0  0  0  0  0  0  0  0
   10.2898  -18.2703   28.4716 O   0  0  0  0  0  0  0  0  0  0  0  0
    8.5650  -16.8451   28.2340 O   0  0  0  0  0  0  0  0  0  0  0  0
  2  4  1  0
  2  1  1  6
  3  2  1  0
  5  4  1  0
  5  6  1  1
  7  8  2  0
  7  5  1  0
  9  7  1  0
 10  9  1  0
 10 11  1  1
 11 12  1  0
 12 13  2  0
 12 17  1  0
 13 14  1  0
 14 15  2  0
 16 15  1  0
 17 16  2  0
 18 10  1  0
 19 18  2  0
 20 21  1  0
 21 22  1  0
 22 23  1  1
 24 22  1  0
 24 25  1  1
 25 18  1  0
 26 24  1  0
 27 26  1  0
 28 26  2  0
M  END
$$$$
