LFI.pdb
     RDKit          3D

 28 28  0  0  1  0  0  0  0  0999 V2000
   11.3612  -16.7148   16.9165 C   0  0  0  0  0  0  0  0  0  0  0  0
   10.8212  -17.4654   18.1331 C   0  0  1  0  0  0  0  0  0  0  0  0
   10.9923  -18.9251   17.8602 C   0  0  0  0  0  0  0  0  0  0  0  0
   11.5796  -16.9859   19.3473 C   0  0  0  0  0  0  0  0  0  0  0  0
   11.1427  -17.6685   20.6152 C   0  0  2  0  0  0  0  0  0  0  0  0
   10.1104  -18.6538   20.3632 N   0  0  0  0  0  0  0  0  0  0  0  0
   10.6650  -16.6129   21.5466 C   0  0  0  0  0  0  0  0  0  0  0  0
   11.4302  -15.6686   21.8677 O   0  0  0  0  0  0  0  0  0  0  0  0
    9.3484  -16.6144   22.1111 N   0  0  0  0  0  0  0  0  0  0  0  0
    8.9324  -15.6256   23.0871 C   0  0  1  0  0  0  0  0  0  0  0  0
    7.4325  -15.4367   23.0059 C   0  0  0  0  0  0  0  0  0  0  0  0
    6.9885  -14.3675   23.9349 C   0  0  0  0  0  0  0  0  0  0  0  0
    6.3062  -14.6606   25.0800 C   0  0  0  0  0  0  0  0  0  0  0  0
    5.9111  -13.6488   25.9165 C   0  0  0  0  0  0  0  0  0  0  0  0
    6.1763  -12.3297   25.6486 C   0  0  0  0  0  0  0  0  0  0  0  0
    6.8653  -12.0249   24.4933 C   0  0  0  0  0  0  0  0  0  0  0  0
    7.2621  -13.0451   23.6524 C   0  0  0  0  0  0  0  0  0  0  0  0
    9.3717  -16.0620   24.4196 C   0  0  0  0  0  0  0  0  0  0  0  0
    9.6182  -17.2928   24.6669 O   0  0  0  0  0  0  0  0  0  0  0  0
   11.4789  -13.7898   29.7423 C   0  0  0  0  0  0  0  0  0  0  0  0
   10.5261  -14.8126   29.1814 C   0  0  0  0  0  0  0  0  0  0  0  0
   10.0164  -14.4837   27.8272 C   0  0  2  0  0  0  0  0  0  0  0  0
    8.6180  -13.8880   27.8602 C   0  0  0  0  0  0  0  0  0  0  0  0
   10.0388  -15.5858   26.8232 C   0  0  2  0  0  0  0  0  0  0  0  0
    9.5566  -15.1798   25.5198 N   0  0  0  0  0  0  0  0  0  0  0  0
    9.4755  -16.8589   27.2744 C   0  0  0  0  0  0  0  0  0  0  0  0
   10.1702  -17.8594   27.8969 O   0  0  0  0  0  0  0  0  0  0  0  0
    8.2320  -17.0651   27.0754 O   0  0  0  0  0  0  0  0  0  0  0  0
  2  4  1  0
  2  1  1  6
  3  2  1  0
  5  4  1  0
  5  6  1  6
  7  8  2  0
  7  5  1  0
  9  7  1  0
 10  9  1  0
 10 11  1  1
 11 12  1  0
 12 13  2  0
 12 17  1  0
 13 14  1  0
 14 15  2  0
 16 15  1  0
 17 16  2  0
 18 10  1  0
 19 18  2  0
 20 21  1  0
 21 22  1  0
 22 23  1  1
 24 22  1  0
 24 25  1  6
 25 18  1  0
 26 24  1  0
 27 26  1  0
 28 26  2  0
M  END
$$$$
