LFI.pdb
     RDKit          3D

 28 28  0  0  1  0  0  0  0  0999 V2000
    7.8218  -13.0472   17.5835 C   0  0  0  0  0  0  0  0  0  0  0  0
    8.1590  -14.4380   18.1194 C   0  0  1  0  0  0  0  0  0  0  0  0
    8.5988  -15.2634   16.9533 C   0  0  0  0  0  0  0  0  0  0  0  0
    9.2205  -14.2805   19.1814 C   0  0  0  0  0  0  0  0  0  0  0  0
    9.4797  -15.5536   19.9405 C   0  0  2  0  0  0  0  0  0  0  0  0
    8.4679  -16.5543   19.6672 N   0  0  0  0  0  0  0  0  0  0  0  0
    9.5207  -15.2088   21.3861 C   0  0  0  0  0  0  0  0  0  0  0  0
   10.4380  -14.4716   21.8278 O   0  0  0  0  0  0  0  0  0  0  0  0
    8.5478  -15.6831   22.3246 N   0  0  0  0  0  0  0  0  0  0  0  0
    8.3729  -15.0648   23.6247 C   0  0  1  0  0  0  0  0  0  0  0  0
    6.8950  -14.9167   23.9180 C   0  0  0  0  0  0  0  0  0  0  0  0
    6.6787  -14.0065   25.0705 C   0  0  0  0  0  0  0  0  0  0  0  0
    7.1694  -12.7329   25.0706 C   0  0  0  0  0  0  0  0  0  0  0  0
    6.9511  -11.9180   26.1513 C   0  0  0  0  0  0  0  0  0  0  0  0
    6.2479  -12.3339   27.2535 C   0  0  0  0  0  0  0  0  0  0  0  0
    5.7486  -13.6196   27.2614 C   0  0  0  0  0  0  0  0  0  0  0  0
    5.9696  -14.4384   26.1723 C   0  0  0  0  0  0  0  0  0  0  0  0
    9.0662  -15.8785   24.6328 C   0  0  0  0  0  0  0  0  0  0  0  0
    9.3291  -17.1129   24.4228 O   0  0  0  0  0  0  0  0  0  0  0  0
   11.1504  -13.1228   29.0609 C   0  0  0  0  0  0  0  0  0  0  0  0
   11.0924  -13.9881   27.8295 C   0  0  0  0  0  0  0  0  0  0  0  0
   10.6031  -15.3659   28.0827 C   0  0  2  0  0  0  0  0  0  0  0  0
   11.5815  -16.1892   28.9052 C   0  0  0  0  0  0  0  0  0  0  0  0
   10.2048  -16.1600   26.8852 C   0  0  2  0  0  0  0  0  0  0  0  0
    9.4941  -15.3798   25.8941 N   0  0  0  0  0  0  0  0  0  0  0  0
    9.5697  -17.4479   27.1676 C   0  0  0  0  0  0  0  0  0  0  0  0
    8.2260  -17.6993   27.1182 O   0  0  0  0  0  0  0  0  0  0  0  0
   10.3227  -18.4268   27.4889 O   0  0  0  0  0  0  0  0  0  0  0  0
  2  4  1  0
  2  1  1  6
  3  2  1  0
  5  4  1  0
  5  6  1  1
  7  8  2  0
  7  5  1  0
  9  7  1  0
 10  9  1  0
 10 11  1  1
 11 12  1  0
 12 13  2  0
 12 17  1  0
 13 14  1  0
 14 15  2  0
 16 15  1  0
 17 16  2  0
 18 10  1  0
 19 18  2  0
 20 21  1  0
 21 22  1  0
 22 23  1  6
 24 22  1  0
 24 25  1  1
 25 18  1  0
 26 24  1  0
 27 26  1  0
 28 26  2  0
M  END
$$$$
