LFI.pdb
     RDKit          3D

 28 28  0  0  1  0  0  0  0  0999 V2000
   11.4040  -19.3894   19.2309 C   0  0  0  0  0  0  0  0  0  0  0  0
   10.0820  -19.4047   19.9972 C   0  0  1  0  0  0  0  0  0  0  0  0
    9.8687  -20.8042   20.4773 C   0  0  0  0  0  0  0  0  0  0  0  0
   10.1817  -18.3928   21.1133 C   0  0  0  0  0  0  0  0  0  0  0  0
    9.7298  -17.0191   20.6973 C   0  0  2  0  0  0  0  0  0  0  0  0
   10.6071  -16.4485   19.6952 N   0  0  0  0  0  0  0  0  0  0  0  0
    9.6876  -16.1755   21.9208 C   0  0  0  0  0  0  0  0  0  0  0  0
   10.7410  -15.6377   22.3467 O   0  0  0  0  0  0  0  0  0  0  0  0
    8.4824  -15.9373   22.6575 N   0  0  0  0  0  0  0  0  0  0  0  0
    8.4513  -15.0604   23.8122 C   0  0  1  0  0  0  0  0  0  0  0  0
    7.0294  -14.6036   24.0604 C   0  0  0  0  0  0  0  0  0  0  0  0
    6.9585  -13.7467   25.2705 C   0  0  0  0  0  0  0  0  0  0  0  0
    6.6479  -14.2690   26.4925 C   0  0  0  0  0  0  0  0  0  0  0  0
    6.5915  -13.4494   27.5902 C   0  0  0  0  0  0  0  0  0  0  0  0
    6.8381  -12.1020   27.5131 C   0  0  0  0  0  0  0  0  0  0  0  0
    7.1527  -11.5662   26.2817 C   0  0  0  0  0  0  0  0  0  0  0  0
    7.2089  -12.3932   25.1778 C   0  0  0  0  0  0  0  0  0  0  0  0
    9.0206  -15.7738   24.9637 C   0  0  0  0  0  0  0  0  0  0  0  0
    8.5987  -16.9338   25.3003 O   0  0  0  0  0  0  0  0  0  0  0  0
   14.2399  -16.1619   25.0513 C   0  0  0  0  0  0  0  0  0  0  0  0
   12.7481  -16.2944   25.2113 C   0  0  0  0  0  0  0  0  0  0  0  0
   12.2591  -15.9950   26.5799 C   0  0  2  0  0  0  0  0  0  0  0  0
   12.9017  -16.8816   27.6347 C   0  0  0  0  0  0  0  0  0  0  0  0
   10.7814  -16.0181   26.7773 C   0  0  2  0  0  0  0  0  0  0  0  0
   10.0610  -15.2528   25.7816 N   0  0  0  0  0  0  0  0  0  0  0  0
   10.3254  -15.7587   28.1435 C   0  0  0  0  0  0  0  0  0  0  0  0
    9.6138  -14.6632   28.5494 O   0  0  0  0  0  0  0  0  0  0  0  0
   10.6102  -16.6198   29.0412 O   0  0  0  0  0  0  0  0  0  0  0  0
  2  4  1  0
  2  1  1  1
  3  2  1  0
  5  4  1  0
  5  6  1  6
  7  8  2  0
  7  5  1  0
  9  7  1  0
 10  9  1  0
 10 11  1  1
 11 12  1  0
 12 13  2  0
 12 17  1  0
 13 14  1  0
 14 15  2  0
 16 15  1  0
 17 16  2  0
 18 10  1  0
 19 18  2  0
 20 21  1  0
 21 22  1  0
 22 23  1  1
 24 22  1  0
 24 25  1  6
 25 18  1  0
 26 24  1  0
 27 26  1  0
 28 26  2  0
M  END
$$$$
