LFI.pdb
     RDKit          3D

 28 28  0  0  1  0  0  0  0  0999 V2000
    7.8474  -12.3600   18.7317 C   0  0  0  0  0  0  0  0  0  0  0  0
    7.8108  -13.8714   18.9534 C   0  0  1  0  0  0  0  0  0  0  0  0
    7.3566  -14.4926   17.6719 C   0  0  0  0  0  0  0  0  0  0  0  0
    9.1907  -14.3105   19.3806 C   0  0  0  0  0  0  0  0  0  0  0  0
    9.1742  -15.5750   20.1962 C   0  0  2  0  0  0  0  0  0  0  0  0
    7.9723  -16.3487   19.9584 N   0  0  0  0  0  0  0  0  0  0  0  0
    9.2897  -15.1835   21.6258 C   0  0  0  0  0  0  0  0  0  0  0  0
   10.3598  -14.6805   22.0524 O   0  0  0  0  0  0  0  0  0  0  0  0
    8.2214  -15.3531   22.5651 N   0  0  0  0  0  0  0  0  0  0  0  0
    8.3113  -14.8567   23.9248 C   0  0  1  0  0  0  0  0  0  0  0  0
    6.9729  -14.2852   24.3425 C   0  0  0  0  0  0  0  0  0  0  0  0
    7.0604  -13.6832   25.6965 C   0  0  0  0  0  0  0  0  0  0  0  0
    6.4225  -14.2438   26.7649 C   0  0  0  0  0  0  0  0  0  0  0  0
    6.5245  -13.6621   28.0022 C   0  0  0  0  0  0  0  0  0  0  0  0
    7.2533  -12.5200   28.2181 C   0  0  0  0  0  0  0  0  0  0  0  0
    7.9011  -11.9471   27.1436 C   0  0  0  0  0  0  0  0  0  0  0  0
    7.7970  -12.5342   25.8987 C   0  0  0  0  0  0  0  0  0  0  0  0
    8.7518  -15.9515   24.8002 C   0  0  0  0  0  0  0  0  0  0  0  0
    8.0973  -17.0485   24.8713 O   0  0  0  0  0  0  0  0  0  0  0  0
   13.2536  -18.1451   24.0502 C   0  0  0  0  0  0  0  0  0  0  0  0
   11.8600  -17.7783   24.4882 C   0  0  0  0  0  0  0  0  0  0  0  0
   11.7384  -17.4962   25.9400 C   0  0  2  0  0  0  0  0  0  0  0  0
   12.1380  -18.6850   26.7995 C   0  0  0  0  0  0  0  0  0  0  0  0
   10.4158  -16.9939   26.4106 C   0  0  2  0  0  0  0  0  0  0  0  0
    9.9113  -15.8899   25.6215 N   0  0  0  0  0  0  0  0  0  0  0  0
   10.3057  -16.7685   27.8524 C   0  0  0  0  0  0  0  0  0  0  0  0
   10.2188  -17.7459   28.8055 O   0  0  0  0  0  0  0  0  0  0  0  0
   10.2877  -15.5621   28.2681 O   0  0  0  0  0  0  0  0  0  0  0  0
  2  4  1  0
  2  1  1  6
  3  2  1  0
  5  4  1  0
  5  6  1  1
  7  8  2  0
  7  5  1  0
  9  7  1  0
 10  9  1  0
 10 11  1  1
 11 12  1  0
 12 13  2  0
 12 17  1  0
 13 14  1  0
 14 15  2  0
 16 15  1  0
 17 16  2  0
 18 10  1  0
 19 18  2  0
 20 21  1  0
 21 22  1  0
 22 23  1  1
 24 22  1  0
 24 25  1  6
 25 18  1  0
 26 24  1  0
 27 26  1  0
 28 26  2  0
M  END
$$$$
