LFI.pdb
     RDKit          3D

 28 28  0  0  1  0  0  0  0  0999 V2000
    8.6008  -12.7070   18.5400 C   0  0  0  0  0  0  0  0  0  0  0  0
    8.3983  -13.9579   19.3941 C   0  0  1  0  0  0  0  0  0  0  0  0
    7.1866  -14.6576   18.8680 C   0  0  0  0  0  0  0  0  0  0  0  0
    9.6577  -14.7861   19.3086 C   0  0  0  0  0  0  0  0  0  0  0  0
    9.6715  -15.9295   20.2867 C   0  0  2  0  0  0  0  0  0  0  0  0
    8.5886  -16.8594   20.0372 N   0  0  0  0  0  0  0  0  0  0  0  0
    9.5794  -15.3479   21.6518 C   0  0  0  0  0  0  0  0  0  0  0  0
   10.4766  -14.5688   22.0620 O   0  0  0  0  0  0  0  0  0  0  0  0
    8.4974  -15.6348   22.5458 N   0  0  0  0  0  0  0  0  0  0  0  0
    8.4008  -15.0172   23.8544 C   0  0  1  0  0  0  0  0  0  0  0  0
    6.9431  -14.8191   24.2123 C   0  0  0  0  0  0  0  0  0  0  0  0
    6.7989  -13.7840   25.2663 C   0  0  0  0  0  0  0  0  0  0  0  0
    7.2978  -12.5249   25.0974 C   0  0  0  0  0  0  0  0  0  0  0  0
    7.1468  -11.5924   26.0911 C   0  0  0  0  0  0  0  0  0  0  0  0
    6.5042  -11.8742   27.2700 C   0  0  0  0  0  0  0  0  0  0  0  0
    5.9971  -13.1443   27.4487 C   0  0  0  0  0  0  0  0  0  0  0  0
    6.1503  -14.0817   26.4471 C   0  0  0  0  0  0  0  0  0  0  0  0
    9.1084  -15.8594   24.8286 C   0  0  0  0  0  0  0  0  0  0  0  0
    9.3208  -17.1005   24.6020 O   0  0  0  0  0  0  0  0  0  0  0  0
   10.5586  -14.0244   30.2238 C   0  0  0  0  0  0  0  0  0  0  0  0
    9.9283  -14.8054   29.1007 C   0  0  0  0  0  0  0  0  0  0  0  0
   10.9060  -15.3956   28.1533 C   0  0  2  0  0  0  0  0  0  0  0  0
   11.8642  -14.3606   27.5856 C   0  0  0  0  0  0  0  0  0  0  0  0
   10.3413  -16.1888   27.0241 C   0  0  2  0  0  0  0  0  0  0  0  0
    9.6053  -15.3827   26.0730 N   0  0  0  0  0  0  0  0  0  0  0  0
    9.6378  -17.4139   27.4063 C   0  0  0  0  0  0  0  0  0  0  0  0
    8.3337  -17.7057   27.1142 O   0  0  0  0  0  0  0  0  0  0  0  0
   10.2851  -18.2915   28.0690 O   0  0  0  0  0  0  0  0  0  0  0  0
  2  4  1  0
  2  1  1  6
  3  2  1  0
  5  4  1  0
  5  6  1  6
  7  8  2  0
  7  5  1  0
  9  7  1  0
 10  9  1  0
 10 11  1  1
 11 12  1  0
 12 13  2  0
 12 17  1  0
 13 14  1  0
 14 15  2  0
 16 15  1  0
 17 16  2  0
 18 10  1  0
 19 18  2  0
 20 21  1  0
 21 22  1  0
 22 23  1  6
 24 22  1  0
 24 25  1  1
 25 18  1  0
 26 24  1  0
 27 26  1  0
 28 26  2  0
M  END
$$$$
