LFI.pdb
     RDKit          3D

 28 28  0  0  1  0  0  0  0  0999 V2000
    7.6531  -13.4921   17.0891 C   0  0  0  0  0  0  0  0  0  0  0  0
    8.3338  -14.7123   17.7078 C   0  0  1  0  0  0  0  0  0  0  0  0
    9.3267  -15.2147   16.7096 C   0  0  0  0  0  0  0  0  0  0  0  0
    8.9567  -14.2825   19.0143 C   0  0  0  0  0  0  0  0  0  0  0  0
    9.4007  -15.4457   19.8594 C   0  0  2  0  0  0  0  0  0  0  0  0
    8.5540  -16.6047   19.6606 N   0  0  0  0  0  0  0  0  0  0  0  0
    9.3794  -14.9989   21.2772 C   0  0  0  0  0  0  0  0  0  0  0  0
   10.1688  -14.0994   21.6617 O   0  0  0  0  0  0  0  0  0  0  0  0
    8.4864  -15.5518   22.2514 N   0  0  0  0  0  0  0  0  0  0  0  0
    8.3296  -14.9635   23.5676 C   0  0  1  0  0  0  0  0  0  0  0  0
    6.8560  -14.8160   23.8818 C   0  0  0  0  0  0  0  0  0  0  0  0
    6.6589  -13.9573   25.0765 C   0  0  0  0  0  0  0  0  0  0  0  0
    7.0929  -12.6636   25.0998 C   0  0  0  0  0  0  0  0  0  0  0  0
    6.8942  -11.8976   26.2195 C   0  0  0  0  0  0  0  0  0  0  0  0
    6.2666  -12.3833   27.3386 C   0  0  0  0  0  0  0  0  0  0  0  0
    5.8250  -13.6898   27.3233 C   0  0  0  0  0  0  0  0  0  0  0  0
    6.0261  -14.4593   26.1950 C   0  0  0  0  0  0  0  0  0  0  0  0
    9.0310  -15.8037   24.5481 C   0  0  0  0  0  0  0  0  0  0  0  0
    9.3839  -17.0003   24.2646 O   0  0  0  0  0  0  0  0  0  0  0  0
   10.5592  -13.3227   29.3707 C   0  0  0  0  0  0  0  0  0  0  0  0
   10.6712  -14.0560   28.0598 C   0  0  0  0  0  0  0  0  0  0  0  0
   10.2851  -15.4869   28.1340 C   0  0  2  0  0  0  0  0  0  0  0  0
   11.2543  -16.3088   28.9687 C   0  0  0  0  0  0  0  0  0  0  0  0
   10.0686  -16.1848   26.8344 C   0  0  2  0  0  0  0  0  0  0  0  0
    9.3699  -15.3728   25.8604 N   0  0  0  0  0  0  0  0  0  0  0  0
    9.5421  -17.5467   26.9322 C   0  0  0  0  0  0  0  0  0  0  0  0
    8.2179  -17.8897   26.9218 O   0  0  0  0  0  0  0  0  0  0  0  0
   10.3793  -18.5040   27.0371 O   0  0  0  0  0  0  0  0  0  0  0  0
  2  4  1  0
  2  1  1  6
  3  2  1  0
  5  4  1  0
  5  6  1  1
  7  8  2  0
  7  5  1  0
  9  7  1  0
 10  9  1  0
 10 11  1  1
 11 12  1  0
 12 13  2  0
 12 17  1  0
 13 14  1  0
 14 15  2  0
 16 15  1  0
 17 16  2  0
 18 10  1  0
 19 18  2  0
 20 21  1  0
 21 22  1  0
 22 23  1  6
 24 22  1  0
 24 25  1  6
 25 18  1  0
 26 24  1  0
 27 26  1  0
 28 26  2  0
M  END
$$$$
