LFI.pdb
     RDKit          3D

 28 28  0  0  1  0  0  0  0  0999 V2000
    8.3562  -13.3123   17.0456 C   0  0  0  0  0  0  0  0  0  0  0  0
    8.5329  -14.6435   17.7746 C   0  0  1  0  0  0  0  0  0  0  0  0
    9.0447  -15.6283   16.7732 C   0  0  0  0  0  0  0  0  0  0  0  0
    9.4746  -14.4161   18.9326 C   0  0  0  0  0  0  0  0  0  0  0  0
    9.5925  -15.6160   19.8330 C   0  0  2  0  0  0  0  0  0  0  0  0
    8.5679  -16.6003   19.5487 N   0  0  0  0  0  0  0  0  0  0  0  0
    9.4998  -15.1304   21.2351 C   0  0  0  0  0  0  0  0  0  0  0  0
   10.2858  -14.2375   21.6414 O   0  0  0  0  0  0  0  0  0  0  0  0
    8.5400  -15.6378   22.1698 N   0  0  0  0  0  0  0  0  0  0  0  0
    8.3485  -15.0342   23.4745 C   0  0  1  0  0  0  0  0  0  0  0  0
    6.8672  -14.8729   23.7430 C   0  0  0  0  0  0  0  0  0  0  0  0
    6.6399  -13.9647   24.8949 C   0  0  0  0  0  0  0  0  0  0  0  0
    7.0490  -12.6630   24.8637 C   0  0  0  0  0  0  0  0  0  0  0  0
    6.8228  -11.8509   25.9449 C   0  0  0  0  0  0  0  0  0  0  0  0
    6.1914  -12.2972   27.0782 C   0  0  0  0  0  0  0  0  0  0  0  0
    5.7749  -13.6114   27.1179 C   0  0  0  0  0  0  0  0  0  0  0  0
    6.0037  -14.4274   26.0283 C   0  0  0  0  0  0  0  0  0  0  0  0
    9.0143  -15.8685   24.4843 C   0  0  0  0  0  0  0  0  0  0  0  0
    9.1773  -17.1246   24.3045 O   0  0  0  0  0  0  0  0  0  0  0  0
   10.7597  -13.8117   29.7285 C   0  0  0  0  0  0  0  0  0  0  0  0
    9.9994  -14.6223   28.7119 C   0  0  0  0  0  0  0  0  0  0  0  0
   10.8651  -15.3716   27.7679 C   0  0  2  0  0  0  0  0  0  0  0  0
   11.8903  -14.4802   27.0853 C   0  0  0  0  0  0  0  0  0  0  0  0
   10.1686  -16.1780   26.7250 C   0  0  2  0  0  0  0  0  0  0  0  0
    9.5218  -15.3673   25.7148 N   0  0  0  0  0  0  0  0  0  0  0  0
    9.3179  -17.2571   27.2286 C   0  0  0  0  0  0  0  0  0  0  0  0
    7.9678  -17.3611   27.0350 O   0  0  0  0  0  0  0  0  0  0  0  0
    9.8708  -18.1852   27.9078 O   0  0  0  0  0  0  0  0  0  0  0  0
  2  4  1  0
  2  1  1  6
  3  2  1  0
  5  4  1  0
  5  6  1  6
  7  8  2  0
  7  5  1  0
  9  7  1  0
 10  9  1  0
 10 11  1  1
 11 12  1  0
 12 13  2  0
 12 17  1  0
 13 14  1  0
 14 15  2  0
 16 15  1  0
 17 16  2  0
 18 10  1  0
 19 18  2  0
 20 21  1  0
 21 22  1  0
 22 23  1  6
 24 22  1  0
 24 25  1  1
 25 18  1  0
 26 24  1  0
 27 26  1  0
 28 26  2  0
M  END
$$$$
