LFI.pdb
     RDKit          3D

 28 28  0  0  1  0  0  0  0  0999 V2000
    9.2105  -13.8067   18.4817 C   0  0  0  0  0  0  0  0  0  0  0  0
    8.1222  -13.4954   19.5082 C   0  0  1  0  0  0  0  0  0  0  0  0
    7.5141  -12.1861   19.1203 C   0  0  0  0  0  0  0  0  0  0  0  0
    7.1396  -14.6417   19.5037 C   0  0  0  0  0  0  0  0  0  0  0  0
    7.5295  -15.7480   20.4464 C   0  0  2  0  0  0  0  0  0  0  0  0
    6.6202  -16.8725   20.3560 N   0  0  0  0  0  0  0  0  0  0  0  0
    7.5464  -15.1770   21.8190 C   0  0  0  0  0  0  0  0  0  0  0  0
    7.4735  -13.9324   21.9800 O   0  0  0  0  0  0  0  0  0  0  0  0
    7.6438  -15.9885   22.9955 N   0  0  0  0  0  0  0  0  0  0  0  0
    8.1614  -15.4661   24.2455 C   0  0  1  0  0  0  0  0  0  0  0  0
    7.0359  -15.3609   25.2527 C   0  0  0  0  0  0  0  0  0  0  0  0
    7.3471  -14.3358   26.2802 C   0  0  0  0  0  0  0  0  0  0  0  0
    8.2458  -14.5810   27.2776 C   0  0  0  0  0  0  0  0  0  0  0  0
    8.5105  -13.6118   28.2106 C   0  0  0  0  0  0  0  0  0  0  0  0
    7.9006  -12.3832   28.1853 C   0  0  0  0  0  0  0  0  0  0  0  0
    6.9911  -12.1273   27.1805 C   0  0  0  0  0  0  0  0  0  0  0  0
    6.7259  -13.1045   26.2423 C   0  0  0  0  0  0  0  0  0  0  0  0
    9.2492  -16.3385   24.7087 C   0  0  0  0  0  0  0  0  0  0  0  0
    9.1243  -17.6118   24.7089 O   0  0  0  0  0  0  0  0  0  0  0  0
   14.1009  -15.1155   22.9301 C   0  0  0  0  0  0  0  0  0  0  0  0
   12.8223  -15.7150   23.4540 C   0  0  0  0  0  0  0  0  0  0  0  0
   12.9096  -16.1911   24.8567 C   0  0  2  0  0  0  0  0  0  0  0  0
   13.9932  -17.2401   25.0492 C   0  0  0  0  0  0  0  0  0  0  0  0
   11.6464  -16.6970   25.4664 C   0  0  2  0  0  0  0  0  0  0  0  0
   10.5008  -15.8581   25.1836 N   0  0  0  0  0  0  0  0  0  0  0  0
   11.7400  -17.0881   26.8735 C   0  0  0  0  0  0  0  0  0  0  0  0
   12.3621  -18.2107   27.3467 O   0  0  0  0  0  0  0  0  0  0  0  0
   11.1988  -16.3257   27.7420 O   0  0  0  0  0  0  0  0  0  0  0  0
  2  4  1  0
  2  1  1  6
  3  2  1  0
  5  4  1  0
  5  6  1  1
  7  8  2  0
  7  5  1  0
  9  7  1  0
 10  9  1  0
 10 11  1  1
 11 12  1  0
 12 13  2  0
 12 17  1  0
 13 14  1  0
 14 15  2  0
 16 15  1  0
 17 16  2  0
 18 10  1  0
 19 18  2  0
 20 21  1  0
 21 22  1  0
 22 23  1  6
 24 22  1  0
 24 25  1  1
 25 18  1  0
 26 24  1  0
 27 26  1  0
 28 26  2  0
M  END
$$$$
