FDW.pdb
     RDKit          3D

 34 36  0  0  1  0  0  0  0  0999 V2000
    6.7987  -18.8561   22.2965 N   0  0  0  0  0  0  0  0  0  0  0  0
    7.3992  -17.6083   22.7593 C   0  0  1  0  0  0  0  0  0  0  0  0
    6.6443  -17.1863   23.9741 C   0  0  0  0  0  0  0  0  0  0  0  0
    6.8242  -15.8060   24.3985 C   0  0  0  0  0  0  0  0  0  0  0  0
    7.8665  -15.0631   23.9061 C   0  0  0  0  0  0  0  0  0  0  0  0
    8.0960  -13.7439   24.2629 C   0  0  0  0  0  0  0  0  0  0  0  0
    7.2062  -13.1885   25.1623 C   0  0  0  0  0  0  0  0  0  0  0  0
    6.1530  -13.9195   25.6679 C   0  0  0  0  0  0  0  0  0  0  0  0
    5.9604  -15.2235   25.2892 C   0  0  0  0  0  0  0  0  0  0  0  0
    8.8334  -17.8067   22.9285 C   0  0  0  0  0  0  0  0  0  0  0  0
    9.2938  -18.8856   23.4339 O   0  0  0  0  0  0  0  0  0  0  0  0
    9.8383  -16.8572   22.5627 N   0  0  0  0  0  0  0  0  0  0  0  0
   11.2542  -17.1412   22.6822 C   0  0  1  0  0  0  0  0  0  0  0  0
   11.9451  -16.2756   21.6288 C   0  0  0  0  0  0  0  0  0  0  0  0
   13.4017  -16.4510   21.6269 C   0  0  0  0  0  0  0  0  0  0  0  0
   13.8156  -17.6551   21.5988 O   0  0  0  0  0  0  0  0  0  0  0  0
   11.7961  -16.8787   24.0085 C   0  0  0  0  0  0  0  0  0  0  0  0
   13.0036  -17.0372   24.2530 O   0  0  0  0  0  0  0  0  0  0  0  0
   14.3583  -15.4748   21.6526 O   0  0  0  0  0  0  0  0  0  0  0  0
   10.9307  -16.4359   25.0344 N   0  0  0  0  0  0  0  0  0  0  0  0
   11.2994  -16.2757   26.4028 C   0  0  1  0  0  0  0  0  0  0  0  0
   10.7242  -15.0063   26.9856 C   0  0  0  0  0  0  0  0  0  0  0  0
    9.2960  -14.7960   26.7379 C   0  0  0  0  0  0  0  0  0  0  0  0
    8.3797  -15.8038   26.4459 C   0  0  0  0  0  0  0  0  0  0  0  0
    7.1574  -15.2598   26.2561 N   0  0  0  0  0  0  0  0  0  0  0  0
    7.2350  -13.9296   26.4130 C   0  0  0  0  0  0  0  0  0  0  0  0
    6.2809  -12.9278   26.3342 C   0  0  0  0  0  0  0  0  0  0  0  0
    6.6066  -11.6072   26.5494 C   0  0  0  0  0  0  0  0  0  0  0  0
    7.9299  -11.3174   26.8487 C   0  0  0  0  0  0  0  0  0  0  0  0
    8.8848  -12.3053   26.9287 C   0  0  0  0  0  0  0  0  0  0  0  0
    8.5575  -13.6378   26.7115 C   0  0  0  0  0  0  0  0  0  0  0  0
   10.7694  -17.4145   27.1842 C   0  0  0  0  0  0  0  0  0  0  0  0
   11.1752  -17.6440   28.5125 O   0  0  0  0  0  0  0  0  0  0  0  0
    9.9369  -18.2036   26.6632 O   0  0  0  0  0  0  0  0  0  0  0  0
  2  1  1  1
  3  2  1  0
  4  3  1  0
  5  4  2  0
  6  5  1  0
  7  8  1  0
  7  6  2  0
  8  9  2  0
  9  4  1  0
 10 12  1  0
 10  2  1  0
 11 10  2  0
 13 12  1  0
 13 14  1  6
 14 15  1  0
 15 19  1  0
 16 15  2  0
 17 13  1  0
 18 17  2  0
 20 17  1  0
 21 32  1  0
 21 20  1  0
 21 22  1  1
 23 31  1  0
 23 22  1  0
 24 23  2  0
 25 24  1  0
 25 26  1  0
 26 27  1  0
 26 31  2  0
 27 28  2  0
 28 29  1  0
 30 29  2  0
 31 30  1  0
 32 33  1  0
 34 32  2  0
M  END
$$$$
