FDW.pdb
     RDKit          3D

 34 36  0  0  1  0  0  0  0  0999 V2000
    6.1152  -17.2795   20.9172 N   0  0  0  0  0  0  0  0  0  0  0  0
    7.4986  -17.2356   20.4528 C   0  0  1  0  0  0  0  0  0  0  0  0
    7.6121  -16.0674   19.5330 C   0  0  0  0  0  0  0  0  0  0  0  0
    7.8862  -14.7807   20.1549 C   0  0  0  0  0  0  0  0  0  0  0  0
    8.0511  -13.6611   19.3803 C   0  0  0  0  0  0  0  0  0  0  0  0
    8.3104  -12.4047   19.9042 C   0  0  0  0  0  0  0  0  0  0  0  0
    8.3992  -12.3208   21.2805 C   0  0  0  0  0  0  0  0  0  0  0  0
    8.2365  -13.4349   22.0752 C   0  0  0  0  0  0  0  0  0  0  0  0
    7.9808  -14.6614   21.5172 C   0  0  0  0  0  0  0  0  0  0  0  0
    8.3868  -17.2341   21.6087 C   0  0  0  0  0  0  0  0  0  0  0  0
    8.0592  -17.8269   22.6917 O   0  0  0  0  0  0  0  0  0  0  0  0
    9.6666  -16.5975   21.6549 N   0  0  0  0  0  0  0  0  0  0  0  0
   10.8463  -17.2637   22.1687 C   0  0  1  0  0  0  0  0  0  0  0  0
   12.0338  -16.6296   21.4447 C   0  0  0  0  0  0  0  0  0  0  0  0
   13.3078  -17.2698   21.7907 C   0  0  0  0  0  0  0  0  0  0  0  0
   13.2977  -18.5428   21.8260 O   0  0  0  0  0  0  0  0  0  0  0  0
   10.9995  -17.1560   23.6132 C   0  0  0  0  0  0  0  0  0  0  0  0
   12.0880  -17.3904   24.1639 O   0  0  0  0  0  0  0  0  0  0  0  0
   14.4962  -16.6583   22.0783 O   0  0  0  0  0  0  0  0  0  0  0  0
    9.8885  -16.7782   24.4006 N   0  0  0  0  0  0  0  0  0  0  0  0
    9.9228  -16.5526   25.8085 C   0  0  1  0  0  0  0  0  0  0  0  0
    8.5308  -16.4629   26.3884 C   0  0  0  0  0  0  0  0  0  0  0  0
    7.6482  -15.4858   25.7467 C   0  0  0  0  0  0  0  0  0  0  0  0
    6.8749  -15.7316   24.6144 C   0  0  0  0  0  0  0  0  0  0  0  0
    6.1976  -14.6112   24.2799 N   0  0  0  0  0  0  0  0  0  0  0  0
    6.4965  -13.6357   25.1513 C   0  0  0  0  0  0  0  0  0  0  0  0
    6.0712  -12.3211   25.2557 C   0  0  0  0  0  0  0  0  0  0  0  0
    6.5210  -11.4986   26.2646 C   0  0  0  0  0  0  0  0  0  0  0  0
    7.4185  -12.0381   27.1745 C   0  0  0  0  0  0  0  0  0  0  0  0
    7.8471  -13.3423   27.0789 C   0  0  0  0  0  0  0  0  0  0  0  0
    7.3944  -14.1729   26.0615 C   0  0  0  0  0  0  0  0  0  0  0  0
   10.6153  -17.6836   26.4640 C   0  0  0  0  0  0  0  0  0  0  0  0
   10.7788  -18.9203   25.8115 O   0  0  0  0  0  0  0  0  0  0  0  0
   11.0735  -17.5519   27.6301 O   0  0  0  0  0  0  0  0  0  0  0  0
  2  1  1  1
  3  2  1  0
  4  3  1  0
  5  4  2  0
  6  5  1  0
  7  8  1  0
  7  6  2  0
  8  9  2  0
  9  4  1  0
 10 12  1  0
 10  2  1  0
 11 10  2  0
 13 12  1  0
 13 14  1  6
 14 15  1  0
 15 19  1  0
 16 15  2  0
 17 13  1  0
 18 17  2  0
 20 17  1  0
 21 32  1  0
 21 20  1  0
 21 22  1  1
 23 31  1  0
 23 22  1  0
 24 23  2  0
 25 24  1  0
 25 26  1  0
 26 27  1  0
 26 31  2  0
 27 28  2  0
 28 29  1  0
 30 29  2  0
 31 30  1  0
 32 33  1  0
 34 32  2  0
M  END
$$$$
