FDW.pdb
     RDKit          3D

 34 36  0  0  1  0  0  0  0  0999 V2000
    6.8802  -17.9889   21.2586 N   0  0  0  0  0  0  0  0  0  0  0  0
    7.8055  -16.8778   21.4600 C   0  0  1  0  0  0  0  0  0  0  0  0
    6.9925  -15.7095   21.9048 C   0  0  0  0  0  0  0  0  0  0  0  0
    7.2866  -14.4369   21.2632 C   0  0  0  0  0  0  0  0  0  0  0  0
    7.9689  -13.4619   21.9448 C   0  0  0  0  0  0  0  0  0  0  0  0
    8.2860  -12.2297   21.3958 C   0  0  0  0  0  0  0  0  0  0  0  0
    7.8754  -12.0146   20.0942 C   0  0  0  0  0  0  0  0  0  0  0  0
    7.1887  -12.9823   19.3934 C   0  0  0  0  0  0  0  0  0  0  0  0
    6.8941  -14.1898   19.9733 C   0  0  0  0  0  0  0  0  0  0  0  0
    8.8686  -17.3037   22.3618 C   0  0  0  0  0  0  0  0  0  0  0  0
    8.6410  -18.1412   23.2989 O   0  0  0  0  0  0  0  0  0  0  0  0
   10.2238  -16.8512   22.2986 N   0  0  0  0  0  0  0  0  0  0  0  0
   11.1741  -17.0968   23.3646 C   0  0  1  0  0  0  0  0  0  0  0  0
   12.5290  -16.6294   22.8333 C   0  0  0  0  0  0  0  0  0  0  0  0
   12.8660  -17.2405   21.5428 C   0  0  0  0  0  0  0  0  0  0  0  0
   12.3096  -18.3592   21.2963 O   0  0  0  0  0  0  0  0  0  0  0  0
   10.8439  -16.4229   24.6129 C   0  0  0  0  0  0  0  0  0  0  0  0
   10.8633  -15.1839   24.6998 O   0  0  0  0  0  0  0  0  0  0  0  0
   13.7048  -16.7485   20.5819 O   0  0  0  0  0  0  0  0  0  0  0  0
   10.4956  -17.1943   25.7447 N   0  0  0  0  0  0  0  0  0  0  0  0
   10.3272  -16.6803   27.0644 C   0  0  1  0  0  0  0  0  0  0  0  0
    8.8923  -16.7931   27.5229 C   0  0  0  0  0  0  0  0  0  0  0  0
    7.9262  -16.0076   26.7516 C   0  0  0  0  0  0  0  0  0  0  0  0
    6.8791  -16.5414   26.0038 C   0  0  0  0  0  0  0  0  0  0  0  0
    6.1966  -15.5401   25.4059 N   0  0  0  0  0  0  0  0  0  0  0  0
    6.7559  -14.3652   25.7330 C   0  0  0  0  0  0  0  0  0  0  0  0
    6.4380  -13.0593   25.3961 C   0  0  0  0  0  0  0  0  0  0  0  0
    7.1703  -11.9956   25.8743 C   0  0  0  0  0  0  0  0  0  0  0  0
    8.2412  -12.2823   26.7084 C   0  0  0  0  0  0  0  0  0  0  0  0
    8.5650  -13.5759   27.0484 C   0  0  0  0  0  0  0  0  0  0  0  0
    7.8273  -14.6499   26.5664 C   0  0  0  0  0  0  0  0  0  0  0  0
   11.1652  -17.4622   27.9998 C   0  0  0  0  0  0  0  0  0  0  0  0
   11.3583  -17.0486   29.3315 O   0  0  0  0  0  0  0  0  0  0  0  0
   11.7236  -18.5222   27.6106 O   0  0  0  0  0  0  0  0  0  0  0  0
  2  1  1  1
  3  2  1  0
  4  3  1  0
  5  4  2  0
  6  5  1  0
  7  8  1  0
  7  6  2  0
  8  9  2  0
  9  4  1  0
 10 12  1  0
 10  2  1  0
 11 10  2  0
 13 12  1  0
 13 14  1  6
 14 15  1  0
 15 19  1  0
 16 15  2  0
 17 13  1  0
 18 17  2  0
 20 17  1  0
 21 32  1  0
 21 20  1  0
 21 22  1  1
 23 31  1  0
 23 22  1  0
 24 23  2  0
 25 24  1  0
 25 26  1  0
 26 27  1  0
 26 31  2  0
 27 28  2  0
 28 29  1  0
 30 29  2  0
 31 30  1  0
 32 33  1  0
 34 32  2  0
M  END
$$$$
