FDW.pdb
     RDKit          3D

 34 36  0  0  1  0  0  0  0  0999 V2000
    8.0237  -16.9242   20.3310 N   0  0  0  0  0  0  0  0  0  0  0  0
    8.8318  -16.5628   21.4920 C   0  0  1  0  0  0  0  0  0  0  0  0
    8.1371  -15.4311   22.1705 C   0  0  0  0  0  0  0  0  0  0  0  0
    7.8914  -14.2467   21.3616 C   0  0  0  0  0  0  0  0  0  0  0  0
    8.8504  -13.2720   21.2561 C   0  0  0  0  0  0  0  0  0  0  0  0
    8.6862  -12.1214   20.5016 C   0  0  0  0  0  0  0  0  0  0  0  0
    7.4810  -11.9898   19.8388 C   0  0  0  0  0  0  0  0  0  0  0  0
    6.5055  -12.9586   19.9328 C   0  0  0  0  0  0  0  0  0  0  0  0
    6.7072  -14.0838   20.6907 C   0  0  0  0  0  0  0  0  0  0  0  0
    9.0616  -17.7547   22.2991 C   0  0  0  0  0  0  0  0  0  0  0  0
    8.7789  -18.9173   21.8521 O   0  0  0  0  0  0  0  0  0  0  0  0
    9.6056  -17.7533   23.6218 N   0  0  0  0  0  0  0  0  0  0  0  0
   11.0140  -17.5324   23.8810 C   0  0  1  0  0  0  0  0  0  0  0  0
   11.5239  -16.6769   22.7215 C   0  0  0  0  0  0  0  0  0  0  0  0
   12.9882  -16.6737   22.6291 C   0  0  0  0  0  0  0  0  0  0  0  0
   13.4873  -17.3898   21.7017 O   0  0  0  0  0  0  0  0  0  0  0  0
   11.2820  -16.8887   25.1599 C   0  0  0  0  0  0  0  0  0  0  0  0
   12.4105  -16.4481   25.4343 O   0  0  0  0  0  0  0  0  0  0  0  0
   13.8712  -15.9942   23.4211 O   0  0  0  0  0  0  0  0  0  0  0  0
   10.2380  -16.7643   26.1042 N   0  0  0  0  0  0  0  0  0  0  0  0
   10.4093  -16.3796   27.4669 C   0  0  1  0  0  0  0  0  0  0  0  0
    9.1170  -15.8775   28.0665 C   0  0  0  0  0  0  0  0  0  0  0  0
    8.0827  -15.5039   27.0991 C   0  0  0  0  0  0  0  0  0  0  0  0
    7.2695  -16.4031   26.4129 C   0  0  0  0  0  0  0  0  0  0  0  0
    6.4422  -15.7234   25.5886 N   0  0  0  0  0  0  0  0  0  0  0  0
    6.6805  -14.4083   25.7071 C   0  0  0  0  0  0  0  0  0  0  0  0
    6.1092  -13.3022   25.0986 C   0  0  0  0  0  0  0  0  0  0  0  0
    6.5245  -12.0237   25.3972 C   0  0  0  0  0  0  0  0  0  0  0  0
    7.5395  -11.8851   26.3327 C   0  0  0  0  0  0  0  0  0  0  0  0
    8.1135  -12.9774   26.9421 C   0  0  0  0  0  0  0  0  0  0  0  0
    7.6956  -14.2678   26.6416 C   0  0  0  0  0  0  0  0  0  0  0  0
   10.8470  -17.5551   28.2512 C   0  0  0  0  0  0  0  0  0  0  0  0
   10.8862  -18.8422   27.6825 O   0  0  0  0  0  0  0  0  0  0  0  0
   11.1947  -17.4165   29.4541 O   0  0  0  0  0  0  0  0  0  0  0  0
  2  1  1  6
  3  2  1  0
  4  3  1  0
  5  4  2  0
  6  5  1  0
  7  8  1  0
  7  6  2  0
  8  9  2  0
  9  4  1  0
 10 12  1  0
 10  2  1  0
 11 10  2  0
 13 12  1  0
 13 14  1  6
 14 15  1  0
 15 19  1  0
 16 15  2  0
 17 13  1  0
 18 17  2  0
 20 17  1  0
 21 32  1  0
 21 20  1  0
 21 22  1  1
 23 31  1  0
 23 22  1  0
 24 23  2  0
 25 24  1  0
 25 26  1  0
 26 27  1  0
 26 31  2  0
 27 28  2  0
 28 29  1  0
 30 29  2  0
 31 30  1  0
 32 33  1  0
 34 32  2  0
M  END
$$$$
