FDW.pdb
     RDKit          3D

 34 36  0  0  1  0  0  0  0  0999 V2000
    7.2431  -18.0586   19.7021 N   0  0  0  0  0  0  0  0  0  0  0  0
    7.8626  -16.9099   20.3565 C   0  0  1  0  0  0  0  0  0  0  0  0
    6.7567  -16.0150   20.8035 C   0  0  0  0  0  0  0  0  0  0  0  0
    7.0556  -14.5914   20.8454 C   0  0  0  0  0  0  0  0  0  0  0  0
    8.3100  -14.1400   20.5237 C   0  0  0  0  0  0  0  0  0  0  0  0
    8.6636  -12.8002   20.5384 C   0  0  0  0  0  0  0  0  0  0  0  0
    7.6724  -11.9086   20.9012 C   0  0  0  0  0  0  0  0  0  0  0  0
    6.4062  -12.3435   21.2279 C   0  0  0  0  0  0  0  0  0  0  0  0
    6.0962  -13.6792   21.2009 C   0  0  0  0  0  0  0  0  0  0  0  0
    8.7656  -17.3870   21.3966 C   0  0  0  0  0  0  0  0  0  0  0  0
    8.4456  -18.3704   22.1463 O   0  0  0  0  0  0  0  0  0  0  0  0
   10.0528  -16.8314   21.6790 N   0  0  0  0  0  0  0  0  0  0  0  0
   10.9236  -17.3724   22.7031 C   0  0  1  0  0  0  0  0  0  0  0  0
   12.3067  -17.4813   22.0617 C   0  0  0  0  0  0  0  0  0  0  0  0
   13.2500  -18.2412   22.8895 C   0  0  0  0  0  0  0  0  0  0  0  0
   14.2518  -17.5896   23.3298 O   0  0  0  0  0  0  0  0  0  0  0  0
   10.9744  -16.5677   23.9162 C   0  0  0  0  0  0  0  0  0  0  0  0
   11.7775  -15.6271   24.0311 O   0  0  0  0  0  0  0  0  0  0  0  0
   13.1762  -19.5609   23.2385 O   0  0  0  0  0  0  0  0  0  0  0  0
   10.0933  -16.8643   24.9806 N   0  0  0  0  0  0  0  0  0  0  0  0
   10.3361  -16.5588   26.3525 C   0  0  1  0  0  0  0  0  0  0  0  0
    9.0548  -16.5508   27.1525 C   0  0  0  0  0  0  0  0  0  0  0  0
    7.9862  -15.7070   26.6127 C   0  0  0  0  0  0  0  0  0  0  0  0
    6.8847  -16.1734   25.8988 C   0  0  0  0  0  0  0  0  0  0  0  0
    6.1089  -15.1287   25.5347 N   0  0  0  0  0  0  0  0  0  0  0  0
    6.6593  -13.9902   25.9834 C   0  0  0  0  0  0  0  0  0  0  0  0
    6.2631  -12.6659   25.8869 C   0  0  0  0  0  0  0  0  0  0  0  0
    7.0052  -11.6515   26.4496 C   0  0  0  0  0  0  0  0  0  0  0  0
    8.1676  -12.0071   27.1183 C   0  0  0  0  0  0  0  0  0  0  0  0
    8.5695  -13.3194   27.2191 C   0  0  0  0  0  0  0  0  0  0  0  0
    7.8220  -14.3437   26.6516 C   0  0  0  0  0  0  0  0  0  0  0  0
   11.2247  -17.5914   26.9292 C   0  0  0  0  0  0  0  0  0  0  0  0
   11.6346  -18.7087   26.1772 O   0  0  0  0  0  0  0  0  0  0  0  0
   11.6310  -17.4819   28.1166 O   0  0  0  0  0  0  0  0  0  0  0  0
  2  1  1  1
  3  2  1  0
  4  3  1  0
  5  4  2  0
  6  5  1  0
  7  8  1  0
  7  6  2  0
  8  9  2  0
  9  4  1  0
 10 12  1  0
 10  2  1  0
 11 10  2  0
 13 12  1  0
 13 14  1  6
 14 15  1  0
 15 19  1  0
 16 15  2  0
 17 13  1  0
 18 17  2  0
 20 17  1  0
 21 32  1  0
 21 20  1  0
 21 22  1  1
 23 31  1  0
 23 22  1  0
 24 23  2  0
 25 24  1  0
 25 26  1  0
 26 27  1  0
 26 31  2  0
 27 28  2  0
 28 29  1  0
 30 29  2  0
 31 30  1  0
 32 33  1  0
 34 32  2  0
M  END
$$$$
