FDW.pdb
     RDKit          3D

 34 36  0  0  1  0  0  0  0  0999 V2000
    5.9702  -18.0035   21.4583 N   0  0  0  0  0  0  0  0  0  0  0  0
    6.9472  -16.9476   21.2095 C   0  0  1  0  0  0  0  0  0  0  0  0
    6.2718  -15.6513   21.5047 C   0  0  0  0  0  0  0  0  0  0  0  0
    6.9840  -14.4468   21.1050 C   0  0  0  0  0  0  0  0  0  0  0  0
    7.4007  -13.5457   22.0510 C   0  0  0  0  0  0  0  0  0  0  0  0
    8.0861  -12.3813   21.7431 C   0  0  0  0  0  0  0  0  0  0  0  0
    8.3415  -12.1563   20.4039 C   0  0  0  0  0  0  0  0  0  0  0  0
    7.9305  -13.0504   19.4391 C   0  0  0  0  0  0  0  0  0  0  0  0
    7.2541  -14.1921   19.7855 C   0  0  0  0  0  0  0  0  0  0  0  0
    8.1569  -17.2319   21.9716 C   0  0  0  0  0  0  0  0  0  0  0  0
    8.1116  -17.9211   23.0461 O   0  0  0  0  0  0  0  0  0  0  0  0
    9.4697  -16.7906   21.6152 N   0  0  0  0  0  0  0  0  0  0  0  0
   10.6522  -17.2079   22.3413 C   0  0  1  0  0  0  0  0  0  0  0  0
   11.8304  -16.9630   21.3988 C   0  0  0  0  0  0  0  0  0  0  0  0
   11.9246  -17.9783   20.3440 C   0  0  0  0  0  0  0  0  0  0  0  0
   12.6686  -17.6823   19.3536 O   0  0  0  0  0  0  0  0  0  0  0  0
   10.8426  -16.5090   23.6050 C   0  0  0  0  0  0  0  0  0  0  0  0
   11.6138  -15.5393   23.6941 O   0  0  0  0  0  0  0  0  0  0  0  0
   11.3074  -19.1974   20.3038 O   0  0  0  0  0  0  0  0  0  0  0  0
   10.1365  -16.9437   24.7494 N   0  0  0  0  0  0  0  0  0  0  0  0
   10.4991  -16.6457   26.0963 C   0  0  1  0  0  0  0  0  0  0  0  0
    9.3014  -16.6956   27.0154 C   0  0  0  0  0  0  0  0  0  0  0  0
    8.1411  -15.9189   26.5729 C   0  0  0  0  0  0  0  0  0  0  0  0
    7.0287  -16.4468   25.9214 C   0  0  0  0  0  0  0  0  0  0  0  0
    6.1578  -15.4526   25.6403 N   0  0  0  0  0  0  0  0  0  0  0  0
    6.6559  -14.2883   26.0835 C   0  0  0  0  0  0  0  0  0  0  0  0
    6.1615  -12.9942   26.0518 C   0  0  0  0  0  0  0  0  0  0  0  0
    6.8670  -11.9423   26.5922 C   0  0  0  0  0  0  0  0  0  0  0  0
    8.0949  -12.2285   27.1709 C   0  0  0  0  0  0  0  0  0  0  0  0
    8.5946  -13.5103   27.2069 C   0  0  0  0  0  0  0  0  0  0  0  0
    7.8841  -14.5723   26.6618 C   0  0  0  0  0  0  0  0  0  0  0  0
   11.4761  -17.6509   26.5691 C   0  0  0  0  0  0  0  0  0  0  0  0
   12.1781  -17.4789   27.7771 O   0  0  0  0  0  0  0  0  0  0  0  0
   11.6946  -18.6872   25.8870 O   0  0  0  0  0  0  0  0  0  0  0  0
  2  1  1  1
  3  2  1  0
  4  3  1  0
  5  4  2  0
  6  5  1  0
  7  8  1  0
  7  6  2  0
  8  9  2  0
  9  4  1  0
 10 12  1  0
 10  2  1  0
 11 10  2  0
 13 12  1  0
 13 14  1  6
 14 15  1  0
 15 19  1  0
 16 15  2  0
 17 13  1  0
 18 17  2  0
 20 17  1  0
 21 32  1  0
 21 20  1  0
 21 22  1  1
 23 31  1  0
 23 22  1  0
 24 23  2  0
 25 24  1  0
 25 26  1  0
 26 27  1  0
 26 31  2  0
 27 28  2  0
 28 29  1  0
 30 29  2  0
 31 30  1  0
 32 33  1  0
 34 32  2  0
M  END
$$$$
