FDW.pdb
     RDKit          3D

 34 36  0  0  1  0  0  0  0  0999 V2000
    9.5138  -15.2528   21.3081 N   0  0  0  0  0  0  0  0  0  0  0  0
    8.8367  -14.6241   22.4384 C   0  0  1  0  0  0  0  0  0  0  0  0
    7.5353  -14.1022   21.9307 C   0  0  0  0  0  0  0  0  0  0  0  0
    7.5148  -13.6574   20.5453 C   0  0  0  0  0  0  0  0  0  0  0  0
    6.9016  -14.4202   19.5847 C   0  0  0  0  0  0  0  0  0  0  0  0
    6.8407  -14.0571   18.2488 C   0  0  0  0  0  0  0  0  0  0  0  0
    7.4407  -12.8591   17.9113 C   0  0  0  0  0  0  0  0  0  0  0  0
    8.0617  -12.0792   18.8627 C   0  0  0  0  0  0  0  0  0  0  0  0
    8.1001  -12.4744   20.1755 C   0  0  0  0  0  0  0  0  0  0  0  0
    8.7634  -15.5786   23.5377 C   0  0  0  0  0  0  0  0  0  0  0  0
    8.0605  -15.3347   24.5759 O   0  0  0  0  0  0  0  0  0  0  0  0
    9.4401  -16.8381   23.5726 N   0  0  0  0  0  0  0  0  0  0  0  0
    9.0127  -17.9248   24.4304 C   0  0  1  0  0  0  0  0  0  0  0  0
    9.3679  -19.2111   23.6850 C   0  0  0  0  0  0  0  0  0  0  0  0
   10.7977  -19.2983   23.3677 C   0  0  0  0  0  0  0  0  0  0  0  0
   11.1212  -20.1721   22.4996 O   0  0  0  0  0  0  0  0  0  0  0  0
    9.6229  -17.9042   25.7529 C   0  0  0  0  0  0  0  0  0  0  0  0
    9.0550  -18.4169   26.7315 O   0  0  0  0  0  0  0  0  0  0  0  0
   11.8150  -18.5533   23.8958 O   0  0  0  0  0  0  0  0  0  0  0  0
   10.8838  -17.2892   25.9236 N   0  0  0  0  0  0  0  0  0  0  0  0
   11.2376  -16.4374   27.0115 C   0  0  1  0  0  0  0  0  0  0  0  0
   10.5857  -15.0805   26.8862 C   0  0  0  0  0  0  0  0  0  0  0  0
    9.1216  -15.0918   26.8463 C   0  0  0  0  0  0  0  0  0  0  0  0
    8.3247  -16.2053   27.1024 C   0  0  0  0  0  0  0  0  0  0  0  0
    7.0235  -15.8701   26.9601 N   0  0  0  0  0  0  0  0  0  0  0  0
    6.9339  -14.5754   26.6197 C   0  0  0  0  0  0  0  0  0  0  0  0
    5.8465  -13.7542   26.3683 C   0  0  0  0  0  0  0  0  0  0  0  0
    6.0097  -12.4269   26.0394 C   0  0  0  0  0  0  0  0  0  0  0  0
    7.3077  -11.9423   25.9692 C   0  0  0  0  0  0  0  0  0  0  0  0
    8.3940  -12.7501   26.2167 C   0  0  0  0  0  0  0  0  0  0  0  0
    8.2308  -14.0893   26.5482 C   0  0  0  0  0  0  0  0  0  0  0  0
   10.7738  -17.0485   28.2764 C   0  0  0  0  0  0  0  0  0  0  0  0
   10.2470  -18.3535   28.3099 O   0  0  0  0  0  0  0  0  0  0  0  0
   10.8458  -16.3995   29.3538 O   0  0  0  0  0  0  0  0  0  0  0  0
  2  1  1  6
  3  2  1  0
  4  3  1  0
  5  4  2  0
  6  5  1  0
  7  8  1  0
  7  6  2  0
  8  9  2  0
  9  4  1  0
 10 12  1  0
 10  2  1  0
 11 10  2  0
 13 12  1  0
 13 14  1  6
 14 15  1  0
 15 19  1  0
 16 15  2  0
 17 13  1  0
 18 17  2  0
 20 17  1  0
 21 32  1  0
 21 20  1  0
 21 22  1  6
 23 31  1  0
 23 22  1  0
 24 23  2  0
 25 24  1  0
 25 26  1  0
 26 27  1  0
 26 31  2  0
 27 28  2  0
 28 29  1  0
 30 29  2  0
 31 30  1  0
 32 33  1  0
 34 32  2  0
M  END
$$$$
