FDW.pdb
     RDKit          3D

 34 36  0  0  1  0  0  0  0  0999 V2000
    6.0706  -18.0199   21.2655 N   0  0  0  0  0  0  0  0  0  0  0  0
    7.0355  -16.9306   21.1480 C   0  0  1  0  0  0  0  0  0  0  0  0
    6.3315  -15.6800   21.5533 C   0  0  0  0  0  0  0  0  0  0  0  0
    7.0542  -14.4349   21.3408 C   0  0  0  0  0  0  0  0  0  0  0  0
    7.3138  -13.9964   20.0677 C   0  0  0  0  0  0  0  0  0  0  0  0
    7.9925  -12.8203   19.7914 C   0  0  0  0  0  0  0  0  0  0  0  0
    8.4108  -12.0832   20.8827 C   0  0  0  0  0  0  0  0  0  0  0  0
    8.1592  -12.5078   22.1694 C   0  0  0  0  0  0  0  0  0  0  0  0
    7.4836  -13.6788   22.4005 C   0  0  0  0  0  0  0  0  0  0  0  0
    8.2311  -17.2723   21.9087 C   0  0  0  0  0  0  0  0  0  0  0  0
    8.1576  -17.9854   22.9658 O   0  0  0  0  0  0  0  0  0  0  0  0
    9.5594  -16.8651   21.5694 N   0  0  0  0  0  0  0  0  0  0  0  0
   10.7075  -17.2059   22.3852 C   0  0  1  0  0  0  0  0  0  0  0  0
   11.9348  -16.9279   21.5176 C   0  0  0  0  0  0  0  0  0  0  0  0
   11.9993  -17.8025   20.3414 C   0  0  0  0  0  0  0  0  0  0  0  0
   11.6651  -19.0163   20.5333 O   0  0  0  0  0  0  0  0  0  0  0  0
   10.7778  -16.4669   23.6384 C   0  0  0  0  0  0  0  0  0  0  0  0
   11.3600  -15.3718   23.7077 O   0  0  0  0  0  0  0  0  0  0  0  0
   12.3759  -17.4642   19.0715 O   0  0  0  0  0  0  0  0  0  0  0  0
   10.1722  -17.0073   24.7953 N   0  0  0  0  0  0  0  0  0  0  0  0
   10.4216  -16.5692   26.1295 C   0  0  1  0  0  0  0  0  0  0  0  0
    9.1677  -16.6159   26.9706 C   0  0  0  0  0  0  0  0  0  0  0  0
    8.0217  -15.8848   26.4252 C   0  0  0  0  0  0  0  0  0  0  0  0
    6.8859  -16.4757   25.8763 C   0  0  0  0  0  0  0  0  0  0  0  0
    6.0373  -15.5130   25.4533 N   0  0  0  0  0  0  0  0  0  0  0  0
    6.5727  -14.3086   25.7041 C   0  0  0  0  0  0  0  0  0  0  0  0
    6.1121  -13.0217   25.4766 C   0  0  0  0  0  0  0  0  0  0  0  0
    6.8534  -11.9190   25.8386 C   0  0  0  0  0  0  0  0  0  0  0  0
    8.0820  -12.1466   26.4414 C   0  0  0  0  0  0  0  0  0  0  0  0
    8.5483  -13.4208   26.6711 C   0  0  0  0  0  0  0  0  0  0  0  0
    7.8016  -14.5340   26.3060 C   0  0  0  0  0  0  0  0  0  0  0  0
   11.4208  -17.4633   26.7545 C   0  0  0  0  0  0  0  0  0  0  0  0
   11.9711  -17.1775   28.0183 O   0  0  0  0  0  0  0  0  0  0  0  0
   11.7965  -18.5057   26.1551 O   0  0  0  0  0  0  0  0  0  0  0  0
  2  1  1  1
  3  2  1  0
  4  3  1  0
  5  4  2  0
  6  5  1  0
  7  8  1  0
  7  6  2  0
  8  9  2  0
  9  4  1  0
 10 12  1  0
 10  2  1  0
 11 10  2  0
 13 12  1  0
 13 14  1  6
 14 15  1  0
 15 19  1  0
 16 15  2  0
 17 13  1  0
 18 17  2  0
 20 17  1  0
 21 32  1  0
 21 20  1  0
 21 22  1  1
 23 31  1  0
 23 22  1  0
 24 23  2  0
 25 24  1  0
 25 26  1  0
 26 27  1  0
 26 31  2  0
 27 28  2  0
 28 29  1  0
 30 29  2  0
 31 30  1  0
 32 33  1  0
 34 32  2  0
M  END
$$$$
