FDW.pdb
     RDKit          3D

 34 36  0  0  1  0  0  0  0  0999 V2000
    8.9033  -18.8264   27.5140 N   0  0  0  0  0  0  0  0  0  0  0  0
    8.0161  -18.1128   26.6002 C   0  0  1  0  0  0  0  0  0  0  0  0
    8.4981  -16.7030   26.5378 C   0  0  0  0  0  0  0  0  0  0  0  0
    9.0588  -16.1579   27.7650 C   0  0  0  0  0  0  0  0  0  0  0  0
    8.8076  -14.8573   28.1202 C   0  0  0  0  0  0  0  0  0  0  0  0
    9.3050  -14.2741   29.2746 C   0  0  0  0  0  0  0  0  0  0  0  0
   10.0885  -15.0788   30.0794 C   0  0  0  0  0  0  0  0  0  0  0  0
   10.3518  -16.3880   29.7389 C   0  0  0  0  0  0  0  0  0  0  0  0
    9.8402  -16.9280   28.5867 C   0  0  0  0  0  0  0  0  0  0  0  0
    7.9623  -18.8321   25.3334 C   0  0  0  0  0  0  0  0  0  0  0  0
    8.9084  -19.6138   24.9794 O   0  0  0  0  0  0  0  0  0  0  0  0
    6.8912  -18.7458   24.3898 N   0  0  0  0  0  0  0  0  0  0  0  0
    7.1210  -18.5943   22.9671 C   0  0  1  0  0  0  0  0  0  0  0  0
    5.7684  -18.8339   22.2967 C   0  0  0  0  0  0  0  0  0  0  0  0
    5.1182  -20.0611   22.7698 C   0  0  0  0  0  0  0  0  0  0  0  0
    3.8557  -19.9961   22.9243 O   0  0  0  0  0  0  0  0  0  0  0  0
    7.6634  -17.2947   22.5948 C   0  0  0  0  0  0  0  0  0  0  0  0
    6.9448  -16.4203   22.0830 O   0  0  0  0  0  0  0  0  0  0  0  0
    5.7104  -21.2580   23.0622 O   0  0  0  0  0  0  0  0  0  0  0  0
    9.0324  -17.0258   22.8206 N   0  0  0  0  0  0  0  0  0  0  0  0
    9.7687  -15.9662   22.2130 C   0  0  1  0  0  0  0  0  0  0  0  0
    9.1985  -14.6159   22.5785 C   0  0  0  0  0  0  0  0  0  0  0  0
    8.7968  -14.4655   23.9790 C   0  0  0  0  0  0  0  0  0  0  0  0
    9.2114  -15.2915   25.0214 C   0  0  0  0  0  0  0  0  0  0  0  0
    8.6386  -14.8826   26.1749 N   0  0  0  0  0  0  0  0  0  0  0  0
    7.8616  -13.8164   25.9305 C   0  0  0  0  0  0  0  0  0  0  0  0
    7.0765  -13.0299   26.7581 C   0  0  0  0  0  0  0  0  0  0  0  0
    6.3624  -11.9599   26.2665 C   0  0  0  0  0  0  0  0  0  0  0  0
    6.4594  -11.6991   24.9073 C   0  0  0  0  0  0  0  0  0  0  0  0
    7.2361  -12.4747   24.0772 C   0  0  0  0  0  0  0  0  0  0  0  0
    7.9566  -13.5545   24.5718 C   0  0  0  0  0  0  0  0  0  0  0  0
   11.1681  -16.0122   22.6905 C   0  0  0  0  0  0  0  0  0  0  0  0
   12.1844  -15.2750   22.0538 O   0  0  0  0  0  0  0  0  0  0  0  0
   11.4713  -16.7214   23.6866 O   0  0  0  0  0  0  0  0  0  0  0  0
  2  1  1  1
  3  2  1  0
  4  3  1  0
  5  4  2  0
  6  5  1  0
  7  8  1  0
  7  6  2  0
  8  9  2  0
  9  4  1  0
 10 12  1  0
 10  2  1  0
 11 10  2  0
 13 12  1  0
 13 14  1  6
 14 15  1  0
 15 19  1  0
 16 15  2  0
 17 13  1  0
 18 17  2  0
 20 17  1  0
 21 32  1  0
 21 20  1  0
 21 22  1  1
 23 31  1  0
 23 22  1  0
 24 23  2  0
 25 24  1  0
 25 26  1  0
 26 27  1  0
 26 31  2  0
 27 28  2  0
 28 29  1  0
 30 29  2  0
 31 30  1  0
 32 33  1  0
 34 32  2  0
M  END
$$$$
