FDW.pdb
     RDKit          3D

 34 36  0  0  1  0  0  0  0  0999 V2000
    5.7514  -17.9252   21.3298 N   0  0  0  0  0  0  0  0  0  0  0  0
    6.7948  -16.9250   21.1235 C   0  0  1  0  0  0  0  0  0  0  0  0
    6.2203  -15.6081   21.5229 C   0  0  0  0  0  0  0  0  0  0  0  0
    6.9500  -14.4270   21.0870 C   0  0  0  0  0  0  0  0  0  0  0  0
    7.2101  -13.4113   21.9710 C   0  0  0  0  0  0  0  0  0  0  0  0
    7.9017  -12.2610   21.6265 C   0  0  0  0  0  0  0  0  0  0  0  0
    8.3327  -12.1741   20.3166 C   0  0  0  0  0  0  0  0  0  0  0  0
    8.0807  -13.1845   19.4139 C   0  0  0  0  0  0  0  0  0  0  0  0
    7.3922  -14.3078   19.7950 C   0  0  0  0  0  0  0  0  0  0  0  0
    7.9990  -17.3436   21.8303 C   0  0  0  0  0  0  0  0  0  0  0  0
    7.9300  -17.8871   22.9841 O   0  0  0  0  0  0  0  0  0  0  0  0
    9.3313  -17.1987   21.3310 N   0  0  0  0  0  0  0  0  0  0  0  0
   10.4988  -17.4570   22.1495 C   0  0  1  0  0  0  0  0  0  0  0  0
   11.7024  -17.3180   21.2176 C   0  0  0  0  0  0  0  0  0  0  0  0
   11.7139  -18.3363   20.1615 C   0  0  0  0  0  0  0  0  0  0  0  0
   12.3619  -18.0352   19.1073 O   0  0  0  0  0  0  0  0  0  0  0  0
   10.6219  -16.5659   23.2951 C   0  0  0  0  0  0  0  0  0  0  0  0
   10.9723  -15.3824   23.1549 O   0  0  0  0  0  0  0  0  0  0  0  0
   11.1110  -19.5630   20.1806 O   0  0  0  0  0  0  0  0  0  0  0  0
   10.3373  -17.0586   24.5888 N   0  0  0  0  0  0  0  0  0  0  0  0
   10.8139  -16.4861   25.8050 C   0  0  1  0  0  0  0  0  0  0  0  0
   10.2409  -15.1064   26.0287 C   0  0  0  0  0  0  0  0  0  0  0  0
    8.7783  -15.0336   26.0538 C   0  0  0  0  0  0  0  0  0  0  0  0
    7.9235  -16.1323   26.0022 C   0  0  0  0  0  0  0  0  0  0  0  0
    6.6412  -15.7066   26.0254 N   0  0  0  0  0  0  0  0  0  0  0  0
    6.6200  -14.3666   26.0909 C   0  0  0  0  0  0  0  0  0  0  0  0
    5.5774  -13.4556   26.1453 C   0  0  0  0  0  0  0  0  0  0  0  0
    5.8107  -12.1005   26.2200 C   0  0  0  0  0  0  0  0  0  0  0  0
    7.1331  -11.6813   26.2385 C   0  0  0  0  0  0  0  0  0  0  0  0
    8.1754  -12.5783   26.1845 C   0  0  0  0  0  0  0  0  0  0  0  0
    7.9413  -13.9455   26.1088 C   0  0  0  0  0  0  0  0  0  0  0  0
   10.3968  -17.3399   26.9389 C   0  0  0  0  0  0  0  0  0  0  0  0
    9.5832  -18.4720   26.7433 O   0  0  0  0  0  0  0  0  0  0  0  0
   10.7698  -17.0603   28.1092 O   0  0  0  0  0  0  0  0  0  0  0  0
  2  1  1  1
  3  2  1  0
  4  3  1  0
  5  4  2  0
  6  5  1  0
  7  8  1  0
  7  6  2  0
  8  9  2  0
  9  4  1  0
 10 12  1  0
 10  2  1  0
 11 10  2  0
 13 12  1  0
 13 14  1  6
 14 15  1  0
 15 19  1  0
 16 15  2  0
 17 13  1  0
 18 17  2  0
 20 17  1  0
 21 32  1  0
 21 20  1  0
 21 22  1  1
 23 31  1  0
 23 22  1  0
 24 23  2  0
 25 24  1  0
 25 26  1  0
 26 27  1  0
 26 31  2  0
 27 28  2  0
 28 29  1  0
 30 29  2  0
 31 30  1  0
 32 33  1  0
 34 32  2  0
M  END
$$$$
