FDW.pdb
     RDKit          3D

 34 36  0  0  1  0  0  0  0  0999 V2000
    6.4557  -18.4310   21.5944 N   0  0  0  0  0  0  0  0  0  0  0  0
    7.2169  -17.1893   21.4929 C   0  0  1  0  0  0  0  0  0  0  0  0
    6.2831  -16.0774   21.8326 C   0  0  0  0  0  0  0  0  0  0  0  0
    6.7893  -14.7272   21.6368 C   0  0  0  0  0  0  0  0  0  0  0  0
    7.2281  -13.9927   22.7085 C   0  0  0  0  0  0  0  0  0  0  0  0
    7.7254  -12.7042   22.5956 C   0  0  0  0  0  0  0  0  0  0  0  0
    7.7632  -12.1712   21.3214 C   0  0  0  0  0  0  0  0  0  0  0  0
    7.3265  -12.8941   20.2324 C   0  0  0  0  0  0  0  0  0  0  0  0
    6.8409  -14.1675   20.3866 C   0  0  0  0  0  0  0  0  0  0  0  0
    8.4147  -17.2991   22.3163 C   0  0  0  0  0  0  0  0  0  0  0  0
    8.5084  -18.1897   23.2271 O   0  0  0  0  0  0  0  0  0  0  0  0
    9.5662  -16.4590   22.1995 N   0  0  0  0  0  0  0  0  0  0  0  0
   10.8990  -16.9187   22.5342 C   0  0  1  0  0  0  0  0  0  0  0  0
   11.8259  -16.3216   21.4756 C   0  0  0  0  0  0  0  0  0  0  0  0
   13.2249  -16.7201   21.6666 C   0  0  0  0  0  0  0  0  0  0  0  0
   13.4425  -17.9738   21.7197 O   0  0  0  0  0  0  0  0  0  0  0  0
   11.3302  -16.5446   23.8742 C   0  0  0  0  0  0  0  0  0  0  0  0
   12.4330  -16.9038   24.3190 O   0  0  0  0  0  0  0  0  0  0  0  0
   14.3137  -15.9034   21.7940 O   0  0  0  0  0  0  0  0  0  0  0  0
   10.4769  -15.7588   24.6816 N   0  0  0  0  0  0  0  0  0  0  0  0
   10.3630  -15.8680   26.0991 C   0  0  1  0  0  0  0  0  0  0  0  0
    9.0054  -16.3906   26.5062 C   0  0  0  0  0  0  0  0  0  0  0  0
    7.8836  -15.4855   26.2460 C   0  0  0  0  0  0  0  0  0  0  0  0
    6.6310  -15.8801   25.7814 C   0  0  0  0  0  0  0  0  0  0  0  0
    5.8426  -14.7927   25.6335 N   0  0  0  0  0  0  0  0  0  0  0  0
    6.5304  -13.6954   25.9844 C   0  0  0  0  0  0  0  0  0  0  0  0
    6.1840  -12.3543   26.0215 C   0  0  0  0  0  0  0  0  0  0  0  0
    7.0781  -11.3927   26.4366 C   0  0  0  0  0  0  0  0  0  0  0  0
    8.3422  -11.8192   26.8171 C   0  0  0  0  0  0  0  0  0  0  0  0
    8.6958  -13.1488   26.7834 C   0  0  0  0  0  0  0  0  0  0  0  0
    7.7949  -14.1197   26.3645 C   0  0  0  0  0  0  0  0  0  0  0  0
   11.3825  -16.8181   26.5956 C   0  0  0  0  0  0  0  0  0  0  0  0
   11.5596  -17.0495   27.9728 O   0  0  0  0  0  0  0  0  0  0  0  0
   12.1145  -17.4403   25.7806 O   0  0  0  0  0  0  0  0  0  0  0  0
  2  1  1  1
  3  2  1  0
  4  3  1  0
  5  4  2  0
  6  5  1  0
  7  8  1  0
  7  6  2  0
  8  9  2  0
  9  4  1  0
 10 12  1  0
 10  2  1  0
 11 10  2  0
 13 12  1  0
 13 14  1  6
 14 15  1  0
 15 19  1  0
 16 15  2  0
 17 13  1  0
 18 17  2  0
 20 17  1  0
 21 32  1  0
 21 20  1  0
 21 22  1  6
 23 31  1  0
 23 22  1  0
 24 23  2  0
 25 24  1  0
 25 26  1  0
 26 27  1  0
 26 31  2  0
 27 28  2  0
 28 29  1  0
 30 29  2  0
 31 30  1  0
 32 33  1  0
 34 32  2  0
M  END
$$$$
