FDW.pdb
     RDKit          3D

 34 36  0  0  1  0  0  0  0  0999 V2000
    6.0848  -18.1598   21.1810 N   0  0  0  0  0  0  0  0  0  0  0  0
    6.9832  -17.0098   21.1397 C   0  0  1  0  0  0  0  0  0  0  0  0
    6.2110  -15.8360   21.6394 C   0  0  0  0  0  0  0  0  0  0  0  0
    6.8482  -14.5357   21.4953 C   0  0  0  0  0  0  0  0  0  0  0  0
    7.0046  -13.9779   20.2524 C   0  0  0  0  0  0  0  0  0  0  0  0
    7.5980  -12.7435   20.0414 C   0  0  0  0  0  0  0  0  0  0  0  0
    8.0400  -12.0755   21.1672 C   0  0  0  0  0  0  0  0  0  0  0  0
    7.8917  -12.6201   22.4244 C   0  0  0  0  0  0  0  0  0  0  0  0
    7.2984  -13.8454   22.5907 C   0  0  0  0  0  0  0  0  0  0  0  0
    8.2036  -17.3353   21.8676 C   0  0  0  0  0  0  0  0  0  0  0  0
    8.1714  -18.0704   22.9117 O   0  0  0  0  0  0  0  0  0  0  0  0
    9.5134  -16.8876   21.5080 N   0  0  0  0  0  0  0  0  0  0  0  0
   10.6875  -17.2157   22.2911 C   0  0  1  0  0  0  0  0  0  0  0  0
   11.8842  -16.9832   21.3690 C   0  0  0  0  0  0  0  0  0  0  0  0
   13.1492  -17.4169   21.9724 C   0  0  0  0  0  0  0  0  0  0  0  0
   13.0514  -18.2654   22.9170 O   0  0  0  0  0  0  0  0  0  0  0  0
   10.8142  -16.4358   23.5148 C   0  0  0  0  0  0  0  0  0  0  0  0
   11.3976  -15.3392   23.5213 O   0  0  0  0  0  0  0  0  0  0  0  0
   14.4124  -17.0151   21.6381 O   0  0  0  0  0  0  0  0  0  0  0  0
   10.2629  -16.9377   24.7154 N   0  0  0  0  0  0  0  0  0  0  0  0
   10.6732  -16.5546   26.0266 C   0  0  1  0  0  0  0  0  0  0  0  0
   10.0998  -15.2122   26.4153 C   0  0  0  0  0  0  0  0  0  0  0  0
    8.6496  -15.0822   26.2560 C   0  0  0  0  0  0  0  0  0  0  0  0
    7.7687  -16.1451   26.0702 C   0  0  0  0  0  0  0  0  0  0  0  0
    6.5105  -15.6697   25.9404 N   0  0  0  0  0  0  0  0  0  0  0  0
    6.5303  -14.3314   26.0345 C   0  0  0  0  0  0  0  0  0  0  0  0
    5.5234  -13.3812   25.9776 C   0  0  0  0  0  0  0  0  0  0  0  0
    5.7950  -12.0380   26.1135 C   0  0  0  0  0  0  0  0  0  0  0  0
    7.1186  -11.6717   26.3098 C   0  0  0  0  0  0  0  0  0  0  0  0
    8.1256  -12.6079   26.3673 C   0  0  0  0  0  0  0  0  0  0  0  0
    7.8531  -13.9632   26.2301 C   0  0  0  0  0  0  0  0  0  0  0  0
   10.1841  -17.5558   26.9996 C   0  0  0  0  0  0  0  0  0  0  0  0
   10.5533  -17.5000   28.3569 O   0  0  0  0  0  0  0  0  0  0  0  0
    9.4208  -18.4834   26.6200 O   0  0  0  0  0  0  0  0  0  0  0  0
  2  1  1  1
  3  2  1  0
  4  3  1  0
  5  4  2  0
  6  5  1  0
  7  8  1  0
  7  6  2  0
  8  9  2  0
  9  4  1  0
 10 12  1  0
 10  2  1  0
 11 10  2  0
 13 12  1  0
 13 14  1  6
 14 15  1  0
 15 19  1  0
 16 15  2  0
 17 13  1  0
 18 17  2  0
 20 17  1  0
 21 32  1  0
 21 20  1  0
 21 22  1  1
 23 31  1  0
 23 22  1  0
 24 23  2  0
 25 24  1  0
 25 26  1  0
 26 27  1  0
 26 31  2  0
 27 28  2  0
 28 29  1  0
 30 29  2  0
 31 30  1  0
 32 33  1  0
 34 32  2  0
M  END
$$$$
