FDW.pdb
     RDKit          3D

 34 36  0  0  1  0  0  0  0  0999 V2000
    5.7364  -18.2841   21.5215 N   0  0  0  0  0  0  0  0  0  0  0  0
    6.7629  -17.2471   21.5717 C   0  0  1  0  0  0  0  0  0  0  0  0
    6.1204  -16.0257   22.1365 C   0  0  0  0  0  0  0  0  0  0  0  0
    6.8545  -14.7791   21.9792 C   0  0  0  0  0  0  0  0  0  0  0  0
    7.1206  -14.2885   20.7265 C   0  0  0  0  0  0  0  0  0  0  0  0
    7.8102  -13.1076   20.5024 C   0  0  0  0  0  0  0  0  0  0  0  0
    8.2326  -12.4219   21.6252 C   0  0  0  0  0  0  0  0  0  0  0  0
    7.9746  -12.8993   22.8919 C   0  0  0  0  0  0  0  0  0  0  0  0
    7.2883  -14.0731   23.0712 C   0  0  0  0  0  0  0  0  0  0  0  0
    7.9197  -17.7599   22.2954 C   0  0  0  0  0  0  0  0  0  0  0  0
    7.7819  -18.3737   23.4071 O   0  0  0  0  0  0  0  0  0  0  0  0
    9.2762  -17.6382   21.8591 N   0  0  0  0  0  0  0  0  0  0  0  0
   10.3968  -18.0234   22.6930 C   0  0  1  0  0  0  0  0  0  0  0  0
   11.5549  -18.3024   21.7352 C   0  0  0  0  0  0  0  0  0  0  0  0
   12.1607  -17.0717   21.2149 C   0  0  0  0  0  0  0  0  0  0  0  0
   12.5224  -16.2187   22.0887 O   0  0  0  0  0  0  0  0  0  0  0  0
   10.7680  -17.0181   23.6795 C   0  0  0  0  0  0  0  0  0  0  0  0
   11.3054  -15.9510   23.3397 O   0  0  0  0  0  0  0  0  0  0  0  0
   12.3785  -16.7389   19.9070 O   0  0  0  0  0  0  0  0  0  0  0  0
   10.5114  -17.2631   25.0475 N   0  0  0  0  0  0  0  0  0  0  0  0
   10.8263  -16.3674   26.1118 C   0  0  1  0  0  0  0  0  0  0  0  0
   10.3755  -14.9594   25.8014 C   0  0  0  0  0  0  0  0  0  0  0  0
    8.9276  -14.7814   25.6699 C   0  0  0  0  0  0  0  0  0  0  0  0
    8.0180  -15.8042   25.4113 C   0  0  0  0  0  0  0  0  0  0  0  0
    6.7712  -15.2890   25.3340 N   0  0  0  0  0  0  0  0  0  0  0  0
    6.8262  -13.9633   25.5329 C   0  0  0  0  0  0  0  0  0  0  0  0
    5.8435  -12.9869   25.5627 C   0  0  0  0  0  0  0  0  0  0  0  0
    6.1506  -11.6657   25.8007 C   0  0  0  0  0  0  0  0  0  0  0  0
    7.4850  -11.3490   26.0098 C   0  0  0  0  0  0  0  0  0  0  0  0
    8.4682  -12.3114   25.9816 C   0  0  0  0  0  0  0  0  0  0  0  0
    8.1598  -13.6445   25.7414 C   0  0  0  0  0  0  0  0  0  0  0  0
   10.1269  -16.8076   27.3388 C   0  0  0  0  0  0  0  0  0  0  0  0
   10.2294  -18.1317   27.8059 O   0  0  0  0  0  0  0  0  0  0  0  0
    9.4215  -15.9915   27.9896 O   0  0  0  0  0  0  0  0  0  0  0  0
  2  1  1  1
  3  2  1  0
  4  3  1  0
  5  4  2  0
  6  5  1  0
  7  8  1  0
  7  6  2  0
  8  9  2  0
  9  4  1  0
 10 12  1  0
 10  2  1  0
 11 10  2  0
 13 12  1  0
 13 14  1  6
 14 15  1  0
 15 19  1  0
 16 15  2  0
 17 13  1  0
 18 17  2  0
 20 17  1  0
 21 32  1  0
 21 20  1  0
 21 22  1  6
 23 31  1  0
 23 22  1  0
 24 23  2  0
 25 24  1  0
 25 26  1  0
 26 27  1  0
 26 31  2  0
 27 28  2  0
 28 29  1  0
 30 29  2  0
 31 30  1  0
 32 33  1  0
 34 32  2  0
M  END
$$$$
