FDW.pdb
     RDKit          3D

 34 36  0  0  1  0  0  0  0  0999 V2000
    9.4001  -15.6406   24.6507 N   0  0  0  0  0  0  0  0  0  0  0  0
    8.3637  -16.5838   24.2413 C   0  0  1  0  0  0  0  0  0  0  0  0
    7.1041  -15.8024   24.0779 C   0  0  0  0  0  0  0  0  0  0  0  0
    7.0002  -14.5761   24.8544 C   0  0  0  0  0  0  0  0  0  0  0  0
    7.6443  -13.4392   24.4382 C   0  0  0  0  0  0  0  0  0  0  0  0
    7.5864  -12.2370   25.1250 C   0  0  0  0  0  0  0  0  0  0  0  0
    6.8309  -12.2278   26.2818 C   0  0  0  0  0  0  0  0  0  0  0  0
    6.1766  -13.3603   26.7159 C   0  0  0  0  0  0  0  0  0  0  0  0
    6.2592  -14.5314   26.0068 C   0  0  0  0  0  0  0  0  0  0  0  0
    8.8250  -17.3151   23.0677 C   0  0  0  0  0  0  0  0  0  0  0  0
    8.1568  -18.2977   22.5993 O   0  0  0  0  0  0  0  0  0  0  0  0
   10.0235  -17.0248   22.3432 N   0  0  0  0  0  0  0  0  0  0  0  0
   11.0239  -18.0348   22.0622 C   0  0  1  0  0  0  0  0  0  0  0  0
   11.6978  -17.6052   20.7593 C   0  0  0  0  0  0  0  0  0  0  0  0
   12.6115  -16.4729   20.9477 C   0  0  0  0  0  0  0  0  0  0  0  0
   13.3712  -16.5366   21.9679 O   0  0  0  0  0  0  0  0  0  0  0  0
   12.0053  -18.2013   23.1255 C   0  0  0  0  0  0  0  0  0  0  0  0
   13.0167  -18.9039   22.9632 O   0  0  0  0  0  0  0  0  0  0  0  0
   12.7379  -15.3643   20.1580 O   0  0  0  0  0  0  0  0  0  0  0  0
   11.8013  -17.5511   24.3636 N   0  0  0  0  0  0  0  0  0  0  0  0
   12.6342  -17.6988   25.5119 C   0  0  1  0  0  0  0  0  0  0  0  0
   12.8651  -16.3749   26.2017 C   0  0  0  0  0  0  0  0  0  0  0  0
   11.8444  -15.9938   27.1807 C   0  0  0  0  0  0  0  0  0  0  0  0
   11.5142  -16.7292   28.3168 C   0  0  0  0  0  0  0  0  0  0  0  0
   10.5219  -16.1022   28.9862 N   0  0  0  0  0  0  0  0  0  0  0  0
   10.1864  -14.9797   28.3324 C   0  0  0  0  0  0  0  0  0  0  0  0
    9.2495  -13.9942   28.5991 C   0  0  0  0  0  0  0  0  0  0  0  0
    9.0930  -12.9080   27.7671 C   0  0  0  0  0  0  0  0  0  0  0  0
    9.9113  -12.8381   26.6490 C   0  0  0  0  0  0  0  0  0  0  0  0
   10.8443  -13.8120   26.3754 C   0  0  0  0  0  0  0  0  0  0  0  0
   11.0029  -14.9084   27.2137 C   0  0  0  0  0  0  0  0  0  0  0  0
   11.9730  -18.6041   26.4772 C   0  0  0  0  0  0  0  0  0  0  0  0
   10.6372  -19.0126   26.3023 O   0  0  0  0  0  0  0  0  0  0  0  0
   12.6061  -19.0264   27.4812 O   0  0  0  0  0  0  0  0  0  0  0  0
  2  1  1  6
  3  2  1  0
  4  3  1  0
  5  4  2  0
  6  5  1  0
  7  8  1  0
  7  6  2  0
  8  9  2  0
  9  4  1  0
 10 12  1  0
 10  2  1  0
 11 10  2  0
 13 12  1  0
 13 14  1  6
 14 15  1  0
 15 19  1  0
 16 15  2  0
 17 13  1  0
 18 17  2  0
 20 17  1  0
 21 32  1  0
 21 20  1  0
 21 22  1  1
 23 31  1  0
 23 22  1  0
 24 23  2  0
 25 24  1  0
 25 26  1  0
 26 27  1  0
 26 31  2  0
 27 28  2  0
 28 29  1  0
 30 29  2  0
 31 30  1  0
 32 33  1  0
 34 32  2  0
M  END
$$$$
