SEE.pdb
     RDKit          3D

 25 24  0  0  1  0  0  0  0  0999 V2000
   23.9644  -10.4802  -19.7804 O   0  0  0  0  0  0  0  0  0  0  0  0
   23.4308  -11.3939  -20.6954 C   0  0  0  0  0  0  0  0  0  0  0  0
   22.5081  -12.3740  -20.0020 C   0  0  2  0  0  0  0  0  0  0  0  0
   21.9179  -13.2034  -21.0197 N   0  0  0  0  0  0  0  0  0  0  0  0
   21.4523  -11.5885  -19.3144 C   0  0  0  0  0  0  0  0  0  0  0  0
   20.7686  -10.7985  -20.0094 O   0  0  0  0  0  0  0  0  0  0  0  0
   21.1956  -11.6993  -17.9241 N   0  0  0  0  0  0  0  0  0  0  0  0
   20.2328  -10.8088  -17.2763 C   0  0  1  0  0  0  0  0  0  0  0  0
   19.3188  -11.6061  -16.4122 C   0  0  0  0  0  0  0  0  0  0  0  0
   18.3195  -10.8588  -15.6126 C   0  0  0  0  0  0  0  0  0  0  0  0
   17.5471  -11.7476  -14.6868 C   0  0  0  0  0  0  0  0  0  0  0  0
   17.7095  -12.9733  -14.6309 O   0  0  0  0  0  0  0  0  0  0  0  0
   20.9712   -9.8341  -16.4061 C   0  0  0  0  0  0  0  0  0  0  0  0
   21.9676  -10.2328  -15.7898 O   0  0  0  0  0  0  0  0  0  0  0  0
   16.5825  -11.1884  -13.8267 O   0  0  0  0  0  0  0  0  0  0  0  0
   20.5718   -8.4894  -16.2677 N   0  0  0  0  0  0  0  0  0  0  0  0
   21.1781   -7.5333  -15.3423 C   0  0  1  0  0  0  0  0  0  0  0  0
   21.1479   -6.1614  -15.9011 C   0  0  0  0  0  0  0  0  0  0  0  0
   21.6881   -5.0572  -15.0667 C   0  0  0  0  0  0  0  0  0  0  0  0
   21.6315   -3.7107  -15.6512 C   0  0  0  0  0  0  0  0  0  0  0  0
   21.2354   -3.4527  -16.8407 O   0  0  0  0  0  0  0  0  0  0  0  0
   20.7700   -7.7911  -13.9902 C   0  0  0  0  0  0  0  0  0  0  0  0
   19.6184   -8.2038  -13.6371 O   0  0  0  0  0  0  0  0  0  0  0  0
   22.0206   -2.6135  -14.9095 O   0  0  0  0  0  0  0  0  0  0  0  0
   21.6604   -7.6052  -12.9188 O   0  0  0  0  0  0  0  0  0  0  0  0
  1  2  1  0
  2  3  1  0
  3  4  1  6
  5  7  1  0
  5  3  1  0
  6  5  2  0
  8  7  1  0
  8  9  1  1
  9 10  1  0
 10 11  1  0
 11 15  1  0
 12 11  2  0
 13  8  1  0
 14 13  2  0
 16 13  1  0
 17 22  1  0
 17 16  1  0
 18 19  1  0
 17 18  1  6
 19 20  1  0
 20 21  2  0
 22 25  1  0
 23 22  2  0
 24 20  1  0
M  END
$$$$
