SEE.pdb
     RDKit          3D

 25 24  0  0  1  0  0  0  0  0999 V2000
   20.9339   -7.8224  -15.8322 O   0  0  0  0  0  0  0  0  0  0  0  0
   19.6629   -7.7264  -15.2558 C   0  0  0  0  0  0  0  0  0  0  0  0
   18.7234   -8.7550  -15.8489 C   0  0  2  0  0  0  0  0  0  0  0  0
   18.3609   -8.2988  -17.1650 N   0  0  0  0  0  0  0  0  0  0  0  0
   17.5179   -8.8146  -14.9842 C   0  0  0  0  0  0  0  0  0  0  0  0
   16.6541   -7.9155  -15.1269 O   0  0  0  0  0  0  0  0  0  0  0  0
   17.3139   -9.8347  -14.0205 N   0  0  0  0  0  0  0  0  0  0  0  0
   16.1450   -9.7992  -13.1418 C   0  0  1  0  0  0  0  0  0  0  0  0
   15.8041  -11.1827  -12.7088 C   0  0  0  0  0  0  0  0  0  0  0  0
   15.2228  -12.0876  -13.7284 C   0  0  0  0  0  0  0  0  0  0  0  0
   14.9277  -13.4507  -13.1820 C   0  0  0  0  0  0  0  0  0  0  0  0
   13.8213  -13.7761  -12.7326 O   0  0  0  0  0  0  0  0  0  0  0  0
   16.4714   -8.9911  -11.9199 C   0  0  0  0  0  0  0  0  0  0  0  0
   17.5899   -9.1247  -11.4074 O   0  0  0  0  0  0  0  0  0  0  0  0
   15.9397  -14.4297  -13.1664 O   0  0  0  0  0  0  0  0  0  0  0  0
   15.5544   -8.0913  -11.3401 N   0  0  0  0  0  0  0  0  0  0  0  0
   15.7936   -7.3383  -10.1098 C   0  0  1  0  0  0  0  0  0  0  0  0
   15.2381   -5.9683  -10.2094 C   0  0  0  0  0  0  0  0  0  0  0  0
   15.3426   -5.0859   -9.0187 C   0  0  0  0  0  0  0  0  0  0  0  0
   14.7641   -3.7420   -9.1505 C   0  0  0  0  0  0  0  0  0  0  0  0
   14.7112   -2.8795   -8.2063 O   0  0  0  0  0  0  0  0  0  0  0  0
   15.5557   -8.1511   -8.9505 C   0  0  0  0  0  0  0  0  0  0  0  0
   15.9580   -7.8847   -7.7722 O   0  0  0  0  0  0  0  0  0  0  0  0
   14.2273   -3.3308  -10.3540 O   0  0  0  0  0  0  0  0  0  0  0  0
   14.8203   -9.3451   -9.0438 O   0  0  0  0  0  0  0  0  0  0  0  0
  1  2  1  0
  2  3  1  0
  3  4  1  6
  5  7  1  0
  5  3  1  0
  6  5  2  0
  8  7  1  0
  8  9  1  1
  9 10  1  0
 10 11  1  0
 11 15  1  0
 12 11  2  0
 13  8  1  0
 14 13  2  0
 16 13  1  0
 17 22  1  0
 17 16  1  0
 18 19  1  0
 17 18  1  1
 19 20  1  0
 20 21  2  0
 22 25  1  0
 23 22  2  0
 24 20  1  0
M  END
$$$$
