SEE.pdb
     RDKit          3D

 25 24  0  0  1  0  0  0  0  0999 V2000
   13.7059   -6.6397   -8.0154 O   0  0  0  0  0  0  0  0  0  0  0  0
   14.8376   -7.2807   -8.5303 C   0  0  0  0  0  0  0  0  0  0  0  0
   14.4429   -8.3721   -9.5026 C   0  0  2  0  0  0  0  0  0  0  0  0
   14.0385   -9.5147   -8.7263 N   0  0  0  0  0  0  0  0  0  0  0  0
   15.6415   -8.7088  -10.3117 C   0  0  0  0  0  0  0  0  0  0  0  0
   16.5522   -9.3696   -9.7560 O   0  0  0  0  0  0  0  0  0  0  0  0
   15.7886   -8.3159  -11.6663 N   0  0  0  0  0  0  0  0  0  0  0  0
   16.9833   -8.6941  -12.4208 C   0  0  1  0  0  0  0  0  0  0  0  0
   16.5969   -9.0817  -13.8058 C   0  0  0  0  0  0  0  0  0  0  0  0
   17.6915   -9.4326  -14.7412 C   0  0  0  0  0  0  0  0  0  0  0  0
   17.1859   -9.7907  -16.1049 C   0  0  0  0  0  0  0  0  0  0  0  0
   15.9879   -9.7577  -16.4143 O   0  0  0  0  0  0  0  0  0  0  0  0
   17.9080   -7.5148  -12.5032 C   0  0  0  0  0  0  0  0  0  0  0  0
   17.4238   -6.4036  -12.7526 O   0  0  0  0  0  0  0  0  0  0  0  0
   18.0957  -10.1879  -17.1036 O   0  0  0  0  0  0  0  0  0  0  0  0
   19.2992   -7.6286  -12.3076 N   0  0  0  0  0  0  0  0  0  0  0  0
   20.2379   -6.5080  -12.3435 C   0  0  1  0  0  0  0  0  0  0  0  0
   20.9172   -6.3425  -11.0372 C   0  0  0  0  0  0  0  0  0  0  0  0
   20.2977   -5.4315  -10.0403 C   0  0  0  0  0  0  0  0  0  0  0  0
   20.9626   -5.3469   -8.7331 C   0  0  0  0  0  0  0  0  0  0  0  0
   21.9805   -6.0433   -8.3908 O   0  0  0  0  0  0  0  0  0  0  0  0
   20.9815   -6.4945  -13.5716 C   0  0  0  0  0  0  0  0  0  0  0  0
   21.7920   -5.5798  -13.9289 O   0  0  0  0  0  0  0  0  0  0  0  0
   20.4976   -4.4722   -7.7716 O   0  0  0  0  0  0  0  0  0  0  0  0
   20.8648   -7.5445  -14.4984 O   0  0  0  0  0  0  0  0  0  0  0  0
  1  2  1  0
  2  3  1  0
  3  4  1  1
  5  7  1  0
  5  3  1  0
  6  5  2  0
  8  7  1  0
  8  9  1  6
  9 10  1  0
 10 11  1  0
 11 15  1  0
 12 11  2  0
 13  8  1  0
 14 13  2  0
 16 13  1  0
 17 22  1  0
 17 16  1  0
 18 19  1  0
 17 18  1  1
 19 20  1  0
 20 21  2  0
 22 25  1  0
 23 22  2  0
 24 20  1  0
M  END
$$$$
