SEE.pdb
     RDKit          3D

 25 24  0  0  1  0  0  0  0  0999 V2000
   27.6874  -18.7248  -16.7483 O   0  0  0  0  0  0  0  0  0  0  0  0
   26.4065  -19.2342  -16.5106 C   0  0  0  0  0  0  0  0  0  0  0  0
   26.4606  -20.3990  -15.5447 C   0  0  2  0  0  0  0  0  0  0  0  0
   26.9991  -21.5263  -16.2595 N   0  0  0  0  0  0  0  0  0  0  0  0
   25.0701  -20.6907  -15.1136 C   0  0  0  0  0  0  0  0  0  0  0  0
   24.4231  -21.5417  -15.7710 O   0  0  0  0  0  0  0  0  0  0  0  0
   24.4600  -20.0518  -14.0042 N   0  0  0  0  0  0  0  0  0  0  0  0
   23.0721  -20.3488  -13.6506 C   0  0  1  0  0  0  0  0  0  0  0  0
   22.9107  -20.2905  -12.1713 C   0  0  0  0  0  0  0  0  0  0  0  0
   21.5640  -20.5809  -11.6250 C   0  0  0  0  0  0  0  0  0  0  0  0
   21.5363  -20.5555  -10.1276 C   0  0  0  0  0  0  0  0  0  0  0  0
   20.5082  -20.7454   -9.4651 O   0  0  0  0  0  0  0  0  0  0  0  0
   22.1751  -19.3129  -14.2627 C   0  0  0  0  0  0  0  0  0  0  0  0
   22.4668  -18.1195  -14.1135 O   0  0  0  0  0  0  0  0  0  0  0  0
   22.7234  -20.3057   -9.4125 O   0  0  0  0  0  0  0  0  0  0  0  0
   21.0199  -19.6500  -14.9966 N   0  0  0  0  0  0  0  0  0  0  0  0
   20.1296  -18.6822  -15.6361 C   0  0  1  0  0  0  0  0  0  0  0  0
   19.7654  -19.1192  -17.0042 C   0  0  0  0  0  0  0  0  0  0  0  0
   18.8485  -18.2544  -17.7908 C   0  0  0  0  0  0  0  0  0  0  0  0
   18.4497  -18.7588  -19.1116 C   0  0  0  0  0  0  0  0  0  0  0  0
   18.8210  -19.8814  -19.6015 O   0  0  0  0  0  0  0  0  0  0  0  0
   19.1305  -18.2124  -14.7183 C   0  0  0  0  0  0  0  0  0  0  0  0
   18.6547  -17.0317  -14.6925 O   0  0  0  0  0  0  0  0  0  0  0  0
   17.6184  -18.0099  -19.9202 O   0  0  0  0  0  0  0  0  0  0  0  0
   18.5798  -19.0686  -13.7494 O   0  0  0  0  0  0  0  0  0  0  0  0
  1  2  1  0
  2  3  1  0
  3  4  1  6
  5  7  1  0
  5  3  1  0
  6  5  2  0
  8  7  1  0
  8  9  1  1
  9 10  1  0
 10 11  1  0
 11 15  1  0
 12 11  2  0
 13  8  1  0
 14 13  2  0
 16 13  1  0
 17 22  1  0
 17 16  1  0
 18 19  1  0
 17 18  1  6
 19 20  1  0
 20 21  2  0
 22 25  1  0
 23 22  2  0
 24 20  1  0
M  END
$$$$
