SEE.pdb
     RDKit          3D

 25 24  0  0  1  0  0  0  0  0999 V2000
   17.9229   -9.3242  -17.6109 O   0  0  0  0  0  0  0  0  0  0  0  0
   18.4142  -10.5736  -18.0040 C   0  0  0  0  0  0  0  0  0  0  0  0
   18.6564  -11.4600  -16.8006 C   0  0  2  0  0  0  0  0  0  0  0  0
   17.4500  -11.4592  -16.0154 N   0  0  0  0  0  0  0  0  0  0  0  0
   19.7690  -10.8635  -16.0191 C   0  0  0  0  0  0  0  0  0  0  0  0
   19.5252  -10.5006  -14.8428 O   0  0  0  0  0  0  0  0  0  0  0  0
   21.0738  -10.6932  -16.5478 N   0  0  0  0  0  0  0  0  0  0  0  0
   22.1302  -10.0947  -15.7322 C   0  0  1  0  0  0  0  0  0  0  0  0
   23.4519  -10.6396  -16.1494 C   0  0  0  0  0  0  0  0  0  0  0  0
   24.6485  -10.1344  -15.4358 C   0  0  0  0  0  0  0  0  0  0  0  0
   25.9167  -10.7568  -15.9337 C   0  0  0  0  0  0  0  0  0  0  0  0
   25.9451  -11.6283  -16.8122 O   0  0  0  0  0  0  0  0  0  0  0  0
   22.1426   -8.6103  -15.9537 C   0  0  0  0  0  0  0  0  0  0  0  0
   22.2277   -8.1891  -17.1142 O   0  0  0  0  0  0  0  0  0  0  0  0
   27.1519  -10.3496  -15.3938 O   0  0  0  0  0  0  0  0  0  0  0  0
   22.0610   -7.6859  -14.8928 N   0  0  0  0  0  0  0  0  0  0  0  0
   21.9360   -6.2385  -15.0593 C   0  0  1  0  0  0  0  0  0  0  0  0
   20.7661   -5.9003  -15.9033 C   0  0  0  0  0  0  0  0  0  0  0  0
   20.4232   -4.4650  -16.0760 C   0  0  0  0  0  0  0  0  0  0  0  0
   19.2319   -4.1721  -16.8839 C   0  0  0  0  0  0  0  0  0  0  0  0
   18.9674   -4.7190  -18.0105 O   0  0  0  0  0  0  0  0  0  0  0  0
   22.1796   -5.5519  -13.8221 C   0  0  0  0  0  0  0  0  0  0  0  0
   22.3613   -4.2974  -13.7024 O   0  0  0  0  0  0  0  0  0  0  0  0
   18.3019   -3.2518  -16.4437 O   0  0  0  0  0  0  0  0  0  0  0  0
   22.2257   -6.2519  -12.6044 O   0  0  0  0  0  0  0  0  0  0  0  0
  1  2  1  0
  2  3  1  0
  3  4  1  1
  5  7  1  0
  5  3  1  0
  6  5  2  0
  8  7  1  0
  8  9  1  6
  9 10  1  0
 10 11  1  0
 11 15  1  0
 12 11  2  0
 13  8  1  0
 14 13  2  0
 16 13  1  0
 17 22  1  0
 17 16  1  0
 18 19  1  0
 17 18  1  1
 19 20  1  0
 20 21  2  0
 22 25  1  0
 23 22  2  0
 24 20  1  0
M  END
$$$$
