SEE.pdb
     RDKit          3D

 25 24  0  0  1  0  0  0  0  0999 V2000
   25.3512  -32.4448   -2.1450 O   0  0  0  0  0  0  0  0  0  0  0  0
   26.7101  -32.1486   -2.2953 C   0  0  0  0  0  0  0  0  0  0  0  0
   27.5542  -33.3951   -2.1332 C   0  0  2  0  0  0  0  0  0  0  0  0
   27.0085  -34.4011   -3.0061 N   0  0  0  0  0  0  0  0  0  0  0  0
   27.4394  -33.8354   -0.7199 C   0  0  0  0  0  0  0  0  0  0  0  0
   26.6359  -34.7645   -0.4629 O   0  0  0  0  0  0  0  0  0  0  0  0
   28.1935  -33.2519    0.3298 N   0  0  0  0  0  0  0  0  0  0  0  0
   28.0635  -33.7494    1.6992 C   0  0  1  0  0  0  0  0  0  0  0  0
   29.2382  -33.3113    2.5028 C   0  0  0  0  0  0  0  0  0  0  0  0
   29.2490  -33.6741    3.9397 C   0  0  0  0  0  0  0  0  0  0  0  0
   30.4662  -33.1653    4.6491 C   0  0  0  0  0  0  0  0  0  0  0  0
   31.3421  -32.4898    4.0936 O   0  0  0  0  0  0  0  0  0  0  0  0
   26.8265  -33.1681    2.3193 C   0  0  0  0  0  0  0  0  0  0  0  0
   26.4939  -32.0188    2.0030 O   0  0  0  0  0  0  0  0  0  0  0  0
   30.6490  -33.4545    6.0151 O   0  0  0  0  0  0  0  0  0  0  0  0
   26.0359  -33.8812    3.2430 N   0  0  0  0  0  0  0  0  0  0  0  0
   24.7607  -33.4113    3.7827 C   0  0  1  0  0  0  0  0  0  0  0  0
   23.7709  -34.5123    3.8409 C   0  0  0  0  0  0  0  0  0  0  0  0
   22.3832  -34.1804    4.2552 C   0  0  0  0  0  0  0  0  0  0  0  0
   21.4596  -35.3127    4.4063 C   0  0  0  0  0  0  0  0  0  0  0  0
   20.3491  -35.4310    3.7810 O   0  0  0  0  0  0  0  0  0  0  0  0
   24.9633  -32.5378    4.9040 C   0  0  0  0  0  0  0  0  0  0  0  0
   25.9433  -32.5992    5.7145 O   0  0  0  0  0  0  0  0  0  0  0  0
   21.7625  -36.3470    5.2689 O   0  0  0  0  0  0  0  0  0  0  0  0
   24.0551  -31.5034    5.1873 O   0  0  0  0  0  0  0  0  0  0  0  0
  1  2  1  0
  2  3  1  0
  3  4  1  6
  5  7  1  0
  5  3  1  0
  6  5  2  0
  8  7  1  0
  8  9  1  1
  9 10  1  0
 10 11  1  0
 11 15  1  0
 12 11  2  0
 13  8  1  0
 14 13  2  0
 16 13  1  0
 17 22  1  0
 17 16  1  0
 18 19  1  0
 17 18  1  1
 19 20  1  0
 20 21  2  0
 22 25  1  0
 23 22  2  0
 24 20  1  0
M  END
$$$$
