SEE.pdb
     RDKit          3D

 25 24  0  0  1  0  0  0  0  0999 V2000
   16.0041  -14.5267  -15.9576 O   0  0  0  0  0  0  0  0  0  0  0  0
   17.1575  -13.7387  -15.8826 C   0  0  0  0  0  0  0  0  0  0  0  0
   18.3546  -14.4819  -16.4366 C   0  0  2  0  0  0  0  0  0  0  0  0
   18.5347  -15.6651  -15.6368 N   0  0  0  0  0  0  0  0  0  0  0  0
   19.5373  -13.5947  -16.3008 C   0  0  0  0  0  0  0  0  0  0  0  0
   20.1231  -13.5710  -15.1912 O   0  0  0  0  0  0  0  0  0  0  0  0
   20.0181  -12.7879  -17.3634 N   0  0  0  0  0  0  0  0  0  0  0  0
   21.1984  -11.9444  -17.1762 C   0  0  1  0  0  0  0  0  0  0  0  0
   22.0777  -12.0439  -18.3739 C   0  0  0  0  0  0  0  0  0  0  0  0
   22.7950  -13.3237  -18.5831 C   0  0  0  0  0  0  0  0  0  0  0  0
   23.7173  -13.2767  -19.7624 C   0  0  0  0  0  0  0  0  0  0  0  0
   23.8612  -12.2721  -20.4710 O   0  0  0  0  0  0  0  0  0  0  0  0
   20.7643  -10.5152  -17.0290 C   0  0  0  0  0  0  0  0  0  0  0  0
   19.7587  -10.1392  -17.6444 O   0  0  0  0  0  0  0  0  0  0  0  0
   24.4697  -14.4166  -20.1049 O   0  0  0  0  0  0  0  0  0  0  0  0
   21.4578   -9.5930  -16.2194 N   0  0  0  0  0  0  0  0  0  0  0  0
   21.0691   -8.1961  -16.0308 C   0  0  1  0  0  0  0  0  0  0  0  0
   21.7958   -7.5923  -14.8894 C   0  0  0  0  0  0  0  0  0  0  0  0
   21.4700   -6.1909  -14.5188 C   0  0  0  0  0  0  0  0  0  0  0  0
   22.2328   -5.6179  -13.4018 C   0  0  0  0  0  0  0  0  0  0  0  0
   22.1514   -6.0164  -12.1882 O   0  0  0  0  0  0  0  0  0  0  0  0
   20.9679   -7.5122  -17.2891 C   0  0  0  0  0  0  0  0  0  0  0  0
   21.7881   -7.6288  -18.2559 O   0  0  0  0  0  0  0  0  0  0  0  0
   23.1118   -4.5765  -13.6216 O   0  0  0  0  0  0  0  0  0  0  0  0
   19.9010   -6.6356  -17.5512 O   0  0  0  0  0  0  0  0  0  0  0  0
  1  2  1  0
  2  3  1  0
  3  4  1  1
  5  7  1  0
  5  3  1  0
  6  5  2  0
  8  7  1  0
  8  9  1  6
  9 10  1  0
 10 11  1  0
 11 15  1  0
 12 11  2  0
 13  8  1  0
 14 13  2  0
 16 13  1  0
 17 22  1  0
 17 16  1  0
 18 19  1  0
 17 18  1  1
 19 20  1  0
 20 21  2  0
 22 25  1  0
 23 22  2  0
 24 20  1  0
M  END
$$$$
