SEE.pdb
     RDKit          3D

 25 24  0  0  1  0  0  0  0  0999 V2000
   23.7077  -31.7742   -7.9435 O   0  0  0  0  0  0  0  0  0  0  0  0
   25.0960  -31.6066   -7.9813 C   0  0  0  0  0  0  0  0  0  0  0  0
   25.7979  -32.9451   -8.0730 C   0  0  2  0  0  0  0  0  0  0  0  0
   25.1452  -33.7034   -9.1079 N   0  0  0  0  0  0  0  0  0  0  0  0
   25.6348  -33.6291   -6.7653 C   0  0  0  0  0  0  0  0  0  0  0  0
   24.6551  -34.4017   -6.6306 O   0  0  0  0  0  0  0  0  0  0  0  0
   26.5325  -33.4419   -5.6836 N   0  0  0  0  0  0  0  0  0  0  0  0
   26.3067  -34.1224   -4.4087 C   0  0  1  0  0  0  0  0  0  0  0  0
   27.5066  -33.9662   -3.5405 C   0  0  0  0  0  0  0  0  0  0  0  0
   27.4189  -34.5015   -2.1613 C   0  0  0  0  0  0  0  0  0  0  0  0
   28.4482  -35.5552   -1.8900 C   0  0  0  0  0  0  0  0  0  0  0  0
   29.6530  -35.3069   -1.7528 O   0  0  0  0  0  0  0  0  0  0  0  0
   25.1372  -33.4897   -3.7126 C   0  0  0  0  0  0  0  0  0  0  0  0
   25.0689  -32.2544   -3.6811 O   0  0  0  0  0  0  0  0  0  0  0  0
   28.0545  -36.9028   -1.7807 O   0  0  0  0  0  0  0  0  0  0  0  0
   24.1209  -34.2487   -3.0980 N   0  0  0  0  0  0  0  0  0  0  0  0
   22.9330  -33.6841   -2.4591 C   0  0  1  0  0  0  0  0  0  0  0  0
   21.6956  -34.1867   -3.1007 C   0  0  0  0  0  0  0  0  0  0  0  0
   20.3920  -33.7542   -2.5343 C   0  0  0  0  0  0  0  0  0  0  0  0
   19.1919  -34.3695   -3.1167 C   0  0  0  0  0  0  0  0  0  0  0  0
   18.0059  -34.2210   -2.6589 O   0  0  0  0  0  0  0  0  0  0  0  0
   23.0718  -33.6676   -1.0302 C   0  0  0  0  0  0  0  0  0  0  0  0
   23.6782  -34.5502   -0.3414 O   0  0  0  0  0  0  0  0  0  0  0  0
   19.2948  -35.1719   -4.2352 O   0  0  0  0  0  0  0  0  0  0  0  0
   22.5301  -32.6215   -0.2638 O   0  0  0  0  0  0  0  0  0  0  0  0
  1  2  1  0
  2  3  1  0
  3  4  1  6
  5  7  1  0
  5  3  1  0
  6  5  2  0
  8  7  1  0
  8  9  1  1
  9 10  1  0
 10 11  1  0
 11 15  1  0
 12 11  2  0
 13  8  1  0
 14 13  2  0
 16 13  1  0
 17 22  1  0
 17 16  1  0
 18 19  1  0
 17 18  1  1
 19 20  1  0
 20 21  2  0
 22 25  1  0
 23 22  2  0
 24 20  1  0
M  END
$$$$
