SEE.pdb
     RDKit          3D

 25 24  0  0  1  0  0  0  0  0999 V2000
   16.5713  -12.5217  -13.8001 O   0  0  0  0  0  0  0  0  0  0  0  0
   16.2492  -12.6363  -15.1566 C   0  0  0  0  0  0  0  0  0  0  0  0
   17.4321  -12.2622  -16.0246 C   0  0  2  0  0  0  0  0  0  0  0  0
   18.6256  -12.5489  -15.2727 N   0  0  0  0  0  0  0  0  0  0  0  0
   17.3453  -10.8058  -16.2999 C   0  0  0  0  0  0  0  0  0  0  0  0
   18.3246  -10.2606  -16.8643 O   0  0  0  0  0  0  0  0  0  0  0  0
   16.2136  -10.0248  -15.9528 N   0  0  0  0  0  0  0  0  0  0  0  0
   16.1463   -8.6125  -16.3275 C   0  0  1  0  0  0  0  0  0  0  0  0
   14.7253   -8.1671  -16.3412 C   0  0  0  0  0  0  0  0  0  0  0  0
   13.8815   -8.6295  -17.4684 C   0  0  0  0  0  0  0  0  0  0  0  0
   12.4343   -8.2955  -17.2743 C   0  0  0  0  0  0  0  0  0  0  0  0
   12.0256   -7.1457  -17.0674 O   0  0  0  0  0  0  0  0  0  0  0  0
   16.8850   -7.7963  -15.3074 C   0  0  0  0  0  0  0  0  0  0  0  0
   16.8621   -8.1682  -14.1273 O   0  0  0  0  0  0  0  0  0  0  0  0
   11.4696   -9.3200  -17.3244 O   0  0  0  0  0  0  0  0  0  0  0  0
   17.5992   -6.6289  -15.6448 N   0  0  0  0  0  0  0  0  0  0  0  0
   18.4157   -5.8549  -14.7108 C   0  0  1  0  0  0  0  0  0  0  0  0
   19.8572   -5.9959  -15.0230 C   0  0  0  0  0  0  0  0  0  0  0  0
   20.8322   -5.3053  -14.1399 C   0  0  0  0  0  0  0  0  0  0  0  0
   22.2437   -5.3853  -14.5389 C   0  0  0  0  0  0  0  0  0  0  0  0
   23.0173   -6.3700  -14.2742 O   0  0  0  0  0  0  0  0  0  0  0  0
   17.8350   -4.5659  -14.4605 C   0  0  0  0  0  0  0  0  0  0  0  0
   16.9948   -3.9801  -15.2167 O   0  0  0  0  0  0  0  0  0  0  0  0
   22.8250   -4.3547  -15.2499 O   0  0  0  0  0  0  0  0  0  0  0  0
   18.1647   -3.8372  -13.3049 O   0  0  0  0  0  0  0  0  0  0  0  0
  1  2  1  0
  2  3  1  0
  3  4  1  1
  5  7  1  0
  5  3  1  0
  6  5  2  0
  8  7  1  0
  8  9  1  1
  9 10  1  0
 10 11  1  0
 11 15  1  0
 12 11  2  0
 13  8  1  0
 14 13  2  0
 16 13  1  0
 17 22  1  0
 17 16  1  0
 18 19  1  0
 17 18  1  6
 19 20  1  0
 20 21  2  0
 22 25  1  0
 23 22  2  0
 24 20  1  0
M  END
$$$$
