SEE.pdb
     RDKit          3D

 25 24  0  0  1  0  0  0  0  0999 V2000
   18.0822  -26.5299   -3.6263 O   0  0  0  0  0  0  0  0  0  0  0  0
   17.0570  -26.8485   -4.5231 C   0  0  0  0  0  0  0  0  0  0  0  0
   16.9417  -25.7959   -5.6054 C   0  0  2  0  0  0  0  0  0  0  0  0
   18.2672  -25.5499   -6.1097 N   0  0  0  0  0  0  0  0  0  0  0  0
   16.4021  -24.5630   -4.9783 C   0  0  0  0  0  0  0  0  0  0  0  0
   17.1917  -23.6024   -4.8089 O   0  0  0  0  0  0  0  0  0  0  0  0
   15.0494  -24.4371   -4.5717 N   0  0  0  0  0  0  0  0  0  0  0  0
   14.5570  -23.1748   -4.0206 C   0  0  1  0  0  0  0  0  0  0  0  0
   13.4403  -22.6643   -4.8633 C   0  0  0  0  0  0  0  0  0  0  0  0
   13.8010  -22.0251   -6.1508 C   0  0  0  0  0  0  0  0  0  0  0  0
   12.6042  -21.5060   -6.8870 C   0  0  0  0  0  0  0  0  0  0  0  0
   12.5016  -21.5347   -8.1201 O   0  0  0  0  0  0  0  0  0  0  0  0
   14.0297  -23.4140   -2.6359 C   0  0  0  0  0  0  0  0  0  0  0  0
   13.9323  -24.5813   -2.2367 O   0  0  0  0  0  0  0  0  0  0  0  0
   11.5283  -20.9529   -6.1664 O   0  0  0  0  0  0  0  0  0  0  0  0
   13.6443  -22.3622   -1.7804 N   0  0  0  0  0  0  0  0  0  0  0  0
   13.2699  -22.5273   -0.3766 C   0  0  1  0  0  0  0  0  0  0  0  0
   14.2829  -23.3258    0.3526 C   0  0  0  0  0  0  0  0  0  0  0  0
   15.1812  -22.6149    1.2987 C   0  0  0  0  0  0  0  0  0  0  0  0
   16.0788  -23.4559    2.1019 C   0  0  0  0  0  0  0  0  0  0  0  0
   15.6978  -24.2139    3.0602 O   0  0  0  0  0  0  0  0  0  0  0  0
   12.7587  -21.3024    0.1706 C   0  0  0  0  0  0  0  0  0  0  0  0
   12.7307  -20.1830   -0.4355 O   0  0  0  0  0  0  0  0  0  0  0  0
   17.4354  -23.4665    1.8467 O   0  0  0  0  0  0  0  0  0  0  0  0
   12.2216  -21.2597    1.4686 O   0  0  0  0  0  0  0  0  0  0  0  0
  1  2  1  0
  2  3  1  0
  3  4  1  1
  5  7  1  0
  5  3  1  0
  6  5  2  0
  8  7  1  0
  8  9  1  6
  9 10  1  0
 10 11  1  0
 11 15  1  0
 12 11  2  0
 13  8  1  0
 14 13  2  0
 16 13  1  0
 17 22  1  0
 17 16  1  0
 18 19  1  0
 17 18  1  1
 19 20  1  0
 20 21  2  0
 22 25  1  0
 23 22  2  0
 24 20  1  0
M  END
$$$$
