SEE.pdb
     RDKit          3D

 25 24  0  0  1  0  0  0  0  0999 V2000
   13.9565  -11.4585  -13.5779 O   0  0  0  0  0  0  0  0  0  0  0  0
   14.5752  -10.7466  -14.6110 C   0  0  0  0  0  0  0  0  0  0  0  0
   15.8815  -11.4006  -15.0088 C   0  0  2  0  0  0  0  0  0  0  0  0
   16.4579  -11.9697  -13.8189 N   0  0  0  0  0  0  0  0  0  0  0  0
   16.7712  -10.3394  -15.5442 C   0  0  0  0  0  0  0  0  0  0  0  0
   18.0043  -10.4572  -15.3432 O   0  0  0  0  0  0  0  0  0  0  0  0
   16.2830   -9.2178  -16.2617 N   0  0  0  0  0  0  0  0  0  0  0  0
   17.2130   -8.2585  -16.8570 C   0  0  1  0  0  0  0  0  0  0  0  0
   16.6387   -7.7274  -18.1243 C   0  0  0  0  0  0  0  0  0  0  0  0
   16.4407   -8.6899  -19.2337 C   0  0  0  0  0  0  0  0  0  0  0  0
   15.0615   -8.6184  -19.8138 C   0  0  0  0  0  0  0  0  0  0  0  0
   14.6199   -7.6169  -20.3916 O   0  0  0  0  0  0  0  0  0  0  0  0
   17.4081   -7.1094  -15.9114 C   0  0  0  0  0  0  0  0  0  0  0  0
   16.5057   -6.8512  -15.1049 O   0  0  0  0  0  0  0  0  0  0  0  0
   14.2036   -9.7303  -19.7113 O   0  0  0  0  0  0  0  0  0  0  0  0
   18.5757   -6.3199  -15.9102 N   0  0  0  0  0  0  0  0  0  0  0  0
   18.8285   -5.2113  -14.9908 C   0  0  1  0  0  0  0  0  0  0  0  0
   20.2759   -5.0801  -14.7027 C   0  0  0  0  0  0  0  0  0  0  0  0
   20.9281   -6.1524  -13.9076 C   0  0  0  0  0  0  0  0  0  0  0  0
   22.3789   -6.0288  -13.7130 C   0  0  0  0  0  0  0  0  0  0  0  0
   22.9409   -5.1234  -13.0041 O   0  0  0  0  0  0  0  0  0  0  0  0
   18.0344   -4.0647  -15.3313 C   0  0  0  0  0  0  0  0  0  0  0  0
   17.6424   -3.1735  -14.5108 O   0  0  0  0  0  0  0  0  0  0  0  0
   23.2400   -6.9250  -14.3137 O   0  0  0  0  0  0  0  0  0  0  0  0
   17.6273   -3.8357  -16.6568 O   0  0  0  0  0  0  0  0  0  0  0  0
  1  2  1  0
  2  3  1  0
  3  4  1  1
  5  7  1  0
  5  3  1  0
  6  5  2  0
  8  7  1  0
  8  9  1  6
  9 10  1  0
 10 11  1  0
 11 15  1  0
 12 11  2  0
 13  8  1  0
 14 13  2  0
 16 13  1  0
 17 22  1  0
 17 16  1  0
 18 19  1  0
 17 18  1  6
 19 20  1  0
 20 21  2  0
 22 25  1  0
 23 22  2  0
 24 20  1  0
M  END
$$$$
