PER.pdb
     RDKit          3D

 28 28  0  0  1  0  0  0  0  0999 V2000
    8.9151  -14.7364   19.1120 N   0  0  0  0  0  0  0  0  0  0  0  0
    8.9916  -13.7210   18.0788 C   0  0  0  0  0  0  0  0  0  0  0  0
    7.7950  -12.8252   18.3135 C   0  0  0  0  0  0  0  0  0  0  0  0
    7.2791  -13.1940   19.6929 C   0  0  0  0  0  0  0  0  0  0  0  0
    8.4062  -14.0534   20.2355 C   0  0  1  0  0  0  0  0  0  0  0  0
    7.9361  -14.9037   21.3664 C   0  0  0  0  0  0  0  0  0  0  0  0
    7.5202  -14.3513   22.4007 O   0  0  0  0  0  0  0  0  0  0  0  0
    7.9406  -16.3299   21.3227 N   0  0  0  0  0  0  0  0  0  0  0  0
    7.6401  -17.2232   22.3894 C   0  0  1  0  0  0  0  0  0  0  0  0
    7.7401  -18.7060   21.9583 C   0  0  0  0  0  0  0  0  0  0  0  0
    7.4636  -19.6440   23.1133 C   0  0  0  0  0  0  0  0  0  0  0  0
    7.5341  -21.0402   22.6142 C   0  0  0  0  0  0  0  0  0  0  0  0
    7.8335  -21.2559   21.4132 O   0  0  0  0  0  0  0  0  0  0  0  0
    8.5337  -17.0093   23.6034 C   0  0  0  0  0  0  0  0  0  0  0  0
    9.7370  -16.9770   23.3468 O   0  0  0  0  0  0  0  0  0  0  0  0
    7.2777  -22.1284   23.4250 O   0  0  0  0  0  0  0  0  0  0  0  0
    7.0670  -11.4800   24.0200 N   0  0  0  0  0  0  0  0  0  0  0  0
    6.6239  -11.6724   25.3711 C   0  0  0  0  0  0  0  0  0  0  0  0
    6.6742  -10.6595   26.1649 N   0  0  0  0  0  0  0  0  0  0  0  0
    6.1630  -12.9217   25.7746 N   0  0  0  0  0  0  0  0  0  0  0  0
    6.6450  -13.5553   26.9952 C   0  0  0  0  0  0  0  0  0  0  0  0
    7.9487  -14.2592   26.6857 C   0  0  0  0  0  0  0  0  0  0  0  0
    7.9047  -15.6949   27.0268 C   0  0  0  0  0  0  0  0  0  0  0  0
    8.6713  -16.6345   26.1550 C   0  0  2  0  0  0  0  0  0  0  0  0
    8.0275  -16.8577   24.8935 N   0  0  0  0  0  0  0  0  0  0  0  0
    9.2341  -17.8060   26.8489 C   0  0  0  0  0  0  0  0  0  0  0  0
   10.4957  -18.0479   27.3575 O   0  0  0  0  0  0  0  0  0  0  0  0
    8.4579  -18.8311   27.0565 O   0  0  0  0  0  0  0  0  0  0  0  0
  1  2  1  0
  3  2  1  0
  4  3  1  0
  4  5  1  0
  5  6  1  1
  5  1  1  0
  6  7  2  0
  8  9  1  0
  8  6  1  0
  9 10  1  6
 11 10  1  0
 12 11  1  0
 13 12  2  0
 14 15  2  0
 14  9  1  0
 16 12  1  0
 18 17  1  0
 19 18  2  0
 20 18  1  0
 21 22  1  0
 21 20  1  0
 22 23  1  0
 24 23  1  1
 24 25  1  0
 24 26  1  0
 25 14  1  0
 26 27  1  0
 28 26  2  0
M  END
$$$$
