PER.pdb
     RDKit          3D

 28 28  0  0  1  0  0  0  0  0999 V2000
    9.0146  -14.1023   18.7323 N   0  0  0  0  0  0  0  0  0  0  0  0
    8.2072  -13.0410   18.1613 C   0  0  0  0  0  0  0  0  0  0  0  0
    6.8390  -13.2030   18.7870 C   0  0  0  0  0  0  0  0  0  0  0  0
    7.0372  -14.1601   19.9488 C   0  0  0  0  0  0  0  0  0  0  0  0
    8.5497  -14.2196   20.0583 C   0  0  1  0  0  0  0  0  0  0  0  0
    8.9865  -15.4341   20.8046 C   0  0  0  0  0  0  0  0  0  0  0  0
    8.5253  -15.6384   21.9419 O   0  0  0  0  0  0  0  0  0  0  0  0
    9.9149  -16.3806   20.2770 N   0  0  0  0  0  0  0  0  0  0  0  0
   10.3567  -17.5857   20.8924 C   0  0  1  0  0  0  0  0  0  0  0  0
   11.0812  -18.5217   19.8957 C   0  0  0  0  0  0  0  0  0  0  0  0
   10.2295  -18.8089   18.6782 C   0  0  0  0  0  0  0  0  0  0  0  0
   11.0325  -19.6073   17.7185 C   0  0  0  0  0  0  0  0  0  0  0  0
   12.2361  -19.8600   17.9755 O   0  0  0  0  0  0  0  0  0  0  0  0
   11.2765  -17.3354   22.0796 C   0  0  0  0  0  0  0  0  0  0  0  0
   11.8902  -16.2698   22.0287 O   0  0  0  0  0  0  0  0  0  0  0  0
   10.5063  -20.0886   16.5358 O   0  0  0  0  0  0  0  0  0  0  0  0
   11.0971  -13.9641   29.4466 N   0  0  0  0  0  0  0  0  0  0  0  0
    9.8642  -14.0491   28.7177 C   0  0  0  0  0  0  0  0  0  0  0  0
    9.1604  -12.9760   28.6095 N   0  0  0  0  0  0  0  0  0  0  0  0
    9.4742  -15.2634   28.1614 N   0  0  0  0  0  0  0  0  0  0  0  0
    9.4926  -15.4839   26.7210 C   0  0  0  0  0  0  0  0  0  0  0  0
   10.4236  -16.6402   26.4263 C   0  0  0  0  0  0  0  0  0  0  0  0
   10.4574  -16.9800   24.9900 C   0  0  0  0  0  0  0  0  0  0  0  0
   11.4014  -18.0534   24.5574 C   0  0  2  0  0  0  0  0  0  0  0  0
   11.4053  -18.2368   23.1353 N   0  0  0  0  0  0  0  0  0  0  0  0
   11.3954  -19.2621   25.3997 C   0  0  0  0  0  0  0  0  0  0  0  0
   12.0850  -19.5737   26.5557 O   0  0  0  0  0  0  0  0  0  0  0  0
   10.6220  -20.2511   25.0533 O   0  0  0  0  0  0  0  0  0  0  0  0
  1  2  1  0
  3  2  1  0
  4  3  1  0
  4  5  1  0
  5  6  1  6
  5  1  1  0
  6  7  2  0
  8  9  1  0
  8  6  1  0
  9 10  1  6
 11 10  1  0
 12 11  1  0
 13 12  2  0
 14 15  2  0
 14  9  1  0
 16 12  1  0
 18 17  1  0
 19 18  2  0
 20 18  1  0
 21 22  1  0
 21 20  1  0
 22 23  1  0
 24 23  1  6
 24 25  1  0
 24 26  1  0
 25 14  1  0
 26 27  1  0
 28 26  2  0
M  END
$$$$
