PER.pdb
     RDKit          3D

 28 28  0  0  1  0  0  0  0  0999 V2000
    8.9074  -14.1931   17.9815 N   0  0  0  0  0  0  0  0  0  0  0  0
    8.2146  -13.2228   17.1551 C   0  0  0  0  0  0  0  0  0  0  0  0
    6.9543  -12.8791   17.9188 C   0  0  0  0  0  0  0  0  0  0  0  0
    7.1652  -13.4339   19.3162 C   0  0  0  0  0  0  0  0  0  0  0  0
    8.6432  -13.7781   19.3029 C   0  0  1  0  0  0  0  0  0  0  0  0
    8.9767  -14.7544   20.3793 C   0  0  0  0  0  0  0  0  0  0  0  0
    8.6621  -14.4855   21.5525 O   0  0  0  0  0  0  0  0  0  0  0  0
    9.6448  -15.9903   20.1301 N   0  0  0  0  0  0  0  0  0  0  0  0
    9.9054  -17.0303   21.0665 C   0  0  1  0  0  0  0  0  0  0  0  0
   10.6766  -18.2118   20.4311 C   0  0  0  0  0  0  0  0  0  0  0  0
   10.9583  -19.3032   21.4408 C   0  0  0  0  0  0  0  0  0  0  0  0
   11.7235  -20.3824   20.7676 C   0  0  0  0  0  0  0  0  0  0  0  0
   12.0506  -20.2522   19.5615 O   0  0  0  0  0  0  0  0  0  0  0  0
   10.6799  -16.5436   22.2836 C   0  0  0  0  0  0  0  0  0  0  0  0
   11.7332  -15.9661   22.0157 O   0  0  0  0  0  0  0  0  0  0  0  0
   12.0940  -21.5425   21.4192 O   0  0  0  0  0  0  0  0  0  0  0  0
   10.1185  -16.9687   29.6273 N   0  0  0  0  0  0  0  0  0  0  0  0
   10.7497  -15.7200   29.9451 C   0  0  0  0  0  0  0  0  0  0  0  0
   11.5993  -15.7106   30.9128 N   0  0  0  0  0  0  0  0  0  0  0  0
   10.4311  -14.5802   29.2131 N   0  0  0  0  0  0  0  0  0  0  0  0
    9.8879  -14.6669   27.8636 C   0  0  0  0  0  0  0  0  0  0  0  0
   10.2088  -16.0370   27.3063 C   0  0  0  0  0  0  0  0  0  0  0  0
    9.7485  -16.1966   25.9127 C   0  0  0  0  0  0  0  0  0  0  0  0
   10.7909  -16.3776   24.8586 C   0  0  2  0  0  0  0  0  0  0  0  0
   10.2278  -16.7330   23.5888 N   0  0  0  0  0  0  0  0  0  0  0  0
   11.9966  -17.1027   25.2957 C   0  0  0  0  0  0  0  0  0  0  0  0
   13.2170  -16.6505   25.7594 O   0  0  0  0  0  0  0  0  0  0  0  0
   11.9763  -18.4047   25.2695 O   0  0  0  0  0  0  0  0  0  0  0  0
  1  2  1  0
  3  2  1  0
  4  3  1  0
  4  5  1  0
  5  6  1  1
  5  1  1  0
  6  7  2  0
  8  9  1  0
  8  6  1  0
  9 10  1  6
 11 10  1  0
 12 11  1  0
 13 12  2  0
 14 15  2  0
 14  9  1  0
 16 12  1  0
 18 17  1  0
 19 18  2  0
 20 18  1  0
 21 22  1  0
 21 20  1  0
 22 23  1  0
 24 23  1  1
 24 25  1  0
 24 26  1  0
 25 14  1  0
 26 27  1  0
 28 26  2  0
M  END
$$$$
