PER.pdb
     RDKit          3D

 28 28  0  0  1  0  0  0  0  0999 V2000
    7.2718  -14.8207   20.2662 N   0  0  0  0  0  0  0  0  0  0  0  0
    6.8746  -14.2021   19.0156 C   0  0  0  0  0  0  0  0  0  0  0  0
    7.4762  -12.8142   19.0509 C   0  0  0  0  0  0  0  0  0  0  0  0
    8.4767  -12.8368   20.1925 C   0  0  0  0  0  0  0  0  0  0  0  0
    8.5669  -14.3185   20.5080 C   0  0  1  0  0  0  0  0  0  0  0  0
    9.1162  -14.5436   21.8757 C   0  0  0  0  0  0  0  0  0  0  0  0
   10.3168  -14.2970   22.0889 O   0  0  0  0  0  0  0  0  0  0  0  0
    8.3287  -15.0328   22.9604 N   0  0  0  0  0  0  0  0  0  0  0  0
    8.7441  -15.2166   24.3094 C   0  0  1  0  0  0  0  0  0  0  0  0
    7.6783  -14.7343   25.3222 C   0  0  0  0  0  0  0  0  0  0  0  0
    7.4096  -13.2511   25.1873 C   0  0  0  0  0  0  0  0  0  0  0  0
    6.4392  -12.8503   26.2367 C   0  0  0  0  0  0  0  0  0  0  0  0
    5.3702  -13.4961   26.3732 O   0  0  0  0  0  0  0  0  0  0  0  0
    9.0923  -16.6651   24.6240 C   0  0  0  0  0  0  0  0  0  0  0  0
    8.5415  -17.4882   23.8935 O   0  0  0  0  0  0  0  0  0  0  0  0
    6.6631  -11.7796   27.0799 O   0  0  0  0  0  0  0  0  0  0  0  0
   14.4288  -20.1765   30.8563 N   0  0  0  0  0  0  0  0  0  0  0  0
   13.1504  -20.7949   30.6516 C   0  0  0  0  0  0  0  0  0  0  0  0
   13.1242  -22.0732   30.4972 N   0  0  0  0  0  0  0  0  0  0  0  0
   12.0011  -20.0108   30.6263 N   0  0  0  0  0  0  0  0  0  0  0  0
   11.9050  -18.8244   29.7855 C   0  0  0  0  0  0  0  0  0  0  0  0
   11.1060  -19.1778   28.5496 C   0  0  0  0  0  0  0  0  0  0  0  0
   10.9314  -18.0230   27.6465 C   0  0  0  0  0  0  0  0  0  0  0  0
   10.0861  -18.2198   26.4311 C   0  0  2  0  0  0  0  0  0  0  0  0
    9.9658  -17.0236   25.6498 N   0  0  0  0  0  0  0  0  0  0  0  0
    8.8667  -19.0184   26.6455 C   0  0  0  0  0  0  0  0  0  0  0  0
    8.6583  -20.3842   26.6524 O   0  0  0  0  0  0  0  0  0  0  0  0
    7.7507  -18.3889   26.8793 O   0  0  0  0  0  0  0  0  0  0  0  0
  1  2  1  0
  3  2  1  0
  4  3  1  0
  4  5  1  0
  5  6  1  1
  5  1  1  0
  6  7  2  0
  8  9  1  0
  8  6  1  0
  9 10  1  1
 11 10  1  0
 12 11  1  0
 13 12  2  0
 14 15  2  0
 14  9  1  0
 16 12  1  0
 18 17  1  0
 19 18  2  0
 20 18  1  0
 21 22  1  0
 21 20  1  0
 22 23  1  0
 24 23  1  1
 24 25  1  0
 24 26  1  0
 25 14  1  0
 26 27  1  0
 28 26  2  0
M  END
$$$$
