PER.pdb
     RDKit          3D

 28 28  0  0  1  0  0  0  0  0999 V2000
    8.9272  -13.4165   17.6303 N   0  0  0  0  0  0  0  0  0  0  0  0
    7.6937  -12.7178   17.3228 C   0  0  0  0  0  0  0  0  0  0  0  0
    6.6344  -13.3932   18.1661 C   0  0  0  0  0  0  0  0  0  0  0  0
    7.3966  -14.2370   19.1721 C   0  0  0  0  0  0  0  0  0  0  0  0
    8.8174  -13.7321   19.0001 C   0  0  1  0  0  0  0  0  0  0  0  0
    9.8044  -14.7154   19.5309 C   0  0  0  0  0  0  0  0  0  0  0  0
    9.5971  -15.2340   20.6426 O   0  0  0  0  0  0  0  0  0  0  0  0
   10.9846  -15.0935   18.8236 N   0  0  0  0  0  0  0  0  0  0  0  0
   11.9794  -16.0201   19.2454 C   0  0  1  0  0  0  0  0  0  0  0  0
   12.9948  -16.3418   18.1229 C   0  0  0  0  0  0  0  0  0  0  0  0
   14.0042  -17.3800   18.5626 C   0  0  0  0  0  0  0  0  0  0  0  0
   14.8969  -17.6850   17.4166 C   0  0  0  0  0  0  0  0  0  0  0  0
   14.4809  -18.4151   16.4825 O   0  0  0  0  0  0  0  0  0  0  0  0
   12.7459  -15.5410   20.4706 C   0  0  0  0  0  0  0  0  0  0  0  0
   13.4651  -14.5631   20.2673 O   0  0  0  0  0  0  0  0  0  0  0  0
   16.1858  -17.1957   17.3334 O   0  0  0  0  0  0  0  0  0  0  0  0
    8.3394  -18.2547   26.8224 N   0  0  0  0  0  0  0  0  0  0  0  0
    7.9217  -17.2165   25.9245 C   0  0  0  0  0  0  0  0  0  0  0  0
    6.6833  -16.8644   25.9551 N   0  0  0  0  0  0  0  0  0  0  0  0
    8.8481  -16.6337   25.0653 N   0  0  0  0  0  0  0  0  0  0  0  0
   10.2793  -16.8627   25.2171 C   0  0  0  0  0  0  0  0  0  0  0  0
   10.9921  -16.2293   24.0418 C   0  0  0  0  0  0  0  0  0  0  0  0
   12.4586  -16.3720   24.1331 C   0  0  0  0  0  0  0  0  0  0  0  0
   13.2713  -15.8953   22.9743 C   0  0  2  0  0  0  0  0  0  0  0  0
   12.6352  -16.1571   21.7164 N   0  0  0  0  0  0  0  0  0  0  0  0
   14.7160  -16.1657   23.0760 C   0  0  0  0  0  0  0  0  0  0  0  0
   15.5890  -16.8038   22.2160 O   0  0  0  0  0  0  0  0  0  0  0  0
   15.3469  -15.7542   24.1386 O   0  0  0  0  0  0  0  0  0  0  0  0
  1  2  1  0
  3  2  1  0
  4  3  1  0
  4  5  1  0
  5  6  1  6
  5  1  1  0
  6  7  2  0
  8  9  1  0
  8  6  1  0
  9 10  1  6
 11 10  1  0
 12 11  1  0
 13 12  2  0
 14 15  2  0
 14  9  1  0
 16 12  1  0
 18 17  1  0
 19 18  2  0
 20 18  1  0
 21 22  1  0
 21 20  1  0
 22 23  1  0
 24 23  1  1
 24 25  1  0
 24 26  1  0
 25 14  1  0
 26 27  1  0
 28 26  2  0
M  END
$$$$
