PER.pdb
     RDKit          3D

 28 28  0  0  1  0  0  0  0  0999 V2000
    9.2999  -14.5449   17.9760 N   0  0  0  0  0  0  0  0  0  0  0  0
    8.6388  -13.6531   17.0422 C   0  0  0  0  0  0  0  0  0  0  0  0
    7.2179  -13.5315   17.5480 C   0  0  0  0  0  0  0  0  0  0  0  0
    7.2386  -14.1079   18.9524 C   0  0  0  0  0  0  0  0  0  0  0  0
    8.7266  -14.2298   19.2250 C   0  0  1  0  0  0  0  0  0  0  0  0
    8.9922  -15.1911   20.3332 C   0  0  0  0  0  0  0  0  0  0  0  0
    8.2778  -15.1469   21.3508 O   0  0  0  0  0  0  0  0  0  0  0  0
   10.0333  -16.1658   20.2861 N   0  0  0  0  0  0  0  0  0  0  0  0
   10.3654  -17.1176   21.2910 C   0  0  1  0  0  0  0  0  0  0  0  0
   11.6768  -17.8743   20.9715 C   0  0  0  0  0  0  0  0  0  0  0  0
   11.5695  -18.6594   19.6822 C   0  0  0  0  0  0  0  0  0  0  0  0
   12.8879  -19.2783   19.3958 C   0  0  0  0  0  0  0  0  0  0  0  0
   13.5588  -19.7733   20.3357 O   0  0  0  0  0  0  0  0  0  0  0  0
   10.4903  -16.4921   22.6735 C   0  0  0  0  0  0  0  0  0  0  0  0
   11.3814  -15.6485   22.7688 O   0  0  0  0  0  0  0  0  0  0  0  0
   13.4181  -19.3312   18.1216 O   0  0  0  0  0  0  0  0  0  0  0  0
    5.2681  -10.7345   27.5572 N   0  0  0  0  0  0  0  0  0  0  0  0
    6.3316  -11.4893   26.9589 C   0  0  0  0  0  0  0  0  0  0  0  0
    7.2733  -10.8330   26.3750 N   0  0  0  0  0  0  0  0  0  0  0  0
    6.3136  -12.8791   27.0260 N   0  0  0  0  0  0  0  0  0  0  0  0
    6.5372  -13.7031   25.8451 C   0  0  0  0  0  0  0  0  0  0  0  0
    7.7625  -14.5588   26.0843 C   0  0  0  0  0  0  0  0  0  0  0  0
    8.1070  -15.3845   24.9100 C   0  0  0  0  0  0  0  0  0  0  0  0
    9.3632  -16.1893   24.9775 C   0  0  2  0  0  0  0  0  0  0  0  0
    9.6600  -16.8438   23.7368 N   0  0  0  0  0  0  0  0  0  0  0  0
    9.5361  -16.9677   26.2163 C   0  0  0  0  0  0  0  0  0  0  0  0
    9.8329  -16.5762   27.5077 O   0  0  0  0  0  0  0  0  0  0  0  0
    9.3942  -18.2610   26.1566 O   0  0  0  0  0  0  0  0  0  0  0  0
  1  2  1  0
  3  2  1  0
  4  3  1  0
  4  5  1  0
  5  6  1  1
  5  1  1  0
  6  7  2  0
  8  9  1  0
  8  6  1  0
  9 10  1  6
 11 10  1  0
 12 11  1  0
 13 12  2  0
 14 15  2  0
 14  9  1  0
 16 12  1  0
 18 17  1  0
 19 18  2  0
 20 18  1  0
 21 22  1  0
 21 20  1  0
 22 23  1  0
 24 23  1  6
 24 25  1  0
 24 26  1  0
 25 14  1  0
 26 27  1  0
 28 26  2  0
M  END
$$$$
