PER.pdb
     RDKit          3D

 28 28  0  0  1  0  0  0  0  0999 V2000
    9.2360  -14.2000   18.2039 N   0  0  0  0  0  0  0  0  0  0  0  0
    8.7371  -13.1471   17.3397 C   0  0  0  0  0  0  0  0  0  0  0  0
    7.3627  -12.8114   17.8762 C   0  0  0  0  0  0  0  0  0  0  0  0
    7.2894  -13.4728   19.2408 C   0  0  0  0  0  0  0  0  0  0  0  0
    8.7342  -13.8713   19.4798 C   0  0  1  0  0  0  0  0  0  0  0  0
    8.8325  -14.9345   20.5205 C   0  0  0  0  0  0  0  0  0  0  0  0
    8.3729  -14.7093   21.6545 O   0  0  0  0  0  0  0  0  0  0  0  0
    9.4331  -16.2063   20.2802 N   0  0  0  0  0  0  0  0  0  0  0  0
    9.5422  -17.2916   21.1947 C   0  0  1  0  0  0  0  0  0  0  0  0
   10.3854  -18.4569   20.6240 C   0  0  0  0  0  0  0  0  0  0  0  0
   10.5630  -19.5670   21.6370 C   0  0  0  0  0  0  0  0  0  0  0  0
   11.3444  -20.6603   21.0065 C   0  0  0  0  0  0  0  0  0  0  0  0
   11.7504  -20.5314   19.8245 O   0  0  0  0  0  0  0  0  0  0  0  0
   10.1351  -16.8737   22.5334 C   0  0  0  0  0  0  0  0  0  0  0  0
   11.1924  -16.2498   22.4461 O   0  0  0  0  0  0  0  0  0  0  0  0
   11.6461  -21.8320   21.6725 O   0  0  0  0  0  0  0  0  0  0  0  0
    5.5861  -12.5317   27.7921 N   0  0  0  0  0  0  0  0  0  0  0  0
    6.1927  -12.1198   26.5587 C   0  0  0  0  0  0  0  0  0  0  0  0
    5.7545  -11.0402   26.0101 N   0  0  0  0  0  0  0  0  0  0  0  0
    7.2148  -12.8838   26.0039 N   0  0  0  0  0  0  0  0  0  0  0  0
    7.4241  -14.2735   26.3893 C   0  0  0  0  0  0  0  0  0  0  0  0
    8.5375  -14.8434   25.5370 C   0  0  0  0  0  0  0  0  0  0  0  0
    8.8622  -16.2374   25.8987 C   0  0  0  0  0  0  0  0  0  0  0  0
    9.9254  -16.9254   25.1071 C   0  0  2  0  0  0  0  0  0  0  0  0
    9.5257  -17.1696   23.7519 N   0  0  0  0  0  0  0  0  0  0  0  0
   10.6236  -18.0111   25.8171 C   0  0  0  0  0  0  0  0  0  0  0  0
   11.4920  -17.9900   26.8916 O   0  0  0  0  0  0  0  0  0  0  0  0
   10.4305  -19.2348   25.4150 O   0  0  0  0  0  0  0  0  0  0  0  0
  1  2  1  0
  3  2  1  0
  4  3  1  0
  4  5  1  0
  5  6  1  1
  5  1  1  0
  6  7  2  0
  8  9  1  0
  8  6  1  0
  9 10  1  6
 11 10  1  0
 12 11  1  0
 13 12  2  0
 14 15  2  0
 14  9  1  0
 16 12  1  0
 18 17  1  0
 19 18  2  0
 20 18  1  0
 21 22  1  0
 21 20  1  0
 22 23  1  0
 24 23  1  1
 24 25  1  0
 24 26  1  0
 25 14  1  0
 26 27  1  0
 28 26  2  0
M  END
$$$$
