PER.pdb
     RDKit          3D

 28 28  0  0  1  0  0  0  0  0999 V2000
   12.7938  -18.5448   18.4020 N   0  0  0  0  0  0  0  0  0  0  0  0
   12.8700  -19.7783   17.6424 C   0  0  0  0  0  0  0  0  0  0  0  0
   12.1806  -19.4787   16.3292 C   0  0  0  0  0  0  0  0  0  0  0  0
   12.0398  -17.9677   16.2827 C   0  0  0  0  0  0  0  0  0  0  0  0
   12.9274  -17.5293   17.4330 C   0  0  1  0  0  0  0  0  0  0  0  0
   12.5879  -16.1469   17.8762 C   0  0  0  0  0  0  0  0  0  0  0  0
   13.4194  -15.2384   17.6997 O   0  0  0  0  0  0  0  0  0  0  0  0
   11.3487  -15.8107   18.4986 N   0  0  0  0  0  0  0  0  0  0  0  0
   10.9145  -14.5177   18.9057 C   0  0  1  0  0  0  0  0  0  0  0  0
    9.4083  -14.2919   18.6322 C   0  0  0  0  0  0  0  0  0  0  0  0
    8.9854  -12.8775   18.9652 C   0  0  0  0  0  0  0  0  0  0  0  0
    7.5237  -12.7561   18.7370 C   0  0  0  0  0  0  0  0  0  0  0  0
    6.7243  -13.3506   19.5025 O   0  0  0  0  0  0  0  0  0  0  0  0
   11.1868  -14.2438   20.3785 C   0  0  0  0  0  0  0  0  0  0  0  0
   10.2122  -13.8281   21.0047 O   0  0  0  0  0  0  0  0  0  0  0  0
    6.9971  -12.0091   17.7016 O   0  0  0  0  0  0  0  0  0  0  0  0
   11.4723  -20.3009   25.7258 N   0  0  0  0  0  0  0  0  0  0  0  0
   12.3933  -20.5468   24.6534 C   0  0  0  0  0  0  0  0  0  0  0  0
   13.2511  -21.4946   24.8098 N   0  0  0  0  0  0  0  0  0  0  0  0
   12.3334  -19.7696   23.5008 N   0  0  0  0  0  0  0  0  0  0  0  0
   11.4721  -18.5972   23.4148 C   0  0  0  0  0  0  0  0  0  0  0  0
   12.3469  -17.3624   23.3879 C   0  0  0  0  0  0  0  0  0  0  0  0
   12.0783  -16.5114   22.2118 C   0  0  0  0  0  0  0  0  0  0  0  0
   12.8417  -15.2328   22.0971 C   0  0  2  0  0  0  0  0  0  0  0  0
   12.4342  -14.4530   20.9650 N   0  0  0  0  0  0  0  0  0  0  0  0
   14.2866  -15.3465   22.3610 C   0  0  0  0  0  0  0  0  0  0  0  0
   14.9899  -15.5186   23.5378 O   0  0  0  0  0  0  0  0  0  0  0  0
   15.1046  -15.2862   21.3493 O   0  0  0  0  0  0  0  0  0  0  0  0
  1  2  1  0
  3  2  1  0
  4  3  1  0
  4  5  1  0
  5  6  1  1
  5  1  1  0
  6  7  2  0
  8  9  1  0
  8  6  1  0
  9 10  1  1
 11 10  1  0
 12 11  1  0
 13 12  2  0
 14 15  2  0
 14  9  1  0
 16 12  1  0
 18 17  1  0
 19 18  2  0
 20 18  1  0
 21 22  1  0
 21 20  1  0
 22 23  1  0
 24 23  1  6
 24 25  1  0
 24 26  1  0
 25 14  1  0
 26 27  1  0
 28 26  2  0
M  END
$$$$
