PER.pdb
     RDKit          3D

 28 28  0  0  1  0  0  0  0  0999 V2000
   10.5514  -17.1316   16.0254 N   0  0  0  0  0  0  0  0  0  0  0  0
    9.9650  -16.6630   14.7840 C   0  0  0  0  0  0  0  0  0  0  0  0
    8.5019  -16.4375   15.0966 C   0  0  0  0  0  0  0  0  0  0  0  0
    8.4022  -16.4749   16.6111 C   0  0  0  0  0  0  0  0  0  0  0  0
    9.8605  -16.4205   17.0279 C   0  0  1  0  0  0  0  0  0  0  0  0
   10.0381  -16.9108   18.4247 C   0  0  0  0  0  0  0  0  0  0  0  0
    9.5082  -16.2776   19.3554 O   0  0  0  0  0  0  0  0  0  0  0  0
   10.7920  -18.0776   18.7507 N   0  0  0  0  0  0  0  0  0  0  0  0
   11.0485  -18.5997   20.0498 C   0  0  1  0  0  0  0  0  0  0  0  0
   12.2321  -19.5965   20.0580 C   0  0  0  0  0  0  0  0  0  0  0  0
   12.4825  -20.1558   21.4417 C   0  0  0  0  0  0  0  0  0  0  0  0
   13.6267  -21.0986   21.3693 C   0  0  0  0  0  0  0  0  0  0  0  0
   14.7906  -20.6517   21.2138 O   0  0  0  0  0  0  0  0  0  0  0  0
   11.3247  -17.5097   21.0764 C   0  0  0  0  0  0  0  0  0  0  0  0
   12.3227  -16.8302   20.8372 O   0  0  0  0  0  0  0  0  0  0  0  0
   13.4638  -22.4668   21.4638 O   0  0  0  0  0  0  0  0  0  0  0  0
    7.3813  -11.5137   19.5567 N   0  0  0  0  0  0  0  0  0  0  0  0
    7.9870  -12.6814   20.1299 C   0  0  0  0  0  0  0  0  0  0  0  0
    9.2156  -12.9239   19.8298 N   0  0  0  0  0  0  0  0  0  0  0  0
    7.2437  -13.4997   20.9749 N   0  0  0  0  0  0  0  0  0  0  0  0
    7.7468  -13.9056   22.2810 C   0  0  0  0  0  0  0  0  0  0  0  0
    8.9465  -14.8046   22.0728 C   0  0  0  0  0  0  0  0  0  0  0  0
    9.3683  -15.4733   23.3196 C   0  0  0  0  0  0  0  0  0  0  0  0
   10.5780  -16.3470   23.2583 C   0  0  2  0  0  0  0  0  0  0  0  0
   10.5105  -17.2990   22.1883 N   0  0  0  0  0  0  0  0  0  0  0  0
   11.0665  -16.8236   24.5639 C   0  0  0  0  0  0  0  0  0  0  0  0
   11.7552  -16.1783   25.5730 O   0  0  0  0  0  0  0  0  0  0  0  0
   10.8400  -18.0637   24.8916 O   0  0  0  0  0  0  0  0  0  0  0  0
  1  2  1  0
  3  2  1  0
  4  3  1  0
  4  5  1  0
  5  6  1  1
  5  1  1  0
  6  7  2  0
  8  9  1  0
  8  6  1  0
  9 10  1  6
 11 10  1  0
 12 11  1  0
 13 12  2  0
 14 15  2  0
 14  9  1  0
 16 12  1  0
 18 17  1  0
 19 18  2  0
 20 18  1  0
 21 22  1  0
 21 20  1  0
 22 23  1  0
 24 23  1  1
 24 25  1  0
 24 26  1  0
 25 14  1  0
 26 27  1  0
 28 26  2  0
M  END
$$$$
