PER.pdb
     RDKit          3D

 28 28  0  0  1  0  0  0  0  0999 V2000
    8.5325  -14.4892   18.3401 N   0  0  0  0  0  0  0  0  0  0  0  0
    8.2584  -13.3553   17.4778 C   0  0  0  0  0  0  0  0  0  0  0  0
    7.2858  -12.4935   18.2529 C   0  0  0  0  0  0  0  0  0  0  0  0
    7.3170  -13.0274   19.6738 C   0  0  0  0  0  0  0  0  0  0  0  0
    8.5232  -13.9479   19.6420 C   0  0  1  0  0  0  0  0  0  0  0  0
    8.4790  -14.9295   20.7633 C   0  0  0  0  0  0  0  0  0  0  0  0
    8.4454  -14.5049   21.9323 O   0  0  0  0  0  0  0  0  0  0  0  0
    8.4747  -16.3422   20.5622 N   0  0  0  0  0  0  0  0  0  0  0  0
    8.4144  -17.3525   21.5631 C   0  0  1  0  0  0  0  0  0  0  0  0
    8.2455  -18.7670   20.9590 C   0  0  0  0  0  0  0  0  0  0  0  0
    7.3474  -18.7514   19.7411 C   0  0  0  0  0  0  0  0  0  0  0  0
    7.3085  -20.1194   19.1662 C   0  0  0  0  0  0  0  0  0  0  0  0
    6.8870  -21.0748   19.8649 O   0  0  0  0  0  0  0  0  0  0  0  0
    9.6378  -17.3545   22.4695 C   0  0  0  0  0  0  0  0  0  0  0  0
   10.6363  -16.8335   21.9731 O   0  0  0  0  0  0  0  0  0  0  0  0
    7.7253  -20.3915   17.8779 O   0  0  0  0  0  0  0  0  0  0  0  0
    7.3812  -11.6722   24.8869 N   0  0  0  0  0  0  0  0  0  0  0  0
    6.8567  -12.4124   25.9985 C   0  0  0  0  0  0  0  0  0  0  0  0
    5.7609  -11.9936   26.5299 N   0  0  0  0  0  0  0  0  0  0  0  0
    7.5340  -13.5371   26.4595 N   0  0  0  0  0  0  0  0  0  0  0  0
    8.8086  -13.9489   25.8855 C   0  0  0  0  0  0  0  0  0  0  0  0
    8.7985  -15.4543   25.7294 C   0  0  0  0  0  0  0  0  0  0  0  0
   10.0643  -15.9678   25.1693 C   0  0  0  0  0  0  0  0  0  0  0  0
   10.1902  -17.4452   24.9908 C   0  0  2  0  0  0  0  0  0  0  0  0
    9.6222  -17.8963   23.7539 N   0  0  0  0  0  0  0  0  0  0  0  0
    9.9127  -18.2425   26.1982 C   0  0  0  0  0  0  0  0  0  0  0  0
   10.6833  -18.5107   27.3132 O   0  0  0  0  0  0  0  0  0  0  0  0
    8.7512  -18.8230   26.3002 O   0  0  0  0  0  0  0  0  0  0  0  0
  1  2  1  0
  3  2  1  0
  4  3  1  0
  4  5  1  0
  5  6  1  1
  5  1  1  0
  6  7  2  0
  8  9  1  0
  8  6  1  0
  9 10  1  6
 11 10  1  0
 12 11  1  0
 13 12  2  0
 14 15  2  0
 14  9  1  0
 16 12  1  0
 18 17  1  0
 19 18  2  0
 20 18  1  0
 21 22  1  0
 21 20  1  0
 22 23  1  0
 24 23  1  1
 24 25  1  0
 24 26  1  0
 25 14  1  0
 26 27  1  0
 28 26  2  0
M  END
$$$$
