PER.pdb
     RDKit          3D

 28 28  0  0  1  0  0  0  0  0999 V2000
    9.2402  -13.3178   18.7952 N   0  0  0  0  0  0  0  0  0  0  0  0
    8.5107  -12.4104   17.9298 C   0  0  0  0  0  0  0  0  0  0  0  0
    7.1093  -12.9758   17.8533 C   0  0  0  0  0  0  0  0  0  0  0  0
    7.0292  -14.0079   18.9638 C   0  0  0  0  0  0  0  0  0  0  0  0
    8.2913  -13.7217   19.7566 C   0  0  1  0  0  0  0  0  0  0  0  0
    8.6683  -14.8882   20.6050 C   0  0  0  0  0  0  0  0  0  0  0  0
    7.8270  -15.3535   21.3947 O   0  0  0  0  0  0  0  0  0  0  0  0
    9.9557  -15.5019   20.5578 N   0  0  0  0  0  0  0  0  0  0  0  0
   10.3751  -16.6733   21.2492 C   0  0  1  0  0  0  0  0  0  0  0  0
   11.8583  -17.0175   20.9735 C   0  0  0  0  0  0  0  0  0  0  0  0
   12.2493  -18.3420   21.5924 C   0  0  0  0  0  0  0  0  0  0  0  0
   13.6761  -18.6059   21.2793 C   0  0  0  0  0  0  0  0  0  0  0  0
   14.4599  -18.9515   22.1985 O   0  0  0  0  0  0  0  0  0  0  0  0
   10.1723  -16.5705   22.7547 C   0  0  0  0  0  0  0  0  0  0  0  0
   10.6072  -15.5331   23.2543 O   0  0  0  0  0  0  0  0  0  0  0  0
   14.1874  -18.4829   20.0022 O   0  0  0  0  0  0  0  0  0  0  0  0
    6.8779  -22.7849   28.0242 N   0  0  0  0  0  0  0  0  0  0  0  0
    7.2509  -21.5317   28.6150 C   0  0  0  0  0  0  0  0  0  0  0  0
    8.1186  -21.5558   29.5663 N   0  0  0  0  0  0  0  0  0  0  0  0
    6.6755  -20.3524   28.1519 N   0  0  0  0  0  0  0  0  0  0  0  0
    6.7559  -19.9633   26.7498 C   0  0  0  0  0  0  0  0  0  0  0  0
    7.8597  -18.9386   26.6006 C   0  0  0  0  0  0  0  0  0  0  0  0
    8.1458  -18.6255   25.1866 C   0  0  0  0  0  0  0  0  0  0  0  0
    9.2736  -17.6885   24.9023 C   0  0  2  0  0  0  0  0  0  0  0  0
    9.5420  -17.5665   23.4992 N   0  0  0  0  0  0  0  0  0  0  0  0
   10.4287  -17.8144   25.8080 C   0  0  0  0  0  0  0  0  0  0  0  0
   10.7318  -17.1779   26.9963 O   0  0  0  0  0  0  0  0  0  0  0  0
   11.3675  -18.6614   25.4957 O   0  0  0  0  0  0  0  0  0  0  0  0
  1  2  1  0
  3  2  1  0
  4  3  1  0
  4  5  1  0
  5  6  1  6
  5  1  1  0
  6  7  2  0
  8  9  1  0
  8  6  1  0
  9 10  1  1
 11 10  1  0
 12 11  1  0
 13 12  2  0
 14 15  2  0
 14  9  1  0
 16 12  1  0
 18 17  1  0
 19 18  2  0
 20 18  1  0
 21 22  1  0
 21 20  1  0
 22 23  1  0
 24 23  1  6
 24 25  1  0
 24 26  1  0
 25 14  1  0
 26 27  1  0
 28 26  2  0
M  END
$$$$
