PER.pdb
     RDKit          3D

 28 28  0  0  1  0  0  0  0  0999 V2000
    7.3594  -14.4721   20.3355 N   0  0  0  0  0  0  0  0  0  0  0  0
    6.8795  -14.0318   19.0392 C   0  0  0  0  0  0  0  0  0  0  0  0
    7.4893  -12.6622   18.8347 C   0  0  0  0  0  0  0  0  0  0  0  0
    8.5666  -12.5373   19.8972 C   0  0  0  0  0  0  0  0  0  0  0  0
    8.6708  -13.9602   20.4144 C   0  0  1  0  0  0  0  0  0  0  0  0
    9.3124  -13.9967   21.7597 C   0  0  0  0  0  0  0  0  0  0  0  0
   10.5298  -13.7570   21.8512 O   0  0  0  0  0  0  0  0  0  0  0  0
    8.5957  -14.2964   22.9566 N   0  0  0  0  0  0  0  0  0  0  0  0
    9.1236  -14.3813   24.2758 C   0  0  1  0  0  0  0  0  0  0  0  0
    8.4665  -13.3620   25.2370 C   0  0  0  0  0  0  0  0  0  0  0  0
    6.9801  -13.6073   25.3811 C   0  0  0  0  0  0  0  0  0  0  0  0
    6.4315  -12.6239   26.3483 C   0  0  0  0  0  0  0  0  0  0  0  0
    5.4816  -11.8774   26.0034 O   0  0  0  0  0  0  0  0  0  0  0  0
    8.9839  -15.7738   24.8754 C   0  0  0  0  0  0  0  0  0  0  0  0
    8.1637  -16.4913   24.3033 O   0  0  0  0  0  0  0  0  0  0  0  0
    6.9302  -12.4904   27.6293 O   0  0  0  0  0  0  0  0  0  0  0  0
   11.5256  -22.1096   23.6746 N   0  0  0  0  0  0  0  0  0  0  0  0
   11.3457  -21.0105   22.7700 C   0  0  0  0  0  0  0  0  0  0  0  0
   10.5830  -21.1971   21.7492 N   0  0  0  0  0  0  0  0  0  0  0  0
   11.9877  -19.8011   23.0178 N   0  0  0  0  0  0  0  0  0  0  0  0
   12.8004  -19.5988   24.2104 C   0  0  0  0  0  0  0  0  0  0  0  0
   11.8814  -19.2526   25.3621 C   0  0  0  0  0  0  0  0  0  0  0  0
   11.2415  -17.9332   25.1908 C   0  0  0  0  0  0  0  0  0  0  0  0
   10.3475  -17.4530   26.2865 C   0  0  2  0  0  0  0  0  0  0  0  0
    9.7279  -16.1979   25.9755 N   0  0  0  0  0  0  0  0  0  0  0  0
   10.8837  -17.6288   27.6474 C   0  0  0  0  0  0  0  0  0  0  0  0
   10.9102  -18.7279   28.4843 O   0  0  0  0  0  0  0  0  0  0  0  0
   11.4510  -16.6075   28.2232 O   0  0  0  0  0  0  0  0  0  0  0  0
  1  2  1  0
  3  2  1  0
  4  3  1  0
  4  5  1  0
  5  6  1  1
  5  1  1  0
  6  7  2  0
  8  9  1  0
  8  6  1  0
  9 10  1  1
 11 10  1  0
 12 11  1  0
 13 12  2  0
 14 15  2  0
 14  9  1  0
 16 12  1  0
 18 17  1  0
 19 18  2  0
 20 18  1  0
 21 22  1  0
 21 20  1  0
 22 23  1  0
 24 23  1  6
 24 25  1  0
 24 26  1  0
 25 14  1  0
 26 27  1  0
 28 26  2  0
M  END
$$$$
