PER.pdb
     RDKit          3D

 28 28  0  0  1  0  0  0  0  0999 V2000
    8.3897  -14.1858   17.4588 N   0  0  0  0  0  0  0  0  0  0  0  0
    7.7081  -13.1962   16.6461 C   0  0  0  0  0  0  0  0  0  0  0  0
    6.6816  -12.5683   17.5635 C   0  0  0  0  0  0  0  0  0  0  0  0
    7.0665  -13.0120   18.9636 C   0  0  0  0  0  0  0  0  0  0  0  0
    8.4459  -13.6047   18.7422 C   0  0  1  0  0  0  0  0  0  0  0  0
    8.8253  -14.5140   19.8612 C   0  0  0  0  0  0  0  0  0  0  0  0
    8.7378  -14.0969   21.0301 O   0  0  0  0  0  0  0  0  0  0  0  0
    9.2886  -15.8482   19.6577 N   0  0  0  0  0  0  0  0  0  0  0  0
    9.5972  -16.8126   20.6581 C   0  0  1  0  0  0  0  0  0  0  0  0
    9.5137  -18.2615   20.1214 C   0  0  0  0  0  0  0  0  0  0  0  0
    9.9375  -19.2704   21.1667 C   0  0  0  0  0  0  0  0  0  0  0  0
    9.7912  -20.6322   20.5946 C   0  0  0  0  0  0  0  0  0  0  0  0
   10.2903  -20.8905   19.4709 O   0  0  0  0  0  0  0  0  0  0  0  0
   10.9742  -16.6010   21.2723 C   0  0  0  0  0  0  0  0  0  0  0  0
   11.9100  -16.9153   20.5373 O   0  0  0  0  0  0  0  0  0  0  0  0
    9.1169  -21.6418   21.2531 O   0  0  0  0  0  0  0  0  0  0  0  0
   10.4288  -21.3081   27.9891 N   0  0  0  0  0  0  0  0  0  0  0  0
   11.8102  -20.9230   28.0364 C   0  0  0  0  0  0  0  0  0  0  0  0
   12.5793  -21.5607   28.8489 N   0  0  0  0  0  0  0  0  0  0  0  0
   12.2675  -19.8932   27.2200 N   0  0  0  0  0  0  0  0  0  0  0  0
   11.3505  -19.0792   26.4325 C   0  0  0  0  0  0  0  0  0  0  0  0
   12.1655  -18.1850   25.5232 C   0  0  0  0  0  0  0  0  0  0  0  0
   11.3197  -17.4170   24.5882 C   0  0  0  0  0  0  0  0  0  0  0  0
   12.0066  -16.4927   23.6372 C   0  0  2  0  0  0  0  0  0  0  0  0
   11.1552  -16.0892   22.5564 N   0  0  0  0  0  0  0  0  0  0  0  0
   13.3955  -16.8588   23.3095 C   0  0  0  0  0  0  0  0  0  0  0  0
   14.1675  -17.9419   23.6835 O   0  0  0  0  0  0  0  0  0  0  0  0
   14.0743  -16.0666   22.5298 O   0  0  0  0  0  0  0  0  0  0  0  0
  1  2  1  0
  3  2  1  0
  4  3  1  0
  4  5  1  0
  5  6  1  1
  5  1  1  0
  6  7  2  0
  8  9  1  0
  8  6  1  0
  9 10  1  6
 11 10  1  0
 12 11  1  0
 13 12  2  0
 14 15  2  0
 14  9  1  0
 16 12  1  0
 18 17  1  0
 19 18  2  0
 20 18  1  0
 21 22  1  0
 21 20  1  0
 22 23  1  0
 24 23  1  6
 24 25  1  0
 24 26  1  0
 25 14  1  0
 26 27  1  0
 28 26  2  0
M  END
$$$$
