TCS.pdb
     RDKit          3D

 20 19  0  0  1  0  0  0  0  0999 V2000
   11.3382  -19.8787   19.2301 C   0  0  0  0  0  0  0  0  0  0  0  0
   10.8242  -18.8782   18.2668 C   0  0  1  0  0  0  0  0  0  0  0  0
   10.0875  -19.5429   17.2858 O   0  0  0  0  0  0  0  0  0  0  0  0
    9.9602  -17.8074   18.8464 C   0  0  2  0  0  0  0  0  0  0  0  0
    9.5117  -16.9715   17.7482 N   0  0  0  0  0  0  0  0  0  0  0  0
   10.5956  -16.9790   19.8612 C   0  0  0  0  0  0  0  0  0  0  0  0
   11.5126  -16.1818   19.5494 O   0  0  0  0  0  0  0  0  0  0  0  0
   10.1852  -17.0643   21.2109 N   0  0  0  0  0  0  0  0  0  0  0  0
   10.8618  -16.2251   22.2334 C   0  0  1  0  0  0  0  0  0  0  0  0
    9.9322  -16.2830   23.4307 C   0  0  0  0  0  0  0  0  0  0  0  0
   10.6811  -15.5527   24.8779 S   0  0  0  0  0  0  0  0  0  0  0  0
   12.1342  -16.8678   22.6061 C   0  0  0  0  0  0  0  0  0  0  0  0
   12.2134  -18.1223   22.8475 O   0  0  0  0  0  0  0  0  0  0  0  0
   15.6705  -16.0240   21.0405 O   0  0  0  0  0  0  0  0  0  0  0  0
   15.7642  -15.9898   22.4296 C   0  0  0  0  0  0  0  0  0  0  0  0
   14.6181  -16.7883   23.0205 C   0  0  2  0  0  0  0  0  0  0  0  0
   13.3415  -16.1544   22.7200 N   0  0  0  0  0  0  0  0  0  0  0  0
   14.7438  -16.8963   24.4961 C   0  0  0  0  0  0  0  0  0  0  0  0
   13.8685  -16.4176   25.2576 O   0  0  0  0  0  0  0  0  0  0  0  0
   15.8218  -17.5243   25.1114 O   0  0  0  0  0  0  0  0  0  0  0  0
  2  3  1  0
  2  1  1  1
  4  5  1  6
  4  2  1  0
  6  4  1  0
  7  6  2  0
  8  6  1  0
  9  8  1  0
  9 12  1  0
  9 10  1  1
 11 10  1  0
 12 17  1  0
 13 12  2  0
 14 15  1  0
 16 15  1  1
 16 18  1  0
 17 16  1  0
 18 20  1  0
 19 18  2  0
M  END
$$$$
