TCS.pdb
     RDKit          3D

 20 19  0  0  1  0  0  0  0  0999 V2000
    7.0144  -14.3574   17.6681 C   0  0  0  0  0  0  0  0  0  0  0  0
    7.5755  -14.5760   19.0210 C   0  0  1  0  0  0  0  0  0  0  0  0
    8.7567  -15.3087   18.8997 O   0  0  0  0  0  0  0  0  0  0  0  0
    7.8774  -13.3404   19.8029 C   0  0  2  0  0  0  0  0  0  0  0  0
    8.7804  -12.5327   19.0042 N   0  0  0  0  0  0  0  0  0  0  0  0
    8.4593  -13.5654   21.1185 C   0  0  0  0  0  0  0  0  0  0  0  0
    9.7042  -13.6221   21.2625 O   0  0  0  0  0  0  0  0  0  0  0  0
    7.6264  -13.7226   22.2493 N   0  0  0  0  0  0  0  0  0  0  0  0
    8.2388  -14.0115   23.5718 C   0  0  1  0  0  0  0  0  0  0  0  0
    7.1261  -13.7266   24.5626 C   0  0  0  0  0  0  0  0  0  0  0  0
    7.6146  -14.1332   26.2314 S   0  0  0  0  0  0  0  0  0  0  0  0
    8.5606  -15.4477   23.6403 C   0  0  0  0  0  0  0  0  0  0  0  0
    7.7465  -16.3441   23.2258 O   0  0  0  0  0  0  0  0  0  0  0  0
   12.3260  -16.7261   23.7011 O   0  0  0  0  0  0  0  0  0  0  0  0
   11.3341  -17.6584   23.4068 C   0  0  0  0  0  0  0  0  0  0  0  0
   10.1039  -17.3476   24.2377 C   0  0  2  0  0  0  0  0  0  0  0  0
    9.7758  -15.9305   24.1600 N   0  0  0  0  0  0  0  0  0  0  0  0
   10.3190  -17.6939   25.6655 C   0  0  0  0  0  0  0  0  0  0  0  0
   10.1753  -16.8349   26.5692 O   0  0  0  0  0  0  0  0  0  0  0  0
   10.6866  -18.9703   26.0789 O   0  0  0  0  0  0  0  0  0  0  0  0
  2  3  1  0
  2  1  1  6
  4  5  1  6
  4  2  1  0
  6  4  1  0
  7  6  2  0
  8  6  1  0
  9  8  1  0
  9 12  1  0
  9 10  1  1
 11 10  1  0
 12 17  1  0
 13 12  2  0
 14 15  1  0
 16 15  1  6
 16 18  1  0
 17 16  1  0
 18 20  1  0
 19 18  2  0
M  END
$$$$
