TCS.pdb
     RDKit          3D

 20 19  0  0  1  0  0  0  0  0999 V2000
    6.5592  -18.8999   17.8803 C   0  0  0  0  0  0  0  0  0  0  0  0
    7.4125  -18.2703   18.9139 C   0  0  1  0  0  0  0  0  0  0  0  0
    8.5638  -19.0429   19.0715 O   0  0  0  0  0  0  0  0  0  0  0  0
    7.8344  -16.8654   18.6358 C   0  0  2  0  0  0  0  0  0  0  0  0
    8.4461  -16.8496   17.3201 N   0  0  0  0  0  0  0  0  0  0  0  0
    8.7535  -16.2898   19.6074 C   0  0  0  0  0  0  0  0  0  0  0  0
    9.9927  -16.3396   19.4184 O   0  0  0  0  0  0  0  0  0  0  0  0
    8.2586  -15.6676   20.7758 N   0  0  0  0  0  0  0  0  0  0  0  0
    9.2136  -15.0685   21.7435 C   0  0  1  0  0  0  0  0  0  0  0  0
    8.3316  -14.2692   22.6839 C   0  0  0  0  0  0  0  0  0  0  0  0
    7.1232  -15.3076   23.4903 S   0  0  0  0  0  0  0  0  0  0  0  0
    9.8473  -16.1520   22.5150 C   0  0  0  0  0  0  0  0  0  0  0  0
    9.2705  -17.2800   22.6969 O   0  0  0  0  0  0  0  0  0  0  0  0
   13.8169  -15.8937   23.5429 O   0  0  0  0  0  0  0  0  0  0  0  0
   13.2678  -17.1627   23.3768 C   0  0  0  0  0  0  0  0  0  0  0  0
   11.8041  -17.1216   23.7716 C   0  0  2  0  0  0  0  0  0  0  0  0
   11.1210  -16.0247   23.0993 N   0  0  0  0  0  0  0  0  0  0  0  0
   11.6483  -16.9337   25.2363 C   0  0  0  0  0  0  0  0  0  0  0  0
   11.0411  -15.9384   25.7008 O   0  0  0  0  0  0  0  0  0  0  0  0
   12.1581  -17.8354   26.1649 O   0  0  0  0  0  0  0  0  0  0  0  0
  2  3  1  0
  2  1  1  6
  4  5  1  6
  4  2  1  0
  6  4  1  0
  7  6  2  0
  8  6  1  0
  9  8  1  0
  9 12  1  0
  9 10  1  1
 11 10  1  0
 12 17  1  0
 13 12  2  0
 14 15  1  0
 16 15  1  1
 16 18  1  0
 17 16  1  0
 18 20  1  0
 19 18  2  0
M  END
$$$$
