TCS.pdb
     RDKit          3D

 20 19  0  0  1  0  0  0  0  0999 V2000
    7.7919  -16.2696   18.4756 C   0  0  0  0  0  0  0  0  0  0  0  0
    8.3087  -14.9312   18.1086 C   0  0  1  0  0  0  0  0  0  0  0  0
    7.8832  -14.6296   16.8143 O   0  0  0  0  0  0  0  0  0  0  0  0
    7.8938  -13.8104   19.0034 C   0  0  2  0  0  0  0  0  0  0  0  0
    8.2412  -12.5708   18.3340 N   0  0  0  0  0  0  0  0  0  0  0  0
    8.4846  -13.8277   20.3341 C   0  0  0  0  0  0  0  0  0  0  0  0
    9.6899  -13.5221   20.4993 O   0  0  0  0  0  0  0  0  0  0  0  0
    7.7048  -14.1897   21.4559 N   0  0  0  0  0  0  0  0  0  0  0  0
    8.3732  -14.4362   22.7598 C   0  0  1  0  0  0  0  0  0  0  0  0
    7.2292  -14.4958   23.7541 C   0  0  0  0  0  0  0  0  0  0  0  0
    7.0828  -12.9739   24.6766 S   0  0  0  0  0  0  0  0  0  0  0  0
    9.0173  -15.7607   22.7180 C   0  0  0  0  0  0  0  0  0  0  0  0
    8.9994  -16.4889   21.6657 O   0  0  0  0  0  0  0  0  0  0  0  0
   12.9214  -17.6552   22.7626 O   0  0  0  0  0  0  0  0  0  0  0  0
   11.8952  -16.7168   22.8378 C   0  0  0  0  0  0  0  0  0  0  0  0
   10.7760  -17.2782   23.6937 C   0  0  2  0  0  0  0  0  0  0  0  0
    9.6931  -16.3125   23.8219 N   0  0  0  0  0  0  0  0  0  0  0  0
   11.2594  -17.6133   25.0571 C   0  0  0  0  0  0  0  0  0  0  0  0
   11.2573  -16.7563   25.9740 O   0  0  0  0  0  0  0  0  0  0  0  0
   11.7355  -18.8766   25.3929 O   0  0  0  0  0  0  0  0  0  0  0  0
  2  3  1  0
  2  1  1  1
  4  5  1  6
  4  2  1  0
  6  4  1  0
  7  6  2  0
  8  6  1  0
  9  8  1  0
  9 12  1  0
  9 10  1  1
 11 10  1  0
 12 17  1  0
 13 12  2  0
 14 15  1  0
 16 15  1  6
 16 18  1  0
 17 16  1  0
 18 20  1  0
 19 18  2  0
M  END
$$$$
