TCS.pdb
     RDKit          3D

 20 19  0  0  1  0  0  0  0  0999 V2000
    6.1361  -15.4787   19.9589 C   0  0  0  0  0  0  0  0  0  0  0  0
    6.7964  -15.4139   21.2828 C   0  0  1  0  0  0  0  0  0  0  0  0
    7.6145  -16.5351   21.4272 O   0  0  0  0  0  0  0  0  0  0  0  0
    7.6296  -14.2000   21.5307 C   0  0  2  0  0  0  0  0  0  0  0  0
    8.5675  -14.0864   20.4293 N   0  0  0  0  0  0  0  0  0  0  0  0
    8.3565  -14.1936   22.7923 C   0  0  0  0  0  0  0  0  0  0  0  0
    9.5780  -14.4774   22.8244 O   0  0  0  0  0  0  0  0  0  0  0  0
    7.6925  -13.8670   23.9963 N   0  0  0  0  0  0  0  0  0  0  0  0
    8.3893  -14.0722   25.2924 C   0  0  1  0  0  0  0  0  0  0  0  0
    7.5712  -13.2644   26.2819 C   0  0  0  0  0  0  0  0  0  0  0  0
    5.8305  -13.6423   26.1560 S   0  0  0  0  0  0  0  0  0  0  0  0
    8.2885  -15.4945   25.6634 C   0  0  0  0  0  0  0  0  0  0  0  0
    7.2362  -16.1831   25.4253 O   0  0  0  0  0  0  0  0  0  0  0  0
   11.2159  -17.9317   25.3410 O   0  0  0  0  0  0  0  0  0  0  0  0
    9.9432  -18.4460   25.5760 C   0  0  0  0  0  0  0  0  0  0  0  0
    9.2604  -17.6051   26.6376 C   0  0  2  0  0  0  0  0  0  0  0  0
    9.3337  -16.1905   26.2984 N   0  0  0  0  0  0  0  0  0  0  0  0
    9.8980  -17.7951   27.9651 C   0  0  0  0  0  0  0  0  0  0  0  0
   10.4307  -16.8339   28.5714 O   0  0  0  0  0  0  0  0  0  0  0  0
    9.9419  -19.0298   28.6045 O   0  0  0  0  0  0  0  0  0  0  0  0
  2  3  1  0
  2  1  1  6
  4  5  1  6
  4  2  1  0
  6  4  1  0
  7  6  2  0
  8  6  1  0
  9  8  1  0
  9 12  1  0
  9 10  1  1
 11 10  1  0
 12 17  1  0
 13 12  2  0
 14 15  1  0
 16 15  1  6
 16 18  1  0
 17 16  1  0
 18 20  1  0
 19 18  2  0
M  END
$$$$
