TCS.pdb
     RDKit          3D

 20 19  0  0  1  0  0  0  0  0999 V2000
    8.0576  -16.0389   19.5073 C   0  0  0  0  0  0  0  0  0  0  0  0
    8.3001  -15.1464   20.6639 C   0  0  1  0  0  0  0  0  0  0  0  0
    7.4143  -14.0709   20.5893 O   0  0  0  0  0  0  0  0  0  0  0  0
    8.1486  -15.7762   22.0092 C   0  0  2  0  0  0  0  0  0  0  0  0
    6.7933  -16.2870   22.0978 N   0  0  0  0  0  0  0  0  0  0  0  0
    8.4126  -14.8967   23.1392 C   0  0  0  0  0  0  0  0  0  0  0  0
    9.5653  -14.4429   23.3368 O   0  0  0  0  0  0  0  0  0  0  0  0
    7.3711  -14.5442   24.0270 N   0  0  0  0  0  0  0  0  0  0  0  0
    7.6917  -13.7828   25.2619 C   0  0  1  0  0  0  0  0  0  0  0  0
    6.3716  -13.1480   25.6560 C   0  0  0  0  0  0  0  0  0  0  0  0
    6.5285  -12.1835   27.1505 S   0  0  0  0  0  0  0  0  0  0  0  0
    8.0789  -14.7350   26.3174 C   0  0  0  0  0  0  0  0  0  0  0  0
    8.4181  -14.3458   27.4886 O   0  0  0  0  0  0  0  0  0  0  0  0
    8.4027  -18.7545   25.4970 O   0  0  0  0  0  0  0  0  0  0  0  0
    7.9266  -18.4753   26.7756 C   0  0  0  0  0  0  0  0  0  0  0  0
    8.3789  -17.0843   27.1768 C   0  0  2  0  0  0  0  0  0  0  0  0
    8.1008  -16.1272   26.1146 N   0  0  0  0  0  0  0  0  0  0  0  0
    9.8371  -17.0536   27.4556 C   0  0  0  0  0  0  0  0  0  0  0  0
   10.6191  -16.3801   26.7415 O   0  0  0  0  0  0  0  0  0  0  0  0
   10.4129  -17.7583   28.5078 O   0  0  0  0  0  0  0  0  0  0  0  0
  2  3  1  0
  2  1  1  6
  4  5  1  1
  4  2  1  0
  6  4  1  0
  7  6  2  0
  8  6  1  0
  9  8  1  0
  9 12  1  0
  9 10  1  1
 11 10  1  0
 12 17  1  0
 13 12  2  0
 14 15  1  0
 16 15  1  6
 16 18  1  0
 17 16  1  0
 18 20  1  0
 19 18  2  0
M  END
$$$$
