TCS.pdb
     RDKit          3D

 20 19  0  0  1  0  0  0  0  0999 V2000
    6.1619  -15.4792   20.2915 C   0  0  0  0  0  0  0  0  0  0  0  0
    6.8412  -15.4385   21.6067 C   0  0  1  0  0  0  0  0  0  0  0  0
    7.7824  -16.4676   21.6533 O   0  0  0  0  0  0  0  0  0  0  0  0
    7.5391  -14.1600   21.9345 C   0  0  2  0  0  0  0  0  0  0  0  0
    8.5377  -13.9359   20.9059 N   0  0  0  0  0  0  0  0  0  0  0  0
    8.1716  -14.1168   23.2453 C   0  0  0  0  0  0  0  0  0  0  0  0
    9.4050  -14.3127   23.3635 O   0  0  0  0  0  0  0  0  0  0  0  0
    7.4013  -13.8532   24.4004 N   0  0  0  0  0  0  0  0  0  0  0  0
    8.0260  -13.9932   25.7413 C   0  0  1  0  0  0  0  0  0  0  0  0
    6.9948  -13.4123   26.6901 C   0  0  0  0  0  0  0  0  0  0  0  0
    6.9582  -11.6290   26.6062 S   0  0  0  0  0  0  0  0  0  0  0  0
    8.1764  -15.4270   26.0454 C   0  0  0  0  0  0  0  0  0  0  0  0
    7.1966  -16.2451   25.9515 O   0  0  0  0  0  0  0  0  0  0  0  0
   11.6109  -17.3330   25.5958 O   0  0  0  0  0  0  0  0  0  0  0  0
   10.4502  -18.0863   25.7535 C   0  0  0  0  0  0  0  0  0  0  0  0
    9.5561  -17.4059   26.7723 C   0  0  2  0  0  0  0  0  0  0  0  0
    9.3977  -15.9932   26.4549 N   0  0  0  0  0  0  0  0  0  0  0  0
   10.1244  -17.5108   28.1401 C   0  0  0  0  0  0  0  0  0  0  0  0
   10.3873  -16.4844   28.8129 O   0  0  0  0  0  0  0  0  0  0  0  0
   10.3945  -18.7333   28.7466 O   0  0  0  0  0  0  0  0  0  0  0  0
  2  3  1  0
  2  1  1  6
  4  5  1  6
  4  2  1  0
  6  4  1  0
  7  6  2  0
  8  6  1  0
  9  8  1  0
  9 12  1  0
  9 10  1  1
 11 10  1  0
 12 17  1  0
 13 12  2  0
 14 15  1  0
 16 15  1  6
 16 18  1  0
 17 16  1  0
 18 20  1  0
 19 18  2  0
M  END
$$$$
