TCS.pdb
     RDKit          3D

 20 19  0  0  1  0  0  0  0  0999 V2000
    8.1255  -16.8842   17.7581 C   0  0  0  0  0  0  0  0  0  0  0  0
    8.3915  -15.5086   17.2784 C   0  0  1  0  0  0  0  0  0  0  0  0
    7.7118  -15.3180   16.0748 O   0  0  0  0  0  0  0  0  0  0  0  0
    7.9957  -14.4114   18.2104 C   0  0  2  0  0  0  0  0  0  0  0  0
    8.1668  -13.1576   17.5003 N   0  0  0  0  0  0  0  0  0  0  0  0
    8.7343  -14.3658   19.4644 C   0  0  0  0  0  0  0  0  0  0  0  0
    9.9627  -14.1114   19.4705 O   0  0  0  0  0  0  0  0  0  0  0  0
    8.0740  -14.6082   20.6901 N   0  0  0  0  0  0  0  0  0  0  0  0
    8.8599  -14.6261   21.9509 C   0  0  1  0  0  0  0  0  0  0  0  0
    7.8064  -14.5935   23.0417 C   0  0  0  0  0  0  0  0  0  0  0  0
    7.1422  -12.9507   23.2623 S   0  0  0  0  0  0  0  0  0  0  0  0
    9.5784  -15.9092   22.0420 C   0  0  0  0  0  0  0  0  0  0  0  0
    9.0594  -17.0058   21.6342 O   0  0  0  0  0  0  0  0  0  0  0  0
   13.6199  -15.9903   22.8402 O   0  0  0  0  0  0  0  0  0  0  0  0
   13.0531  -17.0183   22.0908 C   0  0  0  0  0  0  0  0  0  0  0  0
   11.6370  -17.2596   22.5774 C   0  0  2  0  0  0  0  0  0  0  0  0
   10.8751  -16.0181   22.5773 N   0  0  0  0  0  0  0  0  0  0  0  0
   11.6296  -17.8055   23.9582 C   0  0  0  0  0  0  0  0  0  0  0  0
   11.0766  -17.1837   24.8978 O   0  0  0  0  0  0  0  0  0  0  0  0
   12.2255  -19.0189   24.2865 O   0  0  0  0  0  0  0  0  0  0  0  0
  2  3  1  0
  2  1  1  1
  4  5  1  6
  4  2  1  0
  6  4  1  0
  7  6  2  0
  8  6  1  0
  9  8  1  0
  9 12  1  0
  9 10  1  1
 11 10  1  0
 12 17  1  0
 13 12  2  0
 14 15  1  0
 16 15  1  1
 16 18  1  0
 17 16  1  0
 18 20  1  0
 19 18  2  0
M  END
$$$$
