TCS.pdb
     RDKit          3D

 20 19  0  0  1  0  0  0  0  0999 V2000
    6.5886  -14.5752   18.6565 C   0  0  0  0  0  0  0  0  0  0  0  0
    7.2387  -14.6742   19.9833 C   0  0  1  0  0  0  0  0  0  0  0  0
    8.4737  -15.3047   19.8277 O   0  0  0  0  0  0  0  0  0  0  0  0
    7.4679  -13.3787   20.6891 C   0  0  2  0  0  0  0  0  0  0  0  0
    8.1799  -12.5069   19.7732 N   0  0  0  0  0  0  0  0  0  0  0  0
    8.2048  -13.4761   21.9411 C   0  0  0  0  0  0  0  0  0  0  0  0
    9.4572  -13.4043   21.9497 O   0  0  0  0  0  0  0  0  0  0  0  0
    7.5158  -13.6529   23.1622 N   0  0  0  0  0  0  0  0  0  0  0  0
    8.2894  -13.8873   24.4089 C   0  0  1  0  0  0  0  0  0  0  0  0
    7.3229  -13.5148   25.5172 C   0  0  0  0  0  0  0  0  0  0  0  0
    5.7696  -14.3798   25.3504 S   0  0  0  0  0  0  0  0  0  0  0  0
    8.5843  -15.3267   24.5189 C   0  0  0  0  0  0  0  0  0  0  0  0
    7.8484  -16.2127   23.9608 O   0  0  0  0  0  0  0  0  0  0  0  0
   12.1826  -16.7419   24.6689 O   0  0  0  0  0  0  0  0  0  0  0  0
   11.1369  -17.6418   24.4788 C   0  0  0  0  0  0  0  0  0  0  0  0
    9.9771  -17.2451   25.3720 C   0  0  2  0  0  0  0  0  0  0  0  0
    9.6873  -15.8240   25.2372 N   0  0  0  0  0  0  0  0  0  0  0  0
   10.2801  -17.5209   26.7992 C   0  0  0  0  0  0  0  0  0  0  0  0
   10.3192  -16.5937   27.6442 O   0  0  0  0  0  0  0  0  0  0  0  0
   10.5345  -18.8027   27.2762 O   0  0  0  0  0  0  0  0  0  0  0  0
  2  3  1  0
  2  1  1  6
  4  5  1  6
  4  2  1  0
  6  4  1  0
  7  6  2  0
  8  6  1  0
  9  8  1  0
  9 12  1  0
  9 10  1  1
 11 10  1  0
 12 17  1  0
 13 12  2  0
 14 15  1  0
 16 15  1  6
 16 18  1  0
 17 16  1  0
 18 20  1  0
 19 18  2  0
M  END
$$$$
