TCS.pdb
     RDKit          3D

 20 19  0  0  1  0  0  0  0  0999 V2000
    6.6772  -16.2125   20.4960 C   0  0  0  0  0  0  0  0  0  0  0  0
    7.3634  -15.7545   21.7258 C   0  0  1  0  0  0  0  0  0  0  0  0
    8.7062  -16.1265   21.6508 O   0  0  0  0  0  0  0  0  0  0  0  0
    7.3056  -14.2861   21.9895 C   0  0  2  0  0  0  0  0  0  0  0  0
    7.8943  -13.6172   20.8443 N   0  0  0  0  0  0  0  0  0  0  0  0
    7.9738  -13.8476   23.2065 C   0  0  0  0  0  0  0  0  0  0  0  0
    9.1688  -13.4671   23.1747 O   0  0  0  0  0  0  0  0  0  0  0  0
    7.2821  -13.8458   24.4389 N   0  0  0  0  0  0  0  0  0  0  0  0
    8.0394  -13.6371   25.7001 C   0  0  1  0  0  0  0  0  0  0  0  0
    6.9983  -13.1155   26.6723 C   0  0  0  0  0  0  0  0  0  0  0  0
    6.6629  -11.3820   26.4057 S   0  0  0  0  0  0  0  0  0  0  0  0
    8.5132  -14.9437   26.1889 C   0  0  0  0  0  0  0  0  0  0  0  0
    7.7557  -15.9753   26.2053 O   0  0  0  0  0  0  0  0  0  0  0  0
   11.4683  -16.7068   25.1133 O   0  0  0  0  0  0  0  0  0  0  0  0
   11.6145  -16.8018   26.4951 C   0  0  0  0  0  0  0  0  0  0  0  0
   10.3001  -16.4336   27.1561 C   0  0  2  0  0  0  0  0  0  0  0  0
    9.8209  -15.1482   26.6662 N   0  0  0  0  0  0  0  0  0  0  0  0
   10.4486  -16.3393   28.6305 C   0  0  0  0  0  0  0  0  0  0  0  0
   10.7879  -17.3368   29.3125 O   0  0  0  0  0  0  0  0  0  0  0  0
   10.2241  -15.1588   29.3314 O   0  0  0  0  0  0  0  0  0  0  0  0
  2  3  1  0
  2  1  1  6
  4  5  1  6
  4  2  1  0
  6  4  1  0
  7  6  2  0
  8  6  1  0
  9  8  1  0
  9 12  1  0
  9 10  1  1
 11 10  1  0
 12 17  1  0
 13 12  2  0
 14 15  1  0
 16 15  1  6
 16 18  1  0
 17 16  1  0
 18 20  1  0
 19 18  2  0
M  END
$$$$
