TCS.pdb
     RDKit          3D

 20 19  0  0  1  0  0  0  0  0999 V2000
    5.9951  -17.5074   18.5550 C   0  0  0  0  0  0  0  0  0  0  0  0
    6.7394  -17.1603   19.7873 C   0  0  1  0  0  0  0  0  0  0  0  0
    7.7589  -18.0955   19.9696 O   0  0  0  0  0  0  0  0  0  0  0  0
    7.3526  -15.7992   19.8103 C   0  0  2  0  0  0  0  0  0  0  0  0
    8.2624  -15.7153   18.6830 N   0  0  0  0  0  0  0  0  0  0  0  0
    8.0621  -15.4589   21.0354 C   0  0  0  0  0  0  0  0  0  0  0  0
    9.2981  -15.6514   21.1294 O   0  0  0  0  0  0  0  0  0  0  0  0
    7.3645  -14.9072   22.1337 N   0  0  0  0  0  0  0  0  0  0  0  0
    8.1028  -14.5964   23.3850 C   0  0  1  0  0  0  0  0  0  0  0  0
    7.0669  -13.9246   24.2663 C   0  0  0  0  0  0  0  0  0  0  0  0
    7.7226  -13.5591   25.8865 S   0  0  0  0  0  0  0  0  0  0  0  0
    8.5020  -15.8619   24.0253 C   0  0  0  0  0  0  0  0  0  0  0  0
    7.6795  -16.8300   24.1818 O   0  0  0  0  0  0  0  0  0  0  0  0
   12.3922  -16.8888   24.1745 O   0  0  0  0  0  0  0  0  0  0  0  0
   11.4380  -17.8989   24.2685 C   0  0  0  0  0  0  0  0  0  0  0  0
   10.2416  -17.3760   25.0400 C   0  0  2  0  0  0  0  0  0  0  0  0
    9.8047  -16.0940   24.5038 N   0  0  0  0  0  0  0  0  0  0  0  0
   10.5693  -17.1880   26.4760 C   0  0  0  0  0  0  0  0  0  0  0  0
   10.4633  -16.0634   27.0229 O   0  0  0  0  0  0  0  0  0  0  0  0
   11.0061  -18.2308   27.2867 O   0  0  0  0  0  0  0  0  0  0  0  0
  2  3  1  0
  2  1  1  6
  4  5  1  6
  4  2  1  0
  6  4  1  0
  7  6  2  0
  8  6  1  0
  9  8  1  0
  9 12  1  0
  9 10  1  1
 11 10  1  0
 12 17  1  0
 13 12  2  0
 14 15  1  0
 16 15  1  6
 16 18  1  0
 17 16  1  0
 18 20  1  0
 19 18  2  0
M  END
$$$$
