TCS.pdb
     RDKit          3D

 20 19  0  0  1  0  0  0  0  0999 V2000
    9.0211  -15.6523   17.5173 C   0  0  0  0  0  0  0  0  0  0  0  0
    7.6745  -15.2322   17.9678 C   0  0  1  0  0  0  0  0  0  0  0  0
    7.0834  -16.2941   18.6534 O   0  0  0  0  0  0  0  0  0  0  0  0
    7.6349  -14.0316   18.8545 C   0  0  2  0  0  0  0  0  0  0  0  0
    8.1201  -12.9049   18.0794 N   0  0  0  0  0  0  0  0  0  0  0  0
    8.4046  -14.1438   20.0854 C   0  0  0  0  0  0  0  0  0  0  0  0
    9.6453  -13.9588   20.0793 O   0  0  0  0  0  0  0  0  0  0  0  0
    7.7608  -14.4628   21.3024 N   0  0  0  0  0  0  0  0  0  0  0  0
    8.5647  -14.5655   22.5477 C   0  0  1  0  0  0  0  0  0  0  0  0
    7.5266  -14.6190   23.6524 C   0  0  0  0  0  0  0  0  0  0  0  0
    7.0468  -12.9822   24.1808 S   0  0  0  0  0  0  0  0  0  0  0  0
    9.2926  -15.8464   22.5364 C   0  0  0  0  0  0  0  0  0  0  0  0
    8.7529  -16.9277   22.1149 O   0  0  0  0  0  0  0  0  0  0  0  0
   13.3606  -15.9554   23.2150 O   0  0  0  0  0  0  0  0  0  0  0  0
   12.7909  -16.9512   22.4253 C   0  0  0  0  0  0  0  0  0  0  0  0
   11.3767  -17.2128   22.9069 C   0  0  2  0  0  0  0  0  0  0  0  0
   10.6213  -15.9697   22.9826 N   0  0  0  0  0  0  0  0  0  0  0  0
   11.3754  -17.8366   24.2544 C   0  0  0  0  0  0  0  0  0  0  0  0
   10.8431  -17.2606   25.2343 O   0  0  0  0  0  0  0  0  0  0  0  0
   11.9546  -19.0761   24.5060 O   0  0  0  0  0  0  0  0  0  0  0  0
  2  3  1  0
  2  1  1  1
  4  5  1  6
  4  2  1  0
  6  4  1  0
  7  6  2  0
  8  6  1  0
  9  8  1  0
  9 12  1  0
  9 10  1  1
 11 10  1  0
 12 17  1  0
 13 12  2  0
 14 15  1  0
 16 15  1  1
 16 18  1  0
 17 16  1  0
 18 20  1  0
 19 18  2  0
M  END
$$$$
