MCT.pdb
     RDKit          3D

 22 21  0  0  1  0  0  0  0  0999 V2000
    0.4674  -18.8351   23.2201 C   0  0  0  0  0  0  0  0  0  0  0  0
    1.0260  -20.0361   22.0147 S   0  0  0  0  0  0  0  0  0  0  0  0
    2.2515  -19.4095   20.8857 C   0  0  0  0  0  0  0  0  0  0  0  0
    3.3407  -18.6100   21.5190 C   0  0  0  0  0  0  0  0  0  0  0  0
    4.5328  -19.3789   21.9833 C   0  0  2  0  0  0  0  0  0  0  0  0
    4.2272  -20.2925   23.0746 N   0  0  0  0  0  0  0  0  0  0  0  0
    5.4983  -18.3507   22.5218 C   0  0  0  0  0  0  0  0  0  0  0  0
    5.9456  -17.4898   21.7317 O   0  0  0  0  0  0  0  0  0  0  0  0
    5.9065  -18.3247   23.8567 N   0  0  0  0  0  0  0  0  0  0  0  0
    6.9195  -17.3577   24.2666 C   0  0  1  0  0  0  0  0  0  0  0  0
    6.4114  -16.8166   25.5890 C   0  0  0  0  0  0  0  0  0  0  0  0
    7.6045  -15.7707   26.4365 S   0  0  0  0  0  0  0  0  0  0  0  0
    8.2467  -17.9633   24.3327 C   0  0  0  0  0  0  0  0  0  0  0  0
    8.3847  -19.0374   24.9945 O   0  0  0  0  0  0  0  0  0  0  0  0
   10.4650  -18.5943   21.2396 C   0  0  0  0  0  0  0  0  0  0  0  0
   11.3191  -17.9289   22.2972 C   0  0  1  0  0  0  0  0  0  0  0  0
   11.3890  -16.5516   21.9986 O   0  0  0  0  0  0  0  0  0  0  0  0
   10.6748  -18.0145   23.6621 C   0  0  2  0  0  0  0  0  0  0  0  0
    9.3572  -17.4082   23.6977 N   0  0  0  0  0  0  0  0  0  0  0  0
   11.5476  -17.2829   24.6064 C   0  0  0  0  0  0  0  0  0  0  0  0
   11.0861  -16.1408   25.2343 O   0  0  0  0  0  0  0  0  0  0  0  0
   12.7254  -17.6651   24.8713 O   0  0  0  0  0  0  0  0  0  0  0  0
  2  1  1  0
  3  2  1  0
  3  4  1  0
  4  5  1  0
  5  7  1  0
  5  6  1  1
  7  9  1  0
  7  8  2  0
  9 10  1  0
 10 13  1  0
 10 11  1  1
 11 12  1  0
 13 14  2  0
 16 15  1  6
 16 18  1  0
 16 17  1  0
 18 20  1  0
 19 13  1  0
 18 19  1  6
 20 21  1  0
 22 20  2  0
M  END
$$$$
