MCT.pdb
     RDKit          3D

 22 21  0  0  1  0  0  0  0  0999 V2000
    6.6530  -11.7992   26.0694 C   0  0  0  0  0  0  0  0  0  0  0  0
    6.3035  -13.3255   26.9385 S   0  0  0  0  0  0  0  0  0  0  0  0
    6.4351  -14.7813   25.9225 C   0  0  0  0  0  0  0  0  0  0  0  0
    7.0451  -14.5584   24.5791 C   0  0  0  0  0  0  0  0  0  0  0  0
    7.1271  -15.7546   23.6901 C   0  0  2  0  0  0  0  0  0  0  0  0
    6.0227  -16.6824   23.8864 N   0  0  0  0  0  0  0  0  0  0  0  0
    8.3907  -16.4767   24.0917 C   0  0  0  0  0  0  0  0  0  0  0  0
    8.2935  -17.4426   24.8810 O   0  0  0  0  0  0  0  0  0  0  0  0
    9.6523  -16.1103   23.6190 N   0  0  0  0  0  0  0  0  0  0  0  0
   10.8219  -16.8504   24.0812 C   0  0  1  0  0  0  0  0  0  0  0  0
   11.7758  -16.8229   22.9027 C   0  0  0  0  0  0  0  0  0  0  0  0
   11.0601  -16.0912   21.4235 S   0  0  0  0  0  0  0  0  0  0  0  0
   11.3667  -16.2829   25.3115 C   0  0  0  0  0  0  0  0  0  0  0  0
   12.3336  -15.4659   25.2195 O   0  0  0  0  0  0  0  0  0  0  0  0
   10.6630  -13.7104   27.6202 C   0  0  0  0  0  0  0  0  0  0  0  0
   10.5368  -14.9941   28.4122 C   0  0  1  0  0  0  0  0  0  0  0  0
    9.2060  -15.4489   28.2966 O   0  0  0  0  0  0  0  0  0  0  0  0
   11.3922  -16.0929   27.8237 C   0  0  2  0  0  0  0  0  0  0  0  0
   10.8645  -16.6031   26.5724 N   0  0  0  0  0  0  0  0  0  0  0  0
   11.4177  -17.2016   28.8028 C   0  0  0  0  0  0  0  0  0  0  0  0
   12.0054  -17.0196   30.0411 O   0  0  0  0  0  0  0  0  0  0  0  0
   10.9136  -18.3357   28.5515 O   0  0  0  0  0  0  0  0  0  0  0  0
  2  1  1  0
  3  2  1  0
  3  4  1  0
  4  5  1  0
  5  7  1  0
  5  6  1  1
  7  9  1  0
  7  8  2  0
  9 10  1  0
 10 13  1  0
 10 11  1  6
 11 12  1  0
 13 14  2  0
 16 15  1  6
 16 18  1  0
 16 17  1  0
 18 20  1  0
 19 13  1  0
 18 19  1  6
 20 21  1  0
 22 20  2  0
M  END
$$$$
