MCT.pdb
     RDKit          3D

 22 21  0  0  1  0  0  0  0  0999 V2000
    6.2866  -11.5160   26.1146 C   0  0  0  0  0  0  0  0  0  0  0  0
    5.9541  -13.2742   26.0409 S   0  0  0  0  0  0  0  0  0  0  0  0
    6.5154  -14.0530   24.5417 C   0  0  0  0  0  0  0  0  0  0  0  0
    7.8987  -13.6845   24.1207 C   0  0  0  0  0  0  0  0  0  0  0  0
    8.6636  -14.7376   23.3900 C   0  0  2  0  0  0  0  0  0  0  0  0
    7.8033  -15.7389   22.7765 N   0  0  0  0  0  0  0  0  0  0  0  0
    9.4902  -15.4437   24.4376 C   0  0  0  0  0  0  0  0  0  0  0  0
    9.8248  -16.6304   24.2248 O   0  0  0  0  0  0  0  0  0  0  0  0
    9.8918  -14.8272   25.6241 N   0  0  0  0  0  0  0  0  0  0  0  0
   10.9227  -15.4642   26.4370 C   0  0  1  0  0  0  0  0  0  0  0  0
   11.2254  -14.4514   27.5243 C   0  0  0  0  0  0  0  0  0  0  0  0
    9.7853  -14.0101   28.5078 S   0  0  0  0  0  0  0  0  0  0  0  0
   10.4896  -16.7683   26.9311 C   0  0  0  0  0  0  0  0  0  0  0  0
    9.2595  -16.9318   27.1971 O   0  0  0  0  0  0  0  0  0  0  0  0
   10.9742  -20.3775   25.4060 C   0  0  0  0  0  0  0  0  0  0  0  0
   11.6150  -20.2611   26.7722 C   0  0  1  0  0  0  0  0  0  0  0  0
   12.9623  -19.8827   26.5914 O   0  0  0  0  0  0  0  0  0  0  0  0
   10.9884  -19.1502   27.5838 C   0  0  2  0  0  0  0  0  0  0  0  0
   11.3728  -17.8314   27.1172 N   0  0  0  0  0  0  0  0  0  0  0  0
   11.4598  -19.3048   28.9774 C   0  0  0  0  0  0  0  0  0  0  0  0
   11.0922  -20.4153   29.7145 O   0  0  0  0  0  0  0  0  0  0  0  0
   12.2022  -18.4456   29.5381 O   0  0  0  0  0  0  0  0  0  0  0  0
  2  1  1  0
  3  2  1  0
  3  4  1  0
  4  5  1  0
  5  7  1  0
  5  6  1  1
  7  9  1  0
  7  8  2  0
  9 10  1  0
 10 13  1  0
 10 11  1  1
 11 12  1  0
 13 14  2  0
 16 15  1  6
 16 18  1  0
 16 17  1  0
 18 20  1  0
 19 13  1  0
 18 19  1  6
 20 21  1  0
 22 20  2  0
M  END
$$$$
