MCT.pdb
     RDKit          3D

 22 21  0  0  1  0  0  0  0  0999 V2000
   10.0747  -14.0050   30.1520 C   0  0  0  0  0  0  0  0  0  0  0  0
   10.4811  -15.7487   30.1932 S   0  0  0  0  0  0  0  0  0  0  0  0
    9.2666  -16.7918   29.4147 C   0  0  0  0  0  0  0  0  0  0  0  0
    8.7734  -16.3055   28.0930 C   0  0  0  0  0  0  0  0  0  0  0  0
    7.6792  -17.1050   27.4674 C   0  0  2  0  0  0  0  0  0  0  0  0
    8.0390  -18.5022   27.2734 N   0  0  0  0  0  0  0  0  0  0  0  0
    7.4672  -16.5065   26.0977 C   0  0  0  0  0  0  0  0  0  0  0  0
    7.4394  -17.2788   25.1136 O   0  0  0  0  0  0  0  0  0  0  0  0
    7.3022  -15.1358   25.8901 N   0  0  0  0  0  0  0  0  0  0  0  0
    7.2522  -14.6297   24.5224 C   0  0  1  0  0  0  0  0  0  0  0  0
    6.8908  -13.1649   24.6749 C   0  0  0  0  0  0  0  0  0  0  0  0
    5.7802  -12.8448   26.0532 S   0  0  0  0  0  0  0  0  0  0  0  0
    8.5056  -14.8710   23.8127 C   0  0  0  0  0  0  0  0  0  0  0  0
    9.5774  -14.4114   24.3133 O   0  0  0  0  0  0  0  0  0  0  0  0
   10.3390  -18.1219   23.0617 C   0  0  0  0  0  0  0  0  0  0  0  0
    9.9331  -17.4519   21.7666 C   0  0  1  0  0  0  0  0  0  0  0  0
    8.6458  -17.9147   21.4208 O   0  0  0  0  0  0  0  0  0  0  0  0
    9.7926  -15.9565   21.9384 C   0  0  2  0  0  0  0  0  0  0  0  0
    8.5650  -15.5843   22.6159 N   0  0  0  0  0  0  0  0  0  0  0  0
    9.7753  -15.3588   20.5853 C   0  0  0  0  0  0  0  0  0  0  0  0
   10.9251  -15.3480   19.8174 O   0  0  0  0  0  0  0  0  0  0  0  0
    8.7304  -14.8449   20.0877 O   0  0  0  0  0  0  0  0  0  0  0  0
  2  1  1  0
  3  2  1  0
  3  4  1  0
  4  5  1  0
  5  7  1  0
  5  6  1  6
  7  9  1  0
  7  8  2  0
  9 10  1  0
 10 13  1  0
 10 11  1  1
 11 12  1  0
 13 14  2  0
 16 15  1  1
 16 18  1  0
 16 17  1  0
 18 20  1  0
 19 13  1  0
 18 19  1  6
 20 21  1  0
 22 20  2  0
M  END
$$$$
