MCT.pdb
     RDKit          3D

 22 21  0  0  1  0  0  0  0  0999 V2000
    8.2537  -11.6020   19.5822 C   0  0  0  0  0  0  0  0  0  0  0  0
    8.0043  -12.6416   18.1456 S   0  0  0  0  0  0  0  0  0  0  0  0
    8.3769  -14.3599   18.4243 C   0  0  0  0  0  0  0  0  0  0  0  0
    8.1135  -14.8443   19.8108 C   0  0  0  0  0  0  0  0  0  0  0  0
    8.3549  -16.2971   20.0542 C   0  0  2  0  0  0  0  0  0  0  0  0
    7.5049  -17.1559   19.2424 N   0  0  0  0  0  0  0  0  0  0  0  0
    7.9809  -16.5376   21.4970 C   0  0  0  0  0  0  0  0  0  0  0  0
    6.8136  -16.9103   21.7502 O   0  0  0  0  0  0  0  0  0  0  0  0
    8.8810  -16.3616   22.5496 N   0  0  0  0  0  0  0  0  0  0  0  0
    8.3996  -16.4973   23.9204 C   0  0  1  0  0  0  0  0  0  0  0  0
    9.0050  -17.8001   24.4059 C   0  0  0  0  0  0  0  0  0  0  0  0
   10.7964  -17.8543   24.2522 S   0  0  0  0  0  0  0  0  0  0  0  0
    8.7458  -15.3326   24.7306 C   0  0  0  0  0  0  0  0  0  0  0  0
    9.8787  -14.7900   24.5493 O   0  0  0  0  0  0  0  0  0  0  0  0
    6.5845  -11.9689   25.6310 C   0  0  0  0  0  0  0  0  0  0  0  0
    6.9745  -12.8103   26.8271 C   0  0  1  0  0  0  0  0  0  0  0  0
    5.9272  -13.7216   27.0798 O   0  0  0  0  0  0  0  0  0  0  0  0
    8.1886  -13.6614   26.5318 C   0  0  2  0  0  0  0  0  0  0  0  0
    7.8814  -14.7996   25.6864 N   0  0  0  0  0  0  0  0  0  0  0  0
    8.6950  -14.1682   27.8261 C   0  0  0  0  0  0  0  0  0  0  0  0
    9.1183  -13.2825   28.7997 O   0  0  0  0  0  0  0  0  0  0  0  0
    8.7593  -15.4055   28.0879 O   0  0  0  0  0  0  0  0  0  0  0  0
  2  1  1  0
  3  2  1  0
  3  4  1  0
  4  5  1  0
  5  7  1  0
  5  6  1  6
  7  9  1  0
  7  8  2  0
  9 10  1  0
 10 13  1  0
 10 11  1  1
 11 12  1  0
 13 14  2  0
 16 15  1  6
 16 18  1  0
 16 17  1  0
 18 20  1  0
 19 13  1  0
 18 19  1  6
 20 21  1  0
 22 20  2  0
M  END
$$$$
