MCT.pdb
     RDKit          3D

 22 21  0  0  1  0  0  0  0  0999 V2000
    8.1931  -11.7452   20.5641 C   0  0  0  0  0  0  0  0  0  0  0  0
    7.3450  -12.7716   19.3664 S   0  0  0  0  0  0  0  0  0  0  0  0
    7.9134  -14.4582   19.3296 C   0  0  0  0  0  0  0  0  0  0  0  0
    8.0570  -15.1035   20.6674 C   0  0  0  0  0  0  0  0  0  0  0  0
    8.6243  -16.4841   20.6714 C   0  0  2  0  0  0  0  0  0  0  0  0
    7.7524  -17.4561   20.0279 N   0  0  0  0  0  0  0  0  0  0  0  0
    8.7320  -16.8777   22.1250 C   0  0  0  0  0  0  0  0  0  0  0  0
    7.7830  -17.5126   22.6367 O   0  0  0  0  0  0  0  0  0  0  0  0
    9.8412  -16.5627   22.9122 N   0  0  0  0  0  0  0  0  0  0  0  0
    9.8534  -16.9744   24.3120 C   0  0  1  0  0  0  0  0  0  0  0  0
   10.7975  -18.1605   24.3485 C   0  0  0  0  0  0  0  0  0  0  0  0
   12.3920  -17.8256   23.5862 S   0  0  0  0  0  0  0  0  0  0  0  0
   10.2331  -15.8740   25.1938 C   0  0  0  0  0  0  0  0  0  0  0  0
   11.2608  -15.1919   24.8949 O   0  0  0  0  0  0  0  0  0  0  0  0
    8.4924  -12.6280   26.4096 C   0  0  0  0  0  0  0  0  0  0  0  0
    8.7518  -13.5544   27.5781 C   0  0  1  0  0  0  0  0  0  0  0  0
    7.6100  -14.3646   27.7543 O   0  0  0  0  0  0  0  0  0  0  0  0
    9.8849  -14.5110   27.2840 C   0  0  2  0  0  0  0  0  0  0  0  0
    9.5107  -15.5483   26.3413 N   0  0  0  0  0  0  0  0  0  0  0  0
   10.2566  -15.1575   28.5616 C   0  0  0  0  0  0  0  0  0  0  0  0
   10.7704  -14.4002   29.5981 O   0  0  0  0  0  0  0  0  0  0  0  0
   10.1220  -16.4021   28.7526 O   0  0  0  0  0  0  0  0  0  0  0  0
  2  1  1  0
  3  2  1  0
  3  4  1  0
  4  5  1  0
  5  7  1  0
  5  6  1  6
  7  9  1  0
  7  8  2  0
  9 10  1  0
 10 13  1  0
 10 11  1  6
 11 12  1  0
 13 14  2  0
 16 15  1  6
 16 18  1  0
 16 17  1  0
 18 20  1  0
 19 13  1  0
 18 19  1  6
 20 21  1  0
 22 20  2  0
M  END
$$$$
