MCT.pdb
     RDKit          3D

 22 21  0  0  1  0  0  0  0  0999 V2000
    8.8906  -11.8705   19.3774 C   0  0  0  0  0  0  0  0  0  0  0  0
    7.3308  -12.7265   19.1744 S   0  0  0  0  0  0  0  0  0  0  0  0
    7.0246  -13.9720   20.4090 C   0  0  0  0  0  0  0  0  0  0  0  0
    8.2392  -14.4608   21.1248 C   0  0  0  0  0  0  0  0  0  0  0  0
    8.0204  -15.5589   22.1119 C   0  0  2  0  0  0  0  0  0  0  0  0
    7.2489  -15.1329   23.2706 N   0  0  0  0  0  0  0  0  0  0  0  0
    9.3938  -15.9415   22.6089 C   0  0  0  0  0  0  0  0  0  0  0  0
    9.9702  -15.1679   23.4057 O   0  0  0  0  0  0  0  0  0  0  0  0
   10.0385  -17.1159   22.2163 N   0  0  0  0  0  0  0  0  0  0  0  0
   11.4438  -17.3000   22.5636 C   0  0  1  0  0  0  0  0  0  0  0  0
   11.4645  -18.5693   23.3931 C   0  0  0  0  0  0  0  0  0  0  0  0
   10.3948  -18.4942   24.8373 S   0  0  0  0  0  0  0  0  0  0  0  0
   12.2913  -17.3423   21.3751 C   0  0  0  0  0  0  0  0  0  0  0  0
   12.5105  -18.4688   20.8334 O   0  0  0  0  0  0  0  0  0  0  0  0
   12.0077  -14.5960   18.5767 C   0  0  0  0  0  0  0  0  0  0  0  0
   13.4714  -14.9013   18.8115 C   0  0  1  0  0  0  0  0  0  0  0  0
   14.0059  -13.8779   19.6227 O   0  0  0  0  0  0  0  0  0  0  0  0
   13.6498  -16.1780   19.6012 C   0  0  2  0  0  0  0  0  0  0  0  0
   12.8610  -16.1976   20.8186 N   0  0  0  0  0  0  0  0  0  0  0  0
   15.0789  -16.2684   19.9729 C   0  0  0  0  0  0  0  0  0  0  0  0
   16.0440  -16.3941   18.9909 O   0  0  0  0  0  0  0  0  0  0  0  0
   15.4662  -16.2348   21.1780 O   0  0  0  0  0  0  0  0  0  0  0  0
  2  1  1  0
  3  2  1  0
  3  4  1  0
  4  5  1  0
  5  7  1  0
  5  6  1  1
  7  9  1  0
  7  8  2  0
  9 10  1  0
 10 13  1  0
 10 11  1  6
 11 12  1  0
 13 14  2  0
 16 15  1  1
 16 18  1  0
 16 17  1  0
 18 20  1  0
 19 13  1  0
 18 19  1  1
 20 21  1  0
 22 20  2  0
M  END
$$$$
