MCT.pdb
     RDKit          3D

 22 21  0  0  1  0  0  0  0  0999 V2000
    6.8911  -11.8227   26.7883 C   0  0  0  0  0  0  0  0  0  0  0  0
    6.8314  -13.5281   26.2451 S   0  0  0  0  0  0  0  0  0  0  0  0
    7.4075  -14.6938   27.4611 C   0  0  0  0  0  0  0  0  0  0  0  0
    7.6691  -16.0679   26.9415 C   0  0  0  0  0  0  0  0  0  0  0  0
    6.7799  -16.5304   25.8355 C   0  0  2  0  0  0  0  0  0  0  0  0
    6.2776  -17.8813   26.0404 N   0  0  0  0  0  0  0  0  0  0  0  0
    7.6467  -16.5614   24.5997 C   0  0  0  0  0  0  0  0  0  0  0  0
    8.4446  -17.5154   24.4618 O   0  0  0  0  0  0  0  0  0  0  0  0
    7.5915  -15.5744   23.6139 N   0  0  0  0  0  0  0  0  0  0  0  0
    8.4610  -15.6915   22.4479 C   0  0  1  0  0  0  0  0  0  0  0  0
    7.8962  -14.6949   21.4543 C   0  0  0  0  0  0  0  0  0  0  0  0
    6.2529  -15.1291   20.8655 S   0  0  0  0  0  0  0  0  0  0  0  0
    9.8616  -15.4683   22.7960 C   0  0  0  0  0  0  0  0  0  0  0  0
   10.1928  -14.3328   23.2561 O   0  0  0  0  0  0  0  0  0  0  0  0
   12.1376  -16.8333   25.4569 C   0  0  0  0  0  0  0  0  0  0  0  0
   12.6566  -17.2599   24.1007 C   0  0  1  0  0  0  0  0  0  0  0  0
   12.0505  -18.4902   23.7688 O   0  0  0  0  0  0  0  0  0  0  0  0
   12.2315  -16.2946   23.0177 C   0  0  2  0  0  0  0  0  0  0  0  0
   10.8386  -16.4517   22.6437 N   0  0  0  0  0  0  0  0  0  0  0  0
   13.0655  -16.5740   21.8282 C   0  0  0  0  0  0  0  0  0  0  0  0
   14.4186  -16.2905   21.8482 O   0  0  0  0  0  0  0  0  0  0  0  0
   12.5842  -17.0727   20.7684 O   0  0  0  0  0  0  0  0  0  0  0  0
  2  1  1  0
  3  2  1  0
  3  4  1  0
  4  5  1  0
  5  7  1  0
  5  6  1  1
  7  9  1  0
  7  8  2  0
  9 10  1  0
 10 13  1  0
 10 11  1  6
 11 12  1  0
 13 14  2  0
 16 15  1  1
 16 18  1  0
 16 17  1  0
 18 20  1  0
 19 13  1  0
 18 19  1  6
 20 21  1  0
 22 20  2  0
M  END
$$$$
