MCT.pdb
     RDKit          3D

 22 21  0  0  1  0  0  0  0  0999 V2000
    8.4094  -11.2174   19.6816 C   0  0  0  0  0  0  0  0  0  0  0  0
    8.0423  -12.6991   18.7452 S   0  0  0  0  0  0  0  0  0  0  0  0
    7.5688  -14.0898   19.7506 C   0  0  0  0  0  0  0  0  0  0  0  0
    8.0135  -14.0186   21.1732 C   0  0  0  0  0  0  0  0  0  0  0  0
    7.6940  -15.2058   22.0198 C   0  0  2  0  0  0  0  0  0  0  0  0
    6.2666  -15.4817   22.0922 N   0  0  0  0  0  0  0  0  0  0  0  0
    8.1486  -14.8478   23.4143 C   0  0  0  0  0  0  0  0  0  0  0  0
    8.2804  -13.6368   23.6998 O   0  0  0  0  0  0  0  0  0  0  0  0
    8.4246  -15.8091   24.3884 N   0  0  0  0  0  0  0  0  0  0  0  0
    9.1969  -15.4215   25.5642 C   0  0  1  0  0  0  0  0  0  0  0  0
    8.3887  -14.3042   26.1950 C   0  0  0  0  0  0  0  0  0  0  0  0
    8.9996  -13.8085   27.8127 S   0  0  0  0  0  0  0  0  0  0  0  0
    9.4436  -16.5593   26.4457 C   0  0  0  0  0  0  0  0  0  0  0  0
    8.4438  -17.1542   26.9529 O   0  0  0  0  0  0  0  0  0  0  0  0
   11.8440  -19.4604   25.4360 C   0  0  0  0  0  0  0  0  0  0  0  0
   12.1712  -19.0093   26.8432 C   0  0  1  0  0  0  0  0  0  0  0  0
   13.2427  -18.0940   26.7699 O   0  0  0  0  0  0  0  0  0  0  0  0
   11.0239  -18.2404   27.4579 C   0  0  2  0  0  0  0  0  0  0  0  0
   10.7282  -17.0120   26.7450 N   0  0  0  0  0  0  0  0  0  0  0  0
   11.4199  -17.8909   28.8398 C   0  0  0  0  0  0  0  0  0  0  0  0
   11.6016  -18.8866   29.7818 O   0  0  0  0  0  0  0  0  0  0  0  0
   11.6041  -16.6929   29.2066 O   0  0  0  0  0  0  0  0  0  0  0  0
  2  1  1  0
  3  2  1  0
  3  4  1  0
  4  5  1  0
  5  7  1  0
  5  6  1  1
  7  9  1  0
  7  8  2  0
  9 10  1  0
 10 13  1  0
 10 11  1  1
 11 12  1  0
 13 14  2  0
 16 15  1  6
 16 18  1  0
 16 17  1  0
 18 20  1  0
 19 13  1  0
 18 19  1  6
 20 21  1  0
 22 20  2  0
M  END
$$$$
