MCT.pdb
     RDKit          3D

 22 21  0  0  1  0  0  0  0  0999 V2000
    8.4186  -11.9357   20.8250 C   0  0  0  0  0  0  0  0  0  0  0  0
    7.4461  -12.2787   19.3609 S   0  0  0  0  0  0  0  0  0  0  0  0
    8.1674  -13.4996   18.2847 C   0  0  0  0  0  0  0  0  0  0  0  0
    8.7973  -14.6593   18.9811 C   0  0  0  0  0  0  0  0  0  0  0  0
    9.5092  -15.6394   18.1091 C   0  0  2  0  0  0  0  0  0  0  0  0
    8.6281  -16.2855   17.1472 N   0  0  0  0  0  0  0  0  0  0  0  0
   10.0203  -16.7158   19.0362 C   0  0  0  0  0  0  0  0  0  0  0  0
    9.3759  -17.7856   19.1112 O   0  0  0  0  0  0  0  0  0  0  0  0
   11.1751  -16.5632   19.8059 N   0  0  0  0  0  0  0  0  0  0  0  0
   11.5968  -17.6598   20.6714 C   0  0  1  0  0  0  0  0  0  0  0  0
   12.8418  -18.2106   20.0034 C   0  0  0  0  0  0  0  0  0  0  0  0
   13.9602  -16.9305   19.4149 S   0  0  0  0  0  0  0  0  0  0  0  0
   11.7979  -17.2133   22.0472 C   0  0  0  0  0  0  0  0  0  0  0  0
   12.3431  -16.0833   22.2384 O   0  0  0  0  0  0  0  0  0  0  0  0
    9.4302  -16.3727   24.8613 C   0  0  0  0  0  0  0  0  0  0  0  0
   10.2932  -17.5360   25.3003 C   0  0  1  0  0  0  0  0  0  0  0  0
    9.6180  -18.7298   24.9684 O   0  0  0  0  0  0  0  0  0  0  0  0
   11.5941  -17.5801   24.5315 C   0  0  2  0  0  0  0  0  0  0  0  0
   11.4130  -17.9778   23.1481 N   0  0  0  0  0  0  0  0  0  0  0  0
   12.4609  -18.5806   25.1920 C   0  0  0  0  0  0  0  0  0  0  0  0
   12.8998  -18.3710   26.4863 O   0  0  0  0  0  0  0  0  0  0  0  0
   12.8270  -19.6448   24.6115 O   0  0  0  0  0  0  0  0  0  0  0  0
  2  1  1  0
  3  2  1  0
  3  4  1  0
  4  5  1  0
  5  7  1  0
  5  6  1  6
  7  9  1  0
  7  8  2  0
  9 10  1  0
 10 13  1  0
 10 11  1  6
 11 12  1  0
 13 14  2  0
 16 15  1  6
 16 18  1  0
 16 17  1  0
 18 20  1  0
 19 13  1  0
 18 19  1  6
 20 21  1  0
 22 20  2  0
M  END
$$$$
