MCT.pdb
     RDKit          3D

 22 21  0  0  1  0  0  0  0  0999 V2000
    7.8781  -11.7386   21.2932 C   0  0  0  0  0  0  0  0  0  0  0  0
    8.1278  -12.5602   19.7217 S   0  0  0  0  0  0  0  0  0  0  0  0
    7.0894  -13.9857   19.4791 C   0  0  0  0  0  0  0  0  0  0  0  0
    6.9291  -14.8591   20.6783 C   0  0  0  0  0  0  0  0  0  0  0  0
    7.6660  -16.1569   20.6468 C   0  0  2  0  0  0  0  0  0  0  0  0
    6.8751  -17.2433   20.0869 N   0  0  0  0  0  0  0  0  0  0  0  0
    7.9415  -16.5057   22.0896 C   0  0  0  0  0  0  0  0  0  0  0  0
    7.0046  -16.9755   22.7729 O   0  0  0  0  0  0  0  0  0  0  0  0
    9.1917  -16.3255   22.6843 N   0  0  0  0  0  0  0  0  0  0  0  0
    9.3929  -16.7791   24.0566 C   0  0  1  0  0  0  0  0  0  0  0  0
   10.3464  -17.9515   23.9306 C   0  0  0  0  0  0  0  0  0  0  0  0
   11.0085  -18.5043   25.5091 S   0  0  0  0  0  0  0  0  0  0  0  0
    9.8737  -15.7003   24.9154 C   0  0  0  0  0  0  0  0  0  0  0  0
   10.9221  -15.0763   24.5661 O   0  0  0  0  0  0  0  0  0  0  0  0
    8.4139  -12.3556   26.1794 C   0  0  0  0  0  0  0  0  0  0  0  0
    8.6542  -13.2881   27.3471 C   0  0  1  0  0  0  0  0  0  0  0  0
    7.4663  -14.0143   27.5771 O   0  0  0  0  0  0  0  0  0  0  0  0
    9.7047  -14.3247   27.0195 C   0  0  2  0  0  0  0  0  0  0  0  0
    9.2251  -15.3341   26.0944 N   0  0  0  0  0  0  0  0  0  0  0  0
   10.0716  -14.9939   28.2868 C   0  0  0  0  0  0  0  0  0  0  0  0
   10.6103  -14.2601   29.3275 O   0  0  0  0  0  0  0  0  0  0  0  0
    9.9104  -16.2372   28.4649 O   0  0  0  0  0  0  0  0  0  0  0  0
  2  1  1  0
  3  2  1  0
  3  4  1  0
  4  5  1  0
  5  7  1  0
  5  6  1  1
  7  9  1  0
  7  8  2  0
  9 10  1  0
 10 13  1  0
 10 11  1  6
 11 12  1  0
 13 14  2  0
 16 15  1  6
 16 18  1  0
 16 17  1  0
 18 20  1  0
 19 13  1  0
 18 19  1  6
 20 21  1  0
 22 20  2  0
M  END
$$$$
