MCT.pdb
     RDKit          3D

 22 21  0  0  1  0  0  0  0  0999 V2000
    9.2775  -12.9479   28.5061 C   0  0  0  0  0  0  0  0  0  0  0  0
    9.8370  -14.6405   28.6769 S   0  0  0  0  0  0  0  0  0  0  0  0
    8.8947  -15.8121   27.7236 C   0  0  0  0  0  0  0  0  0  0  0  0
    7.6762  -15.2545   27.0672 C   0  0  0  0  0  0  0  0  0  0  0  0
    6.8410  -16.2269   26.3024 C   0  0  2  0  0  0  0  0  0  0  0  0
    6.8334  -17.5561   26.8959 N   0  0  0  0  0  0  0  0  0  0  0  0
    7.4943  -16.3495   24.9468 C   0  0  0  0  0  0  0  0  0  0  0  0
    8.1187  -17.4017   24.6851 O   0  0  0  0  0  0  0  0  0  0  0  0
    7.4278  -15.3416   23.9829 N   0  0  0  0  0  0  0  0  0  0  0  0
    7.9795  -15.5959   22.6562 C   0  0  1  0  0  0  0  0  0  0  0  0
    7.3906  -14.5022   21.7865 C   0  0  0  0  0  0  0  0  0  0  0  0
    7.8471  -14.6471   20.0526 S   0  0  0  0  0  0  0  0  0  0  0  0
    9.4393  -15.6293   22.6772 C   0  0  0  0  0  0  0  0  0  0  0  0
   10.0546  -14.6611   23.2199 O   0  0  0  0  0  0  0  0  0  0  0  0
   12.0041  -18.6758   23.7675 C   0  0  0  0  0  0  0  0  0  0  0  0
   12.0938  -18.2147   22.3287 C   0  0  1  0  0  0  0  0  0  0  0  0
   11.1992  -18.9936   21.5643 O   0  0  0  0  0  0  0  0  0  0  0  0
   11.6199  -16.7873   22.1752 C   0  0  2  0  0  0  0  0  0  0  0  0
   10.1739  -16.6800   22.1284 N   0  0  0  0  0  0  0  0  0  0  0  0
   12.1644  -16.2789   20.8971 C   0  0  0  0  0  0  0  0  0  0  0  0
   13.5222  -16.0558   20.7618 O   0  0  0  0  0  0  0  0  0  0  0  0
   11.4252  -16.0334   19.8986 O   0  0  0  0  0  0  0  0  0  0  0  0
  2  1  1  0
  3  2  1  0
  3  4  1  0
  4  5  1  0
  5  7  1  0
  5  6  1  1
  7  9  1  0
  7  8  2  0
  9 10  1  0
 10 13  1  0
 10 11  1  6
 11 12  1  0
 13 14  2  0
 16 15  1  1
 16 18  1  0
 16 17  1  0
 18 20  1  0
 19 13  1  0
 18 19  1  6
 20 21  1  0
 22 20  2  0
M  END
$$$$
