MCT.pdb
     RDKit          3D

 22 21  0  0  1  0  0  0  0  0999 V2000
   10.1667  -13.3950   29.0770 C   0  0  0  0  0  0  0  0  0  0  0  0
   10.4505  -15.1066   29.5208 S   0  0  0  0  0  0  0  0  0  0  0  0
    9.2677  -16.2392   28.8226 C   0  0  0  0  0  0  0  0  0  0  0  0
    9.2640  -16.3059   27.3319 C   0  0  0  0  0  0  0  0  0  0  0  0
   10.4667  -15.7455   26.6481 C   0  0  2  0  0  0  0  0  0  0  0  0
   10.5345  -14.2933   26.7220 N   0  0  0  0  0  0  0  0  0  0  0  0
   10.3150  -16.1095   25.1907 C   0  0  0  0  0  0  0  0  0  0  0  0
    9.3226  -15.6656   24.5713 O   0  0  0  0  0  0  0  0  0  0  0  0
   11.2327  -16.9155   24.5145 N   0  0  0  0  0  0  0  0  0  0  0  0
   11.1485  -17.0152   23.0611 C   0  0  1  0  0  0  0  0  0  0  0  0
   11.5156  -15.6297   22.5659 C   0  0  0  0  0  0  0  0  0  0  0  0
   13.1133  -15.0593   23.1639 S   0  0  0  0  0  0  0  0  0  0  0  0
   11.9978  -18.0849   22.5445 C   0  0  0  0  0  0  0  0  0  0  0  0
   13.0278  -18.4093   23.2112 O   0  0  0  0  0  0  0  0  0  0  0  0
   10.5944  -21.3826   20.2243 C   0  0  0  0  0  0  0  0  0  0  0  0
   11.7833  -20.5971   19.7143 C   0  0  1  0  0  0  0  0  0  0  0  0
   11.3024  -19.5862   18.8554 O   0  0  0  0  0  0  0  0  0  0  0  0
   12.4891  -19.8716   20.8373 C   0  0  2  0  0  0  0  0  0  0  0  0
   11.7175  -18.7577   21.3555 N   0  0  0  0  0  0  0  0  0  0  0  0
   13.7573  -19.3423   20.2894 C   0  0  0  0  0  0  0  0  0  0  0  0
   14.7868  -20.2065   19.9655 O   0  0  0  0  0  0  0  0  0  0  0  0
   13.9461  -18.1046   20.0996 O   0  0  0  0  0  0  0  0  0  0  0  0
  2  1  1  0
  3  2  1  0
  3  4  1  0
  4  5  1  0
  5  7  1  0
  5  6  1  6
  7  9  1  0
  7  8  2  0
  9 10  1  0
 10 13  1  0
 10 11  1  6
 11 12  1  0
 13 14  2  0
 16 15  1  1
 16 18  1  0
 16 17  1  0
 18 20  1  0
 19 13  1  0
 18 19  1  6
 20 21  1  0
 22 20  2  0
M  END
$$$$
