MCT.pdb
     RDKit          3D

 22 21  0  0  1  0  0  0  0  0999 V2000
    8.7702  -11.4604   20.1835 C   0  0  0  0  0  0  0  0  0  0  0  0
    7.3954  -12.4736   19.6444 S   0  0  0  0  0  0  0  0  0  0  0  0
    7.3908  -14.1129   20.3384 C   0  0  0  0  0  0  0  0  0  0  0  0
    8.3992  -14.3441   21.4138 C   0  0  0  0  0  0  0  0  0  0  0  0
    8.3695  -15.6885   22.0618 C   0  0  2  0  0  0  0  0  0  0  0  0
    7.0251  -16.1114   22.4263 N   0  0  0  0  0  0  0  0  0  0  0  0
    9.1521  -15.5414   23.3445 C   0  0  0  0  0  0  0  0  0  0  0  0
   10.3918  -15.3920   23.2661 O   0  0  0  0  0  0  0  0  0  0  0  0
    8.5492  -15.5655   24.6035 N   0  0  0  0  0  0  0  0  0  0  0  0
    9.3832  -15.3976   25.7891 C   0  0  1  0  0  0  0  0  0  0  0  0
    8.7043  -14.2924   26.5747 C   0  0  0  0  0  0  0  0  0  0  0  0
    9.4678  -13.9824   28.1737 S   0  0  0  0  0  0  0  0  0  0  0  0
    9.5367  -16.6515   26.5216 C   0  0  0  0  0  0  0  0  0  0  0  0
    8.4934  -17.2138   26.9754 O   0  0  0  0  0  0  0  0  0  0  0  0
   13.4257  -18.5977   26.8752 C   0  0  0  0  0  0  0  0  0  0  0  0
   12.1062  -19.3265   26.7388 C   0  0  1  0  0  0  0  0  0  0  0  0
   12.1900  -20.5234   27.4814 O   0  0  0  0  0  0  0  0  0  0  0  0
   10.9745  -18.5419   27.3626 C   0  0  2  0  0  0  0  0  0  0  0  0
   10.7788  -17.2482   26.7359 N   0  0  0  0  0  0  0  0  0  0  0  0
   11.3239  -18.3211   28.7830 C   0  0  0  0  0  0  0  0  0  0  0  0
   11.5777  -17.0425   29.2439 O   0  0  0  0  0  0  0  0  0  0  0  0
   11.4026  -19.2729   29.6146 O   0  0  0  0  0  0  0  0  0  0  0  0
  2  1  1  0
  3  2  1  0
  3  4  1  0
  4  5  1  0
  5  7  1  0
  5  6  1  1
  7  9  1  0
  7  8  2  0
  9 10  1  0
 10 13  1  0
 10 11  1  1
 11 12  1  0
 13 14  2  0
 16 15  1  1
 16 18  1  0
 16 17  1  0
 18 20  1  0
 19 13  1  0
 18 19  1  6
 20 21  1  0
 22 20  2  0
M  END
$$$$
