KSF.pdb
     RDKit          3D

 27 27  0  0  1  0  0  0  0  0999 V2000
   37.5443  -25.7837    5.1756 N   0  0  0  0  0  0  0  0  0  0  0  0
   37.7416  -25.1440    6.4273 C   0  0  1  0  0  0  0  0  0  0  0  0
   38.4824  -23.8694    6.3285 C   0  0  0  0  0  0  0  0  0  0  0  0
   39.9222  -24.0640    5.9887 C   0  0  0  0  0  0  0  0  0  0  0  0
   40.7984  -22.8718    5.9763 C   0  0  0  0  0  0  0  0  0  0  0  0
   42.2373  -23.2401    5.5802 C   0  0  0  0  0  0  0  0  0  0  0  0
   43.0148  -22.0402    5.3416 N   0  0  0  0  0  0  0  0  0  0  0  0
   36.4920  -25.0346    7.2306 C   0  0  0  0  0  0  0  0  0  0  0  0
   35.4071  -24.9964    6.6103 O   0  0  0  0  0  0  0  0  0  0  0  0
   34.0451  -25.2713   11.4005 O   0  0  0  0  0  0  0  0  0  0  0  0
   35.3170  -25.2757   10.7926 C   0  0  0  0  0  0  0  0  0  0  0  0
   35.2411  -24.8209    9.3616 C   0  0  2  0  0  0  0  0  0  0  0  0
   36.4502  -24.9719    8.6298 N   0  0  0  0  0  0  0  0  0  0  0  0
   34.7683  -23.3958    9.3911 C   0  0  0  0  0  0  0  0  0  0  0  0
   35.5769  -22.4254    9.3786 O   0  0  0  0  0  0  0  0  0  0  0  0
   33.3884  -23.0687    9.4345 N   0  0  0  0  0  0  0  0  0  0  0  0
   32.8795  -21.7054    9.4454 C   0  0  1  0  0  0  0  0  0  0  0  0
   31.9347  -21.6206    8.2536 C   0  0  0  0  0  0  0  0  0  0  0  0
   32.6092  -21.4303    6.9720 C   0  0  0  0  0  0  0  0  0  0  0  0
   32.8850  -20.1809    6.4634 C   0  0  0  0  0  0  0  0  0  0  0  0
   33.5368  -20.0281    5.2368 C   0  0  0  0  0  0  0  0  0  0  0  0
   33.9150  -21.1210    4.5144 C   0  0  0  0  0  0  0  0  0  0  0  0
   33.6408  -22.3826    5.0202 C   0  0  0  0  0  0  0  0  0  0  0  0
   32.9971  -22.5260    6.2316 C   0  0  0  0  0  0  0  0  0  0  0  0
   32.2020  -21.3752   10.7043 C   0  0  0  0  0  0  0  0  0  0  0  0
   31.8228  -20.0746   10.9745 O   0  0  0  0  0  0  0  0  0  0  0  0
   31.9568  -22.2602   11.5513 O   0  0  0  0  0  0  0  0  0  0  0  0
  2  1  1  6
  3  4  1  0
  3  2  1  0
  4  5  1  0
  5  6  1  0
  7  6  1  0
  8  9  2  0
  8  2  1  0
 10 11  1  0
 12 11  1  1
 12 13  1  0
 12 14  1  0
 13  8  1  0
 14 16  1  0
 15 14  2  0
 16 17  1  0
 17 25  1  0
 17 18  1  6
 19 18  1  0
 20 19  2  0
 21 20  1  0
 22 21  2  0
 22 23  1  0
 23 24  2  0
 24 19  1  0
 25 27  2  0
 25 26  1  0
M  END
$$$$
