KSF.pdb
     RDKit          3D

 27 27  0  0  1  0  0  0  0  0999 V2000
   17.2885  -12.6050  -16.9173 N   0  0  0  0  0  0  0  0  0  0  0  0
   18.5446  -11.9443  -16.9409 C   0  0  1  0  0  0  0  0  0  0  0  0
   19.3439  -12.2389  -18.1481 C   0  0  0  0  0  0  0  0  0  0  0  0
   19.5982  -13.6980  -18.3293 C   0  0  0  0  0  0  0  0  0  0  0  0
   20.7457  -14.2957  -17.6114 C   0  0  0  0  0  0  0  0  0  0  0  0
   20.9817  -15.7504  -18.0481 C   0  0  0  0  0  0  0  0  0  0  0  0
   22.1845  -16.2714  -17.4294 N   0  0  0  0  0  0  0  0  0  0  0  0
   18.4437  -10.4876  -16.6461 C   0  0  0  0  0  0  0  0  0  0  0  0
   17.9533   -9.7513  -17.5297 O   0  0  0  0  0  0  0  0  0  0  0  0
   17.3342   -8.5502  -13.2761 O   0  0  0  0  0  0  0  0  0  0  0  0
   17.4685   -8.0515  -14.5878 C   0  0  0  0  0  0  0  0  0  0  0  0
   18.7646   -8.4910  -15.2102 C   0  0  2  0  0  0  0  0  0  0  0  0
   18.8598   -9.8887  -15.4496 N   0  0  0  0  0  0  0  0  0  0  0  0
   19.8601   -7.9917  -14.3124 C   0  0  0  0  0  0  0  0  0  0  0  0
   20.4751   -8.7607  -13.5212 O   0  0  0  0  0  0  0  0  0  0  0  0
   20.2588   -6.6301  -14.3087 N   0  0  0  0  0  0  0  0  0  0  0  0
   21.3721   -6.1146  -13.5261 C   0  0  1  0  0  0  0  0  0  0  0  0
   22.6197   -6.7190  -14.1575 C   0  0  0  0  0  0  0  0  0  0  0  0
   22.8445   -6.3087  -15.5412 C   0  0  0  0  0  0  0  0  0  0  0  0
   23.4269   -5.1043  -15.8668 C   0  0  0  0  0  0  0  0  0  0  0  0
   23.6351   -4.7397  -17.1997 C   0  0  0  0  0  0  0  0  0  0  0  0
   23.2631   -5.5752  -18.2109 C   0  0  0  0  0  0  0  0  0  0  0  0
   22.6759   -6.7898  -17.8909 C   0  0  0  0  0  0  0  0  0  0  0  0
   22.4734   -7.1434  -16.5731 C   0  0  0  0  0  0  0  0  0  0  0  0
   21.4171   -4.6480  -13.5229 C   0  0  0  0  0  0  0  0  0  0  0  0
   22.3251   -3.9777  -12.7263 O   0  0  0  0  0  0  0  0  0  0  0  0
   20.6386   -3.9815  -14.2373 O   0  0  0  0  0  0  0  0  0  0  0  0
  2  1  1  6
  3  4  1  0
  3  2  1  0
  4  5  1  0
  5  6  1  0
  7  6  1  0
  8  9  2  0
  8  2  1  0
 10 11  1  0
 12 11  1  1
 12 13  1  0
 12 14  1  0
 13  8  1  0
 14 16  1  0
 15 14  2  0
 16 17  1  0
 17 25  1  0
 17 18  1  6
 19 18  1  0
 20 19  2  0
 21 20  1  0
 22 21  2  0
 22 23  1  0
 23 24  2  0
 24 19  1  0
 25 27  2  0
 25 26  1  0
M  END
$$$$
