KSF.pdb
     RDKit          3D

 27 27  0  0  1  0  0  0  0  0999 V2000
   20.5897  -24.8213  -17.5087 N   0  0  0  0  0  0  0  0  0  0  0  0
   21.5115  -24.0654  -16.7383 C   0  0  1  0  0  0  0  0  0  0  0  0
   22.3843  -23.1931  -17.5509 C   0  0  0  0  0  0  0  0  0  0  0  0
   23.6428  -23.8723  -17.9768 C   0  0  0  0  0  0  0  0  0  0  0  0
   24.5872  -24.3051  -16.9231 C   0  0  0  0  0  0  0  0  0  0  0  0
   25.8629  -24.9104  -17.5306 C   0  0  0  0  0  0  0  0  0  0  0  0
   26.7649  -25.3384  -16.4798 N   0  0  0  0  0  0  0  0  0  0  0  0
   20.8727  -23.3543  -15.5959 C   0  0  0  0  0  0  0  0  0  0  0  0
   21.0276  -22.1155  -15.5261 O   0  0  0  0  0  0  0  0  0  0  0  0
   17.3822  -22.9298  -14.7523 O   0  0  0  0  0  0  0  0  0  0  0  0
   18.4184  -22.2782  -14.0530 C   0  0  0  0  0  0  0  0  0  0  0  0
   19.4502  -23.2574  -13.5664 C   0  0  2  0  0  0  0  0  0  0  0  0
   20.1124  -23.9776  -14.5975 N   0  0  0  0  0  0  0  0  0  0  0  0
   18.7520  -24.1662  -12.5959 C   0  0  0  0  0  0  0  0  0  0  0  0
   18.3694  -25.3243  -12.9249 O   0  0  0  0  0  0  0  0  0  0  0  0
   18.4872  -23.7685  -11.2599 N   0  0  0  0  0  0  0  0  0  0  0  0
   17.7574  -24.5850  -10.3017 C   0  0  1  0  0  0  0  0  0  0  0  0
   18.5058  -24.4230   -8.9849 C   0  0  0  0  0  0  0  0  0  0  0  0
   17.8824  -25.1118   -7.8577 C   0  0  0  0  0  0  0  0  0  0  0  0
   18.0586  -26.4580   -7.6287 C   0  0  0  0  0  0  0  0  0  0  0  0
   17.4545  -27.0903   -6.5387 C   0  0  0  0  0  0  0  0  0  0  0  0
   16.6732  -26.3817   -5.6747 C   0  0  0  0  0  0  0  0  0  0  0  0
   16.4911  -25.0255   -5.8988 C   0  0  0  0  0  0  0  0  0  0  0  0
   17.0905  -24.4078   -6.9766 C   0  0  0  0  0  0  0  0  0  0  0  0
   16.3517  -24.1812  -10.1845 C   0  0  0  0  0  0  0  0  0  0  0  0
   15.9661  -22.8915  -10.4946 O   0  0  0  0  0  0  0  0  0  0  0  0
   15.4815  -24.9927   -9.8038 O   0  0  0  0  0  0  0  0  0  0  0  0
  2  1  1  6
  3  4  1  0
  3  2  1  0
  4  5  1  0
  5  6  1  0
  7  6  1  0
  8  9  2  0
  8  2  1  0
 10 11  1  0
 12 11  1  6
 12 13  1  0
 12 14  1  0
 13  8  1  0
 14 16  1  0
 15 14  2  0
 16 17  1  0
 17 25  1  0
 17 18  1  1
 19 18  1  0
 20 19  2  0
 21 20  1  0
 22 21  2  0
 22 23  1  0
 23 24  2  0
 24 19  1  0
 25 27  2  0
 25 26  1  0
M  END
$$$$
