KSF.pdb
     RDKit          3D

 27 27  0  0  1  0  0  0  0  0999 V2000
   25.9331  -18.2835  -15.9749 N   0  0  0  0  0  0  0  0  0  0  0  0
   26.7001  -18.9454  -14.9808 C   0  0  1  0  0  0  0  0  0  0  0  0
   28.1092  -18.5037  -14.9311 C   0  0  0  0  0  0  0  0  0  0  0  0
   28.9714  -19.2141  -15.9201 C   0  0  0  0  0  0  0  0  0  0  0  0
   28.9123  -20.6922  -15.9551 C   0  0  0  0  0  0  0  0  0  0  0  0
   29.8134  -21.2613  -17.0629 C   0  0  0  0  0  0  0  0  0  0  0  0
   29.6481  -22.6984  -17.1554 N   0  0  0  0  0  0  0  0  0  0  0  0
   26.0414  -18.9543  -13.6448 C   0  0  0  0  0  0  0  0  0  0  0  0
   25.6413  -17.8606  -13.1899 O   0  0  0  0  0  0  0  0  0  0  0  0
   24.2225  -22.2427  -12.0033 O   0  0  0  0  0  0  0  0  0  0  0  0
   23.9654  -20.9457  -11.5147 C   0  0  0  0  0  0  0  0  0  0  0  0
   25.1880  -20.0752  -11.6035 C   0  0  2  0  0  0  0  0  0  0  0  0
   25.8405  -20.1017  -12.8659 N   0  0  0  0  0  0  0  0  0  0  0  0
   26.0960  -20.4992  -10.4849 C   0  0  0  0  0  0  0  0  0  0  0  0
   26.9609  -21.4072  -10.6370 O   0  0  0  0  0  0  0  0  0  0  0  0
   26.0270  -19.9001   -9.2006 N   0  0  0  0  0  0  0  0  0  0  0  0
   26.7305  -20.4071   -8.0320 C   0  0  1  0  0  0  0  0  0  0  0  0
   27.5057  -19.2164   -7.4829 C   0  0  0  0  0  0  0  0  0  0  0  0
   28.1556  -19.4703   -6.1996 C   0  0  0  0  0  0  0  0  0  0  0  0
   29.3631  -20.1248   -6.1025 C   0  0  0  0  0  0  0  0  0  0  0  0
   29.9651  -20.3493   -4.8615 C   0  0  0  0  0  0  0  0  0  0  0  0
   29.3645  -19.9217   -3.7145 C   0  0  0  0  0  0  0  0  0  0  0  0
   28.1483  -19.2618   -3.8044 C   0  0  0  0  0  0  0  0  0  0  0  0
   27.5598  -19.0435   -5.0326 C   0  0  0  0  0  0  0  0  0  0  0  0
   25.8149  -20.9706   -7.0334 C   0  0  0  0  0  0  0  0  0  0  0  0
   24.4651  -20.6805   -7.0795 O   0  0  0  0  0  0  0  0  0  0  0  0
   26.2373  -21.7196   -6.1272 O   0  0  0  0  0  0  0  0  0  0  0  0
  2  1  1  6
  3  4  1  0
  3  2  1  0
  4  5  1  0
  5  6  1  0
  7  6  1  0
  8  9  2  0
  8  2  1  0
 10 11  1  0
 12 11  1  6
 12 13  1  0
 12 14  1  0
 13  8  1  0
 14 16  1  0
 15 14  2  0
 16 17  1  0
 17 25  1  0
 17 18  1  1
 19 18  1  0
 20 19  2  0
 21 20  1  0
 22 21  2  0
 22 23  1  0
 23 24  2  0
 24 19  1  0
 25 27  2  0
 25 26  1  0
M  END
$$$$
