KSF.pdb
     RDKit          3D

 27 27  0  0  1  0  0  0  0  0999 V2000
   16.6581  -12.3277  -18.2592 N   0  0  0  0  0  0  0  0  0  0  0  0
   17.8280  -12.0121  -17.5197 C   0  0  1  0  0  0  0  0  0  0  0  0
   19.0192  -12.7755  -17.9454 C   0  0  0  0  0  0  0  0  0  0  0  0
   18.8874  -14.2396  -17.6900 C   0  0  0  0  0  0  0  0  0  0  0  0
   19.0234  -14.7145  -16.2953 C   0  0  0  0  0  0  0  0  0  0  0  0
   18.8845  -16.2430  -16.2095 C   0  0  0  0  0  0  0  0  0  0  0  0
   18.8780  -16.6693  -14.8241 N   0  0  0  0  0  0  0  0  0  0  0  0
   18.0766  -10.5470  -17.4176 C   0  0  0  0  0  0  0  0  0  0  0  0
   18.0048   -9.8735  -18.4686 O   0  0  0  0  0  0  0  0  0  0  0  0
   16.7184   -8.0478  -14.7639 O   0  0  0  0  0  0  0  0  0  0  0  0
   17.3963   -7.6410  -15.9311 C   0  0  0  0  0  0  0  0  0  0  0  0
   18.6243   -8.4750  -16.1693 C   0  0  2  0  0  0  0  0  0  0  0  0
   18.3846   -9.8747  -16.2274 N   0  0  0  0  0  0  0  0  0  0  0  0
   19.6039   -8.1099  -15.0912 C   0  0  0  0  0  0  0  0  0  0  0  0
   19.5238   -8.5933  -13.9269 O   0  0  0  0  0  0  0  0  0  0  0  0
   20.6692   -7.2029  -15.3274 N   0  0  0  0  0  0  0  0  0  0  0  0
   21.6364   -6.8086  -14.3142 C   0  0  1  0  0  0  0  0  0  0  0  0
   22.9910   -7.2336  -14.8662 C   0  0  0  0  0  0  0  0  0  0  0  0
   23.1299   -8.6751  -15.0569 C   0  0  0  0  0  0  0  0  0  0  0  0
   22.8133   -9.2946  -16.2451 C   0  0  0  0  0  0  0  0  0  0  0  0
   22.9613  -10.6753  -16.4017 C   0  0  0  0  0  0  0  0  0  0  0  0
   23.4254  -11.4415  -15.3737 C   0  0  0  0  0  0  0  0  0  0  0  0
   23.7463  -10.8248  -14.1740 C   0  0  0  0  0  0  0  0  0  0  0  0
   23.5978   -9.4615  -14.0265 C   0  0  0  0  0  0  0  0  0  0  0  0
   21.5889   -5.3697  -14.0308 C   0  0  0  0  0  0  0  0  0  0  0  0
   22.2909   -4.8432  -12.9638 O   0  0  0  0  0  0  0  0  0  0  0  0
   20.9158   -4.5976  -14.7460 O   0  0  0  0  0  0  0  0  0  0  0  0
  2  1  1  6
  3  4  1  0
  3  2  1  0
  4  5  1  0
  5  6  1  0
  7  6  1  0
  8  9  2  0
  8  2  1  0
 10 11  1  0
 12 11  1  1
 12 13  1  0
 12 14  1  0
 13  8  1  0
 14 16  1  0
 15 14  2  0
 16 17  1  0
 17 25  1  0
 17 18  1  6
 19 18  1  0
 20 19  2  0
 21 20  1  0
 22 21  2  0
 22 23  1  0
 23 24  2  0
 24 19  1  0
 25 27  2  0
 25 26  1  0
M  END
$$$$
