KSF.pdb
     RDKit          3D

 27 27  0  0  1  0  0  0  0  0999 V2000
   21.9321  -26.0103  -13.9802 N   0  0  0  0  0  0  0  0  0  0  0  0
   20.6150  -26.3526  -13.5764 C   0  0  1  0  0  0  0  0  0  0  0  0
   20.3822  -27.8094  -13.4956 C   0  0  0  0  0  0  0  0  0  0  0  0
   20.4491  -28.4788  -14.8274 C   0  0  0  0  0  0  0  0  0  0  0  0
   21.5970  -29.3727  -15.0966 C   0  0  0  0  0  0  0  0  0  0  0  0
   21.4972  -30.0047  -16.4943 C   0  0  0  0  0  0  0  0  0  0  0  0
   22.6485  -30.8483  -16.7469 N   0  0  0  0  0  0  0  0  0  0  0  0
   20.1684  -25.6195  -12.3591 C   0  0  0  0  0  0  0  0  0  0  0  0
   20.9963  -25.4780  -11.4328 O   0  0  0  0  0  0  0  0  0  0  0  0
   16.5890  -23.6610  -12.3005 O   0  0  0  0  0  0  0  0  0  0  0  0
   17.4718  -23.2873  -11.2669 C   0  0  0  0  0  0  0  0  0  0  0  0
   18.5098  -24.3475  -11.0240 C   0  0  2  0  0  0  0  0  0  0  0  0
   18.8876  -25.0794  -12.1823 N   0  0  0  0  0  0  0  0  0  0  0  0
   17.9671  -25.2360   -9.9416 C   0  0  0  0  0  0  0  0  0  0  0  0
   17.5164  -26.3895  -10.1904 O   0  0  0  0  0  0  0  0  0  0  0  0
   17.9340  -24.8232   -8.5846 N   0  0  0  0  0  0  0  0  0  0  0  0
   17.3026  -25.5891   -7.5205 C   0  0  1  0  0  0  0  0  0  0  0  0
   18.0772  -26.8990   -7.4555 C   0  0  0  0  0  0  0  0  0  0  0  0
   17.6182  -27.8103   -6.4102 C   0  0  0  0  0  0  0  0  0  0  0  0
   16.5713  -28.6838   -6.6024 C   0  0  0  0  0  0  0  0  0  0  0  0
   16.1566  -29.5488   -5.5863 C   0  0  0  0  0  0  0  0  0  0  0  0
   16.7849  -29.5449   -4.3761 C   0  0  0  0  0  0  0  0  0  0  0  0
   17.8400  -28.6680   -4.1751 C   0  0  0  0  0  0  0  0  0  0  0  0
   18.2442  -27.8170   -5.1826 C   0  0  0  0  0  0  0  0  0  0  0  0
   17.3225  -24.8782   -6.2371 C   0  0  0  0  0  0  0  0  0  0  0  0
   16.3851  -25.1651   -5.2638 O   0  0  0  0  0  0  0  0  0  0  0  0
   18.1838  -24.0043   -6.0019 O   0  0  0  0  0  0  0  0  0  0  0  0
  2  1  1  1
  3  4  1  0
  3  2  1  0
  4  5  1  0
  5  6  1  0
  7  6  1  0
  8  9  2  0
  8  2  1  0
 10 11  1  0
 12 11  1  6
 12 13  1  0
 12 14  1  0
 13  8  1  0
 14 16  1  0
 15 14  2  0
 16 17  1  0
 17 25  1  0
 17 18  1  1
 19 18  1  0
 20 19  2  0
 21 20  1  0
 22 21  2  0
 22 23  1  0
 23 24  2  0
 24 19  1  0
 25 27  2  0
 25 26  1  0
M  END
$$$$
