KSF.pdb
     RDKit          3D

 27 27  0  0  1  0  0  0  0  0999 V2000
   27.9840  -20.0214  -18.9712 N   0  0  0  0  0  0  0  0  0  0  0  0
   27.2357  -20.8942  -18.1387 C   0  0  1  0  0  0  0  0  0  0  0  0
   27.7614  -20.9912  -16.7613 C   0  0  0  0  0  0  0  0  0  0  0  0
   28.3592  -22.3258  -16.4648 C   0  0  0  0  0  0  0  0  0  0  0  0
   29.6199  -22.6878  -17.1496 C   0  0  0  0  0  0  0  0  0  0  0  0
   30.0974  -24.0893  -16.7368 C   0  0  0  0  0  0  0  0  0  0  0  0
   31.3589  -24.3994  -17.3798 N   0  0  0  0  0  0  0  0  0  0  0  0
   25.7697  -20.6353  -18.1895 C   0  0  0  0  0  0  0  0  0  0  0  0
   25.3400  -19.6236  -17.5936 O   0  0  0  0  0  0  0  0  0  0  0  0
   22.9092  -23.4653  -19.3896 O   0  0  0  0  0  0  0  0  0  0  0  0
   22.6371  -22.1209  -19.7146 C   0  0  0  0  0  0  0  0  0  0  0  0
   23.4467  -21.1786  -18.8678 C   0  0  2  0  0  0  0  0  0  0  0  0
   24.8426  -21.4463  -18.8576 N   0  0  0  0  0  0  0  0  0  0  0  0
   22.8492  -21.2217  -17.4907 C   0  0  0  0  0  0  0  0  0  0  0  0
   23.5420  -21.5029  -16.4726 O   0  0  0  0  0  0  0  0  0  0  0  0
   21.4754  -20.9482  -17.2650 N   0  0  0  0  0  0  0  0  0  0  0  0
   20.8568  -20.9426  -15.9478 C   0  0  1  0  0  0  0  0  0  0  0  0
   21.5399  -19.8123  -15.1889 C   0  0  0  0  0  0  0  0  0  0  0  0
   21.4292  -18.5082  -15.8375 C   0  0  0  0  0  0  0  0  0  0  0  0
   20.2149  -17.9025  -16.0707 C   0  0  0  0  0  0  0  0  0  0  0  0
   20.1386  -16.6513  -16.6884 C   0  0  0  0  0  0  0  0  0  0  0  0
   21.2731  -16.0012  -17.0750 C   0  0  0  0  0  0  0  0  0  0  0  0
   22.4997  -16.6049  -16.8435 C   0  0  0  0  0  0  0  0  0  0  0  0
   22.5676  -17.8400  -16.2333 C   0  0  0  0  0  0  0  0  0  0  0  0
   19.4034  -20.7539  -16.0174 C   0  0  0  0  0  0  0  0  0  0  0  0
   18.7869  -20.5095  -17.2293 O   0  0  0  0  0  0  0  0  0  0  0  0
   18.6998  -20.8104  -14.9867 O   0  0  0  0  0  0  0  0  0  0  0  0
  2  1  1  1
  3  4  1  0
  3  2  1  0
  4  5  1  0
  5  6  1  0
  7  6  1  0
  8  9  2  0
  8  2  1  0
 10 11  1  0
 12 11  1  6
 12 13  1  0
 12 14  1  0
 13  8  1  0
 14 16  1  0
 15 14  2  0
 16 17  1  0
 17 25  1  0
 17 18  1  1
 19 18  1  0
 20 19  2  0
 21 20  1  0
 22 21  2  0
 22 23  1  0
 23 24  2  0
 24 19  1  0
 25 27  2  0
 25 26  1  0
M  END
$$$$
