KSF.pdb
     RDKit          3D

 27 27  0  0  1  0  0  0  0  0999 V2000
   27.9628  -20.3553  -15.5038 N   0  0  0  0  0  0  0  0  0  0  0  0
   28.3678  -19.3297  -14.6099 C   0  0  1  0  0  0  0  0  0  0  0  0
   28.5338  -18.0127  -15.2589 C   0  0  0  0  0  0  0  0  0  0  0  0
   28.5115  -18.0970  -16.7484 C   0  0  0  0  0  0  0  0  0  0  0  0
   27.2115  -18.3488  -17.4087 C   0  0  0  0  0  0  0  0  0  0  0  0
   27.3516  -18.3415  -18.9394 C   0  0  0  0  0  0  0  0  0  0  0  0
   26.0898  -18.6923  -19.5605 N   0  0  0  0  0  0  0  0  0  0  0  0
   27.5403  -19.2731  -13.3727 C   0  0  0  0  0  0  0  0  0  0  0  0
   27.6704  -18.2719  -12.6351 O   0  0  0  0  0  0  0  0  0  0  0  0
   24.5691  -22.1182  -12.4531 O   0  0  0  0  0  0  0  0  0  0  0  0
   24.4367  -20.7912  -11.9964 C   0  0  0  0  0  0  0  0  0  0  0  0
   25.7774  -20.1263  -11.8510 C   0  0  2  0  0  0  0  0  0  0  0  0
   26.6289  -20.2627  -12.9808 N   0  0  0  0  0  0  0  0  0  0  0  0
   26.3967  -20.6832  -10.6014 C   0  0  0  0  0  0  0  0  0  0  0  0
   27.0419  -21.7692  -10.6047 O   0  0  0  0  0  0  0  0  0  0  0  0
   26.2877  -20.0162   -9.3539 N   0  0  0  0  0  0  0  0  0  0  0  0
   26.7605  -20.5718   -8.0947 C   0  0  1  0  0  0  0  0  0  0  0  0
   27.6188  -19.4787   -7.4713 C   0  0  0  0  0  0  0  0  0  0  0  0
   28.0465  -19.7651   -6.1044 C   0  0  0  0  0  0  0  0  0  0  0  0
   27.4386  -19.1957   -5.0080 C   0  0  0  0  0  0  0  0  0  0  0  0
   27.8649  -19.4921   -3.7106 C   0  0  0  0  0  0  0  0  0  0  0  0
   28.8985  -20.3570   -3.5035 C   0  0  0  0  0  0  0  0  0  0  0  0
   29.5156  -20.9344   -4.6027 C   0  0  0  0  0  0  0  0  0  0  0  0
   29.0896  -20.6374   -5.8805 C   0  0  0  0  0  0  0  0  0  0  0  0
   25.6567  -20.9691   -7.2134 C   0  0  0  0  0  0  0  0  0  0  0  0
   25.8708  -21.8662   -6.1850 O   0  0  0  0  0  0  0  0  0  0  0  0
   24.5081  -20.5055   -7.3762 O   0  0  0  0  0  0  0  0  0  0  0  0
  2  1  1  6
  3  4  1  0
  3  2  1  0
  4  5  1  0
  5  6  1  0
  7  6  1  0
  8  9  2  0
  8  2  1  0
 10 11  1  0
 12 11  1  6
 12 13  1  0
 12 14  1  0
 13  8  1  0
 14 16  1  0
 15 14  2  0
 16 17  1  0
 17 25  1  0
 17 18  1  1
 19 18  1  0
 20 19  2  0
 21 20  1  0
 22 21  2  0
 22 23  1  0
 23 24  2  0
 24 19  1  0
 25 27  2  0
 25 26  1  0
M  END
$$$$
