KSF.pdb
     RDKit          3D

 27 27  0  0  1  0  0  0  0  0999 V2000
   26.0817  -21.7650  -16.7452 N   0  0  0  0  0  0  0  0  0  0  0  0
   26.8571  -22.4230  -15.7549 C   0  0  1  0  0  0  0  0  0  0  0  0
   28.1160  -22.9956  -16.2750 C   0  0  0  0  0  0  0  0  0  0  0  0
   27.8869  -24.0649  -17.2901 C   0  0  0  0  0  0  0  0  0  0  0  0
   27.7087  -25.4521  -16.8071 C   0  0  0  0  0  0  0  0  0  0  0  0
   29.0050  -26.2653  -16.9528 C   0  0  0  0  0  0  0  0  0  0  0  0
   28.8444  -27.5767  -16.3567 N   0  0  0  0  0  0  0  0  0  0  0  0
   27.0497  -21.6048  -14.5251 C   0  0  0  0  0  0  0  0  0  0  0  0
   28.2142  -21.2453  -14.2460 O   0  0  0  0  0  0  0  0  0  0  0  0
   23.9180  -19.7090  -12.4752 O   0  0  0  0  0  0  0  0  0  0  0  0
   25.2472  -19.2455  -12.4006 C   0  0  0  0  0  0  0  0  0  0  0  0
   26.2292  -20.3762  -12.5329 C   0  0  2  0  0  0  0  0  0  0  0  0
   26.0174  -21.2122  -13.6627 N   0  0  0  0  0  0  0  0  0  0  0  0
   26.1761  -21.1410  -11.2415 C   0  0  0  0  0  0  0  0  0  0  0  0
   25.6248  -22.2747  -11.1610 O   0  0  0  0  0  0  0  0  0  0  0  0
   26.7433  -20.6273  -10.0467 N   0  0  0  0  0  0  0  0  0  0  0  0
   26.5854  -21.2519   -8.7419 C   0  0  1  0  0  0  0  0  0  0  0  0
   27.9708  -21.2158   -8.1099 C   0  0  0  0  0  0  0  0  0  0  0  0
   28.0420  -20.4360   -6.8768 C   0  0  0  0  0  0  0  0  0  0  0  0
   28.3150  -21.0118   -5.6562 C   0  0  0  0  0  0  0  0  0  0  0  0
   28.3826  -20.2406   -4.4928 C   0  0  0  0  0  0  0  0  0  0  0  0
   28.1782  -18.8934   -4.5438 C   0  0  0  0  0  0  0  0  0  0  0  0
   27.9029  -18.3064   -5.7695 C   0  0  0  0  0  0  0  0  0  0  0  0
   27.8377  -19.0737   -6.9139 C   0  0  0  0  0  0  0  0  0  0  0  0
   25.5888  -20.5636   -7.9135 C   0  0  0  0  0  0  0  0  0  0  0  0
   25.0389  -21.1926   -6.8133 O   0  0  0  0  0  0  0  0  0  0  0  0
   25.2209  -19.4014   -8.1866 O   0  0  0  0  0  0  0  0  0  0  0  0
  2  1  1  6
  3  4  1  0
  3  2  1  0
  4  5  1  0
  5  6  1  0
  7  6  1  0
  8  9  2  0
  8  2  1  0
 10 11  1  0
 12 11  1  1
 12 13  1  0
 12 14  1  0
 13  8  1  0
 14 16  1  0
 15 14  2  0
 16 17  1  0
 17 25  1  0
 17 18  1  1
 19 18  1  0
 20 19  2  0
 21 20  1  0
 22 21  2  0
 22 23  1  0
 23 24  2  0
 24 19  1  0
 25 27  2  0
 25 26  1  0
M  END
$$$$
