KSF.pdb
     RDKit          3D

 27 27  0  0  1  0  0  0  0  0999 V2000
   16.8514  -15.2409  -18.2360 N   0  0  0  0  0  0  0  0  0  0  0  0
   17.9160  -14.8473  -17.3836 C   0  0  1  0  0  0  0  0  0  0  0  0
   19.1401  -15.6567  -17.5557 C   0  0  0  0  0  0  0  0  0  0  0  0
   18.8662  -16.9967  -18.1521 C   0  0  0  0  0  0  0  0  0  0  0  0
   19.9951  -17.9456  -18.2718 C   0  0  0  0  0  0  0  0  0  0  0  0
   19.5990  -19.1847  -19.0906 C   0  0  0  0  0  0  0  0  0  0  0  0
   20.6761  -20.1548  -19.0857 N   0  0  0  0  0  0  0  0  0  0  0  0
   18.1747  -13.3806  -17.4115 C   0  0  0  0  0  0  0  0  0  0  0  0
   17.6534  -12.7188  -18.3354 O   0  0  0  0  0  0  0  0  0  0  0  0
   17.2670  -10.6441  -15.0541 O   0  0  0  0  0  0  0  0  0  0  0  0
   17.8100  -10.5232  -16.3494 C   0  0  0  0  0  0  0  0  0  0  0  0
   19.1028  -11.2805  -16.4736 C   0  0  2  0  0  0  0  0  0  0  0  0
   18.9601  -12.6947  -16.4755 N   0  0  0  0  0  0  0  0  0  0  0  0
   19.9879  -10.7997  -15.3597 C   0  0  0  0  0  0  0  0  0  0  0  0
   20.1983  -11.4973  -14.3278 O   0  0  0  0  0  0  0  0  0  0  0  0
   20.6321   -9.5366  -15.4114 N   0  0  0  0  0  0  0  0  0  0  0  0
   22.0237   -9.3220  -15.0440 C   0  0  1  0  0  0  0  0  0  0  0  0
   22.8216  -10.2810  -15.9180 C   0  0  0  0  0  0  0  0  0  0  0  0
   24.2658  -10.2145  -15.7094 C   0  0  0  0  0  0  0  0  0  0  0  0
   25.0897   -9.4473  -16.5020 C   0  0  0  0  0  0  0  0  0  0  0  0
   26.4679   -9.3979  -16.2762 C   0  0  0  0  0  0  0  0  0  0  0  0
   27.0277  -10.1136  -15.2595 C   0  0  0  0  0  0  0  0  0  0  0  0
   26.2043  -10.8886  -14.4570 C   0  0  0  0  0  0  0  0  0  0  0  0
   24.8447  -10.9326  -14.6856 C   0  0  0  0  0  0  0  0  0  0  0  0
   22.4414   -7.9290  -15.2390 C   0  0  0  0  0  0  0  0  0  0  0  0
   23.2315   -7.2972  -14.2982 O   0  0  0  0  0  0  0  0  0  0  0  0
   22.0917   -7.2914  -16.2549 O   0  0  0  0  0  0  0  0  0  0  0  0
  2  1  1  6
  3  4  1  0
  3  2  1  0
  4  5  1  0
  5  6  1  0
  7  6  1  0
  8  9  2  0
  8  2  1  0
 10 11  1  0
 12 11  1  1
 12 13  1  0
 12 14  1  0
 13  8  1  0
 14 16  1  0
 15 14  2  0
 16 17  1  0
 17 25  1  0
 17 18  1  6
 19 18  1  0
 20 19  2  0
 21 20  1  0
 22 21  2  0
 22 23  1  0
 23 24  2  0
 24 19  1  0
 25 27  2  0
 25 26  1  0
M  END
$$$$
