RLV.pdb
     RDKit          3D

 27 26  0  0  1  0  0  0  0  0999 V2000
    8.5040  -13.1935   17.1705 N   0  0  0  0  0  0  0  0  0  0  0  0
    8.1503  -12.6242   18.4268 C   0  0  0  0  0  0  0  0  0  0  0  0
    8.5610  -11.4311   18.6854 N   0  0  0  0  0  0  0  0  0  0  0  0
    7.3681  -13.3493   19.3689 N   0  0  0  0  0  0  0  0  0  0  0  0
    7.7164  -14.7218   19.6547 C   0  0  0  0  0  0  0  0  0  0  0  0
    8.7814  -14.8515   20.6876 C   0  0  0  0  0  0  0  0  0  0  0  0
    9.1788  -16.2574   20.9087 C   0  0  0  0  0  0  0  0  0  0  0  0
    8.4828  -17.0137   21.9825 C   0  0  2  0  0  0  0  0  0  0  0  0
    7.0533  -16.9344   21.9623 N   0  0  0  0  0  0  0  0  0  0  0  0
    8.9789  -16.4370   23.2889 C   0  0  0  0  0  0  0  0  0  0  0  0
   10.2142  -16.1963   23.3923 O   0  0  0  0  0  0  0  0  0  0  0  0
    8.3659  -10.9931   19.5945 C   0  0  0  0  0  0  0  0  0  0  0  0
    5.8482  -13.1824   26.7013 C   0  0  1  0  0  0  0  0  0  0  0  0
    7.0846  -13.5162   25.8013 C   0  0  0  0  0  0  0  0  0  0  0  0
    7.9920  -12.3516   25.9756 C   0  0  0  0  0  0  0  0  0  0  0  0
    7.5350  -14.8308   26.2474 C   0  0  2  0  0  0  0  0  0  0  0  0
    8.6634  -15.5489   25.6475 N   0  0  0  0  0  0  0  0  0  0  0  0
    8.1281  -16.1632   24.3766 C   0  0  0  0  0  0  0  0  0  0  0  0
    9.1894  -16.6920   26.4041 O   0  0  0  0  0  0  0  0  0  0  0  0
    8.4365  -17.6868   26.7205 C   0  0  0  0  0  0  0  0  0  0  0  0
   12.9260  -19.5611   27.7987 C   0  0  2  0  0  0  0  0  0  0  0  0
   12.3148  -18.4096   27.0763 C   0  0  0  0  0  0  0  0  0  0  0  0
   12.2753  -18.6431   25.5754 C   0  0  1  0  0  0  0  0  0  0  0  0
   10.9511  -18.0010   27.6083 N   0  0  0  0  0  0  0  0  0  0  0  0
   10.5437  -16.8385   26.8526 C   0  0  0  0  0  0  0  0  0  0  0  0
   10.9467  -17.8305   29.0587 O   0  0  0  0  0  0  0  0  0  0  0  0
   10.7756  -18.7882   30.0162 O   0  0  0  0  0  0  0  0  0  0  0  0
  2  3  2  0
  2  1  1  0
  4  2  1  0
  5  4  1  0
  6  5  1  0
  7  6  1  0
  8 10  1  0
  8  7  1  0
  8  9  1  6
 10 11  2  0
 13 12  1  6
 14 13  1  0
 16 15  1  6
 15 13  1  0
 17 16  1  0
 17 10  1  0
 18 16  1  0
 19 18  2  0
 21 20  1  6
 21 22  1  0
 23 21  1  0
 23 24  1  1
 24 18  1  0
 25 26  1  0
 25 23  1  0
 27 25  2  0
M  END
$$$$
