RLV.pdb
     RDKit          3D

 27 26  0  0  1  0  0  0  0  0999 V2000
    8.3385  -12.5351   17.5419 N   0  0  0  0  0  0  0  0  0  0  0  0
    8.3170  -13.6248   16.6257 C   0  0  0  0  0  0  0  0  0  0  0  0
    7.8130  -13.4211   15.4580 N   0  0  0  0  0  0  0  0  0  0  0  0
    8.8349  -14.9001   16.9871 N   0  0  0  0  0  0  0  0  0  0  0  0
    9.4454  -15.0619   18.2863 C   0  0  0  0  0  0  0  0  0  0  0  0
    8.5044  -14.8007   19.4107 C   0  0  0  0  0  0  0  0  0  0  0  0
    9.1573  -14.9327   20.7295 C   0  0  0  0  0  0  0  0  0  0  0  0
    8.6143  -15.9442   21.6737 C   0  0  2  0  0  0  0  0  0  0  0  0
    7.1921  -16.1074   21.6480 N   0  0  0  0  0  0  0  0  0  0  0  0
    9.0219  -15.4871   23.0559 C   0  0  0  0  0  0  0  0  0  0  0  0
   10.2531  -15.3151   23.2773 O   0  0  0  0  0  0  0  0  0  0  0  0
    7.7394  -14.1866   14.7760 C   0  0  0  0  0  0  0  0  0  0  0  0
    5.7595  -12.4408   26.5612 C   0  0  1  0  0  0  0  0  0  0  0  0
    6.9532  -12.7953   25.6128 C   0  0  0  0  0  0  0  0  0  0  0  0
    7.8782  -11.6383   25.7370 C   0  0  0  0  0  0  0  0  0  0  0  0
    7.4096  -14.1101   26.0521 C   0  0  2  0  0  0  0  0  0  0  0  0
    8.5510  -14.8131   25.4590 N   0  0  0  0  0  0  0  0  0  0  0  0
    8.0944  -15.2506   24.0881 C   0  0  0  0  0  0  0  0  0  0  0  0
    8.9646  -16.0604   26.1139 O   0  0  0  0  0  0  0  0  0  0  0  0
    8.2170  -17.1079   26.0884 C   0  0  0  0  0  0  0  0  0  0  0  0
   12.0410  -18.0668   25.5101 C   0  0  2  0  0  0  0  0  0  0  0  0
   11.9018  -17.9086   26.9856 C   0  0  0  0  0  0  0  0  0  0  0  0
   12.9410  -16.9547   27.5504 C   0  0  2  0  0  0  0  0  0  0  0  0
   10.5007  -17.5298   27.4362 N   0  0  0  0  0  0  0  0  0  0  0  0
   10.1974  -16.2586   26.8192 C   0  0  0  0  0  0  0  0  0  0  0  0
   10.3535  -17.5648   28.8887 O   0  0  0  0  0  0  0  0  0  0  0  0
   10.3327  -18.6592   29.7044 O   0  0  0  0  0  0  0  0  0  0  0  0
  2  3  2  0
  2  1  1  0
  4  2  1  0
  5  4  1  0
  6  5  1  0
  7  6  1  0
  8 10  1  0
  8  7  1  0
  8  9  1  1
 10 11  2  0
 13 12  1  6
 14 13  1  0
 16 15  1  6
 15 13  1  0
 17 16  1  0
 17 10  1  0
 18 16  1  0
 19 18  2  0
 21 20  1  1
 21 22  1  0
 23 21  1  0
 23 24  1  1
 24 18  1  0
 25 26  1  0
 25 23  1  0
 27 25  2  0
M  END
$$$$
