RLV.pdb
     RDKit          3D

 27 26  0  0  1  0  0  0  0  0999 V2000
    8.5177  -12.4781   16.8667 N   0  0  0  0  0  0  0  0  0  0  0  0
    9.1493  -13.6054   16.2684 C   0  0  0  0  0  0  0  0  0  0  0  0
    9.1177  -13.7034   14.9845 N   0  0  0  0  0  0  0  0  0  0  0  0
    9.7950  -14.5942   17.0623 N   0  0  0  0  0  0  0  0  0  0  0  0
    9.6960  -14.5071   18.5009 C   0  0  0  0  0  0  0  0  0  0  0  0
    8.2967  -14.6192   18.9982 C   0  0  0  0  0  0  0  0  0  0  0  0
    8.2108  -14.4747   20.4661 C   0  0  0  0  0  0  0  0  0  0  0  0
    8.4044  -15.6932   21.2951 C   0  0  2  0  0  0  0  0  0  0  0  0
    7.2299  -16.4835   21.5094 N   0  0  0  0  0  0  0  0  0  0  0  0
    8.9117  -15.2109   22.6351 C   0  0  0  0  0  0  0  0  0  0  0  0
   10.0863  -14.7501   22.6862 O   0  0  0  0  0  0  0  0  0  0  0  0
    9.5311  -14.5152   14.5086 C   0  0  0  0  0  0  0  0  0  0  0  0
    5.5224  -12.7884   26.2821 C   0  0  1  0  0  0  0  0  0  0  0  0
    6.6803  -12.9945   25.2493 C   0  0  0  0  0  0  0  0  0  0  0  0
    7.3218  -11.6576   25.1439 C   0  0  0  0  0  0  0  0  0  0  0  0
    7.4624  -14.1097   25.7732 C   0  0  2  0  0  0  0  0  0  0  0  0
    8.6422  -14.6608   25.1000 N   0  0  0  0  0  0  0  0  0  0  0  0
    8.1355  -15.2562   23.8086 C   0  0  0  0  0  0  0  0  0  0  0  0
    9.3161  -15.7799   25.7703 O   0  0  0  0  0  0  0  0  0  0  0  0
    8.7557  -16.9344   25.8691 C   0  0  0  0  0  0  0  0  0  0  0  0
   10.5544  -15.5797   30.0934 C   0  0  1  0  0  0  0  0  0  0  0  0
   10.2779  -15.2577   28.6646 C   0  0  0  0  0  0  0  0  0  0  0  0
   10.6946  -13.8386   28.3162 C   0  0  1  0  0  0  0  0  0  0  0  0
   10.8587  -16.2615   27.6823 N   0  0  0  0  0  0  0  0  0  0  0  0
   10.6226  -15.7297   26.3595 C   0  0  0  0  0  0  0  0  0  0  0  0
   10.3565  -17.6145   27.9054 O   0  0  0  0  0  0  0  0  0  0  0  0
   10.8685  -18.5750   28.7292 O   0  0  0  0  0  0  0  0  0  0  0  0
  2  3  2  0
  2  1  1  0
  4  2  1  0
  5  4  1  0
  6  5  1  0
  7  6  1  0
  8 10  1  0
  8  7  1  0
  8  9  1  1
 10 11  2  0
 13 12  1  6
 14 13  1  0
 16 15  1  6
 15 13  1  0
 17 16  1  0
 17 10  1  0
 18 16  1  0
 19 18  2  0
 21 20  1  1
 21 22  1  0
 23 21  1  0
 23 24  1  6
 24 18  1  0
 25 26  1  0
 25 23  1  0
 27 25  2  0
M  END
$$$$
