RLV.pdb
     RDKit          3D

 27 26  0  0  1  0  0  0  0  0999 V2000
    8.0178  -12.1815   16.8900 N   0  0  0  0  0  0  0  0  0  0  0  0
    7.6814  -13.5034   16.4811 C   0  0  0  0  0  0  0  0  0  0  0  0
    7.9461  -13.8450   15.2677 N   0  0  0  0  0  0  0  0  0  0  0  0
    7.0712  -14.4195   17.3830 N   0  0  0  0  0  0  0  0  0  0  0  0
    7.8770  -15.0143   18.4240 C   0  0  0  0  0  0  0  0  0  0  0  0
    8.6394  -14.0110   19.2178 C   0  0  0  0  0  0  0  0  0  0  0  0
    8.3168  -14.0744   20.6584 C   0  0  0  0  0  0  0  0  0  0  0  0
    8.4267  -15.3929   21.3359 C   0  0  2  0  0  0  0  0  0  0  0  0
    7.2197  -16.1616   21.3835 N   0  0  0  0  0  0  0  0  0  0  0  0
    8.8672  -15.0996   22.7521 C   0  0  0  0  0  0  0  0  0  0  0  0
   10.0261  -14.6271   22.9198 O   0  0  0  0  0  0  0  0  0  0  0  0
    7.8171  -14.8154   14.9545 C   0  0  0  0  0  0  0  0  0  0  0  0
    5.8937  -12.7515   26.6974 C   0  0  1  0  0  0  0  0  0  0  0  0
    7.1211  -13.0140   25.7622 C   0  0  0  0  0  0  0  0  0  0  0  0
    8.1008  -11.9604   26.1361 C   0  0  0  0  0  0  0  0  0  0  0  0
    7.4747  -14.4126   25.9834 C   0  0  2  0  0  0  0  0  0  0  0  0
    8.5585  -15.0980   25.2731 N   0  0  0  0  0  0  0  0  0  0  0  0
    8.0464  -15.3307   23.8722 C   0  0  0  0  0  0  0  0  0  0  0  0
    8.9107  -16.4401   25.7534 O   0  0  0  0  0  0  0  0  0  0  0  0
    8.0524  -17.3992   25.7444 C   0  0  0  0  0  0  0  0  0  0  0  0
   12.1148  -20.0383   26.3066 C   0  0  2  0  0  0  0  0  0  0  0  0
   11.6433  -18.6837   25.9016 C   0  0  0  0  0  0  0  0  0  0  0  0
   11.4009  -18.5960   24.4042 C   0  0  1  0  0  0  0  0  0  0  0  0
   10.4394  -18.1892   26.6864 N   0  0  0  0  0  0  0  0  0  0  0  0
   10.1952  -16.8311   26.2571 C   0  0  0  0  0  0  0  0  0  0  0  0
   10.6029  -18.3641   28.1271 O   0  0  0  0  0  0  0  0  0  0  0  0
   10.3104  -19.4662   28.8776 O   0  0  0  0  0  0  0  0  0  0  0  0
  2  3  2  0
  2  1  1  0
  4  2  1  0
  5  4  1  0
  6  5  1  0
  7  6  1  0
  8 10  1  0
  8  7  1  0
  8  9  1  1
 10 11  2  0
 13 12  1  6
 14 13  1  0
 16 15  1  6
 15 13  1  0
 17 16  1  0
 17 10  1  0
 18 16  1  0
 19 18  2  0
 21 20  1  6
 21 22  1  0
 23 21  1  0
 23 24  1  1
 24 18  1  0
 25 26  1  0
 25 23  1  0
 27 25  2  0
M  END
$$$$
