RLV.pdb
     RDKit          3D

 27 26  0  0  1  0  0  0  0  0999 V2000
    9.4701  -14.4536   16.8717 N   0  0  0  0  0  0  0  0  0  0  0  0
    8.4174  -13.5499   16.5511 C   0  0  0  0  0  0  0  0  0  0  0  0
    7.9872  -13.5315   15.3371 N   0  0  0  0  0  0  0  0  0  0  0  0
    7.8575  -12.6925   17.5392 N   0  0  0  0  0  0  0  0  0  0  0  0
    8.0412  -13.0224   18.9336 C   0  0  0  0  0  0  0  0  0  0  0  0
    7.9321  -14.4821   19.2079 C   0  0  0  0  0  0  0  0  0  0  0  0
    8.8162  -14.9123   20.3109 C   0  0  0  0  0  0  0  0  0  0  0  0
    8.3222  -15.9805   21.2189 C   0  0  2  0  0  0  0  0  0  0  0  0
    6.8993  -16.1297   21.2748 N   0  0  0  0  0  0  0  0  0  0  0  0
    8.8234  -15.6207   22.5990 C   0  0  0  0  0  0  0  0  0  0  0  0
   10.0543  -15.3704   22.7291 O   0  0  0  0  0  0  0  0  0  0  0  0
    7.3017  -12.8288   15.0327 C   0  0  0  0  0  0  0  0  0  0  0  0
    5.8343  -12.8307   26.4270 C   0  0  1  0  0  0  0  0  0  0  0  0
    7.0711  -13.1071   25.5083 C   0  0  0  0  0  0  0  0  0  0  0  0
    8.0349  -12.0294   25.8543 C   0  0  0  0  0  0  0  0  0  0  0  0
    7.4410  -14.4932   25.7763 C   0  0  2  0  0  0  0  0  0  0  0  0
    8.5290  -15.1912   25.0849 N   0  0  0  0  0  0  0  0  0  0  0  0
    7.9822  -15.5561   23.7259 C   0  0  0  0  0  0  0  0  0  0  0  0
    8.9519  -16.4753   25.6577 O   0  0  0  0  0  0  0  0  0  0  0  0
    8.1369  -17.4675   25.7471 C   0  0  0  0  0  0  0  0  0  0  0  0
   12.4245  -19.7710   26.6959 C   0  0  2  0  0  0  0  0  0  0  0  0
   11.8705  -18.5240   26.0964 C   0  0  0  0  0  0  0  0  0  0  0  0
   11.7486  -18.6311   24.5856 C   0  0  1  0  0  0  0  0  0  0  0  0
   10.5656  -18.0639   26.7251 N   0  0  0  0  0  0  0  0  0  0  0  0
   10.2645  -16.7711   26.1539 C   0  0  0  0  0  0  0  0  0  0  0  0
   10.6055  -18.1030   28.1844 O   0  0  0  0  0  0  0  0  0  0  0  0
   10.7904  -17.0618   29.0475 O   0  0  0  0  0  0  0  0  0  0  0  0
  2  3  2  0
  2  1  1  0
  4  2  1  0
  5  4  1  0
  6  5  1  0
  7  6  1  0
  8 10  1  0
  8  7  1  0
  8  9  1  1
 10 11  2  0
 13 12  1  6
 14 13  1  0
 16 15  1  6
 15 13  1  0
 17 16  1  0
 17 10  1  0
 18 16  1  0
 19 18  2  0
 21 20  1  6
 21 22  1  0
 23 21  1  0
 23 24  1  1
 24 18  1  0
 25 26  1  0
 25 23  1  0
 27 25  2  0
M  END
$$$$
