RLV.pdb
     RDKit          3D

 27 26  0  0  1  0  0  0  0  0999 V2000
    9.2485  -21.1424   14.5422 N   0  0  0  0  0  0  0  0  0  0  0  0
    9.6189  -22.3848   15.1311 C   0  0  0  0  0  0  0  0  0  0  0  0
    9.9224  -23.3584   14.3443 N   0  0  0  0  0  0  0  0  0  0  0  0
    9.6526  -22.5480   16.5443 N   0  0  0  0  0  0  0  0  0  0  0  0
    9.2468  -21.4443   17.3834 C   0  0  0  0  0  0  0  0  0  0  0  0
   10.3399  -20.4627   17.6268 C   0  0  0  0  0  0  0  0  0  0  0  0
    9.9057  -19.3430   18.4876 C   0  0  0  0  0  0  0  0  0  0  0  0
   10.0562  -17.9624   17.9576 C   0  0  2  0  0  0  0  0  0  0  0  0
   11.1854  -17.7523   17.1027 N   0  0  0  0  0  0  0  0  0  0  0  0
   10.1925  -17.0635   19.1655 C   0  0  0  0  0  0  0  0  0  0  0  0
   11.3473  -16.9050   19.6512 O   0  0  0  0  0  0  0  0  0  0  0  0
   10.2747  -24.2479   14.7198 C   0  0  0  0  0  0  0  0  0  0  0  0
    6.2996  -13.1588   20.4552 C   0  0  1  0  0  0  0  0  0  0  0  0
    7.6775  -13.7298   19.9805 C   0  0  0  0  0  0  0  0  0  0  0  0
    8.5173  -12.5242   19.7543 C   0  0  0  0  0  0  0  0  0  0  0  0
    8.0734  -14.6774   21.0174 C   0  0  2  0  0  0  0  0  0  0  0  0
    9.2868  -15.4969   20.9477 N   0  0  0  0  0  0  0  0  0  0  0  0
    9.0972  -16.4079   19.7590 C   0  0  0  0  0  0  0  0  0  0  0  0
    9.5226  -16.4151   22.0689 O   0  0  0  0  0  0  0  0  0  0  0  0
    8.8812  -17.5266   22.1682 C   0  0  0  0  0  0  0  0  0  0  0  0
   12.4745  -18.3492   25.4383 C   0  0  2  0  0  0  0  0  0  0  0  0
   12.1162  -17.4097   24.3381 C   0  0  0  0  0  0  0  0  0  0  0  0
   12.7527  -17.8171   23.0199 C   0  0  1  0  0  0  0  0  0  0  0  0
   10.6216  -17.1819   24.1834 N   0  0  0  0  0  0  0  0  0  0  0  0
   10.4591  -16.2019   23.1339 C   0  0  0  0  0  0  0  0  0  0  0  0
    9.9746  -16.8479   25.4493 O   0  0  0  0  0  0  0  0  0  0  0  0
    9.5588  -17.7009   26.4306 O   0  0  0  0  0  0  0  0  0  0  0  0
  2  3  2  0
  2  1  1  0
  4  2  1  0
  5  4  1  0
  6  5  1  0
  7  6  1  0
  8 10  1  0
  8  7  1  0
  8  9  1  6
 10 11  2  0
 13 12  1  6
 14 13  1  0
 16 15  1  6
 15 13  1  0
 17 16  1  0
 17 10  1  0
 18 16  1  0
 19 18  2  0
 21 20  1  1
 21 22  1  0
 23 21  1  0
 23 24  1  1
 24 18  1  0
 25 26  1  0
 25 23  1  0
 27 25  2  0
M  END
$$$$
