RLV.pdb
     RDKit          3D

 27 26  0  0  1  0  0  0  0  0999 V2000
   10.1064  -13.0807   19.3142 N   0  0  0  0  0  0  0  0  0  0  0  0
    8.7034  -12.8904   19.1620 C   0  0  0  0  0  0  0  0  0  0  0  0
    8.2148  -11.7378   19.4651 N   0  0  0  0  0  0  0  0  0  0  0  0
    7.8656  -13.9397   18.6907 N   0  0  0  0  0  0  0  0  0  0  0  0
    8.4637  -15.2098   18.3504 C   0  0  0  0  0  0  0  0  0  0  0  0
    8.2443  -16.2556   19.3878 C   0  0  0  0  0  0  0  0  0  0  0  0
    8.7292  -15.8348   20.7186 C   0  0  0  0  0  0  0  0  0  0  0  0
    8.6329  -16.8139   21.8329 C   0  0  2  0  0  0  0  0  0  0  0  0
    7.3419  -17.4032   22.0230 N   0  0  0  0  0  0  0  0  0  0  0  0
    9.0066  -16.0575   23.0873 C   0  0  0  0  0  0  0  0  0  0  0  0
   10.2255  -15.7774   23.2620 O   0  0  0  0  0  0  0  0  0  0  0  0
    7.2163  -11.5369   19.3268 C   0  0  0  0  0  0  0  0  0  0  0  0
    5.5958  -12.4713   25.9207 C   0  0  1  0  0  0  0  0  0  0  0  0
    6.8908  -12.8779   25.1413 C   0  0  0  0  0  0  0  0  0  0  0  0
    7.7939  -11.7067   25.2915 C   0  0  0  0  0  0  0  0  0  0  0  0
    7.2957  -14.1560   25.7181 C   0  0  2  0  0  0  0  0  0  0  0  0
    8.4819  -14.9016   25.2872 N   0  0  0  0  0  0  0  0  0  0  0  0
    8.0613  -15.6610   24.0521 C   0  0  0  0  0  0  0  0  0  0  0  0
    8.9682  -15.9437   26.2002 O   0  0  0  0  0  0  0  0  0  0  0  0
    9.3029  -15.6670   27.4118 C   0  0  0  0  0  0  0  0  0  0  0  0
    9.9819  -20.7370   27.1501 C   0  0  2  0  0  0  0  0  0  0  0  0
    9.3339  -19.6488   26.3644 C   0  0  0  0  0  0  0  0  0  0  0  0
    7.8227  -19.8029   26.3289 C   0  0  1  0  0  0  0  0  0  0  0  0
    9.7369  -18.2495   26.7996 N   0  0  0  0  0  0  0  0  0  0  0  0
    9.1128  -17.3325   25.8733 C   0  0  0  0  0  0  0  0  0  0  0  0
   11.1834  -18.1033   26.9371 O   0  0  0  0  0  0  0  0  0  0  0  0
   11.9306  -18.1811   28.0768 O   0  0  0  0  0  0  0  0  0  0  0  0
  2  3  2  0
  2  1  1  0
  4  2  1  0
  5  4  1  0
  6  5  1  0
  7  6  1  0
  8 10  1  0
  8  7  1  0
  8  9  1  1
 10 11  2  0
 13 12  1  6
 14 13  1  0
 16 15  1  6
 15 13  1  0
 17 16  1  0
 17 10  1  0
 18 16  1  0
 19 18  2  0
 21 20  1  6
 21 22  1  0
 23 21  1  0
 23 24  1  6
 24 18  1  0
 25 26  1  0
 25 23  1  0
 27 25  2  0
M  END
$$$$
