RLV.pdb
     RDKit          3D

 27 26  0  0  1  0  0  0  0  0999 V2000
    9.9434  -14.1577   17.1920 N   0  0  0  0  0  0  0  0  0  0  0  0
    8.6451  -14.0742   16.6133 C   0  0  0  0  0  0  0  0  0  0  0  0
    8.4972  -14.4853   15.4016 N   0  0  0  0  0  0  0  0  0  0  0  0
    7.5441  -13.5525   17.3487 N   0  0  0  0  0  0  0  0  0  0  0  0
    7.7599  -13.1098   18.7068 C   0  0  0  0  0  0  0  0  0  0  0  0
    8.7153  -13.9712   19.4573 C   0  0  0  0  0  0  0  0  0  0  0  0
    8.5333  -13.8669   20.9199 C   0  0  0  0  0  0  0  0  0  0  0  0
    8.4027  -15.1292   21.6939 C   0  0  2  0  0  0  0  0  0  0  0  0
    7.1094  -15.7424   21.6556 N   0  0  0  0  0  0  0  0  0  0  0  0
    8.7259  -14.7756   23.1278 C   0  0  0  0  0  0  0  0  0  0  0  0
    9.8799  -14.3266   23.3753 O   0  0  0  0  0  0  0  0  0  0  0  0
    7.5736  -14.4728   14.9510 C   0  0  0  0  0  0  0  0  0  0  0  0
    5.4642  -11.9900   26.4345 C   0  0  1  0  0  0  0  0  0  0  0  0
    6.7728  -12.3951   25.6771 C   0  0  0  0  0  0  0  0  0  0  0  0
    7.7446  -11.3247   26.0229 C   0  0  0  0  0  0  0  0  0  0  0  0
    7.0515  -13.7622   26.1052 C   0  0  2  0  0  0  0  0  0  0  0  0
    8.1717  -14.5595   25.5970 N   0  0  0  0  0  0  0  0  0  0  0  0
    7.8029  -14.9265   24.1799 C   0  0  0  0  0  0  0  0  0  0  0  0
    8.4063  -15.8523   26.2524 O   0  0  0  0  0  0  0  0  0  0  0  0
    8.5603  -15.9365   27.5275 C   0  0  0  0  0  0  0  0  0  0  0  0
    6.4333  -19.1220   25.6845 C   0  0  2  0  0  0  0  0  0  0  0  0
    7.8931  -19.4223   25.6959 C   0  0  0  0  0  0  0  0  0  0  0  0
    8.4036  -19.7889   24.3125 C   0  0  2  0  0  0  0  0  0  0  0  0
    8.7425  -18.3319   26.3277 N   0  0  0  0  0  0  0  0  0  0  0  0
    8.4785  -17.1201   25.5859 C   0  0  0  0  0  0  0  0  0  0  0  0
   10.1509  -18.7066   26.4223 O   0  0  0  0  0  0  0  0  0  0  0  0
   10.7291  -19.5864   27.2911 O   0  0  0  0  0  0  0  0  0  0  0  0
  2  3  2  0
  2  1  1  0
  4  2  1  0
  5  4  1  0
  6  5  1  0
  7  6  1  0
  8 10  1  0
  8  7  1  0
  8  9  1  1
 10 11  2  0
 13 12  1  6
 14 13  1  0
 16 15  1  6
 15 13  1  0
 17 16  1  0
 17 10  1  0
 18 16  1  0
 19 18  2  0
 21 20  1  1
 21 22  1  0
 23 21  1  0
 23 24  1  1
 24 18  1  0
 25 26  1  0
 25 23  1  0
 27 25  2  0
M  END
$$$$
