RLV.pdb
     RDKit          3D

 27 26  0  0  1  0  0  0  0  0999 V2000
    8.7629  -14.7395   16.5074 N   0  0  0  0  0  0  0  0  0  0  0  0
    8.0102  -13.5458   16.6981 C   0  0  0  0  0  0  0  0  0  0  0  0
    7.8475  -12.7672   15.6850 N   0  0  0  0  0  0  0  0  0  0  0  0
    7.4550  -13.2211   17.9674 N   0  0  0  0  0  0  0  0  0  0  0  0
    7.3727  -14.2516   18.9765 C   0  0  0  0  0  0  0  0  0  0  0  0
    8.6842  -14.8974   19.2605 C   0  0  0  0  0  0  0  0  0  0  0  0
    9.0298  -14.8555   20.6965 C   0  0  0  0  0  0  0  0  0  0  0  0
    8.6125  -16.0035   21.5436 C   0  0  2  0  0  0  0  0  0  0  0  0
    7.2097  -16.2900   21.5425 N   0  0  0  0  0  0  0  0  0  0  0  0
    9.0323  -15.6566   22.9540 C   0  0  0  0  0  0  0  0  0  0  0  0
   10.2350  -15.3209   23.1421 O   0  0  0  0  0  0  0  0  0  0  0  0
    7.3723  -11.8617   15.7886 C   0  0  0  0  0  0  0  0  0  0  0  0
    5.8026  -12.8049   26.2574 C   0  0  1  0  0  0  0  0  0  0  0  0
    7.1191  -13.1664   25.4917 C   0  0  0  0  0  0  0  0  0  0  0  0
    8.0270  -12.0201   25.7592 C   0  0  0  0  0  0  0  0  0  0  0  0
    7.4933  -14.4887   25.9831 C   0  0  2  0  0  0  0  0  0  0  0  0
    8.5955  -15.2792   25.4274 N   0  0  0  0  0  0  0  0  0  0  0  0
    8.1461  -15.6939   24.0471 C   0  0  0  0  0  0  0  0  0  0  0  0
    8.8973  -16.5478   26.1022 O   0  0  0  0  0  0  0  0  0  0  0  0
    8.0076  -17.4706   26.2184 C   0  0  0  0  0  0  0  0  0  0  0  0
   11.1967  -19.1915   25.2496 C   0  0  2  0  0  0  0  0  0  0  0  0
   11.4614  -18.8937   26.6859 C   0  0  0  0  0  0  0  0  0  0  0  0
   12.7897  -18.1813   26.8779 C   0  0  2  0  0  0  0  0  0  0  0  0
   10.3311  -18.1529   27.3810 N   0  0  0  0  0  0  0  0  0  0  0  0
   10.1624  -16.9019   26.6775 C   0  0  0  0  0  0  0  0  0  0  0  0
   10.5465  -18.0308   28.8202 O   0  0  0  0  0  0  0  0  0  0  0  0
   10.4427  -19.0053   29.7704 O   0  0  0  0  0  0  0  0  0  0  0  0
  2  3  2  0
  2  1  1  0
  4  2  1  0
  5  4  1  0
  6  5  1  0
  7  6  1  0
  8 10  1  0
  8  7  1  0
  8  9  1  1
 10 11  2  0
 13 12  1  6
 14 13  1  0
 16 15  1  6
 15 13  1  0
 17 16  1  0
 17 10  1  0
 18 16  1  0
 19 18  2  0
 21 20  1  1
 21 22  1  0
 23 21  1  0
 23 24  1  1
 24 18  1  0
 25 26  1  0
 25 23  1  0
 27 25  2  0
M  END
$$$$
