RLV.pdb
     RDKit          3D

 27 26  0  0  1  0  0  0  0  0999 V2000
    9.5246  -14.3938   16.3657 N   0  0  0  0  0  0  0  0  0  0  0  0
    8.2949  -13.6781   16.3080 C   0  0  0  0  0  0  0  0  0  0  0  0
    8.0758  -12.9378   15.2770 N   0  0  0  0  0  0  0  0  0  0  0  0
    7.3371  -13.7758   17.3559 N   0  0  0  0  0  0  0  0  0  0  0  0
    7.5451  -14.7501   18.4020 C   0  0  0  0  0  0  0  0  0  0  0  0
    8.0256  -14.1463   19.6757 C   0  0  0  0  0  0  0  0  0  0  0  0
    7.3519  -14.7226   20.8578 C   0  0  0  0  0  0  0  0  0  0  0  0
    8.0462  -15.8164   21.5866 C   0  0  2  0  0  0  0  0  0  0  0  0
    7.2256  -16.9340   21.9440 N   0  0  0  0  0  0  0  0  0  0  0  0
    8.5915  -15.1949   22.8523 C   0  0  0  0  0  0  0  0  0  0  0  0
    9.6363  -14.4920   22.7575 O   0  0  0  0  0  0  0  0  0  0  0  0
    7.2127  -12.3850   15.2003 C   0  0  0  0  0  0  0  0  0  0  0  0
    5.6581  -12.5099   26.5176 C   0  0  1  0  0  0  0  0  0  0  0  0
    6.8114  -12.8232   25.5066 C   0  0  0  0  0  0  0  0  0  0  0  0
    7.6213  -11.5771   25.4743 C   0  0  0  0  0  0  0  0  0  0  0  0
    7.4282  -14.0495   26.0025 C   0  0  2  0  0  0  0  0  0  0  0  0
    8.5586  -14.7125   25.3457 N   0  0  0  0  0  0  0  0  0  0  0  0
    7.9874  -15.3686   24.1119 C   0  0  0  0  0  0  0  0  0  0  0  0
    9.1872  -15.8174   26.0806 O   0  0  0  0  0  0  0  0  0  0  0  0
    9.4488  -15.7204   27.3371 C   0  0  0  0  0  0  0  0  0  0  0  0
    8.6779  -19.8106   25.2525 C   0  0  2  0  0  0  0  0  0  0  0  0
   10.0782  -19.4035   25.5605 C   0  0  0  0  0  0  0  0  0  0  0  0
   10.9454  -19.3805   24.3130 C   0  0  2  0  0  0  0  0  0  0  0  0
   10.1859  -18.0991   26.3329 N   0  0  0  0  0  0  0  0  0  0  0  0
    9.5591  -17.0832   25.5183 C   0  0  0  0  0  0  0  0  0  0  0  0
   11.5562  -17.8060   26.7440 O   0  0  0  0  0  0  0  0  0  0  0  0
   12.2658  -18.3708   27.7642 O   0  0  0  0  0  0  0  0  0  0  0  0
  2  3  2  0
  2  1  1  0
  4  2  1  0
  5  4  1  0
  6  5  1  0
  7  6  1  0
  8 10  1  0
  8  7  1  0
  8  9  1  1
 10 11  2  0
 13 12  1  6
 14 13  1  0
 16 15  1  6
 15 13  1  0
 17 16  1  0
 17 10  1  0
 18 16  1  0
 19 18  2  0
 21 20  1  1
 21 22  1  0
 23 21  1  0
 23 24  1  1
 24 18  1  0
 25 26  1  0
 25 23  1  0
 27 25  2  0
M  END
$$$$
