RLV.pdb
     RDKit          3D

 27 26  0  0  1  0  0  0  0  0999 V2000
    8.9872  -14.3406   15.5230 N   0  0  0  0  0  0  0  0  0  0  0  0
    7.9334  -13.8299   16.3331 C   0  0  0  0  0  0  0  0  0  0  0  0
    6.8262  -13.5157   15.7547 N   0  0  0  0  0  0  0  0  0  0  0  0
    8.0967  -13.6701   17.7376 N   0  0  0  0  0  0  0  0  0  0  0  0
    9.3678  -14.0086   18.3347 C   0  0  0  0  0  0  0  0  0  0  0  0
    9.3370  -15.2950   19.0845 C   0  0  0  0  0  0  0  0  0  0  0  0
   10.0054  -15.1935   20.3984 C   0  0  0  0  0  0  0  0  0  0  0  0
    9.6420  -16.1901   21.4397 C   0  0  2  0  0  0  0  0  0  0  0  0
    8.3322  -16.7555   21.3185 N   0  0  0  0  0  0  0  0  0  0  0  0
    9.7330  -15.4643   22.7627 C   0  0  0  0  0  0  0  0  0  0  0  0
   10.7754  -14.7891   22.9908 O   0  0  0  0  0  0  0  0  0  0  0  0
    6.7258  -13.5909   14.7346 C   0  0  0  0  0  0  0  0  0  0  0  0
    5.4199  -13.1912   25.9078 C   0  0  1  0  0  0  0  0  0  0  0  0
    6.7153  -13.1871   25.0291 C   0  0  0  0  0  0  0  0  0  0  0  0
    7.3550  -11.8777   25.3225 C   0  0  0  0  0  0  0  0  0  0  0  0
    7.4229  -14.4114   25.3902 C   0  0  2  0  0  0  0  0  0  0  0  0
    8.8069  -14.6945   24.9990 N   0  0  0  0  0  0  0  0  0  0  0  0
    8.7150  -15.5131   23.7338 C   0  0  0  0  0  0  0  0  0  0  0  0
    9.5874  -15.5363   25.9144 O   0  0  0  0  0  0  0  0  0  0  0  0
   10.0793  -16.6622   25.5310 C   0  0  0  0  0  0  0  0  0  0  0  0
   11.9433  -16.1242   30.2692 C   0  0  2  0  0  0  0  0  0  0  0  0
   11.0317  -15.3725   29.3606 C   0  0  0  0  0  0  0  0  0  0  0  0
   11.5764  -13.9926   29.0318 C   0  0  1  0  0  0  0  0  0  0  0  0
   10.6527  -16.1322   28.1001 N   0  0  0  0  0  0  0  0  0  0  0  0
    9.8921  -15.2179   27.2791 C   0  0  0  0  0  0  0  0  0  0  0  0
    9.9911  -17.4011   28.3915 O   0  0  0  0  0  0  0  0  0  0  0  0
   10.5624  -18.6326   28.5341 O   0  0  0  0  0  0  0  0  0  0  0  0
  2  3  2  0
  2  1  1  0
  4  2  1  0
  5  4  1  0
  6  5  1  0
  7  6  1  0
  8 10  1  0
  8  7  1  0
  8  9  1  6
 10 11  2  0
 13 12  1  6
 14 13  1  0
 16 15  1  6
 15 13  1  0
 17 16  1  0
 17 10  1  0
 18 16  1  0
 19 18  2  0
 21 20  1  1
 21 22  1  0
 23 21  1  0
 23 24  1  1
 24 18  1  0
 25 26  1  0
 25 23  1  0
 27 25  2  0
M  END
$$$$
