RLV.pdb
     RDKit          3D

 27 26  0  0  1  0  0  0  0  0999 V2000
    9.5817  -15.0229   16.4711 N   0  0  0  0  0  0  0  0  0  0  0  0
    8.8725  -13.8724   16.0228 C   0  0  0  0  0  0  0  0  0  0  0  0
    8.6580  -13.7508   14.7586 N   0  0  0  0  0  0  0  0  0  0  0  0
    8.4150  -12.8862   16.9410 N   0  0  0  0  0  0  0  0  0  0  0  0
    8.5538  -13.1345   18.3573 C   0  0  0  0  0  0  0  0  0  0  0  0
    7.4223  -13.9176   18.9268 C   0  0  0  0  0  0  0  0  0  0  0  0
    7.4543  -13.9549   20.4036 C   0  0  0  0  0  0  0  0  0  0  0  0
    7.7173  -15.2632   21.0584 C   0  0  2  0  0  0  0  0  0  0  0  0
    6.5784  -16.1193   21.2000 N   0  0  0  0  0  0  0  0  0  0  0  0
    8.2523  -14.9415   22.4352 C   0  0  0  0  0  0  0  0  0  0  0  0
    9.4434  -14.5306   22.5203 O   0  0  0  0  0  0  0  0  0  0  0  0
    8.1854  -12.9190   14.3828 C   0  0  0  0  0  0  0  0  0  0  0  0
    5.5934  -12.5537   26.7408 C   0  0  1  0  0  0  0  0  0  0  0  0
    6.8000  -12.7615   25.7656 C   0  0  0  0  0  0  0  0  0  0  0  0
    7.8567  -11.8568   26.2895 C   0  0  0  0  0  0  0  0  0  0  0  0
    7.0440  -14.2004   25.7647 C   0  0  2  0  0  0  0  0  0  0  0  0
    8.0920  -14.8455   24.9682 N   0  0  0  0  0  0  0  0  0  0  0  0
    7.4842  -15.0812   23.6066 C   0  0  0  0  0  0  0  0  0  0  0  0
    8.5193  -16.1803   25.4057 O   0  0  0  0  0  0  0  0  0  0  0  0
    7.7058  -17.1777   25.3989 C   0  0  0  0  0  0  0  0  0  0  0  0
   12.5474  -17.3917   25.5613 C   0  0  2  0  0  0  0  0  0  0  0  0
   11.3639  -18.2799   25.3823 C   0  0  0  0  0  0  0  0  0  0  0  0
   11.7217  -19.7427   25.5845 C   0  0  1  0  0  0  0  0  0  0  0  0
   10.1620  -17.8833   26.2236 N   0  0  0  0  0  0  0  0  0  0  0  0
    9.8350  -16.5228   25.8623 C   0  0  0  0  0  0  0  0  0  0  0  0
   10.3800  -18.1108   27.6496 O   0  0  0  0  0  0  0  0  0  0  0  0
   10.3435  -19.2959   28.3260 O   0  0  0  0  0  0  0  0  0  0  0  0
  2  3  2  0
  2  1  1  0
  4  2  1  0
  5  4  1  0
  6  5  1  0
  7  6  1  0
  8 10  1  0
  8  7  1  0
  8  9  1  1
 10 11  2  0
 13 12  1  6
 14 13  1  0
 16 15  1  6
 15 13  1  0
 17 16  1  0
 17 10  1  0
 18 16  1  0
 19 18  2  0
 21 20  1  6
 21 22  1  0
 23 21  1  0
 23 24  1  6
 24 18  1  0
 25 26  1  0
 25 23  1  0
 27 25  2  0
M  END
$$$$
