RLV.pdb
     RDKit          3D

 27 26  0  0  1  0  0  0  0  0999 V2000
    9.9385  -13.7056   18.5653 N   0  0  0  0  0  0  0  0  0  0  0  0
    8.6995  -13.0143   18.6861 C   0  0  0  0  0  0  0  0  0  0  0  0
    8.7343  -11.7346   18.8284 N   0  0  0  0  0  0  0  0  0  0  0  0
    7.4606  -13.7136   18.6517 N   0  0  0  0  0  0  0  0  0  0  0  0
    7.4734  -15.1458   18.4634 C   0  0  0  0  0  0  0  0  0  0  0  0
    7.5149  -15.9033   19.7449 C   0  0  0  0  0  0  0  0  0  0  0  0
    8.8915  -16.0602   20.2584 C   0  0  0  0  0  0  0  0  0  0  0  0
    9.0865  -16.8890   21.4769 C   0  0  2  0  0  0  0  0  0  0  0  0
    8.0143  -17.7853   21.7883 N   0  0  0  0  0  0  0  0  0  0  0  0
    9.2492  -15.9160   22.6225 C   0  0  0  0  0  0  0  0  0  0  0  0
   10.2180  -15.1076   22.5722 O   0  0  0  0  0  0  0  0  0  0  0  0
    7.8822  -11.2076   19.0578 C   0  0  0  0  0  0  0  0  0  0  0  0
    5.2984  -13.2513   26.0162 C   0  0  1  0  0  0  0  0  0  0  0  0
    6.3701  -13.4221   24.8883 C   0  0  0  0  0  0  0  0  0  0  0  0
    7.0245  -12.0904   24.7975 C   0  0  0  0  0  0  0  0  0  0  0  0
    7.1709  -14.5720   25.2964 C   0  0  2  0  0  0  0  0  0  0  0  0
    8.5264  -14.8333   24.8034 N   0  0  0  0  0  0  0  0  0  0  0  0
    8.3749  -15.8790   23.7251 C   0  0  0  0  0  0  0  0  0  0  0  0
    9.4658  -15.4359   25.7574 O   0  0  0  0  0  0  0  0  0  0  0  0
   10.2390  -16.4051   25.4118 C   0  0  0  0  0  0  0  0  0  0  0  0
   11.7238  -15.3776   30.2062 C   0  0  2  0  0  0  0  0  0  0  0  0
   10.7343  -14.8499   29.2244 C   0  0  0  0  0  0  0  0  0  0  0  0
   11.0226  -13.4043   28.8556 C   0  0  1  0  0  0  0  0  0  0  0  0
   10.5729  -15.7150   27.9854 N   0  0  0  0  0  0  0  0  0  0  0  0
    9.6367  -15.0312   27.1226 C   0  0  0  0  0  0  0  0  0  0  0  0
   10.2225  -17.0949   28.3105 O   0  0  0  0  0  0  0  0  0  0  0  0
   11.0658  -18.1379   28.5643 O   0  0  0  0  0  0  0  0  0  0  0  0
  2  3  2  0
  2  1  1  0
  4  2  1  0
  5  4  1  0
  6  5  1  0
  7  6  1  0
  8 10  1  0
  8  7  1  0
  8  9  1  1
 10 11  2  0
 13 12  1  6
 14 13  1  0
 16 15  1  6
 15 13  1  0
 17 16  1  0
 17 10  1  0
 18 16  1  0
 19 18  2  0
 21 20  1  1
 21 22  1  0
 23 21  1  0
 23 24  1  1
 24 18  1  0
 25 26  1  0
 25 23  1  0
 27 25  2  0
M  END
$$$$
