SYI.pdb
     RDKit          3D

 27 27  0  0  1  0  0  0  0  0999 V2000
   12.0198  -12.1899  -14.5854 O   0  0  0  0  0  0  0  0  0  0  0  0
   13.0455  -11.8198  -13.7033 C   0  0  0  0  0  0  0  0  0  0  0  0
   14.3584  -12.1806  -14.3663 C   0  0  2  0  0  0  0  0  0  0  0  0
   14.5136  -13.6014  -14.2879 N   0  0  0  0  0  0  0  0  0  0  0  0
   15.4974  -11.4973  -13.7384 C   0  0  0  0  0  0  0  0  0  0  0  0
   16.1049  -12.0528  -12.7901 O   0  0  0  0  0  0  0  0  0  0  0  0
   22.0789   -5.8715  -12.3653 O   0  0  0  0  0  0  0  0  0  0  0  0
   21.1003   -6.6950  -12.9015 C   0  0  0  0  0  0  0  0  0  0  0  0
   21.0849   -8.0704  -12.6652 C   0  0  0  0  0  0  0  0  0  0  0  0
   20.1059   -8.8828  -13.2037 C   0  0  0  0  0  0  0  0  0  0  0  0
   19.1161   -8.3361  -13.9940 C   0  0  0  0  0  0  0  0  0  0  0  0
   18.0415   -9.1553  -14.5957 C   0  0  0  0  0  0  0  0  0  0  0  0
   16.9534   -9.4403  -13.6170 C   0  0  2  0  0  0  0  0  0  0  0  0
   15.8959  -10.2069  -14.2196 N   0  0  0  0  0  0  0  0  0  0  0  0
   16.3728   -8.1965  -13.0302 C   0  0  0  0  0  0  0  0  0  0  0  0
   15.5567   -7.5171  -13.6982 O   0  0  0  0  0  0  0  0  0  0  0  0
   19.1241   -6.9806  -14.2320 C   0  0  0  0  0  0  0  0  0  0  0  0
   20.1130   -6.1754  -13.6852 C   0  0  0  0  0  0  0  0  0  0  0  0
   14.2327   -8.0328   -8.1777 C   0  0  0  0  0  0  0  0  0  0  0  0
   14.5137   -7.7218   -9.6457 C   0  0  0  0  0  0  0  0  0  0  0  0
   15.6463   -6.7411   -9.7837 C   0  0  2  0  0  0  0  0  0  0  0  0
   15.2649   -5.4754   -9.0526 C   0  0  0  0  0  0  0  0  0  0  0  0
   16.0037   -6.5609  -11.2139 C   0  0  2  0  0  0  0  0  0  0  0  0
   16.6989   -7.7360  -11.7414 N   0  0  0  0  0  0  0  0  0  0  0  0
   16.8477   -5.3694  -11.4410 C   0  0  0  0  0  0  0  0  0  0  0  0
   18.1288   -5.4823  -11.4833 O   0  0  0  0  0  0  0  0  0  0  0  0
   16.3925   -4.0797  -11.6260 O   0  0  0  0  0  0  0  0  0  0  0  0
  2  1  1  0
  3  4  1  1
  3  2  1  0
  5  3  1  0
  6  5  2  0
  7  8  1  0
  8 18  2  0
  8  9  1  0
  9 10  2  0
 10 11  1  0
 11 12  1  0
 13 12  1  6
 13 14  1  0
 14  5  1  0
 15 24  1  0
 15 13  1  0
 16 15  2  0
 17 11  2  0
 18 17  1  0
 20 19  1  0
 21 20  1  0
 21 22  1  6
 23 21  1  0
 23 24  1  1
 25 23  1  0
 25 27  1  0
 26 25  2  0
M  END
$$$$
