SYI.pdb
     RDKit          3D

 27 27  0  0  1  0  0  0  0  0999 V2000
   20.4223   -8.9514  -19.3232 O   0  0  0  0  0  0  0  0  0  0  0  0
   20.3858  -10.2990  -18.9363 C   0  0  0  0  0  0  0  0  0  0  0  0
   21.3118  -10.4490  -17.7474 C   0  0  2  0  0  0  0  0  0  0  0  0
   21.4478  -11.8468  -17.4708 N   0  0  0  0  0  0  0  0  0  0  0  0
   20.8117   -9.7312  -16.5671 C   0  0  0  0  0  0  0  0  0  0  0  0
   19.9274  -10.2614  -15.8502 O   0  0  0  0  0  0  0  0  0  0  0  0
   19.0561   -5.5514   -9.4192 O   0  0  0  0  0  0  0  0  0  0  0  0
   19.5972   -6.2300  -10.5008 C   0  0  0  0  0  0  0  0  0  0  0  0
   19.0188   -7.3972  -11.0018 C   0  0  0  0  0  0  0  0  0  0  0  0
   19.5651   -8.0664  -12.0799 C   0  0  0  0  0  0  0  0  0  0  0  0
   20.7067   -7.5816  -12.6839 C   0  0  0  0  0  0  0  0  0  0  0  0
   21.3353   -8.2538  -13.8419 C   0  0  0  0  0  0  0  0  0  0  0  0
   20.8897   -7.6565  -15.1334 C   0  0  2  0  0  0  0  0  0  0  0  0
   21.3423   -8.4366  -16.2538 N   0  0  0  0  0  0  0  0  0  0  0  0
   21.3594   -6.2499  -15.3042 C   0  0  0  0  0  0  0  0  0  0  0  0
   22.5829   -6.0180  -15.4560 O   0  0  0  0  0  0  0  0  0  0  0  0
   21.2833   -6.4312  -12.1960 C   0  0  0  0  0  0  0  0  0  0  0  0
   20.7249   -5.7683  -11.1125 C   0  0  0  0  0  0  0  0  0  0  0  0
   18.4503   -2.3482  -17.9146 C   0  0  0  0  0  0  0  0  0  0  0  0
   19.0091   -3.0269  -16.6664 C   0  0  0  0  0  0  0  0  0  0  0  0
   20.5001   -3.2005  -16.7667 C   0  0  2  0  0  0  0  0  0  0  0  0
   20.8010   -3.9633  -18.0355 C   0  0  0  0  0  0  0  0  0  0  0  0
   21.0354   -3.8090  -15.5222 C   0  0  2  0  0  0  0  0  0  0  0  0
   20.4850   -5.1477  -15.3042 N   0  0  0  0  0  0  0  0  0  0  0  0
   20.7637   -2.9845  -14.3263 C   0  0  0  0  0  0  0  0  0  0  0  0
   21.3622   -1.8565  -14.1684 O   0  0  0  0  0  0  0  0  0  0  0  0
   19.8910   -3.3033  -13.3059 O   0  0  0  0  0  0  0  0  0  0  0  0
  2  1  1  0
  3  4  1  1
  3  2  1  0
  5  3  1  0
  6  5  2  0
  7  8  1  0
  8 18  2  0
  8  9  1  0
  9 10  2  0
 10 11  1  0
 11 12  1  0
 13 12  1  1
 13 14  1  0
 14  5  1  0
 15 24  1  0
 15 13  1  0
 16 15  2  0
 17 11  2  0
 18 17  1  0
 20 19  1  0
 21 20  1  0
 21 22  1  6
 23 21  1  0
 23 24  1  1
 25 23  1  0
 25 27  1  0
 26 25  2  0
M  END
$$$$
