SYI.pdb
     RDKit          3D

 27 27  0  0  1  0  0  0  0  0999 V2000
   30.8644  -37.0460   -6.0461 O   0  0  0  0  0  0  0  0  0  0  0  0
   30.7625  -37.8218   -7.2101 C   0  0  0  0  0  0  0  0  0  0  0  0
   29.9944  -39.0754   -6.8470 C   0  0  2  0  0  0  0  0  0  0  0  0
   29.9233  -39.9001   -8.0148 N   0  0  0  0  0  0  0  0  0  0  0  0
   28.6485  -38.7691   -6.3436 C   0  0  0  0  0  0  0  0  0  0  0  0
   27.7099  -38.5903   -7.1585 O   0  0  0  0  0  0  0  0  0  0  0  0
   24.6908  -43.9499   -6.0721 O   0  0  0  0  0  0  0  0  0  0  0  0
   25.1594  -42.8178   -5.4226 C   0  0  0  0  0  0  0  0  0  0  0  0
   24.3780  -41.6693   -5.2889 C   0  0  0  0  0  0  0  0  0  0  0  0
   24.8535  -40.5461   -4.6401 C   0  0  0  0  0  0  0  0  0  0  0  0
   26.1263  -40.5461   -4.1082 C   0  0  0  0  0  0  0  0  0  0  0  0
   26.6883  -39.3744   -3.4015 C   0  0  0  0  0  0  0  0  0  0  0  0
   27.1581  -38.3295   -4.3558 C   0  0  2  0  0  0  0  0  0  0  0  0
   28.4299  -38.6795   -4.9295 N   0  0  0  0  0  0  0  0  0  0  0  0
   27.2703  -36.9839   -3.7195 C   0  0  0  0  0  0  0  0  0  0  0  0
   28.2905  -36.6980   -3.0475 O   0  0  0  0  0  0  0  0  0  0  0  0
   26.9034  -41.6747   -4.2356 C   0  0  0  0  0  0  0  0  0  0  0  0
   26.4142  -42.7964   -4.8896 C   0  0  0  0  0  0  0  0  0  0  0  0
   25.0672  -32.5522   -5.9712 C   0  0  0  0  0  0  0  0  0  0  0  0
   25.9345  -33.6033   -5.2828 C   0  0  0  0  0  0  0  0  0  0  0  0
   25.6670  -33.6403   -3.8027 C   0  0  2  0  0  0  0  0  0  0  0  0
   25.8929  -32.2533   -3.2486 C   0  0  0  0  0  0  0  0  0  0  0  0
   26.4647  -34.7151   -3.1591 C   0  0  2  0  0  0  0  0  0  0  0  0
   26.2725  -35.9989   -3.8354 N   0  0  0  0  0  0  0  0  0  0  0  0
   26.1406  -34.8807   -1.7269 C   0  0  0  0  0  0  0  0  0  0  0  0
   25.1993  -35.6796   -1.3646 O   0  0  0  0  0  0  0  0  0  0  0  0
   26.7696  -34.2432   -0.6769 O   0  0  0  0  0  0  0  0  0  0  0  0
  2  1  1  0
  3  4  1  6
  3  2  1  0
  5  3  1  0
  6  5  2  0
  7  8  1  0
  8 18  2  0
  8  9  1  0
  9 10  2  0
 10 11  1  0
 11 12  1  0
 13 12  1  1
 13 14  1  0
 14  5  1  0
 15 24  1  0
 15 13  1  0
 16 15  2  0
 17 11  2  0
 18 17  1  0
 20 19  1  0
 21 20  1  0
 21 22  1  1
 23 21  1  0
 23 24  1  6
 25 23  1  0
 25 27  1  0
 26 25  2  0
M  END
$$$$
