SYI.pdb
     RDKit          3D

 27 27  0  0  1  0  0  0  0  0999 V2000
   15.2732  -12.0532  -13.9196 O   0  0  0  0  0  0  0  0  0  0  0  0
   16.3848  -11.5217  -14.5897 C   0  0  0  0  0  0  0  0  0  0  0  0
   15.8576  -10.6498  -15.7101 C   0  0  2  0  0  0  0  0  0  0  0  0
   15.6946  -11.4747  -16.8684 N   0  0  0  0  0  0  0  0  0  0  0  0
   16.7539   -9.5214  -15.9967 C   0  0  0  0  0  0  0  0  0  0  0  0
   17.5767   -9.6104  -16.9411 O   0  0  0  0  0  0  0  0  0  0  0  0
   19.8474   -1.3310  -16.2978 O   0  0  0  0  0  0  0  0  0  0  0  0
   19.0822   -2.4526  -16.0153 C   0  0  0  0  0  0  0  0  0  0  0  0
   18.9092   -2.9161  -14.7103 C   0  0  0  0  0  0  0  0  0  0  0  0
   18.1450   -4.0344  -14.4386 C   0  0  0  0  0  0  0  0  0  0  0  0
   17.5340   -4.7173  -15.4698 C   0  0  0  0  0  0  0  0  0  0  0  0
   16.7028   -5.9190  -15.2397 C   0  0  0  0  0  0  0  0  0  0  0  0
   17.4851   -7.1739  -15.4308 C   0  0  2  0  0  0  0  0  0  0  0  0
   16.6734   -8.3372  -15.1925 N   0  0  0  0  0  0  0  0  0  0  0  0
   18.6881   -7.2368  -14.5493 C   0  0  0  0  0  0  0  0  0  0  0  0
   18.5540   -7.5232  -13.3353 O   0  0  0  0  0  0  0  0  0  0  0  0
   17.6995   -4.2667  -16.7596 C   0  0  0  0  0  0  0  0  0  0  0  0
   18.4696   -3.1421  -17.0193 C   0  0  0  0  0  0  0  0  0  0  0  0
   23.7834   -9.8598  -13.7245 C   0  0  0  0  0  0  0  0  0  0  0  0
   23.0266   -8.5625  -13.4506 C   0  0  0  0  0  0  0  0  0  0  0  0
   21.9223   -8.3587  -14.4519 C   0  0  2  0  0  0  0  0  0  0  0  0
   22.5365   -8.3352  -15.8318 C   0  0  0  0  0  0  0  0  0  0  0  0
   21.1175   -7.1616  -14.0985 C   0  0  2  0  0  0  0  0  0  0  0  0
   19.9912   -6.9868  -15.0170 N   0  0  0  0  0  0  0  0  0  0  0  0
   21.9203   -5.9210  -14.0917 C   0  0  0  0  0  0  0  0  0  0  0  0
   21.9363   -5.1549  -15.1253 O   0  0  0  0  0  0  0  0  0  0  0  0
   22.6945   -5.4649  -13.0442 O   0  0  0  0  0  0  0  0  0  0  0  0
  2  1  1  0
  3  4  1  6
  3  2  1  0
  5  3  1  0
  6  5  2  0
  7  8  1  0
  8 18  2  0
  8  9  1  0
  9 10  2  0
 10 11  1  0
 11 12  1  0
 13 12  1  1
 13 14  1  0
 14  5  1  0
 15 24  1  0
 15 13  1  0
 16 15  2  0
 17 11  2  0
 18 17  1  0
 20 19  1  0
 21 20  1  0
 21 22  1  6
 23 21  1  0
 23 24  1  6
 25 23  1  0
 25 27  1  0
 26 25  2  0
M  END
$$$$
