SYI.pdb
     RDKit          3D

 27 27  0  0  1  0  0  0  0  0999 V2000
   26.4332  -10.4996  -19.8911 O   0  0  0  0  0  0  0  0  0  0  0  0
   25.3270   -9.7216  -19.5193 C   0  0  0  0  0  0  0  0  0  0  0  0
   24.1859  -10.6746  -19.2305 C   0  0  2  0  0  0  0  0  0  0  0  0
   23.8133  -11.2992  -20.4633 N   0  0  0  0  0  0  0  0  0  0  0  0
   23.0360   -9.9881  -18.6264 C   0  0  0  0  0  0  0  0  0  0  0  0
   22.1746   -9.4553  -19.3688 O   0  0  0  0  0  0  0  0  0  0  0  0
   17.8110  -14.0196  -18.1070 O   0  0  0  0  0  0  0  0  0  0  0  0
   18.6165  -13.0782  -17.4839 C   0  0  0  0  0  0  0  0  0  0  0  0
   18.1798  -11.7731  -17.2525 C   0  0  0  0  0  0  0  0  0  0  0  0
   18.9895  -10.8421  -16.6310 C   0  0  0  0  0  0  0  0  0  0  0  0
   20.2594  -11.1967  -16.2252 C   0  0  0  0  0  0  0  0  0  0  0  0
   21.1700  -10.2440  -15.5536 C   0  0  0  0  0  0  0  0  0  0  0  0
   21.8086   -9.3133  -16.5278 C   0  0  2  0  0  0  0  0  0  0  0  0
   22.9170   -9.9383  -17.1985 N   0  0  0  0  0  0  0  0  0  0  0  0
   22.2831   -8.0519  -15.8858 C   0  0  0  0  0  0  0  0  0  0  0  0
   23.2898   -8.0766  -15.1376 O   0  0  0  0  0  0  0  0  0  0  0  0
   20.6978  -12.4818  -16.4496 C   0  0  0  0  0  0  0  0  0  0  0  0
   19.8748  -13.4075  -17.0749 C   0  0  0  0  0  0  0  0  0  0  0  0
   23.4176   -2.2719  -16.8519 C   0  0  0  0  0  0  0  0  0  0  0  0
   23.0359   -3.3267  -15.8163 C   0  0  0  0  0  0  0  0  0  0  0  0
   22.5741   -4.5950  -16.4809 C   0  0  2  0  0  0  0  0  0  0  0  0
   21.4633   -4.2449  -17.4430 C   0  0  0  0  0  0  0  0  0  0  0  0
   22.2273   -5.6173  -15.4610 C   0  0  2  0  0  0  0  0  0  0  0  0
   21.6484   -6.8113  -16.0790 N   0  0  0  0  0  0  0  0  0  0  0  0
   21.2852   -5.1059  -14.4439 C   0  0  0  0  0  0  0  0  0  0  0  0
   20.0542   -5.4803  -14.4557 O   0  0  0  0  0  0  0  0  0  0  0  0
   21.5938   -4.2270  -13.4257 O   0  0  0  0  0  0  0  0  0  0  0  0
  2  1  1  0
  3  4  1  6
  3  2  1  0
  5  3  1  0
  6  5  2  0
  7  8  1  0
  8 18  2  0
  8  9  1  0
  9 10  2  0
 10 11  1  0
 11 12  1  0
 13 12  1  1
 13 14  1  0
 14  5  1  0
 15 24  1  0
 15 13  1  0
 16 15  2  0
 17 11  2  0
 18 17  1  0
 20 19  1  0
 21 20  1  0
 21 22  1  1
 23 21  1  0
 23 24  1  6
 25 23  1  0
 25 27  1  0
 26 25  2  0
M  END
$$$$
