SYI.pdb
     RDKit          3D

 27 27  0  0  1  0  0  0  0  0999 V2000
   26.7510  -19.8254  -17.5583 O   0  0  0  0  0  0  0  0  0  0  0  0
   27.1701  -21.0763  -18.0346 C   0  0  0  0  0  0  0  0  0  0  0  0
   28.1122  -21.6566  -17.0006 C   0  0  2  0  0  0  0  0  0  0  0  0
   28.5853  -22.9139  -17.4948 N   0  0  0  0  0  0  0  0  0  0  0  0
   27.4602  -21.8228  -15.6946 C   0  0  0  0  0  0  0  0  0  0  0  0
   26.6796  -22.7894  -15.5123 O   0  0  0  0  0  0  0  0  0  0  0  0
   25.4629  -20.4188   -7.2339 O   0  0  0  0  0  0  0  0  0  0  0  0
   26.0865  -20.4033   -8.4725 C   0  0  0  0  0  0  0  0  0  0  0  0
   27.0767  -21.3271   -8.8097 C   0  0  0  0  0  0  0  0  0  0  0  0
   27.6924  -21.3039  -10.0462 C   0  0  0  0  0  0  0  0  0  0  0  0
   27.3304  -20.3524  -10.9772 C   0  0  0  0  0  0  0  0  0  0  0  0
   27.9528  -20.2797  -12.3171 C   0  0  0  0  0  0  0  0  0  0  0  0
   27.1175  -20.9577  -13.3494 C   0  0  2  0  0  0  0  0  0  0  0  0
   27.7267  -20.8777  -14.6499 N   0  0  0  0  0  0  0  0  0  0  0  0
   25.7376  -20.3937  -13.4280 C   0  0  0  0  0  0  0  0  0  0  0  0
   25.5193  -19.3838  -14.1396 O   0  0  0  0  0  0  0  0  0  0  0  0
   26.3547  -19.4377  -10.6526 C   0  0  0  0  0  0  0  0  0  0  0  0
   25.7439  -19.4717   -9.4072 C   0  0  0  0  0  0  0  0  0  0  0  0
   21.0434  -20.7393  -16.0960 C   0  0  0  0  0  0  0  0  0  0  0  0
   21.4751  -20.3805  -14.6763 C   0  0  0  0  0  0  0  0  0  0  0  0
   22.8595  -20.8928  -14.3861 C   0  0  2  0  0  0  0  0  0  0  0  0
   22.8676  -22.3854  -14.6188 C   0  0  0  0  0  0  0  0  0  0  0  0
   23.2982  -20.4622  -13.0342 C   0  0  2  0  0  0  0  0  0  0  0  0
   24.6464  -20.9457  -12.7324 N   0  0  0  0  0  0  0  0  0  0  0  0
   22.3814  -20.9190  -11.9690 C   0  0  0  0  0  0  0  0  0  0  0  0
   22.7521  -21.8351  -11.1450 O   0  0  0  0  0  0  0  0  0  0  0  0
   21.1045  -20.4463  -11.7439 O   0  0  0  0  0  0  0  0  0  0  0  0
  2  1  1  0
  3  4  1  6
  3  2  1  0
  5  3  1  0
  6  5  2  0
  7  8  1  0
  8 18  2  0
  8  9  1  0
  9 10  2  0
 10 11  1  0
 11 12  1  0
 13 12  1  1
 13 14  1  0
 14  5  1  0
 15 24  1  0
 15 13  1  0
 16 15  2  0
 17 11  2  0
 18 17  1  0
 20 19  1  0
 21 20  1  0
 21 22  1  1
 23 21  1  0
 23 24  1  1
 25 23  1  0
 25 27  1  0
 26 25  2  0
M  END
$$$$
