SYI.pdb
     RDKit          3D

 27 27  0  0  1  0  0  0  0  0999 V2000
   29.2293  -18.6671  -15.5773 O   0  0  0  0  0  0  0  0  0  0  0  0
   28.2165  -18.2547  -14.6990 C   0  0  0  0  0  0  0  0  0  0  0  0
   27.0277  -19.1647  -14.9272 C   0  0  2  0  0  0  0  0  0  0  0  0
   26.3332  -18.6965  -16.0880 N   0  0  0  0  0  0  0  0  0  0  0  0
   26.1313  -19.2005  -13.7637 C   0  0  0  0  0  0  0  0  0  0  0  0
   25.5254  -18.1563  -13.4182 O   0  0  0  0  0  0  0  0  0  0  0  0
   20.0050  -19.5201  -15.7013 O   0  0  0  0  0  0  0  0  0  0  0  0
   20.9936  -20.0379  -14.8781 C   0  0  0  0  0  0  0  0  0  0  0  0
   22.0847  -20.7412  -15.3906 C   0  0  0  0  0  0  0  0  0  0  0  0
   23.0647  -21.2534  -14.5626 C   0  0  0  0  0  0  0  0  0  0  0  0
   22.9755  -21.0733  -13.1978 C   0  0  0  0  0  0  0  0  0  0  0  0
   23.9948  -21.5969  -12.2625 C   0  0  0  0  0  0  0  0  0  0  0  0
   25.0352  -20.5744  -11.9536 C   0  0  2  0  0  0  0  0  0  0  0  0
   25.9638  -20.4281  -13.0422 N   0  0  0  0  0  0  0  0  0  0  0  0
   25.7969  -20.8924  -10.7098 C   0  0  0  0  0  0  0  0  0  0  0  0
   26.6743  -21.7889  -10.7312 O   0  0  0  0  0  0  0  0  0  0  0  0
   21.9028  -20.3808  -12.6842 C   0  0  0  0  0  0  0  0  0  0  0  0
   20.9250  -19.8713  -13.5266 C   0  0  0  0  0  0  0  0  0  0  0  0
   28.4073  -18.0310   -7.1651 C   0  0  0  0  0  0  0  0  0  0  0  0
   27.8610  -19.1750   -8.0157 C   0  0  0  0  0  0  0  0  0  0  0  0
   26.6760  -19.8235   -7.3534 C   0  0  2  0  0  0  0  0  0  0  0  0
   27.1163  -20.3430   -6.0049 C   0  0  0  0  0  0  0  0  0  0  0  0
   26.0704  -20.8376   -8.2536 C   0  0  2  0  0  0  0  0  0  0  0  0
   25.5788  -20.2268   -9.4897 N   0  0  0  0  0  0  0  0  0  0  0  0
   24.9592  -21.5719   -7.6134 C   0  0  0  0  0  0  0  0  0  0  0  0
   25.1772  -22.2969   -6.5731 O   0  0  0  0  0  0  0  0  0  0  0  0
   23.6422  -21.5650   -8.0257 O   0  0  0  0  0  0  0  0  0  0  0  0
  2  1  1  0
  3  4  1  6
  3  2  1  0
  5  3  1  0
  6  5  2  0
  7  8  1  0
  8 18  2  0
  8  9  1  0
  9 10  2  0
 10 11  1  0
 11 12  1  0
 13 12  1  6
 13 14  1  0
 14  5  1  0
 15 24  1  0
 15 13  1  0
 16 15  2  0
 17 11  2  0
 18 17  1  0
 20 19  1  0
 21 20  1  0
 21 22  1  1
 23 21  1  0
 23 24  1  6
 25 23  1  0
 25 27  1  0
 26 25  2  0
M  END
$$$$
