SYI.pdb
     RDKit          3D

 27 27  0  0  1  0  0  0  0  0999 V2000
   28.9476  -23.0886  -16.7933 O   0  0  0  0  0  0  0  0  0  0  0  0
   27.7474  -23.3943  -17.4515 C   0  0  0  0  0  0  0  0  0  0  0  0
   27.1690  -22.0894  -17.9576 C   0  0  2  0  0  0  0  0  0  0  0  0
   28.0541  -21.5762  -18.9586 N   0  0  0  0  0  0  0  0  0  0  0  0
   26.9853  -21.1131  -16.8752 C   0  0  0  0  0  0  0  0  0  0  0  0
   27.7831  -20.1489  -16.7708 O   0  0  0  0  0  0  0  0  0  0  0  0
   20.0536  -23.4558  -14.6227 O   0  0  0  0  0  0  0  0  0  0  0  0
   21.0850  -22.5416  -14.7763 C   0  0  0  0  0  0  0  0  0  0  0  0
   21.7593  -22.3893  -15.9886 C   0  0  0  0  0  0  0  0  0  0  0  0
   22.7857  -21.4759  -16.1321 C   0  0  0  0  0  0  0  0  0  0  0  0
   23.1626  -20.6909  -15.0622 C   0  0  0  0  0  0  0  0  0  0  0  0
   24.2524  -19.6951  -15.1567 C   0  0  0  0  0  0  0  0  0  0  0  0
   25.5881  -20.3180  -14.9306 C   0  0  2  0  0  0  0  0  0  0  0  0
   25.8974  -21.2781  -15.9560 N   0  0  0  0  0  0  0  0  0  0  0  0
   25.6888  -20.9855  -13.5992 C   0  0  0  0  0  0  0  0  0  0  0  0
   25.4892  -22.2207  -13.5072 O   0  0  0  0  0  0  0  0  0  0  0  0
   22.5028  -20.8348  -13.8631 C   0  0  0  0  0  0  0  0  0  0  0  0
   21.4734  -21.7559  -13.7319 C   0  0  0  0  0  0  0  0  0  0  0  0
   29.8519  -21.2326  -10.7213 C   0  0  0  0  0  0  0  0  0  0  0  0
   28.4699  -21.5397  -11.2929 C   0  0  0  0  0  0  0  0  0  0  0  0
   27.3916  -20.8539  -10.4991 C   0  0  2  0  0  0  0  0  0  0  0  0
   27.4694  -21.3485   -9.0738 C   0  0  0  0  0  0  0  0  0  0  0  0
   26.0722  -21.0304  -11.1576 C   0  0  2  0  0  0  0  0  0  0  0  0
   26.0023  -20.2890  -12.4177 N   0  0  0  0  0  0  0  0  0  0  0  0
   24.9482  -20.6080  -10.2962 C   0  0  0  0  0  0  0  0  0  0  0  0
   24.3882  -19.4639  -10.4778 O   0  0  0  0  0  0  0  0  0  0  0  0
   24.3995  -21.3430   -9.2651 O   0  0  0  0  0  0  0  0  0  0  0  0
  2  1  1  0
  3  4  1  6
  3  2  1  0
  5  3  1  0
  6  5  2  0
  7  8  1  0
  8 18  2  0
  8  9  1  0
  9 10  2  0
 10 11  1  0
 11 12  1  0
 13 12  1  6
 13 14  1  0
 14  5  1  0
 15 24  1  0
 15 13  1  0
 16 15  2  0
 17 11  2  0
 18 17  1  0
 20 19  1  0
 21 20  1  0
 21 22  1  1
 23 21  1  0
 23 24  1  6
 25 23  1  0
 25 27  1  0
 26 25  2  0
M  END
$$$$
