SYI.pdb
     RDKit          3D

 27 27  0  0  1  0  0  0  0  0999 V2000
   19.2983  -15.2984  -19.5485 O   0  0  0  0  0  0  0  0  0  0  0  0
   20.1818  -14.5684  -18.7400 C   0  0  0  0  0  0  0  0  0  0  0  0
   21.5762  -15.0918  -19.0143 C   0  0  2  0  0  0  0  0  0  0  0  0
   21.6753  -16.3988  -18.4392 N   0  0  0  0  0  0  0  0  0  0  0  0
   22.6133  -14.2042  -18.4710 C   0  0  0  0  0  0  0  0  0  0  0  0
   23.3672  -14.6215  -17.5575 O   0  0  0  0  0  0  0  0  0  0  0  0
   28.9550   -8.3002  -18.0322 O   0  0  0  0  0  0  0  0  0  0  0  0
   27.8833   -9.0763  -18.4475 C   0  0  0  0  0  0  0  0  0  0  0  0
   26.6609   -8.5093  -18.8105 C   0  0  0  0  0  0  0  0  0  0  0  0
   25.5988   -9.2905  -19.2230 C   0  0  0  0  0  0  0  0  0  0  0  0
   25.7357  -10.6620  -19.2822 C   0  0  0  0  0  0  0  0  0  0  0  0
   24.6349  -11.5488  -19.7178 C   0  0  0  0  0  0  0  0  0  0  0  0
   23.7806  -11.9696  -18.5705 C   0  0  2  0  0  0  0  0  0  0  0  0
   22.7467  -12.8757  -18.9935 N   0  0  0  0  0  0  0  0  0  0  0  0
   23.1499  -10.8105  -17.8728 C   0  0  0  0  0  0  0  0  0  0  0  0
   22.1427  -10.2564  -18.3754 O   0  0  0  0  0  0  0  0  0  0  0  0
   26.9380  -11.2290  -18.9261 C   0  0  0  0  0  0  0  0  0  0  0  0
   27.9972  -10.4333  -18.5134 C   0  0  0  0  0  0  0  0  0  0  0  0
   21.0997   -8.9954  -12.6341 C   0  0  0  0  0  0  0  0  0  0  0  0
   21.6698   -8.5361  -13.9738 C   0  0  0  0  0  0  0  0  0  0  0  0
   22.4813   -9.6265  -14.6186 C   0  0  2  0  0  0  0  0  0  0  0  0
   23.6209   -9.9768  -13.6908 C   0  0  0  0  0  0  0  0  0  0  0  0
   22.8844   -9.2289  -15.9916 C   0  0  2  0  0  0  0  0  0  0  0  0
   23.6345  -10.2956  -16.6565 N   0  0  0  0  0  0  0  0  0  0  0  0
   23.6986   -7.9958  -16.0082 C   0  0  0  0  0  0  0  0  0  0  0  0
   24.9601   -8.0565  -16.2542 O   0  0  0  0  0  0  0  0  0  0  0  0
   23.2330   -6.7167  -15.7804 O   0  0  0  0  0  0  0  0  0  0  0  0
  2  1  1  0
  3  4  1  1
  3  2  1  0
  5  3  1  0
  6  5  2  0
  7  8  1  0
  8 18  2  0
  8  9  1  0
  9 10  2  0
 10 11  1  0
 11 12  1  0
 13 12  1  6
 13 14  1  0
 14  5  1  0
 15 24  1  0
 15 13  1  0
 16 15  2  0
 17 11  2  0
 18 17  1  0
 20 19  1  0
 21 20  1  0
 21 22  1  1
 23 21  1  0
 23 24  1  1
 25 23  1  0
 25 27  1  0
 26 25  2  0
M  END
$$$$
