SYI.pdb
     RDKit          3D

 27 27  0  0  1  0  0  0  0  0999 V2000
   26.9018  -21.2262  -18.5247 O   0  0  0  0  0  0  0  0  0  0  0  0
   28.1510  -20.9170  -17.9671 C   0  0  0  0  0  0  0  0  0  0  0  0
   28.4815  -22.0114  -16.9738 C   0  0  2  0  0  0  0  0  0  0  0  0
   28.6235  -23.2359  -17.7014 N   0  0  0  0  0  0  0  0  0  0  0  0
   27.4510  -22.1401  -15.9346 C   0  0  0  0  0  0  0  0  0  0  0  0
   26.6715  -23.1244  -15.9558 O   0  0  0  0  0  0  0  0  0  0  0  0
   23.2324  -20.8631   -8.3390 O   0  0  0  0  0  0  0  0  0  0  0  0
   24.1186  -20.7404   -9.3987 C   0  0  0  0  0  0  0  0  0  0  0  0
   25.3784  -21.3403   -9.3780 C   0  0  0  0  0  0  0  0  0  0  0  0
   26.2546  -21.2125  -10.4384 C   0  0  0  0  0  0  0  0  0  0  0  0
   25.8892  -20.4787  -11.5481 C   0  0  0  0  0  0  0  0  0  0  0  0
   26.7840  -20.3086  -12.7136 C   0  0  0  0  0  0  0  0  0  0  0  0
   26.4000  -21.2093  -13.8381 C   0  0  2  0  0  0  0  0  0  0  0  0
   27.3530  -21.1386  -14.9132 N   0  0  0  0  0  0  0  0  0  0  0  0
   25.0420  -20.9029  -14.3770 C   0  0  0  0  0  0  0  0  0  0  0  0
   24.8749  -19.8922  -15.1012 O   0  0  0  0  0  0  0  0  0  0  0  0
   24.6485  -19.8839  -11.5765 C   0  0  0  0  0  0  0  0  0  0  0  0
   23.7777  -20.0198  -10.5048 C   0  0  0  0  0  0  0  0  0  0  0  0
   22.5601  -22.4077  -18.1717 C   0  0  0  0  0  0  0  0  0  0  0  0
   22.9583  -21.5881  -16.9468 C   0  0  0  0  0  0  0  0  0  0  0  0
   22.1338  -21.9714  -15.7481 C   0  0  2  0  0  0  0  0  0  0  0  0
   20.6770  -21.7768  -16.0969 C   0  0  0  0  0  0  0  0  0  0  0  0
   22.5984  -21.2368  -14.5438 C   0  0  2  0  0  0  0  0  0  0  0  0
   23.9163  -21.7036  -14.1106 N   0  0  0  0  0  0  0  0  0  0  0  0
   21.6576  -21.3549  -13.4104 C   0  0  0  0  0  0  0  0  0  0  0  0
   20.8250  -20.4067  -13.1591 O   0  0  0  0  0  0  0  0  0  0  0  0
   21.5639  -22.4266  -12.5460 O   0  0  0  0  0  0  0  0  0  0  0  0
  2  1  1  0
  3  4  1  6
  3  2  1  0
  5  3  1  0
  6  5  2  0
  7  8  1  0
  8 18  2  0
  8  9  1  0
  9 10  2  0
 10 11  1  0
 11 12  1  0
 13 12  1  1
 13 14  1  0
 14  5  1  0
 15 24  1  0
 15 13  1  0
 16 15  2  0
 17 11  2  0
 18 17  1  0
 20 19  1  0
 21 20  1  0
 21 22  1  6
 23 21  1  0
 23 24  1  1
 25 23  1  0
 25 27  1  0
 26 25  2  0
M  END
$$$$
