SYI.pdb
     RDKit          3D

 27 27  0  0  1  0  0  0  0  0999 V2000
   27.0025   -7.6254  -19.8878 O   0  0  0  0  0  0  0  0  0  0  0  0
   25.6420   -7.8237  -19.6106 C   0  0  0  0  0  0  0  0  0  0  0  0
   25.5302   -9.1034  -18.8084 C   0  0  2  0  0  0  0  0  0  0  0  0
   25.9093  -10.1896  -19.6600 N   0  0  0  0  0  0  0  0  0  0  0  0
   24.1739   -9.3046  -18.2808 C   0  0  0  0  0  0  0  0  0  0  0  0
   23.4395  -10.1894  -18.7856 O   0  0  0  0  0  0  0  0  0  0  0  0
   17.1732   -9.9667  -13.2476 O   0  0  0  0  0  0  0  0  0  0  0  0
   18.4325   -9.8809  -13.8222 C   0  0  0  0  0  0  0  0  0  0  0  0
   18.7193  -10.4639  -15.0573 C   0  0  0  0  0  0  0  0  0  0  0  0
   19.9769  -10.3731  -15.6219 C   0  0  0  0  0  0  0  0  0  0  0  0
   20.9802   -9.6946  -14.9615 C   0  0  0  0  0  0  0  0  0  0  0  0
   22.3446   -9.5628  -15.5173 C   0  0  0  0  0  0  0  0  0  0  0  0
   22.3866   -8.5924  -16.6486 C   0  0  2  0  0  0  0  0  0  0  0  0
   23.7118   -8.4867  -17.1977 N   0  0  0  0  0  0  0  0  0  0  0  0
   21.9197   -7.2314  -16.2511 C   0  0  0  0  0  0  0  0  0  0  0  0
   22.6085   -6.5457  -15.4578 O   0  0  0  0  0  0  0  0  0  0  0  0
   20.7055   -9.1167  -13.7431 C   0  0  0  0  0  0  0  0  0  0  0  0
   19.4383   -9.2151  -13.1867 C   0  0  0  0  0  0  0  0  0  0  0  0
   19.8254   -2.1003  -18.3729 C   0  0  0  0  0  0  0  0  0  0  0  0
   19.8622   -3.0297  -17.1623 C   0  0  0  0  0  0  0  0  0  0  0  0
   20.3006   -4.4139  -17.5561 C   0  0  2  0  0  0  0  0  0  0  0  0
   19.3732   -4.9110  -18.6400 C   0  0  0  0  0  0  0  0  0  0  0  0
   20.3973   -5.2868  -16.3584 C   0  0  2  0  0  0  0  0  0  0  0  0
   20.7237   -6.6648  -16.7285 N   0  0  0  0  0  0  0  0  0  0  0  0
   19.1539   -5.2924  -15.5598 C   0  0  0  0  0  0  0  0  0  0  0  0
   18.3442   -6.2899  -15.6301 O   0  0  0  0  0  0  0  0  0  0  0  0
   18.7423   -4.2962  -14.6980 O   0  0  0  0  0  0  0  0  0  0  0  0
  2  1  1  0
  3  4  1  6
  3  2  1  0
  5  3  1  0
  6  5  2  0
  7  8  1  0
  8 18  2  0
  8  9  1  0
  9 10  2  0
 10 11  1  0
 11 12  1  0
 13 12  1  1
 13 14  1  0
 14  5  1  0
 15 24  1  0
 15 13  1  0
 16 15  2  0
 17 11  2  0
 18 17  1  0
 20 19  1  0
 21 20  1  0
 21 22  1  6
 23 21  1  0
 23 24  1  6
 25 23  1  0
 25 27  1  0
 26 25  2  0
M  END
$$$$
