SYI.pdb
     RDKit          3D

 27 27  0  0  1  0  0  0  0  0999 V2000
   26.7220  -22.8792  -18.7975 O   0  0  0  0  0  0  0  0  0  0  0  0
   26.9425  -21.5834  -18.3084 C   0  0  0  0  0  0  0  0  0  0  0  0
   27.7639  -21.7159  -17.0430 C   0  0  2  0  0  0  0  0  0  0  0  0
   28.5821  -22.8834  -17.1713 N   0  0  0  0  0  0  0  0  0  0  0  0
   26.9178  -21.8025  -15.8450 C   0  0  0  0  0  0  0  0  0  0  0  0
   26.8321  -22.8920  -15.2264 O   0  0  0  0  0  0  0  0  0  0  0  0
   30.0569  -21.5933  -10.0059 O   0  0  0  0  0  0  0  0  0  0  0  0
   29.0114  -21.1182  -10.7834 C   0  0  0  0  0  0  0  0  0  0  0  0
   27.6775  -21.3438  -10.4406 C   0  0  0  0  0  0  0  0  0  0  0  0
   26.6426  -20.8665  -11.2214 C   0  0  0  0  0  0  0  0  0  0  0  0
   26.9193  -20.1499  -12.3673 C   0  0  0  0  0  0  0  0  0  0  0  0
   25.8535  -19.6127  -13.2410 C   0  0  0  0  0  0  0  0  0  0  0  0
   25.3812  -20.6309  -14.2226 C   0  0  2  0  0  0  0  0  0  0  0  0
   26.2039  -20.6405  -15.4024 N   0  0  0  0  0  0  0  0  0  0  0  0
   23.9603  -20.4177  -14.6275 C   0  0  0  0  0  0  0  0  0  0  0  0
   23.6970  -19.6656  -15.5965 O   0  0  0  0  0  0  0  0  0  0  0  0
   28.2321  -19.9230  -12.7124 C   0  0  0  0  0  0  0  0  0  0  0  0
   29.2625  -20.4078  -11.9197 C   0  0  0  0  0  0  0  0  0  0  0  0
   18.6247  -23.0294  -15.4646 C   0  0  0  0  0  0  0  0  0  0  0  0
   19.3702  -21.7431  -15.1178 C   0  0  0  0  0  0  0  0  0  0  0  0
   20.7965  -22.0308  -14.7353 C   0  0  2  0  0  0  0  0  0  0  0  0
   20.7880  -23.0386  -13.6100 C   0  0  0  0  0  0  0  0  0  0  0  0
   21.5199  -20.7666  -14.4452 C   0  0  2  0  0  0  0  0  0  0  0  0
   22.8784  -21.0279  -13.9669 N   0  0  0  0  0  0  0  0  0  0  0  0
   20.8198  -19.9290  -13.4493 C   0  0  0  0  0  0  0  0  0  0  0  0
   21.2726  -19.8366  -12.2485 O   0  0  0  0  0  0  0  0  0  0  0  0
   19.6747  -19.1923  -13.6746 O   0  0  0  0  0  0  0  0  0  0  0  0
  2  1  1  0
  3  4  1  6
  3  2  1  0
  5  3  1  0
  6  5  2  0
  7  8  1  0
  8 18  2  0
  8  9  1  0
  9 10  2  0
 10 11  1  0
 11 12  1  0
 13 12  1  1
 13 14  1  0
 14  5  1  0
 15 24  1  0
 15 13  1  0
 16 15  2  0
 17 11  2  0
 18 17  1  0
 20 19  1  0
 21 20  1  0
 21 22  1  1
 23 21  1  0
 23 24  1  1
 25 23  1  0
 25 27  1  0
 26 25  2  0
M  END
$$$$
