SYI.pdb
     RDKit          3D

 27 27  0  0  1  0  0  0  0  0999 V2000
   23.9987  -19.4537  -19.5772 O   0  0  0  0  0  0  0  0  0  0  0  0
   24.5455  -19.3614  -18.2890 C   0  0  0  0  0  0  0  0  0  0  0  0
   24.7251  -20.7750  -17.7762 C   0  0  2  0  0  0  0  0  0  0  0  0
   25.2080  -21.5766  -18.8594 N   0  0  0  0  0  0  0  0  0  0  0  0
   23.4749  -21.3272  -17.2371 C   0  0  0  0  0  0  0  0  0  0  0  0
   22.8207  -22.1548  -17.9182 O   0  0  0  0  0  0  0  0  0  0  0  0
   24.1103  -27.2877  -14.3076 O   0  0  0  0  0  0  0  0  0  0  0  0
   23.6470  -25.9831  -14.2260 C   0  0  0  0  0  0  0  0  0  0  0  0
   24.5173  -24.8922  -14.2137 C   0  0  0  0  0  0  0  0  0  0  0  0
   24.0464  -23.5960  -14.1321 C   0  0  0  0  0  0  0  0  0  0  0  0
   22.6890  -23.3604  -14.0606 C   0  0  0  0  0  0  0  0  0  0  0  0
   22.1266  -21.9951  -13.9737 C   0  0  0  0  0  0  0  0  0  0  0  0
   21.8339  -21.4336  -15.3236 C   0  0  2  0  0  0  0  0  0  0  0  0
   23.0231  -20.9113  -15.9416 N   0  0  0  0  0  0  0  0  0  0  0  0
   20.7998  -20.3578  -15.2826 C   0  0  0  0  0  0  0  0  0  0  0  0
   21.0414  -19.2872  -14.6748 O   0  0  0  0  0  0  0  0  0  0  0  0
   21.8239  -24.4307  -14.0722 C   0  0  0  0  0  0  0  0  0  0  0  0
   22.3096  -25.7279  -14.1545 C   0  0  0  0  0  0  0  0  0  0  0  0
   19.1689  -17.9805  -19.3551 C   0  0  0  0  0  0  0  0  0  0  0  0
   19.5044  -18.4500  -17.9417 C   0  0  0  0  0  0  0  0  0  0  0  0
   18.2633  -18.8699  -17.2023 C   0  0  2  0  0  0  0  0  0  0  0  0
   17.2806  -17.7232  -17.2427 C   0  0  0  0  0  0  0  0  0  0  0  0
   18.6103  -19.3564  -15.8427 C   0  0  2  0  0  0  0  0  0  0  0  0
   19.5428  -20.4831  -15.9020 N   0  0  0  0  0  0  0  0  0  0  0  0
   17.4210  -19.7660  -15.0670 C   0  0  0  0  0  0  0  0  0  0  0  0
   16.9753  -20.9699  -15.1532 O   0  0  0  0  0  0  0  0  0  0  0  0
   16.6969  -18.9603  -14.2119 O   0  0  0  0  0  0  0  0  0  0  0  0
  2  1  1  0
  3  4  1  6
  3  2  1  0
  5  3  1  0
  6  5  2  0
  7  8  1  0
  8 18  2  0
  8  9  1  0
  9 10  2  0
 10 11  1  0
 11 12  1  0
 13 12  1  1
 13 14  1  0
 14  5  1  0
 15 24  1  0
 15 13  1  0
 16 15  2  0
 17 11  2  0
 18 17  1  0
 20 19  1  0
 21 20  1  0
 21 22  1  1
 23 21  1  0
 23 24  1  6
 25 23  1  0
 25 27  1  0
 26 25  2  0
M  END
$$$$
