SYI.pdb
     RDKit          3D

 27 27  0  0  1  0  0  0  0  0999 V2000
   16.0694   -7.2543  -17.5423 O   0  0  0  0  0  0  0  0  0  0  0  0
   16.2204   -8.0632  -16.4065 C   0  0  0  0  0  0  0  0  0  0  0  0
   17.6752   -8.4789  -16.3428 C   0  0  2  0  0  0  0  0  0  0  0  0
   17.7885   -9.7731  -16.9438 N   0  0  0  0  0  0  0  0  0  0  0  0
   18.1812   -8.4995  -14.9637 C   0  0  0  0  0  0  0  0  0  0  0  0
   18.1522   -9.5718  -14.3108 O   0  0  0  0  0  0  0  0  0  0  0  0
   23.8234  -11.1175  -14.7844 O   0  0  0  0  0  0  0  0  0  0  0  0
   23.0321  -10.0643  -14.3510 C   0  0  0  0  0  0  0  0  0  0  0  0
   22.7372   -8.9774  -15.1752 C   0  0  0  0  0  0  0  0  0  0  0  0
   21.9479   -7.9327  -14.7346 C   0  0  0  0  0  0  0  0  0  0  0  0
   21.4335   -7.9513  -13.4547 C   0  0  0  0  0  0  0  0  0  0  0  0
   20.5812   -6.8628  -12.9287 C   0  0  0  0  0  0  0  0  0  0  0  0
   19.1330   -7.2060  -13.0177 C   0  0  2  0  0  0  0  0  0  0  0  0
   18.6998   -7.2939  -14.3865 N   0  0  0  0  0  0  0  0  0  0  0  0
   18.2681   -6.2231  -12.3007 C   0  0  0  0  0  0  0  0  0  0  0  0
   18.1142   -5.0710  -12.7729 O   0  0  0  0  0  0  0  0  0  0  0  0
   21.7196   -9.0196  -12.6355 C   0  0  0  0  0  0  0  0  0  0  0  0
   22.5137  -10.0627  -13.0900 C   0  0  0  0  0  0  0  0  0  0  0  0
   13.0357   -4.9409  -10.1184 C   0  0  0  0  0  0  0  0  0  0  0  0
   14.5278   -4.7476   -9.8597 C   0  0  0  0  0  0  0  0  0  0  0  0
   15.3403   -5.7951  -10.5709 C   0  0  2  0  0  0  0  0  0  0  0  0
   14.9274   -7.1493  -10.0441 C   0  0  0  0  0  0  0  0  0  0  0  0
   16.7895   -5.4896  -10.4604 C   0  0  2  0  0  0  0  0  0  0  0  0
   17.6026   -6.5260  -11.0987 N   0  0  0  0  0  0  0  0  0  0  0  0
   17.2310   -5.3375   -9.0584 C   0  0  0  0  0  0  0  0  0  0  0  0
   16.7479   -4.3960   -8.3264 O   0  0  0  0  0  0  0  0  0  0  0  0
   18.1503   -6.1363   -8.4092 O   0  0  0  0  0  0  0  0  0  0  0  0
  2  1  1  0
  3  4  1  1
  3  2  1  0
  5  3  1  0
  6  5  2  0
  7  8  1  0
  8 18  2  0
  8  9  1  0
  9 10  2  0
 10 11  1  0
 11 12  1  0
 13 12  1  6
 13 14  1  0
 14  5  1  0
 15 24  1  0
 15 13  1  0
 16 15  2  0
 17 11  2  0
 18 17  1  0
 20 19  1  0
 21 20  1  0
 21 22  1  1
 23 21  1  0
 23 24  1  1
 25 23  1  0
 25 27  1  0
 26 25  2  0
M  END
$$$$
