KTH.pdb
     RDKit          3D

 27 27  0  0  1  0  0  0  0  0999 V2000
   12.6688  -19.9147   20.0908 N   0  0  0  0  0  0  0  0  0  0  0  0
   13.3854  -18.7589   19.5863 C   0  0  1  0  0  0  0  0  0  0  0  0
   12.9877  -18.5473   18.1421 C   0  0  0  0  0  0  0  0  0  0  0  0
   13.9314  -19.2639   17.2160 C   0  0  0  0  0  0  0  0  0  0  0  0
   14.2488  -18.4191   15.9977 C   0  0  0  0  0  0  0  0  0  0  0  0
   15.1161  -19.2246   15.0296 C   0  0  0  0  0  0  0  0  0  0  0  0
   15.4292  -18.4790   13.8415 N   0  0  0  0  0  0  0  0  0  0  0  0
   12.9911  -17.5685   20.4053 C   0  0  0  0  0  0  0  0  0  0  0  0
   13.7128  -16.5439   20.4125 O   0  0  0  0  0  0  0  0  0  0  0  0
    9.4864  -16.1430   20.3112 C   0  0  0  0  0  0  0  0  0  0  0  0
    9.7854  -16.3848   21.7916 C   0  0  1  0  0  0  0  0  0  0  0  0
    9.2046  -17.6120   22.1036 O   0  0  0  0  0  0  0  0  0  0  0  0
   11.2644  -16.4958   21.9240 C   0  0  2  0  0  0  0  0  0  0  0  0
   11.7897  -17.6034   21.1788 N   0  0  0  0  0  0  0  0  0  0  0  0
   11.7557  -16.5328   23.3168 C   0  0  0  0  0  0  0  0  0  0  0  0
   11.4198  -15.6320   24.0956 O   0  0  0  0  0  0  0  0  0  0  0  0
   12.6152  -17.5671   23.8358 N   0  0  0  0  0  0  0  0  0  0  0  0
   13.0802  -17.5775   25.1809 C   0  0  1  0  0  0  0  0  0  0  0  0
   12.2590  -18.2288   26.2071 C   0  0  0  0  0  0  0  0  0  0  0  0
   11.7862  -19.6030   25.9438 C   0  0  0  0  0  0  0  0  0  0  0  0
   11.9455  -20.3398   24.8169 C   0  0  0  0  0  0  0  0  0  0  0  0
   11.3677  -21.5606   25.0389 N   0  0  0  0  0  0  0  0  0  0  0  0
   10.8709  -21.5634   26.2705 C   0  0  0  0  0  0  0  0  0  0  0  0
   11.1164  -20.3811   26.8356 N   0  0  0  0  0  0  0  0  0  0  0  0
   14.4738  -18.1525   25.2333 C   0  0  0  0  0  0  0  0  0  0  0  0
   15.0630  -18.2603   26.3350 O   0  0  0  0  0  0  0  0  0  0  0  0
   15.1452  -18.5750   24.0972 O   0  0  0  0  0  0  0  0  0  0  0  0
  2  1  1  1
  2  3  1  0
  4  3  1  0
  4  5  1  0
  5  6  1  0
  7  6  1  0
  8  9  2  0
  8  2  1  0
 11 10  1  6
 11 13  1  0
 12 11  1  0
 13 14  1  6
 14  8  1  0
 15 13  1  0
 15 17  1  0
 16 15  2  0
 18 17  1  0
 18 25  1  0
 18 19  1  1
 20 19  1  0
 21 20  2  0
 22 23  1  0
 22 21  1  0
 23 24  2  0
 24 20  1  0
 25 27  1  0
 26 25  2  0
M  END
$$$$
