KTH.pdb
     RDKit          3D

 27 27  0  0  1  0  0  0  0  0999 V2000
   11.2164  -15.5600   13.4421 N   0  0  0  0  0  0  0  0  0  0  0  0
   11.2944  -16.3043   14.6846 C   0  0  1  0  0  0  0  0  0  0  0  0
   12.5333  -17.1714   14.6412 C   0  0  0  0  0  0  0  0  0  0  0  0
   12.1663  -18.6235   14.5052 C   0  0  0  0  0  0  0  0  0  0  0  0
   13.4029  -19.4888   14.3602 C   0  0  0  0  0  0  0  0  0  0  0  0
   12.9895  -20.9576   14.2604 C   0  0  0  0  0  0  0  0  0  0  0  0
   14.1218  -21.8225   14.0721 N   0  0  0  0  0  0  0  0  0  0  0  0
   11.3951  -15.3242   15.8127 C   0  0  0  0  0  0  0  0  0  0  0  0
   12.1763  -14.3477   15.7288 O   0  0  0  0  0  0  0  0  0  0  0  0
    9.5910  -13.2862   19.7902 C   0  0  0  0  0  0  0  0  0  0  0  0
    9.3749  -14.3975   18.7617 C   0  0  1  0  0  0  0  0  0  0  0  0
    8.5606  -13.8502   17.7727 O   0  0  0  0  0  0  0  0  0  0  0  0
   10.7075  -14.7149   18.1780 C   0  0  2  0  0  0  0  0  0  0  0  0
   10.5983  -15.5047   16.9854 N   0  0  0  0  0  0  0  0  0  0  0  0
   11.6597  -15.3358   19.1215 C   0  0  0  0  0  0  0  0  0  0  0  0
   11.6452  -16.5644   19.2671 O   0  0  0  0  0  0  0  0  0  0  0  0
   12.6204  -14.5910   19.8963 N   0  0  0  0  0  0  0  0  0  0  0  0
   13.5840  -15.2182   20.7351 C   0  0  1  0  0  0  0  0  0  0  0  0
   14.8605  -14.5370   20.9765 C   0  0  0  0  0  0  0  0  0  0  0  0
   15.7722  -14.3520   19.8293 C   0  0  0  0  0  0  0  0  0  0  0  0
   15.6653  -14.8772   18.5840 C   0  0  0  0  0  0  0  0  0  0  0  0
   16.7214  -14.4104   17.8490 N   0  0  0  0  0  0  0  0  0  0  0  0
   17.4501  -13.6212   18.6299 C   0  0  0  0  0  0  0  0  0  0  0  0
   16.8876  -13.5739   19.8377 N   0  0  0  0  0  0  0  0  0  0  0  0
   12.9560  -15.5628   22.0626 C   0  0  0  0  0  0  0  0  0  0  0  0
   13.5996  -16.2384   22.9005 O   0  0  0  0  0  0  0  0  0  0  0  0
   11.6754  -15.1589   22.4046 O   0  0  0  0  0  0  0  0  0  0  0  0
  2  1  1  6
  2  3  1  0
  4  3  1  0
  4  5  1  0
  5  6  1  0
  7  6  1  0
  8  9  2  0
  8  2  1  0
 11 10  1  1
 11 13  1  0
 12 11  1  0
 13 14  1  6
 14  8  1  0
 15 13  1  0
 15 17  1  0
 16 15  2  0
 18 17  1  0
 18 25  1  0
 18 19  1  1
 20 19  1  0
 21 20  2  0
 22 23  1  0
 22 21  1  0
 23 24  2  0
 24 20  1  0
 25 27  1  0
 26 25  2  0
M  END
$$$$
