KTH.pdb
     RDKit          3D

 27 27  0  0  1  0  0  0  0  0999 V2000
    8.9867  -14.3777   14.7822 N   0  0  0  0  0  0  0  0  0  0  0  0
    8.9364  -15.3465   15.8605 C   0  0  1  0  0  0  0  0  0  0  0  0
    9.7219  -16.5683   15.4376 C   0  0  0  0  0  0  0  0  0  0  0  0
   11.0369  -16.1738   14.8238 C   0  0  0  0  0  0  0  0  0  0  0  0
   11.8125  -17.3922   14.3624 C   0  0  0  0  0  0  0  0  0  0  0  0
   13.1243  -16.9473   13.7147 C   0  0  0  0  0  0  0  0  0  0  0  0
   13.8671  -18.0592   13.1877 N   0  0  0  0  0  0  0  0  0  0  0  0
    9.5625  -14.7305   17.0738 C   0  0  0  0  0  0  0  0  0  0  0  0
   10.5664  -13.9896   16.9552 O   0  0  0  0  0  0  0  0  0  0  0  0
    7.7818  -12.6558   19.3514 C   0  0  0  0  0  0  0  0  0  0  0  0
    8.3675  -13.6924   20.3115 C   0  0  1  0  0  0  0  0  0  0  0  0
    7.3429  -14.6020   20.5637 O   0  0  0  0  0  0  0  0  0  0  0  0
    9.4683  -14.3843   19.5857 C   0  0  2  0  0  0  0  0  0  0  0  0
    9.0126  -14.9893   18.3674 N   0  0  0  0  0  0  0  0  0  0  0  0
   10.2193  -15.3638   20.3976 C   0  0  0  0  0  0  0  0  0  0  0  0
   10.0572  -16.5714   20.1824 O   0  0  0  0  0  0  0  0  0  0  0  0
   11.1437  -14.9980   21.4413 N   0  0  0  0  0  0  0  0  0  0  0  0
   11.9060  -15.9578   22.1646 C   0  0  1  0  0  0  0  0  0  0  0  0
   13.2582  -15.5989   22.6057 C   0  0  0  0  0  0  0  0  0  0  0  0
   14.2678  -15.3053   21.5685 C   0  0  0  0  0  0  0  0  0  0  0  0
   14.3814  -15.8544   20.3341 C   0  0  0  0  0  0  0  0  0  0  0  0
   15.4464  -15.2575   19.7152 N   0  0  0  0  0  0  0  0  0  0  0  0
   15.9650  -14.3681   20.5541 C   0  0  0  0  0  0  0  0  0  0  0  0
   15.2608  -14.3836   21.6860 N   0  0  0  0  0  0  0  0  0  0  0  0
   11.1167  -16.4425   23.3552 C   0  0  0  0  0  0  0  0  0  0  0  0
   10.0628  -15.8497   23.6881 O   0  0  0  0  0  0  0  0  0  0  0  0
   11.5110  -17.5340   24.1123 O   0  0  0  0  0  0  0  0  0  0  0  0
  2  1  1  6
  2  3  1  0
  4  3  1  0
  4  5  1  0
  5  6  1  0
  7  6  1  0
  8  9  2  0
  8  2  1  0
 11 10  1  6
 11 13  1  0
 12 11  1  0
 13 14  1  6
 14  8  1  0
 15 13  1  0
 15 17  1  0
 16 15  2  0
 18 17  1  0
 18 25  1  0
 18 19  1  1
 20 19  1  0
 21 20  2  0
 22 23  1  0
 22 21  1  0
 23 24  2  0
 24 20  1  0
 25 27  1  0
 26 25  2  0
M  END
$$$$
