KTH.pdb
     RDKit          3D

 27 27  0  0  1  0  0  0  0  0999 V2000
    8.2671  -14.3712   15.9056 N   0  0  0  0  0  0  0  0  0  0  0  0
    8.4656  -15.4279   16.8792 C   0  0  1  0  0  0  0  0  0  0  0  0
    9.4059  -16.4519   16.2827 C   0  0  0  0  0  0  0  0  0  0  0  0
    9.6634  -17.5720   17.2528 C   0  0  0  0  0  0  0  0  0  0  0  0
   10.6063  -18.6016   16.6615 C   0  0  0  0  0  0  0  0  0  0  0  0
    9.8723  -19.9335   16.5010 C   0  0  0  0  0  0  0  0  0  0  0  0
   10.7214  -20.9509   15.9447 N   0  0  0  0  0  0  0  0  0  0  0  0
    9.0769  -14.8257   18.1067 C   0  0  0  0  0  0  0  0  0  0  0  0
   10.0469  -14.0387   18.0042 O   0  0  0  0  0  0  0  0  0  0  0  0
    7.2910  -12.8141   20.3869 C   0  0  0  0  0  0  0  0  0  0  0  0
    7.8472  -13.8776   21.3352 C   0  0  1  0  0  0  0  0  0  0  0  0
    6.8172  -14.7959   21.5263 O   0  0  0  0  0  0  0  0  0  0  0  0
    8.9734  -14.5460   20.6266 C   0  0  2  0  0  0  0  0  0  0  0  0
    8.5516  -15.1503   19.3957 N   0  0  0  0  0  0  0  0  0  0  0  0
    9.7250  -15.5182   21.4466 C   0  0  0  0  0  0  0  0  0  0  0  0
    9.4936  -16.7257   21.3081 O   0  0  0  0  0  0  0  0  0  0  0  0
   10.7269  -15.1452   22.4135 N   0  0  0  0  0  0  0  0  0  0  0  0
   11.4179  -16.0993   23.2120 C   0  0  1  0  0  0  0  0  0  0  0  0
   12.7816  -15.7928   23.6571 C   0  0  0  0  0  0  0  0  0  0  0  0
   13.8205  -15.6095   22.6235 C   0  0  0  0  0  0  0  0  0  0  0  0
   13.9412  -16.2538   21.4367 C   0  0  0  0  0  0  0  0  0  0  0  0
   15.0368  -15.7381   20.7986 N   0  0  0  0  0  0  0  0  0  0  0  0
   15.5667  -14.8037   21.5796 C   0  0  0  0  0  0  0  0  0  0  0  0
   14.8399  -14.7120   22.6935 N   0  0  0  0  0  0  0  0  0  0  0  0
   10.5810  -16.4584   24.4145 C   0  0  0  0  0  0  0  0  0  0  0  0
    9.5339  -15.8136   24.6608 O   0  0  0  0  0  0  0  0  0  0  0  0
   10.9235  -17.4883   25.2760 O   0  0  0  0  0  0  0  0  0  0  0  0
  2  1  1  6
  2  3  1  0
  4  3  1  0
  4  5  1  0
  5  6  1  0
  7  6  1  0
  8  9  2  0
  8  2  1  0
 11 10  1  6
 11 13  1  0
 12 11  1  0
 13 14  1  6
 14  8  1  0
 15 13  1  0
 15 17  1  0
 16 15  2  0
 18 17  1  0
 18 25  1  0
 18 19  1  1
 20 19  1  0
 21 20  2  0
 22 23  1  0
 22 21  1  0
 23 24  2  0
 24 20  1  0
 25 27  1  0
 26 25  2  0
M  END
$$$$
