KTH.pdb
     RDKit          3D

 27 27  0  0  1  0  0  0  0  0999 V2000
    8.7556  -14.5133   14.6934 N   0  0  0  0  0  0  0  0  0  0  0  0
    8.9235  -15.5754   15.6670 C   0  0  1  0  0  0  0  0  0  0  0  0
   10.0199  -16.4967   15.1797 C   0  0  0  0  0  0  0  0  0  0  0  0
    9.6169  -17.1804   13.9022 C   0  0  0  0  0  0  0  0  0  0  0  0
   10.7325  -18.0640   13.3793 C   0  0  0  0  0  0  0  0  0  0  0  0
   10.3562  -18.5969   11.9963 C   0  0  0  0  0  0  0  0  0  0  0  0
   11.4805  -19.1890   11.3248 N   0  0  0  0  0  0  0  0  0  0  0  0
    9.3179  -14.9564   16.9726 C   0  0  0  0  0  0  0  0  0  0  0  0
   10.3601  -14.2646   17.0506 O   0  0  0  0  0  0  0  0  0  0  0  0
    7.2151  -12.8212   18.9592 C   0  0  0  0  0  0  0  0  0  0  0  0
    7.6124  -13.8803   19.9888 C   0  0  1  0  0  0  0  0  0  0  0  0
    6.5274  -14.7492   20.0818 O   0  0  0  0  0  0  0  0  0  0  0  0
    8.7805  -14.6145   19.4288 C   0  0  2  0  0  0  0  0  0  0  0  0
    8.5032  -15.1563   18.1298 N   0  0  0  0  0  0  0  0  0  0  0  0
    9.3324  -15.6593   20.3156 C   0  0  0  0  0  0  0  0  0  0  0  0
    9.7480  -16.7122   19.8159 O   0  0  0  0  0  0  0  0  0  0  0  0
    9.4195  -15.5298   21.7485 N   0  0  0  0  0  0  0  0  0  0  0  0
   10.3526  -16.2655   22.5319 C   0  0  1  0  0  0  0  0  0  0  0  0
   11.7794  -16.1700   22.2053 C   0  0  0  0  0  0  0  0  0  0  0  0
   12.7315  -16.9290   23.0411 C   0  0  0  0  0  0  0  0  0  0  0  0
   12.4577  -17.7417   24.0912 C   0  0  0  0  0  0  0  0  0  0  0  0
   13.6472  -18.2498   24.5388 N   0  0  0  0  0  0  0  0  0  0  0  0
   14.6180  -17.7574   23.7780 C   0  0  0  0  0  0  0  0  0  0  0  0
   14.0794  -16.9523   22.8619 N   0  0  0  0  0  0  0  0  0  0  0  0
   10.1628  -15.9365   23.9917 C   0  0  0  0  0  0  0  0  0  0  0  0
    9.4478  -14.9611   24.3235 O   0  0  0  0  0  0  0  0  0  0  0  0
   10.7543  -16.6776   25.0022 O   0  0  0  0  0  0  0  0  0  0  0  0
  2  1  1  6
  2  3  1  0
  4  3  1  0
  4  5  1  0
  5  6  1  0
  7  6  1  0
  8  9  2  0
  8  2  1  0
 11 10  1  6
 11 13  1  0
 12 11  1  0
 13 14  1  6
 14  8  1  0
 15 13  1  0
 15 17  1  0
 16 15  2  0
 18 17  1  0
 18 25  1  0
 18 19  1  6
 20 19  1  0
 21 20  2  0
 22 23  1  0
 22 21  1  0
 23 24  2  0
 24 20  1  0
 25 27  1  0
 26 25  2  0
M  END
$$$$
