KTH.pdb
     RDKit          3D

 27 27  0  0  1  0  0  0  0  0999 V2000
   10.5182  -15.7892   15.1376 N   0  0  0  0  0  0  0  0  0  0  0  0
    9.3009  -15.8937   15.9194 C   0  0  1  0  0  0  0  0  0  0  0  0
    8.7976  -17.3173   15.8257 C   0  0  0  0  0  0  0  0  0  0  0  0
    9.7924  -18.2773   16.4177 C   0  0  0  0  0  0  0  0  0  0  0  0
    9.3129  -19.7100   16.2893 C   0  0  0  0  0  0  0  0  0  0  0  0
   10.3375  -20.6503   16.9252 C   0  0  0  0  0  0  0  0  0  0  0  0
    9.9012  -22.0194   16.8951 N   0  0  0  0  0  0  0  0  0  0  0  0
    9.6274  -15.5592   17.3424 C   0  0  0  0  0  0  0  0  0  0  0  0
   10.7889  -15.7359   17.7787 O   0  0  0  0  0  0  0  0  0  0  0  0
    7.5482  -12.6720   18.9988 C   0  0  0  0  0  0  0  0  0  0  0  0
    7.7417  -13.7522   20.0643 C   0  0  1  0  0  0  0  0  0  0  0  0
    6.5382  -14.4514   20.1230 O   0  0  0  0  0  0  0  0  0  0  0  0
    8.8126  -14.6621   19.5717 C   0  0  2  0  0  0  0  0  0  0  0  0
    8.6114  -15.0377   18.2019 N   0  0  0  0  0  0  0  0  0  0  0  0
    9.0335  -15.8602   20.4072 C   0  0  0  0  0  0  0  0  0  0  0  0
    8.7880  -16.9762   19.9326 O   0  0  0  0  0  0  0  0  0  0  0  0
    9.5246  -15.8129   21.7616 N   0  0  0  0  0  0  0  0  0  0  0  0
   10.5171  -16.7076   22.2515 C   0  0  1  0  0  0  0  0  0  0  0  0
   11.7552  -16.8781   21.4836 C   0  0  0  0  0  0  0  0  0  0  0  0
   12.7330  -17.8760   21.9626 C   0  0  0  0  0  0  0  0  0  0  0  0
   12.6474  -18.6708   23.0577 C   0  0  0  0  0  0  0  0  0  0  0  0
   13.7704  -19.4528   23.0868 N   0  0  0  0  0  0  0  0  0  0  0  0
   14.5179  -19.1397   22.0347 C   0  0  0  0  0  0  0  0  0  0  0  0
   13.9025  -18.1827   21.3399 N   0  0  0  0  0  0  0  0  0  0  0  0
   10.8700  -16.3475   23.6731 C   0  0  0  0  0  0  0  0  0  0  0  0
   11.7280  -17.0205   24.2925 O   0  0  0  0  0  0  0  0  0  0  0  0
   10.2776  -15.2862   24.3385 O   0  0  0  0  0  0  0  0  0  0  0  0
  2  1  1  6
  2  3  1  0
  4  3  1  0
  4  5  1  0
  5  6  1  0
  7  6  1  0
  8  9  2  0
  8  2  1  0
 11 10  1  6
 11 13  1  0
 12 11  1  0
 13 14  1  6
 14  8  1  0
 15 13  1  0
 15 17  1  0
 16 15  2  0
 18 17  1  0
 18 25  1  0
 18 19  1  6
 20 19  1  0
 21 20  2  0
 22 23  1  0
 22 21  1  0
 23 24  2  0
 24 20  1  0
 25 27  1  0
 26 25  2  0
M  END
$$$$
