KTH.pdb
     RDKit          3D

 27 27  0  0  1  0  0  0  0  0999 V2000
    8.8001  -17.9719   16.6934 N   0  0  0  0  0  0  0  0  0  0  0  0
    9.7426  -17.0999   17.3681 C   0  0  1  0  0  0  0  0  0  0  0  0
    8.9755  -15.9353   17.9545 C   0  0  0  0  0  0  0  0  0  0  0  0
    8.1765  -15.2311   16.8927 C   0  0  0  0  0  0  0  0  0  0  0  0
    7.5748  -13.9448   17.4240 C   0  0  0  0  0  0  0  0  0  0  0  0
    6.8662  -13.2053   16.2886 C   0  0  0  0  0  0  0  0  0  0  0  0
    6.3145  -11.9523   16.7257 N   0  0  0  0  0  0  0  0  0  0  0  0
   10.4030  -17.8807   18.4625 C   0  0  0  0  0  0  0  0  0  0  0  0
   10.5814  -19.1146   18.3344 O   0  0  0  0  0  0  0  0  0  0  0  0
   12.3402  -19.2762   18.8731 C   0  0  0  0  0  0  0  0  0  0  0  0
   12.8244  -18.5155   20.1086 C   0  0  1  0  0  0  0  0  0  0  0  0
   13.7403  -17.5744   19.6436 O   0  0  0  0  0  0  0  0  0  0  0  0
   11.6424  -17.8093   20.6754 C   0  0  2  0  0  0  0  0  0  0  0  0
   10.8293  -17.2155   19.6536 N   0  0  0  0  0  0  0  0  0  0  0  0
   11.9631  -16.8156   21.7206 C   0  0  0  0  0  0  0  0  0  0  0  0
   12.0440  -15.6212   21.4083 O   0  0  0  0  0  0  0  0  0  0  0  0
   12.1916  -17.1529   23.1034 N   0  0  0  0  0  0  0  0  0  0  0  0
   11.3362  -16.7152   24.1532 C   0  0  1  0  0  0  0  0  0  0  0  0
    9.8849  -16.8417   23.9809 C   0  0  0  0  0  0  0  0  0  0  0  0
    9.1691  -15.7333   23.3172 C   0  0  0  0  0  0  0  0  0  0  0  0
    9.6911  -14.5984   22.7903 C   0  0  0  0  0  0  0  0  0  0  0  0
    8.6559  -13.8786   22.2576 N   0  0  0  0  0  0  0  0  0  0  0  0
    7.5341  -14.5610   22.4566 C   0  0  0  0  0  0  0  0  0  0  0  0
    7.8273  -15.6916   23.0995 N   0  0  0  0  0  0  0  0  0  0  0  0
   11.7343  -17.3826   25.4460 C   0  0  0  0  0  0  0  0  0  0  0  0
   11.2058  -17.0197   26.5239 O   0  0  0  0  0  0  0  0  0  0  0  0
   12.6756  -18.3980   25.4975 O   0  0  0  0  0  0  0  0  0  0  0  0
  2  1  1  1
  2  3  1  0
  4  3  1  0
  4  5  1  0
  5  6  1  0
  7  6  1  0
  8  9  2  0
  8  2  1  0
 11 10  1  6
 11 13  1  0
 12 11  1  0
 13 14  1  6
 14  8  1  0
 15 13  1  0
 15 17  1  0
 16 15  2  0
 18 17  1  0
 18 25  1  0
 18 19  1  6
 20 19  1  0
 21 20  2  0
 22 23  1  0
 22 21  1  0
 23 24  2  0
 24 20  1  0
 25 27  1  0
 26 25  2  0
M  END
$$$$
