KTH.pdb
     RDKit          3D

 27 27  0  0  1  0  0  0  0  0999 V2000
    6.4927  -29.1801   27.7740 N   0  0  0  0  0  0  0  0  0  0  0  0
    6.6738  -27.7438   27.6835 C   0  0  1  0  0  0  0  0  0  0  0  0
    5.8178  -27.0899   28.7457 C   0  0  0  0  0  0  0  0  0  0  0  0
    5.8091  -27.9097   30.0065 C   0  0  0  0  0  0  0  0  0  0  0  0
    4.8786  -27.3099   31.0424 C   0  0  0  0  0  0  0  0  0  0  0  0
    3.5264  -28.0218   30.9874 C   0  0  0  0  0  0  0  0  0  0  0  0
    2.6288  -27.5491   32.0055 N   0  0  0  0  0  0  0  0  0  0  0  0
    8.1189  -27.4369   27.9303 C   0  0  0  0  0  0  0  0  0  0  0  0
    9.0015  -28.2650   27.6048 O   0  0  0  0  0  0  0  0  0  0  0  0
   10.1062  -26.9894   26.5514 C   0  0  0  0  0  0  0  0  0  0  0  0
   10.4445  -25.6523   27.2124 C   0  0  1  0  0  0  0  0  0  0  0  0
    9.8288  -24.6744   26.4344 O   0  0  0  0  0  0  0  0  0  0  0  0
    9.8214  -25.6657   28.5647 C   0  0  2  0  0  0  0  0  0  0  0  0
    8.4893  -26.1975   28.5381 N   0  0  0  0  0  0  0  0  0  0  0  0
    9.8426  -24.3645   29.2641 C   0  0  0  0  0  0  0  0  0  0  0  0
    8.7696  -23.8375   29.5835 O   0  0  0  0  0  0  0  0  0  0  0  0
   11.0518  -23.6575   29.6042 N   0  0  0  0  0  0  0  0  0  0  0  0
   11.1555  -22.8172   30.7482 C   0  0  1  0  0  0  0  0  0  0  0  0
   10.7398  -23.3449   32.0522 C   0  0  0  0  0  0  0  0  0  0  0  0
   10.8549  -22.4555   33.2256 C   0  0  0  0  0  0  0  0  0  0  0  0
   11.2587  -21.1616   33.2569 C   0  0  0  0  0  0  0  0  0  0  0  0
   11.1793  -20.7375   34.5558 N   0  0  0  0  0  0  0  0  0  0  0  0
   10.7376  -21.7496   35.2935 C   0  0  0  0  0  0  0  0  0  0  0  0
   10.5350  -22.8025   34.5011 N   0  0  0  0  0  0  0  0  0  0  0  0
   12.5621  -22.2847   30.8629 C   0  0  0  0  0  0  0  0  0  0  0  0
   13.4341  -22.6430   30.0358 O   0  0  0  0  0  0  0  0  0  0  0  0
   12.9416  -21.4005   31.8600 O   0  0  0  0  0  0  0  0  0  0  0  0
  2  1  1  1
  2  3  1  0
  4  3  1  0
  4  5  1  0
  5  6  1  0
  7  6  1  0
  8  9  2  0
  8  2  1  0
 11 10  1  6
 11 13  1  0
 12 11  1  0
 13 14  1  6
 14  8  1  0
 15 13  1  0
 15 17  1  0
 16 15  2  0
 18 17  1  0
 18 25  1  0
 18 19  1  1
 20 19  1  0
 21 20  2  0
 22 23  1  0
 22 21  1  0
 23 24  2  0
 24 20  1  0
 25 27  1  0
 26 25  2  0
M  END
$$$$
