KTH.pdb
     RDKit          3D

 27 27  0  0  1  0  0  0  0  0999 V2000
    9.0765  -16.4583   15.1076 N   0  0  0  0  0  0  0  0  0  0  0  0
    8.1845  -16.1130   16.1981 C   0  0  1  0  0  0  0  0  0  0  0  0
    7.5569  -17.3870   16.7192 C   0  0  0  0  0  0  0  0  0  0  0  0
    7.2357  -18.3268   15.5898 C   0  0  0  0  0  0  0  0  0  0  0  0
    6.5897  -19.5987   16.1037 C   0  0  0  0  0  0  0  0  0  0  0  0
    6.3526  -20.5583   14.9371 C   0  0  0  0  0  0  0  0  0  0  0  0
    5.5953  -21.7126   15.3366 N   0  0  0  0  0  0  0  0  0  0  0  0
    8.9937  -15.4625   17.2777 C   0  0  0  0  0  0  0  0  0  0  0  0
    9.9346  -14.6903   16.9788 O   0  0  0  0  0  0  0  0  0  0  0  0
    8.3803  -13.0993   18.0877 C   0  0  0  0  0  0  0  0  0  0  0  0
    8.1721  -13.5300   19.5405 C   0  0  1  0  0  0  0  0  0  0  0  0
    6.8073  -13.7744   19.6752 O   0  0  0  0  0  0  0  0  0  0  0  0
    8.9182  -14.8051   19.7272 C   0  0  2  0  0  0  0  0  0  0  0  0
    8.6908  -15.7243   18.6497 N   0  0  0  0  0  0  0  0  0  0  0  0
    8.6869  -15.4679   21.0272 C   0  0  0  0  0  0  0  0  0  0  0  0
    7.6585  -16.1377   21.1845 O   0  0  0  0  0  0  0  0  0  0  0  0
    9.5962  -15.3835   22.1424 N   0  0  0  0  0  0  0  0  0  0  0  0
    9.9882  -16.5208   22.9029 C   0  0  1  0  0  0  0  0  0  0  0  0
   10.5915  -17.6623   22.2066 C   0  0  0  0  0  0  0  0  0  0  0  0
    9.6982  -18.5546   21.4405 C   0  0  0  0  0  0  0  0  0  0  0  0
    8.3528  -18.4679   21.2976 C   0  0  0  0  0  0  0  0  0  0  0  0
    7.9594  -19.4920   20.4791 N   0  0  0  0  0  0  0  0  0  0  0  0
    9.0404  -20.1821   20.1341 C   0  0  0  0  0  0  0  0  0  0  0  0
   10.1068  -19.6262   20.7095 N   0  0  0  0  0  0  0  0  0  0  0  0
   10.9030  -16.0934   24.0234 C   0  0  0  0  0  0  0  0  0  0  0  0
   11.4724  -14.9772   23.9724 O   0  0  0  0  0  0  0  0  0  0  0  0
   11.1474  -16.8937   25.1279 O   0  0  0  0  0  0  0  0  0  0  0  0
  2  1  1  6
  2  3  1  0
  4  3  1  0
  4  5  1  0
  5  6  1  0
  7  6  1  0
  8  9  2  0
  8  2  1  0
 11 10  1  6
 11 13  1  0
 12 11  1  0
 13 14  1  6
 14  8  1  0
 15 13  1  0
 15 17  1  0
 16 15  2  0
 18 17  1  0
 18 25  1  0
 18 19  1  6
 20 19  1  0
 21 20  2  0
 22 23  1  0
 22 21  1  0
 23 24  2  0
 24 20  1  0
 25 27  1  0
 26 25  2  0
M  END
$$$$
