KTH.pdb
     RDKit          3D

 27 27  0  0  1  0  0  0  0  0999 V2000
    7.9557  -17.7181   15.8538 N   0  0  0  0  0  0  0  0  0  0  0  0
    8.8098  -16.9158   16.7086 C   0  0  1  0  0  0  0  0  0  0  0  0
    8.0788  -15.6337   17.0407 C   0  0  0  0  0  0  0  0  0  0  0  0
    8.8876  -14.7842   17.9821 C   0  0  0  0  0  0  0  0  0  0  0  0
    8.1987  -13.4611   18.2537 C   0  0  0  0  0  0  0  0  0  0  0  0
    9.0661  -12.6160   19.1872 C   0  0  0  0  0  0  0  0  0  0  0  0
    8.5776  -11.2691   19.3014 N   0  0  0  0  0  0  0  0  0  0  0  0
    9.0793  -17.6904   17.9619 C   0  0  0  0  0  0  0  0  0  0  0  0
    8.2570  -18.5488   18.3590 O   0  0  0  0  0  0  0  0  0  0  0  0
   10.6241  -20.1842   18.4985 C   0  0  0  0  0  0  0  0  0  0  0  0
   11.4547  -19.4046   19.5192 C   0  0  1  0  0  0  0  0  0  0  0  0
   12.6221  -19.0312   18.8571 O   0  0  0  0  0  0  0  0  0  0  0  0
   10.6787  -18.1829   19.8693 C   0  0  2  0  0  0  0  0  0  0  0  0
   10.2765  -17.4487   18.7043 N   0  0  0  0  0  0  0  0  0  0  0  0
   11.3451  -17.2879   20.8375 C   0  0  0  0  0  0  0  0  0  0  0  0
   11.9394  -16.2868   20.4185 O   0  0  0  0  0  0  0  0  0  0  0  0
   11.3480  -17.5088   22.2619 N   0  0  0  0  0  0  0  0  0  0  0  0
   11.6380  -16.4780   23.1994 C   0  0  1  0  0  0  0  0  0  0  0  0
   10.5446  -15.9350   24.0128 C   0  0  0  0  0  0  0  0  0  0  0  0
    9.5290  -15.1024   23.3372 C   0  0  0  0  0  0  0  0  0  0  0  0
    9.5003  -14.7075   22.0405 C   0  0  0  0  0  0  0  0  0  0  0  0
    8.3588  -13.9743   21.8593 N   0  0  0  0  0  0  0  0  0  0  0  0
    7.7114  -13.9266   23.0178 C   0  0  0  0  0  0  0  0  0  0  0  0
    8.4084  -14.6074   23.9278 N   0  0  0  0  0  0  0  0  0  0  0  0
   12.7534  -16.9201   24.1134 C   0  0  0  0  0  0  0  0  0  0  0  0
   13.1377  -18.1138   24.0964 O   0  0  0  0  0  0  0  0  0  0  0  0
   13.3849  -16.0503   24.9878 O   0  0  0  0  0  0  0  0  0  0  0  0
  2  1  1  6
  2  3  1  0
  4  3  1  0
  4  5  1  0
  5  6  1  0
  7  6  1  0
  8  9  2  0
  8  2  1  0
 11 10  1  6
 11 13  1  0
 12 11  1  0
 13 14  1  6
 14  8  1  0
 15 13  1  0
 15 17  1  0
 16 15  2  0
 18 17  1  0
 18 25  1  0
 18 19  1  1
 20 19  1  0
 21 20  2  0
 22 23  1  0
 22 21  1  0
 23 24  2  0
 24 20  1  0
 25 27  1  0
 26 25  2  0
M  END
$$$$
