SLH.pdb
     RDKit          3D

 25 25  0  0  1  0  0  0  0  0999 V2000
   25.0171  -16.4336  -15.9106 O   0  0  0  0  0  0  0  0  0  0  0  0
   26.3175  -16.3049  -15.4305 C   0  0  0  0  0  0  0  0  0  0  0  0
   27.1062  -17.5833  -15.5860 C   0  0  2  0  0  0  0  0  0  0  0  0
   27.4717  -17.7712  -16.9542 N   0  0  0  0  0  0  0  0  0  0  0  0
   26.3987  -18.7587  -15.0441 C   0  0  0  0  0  0  0  0  0  0  0  0
   25.9981  -19.7167  -15.7343 O   0  0  0  0  0  0  0  0  0  0  0  0
   26.6346  -21.9573  -10.2984 C   0  0  0  0  0  0  0  0  0  0  0  0
   27.0365  -20.8978  -11.3027 C   0  0  1  0  0  0  0  0  0  0  0  0
   27.3084  -21.6501  -12.6133 C   0  0  0  0  0  0  0  0  0  0  0  0
   25.9130  -19.9368  -11.5778 C   0  0  0  0  0  0  0  0  0  0  0  0
   25.4475  -19.9360  -13.0139 C   0  0  2  0  0  0  0  0  0  0  0  0
   26.1530  -18.8124  -13.6482 N   0  0  0  0  0  0  0  0  0  0  0  0
   24.0138  -19.6031  -13.0428 C   0  0  0  0  0  0  0  0  0  0  0  0
   23.5528  -18.5353  -12.5124 O   0  0  0  0  0  0  0  0  0  0  0  0
   23.0397  -20.4370  -13.6581 N   0  0  0  0  0  0  0  0  0  0  0  0
   21.7193  -19.9045  -14.0233 C   0  0  1  0  0  0  0  0  0  0  0  0
   21.8594  -18.9298  -15.1663 C   0  0  0  0  0  0  0  0  0  0  0  0
   20.5353  -18.4127  -15.5632 C   0  0  0  0  0  0  0  0  0  0  0  0
   19.4058  -18.2447  -14.7593 C   0  0  0  0  0  0  0  0  0  0  0  0
   18.3837  -17.7471  -15.4771 N   0  0  0  0  0  0  0  0  0  0  0  0
   18.8599  -17.6007  -16.7245 C   0  0  0  0  0  0  0  0  0  0  0  0
   20.1283  -17.9932  -16.7750 N   0  0  0  0  0  0  0  0  0  0  0  0
   20.8612  -21.0272  -14.4604 C   0  0  0  0  0  0  0  0  0  0  0  0
   21.4305  -22.0498  -14.9729 O   0  0  0  0  0  0  0  0  0  0  0  0
   19.4959  -21.0607  -14.3584 O   0  0  0  0  0  0  0  0  0  0  0  0
  2  1  1  0
  2  3  1  0
  3  4  1  6
  5  3  1  0
  5  6  2  0
  8  7  1  1
  8 10  1  0
  8  9  1  0
 11 10  1  1
 11 12  1  0
 12  5  1  0
 13 11  1  0
 14 13  2  0
 15 13  1  0
 16 15  1  0
 16 17  1  6
 18 17  1  0
 19 18  2  0
 20 21  1  0
 20 19  1  0
 21 22  2  0
 22 18  1  0
 23 16  1  0
 24 23  2  0
 25 23  1  0
M  END
$$$$
