SLH.pdb
     RDKit          3D

 25 25  0  0  1  0  0  0  0  0999 V2000
   17.1279  -11.1744  -18.8633 O   0  0  0  0  0  0  0  0  0  0  0  0
   17.7870  -10.6726  -17.7445 C   0  0  0  0  0  0  0  0  0  0  0  0
   18.8706  -11.6066  -17.2609 C   0  0  2  0  0  0  0  0  0  0  0  0
   18.3060  -12.8684  -16.9004 N   0  0  0  0  0  0  0  0  0  0  0  0
   19.6691  -11.0323  -16.1617 C   0  0  0  0  0  0  0  0  0  0  0  0
   19.3574  -11.1030  -14.9565 O   0  0  0  0  0  0  0  0  0  0  0  0
   24.9154  -11.7930  -15.6138 C   0  0  0  0  0  0  0  0  0  0  0  0
   23.4611  -11.4681  -15.3460 C   0  0  1  0  0  0  0  0  0  0  0  0
   23.3002  -11.5126  -13.8197 C   0  0  0  0  0  0  0  0  0  0  0  0
   23.1139  -10.0705  -15.7794 C   0  0  0  0  0  0  0  0  0  0  0  0
   21.6906   -9.6716  -15.4728 C   0  0  2  0  0  0  0  0  0  0  0  0
   20.8713  -10.3533  -16.4860 N   0  0  0  0  0  0  0  0  0  0  0  0
   21.5448   -8.2270  -15.7160 C   0  0  0  0  0  0  0  0  0  0  0  0
   21.6679   -7.7178  -16.8820 O   0  0  0  0  0  0  0  0  0  0  0  0
   21.2582   -7.2947  -14.6807 N   0  0  0  0  0  0  0  0  0  0  0  0
   21.1645   -5.8569  -14.9709 C   0  0  1  0  0  0  0  0  0  0  0  0
   19.8235   -5.3311  -14.5222 C   0  0  0  0  0  0  0  0  0  0  0  0
   18.7716   -5.7303  -15.4774 C   0  0  0  0  0  0  0  0  0  0  0  0
   18.9267   -6.1087  -16.8127 C   0  0  0  0  0  0  0  0  0  0  0  0
   17.7356   -6.4033  -17.3626 N   0  0  0  0  0  0  0  0  0  0  0  0
   16.8334   -6.2137  -16.3857 C   0  0  0  0  0  0  0  0  0  0  0  0
   17.4444   -5.8169  -15.2745 N   0  0  0  0  0  0  0  0  0  0  0  0
   22.2256   -5.1527  -14.2186 C   0  0  0  0  0  0  0  0  0  0  0  0
   22.4003   -3.9092  -14.4547 O   0  0  0  0  0  0  0  0  0  0  0  0
   23.0412   -5.7289  -13.2814 O   0  0  0  0  0  0  0  0  0  0  0  0
  2  1  1  0
  2  3  1  0
  3  4  1  1
  5  3  1  0
  5  6  2  0
  8  7  1  1
  8 10  1  0
  8  9  1  0
 11 10  1  6
 11 12  1  0
 12  5  1  0
 13 11  1  0
 14 13  2  0
 15 13  1  0
 16 15  1  0
 16 17  1  1
 18 17  1  0
 19 18  2  0
 20 21  1  0
 20 19  1  0
 21 22  2  0
 22 18  1  0
 23 16  1  0
 24 23  2  0
 25 23  1  0
M  END
$$$$
