SLH.pdb
     RDKit          3D

 25 25  0  0  1  0  0  0  0  0999 V2000
   25.4125  -20.0136  -17.7508 O   0  0  0  0  0  0  0  0  0  0  0  0
   26.4935  -19.6521  -16.9516 C   0  0  0  0  0  0  0  0  0  0  0  0
   26.9469  -20.7888  -16.0667 C   0  0  2  0  0  0  0  0  0  0  0  0
   27.5002  -21.8390  -16.8616 N   0  0  0  0  0  0  0  0  0  0  0  0
   25.8765  -21.2820  -15.1797 C   0  0  0  0  0  0  0  0  0  0  0  0
   25.2696  -22.3588  -15.3437 O   0  0  0  0  0  0  0  0  0  0  0  0
   26.1382  -20.2629   -9.8208 C   0  0  0  0  0  0  0  0  0  0  0  0
   25.8571  -20.8853  -11.1720 C   0  0  1  0  0  0  0  0  0  0  0  0
   25.4416  -22.3349  -10.8829 C   0  0  0  0  0  0  0  0  0  0  0  0
   24.6911  -20.2270  -11.8566 C   0  0  0  0  0  0  0  0  0  0  0  0
   24.3602  -20.8195  -13.2051 C   0  0  2  0  0  0  0  0  0  0  0  0
   25.5060  -20.4874  -14.0649 N   0  0  0  0  0  0  0  0  0  0  0  0
   23.1976  -20.1064  -13.7591 C   0  0  0  0  0  0  0  0  0  0  0  0
   23.3182  -19.0177  -14.4181 O   0  0  0  0  0  0  0  0  0  0  0  0
   21.8618  -20.5701  -13.6048 N   0  0  0  0  0  0  0  0  0  0  0  0
   20.7968  -20.1015  -14.5028 C   0  0  1  0  0  0  0  0  0  0  0  0
   21.0241  -20.6438  -15.8922 C   0  0  0  0  0  0  0  0  0  0  0  0
   20.0227  -20.0936  -16.8265 C   0  0  0  0  0  0  0  0  0  0  0  0
   19.9817  -18.8123  -17.3802 C   0  0  0  0  0  0  0  0  0  0  0  0
   18.9160  -18.6800  -18.1891 N   0  0  0  0  0  0  0  0  0  0  0  0
   18.2867  -19.8660  -18.1491 C   0  0  0  0  0  0  0  0  0  0  0  0
   18.9393  -20.6992  -17.3457 N   0  0  0  0  0  0  0  0  0  0  0  0
   19.5001  -20.6078  -14.0027 C   0  0  0  0  0  0  0  0  0  0  0  0
   18.4729  -19.8609  -14.1432 O   0  0  0  0  0  0  0  0  0  0  0  0
   19.3090  -21.8217  -13.3981 O   0  0  0  0  0  0  0  0  0  0  0  0
  2  1  1  0
  2  3  1  0
  3  4  1  6
  5  3  1  0
  5  6  2  0
  8  7  1  1
  8 10  1  0
  8  9  1  0
 11 10  1  1
 11 12  1  0
 12  5  1  0
 13 11  1  0
 14 13  2  0
 15 13  1  0
 16 15  1  0
 16 17  1  6
 18 17  1  0
 19 18  2  0
 20 21  1  0
 20 19  1  0
 21 22  2  0
 22 18  1  0
 23 16  1  0
 24 23  2  0
 25 23  1  0
M  END
$$$$
