SLH.pdb
     RDKit          3D

 25 25  0  0  1  0  0  0  0  0999 V2000
   21.7050  -14.5251  -21.2643 O   0  0  0  0  0  0  0  0  0  0  0  0
   21.9756  -13.5654  -20.2929 C   0  0  0  0  0  0  0  0  0  0  0  0
   22.2770  -14.1890  -18.9510 C   0  0  2  0  0  0  0  0  0  0  0  0
   21.1437  -14.9238  -18.4855 N   0  0  0  0  0  0  0  0  0  0  0  0
   22.7346  -13.2027  -17.9543 C   0  0  0  0  0  0  0  0  0  0  0  0
   21.9859  -12.6318  -17.1368 O   0  0  0  0  0  0  0  0  0  0  0  0
   28.0716  -12.3865  -15.1505 C   0  0  0  0  0  0  0  0  0  0  0  0
   26.7510  -11.7369  -15.5062 C   0  0  1  0  0  0  0  0  0  0  0  0
   27.1049  -10.3392  -16.0341 C   0  0  0  0  0  0  0  0  0  0  0  0
   26.0576  -12.4622  -16.6262 C   0  0  0  0  0  0  0  0  0  0  0  0
   24.6747  -11.9383  -16.9298 C   0  0  2  0  0  0  0  0  0  0  0  0
   24.1140  -12.8754  -17.9147 N   0  0  0  0  0  0  0  0  0  0  0  0
   24.8034  -10.6394  -17.6105 C   0  0  0  0  0  0  0  0  0  0  0  0
   25.4742  -10.5006  -18.6898 O   0  0  0  0  0  0  0  0  0  0  0  0
   24.1963   -9.4489  -17.1235 N   0  0  0  0  0  0  0  0  0  0  0  0
   24.2648   -8.2013  -17.8974 C   0  0  1  0  0  0  0  0  0  0  0  0
   22.8870   -7.5986  -18.0186 C   0  0  0  0  0  0  0  0  0  0  0  0
   22.1369   -8.2514  -19.1093 C   0  0  0  0  0  0  0  0  0  0  0  0
   22.5787   -9.2609  -19.9672 C   0  0  0  0  0  0  0  0  0  0  0  0
   21.6101   -9.6020  -20.8351 N   0  0  0  0  0  0  0  0  0  0  0  0
   20.5638   -8.8165  -20.5309 C   0  0  0  0  0  0  0  0  0  0  0  0
   20.8746   -8.0205  -19.5135 N   0  0  0  0  0  0  0  0  0  0  0  0
   25.1379   -7.2471  -17.1798 C   0  0  0  0  0  0  0  0  0  0  0  0
   25.4058   -7.4881  -15.9540 O   0  0  0  0  0  0  0  0  0  0  0  0
   25.6880   -6.1184  -17.7269 O   0  0  0  0  0  0  0  0  0  0  0  0
  2  1  1  0
  2  3  1  0
  3  4  1  1
  5  3  1  0
  5  6  2  0
  8  7  1  6
  8 10  1  0
  8  9  1  0
 11 10  1  6
 11 12  1  0
 12  5  1  0
 13 11  1  0
 14 13  2  0
 15 13  1  0
 16 15  1  0
 16 17  1  1
 18 17  1  0
 19 18  2  0
 20 21  1  0
 20 19  1  0
 21 22  2  0
 22 18  1  0
 23 16  1  0
 24 23  2  0
 25 23  1  0
M  END
$$$$
