SLH.pdb
     RDKit          3D

 25 25  0  0  1  0  0  0  0  0999 V2000
   26.9679  -16.0505  -18.0243 O   0  0  0  0  0  0  0  0  0  0  0  0
   28.3363  -16.2169  -17.8302 C   0  0  0  0  0  0  0  0  0  0  0  0
   28.9317  -17.1953  -18.8144 C   0  0  2  0  0  0  0  0  0  0  0  0
   28.9373  -16.6297  -20.1263 N   0  0  0  0  0  0  0  0  0  0  0  0
   28.2602  -18.5084  -18.7894 C   0  0  0  0  0  0  0  0  0  0  0  0
   27.3822  -18.8633  -19.6005 O   0  0  0  0  0  0  0  0  0  0  0  0
   28.3110  -23.7830  -17.8962 C   0  0  0  0  0  0  0  0  0  0  0  0
   28.4854  -22.9979  -16.6134 C   0  0  1  0  0  0  0  0  0  0  0  0
   29.6018  -23.7122  -15.8381 C   0  0  0  0  0  0  0  0  0  0  0  0
   28.9667  -21.5981  -16.8782 C   0  0  0  0  0  0  0  0  0  0  0  0
   27.9783  -20.7451  -17.6362 C   0  0  2  0  0  0  0  0  0  0  0  0
   28.6300  -19.4348  -17.7812 N   0  0  0  0  0  0  0  0  0  0  0  0
   26.7931  -20.5343  -16.7889 C   0  0  0  0  0  0  0  0  0  0  0  0
   26.8577  -19.9199  -15.6697 O   0  0  0  0  0  0  0  0  0  0  0  0
   25.4958  -20.9941  -17.1475 N   0  0  0  0  0  0  0  0  0  0  0  0
   24.3301  -20.6791  -16.3096 C   0  0  1  0  0  0  0  0  0  0  0  0
   23.9103  -19.2476  -16.5350 C   0  0  0  0  0  0  0  0  0  0  0  0
   22.6552  -18.9625  -15.8127 C   0  0  0  0  0  0  0  0  0  0  0  0
   21.9361  -19.8182  -14.9755 C   0  0  0  0  0  0  0  0  0  0  0  0
   20.8407  -19.2024  -14.4974 N   0  0  0  0  0  0  0  0  0  0  0  0
   20.8644  -17.9679  -15.0263 C   0  0  0  0  0  0  0  0  0  0  0  0
   21.9341  -17.8268  -15.8016 N   0  0  0  0  0  0  0  0  0  0  0  0
   23.2137  -21.5675  -16.6996 C   0  0  0  0  0  0  0  0  0  0  0  0
   22.1542  -21.5440  -15.9857 O   0  0  0  0  0  0  0  0  0  0  0  0
   23.2224  -22.4185  -17.7726 O   0  0  0  0  0  0  0  0  0  0  0  0
  2  1  1  0
  2  3  1  0
  3  4  1  6
  5  3  1  0
  5  6  2  0
  8  7  1  6
  8 10  1  0
  8  9  1  0
 11 10  1  1
 11 12  1  0
 12  5  1  0
 13 11  1  0
 14 13  2  0
 15 13  1  0
 16 15  1  0
 16 17  1  6
 18 17  1  0
 19 18  2  0
 20 21  1  0
 20 19  1  0
 21 22  2  0
 22 18  1  0
 23 16  1  0
 24 23  2  0
 25 23  1  0
M  END
$$$$
