SLH.pdb
     RDKit          3D

 25 25  0  0  1  0  0  0  0  0999 V2000
   19.4589  -32.6415  -11.3189 O   0  0  0  0  0  0  0  0  0  0  0  0
   20.4306  -31.7503  -11.7655 C   0  0  0  0  0  0  0  0  0  0  0  0
   21.5285  -32.4490  -12.5318 C   0  0  2  0  0  0  0  0  0  0  0  0
   20.9747  -33.1749  -13.6306 N   0  0  0  0  0  0  0  0  0  0  0  0
   22.3625  -33.3111  -11.6734 C   0  0  0  0  0  0  0  0  0  0  0  0
   22.4227  -34.5526  -11.7726 O   0  0  0  0  0  0  0  0  0  0  0  0
   26.8933  -34.6605   -9.4500 C   0  0  0  0  0  0  0  0  0  0  0  0
   26.3330  -33.4084   -8.8092 C   0  0  1  0  0  0  0  0  0  0  0  0
   27.5152  -32.4352   -8.6966 C   0  0  0  0  0  0  0  0  0  0  0  0
   25.3062  -32.7460   -9.6857 C   0  0  0  0  0  0  0  0  0  0  0  0
   23.9843  -33.4734   -9.7354 C   0  0  2  0  0  0  0  0  0  0  0  0
   23.1512  -32.6980  -10.6666 N   0  0  0  0  0  0  0  0  0  0  0  0
   23.3432  -33.3735   -8.4140 C   0  0  0  0  0  0  0  0  0  0  0  0
   22.9335  -32.2596   -7.9393 O   0  0  0  0  0  0  0  0  0  0  0  0
   23.1322  -34.4995   -7.5710 N   0  0  0  0  0  0  0  0  0  0  0  0
   22.4630  -34.3484   -6.2711 C   0  0  1  0  0  0  0  0  0  0  0  0
   21.7582  -35.6316   -5.9067 C   0  0  0  0  0  0  0  0  0  0  0  0
   21.0821  -35.4916   -4.6022 C   0  0  0  0  0  0  0  0  0  0  0  0
   20.0959  -34.5700   -4.2438 C   0  0  0  0  0  0  0  0  0  0  0  0
   19.7213  -34.7508   -2.9653 N   0  0  0  0  0  0  0  0  0  0  0  0
   20.4627  -35.7772   -2.5167 C   0  0  0  0  0  0  0  0  0  0  0  0
   21.2647  -36.2137   -3.4819 N   0  0  0  0  0  0  0  0  0  0  0  0
   23.4869  -34.0616   -5.2428 C   0  0  0  0  0  0  0  0  0  0  0  0
   24.6468  -34.5753   -5.3952 O   0  0  0  0  0  0  0  0  0  0  0  0
   23.2918  -33.2831   -4.1331 O   0  0  0  0  0  0  0  0  0  0  0  0
  2  1  1  0
  2  3  1  0
  3  4  1  6
  5  3  1  0
  5  6  2  0
  8  7  1  6
  8 10  1  0
  8  9  1  0
 11 10  1  1
 11 12  1  0
 12  5  1  0
 13 11  1  0
 14 13  2  0
 15 13  1  0
 16 15  1  0
 16 17  1  1
 18 17  1  0
 19 18  2  0
 20 21  1  0
 20 19  1  0
 21 22  2  0
 22 18  1  0
 23 16  1  0
 24 23  2  0
 25 23  1  0
M  END
$$$$
