SLH.pdb
     RDKit          3D

 25 25  0  0  1  0  0  0  0  0999 V2000
   16.9953  -11.6503  -13.6683 O   0  0  0  0  0  0  0  0  0  0  0  0
   17.1587  -11.8459  -12.2997 C   0  0  0  0  0  0  0  0  0  0  0  0
   15.9403  -11.4158  -11.5180 C   0  0  2  0  0  0  0  0  0  0  0  0
   14.8030  -12.1802  -11.9219 N   0  0  0  0  0  0  0  0  0  0  0  0
   15.6849   -9.9662  -11.6132 C   0  0  0  0  0  0  0  0  0  0  0  0
   14.7809   -9.4566  -12.3044 O   0  0  0  0  0  0  0  0  0  0  0  0
   14.8295   -6.7569   -7.4643 C   0  0  0  0  0  0  0  0  0  0  0  0
   14.8725   -7.2664   -8.8894 C   0  0  1  0  0  0  0  0  0  0  0  0
   14.0106   -6.2918   -9.7048 C   0  0  0  0  0  0  0  0  0  0  0  0
   16.2616   -7.2021   -9.4620 C   0  0  0  0  0  0  0  0  0  0  0  0
   16.3464   -7.6256  -10.9085 C   0  0  2  0  0  0  0  0  0  0  0  0
   16.5162   -9.0859  -10.8744 N   0  0  0  0  0  0  0  0  0  0  0  0
   17.5810   -7.0719  -11.4885 C   0  0  0  0  0  0  0  0  0  0  0  0
   18.7049   -7.1352  -10.8829 O   0  0  0  0  0  0  0  0  0  0  0  0
   17.6176   -6.4291  -12.7568 N   0  0  0  0  0  0  0  0  0  0  0  0
   18.8562   -5.8083  -13.2476 C   0  0  1  0  0  0  0  0  0  0  0  0
   19.2963   -6.4838  -14.5227 C   0  0  0  0  0  0  0  0  0  0  0  0
   19.6778   -7.8842  -14.2548 C   0  0  0  0  0  0  0  0  0  0  0  0
   20.8817   -8.3577  -13.7290 C   0  0  0  0  0  0  0  0  0  0  0  0
   20.8598   -9.6984  -13.6291 N   0  0  0  0  0  0  0  0  0  0  0  0
   19.6535  -10.0719  -14.0869 C   0  0  0  0  0  0  0  0  0  0  0  0
   18.9569   -9.0022  -14.4557 N   0  0  0  0  0  0  0  0  0  0  0  0
   18.5885   -4.3822  -13.5348 C   0  0  0  0  0  0  0  0  0  0  0  0
   19.5870   -3.6260  -13.7867 O   0  0  0  0  0  0  0  0  0  0  0  0
   17.3480   -3.8022  -13.5542 O   0  0  0  0  0  0  0  0  0  0  0  0
  2  1  1  0
  2  3  1  0
  3  4  1  6
  5  3  1  0
  5  6  2  0
  8  7  1  1
  8 10  1  0
  8  9  1  0
 11 10  1  1
 11 12  1  0
 12  5  1  0
 13 11  1  0
 14 13  2  0
 15 13  1  0
 16 15  1  0
 16 17  1  6
 18 17  1  0
 19 18  2  0
 20 21  1  0
 20 19  1  0
 21 22  2  0
 22 18  1  0
 23 16  1  0
 24 23  2  0
 25 23  1  0
M  END
$$$$
