SLH.pdb
     RDKit          3D

 25 25  0  0  1  0  0  0  0  0999 V2000
   17.7140  -10.5345  -18.8333 O   0  0  0  0  0  0  0  0  0  0  0  0
   18.2289   -9.9653  -17.6719 C   0  0  0  0  0  0  0  0  0  0  0  0
   19.3197  -10.8136  -17.0626 C   0  0  2  0  0  0  0  0  0  0  0  0
   18.7841  -12.0654  -16.6302 N   0  0  0  0  0  0  0  0  0  0  0  0
   20.0381  -10.1229  -15.9752 C   0  0  0  0  0  0  0  0  0  0  0  0
   19.6620  -10.1042  -14.7865 O   0  0  0  0  0  0  0  0  0  0  0  0
   25.3281  -10.4938  -15.4815 C   0  0  0  0  0  0  0  0  0  0  0  0
   23.8779  -10.2455  -15.1246 C   0  0  1  0  0  0  0  0  0  0  0  0
   23.8200  -10.2588  -13.5903 C   0  0  0  0  0  0  0  0  0  0  0  0
   23.4216   -8.8820  -15.5652 C   0  0  0  0  0  0  0  0  0  0  0  0
   21.9587   -8.6140  -15.3064 C   0  0  2  0  0  0  0  0  0  0  0  0
   21.2356   -9.4320  -16.2916 N   0  0  0  0  0  0  0  0  0  0  0  0
   21.6732   -7.2080  -15.6360 C   0  0  0  0  0  0  0  0  0  0  0  0
   21.6452   -6.7842  -16.8417 O   0  0  0  0  0  0  0  0  0  0  0  0
   21.4087   -6.2212  -14.6463 N   0  0  0  0  0  0  0  0  0  0  0  0
   21.0912   -4.8388  -15.0315 C   0  0  1  0  0  0  0  0  0  0  0  0
   20.1072   -4.2483  -14.0521 C   0  0  0  0  0  0  0  0  0  0  0  0
   19.8118   -2.8462  -14.4057 C   0  0  0  0  0  0  0  0  0  0  0  0
   18.9169   -2.3767  -15.3695 C   0  0  0  0  0  0  0  0  0  0  0  0
   18.9203   -1.0327  -15.4040 N   0  0  0  0  0  0  0  0  0  0  0  0
   19.8090   -0.6528  -14.4711 C   0  0  0  0  0  0  0  0  0  0  0  0
   20.3344   -1.7221  -13.8828 N   0  0  0  0  0  0  0  0  0  0  0  0
   22.3353   -4.0398  -14.9934 C   0  0  0  0  0  0  0  0  0  0  0  0
   23.2644   -4.4184  -14.2022 O   0  0  0  0  0  0  0  0  0  0  0  0
   22.5750   -2.9195  -15.7438 O   0  0  0  0  0  0  0  0  0  0  0  0
  2  1  1  0
  2  3  1  0
  3  4  1  1
  5  3  1  0
  5  6  2  0
  8  7  1  1
  8 10  1  0
  8  9  1  0
 11 10  1  6
 11 12  1  0
 12  5  1  0
 13 11  1  0
 14 13  2  0
 15 13  1  0
 16 15  1  0
 16 17  1  1
 18 17  1  0
 19 18  2  0
 20 21  1  0
 20 19  1  0
 21 22  2  0
 22 18  1  0
 23 16  1  0
 24 23  2  0
 25 23  1  0
M  END
$$$$
