SLH.pdb
     RDKit          3D

 25 25  0  0  1  0  0  0  0  0999 V2000
   42.3202   -7.7666   -4.9102 O   0  0  0  0  0  0  0  0  0  0  0  0
   42.9782   -8.8483   -4.3316 C   0  0  0  0  0  0  0  0  0  0  0  0
   43.2040   -9.9670   -5.3206 C   0  0  2  0  0  0  0  0  0  0  0  0
   44.5891  -10.0491   -5.6610 N   0  0  0  0  0  0  0  0  0  0  0  0
   42.3537   -9.8474   -6.5199 C   0  0  0  0  0  0  0  0  0  0  0  0
   42.7712   -9.5111   -7.6457 O   0  0  0  0  0  0  0  0  0  0  0  0
   38.2855  -11.7416   -9.4437 C   0  0  0  0  0  0  0  0  0  0  0  0
   37.8040  -11.0167   -8.2048 C   0  0  1  0  0  0  0  0  0  0  0  0
   36.6779  -11.8858   -7.6267 C   0  0  0  0  0  0  0  0  0  0  0  0
   38.8763  -10.9382   -7.1534 C   0  0  0  0  0  0  0  0  0  0  0  0
   40.0440  -10.0612   -7.5358 C   0  0  2  0  0  0  0  0  0  0  0  0
   40.9697  -10.1312   -6.3953 N   0  0  0  0  0  0  0  0  0  0  0  0
   39.5783   -8.6669   -7.6148 C   0  0  0  0  0  0  0  0  0  0  0  0
   38.9791   -8.0938   -6.6419 O   0  0  0  0  0  0  0  0  0  0  0  0
   39.7578   -7.8572   -8.7703 N   0  0  0  0  0  0  0  0  0  0  0  0
   39.3297   -6.4511   -8.7748 C   0  0  1  0  0  0  0  0  0  0  0  0
   40.4825   -5.5670   -9.1818 C   0  0  0  0  0  0  0  0  0  0  0  0
   41.3664   -5.3146   -8.0271 C   0  0  0  0  0  0  0  0  0  0  0  0
   41.2106   -5.7664   -6.7150 C   0  0  0  0  0  0  0  0  0  0  0  0
   42.2207   -5.3314   -5.9415 N   0  0  0  0  0  0  0  0  0  0  0  0
   43.0098   -4.6105   -6.7550 C   0  0  0  0  0  0  0  0  0  0  0  0
   42.5060   -4.6007   -7.9844 N   0  0  0  0  0  0  0  0  0  0  0  0
   38.2392   -6.2921   -9.7613 C   0  0  0  0  0  0  0  0  0  0  0  0
   37.9361   -7.3010  -10.4845 O   0  0  0  0  0  0  0  0  0  0  0  0
   37.5215   -5.1434   -9.9634 O   0  0  0  0  0  0  0  0  0  0  0  0
  2  1  1  0
  2  3  1  0
  3  4  1  6
  5  3  1  0
  5  6  2  0
  8  7  1  6
  8 10  1  0
  8  9  1  0
 11 10  1  1
 11 12  1  0
 12  5  1  0
 13 11  1  0
 14 13  2  0
 15 13  1  0
 16 15  1  0
 16 17  1  6
 18 17  1  0
 19 18  2  0
 20 21  1  0
 20 19  1  0
 21 22  2  0
 22 18  1  0
 23 16  1  0
 24 23  2  0
 25 23  1  0
M  END
$$$$
