SLH.pdb
     RDKit          3D

 25 25  0  0  1  0  0  0  0  0999 V2000
   16.4879  -13.0185  -18.3517 O   0  0  0  0  0  0  0  0  0  0  0  0
   17.0787  -12.5621  -17.1767 C   0  0  0  0  0  0  0  0  0  0  0  0
   17.8177  -11.2616  -17.3839 C   0  0  2  0  0  0  0  0  0  0  0  0
   18.6587  -11.3531  -18.5351 N   0  0  0  0  0  0  0  0  0  0  0  0
   18.5723  -10.8385  -16.1893 C   0  0  0  0  0  0  0  0  0  0  0  0
   18.0742  -10.7098  -15.0535 O   0  0  0  0  0  0  0  0  0  0  0  0
   23.0391  -10.7073  -13.1523 C   0  0  0  0  0  0  0  0  0  0  0  0
   23.2065  -10.0848  -14.5223 C   0  0  1  0  0  0  0  0  0  0  0  0
   24.5671  -10.5755  -15.0377 C   0  0  0  0  0  0  0  0  0  0  0  0
   22.1692  -10.5828  -15.4906 C   0  0  0  0  0  0  0  0  0  0  0  0
   20.7783  -10.0640  -15.2166 C   0  0  2  0  0  0  0  0  0  0  0  0
   19.9553  -10.5574  -16.3309 N   0  0  0  0  0  0  0  0  0  0  0  0
   20.7950   -8.5959  -15.3236 C   0  0  0  0  0  0  0  0  0  0  0  0
   21.0137   -7.9971  -16.4316 O   0  0  0  0  0  0  0  0  0  0  0  0
   20.5709   -7.7380  -14.2114 N   0  0  0  0  0  0  0  0  0  0  0  0
   20.5669   -6.2778  -14.3793 C   0  0  1  0  0  0  0  0  0  0  0  0
   21.8916   -5.8242  -14.9412 C   0  0  0  0  0  0  0  0  0  0  0  0
   21.9037   -4.3572  -15.1025 C   0  0  0  0  0  0  0  0  0  0  0  0
   21.6720   -3.3867  -14.1254 C   0  0  0  0  0  0  0  0  0  0  0  0
   21.7686   -2.1530  -14.6513 N   0  0  0  0  0  0  0  0  0  0  0  0
   22.0589   -2.3389  -15.9495 C   0  0  0  0  0  0  0  0  0  0  0  0
   22.1384   -3.6383  -16.2152 N   0  0  0  0  0  0  0  0  0  0  0  0
   19.4976   -5.9147  -15.3345 C   0  0  0  0  0  0  0  0  0  0  0  0
   18.4505   -5.3473  -14.8716 O   0  0  0  0  0  0  0  0  0  0  0  0
   19.5393   -6.1374  -16.6852 O   0  0  0  0  0  0  0  0  0  0  0  0
  2  1  1  0
  2  3  1  0
  3  4  1  6
  5  3  1  0
  5  6  2  0
  8  7  1  1
  8 10  1  0
  8  9  1  0
 11 10  1  6
 11 12  1  0
 12  5  1  0
 13 11  1  0
 14 13  2  0
 15 13  1  0
 16 15  1  0
 16 17  1  6
 18 17  1  0
 19 18  2  0
 20 21  1  0
 20 19  1  0
 21 22  2  0
 22 18  1  0
 23 16  1  0
 24 23  2  0
 25 23  1  0
M  END
$$$$
