SLH.pdb
     RDKit          3D

 25 25  0  0  1  0  0  0  0  0999 V2000
   21.6337  -16.9369  -18.5937 O   0  0  0  0  0  0  0  0  0  0  0  0
   22.8542  -16.3108  -18.3562 C   0  0  0  0  0  0  0  0  0  0  0  0
   24.0186  -17.1395  -18.8437 C   0  0  2  0  0  0  0  0  0  0  0  0
   23.8565  -17.4464  -20.2295 N   0  0  0  0  0  0  0  0  0  0  0  0
   24.2295  -18.3561  -18.0367 C   0  0  0  0  0  0  0  0  0  0  0  0
   23.8027  -19.4861  -18.3458 O   0  0  0  0  0  0  0  0  0  0  0  0
   27.6275  -21.2710  -15.2048 C   0  0  0  0  0  0  0  0  0  0  0  0
   27.0520  -20.1504  -14.3650 C   0  0  1  0  0  0  0  0  0  0  0  0
   28.2368  -19.5696  -13.5798 C   0  0  0  0  0  0  0  0  0  0  0  0
   26.5084  -19.0377  -15.2183 C   0  0  0  0  0  0  0  0  0  0  0  0
   25.2503  -19.4021  -15.9688 C   0  0  2  0  0  0  0  0  0  0  0  0
   24.9642  -18.2440  -16.8287 N   0  0  0  0  0  0  0  0  0  0  0  0
   24.1400  -19.4964  -15.0068 C   0  0  0  0  0  0  0  0  0  0  0  0
   23.6424  -18.4648  -14.4392 O   0  0  0  0  0  0  0  0  0  0  0  0
   23.5408  -20.7325  -14.6380 N   0  0  0  0  0  0  0  0  0  0  0  0
   22.4793  -20.7781  -13.6224 C   0  0  1  0  0  0  0  0  0  0  0  0
   22.7919  -19.8055  -12.5122 C   0  0  0  0  0  0  0  0  0  0  0  0
   23.8803  -20.3295  -11.6641 C   0  0  0  0  0  0  0  0  0  0  0  0
   24.6196  -21.5001  -11.8466 C   0  0  0  0  0  0  0  0  0  0  0  0
   25.5279  -21.6439  -10.8658 N   0  0  0  0  0  0  0  0  0  0  0  0
   25.3665  -20.5750  -10.0686 C   0  0  0  0  0  0  0  0  0  0  0  0
   24.3952  -19.8003  -10.5395 N   0  0  0  0  0  0  0  0  0  0  0  0
   21.2026  -20.3809  -14.2548 C   0  0  0  0  0  0  0  0  0  0  0  0
   20.9376  -19.1334  -14.3335 O   0  0  0  0  0  0  0  0  0  0  0  0
   20.2749  -21.2478  -14.7681 O   0  0  0  0  0  0  0  0  0  0  0  0
  2  1  1  0
  2  3  1  0
  3  4  1  6
  5  3  1  0
  5  6  2  0
  8  7  1  6
  8 10  1  0
  8  9  1  0
 11 10  1  1
 11 12  1  0
 12  5  1  0
 13 11  1  0
 14 13  2  0
 15 13  1  0
 16 15  1  0
 16 17  1  1
 18 17  1  0
 19 18  2  0
 20 21  1  0
 20 19  1  0
 21 22  2  0
 22 18  1  0
 23 16  1  0
 24 23  2  0
 25 23  1  0
M  END
$$$$
