SLH.pdb
     RDKit          3D

 25 25  0  0  1  0  0  0  0  0999 V2000
   23.0826  -12.5671  -19.0214 O   0  0  0  0  0  0  0  0  0  0  0  0
   21.7942  -12.2583  -19.4489 C   0  0  0  0  0  0  0  0  0  0  0  0
   21.4871  -10.7872  -19.3006 C   0  0  2  0  0  0  0  0  0  0  0  0
   22.4511  -10.0103  -20.0134 N   0  0  0  0  0  0  0  0  0  0  0  0
   21.3822  -10.3664  -17.8908 C   0  0  0  0  0  0  0  0  0  0  0  0
   20.3497  -10.4765  -17.2004 O   0  0  0  0  0  0  0  0  0  0  0  0
   25.9647  -10.4613  -14.8099 C   0  0  0  0  0  0  0  0  0  0  0  0
   24.4994  -10.5432  -15.1820 C   0  0  1  0  0  0  0  0  0  0  0  0
   23.7849  -11.0880  -13.9369 C   0  0  0  0  0  0  0  0  0  0  0  0
   23.9179   -9.1839  -15.4572 C   0  0  0  0  0  0  0  0  0  0  0  0
   22.4817   -9.2161  -15.9209 C   0  0  2  0  0  0  0  0  0  0  0  0
   22.5243   -9.7984  -17.2706 N   0  0  0  0  0  0  0  0  0  0  0  0
   22.0065   -7.8313  -16.0748 C   0  0  0  0  0  0  0  0  0  0  0  0
   22.7059   -6.9329  -16.6559 O   0  0  0  0  0  0  0  0  0  0  0  0
   20.7432   -7.3904  -15.5926 N   0  0  0  0  0  0  0  0  0  0  0  0
   20.1904   -6.0950  -16.0128 C   0  0  1  0  0  0  0  0  0  0  0  0
   20.0428   -6.0649  -17.5140 C   0  0  0  0  0  0  0  0  0  0  0  0
   19.5510   -4.7446  -17.9535 C   0  0  0  0  0  0  0  0  0  0  0  0
   20.2075   -3.5150  -17.8688 C   0  0  0  0  0  0  0  0  0  0  0  0
   19.4404   -2.5330  -18.3738 N   0  0  0  0  0  0  0  0  0  0  0  0
   18.3079   -3.1337  -18.7750 C   0  0  0  0  0  0  0  0  0  0  0  0
   18.3734   -4.4374  -18.5271 N   0  0  0  0  0  0  0  0  0  0  0  0
   18.8535   -5.9308  -15.4018 C   0  0  0  0  0  0  0  0  0  0  0  0
   18.1013   -6.9608  -15.3247 O   0  0  0  0  0  0  0  0  0  0  0  0
   18.3528   -4.7561  -14.9067 O   0  0  0  0  0  0  0  0  0  0  0  0
  2  1  1  0
  2  3  1  0
  3  4  1  1
  5  3  1  0
  5  6  2  0
  8  7  1  1
  8 10  1  0
  8  9  1  0
 11 10  1  6
 11 12  1  0
 12  5  1  0
 13 11  1  0
 14 13  2  0
 15 13  1  0
 16 15  1  0
 16 17  1  6
 18 17  1  0
 19 18  2  0
 20 21  1  0
 20 19  1  0
 21 22  2  0
 22 18  1  0
 23 16  1  0
 24 23  2  0
 25 23  1  0
M  END
$$$$
