SLH.pdb
     RDKit          3D

 25 25  0  0  1  0  0  0  0  0999 V2000
   22.7333  -10.4760  -21.2117 O   0  0  0  0  0  0  0  0  0  0  0  0
   24.0372  -10.9130  -21.4280 C   0  0  0  0  0  0  0  0  0  0  0  0
   24.4316  -12.0107  -20.4688 C   0  0  2  0  0  0  0  0  0  0  0  0
   23.6920  -13.1995  -20.7525 N   0  0  0  0  0  0  0  0  0  0  0  0
   24.2968  -11.6085  -19.0561 C   0  0  0  0  0  0  0  0  0  0  0  0
   23.3581  -11.9575  -18.3134 O   0  0  0  0  0  0  0  0  0  0  0  0
   28.9676  -10.7050  -16.4230 C   0  0  0  0  0  0  0  0  0  0  0  0
   27.5343  -11.1031  -16.7051 C   0  0  1  0  0  0  0  0  0  0  0  0
   27.1009  -11.9668  -15.5119 C   0  0  0  0  0  0  0  0  0  0  0  0
   26.6201   -9.9094  -16.7327 C   0  0  0  0  0  0  0  0  0  0  0  0
   25.2006  -10.2359  -17.1295 C   0  0  2  0  0  0  0  0  0  0  0  0
   25.2946  -10.7702  -18.4964 N   0  0  0  0  0  0  0  0  0  0  0  0
   24.4375   -8.9802  -17.2201 C   0  0  0  0  0  0  0  0  0  0  0  0
   24.6909   -8.0926  -18.1044 O   0  0  0  0  0  0  0  0  0  0  0  0
   23.3685   -8.6610  -16.3378 N   0  0  0  0  0  0  0  0  0  0  0  0
   22.5860   -7.4306  -16.5220 C   0  0  1  0  0  0  0  0  0  0  0  0
   21.5194   -7.6543  -17.5653 C   0  0  0  0  0  0  0  0  0  0  0  0
   20.7274   -6.4242  -17.7596 C   0  0  0  0  0  0  0  0  0  0  0  0
   21.1989   -5.1220  -17.9389 C   0  0  0  0  0  0  0  0  0  0  0  0
   20.1744   -4.2634  -18.0841 N   0  0  0  0  0  0  0  0  0  0  0  0
   19.0636   -5.0136  -17.9978 C   0  0  0  0  0  0  0  0  0  0  0  0
   19.3898   -6.2873  -17.8065 N   0  0  0  0  0  0  0  0  0  0  0  0
   21.9311   -7.0906  -15.2401 C   0  0  0  0  0  0  0  0  0  0  0  0
   21.6536   -8.0465  -14.4390 O   0  0  0  0  0  0  0  0  0  0  0  0
   21.5966   -5.8248  -14.8381 O   0  0  0  0  0  0  0  0  0  0  0  0
  2  1  1  0
  2  3  1  0
  3  4  1  1
  5  3  1  0
  5  6  2  0
  8  7  1  1
  8 10  1  0
  8  9  1  0
 11 10  1  6
 11 12  1  0
 12  5  1  0
 13 11  1  0
 14 13  2  0
 15 13  1  0
 16 15  1  0
 16 17  1  6
 18 17  1  0
 19 18  2  0
 20 21  1  0
 20 19  1  0
 21 22  2  0
 22 18  1  0
 23 16  1  0
 24 23  2  0
 25 23  1  0
M  END
$$$$
