QTN.pdb
     RDKit          3D

 25 24  0  0  1  0  0  0  0  0999 V2000
    7.5797  -20.3612   16.6456 N   0  0  0  0  0  0  0  0  0  0  0  0
    8.9417  -19.9652   16.4835 C   0  0  0  0  0  0  0  0  0  0  0  0
    9.8215  -20.8534   16.4234 O   0  0  0  0  0  0  0  0  0  0  0  0
    9.2188  -18.5216   16.3964 C   0  0  0  0  0  0  0  0  0  0  0  0
    8.0079  -17.6417   16.5037 C   0  0  0  0  0  0  0  0  0  0  0  0
    8.3446  -16.1914   16.4093 C   0  0  2  0  0  0  0  0  0  0  0  0
    9.2335  -15.9310   15.2700 N   0  0  0  0  0  0  0  0  0  0  0  0
    8.9448  -15.6624   17.6667 C   0  0  0  0  0  0  0  0  0  0  0  0
   10.1949  -15.5373   17.7197 O   0  0  0  0  0  0  0  0  0  0  0  0
    7.1156  -12.8940   20.0002 C   0  0  0  0  0  0  0  0  0  0  0  0
    7.7444  -13.9877   20.8056 C   0  0  1  0  0  0  0  0  0  0  0  0
    6.7337  -14.9617   21.0524 O   0  0  0  0  0  0  0  0  0  0  0  0
    8.8308  -14.7248   20.0105 C   0  0  2  0  0  0  0  0  0  0  0  0
    8.2030  -15.2899   18.8089 N   0  0  0  0  0  0  0  0  0  0  0  0
    9.3565  -15.8158   20.8569 C   0  0  0  0  0  0  0  0  0  0  0  0
    9.5467  -16.9902   20.3607 O   0  0  0  0  0  0  0  0  0  0  0  0
   13.8592  -17.9083   21.7989 N   0  0  0  0  0  0  0  0  0  0  0  0
   13.1704  -16.9741   22.6539 C   0  0  0  0  0  0  0  0  0  0  0  0
   13.6441  -16.8163   23.7910 O   0  0  0  0  0  0  0  0  0  0  0  0
   11.9911  -16.2815   22.1635 C   0  0  0  0  0  0  0  0  0  0  0  0
   10.6905  -16.6329   22.8490 C   0  0  2  0  0  0  0  0  0  0  0  0
    9.6986  -15.7164   22.2231 N   0  0  0  0  0  0  0  0  0  0  0  0
   10.8094  -16.2951   24.2820 C   0  0  0  0  0  0  0  0  0  0  0  0
   10.9087  -17.2210   25.1157 O   0  0  0  0  0  0  0  0  0  0  0  0
   10.8145  -14.9991   24.7139 O   0  0  0  0  0  0  0  0  0  0  0  0
  2  1  1  0
  2  3  2  0
  4  2  1  0
  5  4  1  0
  6  7  1  6
  6  5  1  0
  8  6  1  0
  9  8  2  0
 11 10  1  6
 11 13  1  0
 11 12  1  0
 13 14  1  6
 14  8  1  0
 15 22  1  0
 15 13  1  0
 16 15  2  0
 18 17  1  0
 19 18  2  0
 20 18  1  0
 21 20  1  6
 21 22  1  0
 23 21  1  0
 23 25  1  0
 24 23  2  0
M  END
$$$$
