QTN.pdb
     RDKit          3D

 25 24  0  0  1  0  0  0  0  0999 V2000
    9.9522  -20.2226   15.9662 N   0  0  0  0  0  0  0  0  0  0  0  0
   10.1144  -18.9728   15.2956 C   0  0  0  0  0  0  0  0  0  0  0  0
   10.9893  -18.8788   14.4055 O   0  0  0  0  0  0  0  0  0  0  0  0
    9.2291  -17.8689   15.7028 C   0  0  0  0  0  0  0  0  0  0  0  0
    9.2937  -17.5163   17.1600 C   0  0  0  0  0  0  0  0  0  0  0  0
    8.3970  -16.3775   17.5133 C   0  0  2  0  0  0  0  0  0  0  0  0
    8.2192  -15.4739   16.3697 N   0  0  0  0  0  0  0  0  0  0  0  0
    8.8792  -15.6198   18.7026 C   0  0  0  0  0  0  0  0  0  0  0  0
    9.7575  -14.7373   18.5268 O   0  0  0  0  0  0  0  0  0  0  0  0
    7.0392  -13.4496   21.0031 C   0  0  0  0  0  0  0  0  0  0  0  0
    7.7527  -14.4235   21.8880 C   0  0  1  0  0  0  0  0  0  0  0  0
    6.8449  -15.4886   22.1578 O   0  0  0  0  0  0  0  0  0  0  0  0
    8.9411  -15.0771   21.1698 C   0  0  2  0  0  0  0  0  0  0  0  0
    8.4156  -15.8253   20.0203 N   0  0  0  0  0  0  0  0  0  0  0  0
    9.5907  -16.0089   22.1148 C   0  0  0  0  0  0  0  0  0  0  0  0
    9.8742  -17.2124   21.7506 O   0  0  0  0  0  0  0  0  0  0  0  0
   13.9320  -17.8138   23.7983 N   0  0  0  0  0  0  0  0  0  0  0  0
   13.5892  -16.4152   23.8663 C   0  0  0  0  0  0  0  0  0  0  0  0
   14.4361  -15.6654   24.3790 O   0  0  0  0  0  0  0  0  0  0  0  0
   12.3100  -15.9601   23.3493 C   0  0  0  0  0  0  0  0  0  0  0  0
   11.0906  -16.4226   24.1135 C   0  0  2  0  0  0  0  0  0  0  0  0
    9.9626  -15.7179   23.4454 N   0  0  0  0  0  0  0  0  0  0  0  0
   11.1961  -15.9360   25.5042 C   0  0  0  0  0  0  0  0  0  0  0  0
   10.5074  -14.9538   25.8554 O   0  0  0  0  0  0  0  0  0  0  0  0
   12.0248  -16.5337   26.4108 O   0  0  0  0  0  0  0  0  0  0  0  0
  2  1  1  0
  2  3  2  0
  4  2  1  0
  5  4  1  0
  6  7  1  6
  6  5  1  0
  8  6  1  0
  9  8  2  0
 11 10  1  6
 11 13  1  0
 11 12  1  0
 13 14  1  6
 14  8  1  0
 15 22  1  0
 15 13  1  0
 16 15  2  0
 18 17  1  0
 19 18  2  0
 20 18  1  0
 21 20  1  6
 21 22  1  0
 23 21  1  0
 23 25  1  0
 24 23  2  0
M  END
$$$$
