QTN.pdb
     RDKit          3D

 25 24  0  0  1  0  0  0  0  0999 V2000
    8.0762  -13.1831   20.1088 N   0  0  0  0  0  0  0  0  0  0  0  0
    7.3506  -12.9871   18.8950 C   0  0  0  0  0  0  0  0  0  0  0  0
    6.6008  -11.9895   18.7989 O   0  0  0  0  0  0  0  0  0  0  0  0
    7.5385  -13.9844   17.8281 C   0  0  0  0  0  0  0  0  0  0  0  0
    8.4519  -13.5530   16.7184 C   0  0  0  0  0  0  0  0  0  0  0  0
    8.7811  -14.6674   15.7827 C   0  0  2  0  0  0  0  0  0  0  0  0
    7.5822  -15.1278   15.0708 N   0  0  0  0  0  0  0  0  0  0  0  0
    9.4473  -15.8103   16.4691 C   0  0  0  0  0  0  0  0  0  0  0  0
    8.7236  -16.7358   16.9172 O   0  0  0  0  0  0  0  0  0  0  0  0
   12.1120  -18.1039   15.1769 C   0  0  0  0  0  0  0  0  0  0  0  0
   12.6054  -17.5877   16.4924 C   0  0  1  0  0  0  0  0  0  0  0  0
   13.4234  -16.4533   16.2182 O   0  0  0  0  0  0  0  0  0  0  0  0
   11.4563  -17.0573   17.3606 C   0  0  2  0  0  0  0  0  0  0  0  0
   10.8425  -15.9265   16.6521 N   0  0  0  0  0  0  0  0  0  0  0  0
   12.0276  -16.5910   18.6409 C   0  0  0  0  0  0  0  0  0  0  0  0
   12.4170  -15.3694   18.7731 O   0  0  0  0  0  0  0  0  0  0  0  0
   11.1826  -16.7337   24.5174 N   0  0  0  0  0  0  0  0  0  0  0  0
   12.1186  -16.5629   23.4343 C   0  0  0  0  0  0  0  0  0  0  0  0
   13.1952  -16.0131   23.7189 O   0  0  0  0  0  0  0  0  0  0  0  0
   11.7719  -17.0261   22.1016 C   0  0  0  0  0  0  0  0  0  0  0  0
   12.8218  -16.8071   21.0364 C   0  0  2  0  0  0  0  0  0  0  0  0
   12.2034  -17.3702   19.8052 N   0  0  0  0  0  0  0  0  0  0  0  0
   14.0124  -17.6113   21.3789 C   0  0  0  0  0  0  0  0  0  0  0  0
   14.9690  -17.0578   21.9627 O   0  0  0  0  0  0  0  0  0  0  0  0
   14.0902  -18.9407   21.0744 O   0  0  0  0  0  0  0  0  0  0  0  0
  2  1  1  0
  2  3  2  0
  4  2  1  0
  5  4  1  0
  6  7  1  1
  6  5  1  0
  8  6  1  0
  9  8  2  0
 11 10  1  6
 11 13  1  0
 11 12  1  0
 13 14  1  6
 14  8  1  0
 15 22  1  0
 15 13  1  0
 16 15  2  0
 18 17  1  0
 19 18  2  0
 20 18  1  0
 21 20  1  1
 21 22  1  0
 23 21  1  0
 23 25  1  0
 24 23  2  0
M  END
$$$$
