QTN.pdb
     RDKit          3D

 25 24  0  0  1  0  0  0  0  0999 V2000
    9.3765  -14.1213   16.0855 N   0  0  0  0  0  0  0  0  0  0  0  0
    9.3844  -15.4642   15.6009 C   0  0  0  0  0  0  0  0  0  0  0  0
    9.9992  -15.7154   14.5401 O   0  0  0  0  0  0  0  0  0  0  0  0
    8.6605  -16.4718   16.3939 C   0  0  0  0  0  0  0  0  0  0  0  0
    8.0394  -15.9503   17.6566 C   0  0  0  0  0  0  0  0  0  0  0  0
    8.7267  -16.4523   18.8819 C   0  0  2  0  0  0  0  0  0  0  0  0
    8.1401  -17.7211   19.3313 N   0  0  0  0  0  0  0  0  0  0  0  0
    8.7172  -15.4555   19.9898 C   0  0  0  0  0  0  0  0  0  0  0  0
    8.2312  -14.3187   19.7599 O   0  0  0  0  0  0  0  0  0  0  0  0
    6.8065  -14.1142   21.3264 C   0  0  0  0  0  0  0  0  0  0  0  0
    7.4364  -14.6639   22.5680 C   0  0  1  0  0  0  0  0  0  0  0  0
    6.9527  -15.9946   22.7302 O   0  0  0  0  0  0  0  0  0  0  0  0
    8.9576  -14.8019   22.4189 C   0  0  2  0  0  0  0  0  0  0  0  0
    9.2188  -15.7004   21.2867 N   0  0  0  0  0  0  0  0  0  0  0  0
    9.4868  -15.4010   23.6615 C   0  0  0  0  0  0  0  0  0  0  0  0
    9.9119  -16.6178   23.6675 O   0  0  0  0  0  0  0  0  0  0  0  0
    9.8855  -14.3839   29.6634 N   0  0  0  0  0  0  0  0  0  0  0  0
   10.6033  -14.8202   28.4918 C   0  0  0  0  0  0  0  0  0  0  0  0
   11.5807  -15.5605   28.6892 O   0  0  0  0  0  0  0  0  0  0  0  0
   10.1658  -14.3884   27.1754 C   0  0  0  0  0  0  0  0  0  0  0  0
   10.1435  -15.4576   26.1072 C   0  0  2  0  0  0  0  0  0  0  0  0
    9.5914  -14.7588   24.9146 N   0  0  0  0  0  0  0  0  0  0  0  0
    9.1953  -16.5126   26.5192 C   0  0  0  0  0  0  0  0  0  0  0  0
    7.9853  -16.3835   26.2341 O   0  0  0  0  0  0  0  0  0  0  0  0
    9.6100  -17.6215   27.2006 O   0  0  0  0  0  0  0  0  0  0  0  0
  2  1  1  0
  2  3  2  0
  4  2  1  0
  5  4  1  0
  6  7  1  1
  6  5  1  0
  8  6  1  0
  9  8  2  0
 11 10  1  6
 11 13  1  0
 11 12  1  0
 13 14  1  6
 14  8  1  0
 15 22  1  0
 15 13  1  0
 16 15  2  0
 18 17  1  0
 19 18  2  0
 20 18  1  0
 21 20  1  1
 21 22  1  0
 23 21  1  0
 23 25  1  0
 24 23  2  0
M  END
$$$$
