QTN.pdb
     RDKit          3D

 25 24  0  0  1  0  0  0  0  0999 V2000
    8.1282  -12.7120   15.9230 N   0  0  0  0  0  0  0  0  0  0  0  0
    7.9247  -14.0965   15.6404 C   0  0  0  0  0  0  0  0  0  0  0  0
    7.7133  -14.4421   14.4562 O   0  0  0  0  0  0  0  0  0  0  0  0
    7.9795  -15.0320   16.7762 C   0  0  0  0  0  0  0  0  0  0  0  0
    9.2215  -15.8719   16.8393 C   0  0  0  0  0  0  0  0  0  0  0  0
    9.2721  -16.7273   18.0605 C   0  0  2  0  0  0  0  0  0  0  0  0
    8.0120  -17.4587   18.2428 N   0  0  0  0  0  0  0  0  0  0  0  0
    9.6022  -15.9495   19.2882 C   0  0  0  0  0  0  0  0  0  0  0  0
   10.7040  -15.3448   19.3281 O   0  0  0  0  0  0  0  0  0  0  0  0
    7.3587  -13.4507   21.4173 C   0  0  0  0  0  0  0  0  0  0  0  0
    7.9239  -14.5344   22.2813 C   0  0  1  0  0  0  0  0  0  0  0  0
    6.9564  -15.5798   22.3304 O   0  0  0  0  0  0  0  0  0  0  0  0
    9.1724  -15.1680   21.6525 C   0  0  2  0  0  0  0  0  0  0  0  0
    8.7590  -15.8440   20.4158 N   0  0  0  0  0  0  0  0  0  0  0  0
    9.7113  -16.1602   22.6054 C   0  0  0  0  0  0  0  0  0  0  0  0
    8.9515  -17.0882   23.0777 O   0  0  0  0  0  0  0  0  0  0  0  0
   10.9180  -20.0880   24.3904 N   0  0  0  0  0  0  0  0  0  0  0  0
   11.5482  -19.7772   23.1316 C   0  0  0  0  0  0  0  0  0  0  0  0
   11.7596  -20.7356   22.3706 O   0  0  0  0  0  0  0  0  0  0  0  0
   11.8968  -18.4017   22.8197 C   0  0  0  0  0  0  0  0  0  0  0  0
   11.5360  -17.3779   23.8717 C   0  0  2  0  0  0  0  0  0  0  0  0
   11.0385  -16.2172   23.0839 N   0  0  0  0  0  0  0  0  0  0  0  0
   12.7695  -16.9770   24.5784 C   0  0  0  0  0  0  0  0  0  0  0  0
   13.1908  -17.6918   25.5132 O   0  0  0  0  0  0  0  0  0  0  0  0
   13.4574  -15.8484   24.2337 O   0  0  0  0  0  0  0  0  0  0  0  0
  2  1  1  0
  2  3  2  0
  4  2  1  0
  5  4  1  0
  6  7  1  1
  6  5  1  0
  8  6  1  0
  9  8  2  0
 11 10  1  6
 11 13  1  0
 11 12  1  0
 13 14  1  6
 14  8  1  0
 15 22  1  0
 15 13  1  0
 16 15  2  0
 18 17  1  0
 19 18  2  0
 20 18  1  0
 21 20  1  6
 21 22  1  0
 23 21  1  0
 23 25  1  0
 24 23  2  0
M  END
$$$$
