QTN.pdb
     RDKit          3D

 25 24  0  0  1  0  0  0  0  0999 V2000
   15.1180  -14.0248   18.8475 N   0  0  0  0  0  0  0  0  0  0  0  0
   15.4414  -14.7392   17.6546 C   0  0  0  0  0  0  0  0  0  0  0  0
   16.5576  -15.2999   17.5752 O   0  0  0  0  0  0  0  0  0  0  0  0
   14.4259  -14.7672   16.5887 C   0  0  0  0  0  0  0  0  0  0  0  0
   13.1584  -14.0304   16.9087 C   0  0  0  0  0  0  0  0  0  0  0  0
   12.0816  -14.9345   17.4075 C   0  0  2  0  0  0  0  0  0  0  0  0
   11.0372  -15.1184   16.3919 N   0  0  0  0  0  0  0  0  0  0  0  0
   11.4830  -14.4570   18.6861 C   0  0  0  0  0  0  0  0  0  0  0  0
   12.1709  -13.6977   19.4153 O   0  0  0  0  0  0  0  0  0  0  0  0
    8.1241  -12.7873   19.2634 C   0  0  0  0  0  0  0  0  0  0  0  0
    8.2178  -13.9153   20.2430 C   0  0  1  0  0  0  0  0  0  0  0  0
    7.5483  -15.0317   19.6630 O   0  0  0  0  0  0  0  0  0  0  0  0
    9.6689  -14.3732   20.4433 C   0  0  2  0  0  0  0  0  0  0  0  0
   10.1900  -14.7998   19.1380 N   0  0  0  0  0  0  0  0  0  0  0  0
    9.6624  -15.5199   21.3750 C   0  0  0  0  0  0  0  0  0  0  0  0
    9.5978  -16.7253   20.9229 O   0  0  0  0  0  0  0  0  0  0  0  0
   12.8726  -18.3392   23.9459 N   0  0  0  0  0  0  0  0  0  0  0  0
   12.9939  -16.9125   23.7782 C   0  0  0  0  0  0  0  0  0  0  0  0
   14.0130  -16.3871   24.2554 O   0  0  0  0  0  0  0  0  0  0  0  0
   11.9526  -16.1770   23.0814 C   0  0  0  0  0  0  0  0  0  0  0  0
   10.5435  -16.4027   23.5796 C   0  0  2  0  0  0  0  0  0  0  0  0
    9.7264  -15.4465   22.7836 N   0  0  0  0  0  0  0  0  0  0  0  0
   10.4803  -16.0098   25.0021 C   0  0  0  0  0  0  0  0  0  0  0  0
   10.1599  -14.8370   25.2923 O   0  0  0  0  0  0  0  0  0  0  0  0
   10.7617  -16.8961   26.0027 O   0  0  0  0  0  0  0  0  0  0  0  0
  2  1  1  0
  2  3  2  0
  4  2  1  0
  5  4  1  0
  6  7  1  6
  6  5  1  0
  8  6  1  0
  9  8  2  0
 11 10  1  6
 11 13  1  0
 11 12  1  0
 13 14  1  6
 14  8  1  0
 15 22  1  0
 15 13  1  0
 16 15  2  0
 18 17  1  0
 19 18  2  0
 20 18  1  0
 21 20  1  6
 21 22  1  0
 23 21  1  0
 23 25  1  0
 24 23  2  0
M  END
$$$$
