QTN.pdb
     RDKit          3D

 25 24  0  0  1  0  0  0  0  0999 V2000
   11.5208  -18.1534   15.5366 N   0  0  0  0  0  0  0  0  0  0  0  0
   10.4044  -17.6510   14.8020 C   0  0  0  0  0  0  0  0  0  0  0  0
    9.9809  -18.3125   13.8276 O   0  0  0  0  0  0  0  0  0  0  0  0
    9.8222  -16.3744   15.2488 C   0  0  0  0  0  0  0  0  0  0  0  0
    8.8893  -16.4846   16.4190 C   0  0  0  0  0  0  0  0  0  0  0  0
    8.3004  -15.1698   16.8069 C   0  0  2  0  0  0  0  0  0  0  0  0
    8.5171  -14.1664   15.7570 N   0  0  0  0  0  0  0  0  0  0  0  0
    8.8212  -14.6747   18.1126 C   0  0  0  0  0  0  0  0  0  0  0  0
    9.8299  -13.9240   18.1020 O   0  0  0  0  0  0  0  0  0  0  0  0
    7.0164  -12.5690   20.5783 C   0  0  0  0  0  0  0  0  0  0  0  0
    7.5297  -13.7587   21.3278 C   0  0  1  0  0  0  0  0  0  0  0  0
    6.5063  -14.7500   21.2936 O   0  0  0  0  0  0  0  0  0  0  0  0
    8.7344  -14.3966   20.6227 C   0  0  2  0  0  0  0  0  0  0  0  0
    8.2574  -14.9920   19.3676 N   0  0  0  0  0  0  0  0  0  0  0  0
    9.2718  -15.4551   21.5024 C   0  0  0  0  0  0  0  0  0  0  0  0
    9.0384  -16.6962   21.2445 O   0  0  0  0  0  0  0  0  0  0  0  0
   12.3841  -17.8083   21.7895 N   0  0  0  0  0  0  0  0  0  0  0  0
   12.9400  -16.8512   22.7133 C   0  0  0  0  0  0  0  0  0  0  0  0
   14.1756  -16.7273   22.7001 O   0  0  0  0  0  0  0  0  0  0  0  0
   12.0588  -16.0991   23.5900 C   0  0  0  0  0  0  0  0  0  0  0  0
   10.5836  -16.3989   23.4529 C   0  0  2  0  0  0  0  0  0  0  0  0
   10.0599  -15.2554   22.6569 N   0  0  0  0  0  0  0  0  0  0  0  0
    9.9705  -16.3612   24.7962 C   0  0  0  0  0  0  0  0  0  0  0  0
    9.3189  -15.3501   25.1358 O   0  0  0  0  0  0  0  0  0  0  0  0
   10.0982  -17.4027   25.6709 O   0  0  0  0  0  0  0  0  0  0  0  0
  2  1  1  0
  2  3  2  0
  4  2  1  0
  5  4  1  0
  6  7  1  6
  6  5  1  0
  8  6  1  0
  9  8  2  0
 11 10  1  6
 11 13  1  0
 11 12  1  0
 13 14  1  6
 14  8  1  0
 15 22  1  0
 15 13  1  0
 16 15  2  0
 18 17  1  0
 19 18  2  0
 20 18  1  0
 21 20  1  1
 21 22  1  0
 23 21  1  0
 23 25  1  0
 24 23  2  0
M  END
$$$$
