QTN.pdb
     RDKit          3D

 25 24  0  0  1  0  0  0  0  0999 V2000
    8.6332  -15.8475   12.5562 N   0  0  0  0  0  0  0  0  0  0  0  0
    7.2928  -16.0256   13.0143 C   0  0  0  0  0  0  0  0  0  0  0  0
    6.4230  -16.3964   12.1943 O   0  0  0  0  0  0  0  0  0  0  0  0
    7.0251  -15.7583   14.4374 C   0  0  0  0  0  0  0  0  0  0  0  0
    8.2076  -15.2625   15.2169 C   0  0  0  0  0  0  0  0  0  0  0  0
    8.5572  -16.1583   16.3576 C   0  0  2  0  0  0  0  0  0  0  0  0
    7.4141  -16.9990   16.7354 N   0  0  0  0  0  0  0  0  0  0  0  0
    9.0600  -15.4048   17.5410 C   0  0  0  0  0  0  0  0  0  0  0  0
   10.0351  -14.6277   17.3781 O   0  0  0  0  0  0  0  0  0  0  0  0
    7.5676  -12.8598   19.7064 C   0  0  0  0  0  0  0  0  0  0  0  0
    8.0137  -13.9469   20.6337 C   0  0  1  0  0  0  0  0  0  0  0  0
    6.9008  -14.8157   20.8283 O   0  0  0  0  0  0  0  0  0  0  0  0
    9.1037  -14.8216   19.9994 C   0  0  2  0  0  0  0  0  0  0  0  0
    8.5145  -15.5035   18.8395 N   0  0  0  0  0  0  0  0  0  0  0  0
    9.5286  -15.8213   21.0010 C   0  0  0  0  0  0  0  0  0  0  0  0
    9.0750  -17.0267   20.9502 O   0  0  0  0  0  0  0  0  0  0  0  0
   11.3606  -19.4866   22.1535 N   0  0  0  0  0  0  0  0  0  0  0  0
   12.1315  -18.6243   21.2929 C   0  0  0  0  0  0  0  0  0  0  0  0
   12.8133  -19.1853   20.4196 O   0  0  0  0  0  0  0  0  0  0  0  0
   12.0785  -17.1845   21.4797 C   0  0  0  0  0  0  0  0  0  0  0  0
   11.2428  -16.7035   22.6439 C   0  0  2  0  0  0  0  0  0  0  0  0
   10.4285  -15.5996   22.0662 N   0  0  0  0  0  0  0  0  0  0  0  0
   12.1456  -16.1402   23.6683 C   0  0  0  0  0  0  0  0  0  0  0  0
   12.0920  -16.5878   24.8341 O   0  0  0  0  0  0  0  0  0  0  0  0
   13.0346  -15.1467   23.3708 O   0  0  0  0  0  0  0  0  0  0  0  0
  2  1  1  0
  2  3  2  0
  4  2  1  0
  5  4  1  0
  6  7  1  1
  6  5  1  0
  8  6  1  0
  9  8  2  0
 11 10  1  6
 11 13  1  0
 11 12  1  0
 13 14  1  6
 14  8  1  0
 15 22  1  0
 15 13  1  0
 16 15  2  0
 18 17  1  0
 19 18  2  0
 20 18  1  0
 21 20  1  6
 21 22  1  0
 23 21  1  0
 23 25  1  0
 24 23  2  0
M  END
$$$$
