QTN.pdb
     RDKit          3D

 25 24  0  0  1  0  0  0  0  0999 V2000
   11.5262  -19.3324   14.4861 N   0  0  0  0  0  0  0  0  0  0  0  0
   11.7936  -18.0016   14.0438 C   0  0  0  0  0  0  0  0  0  0  0  0
   12.8831  -17.7662   13.4745 O   0  0  0  0  0  0  0  0  0  0  0  0
   10.7551  -16.9873   14.2908 C   0  0  0  0  0  0  0  0  0  0  0  0
   10.0823  -17.0894   15.6282 C   0  0  0  0  0  0  0  0  0  0  0  0
    9.1758  -15.9364   15.9020 C   0  0  2  0  0  0  0  0  0  0  0  0
    9.0623  -15.0658   14.7251 N   0  0  0  0  0  0  0  0  0  0  0  0
    9.6014  -15.1467   17.0920 C   0  0  0  0  0  0  0  0  0  0  0  0
   10.5340  -14.3153   16.9489 O   0  0  0  0  0  0  0  0  0  0  0  0
    7.7069  -12.7432   19.2998 C   0  0  0  0  0  0  0  0  0  0  0  0
    8.2720  -13.8200   20.1725 C   0  0  1  0  0  0  0  0  0  0  0  0
    7.2878  -14.8468   20.2629 O   0  0  0  0  0  0  0  0  0  0  0  0
    9.4951  -14.4877   19.5293 C   0  0  2  0  0  0  0  0  0  0  0  0
    9.0270  -15.2678   18.3761 N   0  0  0  0  0  0  0  0  0  0  0  0
   10.1011  -15.3919   20.5284 C   0  0  0  0  0  0  0  0  0  0  0  0
    9.8188  -16.6496   20.5236 O   0  0  0  0  0  0  0  0  0  0  0  0
   13.9066  -16.1437   21.0272 N   0  0  0  0  0  0  0  0  0  0  0  0
   13.9325  -15.3845   22.2524 C   0  0  0  0  0  0  0  0  0  0  0  0
   14.9941  -14.7946   22.5119 O   0  0  0  0  0  0  0  0  0  0  0  0
   12.7542  -15.3447   23.1014 C   0  0  0  0  0  0  0  0  0  0  0  0
   11.5161  -16.0041   22.5381 C   0  0  2  0  0  0  0  0  0  0  0  0
   11.0087  -15.0195   21.5439 N   0  0  0  0  0  0  0  0  0  0  0  0
   10.5217  -16.1383   23.6220 C   0  0  0  0  0  0  0  0  0  0  0  0
   10.4025  -17.2396   24.2009 O   0  0  0  0  0  0  0  0  0  0  0  0
    9.7341  -15.0898   24.0048 O   0  0  0  0  0  0  0  0  0  0  0  0
  2  1  1  0
  2  3  2  0
  4  2  1  0
  5  4  1  0
  6  7  1  6
  6  5  1  0
  8  6  1  0
  9  8  2  0
 11 10  1  6
 11 13  1  0
 11 12  1  0
 13 14  1  6
 14  8  1  0
 15 22  1  0
 15 13  1  0
 16 15  2  0
 18 17  1  0
 19 18  2  0
 20 18  1  0
 21 20  1  1
 21 22  1  0
 23 21  1  0
 23 25  1  0
 24 23  2  0
M  END
$$$$
