QTN.pdb
     RDKit          3D

 25 24  0  0  1  0  0  0  0  0999 V2000
    7.6233  -13.0800   16.2584 N   0  0  0  0  0  0  0  0  0  0  0  0
    8.4454  -14.2403   16.1320 C   0  0  0  0  0  0  0  0  0  0  0  0
    8.2911  -14.9788   15.1334 O   0  0  0  0  0  0  0  0  0  0  0  0
    9.4299  -14.4889   17.1984 C   0  0  0  0  0  0  0  0  0  0  0  0
    8.8528  -14.5640   18.5816 C   0  0  0  0  0  0  0  0  0  0  0  0
    9.8628  -14.9708   19.6015 C   0  0  2  0  0  0  0  0  0  0  0  0
   10.1903  -16.3967   19.4775 N   0  0  0  0  0  0  0  0  0  0  0  0
    9.4268  -14.6580   20.9919 C   0  0  0  0  0  0  0  0  0  0  0  0
    9.2214  -13.4542   21.2919 O   0  0  0  0  0  0  0  0  0  0  0  0
    6.3082  -15.4375   22.5442 C   0  0  0  0  0  0  0  0  0  0  0  0
    7.3361  -15.9986   23.4765 C   0  0  1  0  0  0  0  0  0  0  0  0
    7.5739  -17.3459   23.0774 O   0  0  0  0  0  0  0  0  0  0  0  0
    8.6876  -15.2874   23.3250 C   0  0  2  0  0  0  0  0  0  0  0  0
    9.2274  -15.6249   22.0013 N   0  0  0  0  0  0  0  0  0  0  0  0
    9.5930  -15.7965   24.3758 C   0  0  0  0  0  0  0  0  0  0  0  0
   10.6449  -16.4702   24.0580 O   0  0  0  0  0  0  0  0  0  0  0  0
   11.2539  -13.6234   27.2355 N   0  0  0  0  0  0  0  0  0  0  0  0
   10.3908  -14.2302   28.2180 C   0  0  0  0  0  0  0  0  0  0  0  0
   10.0381  -13.5057   29.1630 O   0  0  0  0  0  0  0  0  0  0  0  0
    9.9856  -15.6168   28.0640 C   0  0  0  0  0  0  0  0  0  0  0  0
   10.3486  -16.2650   26.7476 C   0  0  2  0  0  0  0  0  0  0  0  0
    9.4343  -15.6179   25.7674 N   0  0  0  0  0  0  0  0  0  0  0  0
   10.0185  -17.7026   26.8258 C   0  0  0  0  0  0  0  0  0  0  0  0
    8.9201  -18.0964   26.3777 O   0  0  0  0  0  0  0  0  0  0  0  0
   10.8835  -18.6070   27.3732 O   0  0  0  0  0  0  0  0  0  0  0  0
  2  1  1  0
  2  3  2  0
  4  2  1  0
  5  4  1  0
  6  7  1  1
  6  5  1  0
  8  6  1  0
  9  8  2  0
 11 10  1  6
 11 13  1  0
 11 12  1  0
 13 14  1  6
 14  8  1  0
 15 22  1  0
 15 13  1  0
 16 15  2  0
 18 17  1  0
 19 18  2  0
 20 18  1  0
 21 20  1  1
 21 22  1  0
 23 21  1  0
 23 25  1  0
 24 23  2  0
M  END
$$$$
