QTN.pdb
     RDKit          3D

 25 24  0  0  1  0  0  0  0  0999 V2000
   14.9277  -19.7140   20.2324 N   0  0  0  0  0  0  0  0  0  0  0  0
   14.0226  -19.7966   19.1315 C   0  0  0  0  0  0  0  0  0  0  0  0
   14.2835  -20.5893   18.1987 O   0  0  0  0  0  0  0  0  0  0  0  0
   12.8305  -18.9332   19.1720 C   0  0  0  0  0  0  0  0  0  0  0  0
   12.6888  -18.1157   20.4224 C   0  0  0  0  0  0  0  0  0  0  0  0
   11.2658  -17.9486   20.8385 C   0  0  2  0  0  0  0  0  0  0  0  0
   10.3754  -17.9297   19.6711 N   0  0  0  0  0  0  0  0  0  0  0  0
   11.0545  -16.7310   21.6714 C   0  0  0  0  0  0  0  0  0  0  0  0
   11.8629  -15.7765   21.5414 O   0  0  0  0  0  0  0  0  0  0  0  0
    7.9410  -14.5742   21.8754 C   0  0  0  0  0  0  0  0  0  0  0  0
    8.3222  -14.9564   23.2715 C   0  0  1  0  0  0  0  0  0  0  0  0
    7.6063  -16.1465   23.5913 O   0  0  0  0  0  0  0  0  0  0  0  0
    9.8056  -15.3380   23.3700 C   0  0  2  0  0  0  0  0  0  0  0  0
   10.0039  -16.5738   22.6014 N   0  0  0  0  0  0  0  0  0  0  0  0
   10.1221  -15.5809   24.7926 C   0  0  0  0  0  0  0  0  0  0  0  0
    9.4313  -16.4265   25.4777 O   0  0  0  0  0  0  0  0  0  0  0  0
   10.4043  -13.8981   29.6148 N   0  0  0  0  0  0  0  0  0  0  0  0
    9.5980  -13.4032   28.5270 C   0  0  0  0  0  0  0  0  0  0  0  0
    8.6627  -12.6464   28.8352 O   0  0  0  0  0  0  0  0  0  0  0  0
    9.9052  -13.7989   27.1633 C   0  0  0  0  0  0  0  0  0  0  0  0
   11.0535  -14.7690   27.0038 C   0  0  2  0  0  0  0  0  0  0  0  0
   11.1545  -14.9629   25.5315 N   0  0  0  0  0  0  0  0  0  0  0  0
   10.6722  -16.0534   27.6257 C   0  0  0  0  0  0  0  0  0  0  0  0
   11.4032  -16.5339   28.5185 O   0  0  0  0  0  0  0  0  0  0  0  0
    9.5431  -16.7238   27.2494 O   0  0  0  0  0  0  0  0  0  0  0  0
  2  1  1  0
  2  3  2  0
  4  2  1  0
  5  4  1  0
  6  7  1  6
  6  5  1  0
  8  6  1  0
  9  8  2  0
 11 10  1  6
 11 13  1  0
 11 12  1  0
 13 14  1  6
 14  8  1  0
 15 22  1  0
 15 13  1  0
 16 15  2  0
 18 17  1  0
 19 18  2  0
 20 18  1  0
 21 20  1  6
 21 22  1  0
 23 21  1  0
 23 25  1  0
 24 23  2  0
M  END
$$$$
