QTN.pdb
     RDKit          3D

 25 24  0  0  1  0  0  0  0  0999 V2000
    8.1544  -12.4772   17.4453 N   0  0  0  0  0  0  0  0  0  0  0  0
    7.8996  -13.8180   17.0262 C   0  0  0  0  0  0  0  0  0  0  0  0
    7.5136  -14.0163   15.8522 O   0  0  0  0  0  0  0  0  0  0  0  0
    8.1124  -14.8864   18.0169 C   0  0  0  0  0  0  0  0  0  0  0  0
    8.6075  -14.4152   19.3528 C   0  0  0  0  0  0  0  0  0  0  0  0
    8.7300  -15.5257   20.3416 C   0  0  2  0  0  0  0  0  0  0  0  0
    7.5293  -16.3708   20.3345 N   0  0  0  0  0  0  0  0  0  0  0  0
    9.0092  -15.0333   21.7202 C   0  0  0  0  0  0  0  0  0  0  0  0
   10.0089  -14.2902   21.8930 O   0  0  0  0  0  0  0  0  0  0  0  0
    7.0945  -13.1217   24.3600 C   0  0  0  0  0  0  0  0  0  0  0  0
    7.4994  -14.4236   24.9776 C   0  0  1  0  0  0  0  0  0  0  0  0
    6.4065  -15.3236   24.8145 O   0  0  0  0  0  0  0  0  0  0  0  0
    8.6705  -15.0688   24.2242 C   0  0  2  0  0  0  0  0  0  0  0  0
    8.2249  -15.3449   22.8521 N   0  0  0  0  0  0  0  0  0  0  0  0
    9.0076  -16.3375   24.9023 C   0  0  0  0  0  0  0  0  0  0  0  0
    8.7549  -17.4664   24.3337 O   0  0  0  0  0  0  0  0  0  0  0  0
   13.2183  -19.6148   26.0837 N   0  0  0  0  0  0  0  0  0  0  0  0
   11.7859  -19.4830   26.1791 C   0  0  0  0  0  0  0  0  0  0  0  0
   11.1656  -20.4864   26.5676 O   0  0  0  0  0  0  0  0  0  0  0  0
   11.1524  -18.2237   25.8276 C   0  0  0  0  0  0  0  0  0  0  0  0
   10.0091  -17.7928   26.7176 C   0  0  2  0  0  0  0  0  0  0  0  0
    9.6127  -16.4660   26.1716 N   0  0  0  0  0  0  0  0  0  0  0  0
   10.5265  -17.6055   28.0884 C   0  0  0  0  0  0  0  0  0  0  0  0
   10.0360  -18.2820   29.0179 O   0  0  0  0  0  0  0  0  0  0  0  0
   11.5255  -16.7146   28.3610 O   0  0  0  0  0  0  0  0  0  0  0  0
  2  1  1  0
  2  3  2  0
  4  2  1  0
  5  4  1  0
  6  7  1  1
  6  5  1  0
  8  6  1  0
  9  8  2  0
 11 10  1  6
 11 13  1  0
 11 12  1  0
 13 14  1  6
 14  8  1  0
 15 22  1  0
 15 13  1  0
 16 15  2  0
 18 17  1  0
 19 18  2  0
 20 18  1  0
 21 20  1  6
 21 22  1  0
 23 21  1  0
 23 25  1  0
 24 23  2  0
M  END
$$$$
