QTN.pdb
     RDKit          3D

 25 24  0  0  1  0  0  0  0  0999 V2000
   10.1210  -15.1100   12.5470 N   0  0  0  0  0  0  0  0  0  0  0  0
    8.7540  -15.5009   12.4181 C   0  0  0  0  0  0  0  0  0  0  0  0
    8.4027  -16.1240   11.3910 O   0  0  0  0  0  0  0  0  0  0  0  0
    7.8426  -15.1397   13.5167 C   0  0  0  0  0  0  0  0  0  0  0  0
    8.4980  -14.4451   14.6743 C   0  0  0  0  0  0  0  0  0  0  0  0
    8.8512  -15.3836   15.7791 C   0  0  2  0  0  0  0  0  0  0  0  0
    7.7628  -16.3376   16.0267 N   0  0  0  0  0  0  0  0  0  0  0  0
    9.2134  -14.6722   17.0376 C   0  0  0  0  0  0  0  0  0  0  0  0
   10.2086  -13.9038   17.0185 O   0  0  0  0  0  0  0  0  0  0  0  0
    7.0004  -12.7627   19.7114 C   0  0  0  0  0  0  0  0  0  0  0  0
    7.8015  -13.8423   20.3698 C   0  0  1  0  0  0  0  0  0  0  0  0
    6.9768  -15.0033   20.4238 O   0  0  0  0  0  0  0  0  0  0  0  0
    9.0141  -14.2467   19.5205 C   0  0  2  0  0  0  0  0  0  0  0  0
    8.5127  -14.8020   18.2565 N   0  0  0  0  0  0  0  0  0  0  0  0
    9.7631  -15.2854   20.2575 C   0  0  0  0  0  0  0  0  0  0  0  0
   10.3090  -16.2666   19.6244 O   0  0  0  0  0  0  0  0  0  0  0  0
   13.2184  -18.3549   22.0647 N   0  0  0  0  0  0  0  0  0  0  0  0
   13.2895  -16.9180   22.1572 C   0  0  0  0  0  0  0  0  0  0  0  0
   14.3130  -16.4505   22.6828 O   0  0  0  0  0  0  0  0  0  0  0  0
   12.1965  -16.1074   21.6484 C   0  0  0  0  0  0  0  0  0  0  0  0
   10.8467  -16.3518   22.2835 C   0  0  2  0  0  0  0  0  0  0  0  0
    9.9662  -15.3300   21.6541 N   0  0  0  0  0  0  0  0  0  0  0  0
   10.9491  -16.0635   23.7285 C   0  0  0  0  0  0  0  0  0  0  0  0
   11.5994  -16.8441   24.4566 O   0  0  0  0  0  0  0  0  0  0  0  0
   10.3527  -14.9672   24.2838 O   0  0  0  0  0  0  0  0  0  0  0  0
  2  1  1  0
  2  3  2  0
  4  2  1  0
  5  4  1  0
  6  7  1  1
  6  5  1  0
  8  6  1  0
  9  8  2  0
 11 10  1  6
 11 13  1  0
 11 12  1  0
 13 14  1  6
 14  8  1  0
 15 22  1  0
 15 13  1  0
 16 15  2  0
 18 17  1  0
 19 18  2  0
 20 18  1  0
 21 20  1  6
 21 22  1  0
 23 21  1  0
 23 25  1  0
 24 23  2  0
M  END
$$$$
