QTN.pdb
     RDKit          3D

 25 24  0  0  1  0  0  0  0  0999 V2000
    5.6007  -19.3172   18.8153 N   0  0  0  0  0  0  0  0  0  0  0  0
    6.3309  -19.3634   17.5894 C   0  0  0  0  0  0  0  0  0  0  0  0
    6.0041  -20.2108   16.7282 O   0  0  0  0  0  0  0  0  0  0  0  0
    7.4301  -18.3980   17.4221 C   0  0  0  0  0  0  0  0  0  0  0  0
    7.0545  -17.1366   16.7011 C   0  0  0  0  0  0  0  0  0  0  0  0
    8.2201  -16.2295   16.4902 C   0  0  2  0  0  0  0  0  0  0  0  0
    9.2189  -16.8524   15.6124 N   0  0  0  0  0  0  0  0  0  0  0  0
    8.8500  -15.8032   17.7717 C   0  0  0  0  0  0  0  0  0  0  0  0
   10.0826  -16.0023   17.9212 O   0  0  0  0  0  0  0  0  0  0  0  0
    7.3630  -12.6113   19.8759 C   0  0  0  0  0  0  0  0  0  0  0  0
    7.8446  -13.7273   20.7496 C   0  0  1  0  0  0  0  0  0  0  0  0
    6.7188  -14.5539   21.0335 O   0  0  0  0  0  0  0  0  0  0  0  0
    8.8381  -14.6360   20.0130 C   0  0  2  0  0  0  0  0  0  0  0  0
    8.1550  -15.1877   18.8356 N   0  0  0  0  0  0  0  0  0  0  0  0
    9.2189  -15.7330   20.9265 C   0  0  0  0  0  0  0  0  0  0  0  0
    8.5892  -16.8572   20.8914 O   0  0  0  0  0  0  0  0  0  0  0  0
   10.8763  -18.8853   20.9648 N   0  0  0  0  0  0  0  0  0  0  0  0
   12.0398  -18.3466   21.6240 C   0  0  0  0  0  0  0  0  0  0  0  0
   13.1283  -18.8691   21.3332 O   0  0  0  0  0  0  0  0  0  0  0  0
   11.8920  -17.2525   22.5684 C   0  0  0  0  0  0  0  0  0  0  0  0
   10.4731  -16.8108   22.8451 C   0  0  2  0  0  0  0  0  0  0  0  0
   10.2540  -15.6939   21.8860 N   0  0  0  0  0  0  0  0  0  0  0  0
   10.4085  -16.2744   24.2198 C   0  0  0  0  0  0  0  0  0  0  0  0
   10.4314  -15.0360   24.3878 O   0  0  0  0  0  0  0  0  0  0  0  0
   10.3234  -17.0979   25.3064 O   0  0  0  0  0  0  0  0  0  0  0  0
  2  1  1  0
  2  3  2  0
  4  2  1  0
  5  4  1  0
  6  7  1  6
  6  5  1  0
  8  6  1  0
  9  8  2  0
 11 10  1  6
 11 13  1  0
 11 12  1  0
 13 14  1  6
 14  8  1  0
 15 22  1  0
 15 13  1  0
 16 15  2  0
 18 17  1  0
 19 18  2  0
 20 18  1  0
 21 20  1  6
 21 22  1  0
 23 21  1  0
 23 25  1  0
 24 23  2  0
M  END
$$$$
