QTN.pdb
     RDKit          3D

 25 24  0  0  1  0  0  0  0  0999 V2000
    8.4125  -21.4903   16.6536 N   0  0  0  0  0  0  0  0  0  0  0  0
    9.3603  -20.4360   16.4852 C   0  0  0  0  0  0  0  0  0  0  0  0
   10.5800  -20.7146   16.5206 O   0  0  0  0  0  0  0  0  0  0  0  0
    8.8293  -19.0783   16.2781 C   0  0  0  0  0  0  0  0  0  0  0  0
    9.5124  -18.0076   17.0776 C   0  0  0  0  0  0  0  0  0  0  0  0
    8.8705  -16.6713   16.9100 C   0  0  2  0  0  0  0  0  0  0  0  0
    9.1926  -16.0940   15.5989 N   0  0  0  0  0  0  0  0  0  0  0  0
    9.2375  -15.7220   17.9987 C   0  0  0  0  0  0  0  0  0  0  0  0
   10.3322  -15.1099   17.9072 O   0  0  0  0  0  0  0  0  0  0  0  0
    7.5222  -12.6717   19.6856 C   0  0  0  0  0  0  0  0  0  0  0  0
    7.7813  -13.7343   20.7075 C   0  0  1  0  0  0  0  0  0  0  0  0
    6.6172  -14.5545   20.7648 O   0  0  0  0  0  0  0  0  0  0  0  0
    8.9162  -14.6725   20.2749 C   0  0  2  0  0  0  0  0  0  0  0  0
    8.4368  -15.4608   19.1320 N   0  0  0  0  0  0  0  0  0  0  0  0
    9.2224  -15.5723   21.4061 C   0  0  0  0  0  0  0  0  0  0  0  0
    8.7496  -16.7713   21.4303 O   0  0  0  0  0  0  0  0  0  0  0  0
   12.3538  -17.7077   22.3723 N   0  0  0  0  0  0  0  0  0  0  0  0
   12.7263  -16.7061   23.3400 C   0  0  0  0  0  0  0  0  0  0  0  0
   13.9439  -16.5412   23.5204 O   0  0  0  0  0  0  0  0  0  0  0  0
   11.6944  -15.9590   24.0384 C   0  0  0  0  0  0  0  0  0  0  0  0
   10.2731  -16.2448   23.6106 C   0  0  2  0  0  0  0  0  0  0  0  0
   10.0215  -15.2564   22.5265 N   0  0  0  0  0  0  0  0  0  0  0  0
    9.3732  -15.9452   24.7430 C   0  0  0  0  0  0  0  0  0  0  0  0
    8.8084  -14.8311   24.7887 O   0  0  0  0  0  0  0  0  0  0  0  0
    9.1446  -16.8552   25.7358 O   0  0  0  0  0  0  0  0  0  0  0  0
  2  1  1  0
  2  3  2  0
  4  2  1  0
  5  4  1  0
  6  7  1  6
  6  5  1  0
  8  6  1  0
  9  8  2  0
 11 10  1  6
 11 13  1  0
 11 12  1  0
 13 14  1  6
 14  8  1  0
 15 22  1  0
 15 13  1  0
 16 15  2  0
 18 17  1  0
 19 18  2  0
 20 18  1  0
 21 20  1  1
 21 22  1  0
 23 21  1  0
 23 25  1  0
 24 23  2  0
M  END
$$$$
