IMN.pdb
     RDKit          3D

 25 24  0  0  1  0  0  0  0  0999 V2000
    1.9324  -18.8120   21.3741 C   0  0  0  0  0  0  0  0  0  0  0  0
    3.3193  -18.9983   21.9041 C   0  0  0  0  0  0  0  0  0  0  0  0
    4.1416  -17.7280   21.9123 C   0  0  2  0  0  0  0  0  0  0  0  0
    4.2156  -17.1404   20.5475 C   0  0  0  0  0  0  0  0  0  0  0  0
    5.4943  -18.0805   22.4946 C   0  0  2  0  0  0  0  0  0  0  0  0
    5.2214  -18.7422   23.7859 N   0  0  0  0  0  0  0  0  0  0  0  0
    6.3408  -16.9040   22.7806 C   0  0  0  0  0  0  0  0  0  0  0  0
    7.0777  -16.4178   21.8517 O   0  0  0  0  0  0  0  0  0  0  0  0
    7.5089  -10.9451   27.9028 C   0  0  0  0  0  0  0  0  0  0  0  0
    6.6389  -12.4076   27.3181 S   0  0  0  0  0  0  0  0  0  0  0  0
    7.5450  -13.2056   25.9360 C   0  0  0  0  0  0  0  0  0  0  0  0
    6.7076  -14.3683   25.4991 C   0  0  0  0  0  0  0  0  0  0  0  0
    7.2846  -15.1041   24.3048 C   0  0  2  0  0  0  0  0  0  0  0  0
    6.4277  -16.2311   24.0148 N   0  0  0  0  0  0  0  0  0  0  0  0
    8.6833  -15.5039   24.5295 C   0  0  0  0  0  0  0  0  0  0  0  0
    9.5294  -14.6265   24.9010 O   0  0  0  0  0  0  0  0  0  0  0  0
   12.7460  -19.9564   25.3375 N   0  0  0  0  0  0  0  0  0  0  0  0
   12.2245  -18.6298   25.5862 C   0  0  0  0  0  0  0  0  0  0  0  0
   13.0695  -17.7882   25.9612 O   0  0  0  0  0  0  0  0  0  0  0  0
   10.7943  -18.3355   25.3982 C   0  0  0  0  0  0  0  0  0  0  0  0
   10.5889  -17.1496   24.5415 C   0  0  2  0  0  0  0  0  0  0  0  0
    9.1734  -16.8223   24.3602 N   0  0  0  0  0  0  0  0  0  0  0  0
   11.2203  -17.2908   23.2356 C   0  0  0  0  0  0  0  0  0  0  0  0
   10.7955  -18.2059   22.4510 O   0  0  0  0  0  0  0  0  0  0  0  0
   12.2423  -16.5290   22.7531 O   0  0  0  0  0  0  0  0  0  0  0  0
  2  1  1  0
  3  2  1  0
  3  5  1  0
  3  4  1  6
  5  7  1  0
  5  6  1  1
  7  8  2  0
 10 11  1  0
 10  9  1  0
 11 12  1  0
 13 12  1  1
 14 13  1  0
 14  7  1  0
 15 16  2  0
 15 13  1  0
 17 18  1  0
 18 20  1  0
 19 18  2  0
 21 20  1  6
 21 23  1  0
 21 22  1  0
 22 15  1  0
 23 25  1  0
 24 23  2  0
M  END
$$$$
