IMN.pdb
     RDKit          3D

 25 24  0  0  1  0  0  0  0  0999 V2000
    8.3776  -17.1339   18.8349 C   0  0  0  0  0  0  0  0  0  0  0  0
    8.4853  -15.7156   19.2998 C   0  0  0  0  0  0  0  0  0  0  0  0
    7.1471  -15.0606   19.5647 C   0  0  2  0  0  0  0  0  0  0  0  0
    6.3408  -14.9876   18.3165 C   0  0  0  0  0  0  0  0  0  0  0  0
    7.4316  -13.7075   20.1824 C   0  0  2  0  0  0  0  0  0  0  0  0
    8.3447  -13.0182   19.2493 N   0  0  0  0  0  0  0  0  0  0  0  0
    8.1216  -13.7851   21.4864 C   0  0  0  0  0  0  0  0  0  0  0  0
    9.3987  -13.6871   21.5297 O   0  0  0  0  0  0  0  0  0  0  0  0
    6.2976  -11.0359   27.0690 C   0  0  0  0  0  0  0  0  0  0  0  0
    6.5585  -12.7481   27.5570 S   0  0  0  0  0  0  0  0  0  0  0  0
    7.7804  -13.5678   26.4601 C   0  0  0  0  0  0  0  0  0  0  0  0
    7.2354  -13.4614   25.0688 C   0  0  0  0  0  0  0  0  0  0  0  0
    8.1751  -14.0167   24.0156 C   0  0  2  0  0  0  0  0  0  0  0  0
    7.5012  -13.9613   22.7384 N   0  0  0  0  0  0  0  0  0  0  0  0
    8.6350  -15.3742   24.3508 C   0  0  0  0  0  0  0  0  0  0  0  0
    7.8164  -16.3470   24.2673 O   0  0  0  0  0  0  0  0  0  0  0  0
   10.7037  -17.4804   22.4169 N   0  0  0  0  0  0  0  0  0  0  0  0
   11.8632  -17.5554   23.2792 C   0  0  0  0  0  0  0  0  0  0  0  0
   12.9451  -17.7847   22.6963 O   0  0  0  0  0  0  0  0  0  0  0  0
   11.7333  -17.3684   24.7337 C   0  0  0  0  0  0  0  0  0  0  0  0
   10.3426  -17.0561   25.1221 C   0  0  2  0  0  0  0  0  0  0  0  0
    9.9510  -15.6901   24.7696 N   0  0  0  0  0  0  0  0  0  0  0  0
   10.0995  -17.2742   26.5424 C   0  0  0  0  0  0  0  0  0  0  0  0
   10.1174  -16.2632   27.3242 O   0  0  0  0  0  0  0  0  0  0  0  0
    9.8489  -18.4745   27.1375 O   0  0  0  0  0  0  0  0  0  0  0  0
  2  1  1  0
  3  2  1  0
  3  5  1  0
  3  4  1  6
  5  7  1  0
  5  6  1  6
  7  8  2  0
 10 11  1  0
 10  9  1  0
 11 12  1  0
 13 12  1  1
 14 13  1  0
 14  7  1  0
 15 16  2  0
 15 13  1  0
 17 18  1  0
 18 20  1  0
 19 18  2  0
 21 20  1  1
 21 23  1  0
 21 22  1  0
 22 15  1  0
 23 25  1  0
 24 23  2  0
M  END
$$$$
