IMN.pdb
     RDKit          3D

 25 24  0  0  1  0  0  0  0  0999 V2000
    9.0992  -19.8749   21.2183 C   0  0  0  0  0  0  0  0  0  0  0  0
    8.8388  -18.4325   20.9170 C   0  0  0  0  0  0  0  0  0  0  0  0
    7.3703  -18.0673   20.9205 C   0  0  2  0  0  0  0  0  0  0  0  0
    6.6188  -18.9003   19.9434 C   0  0  0  0  0  0  0  0  0  0  0  0
    7.2836  -16.5811   20.6429 C   0  0  2  0  0  0  0  0  0  0  0  0
    7.9912  -16.3638   19.3655 N   0  0  0  0  0  0  0  0  0  0  0  0
    7.9584  -15.7484   21.6596 C   0  0  0  0  0  0  0  0  0  0  0  0
    9.1281  -15.2839   21.4175 O   0  0  0  0  0  0  0  0  0  0  0  0
    6.5133  -11.3282   28.0948 C   0  0  0  0  0  0  0  0  0  0  0  0
    6.0256  -12.4877   26.8081 S   0  0  0  0  0  0  0  0  0  0  0  0
    7.4891  -13.1125   25.8939 C   0  0  0  0  0  0  0  0  0  0  0  0
    6.9580  -13.9383   24.7625 C   0  0  0  0  0  0  0  0  0  0  0  0
    8.0484  -14.4993   23.8698 C   0  0  2  0  0  0  0  0  0  0  0  0
    7.4325  -15.3948   22.9173 N   0  0  0  0  0  0  0  0  0  0  0  0
    9.1137  -15.1519   24.6482 C   0  0  0  0  0  0  0  0  0  0  0  0
    9.7692  -14.4687   25.5010 O   0  0  0  0  0  0  0  0  0  0  0  0
   11.2990  -16.9729   22.4953 N   0  0  0  0  0  0  0  0  0  0  0  0
   12.2796  -16.9246   23.5582 C   0  0  0  0  0  0  0  0  0  0  0  0
   13.4451  -17.2248   23.2202 O   0  0  0  0  0  0  0  0  0  0  0  0
   11.8895  -16.5437   24.9258 C   0  0  0  0  0  0  0  0  0  0  0  0
   10.5716  -17.1009   25.2930 C   0  0  2  0  0  0  0  0  0  0  0  0
    9.4754  -16.5155   24.5189 N   0  0  0  0  0  0  0  0  0  0  0  0
   10.2846  -16.9597   26.7149 C   0  0  0  0  0  0  0  0  0  0  0  0
    9.4117  -17.7328   27.2383 O   0  0  0  0  0  0  0  0  0  0  0  0
   10.8652  -16.0662   27.5647 O   0  0  0  0  0  0  0  0  0  0  0  0
  2  1  1  0
  3  2  1  0
  3  5  1  0
  3  4  1  6
  5  7  1  0
  5  6  1  6
  7  8  2  0
 10 11  1  0
 10  9  1  0
 11 12  1  0
 13 12  1  1
 14 13  1  0
 14  7  1  0
 15 16  2  0
 15 13  1  0
 17 18  1  0
 18 20  1  0
 19 18  2  0
 21 20  1  1
 21 23  1  0
 21 22  1  0
 22 15  1  0
 23 25  1  0
 24 23  2  0
M  END
$$$$
