IMN.pdb
     RDKit          3D

 25 24  0  0  1  0  0  0  0  0999 V2000
    7.6639  -16.5122   17.0173 C   0  0  0  0  0  0  0  0  0  0  0  0
    7.3247  -15.3325   17.8731 C   0  0  0  0  0  0  0  0  0  0  0  0
    7.8845  -15.4197   19.2763 C   0  0  2  0  0  0  0  0  0  0  0  0
    7.5135  -16.7131   19.9112 C   0  0  0  0  0  0  0  0  0  0  0  0
    7.3791  -14.2075   20.0303 C   0  0  2  0  0  0  0  0  0  0  0  0
    7.8574  -13.0313   19.2769 N   0  0  0  0  0  0  0  0  0  0  0  0
    7.9200  -14.0943   21.4004 C   0  0  0  0  0  0  0  0  0  0  0  0
    9.1883  -14.0323   21.5733 O   0  0  0  0  0  0  0  0  0  0  0  0
    8.1914  -12.1086   28.4409 C   0  0  0  0  0  0  0  0  0  0  0  0
    7.5459  -12.1619   26.7621 S   0  0  0  0  0  0  0  0  0  0  0  0
    6.9708  -13.8502   26.3299 C   0  0  0  0  0  0  0  0  0  0  0  0
    6.5531  -13.7977   24.8922 C   0  0  0  0  0  0  0  0  0  0  0  0
    7.6869  -14.0967   23.9300 C   0  0  2  0  0  0  0  0  0  0  0  0
    7.1604  -14.0440   22.5853 N   0  0  0  0  0  0  0  0  0  0  0  0
    8.3369  -15.3829   24.2299 C   0  0  0  0  0  0  0  0  0  0  0  0
    7.6914  -16.4653   24.0415 O   0  0  0  0  0  0  0  0  0  0  0  0
   11.9800  -16.8289   21.8510 N   0  0  0  0  0  0  0  0  0  0  0  0
   11.5293  -17.5584   23.0166 C   0  0  0  0  0  0  0  0  0  0  0  0
   11.0886  -18.7057   22.7880 O   0  0  0  0  0  0  0  0  0  0  0  0
   11.6027  -16.9549   24.3574 C   0  0  0  0  0  0  0  0  0  0  0  0
   10.2652  -16.8224   24.9706 C   0  0  2  0  0  0  0  0  0  0  0  0
    9.6581  -15.5132   24.7241 N   0  0  0  0  0  0  0  0  0  0  0  0
   10.2827  -17.0815   26.4047 C   0  0  0  0  0  0  0  0  0  0  0  0
    9.7679  -16.2107   27.1858 O   0  0  0  0  0  0  0  0  0  0  0  0
   10.8044  -18.1837   27.0136 O   0  0  0  0  0  0  0  0  0  0  0  0
  2  1  1  0
  3  2  1  0
  3  5  1  0
  3  4  1  1
  5  7  1  0
  5  6  1  6
  7  8  2  0
 10 11  1  0
 10  9  1  0
 11 12  1  0
 13 12  1  1
 14 13  1  0
 14  7  1  0
 15 16  2  0
 15 13  1  0
 17 18  1  0
 18 20  1  0
 19 18  2  0
 21 20  1  1
 21 23  1  0
 21 22  1  0
 22 15  1  0
 23 25  1  0
 24 23  2  0
M  END
$$$$
