IMN.pdb
     RDKit          3D

 25 24  0  0  1  0  0  0  0  0999 V2000
    7.5741  -12.4061   19.1937 C   0  0  0  0  0  0  0  0  0  0  0  0
    7.2378  -13.4491   20.2126 C   0  0  0  0  0  0  0  0  0  0  0  0
    8.1074  -14.6845   20.1263 C   0  0  2  0  0  0  0  0  0  0  0  0
    8.0447  -15.2777   18.7633 C   0  0  0  0  0  0  0  0  0  0  0  0
    7.6472  -15.6265   21.2191 C   0  0  2  0  0  0  0  0  0  0  0  0
    6.3403  -16.1532   20.7784 N   0  0  0  0  0  0  0  0  0  0  0  0
    7.4305  -14.9626   22.5209 C   0  0  0  0  0  0  0  0  0  0  0  0
    6.6862  -13.9210   22.5802 O   0  0  0  0  0  0  0  0  0  0  0  0
    7.1109  -12.3358   28.1456 C   0  0  0  0  0  0  0  0  0  0  0  0
    6.5109  -11.8917   26.5083 S   0  0  0  0  0  0  0  0  0  0  0  0
    6.5880  -13.3261   25.3660 C   0  0  0  0  0  0  0  0  0  0  0  0
    7.7511  -14.1580   25.8124 C   0  0  0  0  0  0  0  0  0  0  0  0
    8.6931  -14.5229   24.6810 C   0  0  2  0  0  0  0  0  0  0  0  0
    7.9756  -15.3685   23.7544 N   0  0  0  0  0  0  0  0  0  0  0  0
    9.9283  -15.1519   25.1762 C   0  0  0  0  0  0  0  0  0  0  0  0
   10.5205  -14.6501   26.1867 O   0  0  0  0  0  0  0  0  0  0  0  0
   11.2796  -19.1704   27.9813 N   0  0  0  0  0  0  0  0  0  0  0  0
   10.2175  -19.1680   26.9986 C   0  0  0  0  0  0  0  0  0  0  0  0
    9.6686  -20.2746   26.8064 O   0  0  0  0  0  0  0  0  0  0  0  0
    9.8421  -17.9283   26.2987 C   0  0  0  0  0  0  0  0  0  0  0  0
   10.9242  -17.4523   25.4127 C   0  0  2  0  0  0  0  0  0  0  0  0
   10.5244  -16.3012   24.6011 N   0  0  0  0  0  0  0  0  0  0  0  0
   11.4307  -18.5033   24.5392 C   0  0  0  0  0  0  0  0  0  0  0  0
   10.7919  -18.7584   23.4620 O   0  0  0  0  0  0  0  0  0  0  0  0
   12.5425  -19.2607   24.7581 O   0  0  0  0  0  0  0  0  0  0  0  0
  2  1  1  0
  3  2  1  0
  3  5  1  0
  3  4  1  6
  5  7  1  0
  5  6  1  6
  7  8  2  0
 10 11  1  0
 10  9  1  0
 11 12  1  0
 13 12  1  1
 14 13  1  0
 14  7  1  0
 15 16  2  0
 15 13  1  0
 17 18  1  0
 18 20  1  0
 19 18  2  0
 21 20  1  6
 21 23  1  0
 21 22  1  0
 22 15  1  0
 23 25  1  0
 24 23  2  0
M  END
$$$$
