IMN.pdb
     RDKit          3D

 25 24  0  0  1  0  0  0  0  0999 V2000
    7.5837  -11.9499   19.4640 C   0  0  0  0  0  0  0  0  0  0  0  0
    7.5884  -13.2679   20.1724 C   0  0  0  0  0  0  0  0  0  0  0  0
    8.5144  -14.2891   19.5482 C   0  0  2  0  0  0  0  0  0  0  0  0
    8.1010  -14.5894   18.1509 C   0  0  0  0  0  0  0  0  0  0  0  0
    8.5111  -15.5019   20.4551 C   0  0  2  0  0  0  0  0  0  0  0  0
    7.1548  -16.0774   20.3598 N   0  0  0  0  0  0  0  0  0  0  0  0
    8.7460  -15.1785   21.8773 C   0  0  0  0  0  0  0  0  0  0  0  0
    9.9055  -14.7785   22.2489 O   0  0  0  0  0  0  0  0  0  0  0  0
    7.6256  -11.9819   28.1442 C   0  0  0  0  0  0  0  0  0  0  0  0
    7.5345  -12.6094   26.4603 S   0  0  0  0  0  0  0  0  0  0  0  0
    6.8909  -14.3278   26.4306 C   0  0  0  0  0  0  0  0  0  0  0  0
    6.7359  -14.6947   24.9865 C   0  0  0  0  0  0  0  0  0  0  0  0
    8.0494  -15.0515   24.3170 C   0  0  2  0  0  0  0  0  0  0  0  0
    7.7932  -15.2651   22.9109 N   0  0  0  0  0  0  0  0  0  0  0  0
    8.6932  -16.2117   24.9543 C   0  0  0  0  0  0  0  0  0  0  0  0
    8.0139  -17.2724   25.1469 O   0  0  0  0  0  0  0  0  0  0  0  0
   13.0609  -16.6395   23.4484 N   0  0  0  0  0  0  0  0  0  0  0  0
   12.2832  -17.6481   24.1353 C   0  0  0  0  0  0  0  0  0  0  0  0
   11.8161  -18.5482   23.4044 O   0  0  0  0  0  0  0  0  0  0  0  0
   12.0817  -17.5808   25.5922 C   0  0  0  0  0  0  0  0  0  0  0  0
   10.6520  -17.4489   25.9401 C   0  0  2  0  0  0  0  0  0  0  0  0
   10.0438  -16.2403   25.3807 N   0  0  0  0  0  0  0  0  0  0  0  0
   10.4249  -17.4789   27.3794 C   0  0  0  0  0  0  0  0  0  0  0  0
   10.8865  -18.4663   28.0470 O   0  0  0  0  0  0  0  0  0  0  0  0
    9.7544  -16.5397   28.1047 O   0  0  0  0  0  0  0  0  0  0  0  0
  2  1  1  0
  3  2  1  0
  3  5  1  0
  3  4  1  6
  5  7  1  0
  5  6  1  1
  7  8  2  0
 10 11  1  0
 10  9  1  0
 11 12  1  0
 13 12  1  1
 14 13  1  0
 14  7  1  0
 15 16  2  0
 15 13  1  0
 17 18  1  0
 18 20  1  0
 19 18  2  0
 21 20  1  1
 21 23  1  0
 21 22  1  0
 22 15  1  0
 23 25  1  0
 24 23  2  0
M  END
$$$$
