IMN.pdb
     RDKit          3D

 25 24  0  0  1  0  0  0  0  0999 V2000
    9.0942  -13.6619   28.4274 C   0  0  0  0  0  0  0  0  0  0  0  0
    8.0374  -14.2267   27.5311 C   0  0  0  0  0  0  0  0  0  0  0  0
    8.5815  -14.8168   26.2483 C   0  0  2  0  0  0  0  0  0  0  0  0
    9.4875  -13.8523   25.5683 C   0  0  0  0  0  0  0  0  0  0  0  0
    7.3892  -15.2239   25.4081 C   0  0  2  0  0  0  0  0  0  0  0  0
    6.7219  -16.3125   26.1493 N   0  0  0  0  0  0  0  0  0  0  0  0
    7.7553  -15.7630   24.0822 C   0  0  0  0  0  0  0  0  0  0  0  0
    7.9151  -17.0264   23.9386 O   0  0  0  0  0  0  0  0  0  0  0  0
    8.2979  -11.8637   19.0980 C   0  0  0  0  0  0  0  0  0  0  0  0
    6.6717  -12.6117   19.2810 S   0  0  0  0  0  0  0  0  0  0  0  0
    6.7031  -13.9631   20.5223 C   0  0  0  0  0  0  0  0  0  0  0  0
    8.1205  -14.4439   20.5857 C   0  0  0  0  0  0  0  0  0  0  0  0
    8.3358  -15.5323   21.6199 C   0  0  2  0  0  0  0  0  0  0  0  0
    7.9546  -15.0067   22.9110 N   0  0  0  0  0  0  0  0  0  0  0  0
    9.7177  -16.0390   21.6043 C   0  0  0  0  0  0  0  0  0  0  0  0
   10.0206  -16.9970   20.8206 O   0  0  0  0  0  0  0  0  0  0  0  0
   12.5159  -15.5973   19.6585 N   0  0  0  0  0  0  0  0  0  0  0  0
   13.3011  -14.8360   20.6060 C   0  0  0  0  0  0  0  0  0  0  0  0
   14.1042  -14.0231   20.0991 O   0  0  0  0  0  0  0  0  0  0  0  0
   13.1340  -15.0359   22.0550 C   0  0  0  0  0  0  0  0  0  0  0  0
   12.1223  -16.0711   22.3503 C   0  0  2  0  0  0  0  0  0  0  0  0
   10.7631  -15.5306   22.4140 N   0  0  0  0  0  0  0  0  0  0  0  0
   12.4099  -16.7943   23.5826 C   0  0  0  0  0  0  0  0  0  0  0  0
   13.5496  -17.3598   23.7034 O   0  0  0  0  0  0  0  0  0  0  0  0
   11.5679  -16.9332   24.6453 O   0  0  0  0  0  0  0  0  0  0  0  0
  2  1  1  0
  3  2  1  0
  3  5  1  0
  3  4  1  6
  5  7  1  0
  5  6  1  1
  7  8  2  0
 10 11  1  0
 10  9  1  0
 11 12  1  0
 13 12  1  6
 14 13  1  0
 14  7  1  0
 15 16  2  0
 15 13  1  0
 17 18  1  0
 18 20  1  0
 19 18  2  0
 21 20  1  1
 21 23  1  0
 21 22  1  0
 22 15  1  0
 23 25  1  0
 24 23  2  0
M  END
$$$$
