IMN.pdb
     RDKit          3D

 25 24  0  0  1  0  0  0  0  0999 V2000
    8.0150  -11.6580   20.1577 C   0  0  0  0  0  0  0  0  0  0  0  0
    7.7711  -13.0157   20.7378 C   0  0  0  0  0  0  0  0  0  0  0  0
    8.5066  -14.1246   20.0172 C   0  0  2  0  0  0  0  0  0  0  0  0
    7.9793  -14.2949   18.6365 C   0  0  0  0  0  0  0  0  0  0  0  0
    8.3795  -15.3680   20.8722 C   0  0  2  0  0  0  0  0  0  0  0  0
    6.9510  -15.7398   20.8396 N   0  0  0  0  0  0  0  0  0  0  0  0
    8.7392  -15.1521   22.2887 C   0  0  0  0  0  0  0  0  0  0  0  0
    9.9360  -14.8057   22.5886 O   0  0  0  0  0  0  0  0  0  0  0  0
    7.3756  -12.3459   27.7135 C   0  0  0  0  0  0  0  0  0  0  0  0
    7.4466  -11.8729   25.9789 S   0  0  0  0  0  0  0  0  0  0  0  0
    6.6924  -13.1619   24.9122 C   0  0  0  0  0  0  0  0  0  0  0  0
    7.0836  -14.4809   25.5050 C   0  0  0  0  0  0  0  0  0  0  0  0
    8.2401  -15.1418   24.7795 C   0  0  2  0  0  0  0  0  0  0  0  0
    7.8723  -15.2908   23.3900 N   0  0  0  0  0  0  0  0  0  0  0  0
    8.6195  -16.4208   25.4015 C   0  0  0  0  0  0  0  0  0  0  0  0
    7.7918  -17.3895   25.3874 O   0  0  0  0  0  0  0  0  0  0  0  0
   11.9598  -20.5699   24.3401 N   0  0  0  0  0  0  0  0  0  0  0  0
   12.2505  -19.4228   25.1728 C   0  0  0  0  0  0  0  0  0  0  0  0
   13.1573  -19.5942   26.0160 O   0  0  0  0  0  0  0  0  0  0  0  0
   11.5074  -18.1629   25.0050 C   0  0  0  0  0  0  0  0  0  0  0  0
   10.4754  -17.9946   26.0486 C   0  0  2  0  0  0  0  0  0  0  0  0
    9.8655  -16.6637   26.0303 N   0  0  0  0  0  0  0  0  0  0  0  0
   10.9859  -18.2708   27.3854 C   0  0  0  0  0  0  0  0  0  0  0  0
   11.2489  -17.2822   28.1516 O   0  0  0  0  0  0  0  0  0  0  0  0
   11.2175  -19.5049   27.9156 O   0  0  0  0  0  0  0  0  0  0  0  0
  2  1  1  0
  3  2  1  0
  3  5  1  0
  3  4  1  6
  5  7  1  0
  5  6  1  1
  7  8  2  0
 10 11  1  0
 10  9  1  0
 11 12  1  0
 13 12  1  1
 14 13  1  0
 14  7  1  0
 15 16  2  0
 15 13  1  0
 17 18  1  0
 18 20  1  0
 19 18  2  0
 21 20  1  6
 21 23  1  0
 21 22  1  0
 22 15  1  0
 23 25  1  0
 24 23  2  0
M  END
$$$$
