IMN.pdb
     RDKit          3D

 25 24  0  0  1  0  0  0  0  0999 V2000
    7.2005  -17.2901   17.1148 C   0  0  0  0  0  0  0  0  0  0  0  0
    7.1219  -15.9471   17.7700 C   0  0  0  0  0  0  0  0  0  0  0  0
    7.6522  -15.9312   19.1872 C   0  0  2  0  0  0  0  0  0  0  0  0
    7.0208  -17.0077   19.9972 C   0  0  0  0  0  0  0  0  0  0  0  0
    7.4105  -14.5400   19.7343 C   0  0  2  0  0  0  0  0  0  0  0  0
    8.0688  -13.6126   18.7929 N   0  0  0  0  0  0  0  0  0  0  0  0
    8.0163  -14.3124   21.0623 C   0  0  0  0  0  0  0  0  0  0  0  0
    9.2920  -14.3300   21.1837 O   0  0  0  0  0  0  0  0  0  0  0  0
    6.7156  -11.4691   28.3466 C   0  0  0  0  0  0  0  0  0  0  0  0
    6.1863  -11.8895   26.6791 S   0  0  0  0  0  0  0  0  0  0  0  0
    7.4267  -12.9514   25.8412 C   0  0  0  0  0  0  0  0  0  0  0  0
    6.9272  -13.1609   24.4446 C   0  0  0  0  0  0  0  0  0  0  0  0
    7.9019  -13.9269   23.5707 C   0  0  2  0  0  0  0  0  0  0  0  0
    7.3138  -14.0670   22.2581 N   0  0  0  0  0  0  0  0  0  0  0  0
    8.2696  -15.2230   24.1638 C   0  0  0  0  0  0  0  0  0  0  0  0
    7.4101  -16.1635   24.1861 O   0  0  0  0  0  0  0  0  0  0  0  0
   11.4198  -19.8567   24.3879 N   0  0  0  0  0  0  0  0  0  0  0  0
   11.6430  -18.5915   25.0537 C   0  0  0  0  0  0  0  0  0  0  0  0
   12.2680  -18.6624   26.1341 O   0  0  0  0  0  0  0  0  0  0  0  0
   11.1522  -17.3342   24.4656 C   0  0  0  0  0  0  0  0  0  0  0  0
    9.9142  -16.8698   25.1244 C   0  0  2  0  0  0  0  0  0  0  0  0
    9.5374  -15.5124   24.7258 N   0  0  0  0  0  0  0  0  0  0  0  0
    9.9985  -16.9378   26.5778 C   0  0  0  0  0  0  0  0  0  0  0  0
   10.3273  -15.8813   27.2175 O   0  0  0  0  0  0  0  0  0  0  0  0
    9.7569  -18.0390   27.3439 O   0  0  0  0  0  0  0  0  0  0  0  0
  2  1  1  0
  3  2  1  0
  3  5  1  0
  3  4  1  1
  5  7  1  0
  5  6  1  6
  7  8  2  0
 10 11  1  0
 10  9  1  0
 11 12  1  0
 13 12  1  1
 14 13  1  0
 14  7  1  0
 15 16  2  0
 15 13  1  0
 17 18  1  0
 18 20  1  0
 19 18  2  0
 21 20  1  6
 21 23  1  0
 21 22  1  0
 22 15  1  0
 23 25  1  0
 24 23  2  0
M  END
$$$$
