IMN.pdb
     RDKit          3D

 25 24  0  0  1  0  0  0  0  0999 V2000
    2.5704  -20.0717   22.0054 C   0  0  0  0  0  0  0  0  0  0  0  0
    3.7769  -19.8890   22.8714 C   0  0  0  0  0  0  0  0  0  0  0  0
    4.7096  -18.7986   22.3906 C   0  0  2  0  0  0  0  0  0  0  0  0
    5.0376  -18.9838   20.9513 C   0  0  0  0  0  0  0  0  0  0  0  0
    5.9227  -18.8229   23.2967 C   0  0  2  0  0  0  0  0  0  0  0  0
    5.4008  -18.7706   24.6768 N   0  0  0  0  0  0  0  0  0  0  0  0
    6.8133  -17.6567   23.1254 C   0  0  0  0  0  0  0  0  0  0  0  0
    7.6588  -17.6463   22.1624 O   0  0  0  0  0  0  0  0  0  0  0  0
    6.6615  -12.0193   28.0052 C   0  0  0  0  0  0  0  0  0  0  0  0
    6.2775  -12.4465   26.3000 S   0  0  0  0  0  0  0  0  0  0  0  0
    7.2303  -13.9184   25.7580 C   0  0  0  0  0  0  0  0  0  0  0  0
    6.8804  -14.1401   24.3184 C   0  0  0  0  0  0  0  0  0  0  0  0
    7.6135  -15.3151   23.7001 C   0  0  2  0  0  0  0  0  0  0  0  0
    6.8331  -16.5076   23.9395 N   0  0  0  0  0  0  0  0  0  0  0  0
    8.9902  -15.4322   24.2078 C   0  0  0  0  0  0  0  0  0  0  0  0
    9.8733  -14.6052   23.8083 O   0  0  0  0  0  0  0  0  0  0  0  0
   12.7533  -18.0202   22.8960 N   0  0  0  0  0  0  0  0  0  0  0  0
   12.2652  -16.6840   23.1603 C   0  0  0  0  0  0  0  0  0  0  0  0
   12.2896  -15.9060   22.1821 O   0  0  0  0  0  0  0  0  0  0  0  0
   11.7830  -16.3097   24.5001 C   0  0  0  0  0  0  0  0  0  0  0  0
   10.6624  -17.1678   24.9365 C   0  0  2  0  0  0  0  0  0  0  0  0
    9.4194  -16.4186   25.1296 N   0  0  0  0  0  0  0  0  0  0  0  0
   10.9705  -17.9090   26.1530 C   0  0  0  0  0  0  0  0  0  0  0  0
   12.0509  -18.5907   26.1921 O   0  0  0  0  0  0  0  0  0  0  0  0
   10.2064  -17.9511   27.2809 O   0  0  0  0  0  0  0  0  0  0  0  0
  2  1  1  0
  3  2  1  0
  3  5  1  0
  3  4  1  6
  5  7  1  0
  5  6  1  1
  7  8  2  0
 10 11  1  0
 10  9  1  0
 11 12  1  0
 13 12  1  1
 14 13  1  0
 14  7  1  0
 15 16  2  0
 15 13  1  0
 17 18  1  0
 18 20  1  0
 19 18  2  0
 21 20  1  1
 21 23  1  0
 21 22  1  0
 22 15  1  0
 23 25  1  0
 24 23  2  0
M  END
$$$$
