IMN.pdb
     RDKit          3D

 25 24  0  0  1  0  0  0  0  0999 V2000
    7.1438  -11.2993   25.9196 C   0  0  0  0  0  0  0  0  0  0  0  0
    7.5399  -12.7423   25.9353 C   0  0  0  0  0  0  0  0  0  0  0  0
    6.3638  -13.6944   25.9424 C   0  0  2  0  0  0  0  0  0  0  0  0
    5.5254  -13.4859   27.1536 C   0  0  0  0  0  0  0  0  0  0  0  0
    6.9280  -15.0952   25.8297 C   0  0  2  0  0  0  0  0  0  0  0  0
    8.2300  -15.0665   26.5254 N   0  0  0  0  0  0  0  0  0  0  0  0
    7.1890  -15.5185   24.4385 C   0  0  0  0  0  0  0  0  0  0  0  0
    6.4663  -16.4378   23.9141 O   0  0  0  0  0  0  0  0  0  0  0  0
    8.9113  -11.7640   19.8216 C   0  0  0  0  0  0  0  0  0  0  0  0
    7.2375  -12.4222   19.8721 S   0  0  0  0  0  0  0  0  0  0  0  0
    7.0904  -13.7555   21.1248 C   0  0  0  0  0  0  0  0  0  0  0  0
    8.4687  -14.3121   21.3111 C   0  0  0  0  0  0  0  0  0  0  0  0
    8.5136  -15.4856   22.2711 C   0  0  2  0  0  0  0  0  0  0  0  0
    8.1869  -14.9981   23.5917 N   0  0  0  0  0  0  0  0  0  0  0  0
    9.8122  -16.1775   22.2321 C   0  0  0  0  0  0  0  0  0  0  0  0
   10.2214  -16.6716   21.1311 O   0  0  0  0  0  0  0  0  0  0  0  0
   14.9002  -17.1236   21.8637 N   0  0  0  0  0  0  0  0  0  0  0  0
   14.4006  -16.4803   23.0597 C   0  0  0  0  0  0  0  0  0  0  0  0
   15.1886  -16.4771   24.0302 O   0  0  0  0  0  0  0  0  0  0  0  0
   13.0545  -15.8847   23.0880 C   0  0  0  0  0  0  0  0  0  0  0  0
   12.0045  -16.9145   23.2273 C   0  0  2  0  0  0  0  0  0  0  0  0
   10.6635  -16.3404   23.3527 N   0  0  0  0  0  0  0  0  0  0  0  0
   12.2501  -17.8110   24.3499 C   0  0  0  0  0  0  0  0  0  0  0  0
   13.0184  -18.8161   24.1680 O   0  0  0  0  0  0  0  0  0  0  0  0
   11.7322  -17.6850   25.6043 O   0  0  0  0  0  0  0  0  0  0  0  0
  2  1  1  0
  3  2  1  0
  3  5  1  0
  3  4  1  1
  5  7  1  0
  5  6  1  1
  7  8  2  0
 10 11  1  0
 10  9  1  0
 11 12  1  0
 13 12  1  6
 14 13  1  0
 14  7  1  0
 15 16  2  0
 15 13  1  0
 17 18  1  0
 18 20  1  0
 19 18  2  0
 21 20  1  1
 21 23  1  0
 21 22  1  0
 22 15  1  0
 23 25  1  0
 24 23  2  0
M  END
$$$$
