IMN.pdb
     RDKit          3D

 25 24  0  0  1  0  0  0  0  0999 V2000
    7.7556  -11.8925   20.1493 C   0  0  0  0  0  0  0  0  0  0  0  0
    7.7803  -13.2406   20.7982 C   0  0  0  0  0  0  0  0  0  0  0  0
    8.6413  -14.2493   20.0693 C   0  0  2  0  0  0  0  0  0  0  0  0
    8.1803  -14.4169   18.6647 C   0  0  0  0  0  0  0  0  0  0  0  0
    8.6022  -15.5298   20.8768 C   0  0  2  0  0  0  0  0  0  0  0  0
    7.2200  -16.0373   20.7679 N   0  0  0  0  0  0  0  0  0  0  0  0
    8.8795  -15.3320   22.3144 C   0  0  0  0  0  0  0  0  0  0  0  0
   10.0591  -14.9984   22.6879 O   0  0  0  0  0  0  0  0  0  0  0  0
    6.8635  -10.6511   26.3802 C   0  0  0  0  0  0  0  0  0  0  0  0
    7.2487  -12.4006   26.5488 S   0  0  0  0  0  0  0  0  0  0  0  0
    6.5635  -13.3651   25.1458 C   0  0  0  0  0  0  0  0  0  0  0  0
    6.9069  -14.7986   25.4125 C   0  0  0  0  0  0  0  0  0  0  0  0
    8.2067  -15.2320   24.7620 C   0  0  2  0  0  0  0  0  0  0  0  0
    7.9483  -15.4758   23.3612 N   0  0  0  0  0  0  0  0  0  0  0  0
    8.7960  -16.3999   25.4370 C   0  0  0  0  0  0  0  0  0  0  0  0
    9.1471  -16.3015   26.6579 O   0  0  0  0  0  0  0  0  0  0  0  0
   12.7853  -20.1037   24.1101 N   0  0  0  0  0  0  0  0  0  0  0  0
   12.5891  -18.7329   24.5298 C   0  0  0  0  0  0  0  0  0  0  0  0
   13.5351  -18.2348   25.1778 O   0  0  0  0  0  0  0  0  0  0  0  0
   11.3489  -18.0133   24.1958 C   0  0  0  0  0  0  0  0  0  0  0  0
   10.2233  -18.4382   25.0530 C   0  0  2  0  0  0  0  0  0  0  0  0
    9.0080  -17.6564   24.8180 N   0  0  0  0  0  0  0  0  0  0  0  0
   10.5565  -18.3936   26.4711 C   0  0  0  0  0  0  0  0  0  0  0  0
   10.6594  -17.2514   27.0355 O   0  0  0  0  0  0  0  0  0  0  0  0
   10.7750  -19.4707   27.2772 O   0  0  0  0  0  0  0  0  0  0  0  0
  2  1  1  0
  3  2  1  0
  3  5  1  0
  3  4  1  6
  5  7  1  0
  5  6  1  1
  7  8  2  0
 10 11  1  0
 10  9  1  0
 11 12  1  0
 13 12  1  1
 14 13  1  0
 14  7  1  0
 15 16  2  0
 15 13  1  0
 17 18  1  0
 18 20  1  0
 19 18  2  0
 21 20  1  6
 21 23  1  0
 21 22  1  0
 22 15  1  0
 23 25  1  0
 24 23  2  0
M  END
$$$$
