IMN.pdb
     RDKit          3D

 25 24  0  0  1  0  0  0  0  0999 V2000
    7.7430  -12.1694   19.5536 C   0  0  0  0  0  0  0  0  0  0  0  0
    7.7521  -13.4036   20.3996 C   0  0  0  0  0  0  0  0  0  0  0  0
    8.5230  -14.5531   19.7877 C   0  0  2  0  0  0  0  0  0  0  0  0
    7.8842  -14.9993   18.5203 C   0  0  0  0  0  0  0  0  0  0  0  0
    8.6064  -15.6393   20.8395 C   0  0  2  0  0  0  0  0  0  0  0  0
    7.2291  -16.1411   21.0162 N   0  0  0  0  0  0  0  0  0  0  0  0
    9.0634  -15.1535   22.1577 C   0  0  0  0  0  0  0  0  0  0  0  0
   10.2754  -14.7616   22.2987 O   0  0  0  0  0  0  0  0  0  0  0  0
    6.2780  -11.1315   26.2098 C   0  0  0  0  0  0  0  0  0  0  0  0
    6.5318  -12.5358   27.3058 S   0  0  0  0  0  0  0  0  0  0  0  0
    7.9452  -13.5633   26.7450 C   0  0  0  0  0  0  0  0  0  0  0  0
    7.5671  -14.1010   25.3989 C   0  0  0  0  0  0  0  0  0  0  0  0
    8.7450  -14.6704   24.6313 C   0  0  2  0  0  0  0  0  0  0  0  0
    8.2777  -15.0703   23.3236 N   0  0  0  0  0  0  0  0  0  0  0  0
    9.3929  -15.7737   25.3590 C   0  0  0  0  0  0  0  0  0  0  0  0
    9.9690  -15.5332   26.4699 O   0  0  0  0  0  0  0  0  0  0  0  0
   12.3665  -18.4063   22.8646 N   0  0  0  0  0  0  0  0  0  0  0  0
   11.8572  -19.0016   24.0811 C   0  0  0  0  0  0  0  0  0  0  0  0
   11.6612  -20.2351   24.0277 O   0  0  0  0  0  0  0  0  0  0  0  0
   11.6024  -18.1768   25.2737 C   0  0  0  0  0  0  0  0  0  0  0  0
   10.1679  -18.1545   25.6259 C   0  0  2  0  0  0  0  0  0  0  0  0
    9.4262  -17.1162   24.9079 N   0  0  0  0  0  0  0  0  0  0  0  0
    9.9492  -17.9975   27.0583 C   0  0  0  0  0  0  0  0  0  0  0  0
   10.5831  -18.7674   27.8577 O   0  0  0  0  0  0  0  0  0  0  0  0
    9.1180  -17.0923   27.6476 O   0  0  0  0  0  0  0  0  0  0  0  0
  2  1  1  0
  3  2  1  0
  3  5  1  0
  3  4  1  6
  5  7  1  0
  5  6  1  1
  7  8  2  0
 10 11  1  0
 10  9  1  0
 11 12  1  0
 13 12  1  1
 14 13  1  0
 14  7  1  0
 15 16  2  0
 15 13  1  0
 17 18  1  0
 18 20  1  0
 19 18  2  0
 21 20  1  1
 21 23  1  0
 21 22  1  0
 22 15  1  0
 23 25  1  0
 24 23  2  0
M  END
$$$$
