SPG.pdb
     RDKit          3D

 18 18  0  0  1  0  0  0  0  0999 V2000
    8.5376  -17.3607   16.3427 O   0  0  0  0  0  0  0  0  0  0  0  0
    7.8493  -16.1888   16.0205 C   0  0  0  0  0  0  0  0  0  0  0  0
    8.7996  -15.0122   15.9351 C   0  0  2  0  0  0  0  0  0  0  0  0
    9.8384  -15.2081   14.9774 N   0  0  0  0  0  0  0  0  0  0  0  0
    9.3899  -14.8271   17.2778 C   0  0  0  0  0  0  0  0  0  0  0  0
   10.5507  -15.3150   17.4515 O   0  0  0  0  0  0  0  0  0  0  0  0
    8.7703  -14.1620   18.3572 N   0  0  0  0  0  0  0  0  0  0  0  0
    7.4684  -13.5373   18.2888 C   0  0  0  0  0  0  0  0  0  0  0  0
    7.2539  -12.9166   19.6764 C   0  0  0  0  0  0  0  0  0  0  0  0
    8.6771  -12.7211   20.1342 C   0  0  0  0  0  0  0  0  0  0  0  0
    9.3317  -14.0020   19.6760 C   0  0  1  0  0  0  0  0  0  0  0  0
    8.9513  -15.0978   20.6118 C   0  0  0  0  0  0  0  0  0  0  0  0
    7.7856  -15.5383   20.6970 O   0  0  0  0  0  0  0  0  0  0  0  0
    9.9683  -15.6514   21.4295 N   0  0  0  0  0  0  0  0  0  0  0  0
   11.3711  -15.5500   21.1344 C   0  0  0  0  0  0  0  0  0  0  0  0
   12.1426  -16.3047   22.1433 C   0  0  0  0  0  0  0  0  0  0  0  0
   12.5819  -17.5823   21.8821 O   0  0  0  0  0  0  0  0  0  0  0  0
   12.4239  -15.8129   23.2676 O   0  0  0  0  0  0  0  0  0  0  0  0
  2  1  1  0
  3  2  1  0
  3  4  1  6
  5  6  2  0
  5  3  1  0
  7  5  1  0
  8  7  1  0
  9  8  1  0
 10  9  1  0
 10 11  1  0
 11  7  1  0
 11 12  1  1
 12 13  2  0
 14 12  1  0
 14 15  1  0
 15 16  1  0
 16 18  2  0
 16 17  1  0
M  END
$$$$
