SPG.pdb
     RDKit          3D

 18 18  0  0  1  0  0  0  0  0999 V2000
    8.3939  -16.9056   15.8281 O   0  0  0  0  0  0  0  0  0  0  0  0
    7.5695  -15.7781   15.8179 C   0  0  0  0  0  0  0  0  0  0  0  0
    8.3889  -14.5130   15.6670 C   0  0  2  0  0  0  0  0  0  0  0  0
    9.2367  -14.5363   14.5201 N   0  0  0  0  0  0  0  0  0  0  0  0
    9.2094  -14.3738   16.8889 C   0  0  0  0  0  0  0  0  0  0  0  0
   10.4214  -14.7449   16.7950 O   0  0  0  0  0  0  0  0  0  0  0  0
    8.7532  -13.8693   18.1253 N   0  0  0  0  0  0  0  0  0  0  0  0
    7.3857  -13.4837   18.3922 C   0  0  0  0  0  0  0  0  0  0  0  0
    7.3961  -12.9623   19.8360 C   0  0  0  0  0  0  0  0  0  0  0  0
    8.8342  -12.5340   19.9835 C   0  0  0  0  0  0  0  0  0  0  0  0
    9.5680  -13.6605   19.2968 C   0  0  1  0  0  0  0  0  0  0  0  0
    9.5984  -14.8401   20.2073 C   0  0  0  0  0  0  0  0  0  0  0  0
    8.6026  -15.5686   20.4014 O   0  0  0  0  0  0  0  0  0  0  0  0
   10.8169  -15.1320   20.8703 N   0  0  0  0  0  0  0  0  0  0  0  0
   12.1101  -14.9868   20.2605 C   0  0  0  0  0  0  0  0  0  0  0  0
   13.1352  -15.6048   21.1265 C   0  0  0  0  0  0  0  0  0  0  0  0
   13.0273  -16.9204   21.5157 O   0  0  0  0  0  0  0  0  0  0  0  0
   14.1348  -14.9586   21.5364 O   0  0  0  0  0  0  0  0  0  0  0  0
  2  1  1  0
  3  2  1  0
  3  4  1  6
  5  6  2  0
  5  3  1  0
  7  5  1  0
  8  7  1  0
  9  8  1  0
 10  9  1  0
 10 11  1  0
 11  7  1  0
 11 12  1  1
 12 13  2  0
 14 12  1  0
 14 15  1  0
 15 16  1  0
 16 18  2  0
 16 17  1  0
M  END
$$$$
