SPG.pdb
     RDKit          3D

 18 18  0  0  1  0  0  0  0  0999 V2000
    7.6011  -17.6883   18.1056 O   0  0  0  0  0  0  0  0  0  0  0  0
    7.0925  -16.5574   17.4627 C   0  0  0  0  0  0  0  0  0  0  0  0
    8.1870  -15.5391   17.2176 C   0  0  2  0  0  0  0  0  0  0  0  0
    9.1398  -15.9732   16.2489 N   0  0  0  0  0  0  0  0  0  0  0  0
    8.8643  -15.3040   18.5104 C   0  0  0  0  0  0  0  0  0  0  0  0
    9.9702  -15.9070   18.6812 O   0  0  0  0  0  0  0  0  0  0  0  0
    8.3817  -14.4759   19.5461 N   0  0  0  0  0  0  0  0  0  0  0  0
    7.1286  -13.7566   19.4957 C   0  0  0  0  0  0  0  0  0  0  0  0
    7.0692  -12.9724   20.8141 C   0  0  0  0  0  0  0  0  0  0  0  0
    8.5342  -12.8468   21.1477 C   0  0  0  0  0  0  0  0  0  0  0  0
    9.0539  -14.2198   20.7961 C   0  0  1  0  0  0  0  0  0  0  0  0
    8.6664  -15.1716   21.8755 C   0  0  0  0  0  0  0  0  0  0  0  0
    7.6189  -15.8505   21.8327 O   0  0  0  0  0  0  0  0  0  0  0  0
    9.5360  -15.2989   22.9879 N   0  0  0  0  0  0  0  0  0  0  0  0
   10.9690  -15.2571   22.8876 C   0  0  0  0  0  0  0  0  0  0  0  0
   11.5109  -16.6267   23.0013 C   0  0  0  0  0  0  0  0  0  0  0  0
   11.4347  -17.5037   21.9435 O   0  0  0  0  0  0  0  0  0  0  0  0
   12.0566  -17.0387   24.0584 O   0  0  0  0  0  0  0  0  0  0  0  0
  2  1  1  0
  3  2  1  0
  3  4  1  6
  5  6  2  0
  5  3  1  0
  7  5  1  0
  8  7  1  0
  9  8  1  0
 10  9  1  0
 10 11  1  0
 11  7  1  0
 11 12  1  1
 12 13  2  0
 14 12  1  0
 14 15  1  0
 15 16  1  0
 16 18  2  0
 16 17  1  0
M  END
$$$$
