SPG.pdb
     RDKit          3D

 18 18  0  0  1  0  0  0  0  0999 V2000
    6.3197  -19.1412   24.0034 O   0  0  0  0  0  0  0  0  0  0  0  0
    5.4926  -18.1312   23.5067 C   0  0  0  0  0  0  0  0  0  0  0  0
    5.5864  -18.0520   21.9968 C   0  0  2  0  0  0  0  0  0  0  0  0
    5.3146  -19.2987   21.3593 N   0  0  0  0  0  0  0  0  0  0  0  0
    6.9586  -17.6129   21.6654 C   0  0  0  0  0  0  0  0  0  0  0  0
    7.7178  -18.4909   21.1474 O   0  0  0  0  0  0  0  0  0  0  0  0
    7.4747  -16.3169   21.8783 N   0  0  0  0  0  0  0  0  0  0  0  0
    6.7391  -15.2406   22.5030 C   0  0  0  0  0  0  0  0  0  0  0  0
    7.6913  -14.0369   22.4661 C   0  0  0  0  0  0  0  0  0  0  0  0
    8.5700  -14.3931   21.2938 C   0  0  0  0  0  0  0  0  0  0  0  0
    8.7954  -15.8702   21.5093 C   0  0  1  0  0  0  0  0  0  0  0  0
    9.7997  -16.0498   22.5958 C   0  0  0  0  0  0  0  0  0  0  0  0
    9.5396  -15.8325   23.7979 O   0  0  0  0  0  0  0  0  0  0  0  0
   11.0976  -16.4874   22.2303 N   0  0  0  0  0  0  0  0  0  0  0  0
   12.0072  -17.1292   23.1391 C   0  0  0  0  0  0  0  0  0  0  0  0
   13.0187  -16.1536   23.5947 C   0  0  0  0  0  0  0  0  0  0  0  0
   13.2289  -15.9325   24.9366 O   0  0  0  0  0  0  0  0  0  0  0  0
   13.7186  -15.4949   22.7816 O   0  0  0  0  0  0  0  0  0  0  0  0
  2  1  1  0
  3  2  1  0
  3  4  1  6
  5  6  2  0
  5  3  1  0
  7  5  1  0
  8  7  1  0
  9  8  1  0
 10  9  1  0
 10 11  1  0
 11  7  1  0
 11 12  1  1
 12 13  2  0
 14 12  1  0
 14 15  1  0
 15 16  1  0
 16 18  2  0
 16 17  1  0
M  END
$$$$
