SPG.pdb
     RDKit          3D

 18 18  0  0  1  0  0  0  0  0999 V2000
    6.4409  -18.5639   20.2288 O   0  0  0  0  0  0  0  0  0  0  0  0
    5.7907  -17.4340   19.7272 C   0  0  0  0  0  0  0  0  0  0  0  0
    6.6195  -16.7709   18.6465 C   0  0  2  0  0  0  0  0  0  0  0  0
    7.0431  -17.6837   17.6355 N   0  0  0  0  0  0  0  0  0  0  0  0
    7.8013  -16.1743   19.3045 C   0  0  0  0  0  0  0  0  0  0  0  0
    8.9029  -16.7865   19.1391 O   0  0  0  0  0  0  0  0  0  0  0  0
    7.7942  -14.9994   20.0860 N   0  0  0  0  0  0  0  0  0  0  0  0
    6.6259  -14.1777   20.3092 C   0  0  0  0  0  0  0  0  0  0  0  0
    7.1235  -13.0077   21.1696 C   0  0  0  0  0  0  0  0  0  0  0  0
    8.5856  -12.9739   20.8025 C   0  0  0  0  0  0  0  0  0  0  0  0
    8.9342  -14.4424   20.7716 C   0  0  1  0  0  0  0  0  0  0  0  0
    9.0734  -14.9332   22.1719 C   0  0  0  0  0  0  0  0  0  0  0  0
    8.1091  -14.9988   22.9630 O   0  0  0  0  0  0  0  0  0  0  0  0
   10.3607  -15.3393   22.6051 N   0  0  0  0  0  0  0  0  0  0  0  0
   10.5950  -16.1033   23.7995 C   0  0  0  0  0  0  0  0  0  0  0  0
   12.0333  -16.4236   23.9050 C   0  0  0  0  0  0  0  0  0  0  0  0
   12.4909  -17.6971   23.6548 O   0  0  0  0  0  0  0  0  0  0  0  0
   12.8851  -15.5534   24.2245 O   0  0  0  0  0  0  0  0  0  0  0  0
  2  1  1  0
  3  2  1  0
  3  4  1  6
  5  6  2  0
  5  3  1  0
  7  5  1  0
  8  7  1  0
  9  8  1  0
 10  9  1  0
 10 11  1  0
 11  7  1  0
 11 12  1  1
 12 13  2  0
 14 12  1  0
 14 15  1  0
 15 16  1  0
 16 18  2  0
 16 17  1  0
M  END
$$$$
