SPG.pdb
     RDKit          3D

 18 18  0  0  1  0  0  0  0  0999 V2000
    6.1039  -18.6814   19.4626 O   0  0  0  0  0  0  0  0  0  0  0  0
    5.7370  -17.4017   19.0397 C   0  0  0  0  0  0  0  0  0  0  0  0
    6.8501  -16.7600   18.2372 C   0  0  2  0  0  0  0  0  0  0  0  0
    7.4408  -17.6547   17.2963 N   0  0  0  0  0  0  0  0  0  0  0  0
    7.8753  -16.3013   19.1985 C   0  0  0  0  0  0  0  0  0  0  0  0
    8.8824  -17.0622   19.3487 O   0  0  0  0  0  0  0  0  0  0  0  0
    7.8172  -15.1053   19.9451 N   0  0  0  0  0  0  0  0  0  0  0  0
    6.7747  -14.1126   19.8118 C   0  0  0  0  0  0  0  0  0  0  0  0
    7.1688  -12.9918   20.7840 C   0  0  0  0  0  0  0  0  0  0  0  0
    8.6613  -13.1881   20.8694 C   0  0  0  0  0  0  0  0  0  0  0  0
    8.7754  -14.6917   20.9404 C   0  0  1  0  0  0  0  0  0  0  0  0
    8.4189  -15.1365   22.3175 C   0  0  0  0  0  0  0  0  0  0  0  0
    7.6120  -14.5145   23.0399 O   0  0  0  0  0  0  0  0  0  0  0  0
    9.0300  -16.3173   22.8096 N   0  0  0  0  0  0  0  0  0  0  0  0
   10.3819  -16.6999   22.5076 C   0  0  0  0  0  0  0  0  0  0  0  0
   11.2875  -16.1720   23.5487 C   0  0  0  0  0  0  0  0  0  0  0  0
   11.3391  -14.8235   23.8184 O   0  0  0  0  0  0  0  0  0  0  0  0
   12.0378  -16.9272   24.2206 O   0  0  0  0  0  0  0  0  0  0  0  0
  2  1  1  0
  3  2  1  0
  3  4  1  6
  5  6  2  0
  5  3  1  0
  7  5  1  0
  8  7  1  0
  9  8  1  0
 10  9  1  0
 10 11  1  0
 11  7  1  0
 11 12  1  1
 12 13  2  0
 14 12  1  0
 14 15  1  0
 15 16  1  0
 16 18  2  0
 16 17  1  0
M  END
$$$$
