SPG.pdb
     RDKit          3D

 18 18  0  0  1  0  0  0  0  0999 V2000
    5.6411  -19.3022   19.8926 O   0  0  0  0  0  0  0  0  0  0  0  0
    6.6681  -18.5617   20.4824 C   0  0  0  0  0  0  0  0  0  0  0  0
    7.2525  -17.5710   19.4966 C   0  0  2  0  0  0  0  0  0  0  0  0
    7.7792  -18.1977   18.3285 N   0  0  0  0  0  0  0  0  0  0  0  0
    8.3296  -16.8394   20.1968 C   0  0  0  0  0  0  0  0  0  0  0  0
    9.5051  -17.3012   20.0535 O   0  0  0  0  0  0  0  0  0  0  0  0
    8.1500  -15.6900   20.9955 N   0  0  0  0  0  0  0  0  0  0  0  0
    6.8677  -15.0806   21.2679 C   0  0  0  0  0  0  0  0  0  0  0  0
    7.1888  -13.8511   22.1293 C   0  0  0  0  0  0  0  0  0  0  0  0
    8.6108  -13.5663   21.7164 C   0  0  0  0  0  0  0  0  0  0  0  0
    9.2018  -14.9539   21.6527 C   0  0  1  0  0  0  0  0  0  0  0  0
    9.4694  -15.4269   23.0404 C   0  0  0  0  0  0  0  0  0  0  0  0
    8.6273  -16.0592   23.7121 O   0  0  0  0  0  0  0  0  0  0  0  0
   10.7380  -15.1390   23.6037 N   0  0  0  0  0  0  0  0  0  0  0  0
   11.8277  -16.0755   23.6329 C   0  0  0  0  0  0  0  0  0  0  0  0
   11.5861  -17.0796   24.6893 C   0  0  0  0  0  0  0  0  0  0  0  0
   10.6729  -18.0919   24.5023 O   0  0  0  0  0  0  0  0  0  0  0  0
   12.1996  -17.0473   25.7882 O   0  0  0  0  0  0  0  0  0  0  0  0
  2  1  1  0
  3  2  1  0
  3  4  1  6
  5  6  2  0
  5  3  1  0
  7  5  1  0
  8  7  1  0
  9  8  1  0
 10  9  1  0
 10 11  1  0
 11  7  1  0
 11 12  1  1
 12 13  2  0
 14 12  1  0
 14 15  1  0
 15 16  1  0
 16 18  2  0
 16 17  1  0
M  END
$$$$
