SPG.pdb
     RDKit          3D

 18 18  0  0  1  0  0  0  0  0999 V2000
   11.1578  -15.0892   27.0510 O   0  0  0  0  0  0  0  0  0  0  0  0
   10.6837  -14.4009   28.1701 C   0  0  0  0  0  0  0  0  0  0  0  0
    9.4394  -15.0644   28.7234 C   0  0  2  0  0  0  0  0  0  0  0  0
    9.6972  -16.3573   29.2680 N   0  0  0  0  0  0  0  0  0  0  0  0
    8.4717  -15.1773   27.6114 C   0  0  0  0  0  0  0  0  0  0  0  0
    8.1897  -16.3572   27.2320 O   0  0  0  0  0  0  0  0  0  0  0  0
    7.8519  -14.0925   26.9554 N   0  0  0  0  0  0  0  0  0  0  0  0
    8.2199  -12.7077   27.1473 C   0  0  0  0  0  0  0  0  0  0  0  0
    7.2447  -11.9134   26.2671 C   0  0  0  0  0  0  0  0  0  0  0  0
    6.0777  -12.8650   26.1887 C   0  0  0  0  0  0  0  0  0  0  0  0
    6.7698  -14.1943   26.0074 C   0  0  1  0  0  0  0  0  0  0  0  0
    7.2356  -14.3054   24.5961 C   0  0  0  0  0  0  0  0  0  0  0  0
    6.5489  -13.9202   23.6265 O   0  0  0  0  0  0  0  0  0  0  0  0
    8.5138  -14.8731   24.3646 N   0  0  0  0  0  0  0  0  0  0  0  0
    8.9898  -15.2609   23.0653 C   0  0  0  0  0  0  0  0  0  0  0  0
   10.3830  -15.7401   23.1739 C   0  0  0  0  0  0  0  0  0  0  0  0
   11.3855  -15.1640   22.4278 O   0  0  0  0  0  0  0  0  0  0  0  0
   10.7021  -16.6832   23.9444 O   0  0  0  0  0  0  0  0  0  0  0  0
  2  1  1  0
  3  2  1  0
  3  4  1  6
  5  6  2  0
  5  3  1  0
  7  5  1  0
  8  7  1  0
  9  8  1  0
 10  9  1  0
 10 11  1  0
 11  7  1  0
 11 12  1  6
 12 13  2  0
 14 12  1  0
 14 15  1  0
 15 16  1  0
 16 18  2  0
 16 17  1  0
M  END
$$$$
