SPG.pdb
     RDKit          3D

 18 18  0  0  1  0  0  0  0  0999 V2000
    5.0710  -18.1104   22.2682 O   0  0  0  0  0  0  0  0  0  0  0  0
    4.6369  -17.0397   21.4832 C   0  0  0  0  0  0  0  0  0  0  0  0
    5.3212  -17.0504   20.1318 C   0  0  2  0  0  0  0  0  0  0  0  0
    5.2036  -18.3042   19.4618 N   0  0  0  0  0  0  0  0  0  0  0  0
    6.7486  -16.7411   20.3608 C   0  0  0  0  0  0  0  0  0  0  0  0
    7.5492  -17.7274   20.3184 O   0  0  0  0  0  0  0  0  0  0  0  0
    7.2745  -15.4570   20.6175 N   0  0  0  0  0  0  0  0  0  0  0  0
    6.4693  -14.2748   20.8267 C   0  0  0  0  0  0  0  0  0  0  0  0
    7.4807  -13.1357   21.0178 C   0  0  0  0  0  0  0  0  0  0  0  0
    8.6787  -13.6800   20.2815 C   0  0  0  0  0  0  0  0  0  0  0  0
    8.6759  -15.1283   20.7072 C   0  0  1  0  0  0  0  0  0  0  0  0
    9.2123  -15.2229   22.0945 C   0  0  0  0  0  0  0  0  0  0  0  0
    8.5101  -15.0112   23.1055 O   0  0  0  0  0  0  0  0  0  0  0  0
   10.5776  -15.5700   22.2529 N   0  0  0  0  0  0  0  0  0  0  0  0
   11.1269  -16.1086   23.4668 C   0  0  0  0  0  0  0  0  0  0  0  0
   12.5340  -16.4978   23.2405 C   0  0  0  0  0  0  0  0  0  0  0  0
   13.5632  -15.6614   23.6076 O   0  0  0  0  0  0  0  0  0  0  0  0
   12.8411  -17.5970   22.7091 O   0  0  0  0  0  0  0  0  0  0  0  0
  2  1  1  0
  3  2  1  0
  3  4  1  1
  5  6  2  0
  5  3  1  0
  7  5  1  0
  8  7  1  0
  9  8  1  0
 10  9  1  0
 10 11  1  0
 11  7  1  0
 11 12  1  1
 12 13  2  0
 14 12  1  0
 14 15  1  0
 15 16  1  0
 16 18  2  0
 16 17  1  0
M  END
$$$$
