SPG.pdb
     RDKit          3D

 18 18  0  0  1  0  0  0  0  0999 V2000
    8.2601  -16.3389   17.4326 O   0  0  0  0  0  0  0  0  0  0  0  0
    7.3540  -15.2967   17.6419 C   0  0  0  0  0  0  0  0  0  0  0  0
    8.0818  -14.0010   17.9357 C   0  0  2  0  0  0  0  0  0  0  0  0
    8.9424  -13.5963   16.8725 N   0  0  0  0  0  0  0  0  0  0  0  0
    8.8758  -14.2132   19.1645 C   0  0  0  0  0  0  0  0  0  0  0  0
   10.1278  -14.3629   19.0036 O   0  0  0  0  0  0  0  0  0  0  0  0
    8.3547  -14.2605   20.4751 N   0  0  0  0  0  0  0  0  0  0  0  0
    6.9552  -14.1015   20.8004 C   0  0  0  0  0  0  0  0  0  0  0  0
    6.8933  -14.1825   22.3322 C   0  0  0  0  0  0  0  0  0  0  0  0
    8.2884  -13.7496   22.7060 C   0  0  0  0  0  0  0  0  0  0  0  0
    9.1255  -14.4690   21.6761 C   0  0  1  0  0  0  0  0  0  0  0  0
    9.2331  -15.9047   22.0614 C   0  0  0  0  0  0  0  0  0  0  0  0
    8.5013  -16.7912   21.5730 O   0  0  0  0  0  0  0  0  0  0  0  0
   10.2132  -16.2594   23.0223 N   0  0  0  0  0  0  0  0  0  0  0  0
   11.5039  -15.6339   23.1118 C   0  0  0  0  0  0  0  0  0  0  0  0
   12.5523  -16.6160   22.7667 C   0  0  0  0  0  0  0  0  0  0  0  0
   13.0742  -16.6703   21.4946 O   0  0  0  0  0  0  0  0  0  0  0  0
   13.0025  -17.4311   23.6139 O   0  0  0  0  0  0  0  0  0  0  0  0
  2  1  1  0
  3  2  1  0
  3  4  1  6
  5  6  2  0
  5  3  1  0
  7  5  1  0
  8  7  1  0
  9  8  1  0
 10  9  1  0
 10 11  1  0
 11  7  1  0
 11 12  1  1
 12 13  2  0
 14 12  1  0
 14 15  1  0
 15 16  1  0
 16 18  2  0
 16 17  1  0
M  END
$$$$
