VYR.pdb
     RDKit          3D

 31 31  0  0  1  0  0  0  0  0999 V2000
    5.8271  -13.8210   19.0562 C   0  0  0  0  0  0  0  0  0  0  0  0
    6.7608  -14.3022   20.1490 C   0  0  1  0  0  0  0  0  0  0  0  0
    7.7436  -15.3027   19.6008 C   0  0  0  0  0  0  0  0  0  0  0  0
    7.4715  -13.1108   20.8030 C   0  0  2  0  0  0  0  0  0  0  0  0
    8.2774  -12.4030   19.8585 N   0  0  0  0  0  0  0  0  0  0  0  0
    8.2505  -13.6112   21.9651 C   0  0  0  0  0  0  0  0  0  0  0  0
    9.4554  -13.9363   21.8123 O   0  0  0  0  0  0  0  0  0  0  0  0
   10.0972  -15.7170   30.4889 O   0  0  0  0  0  0  0  0  0  0  0  0
    9.5228  -15.2431   29.3027 C   0  0  0  0  0  0  0  0  0  0  0  0
    9.7053  -13.9387   28.8948 C   0  0  0  0  0  0  0  0  0  0  0  0
    9.1349  -13.4667   27.7158 C   0  0  0  0  0  0  0  0  0  0  0  0
    8.3668  -14.2764   26.9079 C   0  0  0  0  0  0  0  0  0  0  0  0
    7.7508  -13.8221   25.6606 C   0  0  0  0  0  0  0  0  0  0  0  0
    8.4756  -14.2328   24.4142 C   0  0  2  0  0  0  0  0  0  0  0  0
    7.7069  -13.7490   23.2698 N   0  0  0  0  0  0  0  0  0  0  0  0
    8.7546  -15.6634   24.2866 C   0  0  0  0  0  0  0  0  0  0  0  0
    8.0121  -16.3672   23.5372 O   0  0  0  0  0  0  0  0  0  0  0  0
    8.1897  -15.5877   27.3285 C   0  0  0  0  0  0  0  0  0  0  0  0
    8.7548  -16.0578   28.4978 C   0  0  0  0  0  0  0  0  0  0  0  0
   11.1053  -19.8680   19.4664 N   0  0  0  0  0  0  0  0  0  0  0  0
   12.4993  -19.6593   19.6069 C   0  0  0  0  0  0  0  0  0  0  0  0
   13.3633  -20.5743   19.2437 N   0  0  0  0  0  0  0  0  0  0  0  0
   13.0415  -18.4598   20.1435 N   0  0  0  0  0  0  0  0  0  0  0  0
   12.2154  -17.4773   20.8170 C   0  0  0  0  0  0  0  0  0  0  0  0
   11.8514  -17.9324   22.2067 C   0  0  0  0  0  0  0  0  0  0  0  0
   10.9964  -16.9696   22.9480 C   0  0  0  0  0  0  0  0  0  0  0  0
   10.5517  -17.4360   24.3143 C   0  0  2  0  0  0  0  0  0  0  0  0
    9.8077  -16.3534   24.9401 N   0  0  0  0  0  0  0  0  0  0  0  0
   11.6592  -17.9120   25.1427 C   0  0  0  0  0  0  0  0  0  0  0  0
   11.8055  -19.2400   25.5041 O   0  0  0  0  0  0  0  0  0  0  0  0
   12.5712  -17.1356   25.5923 O   0  0  0  0  0  0  0  0  0  0  0  0
  2  1  1  6
  3  2  1  0
  4  2  1  0
  4  5  1  6
  6  4  1  0
  7  6  2  0
  8  9  1  0
  9 10  2  0
 10 11  1  0
 12 11  2  0
 12 13  1  0
 14 13  1  1
 14 15  1  0
 15  6  1  0
 16 14  1  0
 16 28  1  0
 17 16  2  0
 18 12  1  0
 19  9  1  0
 19 18  2  0
 20 21  1  0
 21 23  1  0
 21 22  2  0
 23 24  1  0
 24 25  1  0
 25 26  1  0
 27 26  1  6
 27 28  1  0
 29 27  1  0
 30 29  1  0
 31 29  2  0
M  END
$$$$
