VYR.pdb
     RDKit          3D

 31 31  0  0  1  0  0  0  0  0999 V2000
    8.8434  -12.3712   18.7579 C   0  0  0  0  0  0  0  0  0  0  0  0
    7.9047  -13.5536   18.6232 C   0  0  1  0  0  0  0  0  0  0  0  0
    7.5292  -13.7678   17.1808 C   0  0  0  0  0  0  0  0  0  0  0  0
    8.5400  -14.8084   19.2347 C   0  0  2  0  0  0  0  0  0  0  0  0
    7.7204  -15.9607   19.0273 N   0  0  0  0  0  0  0  0  0  0  0  0
    8.8094  -14.5435   20.6717 C   0  0  0  0  0  0  0  0  0  0  0  0
    9.9454  -14.1384   21.0269 O   0  0  0  0  0  0  0  0  0  0  0  0
    7.3365  -12.6017   29.2514 O   0  0  0  0  0  0  0  0  0  0  0  0
    7.2462  -12.8760   27.8809 C   0  0  0  0  0  0  0  0  0  0  0  0
    7.9203  -12.1079   26.9552 C   0  0  0  0  0  0  0  0  0  0  0  0
    7.8313  -12.3798   25.5928 C   0  0  0  0  0  0  0  0  0  0  0  0
    7.0704  -13.4221   25.1103 C   0  0  0  0  0  0  0  0  0  0  0  0
    6.9507  -13.7440   23.6877 C   0  0  0  0  0  0  0  0  0  0  0  0
    8.1151  -14.4918   23.1111 C   0  0  2  0  0  0  0  0  0  0  0  0
    7.8410  -14.7234   21.6948 N   0  0  0  0  0  0  0  0  0  0  0  0
    8.4604  -15.7434   23.7858 C   0  0  0  0  0  0  0  0  0  0  0  0
    7.8190  -16.7962   23.4882 O   0  0  0  0  0  0  0  0  0  0  0  0
    6.3961  -14.1886   26.0513 C   0  0  0  0  0  0  0  0  0  0  0  0
    6.4831  -13.9205   27.4034 C   0  0  0  0  0  0  0  0  0  0  0  0
   10.0620  -21.1420   20.1889 N   0  0  0  0  0  0  0  0  0  0  0  0
   10.5963  -19.8409   20.3564 C   0  0  0  0  0  0  0  0  0  0  0  0
   11.0032  -19.1362   19.3300 N   0  0  0  0  0  0  0  0  0  0  0  0
   10.7229  -19.2258   21.6317 N   0  0  0  0  0  0  0  0  0  0  0  0
   11.5114  -19.8170   22.6948 C   0  0  0  0  0  0  0  0  0  0  0  0
   11.4678  -18.9703   23.9407 C   0  0  0  0  0  0  0  0  0  0  0  0
   10.6862  -17.7163   23.7859 C   0  0  0  0  0  0  0  0  0  0  0  0
   10.1029  -17.1690   25.0675 C   0  0  2  0  0  0  0  0  0  0  0  0
    9.4740  -15.8917   24.7670 N   0  0  0  0  0  0  0  0  0  0  0  0
   11.0858  -17.0740   26.1464 C   0  0  0  0  0  0  0  0  0  0  0  0
   11.3262  -15.8992   26.8374 O   0  0  0  0  0  0  0  0  0  0  0  0
   11.7931  -18.0692   26.5284 O   0  0  0  0  0  0  0  0  0  0  0  0
  2  1  1  6
  3  2  1  0
  4  2  1  0
  4  5  1  1
  6  4  1  0
  7  6  2  0
  8  9  1  0
  9 10  2  0
 10 11  1  0
 12 11  2  0
 12 13  1  0
 14 13  1  1
 14 15  1  0
 15  6  1  0
 16 14  1  0
 16 28  1  0
 17 16  2  0
 18 12  1  0
 19  9  1  0
 19 18  2  0
 20 21  1  0
 21 23  1  0
 21 22  2  0
 23 24  1  0
 24 25  1  0
 25 26  1  0
 27 26  1  6
 27 28  1  0
 29 27  1  0
 30 29  1  0
 31 29  2  0
M  END
$$$$
