VYR.pdb
     RDKit          3D

 31 31  0  0  1  0  0  0  0  0999 V2000
    8.0477  -13.5021   20.1991 C   0  0  0  0  0  0  0  0  0  0  0  0
    7.4696  -13.9679   18.8776 C   0  0  1  0  0  0  0  0  0  0  0  0
    6.1764  -13.2536   18.5862 C   0  0  0  0  0  0  0  0  0  0  0  0
    8.4917  -13.7695   17.7515 C   0  0  2  0  0  0  0  0  0  0  0  0
    7.9539  -14.1589   16.4859 N   0  0  0  0  0  0  0  0  0  0  0  0
    9.7284  -14.5129   18.1058 C   0  0  0  0  0  0  0  0  0  0  0  0
    9.8585  -15.7106   17.7460 O   0  0  0  0  0  0  0  0  0  0  0  0
   18.3073  -15.6876   20.3797 O   0  0  0  0  0  0  0  0  0  0  0  0
   17.0250  -15.1747   20.1468 C   0  0  0  0  0  0  0  0  0  0  0  0
   16.1927  -14.8366   21.1928 C   0  0  0  0  0  0  0  0  0  0  0  0
   14.9179  -14.3267   20.9623 C   0  0  0  0  0  0  0  0  0  0  0  0
   14.4330  -14.1378   19.6866 C   0  0  0  0  0  0  0  0  0  0  0  0
   13.1013  -13.6031   19.3995 C   0  0  0  0  0  0  0  0  0  0  0  0
   12.0580  -14.6378   19.1022 C   0  0  2  0  0  0  0  0  0  0  0  0
   10.7993  -13.9424   18.8436 N   0  0  0  0  0  0  0  0  0  0  0  0
   11.8817  -15.6706   20.1235 C   0  0  0  0  0  0  0  0  0  0  0  0
   11.2738  -15.3732   21.1960 O   0  0  0  0  0  0  0  0  0  0  0  0
   15.2796  -14.4818   18.6412 C   0  0  0  0  0  0  0  0  0  0  0  0
   16.5446  -14.9878   18.8679 C   0  0  0  0  0  0  0  0  0  0  0  0
   13.6965  -22.9485   22.5210 N   0  0  0  0  0  0  0  0  0  0  0  0
   12.3390  -23.2916   22.7348 C   0  0  0  0  0  0  0  0  0  0  0  0
   11.9998  -24.2173   23.5971 N   0  0  0  0  0  0  0  0  0  0  0  0
   11.2730  -22.6613   22.0366 N   0  0  0  0  0  0  0  0  0  0  0  0
   11.5101  -21.7320   20.9496 C   0  0  0  0  0  0  0  0  0  0  0  0
   12.1999  -20.4850   21.4399 C   0  0  0  0  0  0  0  0  0  0  0  0
   12.1686  -19.3615   20.4682 C   0  0  0  0  0  0  0  0  0  0  0  0
   12.1769  -17.9843   21.0891 C   0  0  2  0  0  0  0  0  0  0  0  0
   12.3390  -17.0094   20.0210 N   0  0  0  0  0  0  0  0  0  0  0  0
   13.1816  -17.8397   22.1422 C   0  0  0  0  0  0  0  0  0  0  0  0
   14.4947  -17.4900   21.8799 O   0  0  0  0  0  0  0  0  0  0  0  0
   12.9187  -18.0259   23.3803 O   0  0  0  0  0  0  0  0  0  0  0  0
  2  1  1  1
  3  2  1  0
  4  2  1  0
  4  5  1  6
  6  4  1  0
  7  6  2  0
  8  9  1  0
  9 10  2  0
 10 11  1  0
 12 11  2  0
 12 13  1  0
 14 13  1  1
 14 15  1  0
 15  6  1  0
 16 14  1  0
 16 28  1  0
 17 16  2  0
 18 12  1  0
 19  9  1  0
 19 18  2  0
 20 21  1  0
 21 23  1  0
 21 22  2  0
 23 24  1  0
 24 25  1  0
 25 26  1  0
 27 26  1  6
 27 28  1  0
 29 27  1  0
 30 29  1  0
 31 29  2  0
M  END
$$$$
