VYR.pdb
     RDKit          3D

 31 31  0  0  1  0  0  0  0  0999 V2000
    6.6414  -14.0130   18.5705 C   0  0  0  0  0  0  0  0  0  0  0  0
    7.5449  -14.3989   19.7246 C   0  0  1  0  0  0  0  0  0  0  0  0
    8.5707  -15.4066   19.2778 C   0  0  0  0  0  0  0  0  0  0  0  0
    8.2026  -13.1501   20.3247 C   0  0  2  0  0  0  0  0  0  0  0  0
    9.0522  -12.5022   19.3755 N   0  0  0  0  0  0  0  0  0  0  0  0
    8.9203  -13.5486   21.5632 C   0  0  0  0  0  0  0  0  0  0  0  0
   10.1584  -13.7640   21.5223 O   0  0  0  0  0  0  0  0  0  0  0  0
    9.9595  -15.6798   30.2301 O   0  0  0  0  0  0  0  0  0  0  0  0
    9.5129  -15.1897   28.9964 C   0  0  0  0  0  0  0  0  0  0  0  0
    9.8475  -13.9215   28.5708 C   0  0  0  0  0  0  0  0  0  0  0  0
    9.4041  -13.4334   27.3447 C   0  0  0  0  0  0  0  0  0  0  0  0
    8.6158  -14.1905   26.5058 C   0  0  0  0  0  0  0  0  0  0  0  0
    8.1300  -13.7178   25.2089 C   0  0  0  0  0  0  0  0  0  0  0  0
    8.9865  -14.0984   24.0388 C   0  0  2  0  0  0  0  0  0  0  0  0
    8.2807  -13.7057   22.8213 N   0  0  0  0  0  0  0  0  0  0  0  0
    9.3865  -15.5044   23.9779 C   0  0  0  0  0  0  0  0  0  0  0  0
    8.4968  -16.3857   23.7775 O   0  0  0  0  0  0  0  0  0  0  0  0
    8.2852  -15.4657   26.9446 C   0  0  0  0  0  0  0  0  0  0  0  0
    8.7241  -15.9517   28.1607 C   0  0  0  0  0  0  0  0  0  0  0  0
   14.0418  -15.3589   18.6509 N   0  0  0  0  0  0  0  0  0  0  0  0
   13.0652  -15.0106   19.6160 C   0  0  0  0  0  0  0  0  0  0  0  0
   12.2527  -14.0008   19.4267 N   0  0  0  0  0  0  0  0  0  0  0  0
   12.9070  -15.7254   20.8346 N   0  0  0  0  0  0  0  0  0  0  0  0
   12.6968  -17.1595   20.8622 C   0  0  0  0  0  0  0  0  0  0  0  0
   11.5844  -17.5287   21.8093 C   0  0  0  0  0  0  0  0  0  0  0  0
   12.0381  -17.7622   23.2047 C   0  0  0  0  0  0  0  0  0  0  0  0
   11.0306  -17.3977   24.2697 C   0  0  2  0  0  0  0  0  0  0  0  0
   10.7129  -15.9851   24.1252 N   0  0  0  0  0  0  0  0  0  0  0  0
   11.4785  -17.7401   25.6194 C   0  0  0  0  0  0  0  0  0  0  0  0
   11.6653  -19.0465   26.0362 O   0  0  0  0  0  0  0  0  0  0  0  0
   11.7294  -16.8571   26.5105 O   0  0  0  0  0  0  0  0  0  0  0  0
  2  1  1  6
  3  2  1  0
  4  2  1  0
  4  5  1  6
  6  4  1  0
  7  6  2  0
  8  9  1  0
  9 10  2  0
 10 11  1  0
 12 11  2  0
 12 13  1  0
 14 13  1  1
 14 15  1  0
 15  6  1  0
 16 14  1  0
 16 28  1  0
 17 16  2  0
 18 12  1  0
 19  9  1  0
 19 18  2  0
 20 21  1  0
 21 23  1  0
 21 22  2  0
 23 24  1  0
 24 25  1  0
 25 26  1  0
 27 26  1  6
 27 28  1  0
 29 27  1  0
 30 29  1  0
 31 29  2  0
M  END
$$$$
