VYR.pdb
     RDKit          3D

 31 31  0  0  1  0  0  0  0  0999 V2000
    6.8083  -17.7645   21.1407 C   0  0  0  0  0  0  0  0  0  0  0  0
    7.5084  -17.2504   19.8985 C   0  0  1  0  0  0  0  0  0  0  0  0
    6.6644  -17.4981   18.6762 C   0  0  0  0  0  0  0  0  0  0  0  0
    7.8501  -15.7639   20.0583 C   0  0  2  0  0  0  0  0  0  0  0  0
    8.4671  -15.2420   18.8795 N   0  0  0  0  0  0  0  0  0  0  0  0
    8.6956  -15.6058   21.2698 C   0  0  0  0  0  0  0  0  0  0  0  0
    9.9045  -15.9492   21.2335 O   0  0  0  0  0  0  0  0  0  0  0  0
   10.3082  -14.4761   30.0380 O   0  0  0  0  0  0  0  0  0  0  0  0
    9.8088  -14.4097   28.7312 C   0  0  0  0  0  0  0  0  0  0  0  0
   10.3786  -13.5755   27.7928 C   0  0  0  0  0  0  0  0  0  0  0  0
    9.8830  -13.5087   26.4935 C   0  0  0  0  0  0  0  0  0  0  0  0
    8.8073  -14.2685   26.0887 C   0  0  0  0  0  0  0  0  0  0  0  0
    8.2560  -14.2309   24.7336 C   0  0  0  0  0  0  0  0  0  0  0  0
    8.9984  -15.0592   23.7285 C   0  0  2  0  0  0  0  0  0  0  0  0
    8.2127  -15.0784   22.4968 N   0  0  0  0  0  0  0  0  0  0  0  0
    9.3342  -16.4186   24.1528 C   0  0  0  0  0  0  0  0  0  0  0  0
    8.4031  -17.2722   24.2653 O   0  0  0  0  0  0  0  0  0  0  0  0
    8.2415  -15.1048   27.0418 C   0  0  0  0  0  0  0  0  0  0  0  0
    8.7319  -15.1723   28.3313 C   0  0  0  0  0  0  0  0  0  0  0  0
   14.5438  -23.0329   21.9603 N   0  0  0  0  0  0  0  0  0  0  0  0
   15.2301  -22.2646   22.9324 C   0  0  0  0  0  0  0  0  0  0  0  0
   16.4588  -22.5529   23.2827 N   0  0  0  0  0  0  0  0  0  0  0  0
   14.6371  -21.1470   23.5805 N   0  0  0  0  0  0  0  0  0  0  0  0
   13.2480  -20.7874   23.3741 C   0  0  0  0  0  0  0  0  0  0  0  0
   12.9153  -19.4855   24.0562 C   0  0  0  0  0  0  0  0  0  0  0  0
   11.5291  -19.0140   23.8042 C   0  0  0  0  0  0  0  0  0  0  0  0
   10.9092  -18.2292   24.9364 C   0  0  2  0  0  0  0  0  0  0  0  0
   10.6400  -16.8821   24.4567 N   0  0  0  0  0  0  0  0  0  0  0  0
   11.7225  -18.2431   26.1521 C   0  0  0  0  0  0  0  0  0  0  0  0
   11.6266  -19.2429   27.1043 O   0  0  0  0  0  0  0  0  0  0  0  0
   12.5800  -17.3329   26.4221 O   0  0  0  0  0  0  0  0  0  0  0  0
  2  1  1  1
  3  2  1  0
  4  2  1  0
  4  5  1  6
  6  4  1  0
  7  6  2  0
  8  9  1  0
  9 10  2  0
 10 11  1  0
 12 11  2  0
 12 13  1  0
 14 13  1  1
 14 15  1  0
 15  6  1  0
 16 14  1  0
 16 28  1  0
 17 16  2  0
 18 12  1  0
 19  9  1  0
 19 18  2  0
 20 21  1  0
 21 23  1  0
 21 22  2  0
 23 24  1  0
 24 25  1  0
 25 26  1  0
 27 26  1  6
 27 28  1  0
 29 27  1  0
 30 29  1  0
 31 29  2  0
M  END
$$$$
