VYR.pdb
     RDKit          3D

 31 31  0  0  1  0  0  0  0  0999 V2000
    6.7848  -15.5880   20.4479 C   0  0  0  0  0  0  0  0  0  0  0  0
    7.4328  -14.5350   19.5710 C   0  0  1  0  0  0  0  0  0  0  0  0
    6.5791  -14.2565   18.3623 C   0  0  0  0  0  0  0  0  0  0  0  0
    7.6997  -13.2603   20.3810 C   0  0  2  0  0  0  0  0  0  0  0  0
    8.2933  -12.2436   19.5708 N   0  0  0  0  0  0  0  0  0  0  0  0
    8.5329  -13.6196   21.5576 C   0  0  0  0  0  0  0  0  0  0  0  0
    9.7597  -13.8482   21.4042 O   0  0  0  0  0  0  0  0  0  0  0  0
   10.3553  -15.6651   30.1142 O   0  0  0  0  0  0  0  0  0  0  0  0
    9.8015  -15.1784   28.9233 C   0  0  0  0  0  0  0  0  0  0  0  0
   10.0941  -13.9101   28.4683 C   0  0  0  0  0  0  0  0  0  0  0  0
    9.5442  -13.4254   27.2847 C   0  0  0  0  0  0  0  0  0  0  0  0
    8.6880  -14.1861   26.5190 C   0  0  0  0  0  0  0  0  0  0  0  0
    8.0896  -13.7170   25.2685 C   0  0  0  0  0  0  0  0  0  0  0  0
    8.8292  -14.1172   24.0275 C   0  0  2  0  0  0  0  0  0  0  0  0
    8.0186  -13.7239   22.8773 N   0  0  0  0  0  0  0  0  0  0  0  0
    9.2042  -15.5288   23.9416 C   0  0  0  0  0  0  0  0  0  0  0  0
    8.2920  -16.3960   23.7863 O   0  0  0  0  0  0  0  0  0  0  0  0
    8.4004  -15.4613   26.9868 C   0  0  0  0  0  0  0  0  0  0  0  0
    8.9450  -15.9440   28.1607 C   0  0  0  0  0  0  0  0  0  0  0  0
   14.2669  -17.1696   18.1857 N   0  0  0  0  0  0  0  0  0  0  0  0
   13.9724  -15.9360   18.8163 C   0  0  0  0  0  0  0  0  0  0  0  0
   14.4307  -14.8042   18.3424 N   0  0  0  0  0  0  0  0  0  0  0  0
   13.1713  -15.8491   19.9875 N   0  0  0  0  0  0  0  0  0  0  0  0
   12.8139  -17.0211   20.7623 C   0  0  0  0  0  0  0  0  0  0  0  0
   11.9970  -16.6460   21.9718 C   0  0  0  0  0  0  0  0  0  0  0  0
   11.6122  -17.8050   22.8180 C   0  0  0  0  0  0  0  0  0  0  0  0
   10.8356  -17.4514   24.0647 C   0  0  2  0  0  0  0  0  0  0  0  0
   10.5292  -16.0297   24.0167 N   0  0  0  0  0  0  0  0  0  0  0  0
   11.5252  -17.8387   25.2951 C   0  0  0  0  0  0  0  0  0  0  0  0
   11.8231  -19.1549   25.6024 O   0  0  0  0  0  0  0  0  0  0  0  0
   11.9019  -16.9895   26.1745 O   0  0  0  0  0  0  0  0  0  0  0  0
  2  1  1  1
  3  2  1  0
  4  2  1  0
  4  5  1  6
  6  4  1  0
  7  6  2  0
  8  9  1  0
  9 10  2  0
 10 11  1  0
 12 11  2  0
 12 13  1  0
 14 13  1  1
 14 15  1  0
 15  6  1  0
 16 14  1  0
 16 28  1  0
 17 16  2  0
 18 12  1  0
 19  9  1  0
 19 18  2  0
 20 21  1  0
 21 23  1  0
 21 22  2  0
 23 24  1  0
 24 25  1  0
 25 26  1  0
 27 26  1  6
 27 28  1  0
 29 27  1  0
 30 29  1  0
 31 29  2  0
M  END
$$$$
