VYR.pdb
     RDKit          3D

 31 31  0  0  1  0  0  0  0  0999 V2000
    8.5342  -20.7525   21.4784 C   0  0  0  0  0  0  0  0  0  0  0  0
    8.7339  -20.5094   19.9957 C   0  0  1  0  0  0  0  0  0  0  0  0
    8.0079  -21.5521   19.1875 C   0  0  0  0  0  0  0  0  0  0  0  0
    8.2835  -19.0911   19.6246 C   0  0  2  0  0  0  0  0  0  0  0  0
    8.3326  -18.8824   18.2116 N   0  0  0  0  0  0  0  0  0  0  0  0
    9.1191  -18.1223   20.3801 C   0  0  0  0  0  0  0  0  0  0  0  0
   10.3441  -18.0193   20.1158 O   0  0  0  0  0  0  0  0  0  0  0  0
    7.0691  -12.3699   17.5179 O   0  0  0  0  0  0  0  0  0  0  0  0
    7.4230  -13.0292   18.7018 C   0  0  0  0  0  0  0  0  0  0  0  0
    6.8701  -12.6660   19.9116 C   0  0  0  0  0  0  0  0  0  0  0  0
    7.2211  -13.3207   21.0889 C   0  0  0  0  0  0  0  0  0  0  0  0
    8.1311  -14.3551   21.0989 C   0  0  0  0  0  0  0  0  0  0  0  0
    8.5268  -15.0714   22.3122 C   0  0  0  0  0  0  0  0  0  0  0  0
    9.4070  -16.2627   22.0814 C   0  0  2  0  0  0  0  0  0  0  0  0
    8.6094  -17.2844   21.4071 N   0  0  0  0  0  0  0  0  0  0  0  0
   10.0553  -16.8111   23.2730 C   0  0  0  0  0  0  0  0  0  0  0  0
    9.4527  -17.7049   23.9410 O   0  0  0  0  0  0  0  0  0  0  0  0
    8.6814  -14.7123   19.8752 C   0  0  0  0  0  0  0  0  0  0  0  0
    8.3344  -14.0639   18.7061 C   0  0  0  0  0  0  0  0  0  0  0  0
   16.3036  -20.4612   21.4829 N   0  0  0  0  0  0  0  0  0  0  0  0
   15.1549  -20.2056   20.6945 C   0  0  0  0  0  0  0  0  0  0  0  0
   15.2429  -20.0461   19.3974 N   0  0  0  0  0  0  0  0  0  0  0  0
   13.8515  -20.1075   21.2534 N   0  0  0  0  0  0  0  0  0  0  0  0
   13.5358  -20.6396   22.5643 C   0  0  0  0  0  0  0  0  0  0  0  0
   13.4338  -19.5390   23.5887 C   0  0  0  0  0  0  0  0  0  0  0  0
   12.4582  -18.4768   23.2318 C   0  0  0  0  0  0  0  0  0  0  0  0
   12.3074  -17.3810   24.2608 C   0  0  2  0  0  0  0  0  0  0  0  0
   11.3299  -16.4256   23.7619 N   0  0  0  0  0  0  0  0  0  0  0  0
   13.5798  -16.7531   24.6158 C   0  0  0  0  0  0  0  0  0  0  0  0
   14.4829  -17.3349   25.4884 O   0  0  0  0  0  0  0  0  0  0  0  0
   13.9489  -15.6220   24.1455 O   0  0  0  0  0  0  0  0  0  0  0  0
  2  1  1  1
  3  2  1  0
  4  2  1  0
  4  5  1  6
  6  4  1  0
  7  6  2  0
  8  9  1  0
  9 10  2  0
 10 11  1  0
 12 11  2  0
 12 13  1  0
 14 13  1  1
 14 15  1  0
 15  6  1  0
 16 14  1  0
 16 28  1  0
 17 16  2  0
 18 12  1  0
 19  9  1  0
 19 18  2  0
 20 21  1  0
 21 23  1  0
 21 22  2  0
 23 24  1  0
 24 25  1  0
 25 26  1  0
 27 26  1  6
 27 28  1  0
 29 27  1  0
 30 29  1  0
 31 29  2  0
M  END
$$$$
