VYR.pdb
     RDKit          3D

 31 31  0  0  1  0  0  0  0  0999 V2000
    6.8106  -15.4824   19.6046 C   0  0  0  0  0  0  0  0  0  0  0  0
    7.4377  -14.3045   18.8859 C   0  0  1  0  0  0  0  0  0  0  0  0
    6.7813  -14.0925   17.5474 C   0  0  0  0  0  0  0  0  0  0  0  0
    7.3599  -13.0465   19.7598 C   0  0  2  0  0  0  0  0  0  0  0  0
    7.8917  -11.9071   19.0805 N   0  0  0  0  0  0  0  0  0  0  0  0
    8.0512  -13.3262   21.0450 C   0  0  0  0  0  0  0  0  0  0  0  0
    9.3076  -13.3603   21.0805 O   0  0  0  0  0  0  0  0  0  0  0  0
    9.0986  -14.8569   29.8324 O   0  0  0  0  0  0  0  0  0  0  0  0
    8.6155  -14.5461   28.5550 C   0  0  0  0  0  0  0  0  0  0  0  0
    8.1982  -15.5366   27.6912 C   0  0  0  0  0  0  0  0  0  0  0  0
    7.7178  -15.2288   26.4214 C   0  0  0  0  0  0  0  0  0  0  0  0
    7.6379  -13.9286   25.9726 C   0  0  0  0  0  0  0  0  0  0  0  0
    7.1379  -13.5607   24.6474 C   0  0  0  0  0  0  0  0  0  0  0  0
    8.0407  -13.9297   23.5089 C   0  0  2  0  0  0  0  0  0  0  0  0
    7.3658  -13.5633   22.2659 N   0  0  0  0  0  0  0  0  0  0  0  0
    8.4754  -15.3263   23.4729 C   0  0  0  0  0  0  0  0  0  0  0  0
    7.7722  -16.1701   22.8391 O   0  0  0  0  0  0  0  0  0  0  0  0
    8.0608  -12.9396   26.8506 C   0  0  0  0  0  0  0  0  0  0  0  0
    8.5377  -13.2431   28.1109 C   0  0  0  0  0  0  0  0  0  0  0  0
   14.7595  -14.6296   18.5673 N   0  0  0  0  0  0  0  0  0  0  0  0
   14.6110  -16.0351   18.6618 C   0  0  0  0  0  0  0  0  0  0  0  0
   15.3267  -16.8452   17.9222 N   0  0  0  0  0  0  0  0  0  0  0  0
   13.6884  -16.6472   19.5534 N   0  0  0  0  0  0  0  0  0  0  0  0
   12.7928  -15.8686   20.3860 C   0  0  0  0  0  0  0  0  0  0  0  0
   12.0319  -16.7513   21.3413 C   0  0  0  0  0  0  0  0  0  0  0  0
   10.9913  -16.0331   22.1214 C   0  0  0  0  0  0  0  0  0  0  0  0
   10.5897  -16.7044   23.4139 C   0  0  2  0  0  0  0  0  0  0  0  0
    9.6426  -15.8365   24.0972 N   0  0  0  0  0  0  0  0  0  0  0  0
   11.7349  -17.0600   24.2514 C   0  0  0  0  0  0  0  0  0  0  0  0
   12.5835  -18.1111   23.9504 O   0  0  0  0  0  0  0  0  0  0  0  0
   12.0339  -16.4255   25.3213 O   0  0  0  0  0  0  0  0  0  0  0  0
  2  1  1  1
  3  2  1  0
  4  2  1  0
  4  5  1  6
  6  4  1  0
  7  6  2  0
  8  9  1  0
  9 10  2  0
 10 11  1  0
 12 11  2  0
 12 13  1  0
 14 13  1  1
 14 15  1  0
 15  6  1  0
 16 14  1  0
 16 28  1  0
 17 16  2  0
 18 12  1  0
 19  9  1  0
 19 18  2  0
 20 21  1  0
 21 23  1  0
 21 22  2  0
 23 24  1  0
 24 25  1  0
 25 26  1  0
 27 26  1  6
 27 28  1  0
 29 27  1  0
 30 29  1  0
 31 29  2  0
M  END
$$$$
