VYR.pdb
     RDKit          3D

 31 31  0  0  1  0  0  0  0  0999 V2000
    7.3618  -15.9280   19.7181 C   0  0  0  0  0  0  0  0  0  0  0  0
    7.9557  -14.6134   19.2528 C   0  0  1  0  0  0  0  0  0  0  0  0
    7.4054  -14.2337   17.9036 C   0  0  0  0  0  0  0  0  0  0  0  0
    7.7029  -13.5177   20.2957 C   0  0  2  0  0  0  0  0  0  0  0  0
    8.1937  -12.2516   19.8500 N   0  0  0  0  0  0  0  0  0  0  0  0
    8.3060  -13.9491   21.5833 C   0  0  0  0  0  0  0  0  0  0  0  0
    9.5455  -13.8325   21.7592 O   0  0  0  0  0  0  0  0  0  0  0  0
    5.6634  -10.2818   27.5206 O   0  0  0  0  0  0  0  0  0  0  0  0
    6.0192  -11.4760   26.8812 C   0  0  0  0  0  0  0  0  0  0  0  0
    7.2782  -12.0173   27.0333 C   0  0  0  0  0  0  0  0  0  0  0  0
    7.6329  -13.2043   26.3983 C   0  0  0  0  0  0  0  0  0  0  0  0
    6.7476  -13.8881   25.5940 C   0  0  0  0  0  0  0  0  0  0  0  0
    7.0779  -15.1390   24.9100 C   0  0  0  0  0  0  0  0  0  0  0  0
    8.1572  -15.0251   23.8758 C   0  0  2  0  0  0  0  0  0  0  0  0
    7.5526  -14.4986   22.6543 N   0  0  0  0  0  0  0  0  0  0  0  0
    8.9018  -16.2541   23.6000 C   0  0  0  0  0  0  0  0  0  0  0  0
    8.2904  -17.2367   23.0813 O   0  0  0  0  0  0  0  0  0  0  0  0
    5.4829  -13.3339   25.4480 C   0  0  0  0  0  0  0  0  0  0  0  0
    5.1292  -12.1563   26.0773 C   0  0  0  0  0  0  0  0  0  0  0  0
   15.0693  -18.7372   18.3494 N   0  0  0  0  0  0  0  0  0  0  0  0
   14.9889  -19.7960   19.2868 C   0  0  0  0  0  0  0  0  0  0  0  0
   15.5675  -20.9491   19.0607 N   0  0  0  0  0  0  0  0  0  0  0  0
   14.2847  -19.6759   20.5159 N   0  0  0  0  0  0  0  0  0  0  0  0
   13.5336  -18.4840   20.8576 C   0  0  0  0  0  0  0  0  0  0  0  0
   12.8368  -18.6412   22.1845 C   0  0  0  0  0  0  0  0  0  0  0  0
   12.0675  -17.4410   22.6032 C   0  0  0  0  0  0  0  0  0  0  0  0
   10.9646  -17.7093   23.6002 C   0  0  2  0  0  0  0  0  0  0  0  0
   10.2811  -16.4523   23.8652 N   0  0  0  0  0  0  0  0  0  0  0  0
   11.4440  -18.3589   24.8198 C   0  0  0  0  0  0  0  0  0  0  0  0
   11.3698  -17.7593   26.0649 O   0  0  0  0  0  0  0  0  0  0  0  0
   11.9659  -19.5269   24.8229 O   0  0  0  0  0  0  0  0  0  0  0  0
  2  1  1  1
  3  2  1  0
  4  2  1  0
  4  5  1  6
  6  4  1  0
  7  6  2  0
  8  9  1  0
  9 10  2  0
 10 11  1  0
 12 11  2  0
 12 13  1  0
 14 13  1  1
 14 15  1  0
 15  6  1  0
 16 14  1  0
 16 28  1  0
 17 16  2  0
 18 12  1  0
 19  9  1  0
 19 18  2  0
 20 21  1  0
 21 23  1  0
 21 22  2  0
 23 24  1  0
 24 25  1  0
 25 26  1  0
 27 26  1  6
 27 28  1  0
 29 27  1  0
 30 29  1  0
 31 29  2  0
M  END
$$$$
