VYR.pdb
     RDKit          3D

 31 31  0  0  1  0  0  0  0  0999 V2000
    6.9534  -18.3857   20.6886 C   0  0  0  0  0  0  0  0  0  0  0  0
    8.1237  -18.2656   19.7329 C   0  0  1  0  0  0  0  0  0  0  0  0
    7.8155  -18.9574   18.4314 C   0  0  0  0  0  0  0  0  0  0  0  0
    8.4846  -16.7906   19.5180 C   0  0  2  0  0  0  0  0  0  0  0  0
    9.5532  -16.6475   18.5799 N   0  0  0  0  0  0  0  0  0  0  0  0
    8.7933  -16.1870   20.8401 C   0  0  0  0  0  0  0  0  0  0  0  0
    9.9044  -16.4142   21.3831 O   0  0  0  0  0  0  0  0  0  0  0  0
    7.2014  -11.5764   28.4276 O   0  0  0  0  0  0  0  0  0  0  0  0
    7.2085  -12.1069   27.1313 C   0  0  0  0  0  0  0  0  0  0  0  0
    7.9668  -13.2155   26.8199 C   0  0  0  0  0  0  0  0  0  0  0  0
    7.9745  -13.7436   25.5318 C   0  0  0  0  0  0  0  0  0  0  0  0
    7.2294  -13.1860   24.5158 C   0  0  0  0  0  0  0  0  0  0  0  0
    7.2068  -13.7096   23.1495 C   0  0  0  0  0  0  0  0  0  0  0  0
    8.1444  -14.8518   22.8972 C   0  0  2  0  0  0  0  0  0  0  0  0
    7.8906  -15.3492   21.5471 N   0  0  0  0  0  0  0  0  0  0  0  0
    8.0910  -15.9417   23.8719 C   0  0  0  0  0  0  0  0  0  0  0  0
    7.1610  -16.7992   23.7808 O   0  0  0  0  0  0  0  0  0  0  0  0
    6.4698  -12.0701   24.8408 C   0  0  0  0  0  0  0  0  0  0  0  0
    6.4609  -11.5448   26.1182 C   0  0  0  0  0  0  0  0  0  0  0  0
   11.8528  -18.9918   20.6258 N   0  0  0  0  0  0  0  0  0  0  0  0
   12.6030  -19.9603   21.3369 C   0  0  0  0  0  0  0  0  0  0  0  0
   13.7768  -20.3568   20.9119 N   0  0  0  0  0  0  0  0  0  0  0  0
   12.1359  -20.5551   22.5406 N   0  0  0  0  0  0  0  0  0  0  0  0
   10.8328  -20.2454   23.0952 C   0  0  0  0  0  0  0  0  0  0  0  0
   10.9465  -19.2792   24.2461 C   0  0  0  0  0  0  0  0  0  0  0  0
   10.2075  -18.0075   24.0362 C   0  0  0  0  0  0  0  0  0  0  0  0
    9.5643  -17.4342   25.2771 C   0  0  2  0  0  0  0  0  0  0  0  0
    9.0085  -16.1332   24.9367 N   0  0  0  0  0  0  0  0  0  0  0  0
   10.4778  -17.3764   26.4180 C   0  0  0  0  0  0  0  0  0  0  0  0
   10.7809  -16.1960   27.0740 O   0  0  0  0  0  0  0  0  0  0  0  0
   11.0616  -18.4119   26.8908 O   0  0  0  0  0  0  0  0  0  0  0  0
  2  1  1  1
  3  2  1  0
  4  2  1  0
  4  5  1  6
  6  4  1  0
  7  6  2  0
  8  9  1  0
  9 10  2  0
 10 11  1  0
 12 11  2  0
 12 13  1  0
 14 13  1  1
 14 15  1  0
 15  6  1  0
 16 14  1  0
 16 28  1  0
 17 16  2  0
 18 12  1  0
 19  9  1  0
 19 18  2  0
 20 21  1  0
 21 23  1  0
 21 22  2  0
 23 24  1  0
 24 25  1  0
 25 26  1  0
 27 26  1  6
 27 28  1  0
 29 27  1  0
 30 29  1  0
 31 29  2  0
M  END
$$$$
