VYR.pdb
     RDKit          3D

 31 31  0  0  1  0  0  0  0  0999 V2000
   10.4782  -20.0706   18.1378 C   0  0  0  0  0  0  0  0  0  0  0  0
   10.3776  -19.0134   17.0563 C   0  0  1  0  0  0  0  0  0  0  0  0
    9.9477  -19.6316   15.7523 C   0  0  0  0  0  0  0  0  0  0  0  0
    9.4236  -17.8952   17.4940 C   0  0  2  0  0  0  0  0  0  0  0  0
    9.1857  -16.9687   16.4321 N   0  0  0  0  0  0  0  0  0  0  0  0
    9.9859  -17.2489   18.7080 C   0  0  0  0  0  0  0  0  0  0  0  0
   10.9983  -16.5102   18.6067 O   0  0  0  0  0  0  0  0  0  0  0  0
    6.6352  -11.8227   18.7902 O   0  0  0  0  0  0  0  0  0  0  0  0
    7.1839  -12.8641   19.5493 C   0  0  0  0  0  0  0  0  0  0  0  0
    6.5759  -14.1004   19.6062 C   0  0  0  0  0  0  0  0  0  0  0  0
    7.1205  -15.1362   20.3604 C   0  0  0  0  0  0  0  0  0  0  0  0
    8.2844  -14.9742   21.0796 C   0  0  0  0  0  0  0  0  0  0  0  0
    8.8919  -16.0358   21.8830 C   0  0  0  0  0  0  0  0  0  0  0  0
    9.9964  -16.7870   21.2023 C   0  0  2  0  0  0  0  0  0  0  0  0
    9.4390  -17.4169   20.0077 N   0  0  0  0  0  0  0  0  0  0  0  0
   10.6974  -17.7693   22.0297 C   0  0  0  0  0  0  0  0  0  0  0  0
   10.3831  -18.9934   21.9249 O   0  0  0  0  0  0  0  0  0  0  0  0
    8.8878  -13.7254   21.0150 C   0  0  0  0  0  0  0  0  0  0  0  0
    8.3490  -12.6966   20.2673 C   0  0  0  0  0  0  0  0  0  0  0  0
   17.0551  -20.6223   21.0426 N   0  0  0  0  0  0  0  0  0  0  0  0
   16.3034  -21.2476   20.0178 C   0  0  0  0  0  0  0  0  0  0  0  0
   16.5172  -22.4958   19.6835 N   0  0  0  0  0  0  0  0  0  0  0  0
   15.2828  -20.5694   19.2971 N   0  0  0  0  0  0  0  0  0  0  0  0
   14.7539  -19.2920   19.7331 C   0  0  0  0  0  0  0  0  0  0  0  0
   14.1294  -19.3992   21.1004 C   0  0  0  0  0  0  0  0  0  0  0  0
   13.6135  -18.1090   21.6264 C   0  0  0  0  0  0  0  0  0  0  0  0
   12.9901  -18.1869   23.0002 C   0  0  2  0  0  0  0  0  0  0  0  0
   11.7240  -17.4707   22.9619 N   0  0  0  0  0  0  0  0  0  0  0  0
   13.8787  -17.7057   24.0577 C   0  0  0  0  0  0  0  0  0  0  0  0
   13.9467  -16.3741   24.4288 O   0  0  0  0  0  0  0  0  0  0  0  0
   14.6561  -18.4807   24.7149 O   0  0  0  0  0  0  0  0  0  0  0  0
  2  1  1  1
  3  2  1  0
  4  2  1  0
  4  5  1  6
  6  4  1  0
  7  6  2  0
  8  9  1  0
  9 10  2  0
 10 11  1  0
 12 11  2  0
 12 13  1  0
 14 13  1  1
 14 15  1  0
 15  6  1  0
 16 14  1  0
 16 28  1  0
 17 16  2  0
 18 12  1  0
 19  9  1  0
 19 18  2  0
 20 21  1  0
 21 23  1  0
 21 22  2  0
 23 24  1  0
 24 25  1  0
 25 26  1  0
 27 26  1  6
 27 28  1  0
 29 27  1  0
 30 29  1  0
 31 29  2  0
M  END
$$$$
