VYR.pdb
     RDKit          3D

 31 31  0  0  1  0  0  0  0  0999 V2000
    7.2445  -16.0250   20.1349 C   0  0  0  0  0  0  0  0  0  0  0  0
    7.8458  -14.8807   19.3433 C   0  0  1  0  0  0  0  0  0  0  0  0
    7.1156  -14.7003   18.0388 C   0  0  0  0  0  0  0  0  0  0  0  0
    7.8372  -13.5947   20.1790 C   0  0  2  0  0  0  0  0  0  0  0  0
    8.3122  -12.4791   19.4223 N   0  0  0  0  0  0  0  0  0  0  0  0
    8.6293  -13.8335   21.4132 C   0  0  0  0  0  0  0  0  0  0  0  0
    9.8845  -13.7772   21.3671 O   0  0  0  0  0  0  0  0  0  0  0  0
   10.2949  -15.0415   30.1490 O   0  0  0  0  0  0  0  0  0  0  0  0
    9.7294  -14.7746   28.8958 C   0  0  0  0  0  0  0  0  0  0  0  0
    8.9485  -15.7117   28.2529 C   0  0  0  0  0  0  0  0  0  0  0  0
    8.3859  -15.4473   27.0072 C   0  0  0  0  0  0  0  0  0  0  0  0
    8.5824  -14.2449   26.3640 C   0  0  0  0  0  0  0  0  0  0  0  0
    8.0087  -13.9249   25.0563 C   0  0  0  0  0  0  0  0  0  0  0  0
    8.8235  -14.3795   23.8829 C   0  0  2  0  0  0  0  0  0  0  0  0
    8.0439  -14.1287   22.6729 N   0  0  0  0  0  0  0  0  0  0  0  0
    9.2797  -15.7689   23.9294 C   0  0  0  0  0  0  0  0  0  0  0  0
    8.4174  -16.6979   23.8890 O   0  0  0  0  0  0  0  0  0  0  0  0
    9.3703  -13.3089   27.0206 C   0  0  0  0  0  0  0  0  0  0  0  0
    9.9293  -13.5693   28.2565 C   0  0  0  0  0  0  0  0  0  0  0  0
   11.5997  -13.6118   19.7556 N   0  0  0  0  0  0  0  0  0  0  0  0
   12.7907  -14.3785   19.7581 C   0  0  0  0  0  0  0  0  0  0  0  0
   13.9550  -13.8260   19.5239 N   0  0  0  0  0  0  0  0  0  0  0  0
   12.7979  -15.7773   20.0117 N   0  0  0  0  0  0  0  0  0  0  0  0
   13.1011  -16.3189   21.3217 C   0  0  0  0  0  0  0  0  0  0  0  0
   12.0282  -17.2736   21.7780 C   0  0  0  0  0  0  0  0  0  0  0  0
   12.2192  -17.7713   23.1648 C   0  0  0  0  0  0  0  0  0  0  0  0
   11.0301  -17.5820   24.0772 C   0  0  2  0  0  0  0  0  0  0  0  0
   10.6336  -16.1833   24.0165 N   0  0  0  0  0  0  0  0  0  0  0  0
   11.2816  -18.0384   25.4439 C   0  0  0  0  0  0  0  0  0  0  0  0
   11.2265  -17.1913   26.5369 O   0  0  0  0  0  0  0  0  0  0  0  0
   11.5704  -19.2523   25.7265 O   0  0  0  0  0  0  0  0  0  0  0  0
  2  1  1  1
  3  2  1  0
  4  2  1  0
  4  5  1  6
  6  4  1  0
  7  6  2  0
  8  9  1  0
  9 10  2  0
 10 11  1  0
 12 11  2  0
 12 13  1  0
 14 13  1  1
 14 15  1  0
 15  6  1  0
 16 14  1  0
 16 28  1  0
 17 16  2  0
 18 12  1  0
 19  9  1  0
 19 18  2  0
 20 21  1  0
 21 23  1  0
 21 22  2  0
 23 24  1  0
 24 25  1  0
 25 26  1  0
 27 26  1  6
 27 28  1  0
 29 27  1  0
 30 29  1  0
 31 29  2  0
M  END
$$$$
