VYR.pdb
     RDKit          3D

 31 31  0  0  1  0  0  0  0  0999 V2000
    7.9011  -15.8427   19.5980 C   0  0  0  0  0  0  0  0  0  0  0  0
    8.6682  -14.6078   19.1693 C   0  0  1  0  0  0  0  0  0  0  0  0
    8.3009  -14.2205   17.7613 C   0  0  0  0  0  0  0  0  0  0  0  0
    8.4197  -13.4594   20.1551 C   0  0  2  0  0  0  0  0  0  0  0  0
    8.9994  -12.2390   19.6893 N   0  0  0  0  0  0  0  0  0  0  0  0
    8.9313  -13.8686   21.4887 C   0  0  0  0  0  0  0  0  0  0  0  0
   10.1179  -13.6022   21.8079 O   0  0  0  0  0  0  0  0  0  0  0  0
    6.2040  -10.4084   27.8532 O   0  0  0  0  0  0  0  0  0  0  0  0
    6.5081  -11.5334   27.0762 C   0  0  0  0  0  0  0  0  0  0  0  0
    7.7736  -12.0807   27.0806 C   0  0  0  0  0  0  0  0  0  0  0  0
    8.0769  -13.1988   26.3087 C   0  0  0  0  0  0  0  0  0  0  0  0
    7.1323  -13.8057   25.5102 C   0  0  0  0  0  0  0  0  0  0  0  0
    7.4075  -14.9827   24.6852 C   0  0  0  0  0  0  0  0  0  0  0  0
    8.6116  -14.8638   23.8001 C   0  0  2  0  0  0  0  0  0  0  0  0
    8.1456  -14.5588   22.4494 N   0  0  0  0  0  0  0  0  0  0  0  0
    9.5084  -16.0199   23.7927 C   0  0  0  0  0  0  0  0  0  0  0  0
    9.9163  -16.4851   24.8997 O   0  0  0  0  0  0  0  0  0  0  0  0
    5.8616  -13.2461   25.5135 C   0  0  0  0  0  0  0  0  0  0  0  0
    5.5588  -12.1368   26.2787 C   0  0  0  0  0  0  0  0  0  0  0  0
   11.8744  -15.7174   17.1065 N   0  0  0  0  0  0  0  0  0  0  0  0
   13.1294  -15.6930   17.7628 C   0  0  0  0  0  0  0  0  0  0  0  0
   14.0172  -14.7674   17.4970 N   0  0  0  0  0  0  0  0  0  0  0  0
   13.4998  -16.6582   18.7385 N   0  0  0  0  0  0  0  0  0  0  0  0
   12.5535  -17.6237   19.2618 C   0  0  0  0  0  0  0  0  0  0  0  0
   12.2135  -17.3286   20.7000 C   0  0  0  0  0  0  0  0  0  0  0  0
   11.1966  -18.2462   21.2758 C   0  0  0  0  0  0  0  0  0  0  0  0
   10.7613  -17.9096   22.6827 C   0  0  2  0  0  0  0  0  0  0  0  0
    9.9747  -16.6865   22.6306 N   0  0  0  0  0  0  0  0  0  0  0  0
   11.8805  -17.8212   23.6201 C   0  0  0  0  0  0  0  0  0  0  0  0
   12.2418  -16.6397   24.2437 O   0  0  0  0  0  0  0  0  0  0  0  0
   12.6051  -18.8288   23.9305 O   0  0  0  0  0  0  0  0  0  0  0  0
  2  1  1  1
  3  2  1  0
  4  2  1  0
  4  5  1  6
  6  4  1  0
  7  6  2  0
  8  9  1  0
  9 10  2  0
 10 11  1  0
 12 11  2  0
 12 13  1  0
 14 13  1  1
 14 15  1  0
 15  6  1  0
 16 14  1  0
 16 28  1  0
 17 16  2  0
 18 12  1  0
 19  9  1  0
 19 18  2  0
 20 21  1  0
 21 23  1  0
 21 22  2  0
 23 24  1  0
 24 25  1  0
 25 26  1  0
 27 26  1  6
 27 28  1  0
 29 27  1  0
 30 29  1  0
 31 29  2  0
M  END
$$$$
