QLV.pdb
     RDKit          3D

 25 24  0  0  1  0  0  0  0  0999 V2000
   24.1351  -23.7195  -18.5414 N   0  0  0  0  0  0  0  0  0  0  0  0
   24.4969  -25.0166  -19.0255 C   0  0  0  0  0  0  0  0  0  0  0  0
   24.1542  -25.3072  -20.1917 O   0  0  0  0  0  0  0  0  0  0  0  0
   25.2471  -25.9531  -18.1527 C   0  0  0  0  0  0  0  0  0  0  0  0
   25.6847  -25.3308  -16.8518 C   0  0  0  0  0  0  0  0  0  0  0  0
   26.8957  -24.4649  -16.9688 C   0  0  2  0  0  0  0  0  0  0  0  0
   28.0522  -25.3315  -16.7206 N   0  0  0  0  0  0  0  0  0  0  0  0
   26.8875  -23.3710  -15.9251 C   0  0  0  0  0  0  0  0  0  0  0  0
   27.3166  -23.6747  -14.7827 O   0  0  0  0  0  0  0  0  0  0  0  0
   27.4087  -18.0225  -17.4551 C   0  0  0  0  0  0  0  0  0  0  0  0
   27.4337  -19.3510  -16.7073 C   0  0  1  0  0  0  0  0  0  0  0  0
   28.4823  -19.1494  -15.5980 C   0  0  0  0  0  0  0  0  0  0  0  0
   26.1402  -19.6226  -16.0117 C   0  0  0  0  0  0  0  0  0  0  0  0
   26.2228  -20.9792  -15.3228 C   0  0  2  0  0  0  0  0  0  0  0  0
   26.4206  -22.0802  -16.2277 N   0  0  0  0  0  0  0  0  0  0  0  0
   25.1759  -21.1929  -14.3119 C   0  0  0  0  0  0  0  0  0  0  0  0
   24.1000  -21.7313  -14.6849 O   0  0  0  0  0  0  0  0  0  0  0  0
   26.1447  -21.4298  -10.2646 C   0  0  0  0  0  0  0  0  0  0  0  0
   24.8299  -20.7443  -10.5718 C   0  0  1  0  0  0  0  0  0  0  0  0
   25.0466  -19.2620  -10.4084 C   0  0  0  0  0  0  0  0  0  0  0  0
   24.3256  -21.0700  -11.9405 C   0  0  2  0  0  0  0  0  0  0  0  0
   25.3185  -20.8303  -12.9716 N   0  0  0  0  0  0  0  0  0  0  0  0
   23.0915  -20.2821  -12.1986 C   0  0  0  0  0  0  0  0  0  0  0  0
   23.1761  -19.2962  -12.9675 O   0  0  0  0  0  0  0  0  0  0  0  0
   21.8709  -20.6083  -11.6176 O   0  0  0  0  0  0  0  0  0  0  0  0
  2  1  1  0
  3  2  2  0
  4  2  1  0
  5  4  1  0
  6  5  1  0
  6  7  1  1
  8  6  1  0
  9  8  2  0
 11 10  1  1
 11 13  1  0
 11 12  1  0
 14 13  1  6
 14 15  1  0
 15  8  1  0
 16 17  2  0
 16 14  1  0
 19 21  1  0
 19 18  1  6
 20 19  1  0
 21 22  1  6
 22 16  1  0
 23 21  1  0
 24 23  2  0
 25 23  1  0
M  END
$$$$
