QLV.pdb
     RDKit          3D

 25 24  0  0  1  0  0  0  0  0999 V2000
   17.5326  -13.3799  -20.2987 N   0  0  0  0  0  0  0  0  0  0  0  0
   17.9953  -12.6498  -21.4392 C   0  0  0  0  0  0  0  0  0  0  0  0
   17.9259  -13.2199  -22.5491 O   0  0  0  0  0  0  0  0  0  0  0  0
   18.5297  -11.2754  -21.2750 C   0  0  0  0  0  0  0  0  0  0  0  0
   18.4807  -10.7854  -19.8507 C   0  0  0  0  0  0  0  0  0  0  0  0
   19.5319  -11.3741  -18.9684 C   0  0  2  0  0  0  0  0  0  0  0  0
   19.1080  -12.7470  -18.6756 N   0  0  0  0  0  0  0  0  0  0  0  0
   19.6347  -10.6186  -17.6629 C   0  0  0  0  0  0  0  0  0  0  0  0
   18.6205  -10.6312  -16.9196 O   0  0  0  0  0  0  0  0  0  0  0  0
   20.9788   -8.8914  -13.0293 C   0  0  0  0  0  0  0  0  0  0  0  0
   22.2022   -9.0555  -13.9243 C   0  0  1  0  0  0  0  0  0  0  0  0
   23.2256   -9.7985  -13.0461 C   0  0  0  0  0  0  0  0  0  0  0  0
   21.9251   -9.9509  -15.0872 C   0  0  0  0  0  0  0  0  0  0  0  0
   21.0725   -9.1978  -16.1010 C   0  0  2  0  0  0  0  0  0  0  0  0
   20.8121   -9.9384  -17.3067 N   0  0  0  0  0  0  0  0  0  0  0  0
   21.4983   -7.8058  -16.3126 C   0  0  0  0  0  0  0  0  0  0  0  0
   22.6461   -7.6090  -16.7927 O   0  0  0  0  0  0  0  0  0  0  0  0
   20.3451   -5.4158  -18.6673 C   0  0  0  0  0  0  0  0  0  0  0  0
   20.2104   -4.7033  -17.3380 C   0  0  1  0  0  0  0  0  0  0  0  0
   18.7519   -4.7286  -16.9598 C   0  0  0  0  0  0  0  0  0  0  0  0
   21.0566   -5.3230  -16.2731 C   0  0  2  0  0  0  0  0  0  0  0  0
   20.6970   -6.7041  -16.0092 N   0  0  0  0  0  0  0  0  0  0  0  0
   20.9527   -4.5021  -15.0378 C   0  0  0  0  0  0  0  0  0  0  0  0
   20.1727   -4.8935  -14.1384 O   0  0  0  0  0  0  0  0  0  0  0  0
   21.6867   -3.3341  -14.8622 O   0  0  0  0  0  0  0  0  0  0  0  0
  2  1  1  0
  3  2  2  0
  4  2  1  0
  5  4  1  0
  6  5  1  0
  6  7  1  1
  8  6  1  0
  9  8  2  0
 11 10  1  1
 11 13  1  0
 11 12  1  0
 14 13  1  6
 14 15  1  0
 15  8  1  0
 16 17  2  0
 16 14  1  0
 19 21  1  0
 19 18  1  6
 20 19  1  0
 21 22  1  1
 22 16  1  0
 23 21  1  0
 24 23  2  0
 25 23  1  0
M  END
$$$$
