QLV.pdb
     RDKit          3D

 25 24  0  0  1  0  0  0  0  0999 V2000
   18.0051  -14.2831  -15.9257 N   0  0  0  0  0  0  0  0  0  0  0  0
   18.2254  -14.3463  -17.3383 C   0  0  0  0  0  0  0  0  0  0  0  0
   17.5205  -15.1453  -17.9913 O   0  0  0  0  0  0  0  0  0  0  0  0
   19.2565  -13.4856  -17.9688 C   0  0  0  0  0  0  0  0  0  0  0  0
   19.9349  -12.5594  -16.9926 C   0  0  0  0  0  0  0  0  0  0  0  0
   20.9707  -11.6781  -17.6095 C   0  0  2  0  0  0  0  0  0  0  0  0
   22.0625  -12.5575  -18.0394 N   0  0  0  0  0  0  0  0  0  0  0  0
   21.5203  -10.6939  -16.6021 C   0  0  0  0  0  0  0  0  0  0  0  0
   20.7621  -10.3732  -15.6515 O   0  0  0  0  0  0  0  0  0  0  0  0
   26.8132  -11.0291  -15.6976 C   0  0  0  0  0  0  0  0  0  0  0  0
   25.3154  -10.7705  -15.5775 C   0  0  1  0  0  0  0  0  0  0  0  0
   24.9965  -11.0332  -14.0942 C   0  0  0  0  0  0  0  0  0  0  0  0
   24.9762   -9.3376  -15.8278 C   0  0  0  0  0  0  0  0  0  0  0  0
   23.4609   -9.1910  -15.8941 C   0  0  2  0  0  0  0  0  0  0  0  0
   22.8178  -10.1687  -16.7311 N   0  0  0  0  0  0  0  0  0  0  0  0
   23.0102   -7.8069  -16.1054 C   0  0  0  0  0  0  0  0  0  0  0  0
   23.3513   -7.2346  -17.1745 O   0  0  0  0  0  0  0  0  0  0  0  0
   19.7236   -4.3044  -15.7208 C   0  0  0  0  0  0  0  0  0  0  0  0
   20.2388   -5.7096  -15.4913 C   0  0  1  0  0  0  0  0  0  0  0  0
   19.7462   -6.5614  -16.6327 C   0  0  0  0  0  0  0  0  0  0  0  0
   21.7288   -5.7578  -15.3838 C   0  0  2  0  0  0  0  0  0  0  0  0
   22.2297   -7.1054  -15.1852 N   0  0  0  0  0  0  0  0  0  0  0  0
   22.1605   -4.8629  -14.2778 C   0  0  0  0  0  0  0  0  0  0  0  0
   22.3835   -5.3805  -13.1585 O   0  0  0  0  0  0  0  0  0  0  0  0
   22.3188   -3.4926  -14.4545 O   0  0  0  0  0  0  0  0  0  0  0  0
  2  1  1  0
  3  2  2  0
  4  2  1  0
  5  4  1  0
  6  5  1  0
  6  7  1  1
  8  6  1  0
  9  8  2  0
 11 10  1  1
 11 13  1  0
 11 12  1  0
 14 13  1  6
 14 15  1  0
 15  8  1  0
 16 17  2  0
 16 14  1  0
 19 21  1  0
 19 18  1  6
 20 19  1  0
 21 22  1  1
 22 16  1  0
 23 21  1  0
 24 23  2  0
 25 23  1  0
M  END
$$$$
