QLV.pdb
     RDKit          3D

 25 24  0  0  1  0  0  0  0  0999 V2000
   19.4613  -27.2598   -8.6186 N   0  0  0  0  0  0  0  0  0  0  0  0
   18.4502  -27.8587   -7.8021 C   0  0  0  0  0  0  0  0  0  0  0  0
   18.6175  -29.0513   -7.4683 O   0  0  0  0  0  0  0  0  0  0  0  0
   17.2649  -27.0681   -7.3875 C   0  0  0  0  0  0  0  0  0  0  0  0
   17.3061  -25.6401   -7.8674 C   0  0  0  0  0  0  0  0  0  0  0  0
   18.2371  -24.7652   -7.0942 C   0  0  2  0  0  0  0  0  0  0  0  0
   17.5566  -24.4434   -5.8359 N   0  0  0  0  0  0  0  0  0  0  0  0
   18.5113  -23.4739   -7.8312 C   0  0  0  0  0  0  0  0  0  0  0  0
   17.5168  -22.7526   -8.0996 O   0  0  0  0  0  0  0  0  0  0  0  0
   21.5799  -19.2813   -9.3940 C   0  0  0  0  0  0  0  0  0  0  0  0
   21.9900  -20.6200   -9.9974 C   0  0  1  0  0  0  0  0  0  0  0  0
   23.5225  -20.5348  -10.1193 C   0  0  0  0  0  0  0  0  0  0  0  0
   21.7097  -21.7575   -9.0709 C   0  0  0  0  0  0  0  0  0  0  0  0
   20.2222  -22.0836   -9.1218 C   0  0  2  0  0  0  0  0  0  0  0  0
   19.8187  -23.1068   -8.1942 N   0  0  0  0  0  0  0  0  0  0  0  0
   19.7003  -22.2492  -10.4871 C   0  0  0  0  0  0  0  0  0  0  0  0
   19.9246  -23.3412  -11.0735 O   0  0  0  0  0  0  0  0  0  0  0  0
   16.6069  -20.7827  -14.0776 C   0  0  0  0  0  0  0  0  0  0  0  0
   17.0714  -20.8290  -12.6371 C   0  0  1  0  0  0  0  0  0  0  0  0
   16.0689  -21.6496  -11.8673 C   0  0  0  0  0  0  0  0  0  0  0  0
   18.4494  -21.3920  -12.5024 C   0  0  2  0  0  0  0  0  0  0  0  0
   18.9752  -21.2619  -11.1560 N   0  0  0  0  0  0  0  0  0  0  0  0
   19.3404  -20.7235  -13.4871 C   0  0  0  0  0  0  0  0  0  0  0  0
   19.4287  -21.2249  -14.6322 O   0  0  0  0  0  0  0  0  0  0  0  0
   20.0630  -19.5779  -13.1719 O   0  0  0  0  0  0  0  0  0  0  0  0
  2  1  1  0
  3  2  2  0
  4  2  1  0
  5  4  1  0
  6  5  1  0
  6  7  1  1
  8  6  1  0
  9  8  2  0
 11 10  1  1
 11 13  1  0
 11 12  1  0
 14 13  1  6
 14 15  1  0
 15  8  1  0
 16 17  2  0
 16 14  1  0
 19 21  1  0
 19 18  1  6
 20 19  1  0
 21 22  1  1
 22 16  1  0
 23 21  1  0
 24 23  2  0
 25 23  1  0
M  END
$$$$
