QLV.pdb
     RDKit          3D

 25 24  0  0  1  0  0  0  0  0999 V2000
   17.9389  -16.1082  -15.2483 N   0  0  0  0  0  0  0  0  0  0  0  0
   16.6786  -16.0330  -14.5746 C   0  0  0  0  0  0  0  0  0  0  0  0
   16.2282  -17.0912  -14.0855 O   0  0  0  0  0  0  0  0  0  0  0  0
   15.9630  -14.7366  -14.4795 C   0  0  0  0  0  0  0  0  0  0  0  0
   16.7298  -13.5892  -15.0847 C   0  0  0  0  0  0  0  0  0  0  0  0
   15.8809  -12.6237  -15.8445 C   0  0  2  0  0  0  0  0  0  0  0  0
   15.5318  -13.2816  -17.1076 N   0  0  0  0  0  0  0  0  0  0  0  0
   16.6443  -11.3578  -16.1618 C   0  0  0  0  0  0  0  0  0  0  0  0
   17.2619  -11.3281  -17.2568 O   0  0  0  0  0  0  0  0  0  0  0  0
   14.2185   -6.9659  -16.2321 C   0  0  0  0  0  0  0  0  0  0  0  0
   15.4618   -7.8087  -16.4934 C   0  0  1  0  0  0  0  0  0  0  0  0
   16.1955   -7.0719  -17.6289 C   0  0  0  0  0  0  0  0  0  0  0  0
   16.3930   -7.8040  -15.3255 C   0  0  0  0  0  0  0  0  0  0  0  0
   17.3226   -9.0070  -15.4276 C   0  0  2  0  0  0  0  0  0  0  0  0
   16.6564  -10.2724  -15.2688 N   0  0  0  0  0  0  0  0  0  0  0  0
   18.5633   -8.8622  -14.6509 C   0  0  0  0  0  0  0  0  0  0  0  0
   18.4942   -9.0047  -13.4012 O   0  0  0  0  0  0  0  0  0  0  0  0
   21.9640  -10.6083  -14.9505 C   0  0  0  0  0  0  0  0  0  0  0  0
   22.1842   -9.1121  -15.0270 C   0  0  1  0  0  0  0  0  0  0  0  0
   22.4428   -8.7688  -16.4714 C   0  0  0  0  0  0  0  0  0  0  0  0
   21.0251   -8.3389  -14.4860 C   0  0  2  0  0  0  0  0  0  0  0  0
   19.8012   -8.5770  -15.2289 N   0  0  0  0  0  0  0  0  0  0  0  0
   21.3710   -6.8930  -14.4824 C   0  0  0  0  0  0  0  0  0  0  0  0
   20.8183   -6.1563  -15.3322 O   0  0  0  0  0  0  0  0  0  0  0  0
   22.2756   -6.3514  -13.5756 O   0  0  0  0  0  0  0  0  0  0  0  0
  2  1  1  0
  3  2  2  0
  4  2  1  0
  5  4  1  0
  6  5  1  0
  6  7  1  6
  8  6  1  0
  9  8  2  0
 11 10  1  1
 11 13  1  0
 11 12  1  0
 14 13  1  1
 14 15  1  0
 15  8  1  0
 16 17  2  0
 16 14  1  0
 19 21  1  0
 19 18  1  6
 20 19  1  0
 21 22  1  6
 22 16  1  0
 23 21  1  0
 24 23  2  0
 25 23  1  0
M  END
$$$$
