QLV.pdb
     RDKit          3D

 25 24  0  0  1  0  0  0  0  0999 V2000
   27.6203  -26.8687  -16.1571 N   0  0  0  0  0  0  0  0  0  0  0  0
   26.7085  -26.0672  -16.9147 C   0  0  0  0  0  0  0  0  0  0  0  0
   27.1481  -25.0001  -17.3941 O   0  0  0  0  0  0  0  0  0  0  0  0
   25.3061  -26.5139  -17.1031 C   0  0  0  0  0  0  0  0  0  0  0  0
   24.2947  -25.5483  -16.5411 C   0  0  0  0  0  0  0  0  0  0  0  0
   24.2354  -25.5296  -15.0490 C   0  0  2  0  0  0  0  0  0  0  0  0
   23.3848  -26.6563  -14.6525 N   0  0  0  0  0  0  0  0  0  0  0  0
   23.6015  -24.2533  -14.5439 C   0  0  0  0  0  0  0  0  0  0  0  0
   22.3536  -24.2630  -14.3896 O   0  0  0  0  0  0  0  0  0  0  0  0
   25.6658  -22.6374  -11.8657 C   0  0  0  0  0  0  0  0  0  0  0  0
   25.3189  -21.1652  -12.0577 C   0  0  1  0  0  0  0  0  0  0  0  0
   26.6199  -20.4150  -11.7180 C   0  0  0  0  0  0  0  0  0  0  0  0
   25.0162  -20.8462  -13.4851 C   0  0  0  0  0  0  0  0  0  0  0  0
   23.9207  -21.7822  -13.9808 C   0  0  2  0  0  0  0  0  0  0  0  0
   24.3790  -23.1165  -14.2632 N   0  0  0  0  0  0  0  0  0  0  0  0
   23.0654  -21.1913  -15.0215 C   0  0  0  0  0  0  0  0  0  0  0  0
   23.5373  -21.0955  -16.1854 O   0  0  0  0  0  0  0  0  0  0  0  0
   20.1208  -22.2880  -16.7173 C   0  0  0  0  0  0  0  0  0  0  0  0
   19.7266  -20.9537  -16.1196 C   0  0  1  0  0  0  0  0  0  0  0  0
   18.8861  -21.2373  -14.9014 C   0  0  0  0  0  0  0  0  0  0  0  0
   20.9133  -20.1130  -15.7747 C   0  0  2  0  0  0  0  0  0  0  0  0
   21.7679  -20.7367  -14.7810 N   0  0  0  0  0  0  0  0  0  0  0  0
   20.4411  -18.7825  -15.3087 C   0  0  0  0  0  0  0  0  0  0  0  0
   20.5045  -18.5351  -14.0818 O   0  0  0  0  0  0  0  0  0  0  0  0
   19.9411  -17.8265  -16.1861 O   0  0  0  0  0  0  0  0  0  0  0  0
  2  1  1  0
  3  2  2  0
  4  2  1  0
  5  4  1  0
  6  5  1  0
  6  7  1  6
  8  6  1  0
  9  8  2  0
 11 10  1  6
 11 13  1  0
 11 12  1  0
 14 13  1  6
 14 15  1  0
 15  8  1  0
 16 17  2  0
 16 14  1  0
 19 21  1  0
 19 18  1  1
 20 19  1  0
 21 22  1  1
 22 16  1  0
 23 21  1  0
 24 23  2  0
 25 23  1  0
M  END
$$$$
