QLV.pdb
     RDKit          3D

 25 24  0  0  1  0  0  0  0  0999 V2000
   27.2444  -17.4405  -15.1067 N   0  0  0  0  0  0  0  0  0  0  0  0
   28.2344  -18.0068  -15.9710 C   0  0  0  0  0  0  0  0  0  0  0  0
   29.0027  -17.2139  -16.5564 O   0  0  0  0  0  0  0  0  0  0  0  0
   28.3171  -19.4784  -16.1425 C   0  0  0  0  0  0  0  0  0  0  0  0
   27.4085  -20.2369  -15.2098 C   0  0  0  0  0  0  0  0  0  0  0  0
   28.0397  -20.5973  -13.9053 C   0  0  2  0  0  0  0  0  0  0  0  0
   29.0973  -21.5666  -14.2088 N   0  0  0  0  0  0  0  0  0  0  0  0
   27.0419  -21.2553  -12.9794 C   0  0  0  0  0  0  0  0  0  0  0  0
   26.6306  -22.3970  -13.3089 O   0  0  0  0  0  0  0  0  0  0  0  0
   26.5785  -19.5846   -7.7643 C   0  0  0  0  0  0  0  0  0  0  0  0
   26.4542  -20.4011   -9.0458 C   0  0  1  0  0  0  0  0  0  0  0  0
   26.2411  -21.8474   -8.5624 C   0  0  0  0  0  0  0  0  0  0  0  0
   25.2302  -20.0377   -9.8209 C   0  0  0  0  0  0  0  0  0  0  0  0
   25.3023  -20.6896  -11.1962 C   0  0  2  0  0  0  0  0  0  0  0  0
   26.6018  -20.6129  -11.8091 N   0  0  0  0  0  0  0  0  0  0  0  0
   24.1824  -20.3303  -12.0795 C   0  0  0  0  0  0  0  0  0  0  0  0
   24.2745  -19.2618  -12.7403 O   0  0  0  0  0  0  0  0  0  0  0  0
   23.0455  -21.7183  -15.1447 C   0  0  0  0  0  0  0  0  0  0  0  0
   21.8255  -21.7603  -14.2488 C   0  0  1  0  0  0  0  0  0  0  0  0
   21.6736  -23.1783  -13.7617 C   0  0  0  0  0  0  0  0  0  0  0  0
   21.9273  -20.8032  -13.1053 C   0  0  2  0  0  0  0  0  0  0  0  0
   23.0338  -21.1110  -12.2180 N   0  0  0  0  0  0  0  0  0  0  0  0
   20.6381  -20.7999  -12.3646 C   0  0  0  0  0  0  0  0  0  0  0  0
   20.6077  -21.3506  -11.2393 O   0  0  0  0  0  0  0  0  0  0  0  0
   19.4894  -20.2113  -12.8823 O   0  0  0  0  0  0  0  0  0  0  0  0
  2  1  1  0
  3  2  2  0
  4  2  1  0
  5  4  1  0
  6  5  1  0
  6  7  1  6
  8  6  1  0
  9  8  2  0
 11 10  1  1
 11 13  1  0
 11 12  1  0
 14 13  1  1
 14 15  1  0
 15  8  1  0
 16 17  2  0
 16 14  1  0
 19 21  1  0
 19 18  1  1
 20 19  1  0
 21 22  1  1
 22 16  1  0
 23 21  1  0
 24 23  2  0
 25 23  1  0
M  END
$$$$
