QLV.pdb
     RDKit          3D

 25 24  0  0  1  0  0  0  0  0999 V2000
   25.2160  -22.9355  -13.9935 N   0  0  0  0  0  0  0  0  0  0  0  0
   25.9621  -21.9969  -14.7745 C   0  0  0  0  0  0  0  0  0  0  0  0
   25.5706  -21.7868  -15.9427 O   0  0  0  0  0  0  0  0  0  0  0  0
   27.1463  -21.3196  -14.1910 C   0  0  0  0  0  0  0  0  0  0  0  0
   27.3098  -21.5762  -12.7150 C   0  0  0  0  0  0  0  0  0  0  0  0
   26.2754  -20.9153  -11.8645 C   0  0  2  0  0  0  0  0  0  0  0  0
   26.4560  -19.4704  -12.0375 N   0  0  0  0  0  0  0  0  0  0  0  0
   26.4755  -21.2489  -10.4035 C   0  0  0  0  0  0  0  0  0  0  0  0
   26.2113  -22.4263  -10.0499 O   0  0  0  0  0  0  0  0  0  0  0  0
   28.8441  -20.6994   -5.4259 C   0  0  0  0  0  0  0  0  0  0  0  0
   27.8518  -19.6437   -5.9005 C   0  0  1  0  0  0  0  0  0  0  0  0
   28.3464  -18.3339   -5.2597 C   0  0  0  0  0  0  0  0  0  0  0  0
   27.9239  -19.4363   -7.3779 C   0  0  0  0  0  0  0  0  0  0  0  0
   26.8969  -20.3351   -8.0555 C   0  0  2  0  0  0  0  0  0  0  0  0
   26.9353  -20.2818   -9.4928 N   0  0  0  0  0  0  0  0  0  0  0  0
   25.5505  -20.2384   -7.4711 C   0  0  0  0  0  0  0  0  0  0  0  0
   24.8573  -19.2261   -7.7567 O   0  0  0  0  0  0  0  0  0  0  0  0
   22.5023  -21.6746   -8.1592 C   0  0  0  0  0  0  0  0  0  0  0  0
   22.7072  -22.0387   -6.7038 C   0  0  1  0  0  0  0  0  0  0  0  0
   23.1611  -23.4750   -6.6590 C   0  0  0  0  0  0  0  0  0  0  0  0
   23.6899  -21.1392   -6.0261 C   0  0  2  0  0  0  0  0  0  0  0  0
   25.0109  -21.2069   -6.6233 N   0  0  0  0  0  0  0  0  0  0  0  0
   23.7422  -21.4856   -4.5812 C   0  0  0  0  0  0  0  0  0  0  0  0
   24.7793  -22.0408   -4.1491 O   0  0  0  0  0  0  0  0  0  0  0  0
   22.6876  -21.2127   -3.7168 O   0  0  0  0  0  0  0  0  0  0  0  0
  2  1  1  0
  3  2  2  0
  4  2  1  0
  5  4  1  0
  6  5  1  0
  6  7  1  1
  8  6  1  0
  9  8  2  0
 11 10  1  6
 11 13  1  0
 11 12  1  0
 14 13  1  1
 14 15  1  0
 15  8  1  0
 16 17  2  0
 16 14  1  0
 19 21  1  0
 19 18  1  6
 20 19  1  0
 21 22  1  6
 22 16  1  0
 23 21  1  0
 24 23  2  0
 25 23  1  0
M  END
$$$$
