QLV.pdb
     RDKit          3D

 25 24  0  0  1  0  0  0  0  0999 V2000
   18.0136  -14.5023  -19.4654 N   0  0  0  0  0  0  0  0  0  0  0  0
   18.9279  -15.1940  -20.3218 C   0  0  0  0  0  0  0  0  0  0  0  0
   18.4394  -15.8633  -21.2574 O   0  0  0  0  0  0  0  0  0  0  0  0
   20.3888  -15.0996  -20.0803 C   0  0  0  0  0  0  0  0  0  0  0  0
   20.7383  -14.2752  -18.8682 C   0  0  0  0  0  0  0  0  0  0  0  0
   22.2046  -14.0688  -18.6750 C   0  0  2  0  0  0  0  0  0  0  0  0
   22.7649  -15.3759  -18.3175 N   0  0  0  0  0  0  0  0  0  0  0  0
   22.4758  -13.1077  -17.5399 C   0  0  0  0  0  0  0  0  0  0  0  0
   21.7855  -13.2515  -16.4987 O   0  0  0  0  0  0  0  0  0  0  0  0
   27.4481  -12.1276  -16.0883 C   0  0  0  0  0  0  0  0  0  0  0  0
   25.9327  -12.2330  -16.2178 C   0  0  1  0  0  0  0  0  0  0  0  0
   25.4524  -12.6341  -14.8110 C   0  0  0  0  0  0  0  0  0  0  0  0
   25.3054  -10.9092  -16.5092 C   0  0  0  0  0  0  0  0  0  0  0  0
   23.8039  -11.0999  -16.6853 C   0  0  2  0  0  0  0  0  0  0  0  0
   23.4546  -12.1053  -17.6534 N   0  0  0  0  0  0  0  0  0  0  0  0
   23.0592   -9.8377  -16.8117 C   0  0  0  0  0  0  0  0  0  0  0  0
   23.1848   -9.1860  -17.8823 O   0  0  0  0  0  0  0  0  0  0  0  0
   19.8148   -9.0786  -17.4997 C   0  0  0  0  0  0  0  0  0  0  0  0
   20.0257   -8.3320  -16.1993 C   0  0  1  0  0  0  0  0  0  0  0  0
   19.3709   -9.1376  -15.1069 C   0  0  0  0  0  0  0  0  0  0  0  0
   21.4726   -8.0985  -15.9065 C   0  0  2  0  0  0  0  0  0  0  0  0
   22.2279   -9.3340  -15.8100 N   0  0  0  0  0  0  0  0  0  0  0  0
   21.5882   -7.3065  -14.6536 C   0  0  0  0  0  0  0  0  0  0  0  0
   22.0309   -7.8849  -13.6338 O   0  0  0  0  0  0  0  0  0  0  0  0
   21.2233   -5.9661  -14.5897 O   0  0  0  0  0  0  0  0  0  0  0  0
  2  1  1  0
  3  2  2  0
  4  2  1  0
  5  4  1  0
  6  5  1  0
  6  7  1  1
  8  6  1  0
  9  8  2  0
 11 10  1  1
 11 13  1  0
 11 12  1  0
 14 13  1  6
 14 15  1  0
 15  8  1  0
 16 17  2  0
 16 14  1  0
 19 21  1  0
 19 18  1  6
 20 19  1  0
 21 22  1  1
 22 16  1  0
 23 21  1  0
 24 23  2  0
 25 23  1  0
M  END
$$$$
