QLV.pdb
     RDKit          3D

 25 24  0  0  1  0  0  0  0  0999 V2000
   23.3077  -17.8807  -15.9616 N   0  0  0  0  0  0  0  0  0  0  0  0
   24.5679  -18.5421  -16.1105 C   0  0  0  0  0  0  0  0  0  0  0  0
   25.5814  -17.8205  -16.2288 O   0  0  0  0  0  0  0  0  0  0  0  0
   24.6327  -20.0245  -16.1205 C   0  0  0  0  0  0  0  0  0  0  0  0
   24.5837  -20.6303  -14.7415 C   0  0  0  0  0  0  0  0  0  0  0  0
   25.8111  -20.3871  -13.9263 C   0  0  2  0  0  0  0  0  0  0  0  0
   26.9037  -21.0982  -14.5977 N   0  0  0  0  0  0  0  0  0  0  0  0
   25.6611  -20.9519  -12.5319 C   0  0  0  0  0  0  0  0  0  0  0  0
   25.1976  -22.1172  -12.4395 O   0  0  0  0  0  0  0  0  0  0  0  0
   26.7129  -21.3611   -7.3110 C   0  0  0  0  0  0  0  0  0  0  0  0
   26.0617  -20.0241   -7.6466 C   0  0  1  0  0  0  0  0  0  0  0  0
   26.7291  -19.0192   -6.6898 C   0  0  0  0  0  0  0  0  0  0  0  0
   26.4017  -19.5706   -9.0285 C   0  0  0  0  0  0  0  0  0  0  0  0
   25.6363  -20.4235  -10.0328 C   0  0  2  0  0  0  0  0  0  0  0  0
   26.0252  -20.2019  -11.4002 N   0  0  0  0  0  0  0  0  0  0  0  0
   24.1839  -20.4475   -9.8014 C   0  0  0  0  0  0  0  0  0  0  0  0
   23.5238  -19.4179  -10.1028 O   0  0  0  0  0  0  0  0  0  0  0  0
   19.8207  -22.3157   -9.7290 C   0  0  0  0  0  0  0  0  0  0  0  0
   21.3010  -22.2711  -10.0445 C   0  0  1  0  0  0  0  0  0  0  0  0
   21.4573  -21.5742  -11.3715 C   0  0  0  0  0  0  0  0  0  0  0  0
   22.0891  -21.5842   -8.9763 C   0  0  2  0  0  0  0  0  0  0  0  0
   23.5102  -21.5477   -9.2688 N   0  0  0  0  0  0  0  0  0  0  0  0
   21.8317  -22.2614   -7.6780 C   0  0  0  0  0  0  0  0  0  0  0  0
   20.6990  -22.1237   -7.1599 O   0  0  0  0  0  0  0  0  0  0  0  0
   22.8001  -23.0284   -7.0393 O   0  0  0  0  0  0  0  0  0  0  0  0
  2  1  1  0
  3  2  2  0
  4  2  1  0
  5  4  1  0
  6  5  1  0
  6  7  1  6
  8  6  1  0
  9  8  2  0
 11 10  1  1
 11 13  1  0
 11 12  1  0
 14 13  1  1
 14 15  1  0
 15  8  1  0
 16 17  2  0
 16 14  1  0
 19 21  1  0
 19 18  1  1
 20 19  1  0
 21 22  1  6
 22 16  1  0
 23 21  1  0
 24 23  2  0
 25 23  1  0
M  END
$$$$
