WWK.pdb
     RDKit          3D

 38 41  0  0  1  0  0  0  0  0999 V2000
    8.2810  -16.4506   21.5122 N   0  0  0  0  0  0  0  0  0  0  0  0
    9.0901  -15.3492   22.0036 C   0  0  1  0  0  0  0  0  0  0  0  0
    8.2296  -14.1027   21.8087 C   0  0  0  0  0  0  0  0  0  0  0  0
    7.9961  -13.8556   20.3783 C   0  0  0  0  0  0  0  0  0  0  0  0
    6.7725  -13.6062   19.7424 C   0  0  0  0  0  0  0  0  0  0  0  0
    6.9732  -13.4328   18.4420 N   0  0  0  0  0  0  0  0  0  0  0  0
    8.2949  -13.5640   18.2238 C   0  0  0  0  0  0  0  0  0  0  0  0
    9.0282  -13.4799   17.0741 C   0  0  0  0  0  0  0  0  0  0  0  0
   10.3989  -13.6547   17.0999 C   0  0  0  0  0  0  0  0  0  0  0  0
   11.0862  -13.9182   18.2659 C   0  0  0  0  0  0  0  0  0  0  0  0
   10.3235  -14.0014   19.4327 C   0  0  0  0  0  0  0  0  0  0  0  0
    8.9640  -13.8277   19.4046 C   0  0  0  0  0  0  0  0  0  0  0  0
    9.3698  -15.5795   23.4282 C   0  0  0  0  0  0  0  0  0  0  0  0
   10.0729  -14.7517   24.0594 O   0  0  0  0  0  0  0  0  0  0  0  0
    8.9120  -16.6753   24.1825 N   0  0  0  0  0  0  0  0  0  0  0  0
    9.2358  -16.8787   25.5748 C   0  0  1  0  0  0  0  0  0  0  0  0
    8.0775  -16.9407   26.4855 C   0  0  0  0  0  0  0  0  0  0  0  0
    7.1852  -15.7900   26.2200 C   0  0  0  0  0  0  0  0  0  0  0  0
    5.9724  -15.6881   25.5915 C   0  0  0  0  0  0  0  0  0  0  0  0
    5.5818  -14.4001   25.6031 N   0  0  0  0  0  0  0  0  0  0  0  0
    6.5006  -13.6410   26.2218 C   0  0  0  0  0  0  0  0  0  0  0  0
    6.6070  -12.2836   26.5078 C   0  0  0  0  0  0  0  0  0  0  0  0
    7.6902  -11.7489   27.1736 C   0  0  0  0  0  0  0  0  0  0  0  0
    8.6940  -12.6035   27.5623 C   0  0  0  0  0  0  0  0  0  0  0  0
    8.5870  -13.9689   27.2745 C   0  0  0  0  0  0  0  0  0  0  0  0
    7.4951  -14.4836   26.6077 C   0  0  0  0  0  0  0  0  0  0  0  0
    9.9858  -18.1560   25.6524 C   0  0  0  0  0  0  0  0  0  0  0  0
   10.1511  -18.8184   24.6037 O   0  0  0  0  0  0  0  0  0  0  0  0
   10.5015  -18.6155   26.8774 N   0  0  0  0  0  0  0  0  0  0  0  0
   11.5279  -19.7175   26.9478 C   0  0  1  0  0  0  0  0  0  0  0  0
   12.7111  -19.2731   26.1958 C   0  0  0  0  0  0  0  0  0  0  0  0
   13.1753  -19.8268   24.9439 C   0  0  0  0  0  0  0  0  0  0  0  0
   14.3468  -19.3555   24.1983 C   0  0  0  0  0  0  0  0  0  0  0  0
   14.4068  -20.2821   22.9260 C   0  0  0  0  0  0  0  0  0  0  0  0
   15.5103  -19.7509   22.1483 N   0  0  0  0  0  0  0  0  0  0  0  0
   11.8000  -19.9125   28.3865 C   0  0  0  0  0  0  0  0  0  0  0  0
   12.1094  -19.0441   29.2204 O   0  0  0  0  0  0  0  0  0  0  0  0
   11.7079  -21.2227   28.9144 O   0  0  0  0  0  0  0  0  0  0  0  0
  2  1  1  1
  2  3  1  0
  3  4  1  0
  4  5  2  0
  6  5  1  0
  7  6  1  0
  8  7  2  0
  9  8  1  0
 10  9  2  0
 10 11  1  0
 11 12  2  0
 12  7  1  0
 12  4  1  0
 13  2  1  0
 13 15  1  0
 14 13  2  0
 16 15  1  0
 16 17  1  1
 18 17  1  0
 18 26  1  0
 19 18  2  0
 20 19  1  0
 20 21  1  0
 21 22  1  0
 21 26  2  0
 22 23  2  0
 23 24  1  0
 25 24  2  0
 26 25  1  0
 27 16  1  0
 28 27  2  0
 29 27  1  0
 30 31  1  6
 30 29  1  0
 32 31  1  0
 33 32  1  0
 34 33  1  0
 35 34  1  0
 36 38  1  0
 36 30  1  0
 37 36  2  0
M  END
$$$$
