WWK.pdb
     RDKit          3D

 38 41  0  0  1  0  0  0  0  0999 V2000
    8.4501  -16.7512   21.4967 N   0  0  0  0  0  0  0  0  0  0  0  0
    8.7455  -15.3742   21.8512 C   0  0  1  0  0  0  0  0  0  0  0  0
    7.4330  -14.6194   21.6514 C   0  0  0  0  0  0  0  0  0  0  0  0
    7.0549  -14.6095   20.2307 C   0  0  0  0  0  0  0  0  0  0  0  0
    6.0779  -15.3919   19.6006 C   0  0  0  0  0  0  0  0  0  0  0  0
    6.0322  -15.0924   18.3084 N   0  0  0  0  0  0  0  0  0  0  0  0
    6.9547  -14.1371   18.0899 C   0  0  0  0  0  0  0  0  0  0  0  0
    7.3159  -13.4817   16.9467 C   0  0  0  0  0  0  0  0  0  0  0  0
    8.3098  -12.5216   16.9706 C   0  0  0  0  0  0  0  0  0  0  0  0
    8.9772  -12.1807   18.1281 C   0  0  0  0  0  0  0  0  0  0  0  0
    8.5974  -12.8589   19.2882 C   0  0  0  0  0  0  0  0  0  0  0  0
    7.6113  -13.8108   19.2621 C   0  0  0  0  0  0  0  0  0  0  0  0
    9.1654  -15.3384   23.2594 C   0  0  0  0  0  0  0  0  0  0  0  0
    9.4465  -14.2352   23.7903 O   0  0  0  0  0  0  0  0  0  0  0  0
    9.2888  -16.4580   24.1025 N   0  0  0  0  0  0  0  0  0  0  0  0
    9.8892  -16.4084   25.4147 C   0  0  1  0  0  0  0  0  0  0  0  0
    8.9571  -16.6129   26.5390 C   0  0  0  0  0  0  0  0  0  0  0  0
    7.7518  -15.7791   26.3323 C   0  0  0  0  0  0  0  0  0  0  0  0
    6.4945  -16.0715   25.8739 C   0  0  0  0  0  0  0  0  0  0  0  0
    5.7607  -14.9432   25.8629 N   0  0  0  0  0  0  0  0  0  0  0  0
    6.4941  -13.9071   26.3013 C   0  0  0  0  0  0  0  0  0  0  0  0
    6.2461  -12.5509   26.4882 C   0  0  0  0  0  0  0  0  0  0  0  0
    7.2048  -11.6806   26.9636 C   0  0  0  0  0  0  0  0  0  0  0  0
    8.4472  -12.1889   27.2589 C   0  0  0  0  0  0  0  0  0  0  0  0
    8.6966  -13.5530   27.0708 C   0  0  0  0  0  0  0  0  0  0  0  0
    7.7239  -14.4066   26.5944 C   0  0  0  0  0  0  0  0  0  0  0  0
   10.9285  -17.4662   25.4445 C   0  0  0  0  0  0  0  0  0  0  0  0
   10.5652  -18.6609   25.5249 O   0  0  0  0  0  0  0  0  0  0  0  0
   12.2942  -17.1364   25.3837 N   0  0  0  0  0  0  0  0  0  0  0  0
   13.3494  -18.1636   25.0604 C   0  0  1  0  0  0  0  0  0  0  0  0
   14.5218  -17.4478   24.5348 C   0  0  0  0  0  0  0  0  0  0  0  0
   15.8110  -18.0335   24.2450 C   0  0  0  0  0  0  0  0  0  0  0  0
   16.8321  -17.4342   23.3797 C   0  0  0  0  0  0  0  0  0  0  0  0
   17.9854  -18.5057   23.3257 C   0  0  0  0  0  0  0  0  0  0  0  0
   18.9734  -17.9233   22.4373 N   0  0  0  0  0  0  0  0  0  0  0  0
   13.6239  -18.8619   26.3328 C   0  0  0  0  0  0  0  0  0  0  0  0
   14.1812  -19.9626   26.4843 O   0  0  0  0  0  0  0  0  0  0  0  0
   13.2226  -18.2394   27.5390 O   0  0  0  0  0  0  0  0  0  0  0  0
  2  1  1  1
  2  3  1  0
  3  4  1  0
  4  5  2  0
  6  5  1  0
  7  6  1  0
  8  7  2  0
  9  8  1  0
 10  9  2  0
 10 11  1  0
 11 12  2  0
 12  7  1  0
 12  4  1  0
 13  2  1  0
 13 15  1  0
 14 13  2  0
 16 15  1  0
 16 17  1  1
 18 17  1  0
 18 26  1  0
 19 18  2  0
 20 19  1  0
 20 21  1  0
 21 22  1  0
 21 26  2  0
 22 23  2  0
 23 24  1  0
 25 24  2  0
 26 25  1  0
 27 16  1  0
 28 27  2  0
 29 27  1  0
 30 31  1  1
 30 29  1  0
 32 31  1  0
 33 32  1  0
 34 33  1  0
 35 34  1  0
 36 38  1  0
 36 30  1  0
 37 36  2  0
M  END
$$$$
