WWK.pdb
     RDKit          3D

 38 41  0  0  1  0  0  0  0  0999 V2000
    7.6381  -19.1327   27.3762 N   0  0  0  0  0  0  0  0  0  0  0  0
    8.2148  -18.0065   26.6634 C   0  0  1  0  0  0  0  0  0  0  0  0
    9.7225  -18.1299   26.8734 C   0  0  0  0  0  0  0  0  0  0  0  0
   10.1430  -17.3634   28.0554 C   0  0  0  0  0  0  0  0  0  0  0  0
   10.4498  -17.8579   29.3303 C   0  0  0  0  0  0  0  0  0  0  0  0
   10.7883  -16.8531   30.1285 N   0  0  0  0  0  0  0  0  0  0  0  0
   10.7075  -15.7238   29.4005 C   0  0  0  0  0  0  0  0  0  0  0  0
   10.9473  -14.4208   29.7342 C   0  0  0  0  0  0  0  0  0  0  0  0
   10.7936  -13.4154   28.7985 C   0  0  0  0  0  0  0  0  0  0  0  0
   10.3974  -13.6696   27.5024 C   0  0  0  0  0  0  0  0  0  0  0  0
   10.1559  -15.0057   27.1761 C   0  0  0  0  0  0  0  0  0  0  0  0
   10.3090  -16.0012   28.1060 C   0  0  0  0  0  0  0  0  0  0  0  0
    7.8685  -18.1325   25.2404 C   0  0  0  0  0  0  0  0  0  0  0  0
    7.8491  -19.2710   24.7099 O   0  0  0  0  0  0  0  0  0  0  0  0
    7.5455  -17.0657   24.3819 N   0  0  0  0  0  0  0  0  0  0  0  0
    7.3688  -17.2119   22.9564 C   0  0  1  0  0  0  0  0  0  0  0  0
    6.6405  -16.1111   22.2986 C   0  0  0  0  0  0  0  0  0  0  0  0
    7.2393  -14.8191   22.7024 C   0  0  0  0  0  0  0  0  0  0  0  0
    8.2283  -14.0479   22.1516 C   0  0  0  0  0  0  0  0  0  0  0  0
    8.4115  -12.9586   22.9206 N   0  0  0  0  0  0  0  0  0  0  0  0
    7.5719  -12.9826   23.9685 C   0  0  0  0  0  0  0  0  0  0  0  0
    7.3398  -12.1353   25.0474 C   0  0  0  0  0  0  0  0  0  0  0  0
    6.3910  -12.4055   26.0114 C   0  0  0  0  0  0  0  0  0  0  0  0
    5.6557  -13.5599   25.8865 C   0  0  0  0  0  0  0  0  0  0  0  0
    5.8893  -14.4122   24.8012 C   0  0  0  0  0  0  0  0  0  0  0  0
    6.8429  -14.1235   23.8478 C   0  0  0  0  0  0  0  0  0  0  0  0
    8.7272  -17.3164   22.3703 C   0  0  0  0  0  0  0  0  0  0  0  0
    9.7159  -17.1063   23.1081 O   0  0  0  0  0  0  0  0  0  0  0  0
    8.9037  -17.6447   21.0143 N   0  0  0  0  0  0  0  0  0  0  0  0
   10.2097  -18.1824   20.4871 C   0  0  1  0  0  0  0  0  0  0  0  0
    9.9821  -18.6289   19.1043 C   0  0  0  0  0  0  0  0  0  0  0  0
   10.9619  -19.2529   18.2443 C   0  0  0  0  0  0  0  0  0  0  0  0
   10.7096  -19.7092   16.8737 C   0  0  0  0  0  0  0  0  0  0  0  0
   12.1291  -20.1102   16.3211 C   0  0  0  0  0  0  0  0  0  0  0  0
   11.8485  -20.7726   15.0613 N   0  0  0  0  0  0  0  0  0  0  0  0
   11.1652  -17.0597   20.5795 C   0  0  0  0  0  0  0  0  0  0  0  0
   12.2266  -17.0235   21.2256 O   0  0  0  0  0  0  0  0  0  0  0  0
   10.8755  -15.8725   19.8652 O   0  0  0  0  0  0  0  0  0  0  0  0
  2  1  1  1
  2  3  1  0
  3  4  1  0
  4  5  2  0
  6  5  1  0
  7  6  1  0
  8  7  2  0
  9  8  1  0
 10  9  2  0
 10 11  1  0
 11 12  2  0
 12  7  1  0
 12  4  1  0
 13  2  1  0
 13 15  1  0
 14 13  2  0
 16 15  1  0
 16 17  1  6
 18 17  1  0
 18 26  1  0
 19 18  2  0
 20 19  1  0
 20 21  1  0
 21 22  1  0
 21 26  2  0
 22 23  2  0
 23 24  1  0
 25 24  2  0
 26 25  1  0
 27 16  1  0
 28 27  2  0
 29 27  1  0
 30 31  1  6
 30 29  1  0
 32 31  1  0
 33 32  1  0
 34 33  1  0
 35 34  1  0
 36 38  1  0
 36 30  1  0
 37 36  2  0
M  END
$$$$
