WWK.pdb
     RDKit          3D

 38 41  0  0  1  0  0  0  0  0999 V2000
   10.4579  -15.8680   21.1447 N   0  0  0  0  0  0  0  0  0  0  0  0
    9.3302  -15.8704   22.0598 C   0  0  1  0  0  0  0  0  0  0  0  0
    8.2246  -16.6303   21.3301 C   0  0  0  0  0  0  0  0  0  0  0  0
    7.5283  -15.7457   20.3845 C   0  0  0  0  0  0  0  0  0  0  0  0
    6.4387  -16.0619   19.5619 C   0  0  0  0  0  0  0  0  0  0  0  0
    6.0930  -14.9959   18.8508 N   0  0  0  0  0  0  0  0  0  0  0  0
    6.9320  -14.0010   19.1943 C   0  0  0  0  0  0  0  0  0  0  0  0
    7.0136  -12.7064   18.7653 C   0  0  0  0  0  0  0  0  0  0  0  0
    7.9779  -11.8566   19.2732 C   0  0  0  0  0  0  0  0  0  0  0  0
    8.8919  -12.2630   20.2224 C   0  0  0  0  0  0  0  0  0  0  0  0
    8.7963  -13.5886   20.6510 C   0  0  0  0  0  0  0  0  0  0  0  0
    7.8390  -14.4296   20.1457 C   0  0  0  0  0  0  0  0  0  0  0  0
    9.7313  -16.5726   23.2873 C   0  0  0  0  0  0  0  0  0  0  0  0
   10.9044  -17.0097   23.3914 O   0  0  0  0  0  0  0  0  0  0  0  0
    8.9013  -16.8133   24.3975 N   0  0  0  0  0  0  0  0  0  0  0  0
    9.3857  -16.8942   25.7553 C   0  0  1  0  0  0  0  0  0  0  0  0
    8.3732  -16.6450   26.7982 C   0  0  0  0  0  0  0  0  0  0  0  0
    7.5268  -15.5001   26.3938 C   0  0  0  0  0  0  0  0  0  0  0  0
    6.2695  -15.4264   25.8551 C   0  0  0  0  0  0  0  0  0  0  0  0
    5.9549  -14.1329   25.6568 N   0  0  0  0  0  0  0  0  0  0  0  0
    6.9676  -13.3426   26.0483 C   0  0  0  0  0  0  0  0  0  0  0  0
    7.1759  -11.9671   26.0665 C   0  0  0  0  0  0  0  0  0  0  0  0
    8.3436  -11.4003   26.5331 C   0  0  0  0  0  0  0  0  0  0  0  0
    9.3287  -12.2406   26.9940 C   0  0  0  0  0  0  0  0  0  0  0  0
    9.1192  -13.6242   26.9756 C   0  0  0  0  0  0  0  0  0  0  0  0
    7.9439  -14.1709   26.5050 C   0  0  0  0  0  0  0  0  0  0  0  0
    9.9364  -18.2606   25.9272 C   0  0  0  0  0  0  0  0  0  0  0  0
    9.1572  -19.2359   25.8409 O   0  0  0  0  0  0  0  0  0  0  0  0
   11.3052  -18.4590   26.1816 N   0  0  0  0  0  0  0  0  0  0  0  0
   11.8997  -19.8377   26.3179 C   0  0  1  0  0  0  0  0  0  0  0  0
   13.2677  -19.7883   25.7800 C   0  0  0  0  0  0  0  0  0  0  0  0
   14.1831  -20.9034   25.6917 C   0  0  0  0  0  0  0  0  0  0  0  0
   15.5745  -20.8158   25.2369 C   0  0  0  0  0  0  0  0  0  0  0  0
   16.1314  -22.2825   25.3783 C   0  0  0  0  0  0  0  0  0  0  0  0
   17.5069  -22.1879   24.9267 N   0  0  0  0  0  0  0  0  0  0  0  0
   11.8598  -20.1440   27.7624 C   0  0  0  0  0  0  0  0  0  0  0  0
   11.9664  -21.2596   28.3003 O   0  0  0  0  0  0  0  0  0  0  0  0
   11.6822  -19.0725   28.6701 O   0  0  0  0  0  0  0  0  0  0  0  0
  2  1  1  6
  2  3  1  0
  3  4  1  0
  4  5  2  0
  6  5  1  0
  7  6  1  0
  8  7  2  0
  9  8  1  0
 10  9  2  0
 10 11  1  0
 11 12  2  0
 12  7  1  0
 12  4  1  0
 13  2  1  0
 13 15  1  0
 14 13  2  0
 16 15  1  0
 16 17  1  1
 18 17  1  0
 18 26  1  0
 19 18  2  0
 20 19  1  0
 20 21  1  0
 21 22  1  0
 21 26  2  0
 22 23  2  0
 23 24  1  0
 25 24  2  0
 26 25  1  0
 27 16  1  0
 28 27  2  0
 29 27  1  0
 30 31  1  1
 30 29  1  0
 32 31  1  0
 33 32  1  0
 34 33  1  0
 35 34  1  0
 36 38  1  0
 36 30  1  0
 37 36  2  0
M  END
$$$$
