WWK.pdb
     RDKit          3D

 38 41  0  0  1  0  0  0  0  0999 V2000
    8.2573  -16.5458   21.6665 N   0  0  0  0  0  0  0  0  0  0  0  0
    9.0152  -15.3968   22.1297 C   0  0  1  0  0  0  0  0  0  0  0  0
    8.0827  -14.2016   21.9447 C   0  0  0  0  0  0  0  0  0  0  0  0
    7.7760  -14.0023   20.5206 C   0  0  0  0  0  0  0  0  0  0  0  0
    6.5396  -14.1652   19.8815 C   0  0  0  0  0  0  0  0  0  0  0  0
    6.6664  -13.8909   18.5891 N   0  0  0  0  0  0  0  0  0  0  0  0
    7.9529  -13.5554   18.3794 C   0  0  0  0  0  0  0  0  0  0  0  0
    8.6111  -13.1881   17.2398 C   0  0  0  0  0  0  0  0  0  0  0  0
    9.9591  -12.8847   17.2730 C   0  0  0  0  0  0  0  0  0  0  0  0
   10.6973  -12.9358   18.4366 C   0  0  0  0  0  0  0  0  0  0  0  0
   10.0112  -13.3128   19.5929 C   0  0  0  0  0  0  0  0  0  0  0  0
    8.6742  -13.6133   19.5575 C   0  0  0  0  0  0  0  0  0  0  0  0
    9.3397  -15.5977   23.5492 C   0  0  0  0  0  0  0  0  0  0  0  0
    9.9610  -14.7008   24.1718 O   0  0  0  0  0  0  0  0  0  0  0  0
    9.0121  -16.7366   24.3076 N   0  0  0  0  0  0  0  0  0  0  0  0
    9.4433  -16.9409   25.6703 C   0  0  1  0  0  0  0  0  0  0  0  0
    8.3630  -16.9580   26.6740 C   0  0  0  0  0  0  0  0  0  0  0  0
    7.3966  -15.8789   26.3700 C   0  0  0  0  0  0  0  0  0  0  0  0
    6.1570  -15.8870   25.7871 C   0  0  0  0  0  0  0  0  0  0  0  0
    5.6937  -14.6247   25.7294 N   0  0  0  0  0  0  0  0  0  0  0  0
    6.5901  -13.7756   26.2576 C   0  0  0  0  0  0  0  0  0  0  0  0
    6.6289  -12.3979   26.4481 C   0  0  0  0  0  0  0  0  0  0  0  0
    7.7039  -11.7602   27.0313 C   0  0  0  0  0  0  0  0  0  0  0  0
    8.7692  -12.5298   27.4338 C   0  0  0  0  0  0  0  0  0  0  0  0
    8.7301  -13.9156   27.2421 C   0  0  0  0  0  0  0  0  0  0  0  0
    7.6452  -14.5339   26.6569 C   0  0  0  0  0  0  0  0  0  0  0  0
   10.1551  -18.2418   25.6982 C   0  0  0  0  0  0  0  0  0  0  0  0
    9.6123  -19.2334   25.1614 O   0  0  0  0  0  0  0  0  0  0  0  0
   11.4138  -18.3615   26.3139 N   0  0  0  0  0  0  0  0  0  0  0  0
   12.1311  -19.6838   26.4128 C   0  0  1  0  0  0  0  0  0  0  0  0
   13.5511  -19.4439   26.1146 C   0  0  0  0  0  0  0  0  0  0  0  0
   14.6128  -20.4200   26.2108 C   0  0  0  0  0  0  0  0  0  0  0  0
   16.0248  -20.1597   25.9128 C   0  0  0  0  0  0  0  0  0  0  0  0
   16.7338  -21.5537   26.1005 C   0  0  0  0  0  0  0  0  0  0  0  0
   18.1056  -21.3150   25.6933 N   0  0  0  0  0  0  0  0  0  0  0  0
   11.9045  -20.1538   27.7947 C   0  0  0  0  0  0  0  0  0  0  0  0
   11.5072  -19.4842   28.7638 O   0  0  0  0  0  0  0  0  0  0  0  0
   12.1565  -21.5151   28.0895 O   0  0  0  0  0  0  0  0  0  0  0  0
  2  1  1  1
  2  3  1  0
  3  4  1  0
  4  5  2  0
  6  5  1  0
  7  6  1  0
  8  7  2  0
  9  8  1  0
 10  9  2  0
 10 11  1  0
 11 12  2  0
 12  7  1  0
 12  4  1  0
 13  2  1  0
 13 15  1  0
 14 13  2  0
 16 15  1  0
 16 17  1  1
 18 17  1  0
 18 26  1  0
 19 18  2  0
 20 19  1  0
 20 21  1  0
 21 22  1  0
 21 26  2  0
 22 23  2  0
 23 24  1  0
 25 24  2  0
 26 25  1  0
 27 16  1  0
 28 27  2  0
 29 27  1  0
 30 31  1  1
 30 29  1  0
 32 31  1  0
 33 32  1  0
 34 33  1  0
 35 34  1  0
 36 38  1  0
 36 30  1  0
 37 36  2  0
M  END
$$$$
