WWK.pdb
     RDKit          3D

 38 41  0  0  1  0  0  0  0  0999 V2000
    7.3326  -20.5543   25.0967 N   0  0  0  0  0  0  0  0  0  0  0  0
    7.6142  -19.1766   25.4597 C   0  0  1  0  0  0  0  0  0  0  0  0
    8.9992  -19.2074   26.1026 C   0  0  0  0  0  0  0  0  0  0  0  0
    8.9691  -18.5625   27.4235 C   0  0  0  0  0  0  0  0  0  0  0  0
    8.5400  -19.1178   28.6365 C   0  0  0  0  0  0  0  0  0  0  0  0
    8.6664  -18.2210   29.6066 N   0  0  0  0  0  0  0  0  0  0  0  0
    9.1660  -17.1021   29.0497 C   0  0  0  0  0  0  0  0  0  0  0  0
    9.4841  -15.8912   29.5968 C   0  0  0  0  0  0  0  0  0  0  0  0
    9.9920  -14.8753   28.8093 C   0  0  0  0  0  0  0  0  0  0  0  0
   10.2007  -15.0274   27.4548 C   0  0  0  0  0  0  0  0  0  0  0  0
    9.8710  -16.2701   26.9099 C   0  0  0  0  0  0  0  0  0  0  0  0
    9.3673  -17.2762   27.6929 C   0  0  0  0  0  0  0  0  0  0  0  0
    7.6202  -18.3664   24.2332 C   0  0  0  0  0  0  0  0  0  0  0  0
    7.8361  -18.9235   23.1282 O   0  0  0  0  0  0  0  0  0  0  0  0
    7.4006  -16.9781   24.1716 N   0  0  0  0  0  0  0  0  0  0  0  0
    7.5490  -16.1978   22.9659 C   0  0  1  0  0  0  0  0  0  0  0  0
    6.9123  -14.8679   22.9971 C   0  0  0  0  0  0  0  0  0  0  0  0
    6.6668  -14.4768   24.4034 C   0  0  0  0  0  0  0  0  0  0  0  0
    6.1492  -15.1570   25.4738 C   0  0  0  0  0  0  0  0  0  0  0  0
    6.1247  -14.3374   26.5411 N   0  0  0  0  0  0  0  0  0  0  0  0
    6.6116  -13.1300   26.2117 C   0  0  0  0  0  0  0  0  0  0  0  0
    6.8098  -11.9399   26.9046 C   0  0  0  0  0  0  0  0  0  0  0  0
    7.3408  -10.8149   26.3089 C   0  0  0  0  0  0  0  0  0  0  0  0
    7.6817  -10.8894   24.9795 C   0  0  0  0  0  0  0  0  0  0  0  0
    7.4823  -12.0865   24.2826 C   0  0  0  0  0  0  0  0  0  0  0  0
    6.9500  -13.2004   24.8970 C   0  0  0  0  0  0  0  0  0  0  0  0
    9.0065  -16.0354   22.7438 C   0  0  0  0  0  0  0  0  0  0  0  0
    9.4018  -15.6433   21.6231 O   0  0  0  0  0  0  0  0  0  0  0  0
    9.9272  -16.3150   23.7694 N   0  0  0  0  0  0  0  0  0  0  0  0
   11.4081  -16.0936   23.5942 C   0  0  1  0  0  0  0  0  0  0  0  0
   12.0842  -16.6452   24.7782 C   0  0  0  0  0  0  0  0  0  0  0  0
   13.4999  -16.9112   24.8971 C   0  0  0  0  0  0  0  0  0  0  0  0
   14.1600  -17.4333   26.0980 C   0  0  0  0  0  0  0  0  0  0  0  0
   15.5718  -17.9188   25.5957 C   0  0  0  0  0  0  0  0  0  0  0  0
   16.4945  -16.9205   26.1022 N   0  0  0  0  0  0  0  0  0  0  0  0
   11.7678  -16.7968   22.3461 C   0  0  0  0  0  0  0  0  0  0  0  0
   11.3734  -17.9135   21.9686 O   0  0  0  0  0  0  0  0  0  0  0  0
   12.6605  -16.1595   21.4512 O   0  0  0  0  0  0  0  0  0  0  0  0
  2  1  1  6
  2  3  1  0
  3  4  1  0
  4  5  2  0
  6  5  1  0
  7  6  1  0
  8  7  2  0
  9  8  1  0
 10  9  2  0
 10 11  1  0
 11 12  2  0
 12  7  1  0
 12  4  1  0
 13  2  1  0
 13 15  1  0
 14 13  2  0
 16 15  1  0
 16 17  1  1
 18 17  1  0
 18 26  1  0
 19 18  2  0
 20 19  1  0
 20 21  1  0
 21 22  1  0
 21 26  2  0
 22 23  2  0
 23 24  1  0
 25 24  2  0
 26 25  1  0
 27 16  1  0
 28 27  2  0
 29 27  1  0
 30 31  1  1
 30 29  1  0
 32 31  1  0
 33 32  1  0
 34 33  1  0
 35 34  1  0
 36 38  1  0
 36 30  1  0
 37 36  2  0
M  END
$$$$
