WWK.pdb
     RDKit          3D

 38 41  0  0  1  0  0  0  0  0999 V2000
   13.7896  -85.0520   41.8768 N   0  0  0  0  0  0  0  0  0  0  0  0
   12.7169  -85.4561   42.7686 C   0  0  1  0  0  0  0  0  0  0  0  0
   13.3005  -86.5909   43.6077 C   0  0  0  0  0  0  0  0  0  0  0  0
   12.4374  -87.7791   43.5398 C   0  0  0  0  0  0  0  0  0  0  0  0
   11.4322  -88.0532   42.6027 C   0  0  0  0  0  0  0  0  0  0  0  0
   10.8768  -89.2273   42.8753 N   0  0  0  0  0  0  0  0  0  0  0  0
   11.4986  -89.7168   43.9641 C   0  0  0  0  0  0  0  0  0  0  0  0
   11.3161  -90.8811   44.6554 C   0  0  0  0  0  0  0  0  0  0  0  0
   12.0901  -91.1699   45.7634 C   0  0  0  0  0  0  0  0  0  0  0  0
   13.0694  -90.3138   46.2213 C   0  0  0  0  0  0  0  0  0  0  0  0
   13.2442  -89.1281   45.5049 C   0  0  0  0  0  0  0  0  0  0  0  0
   12.4753  -88.8438   44.4062 C   0  0  0  0  0  0  0  0  0  0  0  0
   12.3583  -84.3070   43.6121 C   0  0  0  0  0  0  0  0  0  0  0  0
   12.5307  -84.3774   44.8544 O   0  0  0  0  0  0  0  0  0  0  0  0
   11.8209  -83.0918   43.1495 N   0  0  0  0  0  0  0  0  0  0  0  0
   10.4057  -82.8508   42.9950 C   0  0  1  0  0  0  0  0  0  0  0  0
    9.5481  -83.4717   44.0216 C   0  0  0  0  0  0  0  0  0  0  0  0
   10.3176  -83.6188   45.2773 C   0  0  0  0  0  0  0  0  0  0  0  0
   10.1318  -83.1164   46.5381 C   0  0  0  0  0  0  0  0  0  0  0  0
   11.1335  -83.5425   47.3296 N   0  0  0  0  0  0  0  0  0  0  0  0
   11.9817  -84.3148   46.6314 C   0  0  0  0  0  0  0  0  0  0  0  0
   13.1541  -84.9969   46.9408 C   0  0  0  0  0  0  0  0  0  0  0  0
   13.8498  -85.7366   46.0073 C   0  0  0  0  0  0  0  0  0  0  0  0
   13.3522  -85.7914   44.7274 C   0  0  0  0  0  0  0  0  0  0  0  0
   12.1728  -85.1052   44.4161 C   0  0  0  0  0  0  0  0  0  0  0  0
   11.4921  -84.3712   45.3645 C   0  0  0  0  0  0  0  0  0  0  0  0
   10.2208  -81.3796   43.0301 C   0  0  0  0  0  0  0  0  0  0  0  0
   11.0659  -80.6839   43.6365 O   0  0  0  0  0  0  0  0  0  0  0  0
    9.1201  -80.7763   42.3960 N   0  0  0  0  0  0  0  0  0  0  0  0
    8.4467  -81.4014   41.2008 C   0  0  1  0  0  0  0  0  0  0  0  0
    7.0897  -80.8417   41.1105 C   0  0  0  0  0  0  0  0  0  0  0  0
    6.6340  -79.8805   40.1319 C   0  0  0  0  0  0  0  0  0  0  0  0
    7.1849  -78.5328   39.9563 C   0  0  0  0  0  0  0  0  0  0  0  0
    7.6936  -78.1219   41.3892 C   0  0  0  0  0  0  0  0  0  0  0  0
    6.8652  -76.9873   41.7513 N   0  0  0  0  0  0  0  0  0  0  0  0
    9.2927  -81.0499   40.0420 C   0  0  0  0  0  0  0  0  0  0  0  0
    9.3645  -79.9507   39.4660 O   0  0  0  0  0  0  0  0  0  0  0  0
   10.1316  -82.0510   39.4964 O   0  0  0  0  0  0  0  0  0  0  0  0
  2  1  1  6
  2  3  1  0
  3  4  1  0
  4  5  2  0
  6  5  1  0
  7  6  1  0
  8  7  2  0
  9  8  1  0
 10  9  2  0
 10 11  1  0
 11 12  2  0
 12  7  1  0
 12  4  1  0
 13  2  1  0
 13 15  1  0
 14 13  2  0
 16 15  1  0
 16 17  1  1
 18 17  1  0
 18 26  1  0
 19 18  2  0
 20 19  1  0
 20 21  1  0
 21 22  1  0
 21 26  2  0
 22 23  2  0
 23 24  1  0
 25 24  2  0
 26 25  1  0
 27 16  1  0
 28 27  2  0
 29 27  1  0
 30 31  1  6
 30 29  1  0
 32 31  1  0
 33 32  1  0
 34 33  1  0
 35 34  1  0
 36 38  1  0
 36 30  1  0
 37 36  2  0
M  END
$$$$
