WWK.pdb
     RDKit          3D

 38 41  0  0  1  0  0  0  0  0999 V2000
    7.2932  -18.6713   22.4139 N   0  0  0  0  0  0  0  0  0  0  0  0
    7.8803  -17.4174   21.9753 C   0  0  1  0  0  0  0  0  0  0  0  0
    6.8895  -16.8438   20.9646 C   0  0  0  0  0  0  0  0  0  0  0  0
    7.4931  -15.7223   20.2301 C   0  0  0  0  0  0  0  0  0  0  0  0
    7.9834  -15.7253   18.9173 C   0  0  0  0  0  0  0  0  0  0  0  0
    8.4499  -14.5206   18.6131 N   0  0  0  0  0  0  0  0  0  0  0  0
    8.2726  -13.7416   19.6963 C   0  0  0  0  0  0  0  0  0  0  0  0
    8.5748  -12.4275   19.9169 C   0  0  0  0  0  0  0  0  0  0  0  0
    8.2929  -11.8357   21.1336 C   0  0  0  0  0  0  0  0  0  0  0  0
    7.7026  -12.5275   22.1702 C   0  0  0  0  0  0  0  0  0  0  0  0
    7.3996  -13.8693   21.9300 C   0  0  0  0  0  0  0  0  0  0  0  0
    7.6803  -14.4542   20.7224 C   0  0  0  0  0  0  0  0  0  0  0  0
    8.0130  -16.5346   23.1431 C   0  0  0  0  0  0  0  0  0  0  0  0
    6.9808  -16.1659   23.7568 O   0  0  0  0  0  0  0  0  0  0  0  0
    9.2256  -16.0430   23.6603 N   0  0  0  0  0  0  0  0  0  0  0  0
    9.5984  -16.1386   25.0519 C   0  0  1  0  0  0  0  0  0  0  0  0
    8.5100  -16.5288   25.9674 C   0  0  0  0  0  0  0  0  0  0  0  0
    7.4303  -15.5184   25.9014 C   0  0  0  0  0  0  0  0  0  0  0  0
    6.0842  -15.6198   25.6689 C   0  0  0  0  0  0  0  0  0  0  0  0
    5.5418  -14.3884   25.7016 N   0  0  0  0  0  0  0  0  0  0  0  0
    6.4891  -13.4694   25.9494 C   0  0  0  0  0  0  0  0  0  0  0  0
    6.4880  -12.0847   26.0849 C   0  0  0  0  0  0  0  0  0  0  0  0
    7.6354  -11.3643   26.3441 C   0  0  0  0  0  0  0  0  0  0  0  0
    8.8162  -12.0562   26.4703 C   0  0  0  0  0  0  0  0  0  0  0  0
    8.8173  -13.4490   26.3339 C   0  0  0  0  0  0  0  0  0  0  0  0
    7.6587  -14.1507   26.0749 C   0  0  0  0  0  0  0  0  0  0  0  0
   10.6855  -17.1446   25.1304 C   0  0  0  0  0  0  0  0  0  0  0  0
   11.1788  -17.4075   26.2500 O   0  0  0  0  0  0  0  0  0  0  0  0
   11.1539  -17.7912   23.9728 N   0  0  0  0  0  0  0  0  0  0  0  0
   12.2462  -18.8290   24.0252 C   0  0  1  0  0  0  0  0  0  0  0  0
   12.2335  -19.5543   22.7458 C   0  0  0  0  0  0  0  0  0  0  0  0
   13.1118  -20.6428   22.3813 C   0  0  0  0  0  0  0  0  0  0  0  0
   13.6130  -20.9025   21.0279 C   0  0  0  0  0  0  0  0  0  0  0  0
   14.5740  -22.1399   21.1910 C   0  0  0  0  0  0  0  0  0  0  0  0
   15.1693  -22.3059   19.8785 N   0  0  0  0  0  0  0  0  0  0  0  0
   13.4970  -18.0753   24.2473 C   0  0  0  0  0  0  0  0  0  0  0  0
   14.4252  -18.3651   25.0215 O   0  0  0  0  0  0  0  0  0  0  0  0
   13.6995  -16.8819   23.5134 O   0  0  0  0  0  0  0  0  0  0  0  0
  2  1  1  1
  2  3  1  0
  3  4  1  0
  4  5  2  0
  6  5  1  0
  7  6  1  0
  8  7  2  0
  9  8  1  0
 10  9  2  0
 10 11  1  0
 11 12  2  0
 12  7  1  0
 12  4  1  0
 13  2  1  0
 13 15  1  0
 14 13  2  0
 16 15  1  0
 16 17  1  1
 18 17  1  0
 18 26  1  0
 19 18  2  0
 20 19  1  0
 20 21  1  0
 21 22  1  0
 21 26  2  0
 22 23  2  0
 23 24  1  0
 25 24  2  0
 26 25  1  0
 27 16  1  0
 28 27  2  0
 29 27  1  0
 30 31  1  6
 30 29  1  0
 32 31  1  0
 33 32  1  0
 34 33  1  0
 35 34  1  0
 36 38  1  0
 36 30  1  0
 37 36  2  0
M  END
$$$$
