WWK.pdb
     RDKit          3D

 38 41  0  0  1  0  0  0  0  0999 V2000
    7.7305  -17.7749   19.4164 N   0  0  0  0  0  0  0  0  0  0  0  0
    7.2387  -17.6744   20.7792 C   0  0  1  0  0  0  0  0  0  0  0  0
    7.2318  -19.1069   21.3085 C   0  0  0  0  0  0  0  0  0  0  0  0
    6.2144  -19.9088   20.6132 C   0  0  0  0  0  0  0  0  0  0  0  0
    6.4035  -21.1054   19.9088 C   0  0  0  0  0  0  0  0  0  0  0  0
    5.2419  -21.5247   19.4227 N   0  0  0  0  0  0  0  0  0  0  0  0
    4.3093  -20.6289   19.7960 C   0  0  0  0  0  0  0  0  0  0  0  0
    2.9638  -20.5827   19.5624 C   0  0  0  0  0  0  0  0  0  0  0  0
    2.1995  -19.5431   20.0574 C   0  0  0  0  0  0  0  0  0  0  0  0
    2.7443  -18.5164   20.7995 C   0  0  0  0  0  0  0  0  0  0  0  0
    4.1202  -18.5772   21.0299 C   0  0  0  0  0  0  0  0  0  0  0  0
    4.8763  -19.6093   20.5378 C   0  0  0  0  0  0  0  0  0  0  0  0
    8.1686  -16.8333   21.5463 C   0  0  0  0  0  0  0  0  0  0  0  0
    9.4046  -17.0353   21.4495 O   0  0  0  0  0  0  0  0  0  0  0  0
    7.7982  -15.7865   22.4103 N   0  0  0  0  0  0  0  0  0  0  0  0
    8.2156  -15.7030   23.7900 C   0  0  1  0  0  0  0  0  0  0  0  0
    7.1202  -15.7017   24.7775 C   0  0  0  0  0  0  0  0  0  0  0  0
    7.6830  -15.4968   26.1310 C   0  0  0  0  0  0  0  0  0  0  0  0
    7.9940  -16.3663   27.1427 C   0  0  0  0  0  0  0  0  0  0  0  0
    8.4720  -15.6663   28.1882 N   0  0  0  0  0  0  0  0  0  0  0  0
    8.4880  -14.3545   27.9013 C   0  0  0  0  0  0  0  0  0  0  0  0
    8.8705  -13.2121   28.5972 C   0  0  0  0  0  0  0  0  0  0  0  0
    8.7793  -11.9477   28.0536 C   0  0  0  0  0  0  0  0  0  0  0  0
    8.2899  -11.8295   26.7748 C   0  0  0  0  0  0  0  0  0  0  0  0
    7.9052  -12.9787   26.0748 C   0  0  0  0  0  0  0  0  0  0  0  0
    8.0045  -14.2342   26.6366 C   0  0  0  0  0  0  0  0  0  0  0  0
    9.0937  -16.8724   24.0378 C   0  0  0  0  0  0  0  0  0  0  0  0
    8.6582  -18.0154   23.7735 O   0  0  0  0  0  0  0  0  0  0  0  0
   10.3891  -16.7033   24.5583 N   0  0  0  0  0  0  0  0  0  0  0  0
   11.2973  -17.8746   24.8341 C   0  0  1  0  0  0  0  0  0  0  0  0
   12.4538  -17.7637   23.9322 C   0  0  0  0  0  0  0  0  0  0  0  0
   12.4316  -17.9568   22.5000 C   0  0  0  0  0  0  0  0  0  0  0  0
   13.5470  -17.6643   21.5941 C   0  0  0  0  0  0  0  0  0  0  0  0
   12.9933  -18.0053   20.1594 C   0  0  0  0  0  0  0  0  0  0  0  0
   14.0811  -17.6586   19.2644 N   0  0  0  0  0  0  0  0  0  0  0  0
   11.6663  -17.7613   26.2599 C   0  0  0  0  0  0  0  0  0  0  0  0
   11.3487  -16.8574   27.0519 O   0  0  0  0  0  0  0  0  0  0  0  0
   12.4719  -18.7779   26.8265 O   0  0  0  0  0  0  0  0  0  0  0  0
  2  1  1  6
  2  3  1  0
  3  4  1  0
  4  5  2  0
  6  5  1  0
  7  6  1  0
  8  7  2  0
  9  8  1  0
 10  9  2  0
 10 11  1  0
 11 12  2  0
 12  7  1  0
 12  4  1  0
 13  2  1  0
 13 15  1  0
 14 13  2  0
 16 15  1  0
 16 17  1  1
 18 17  1  0
 18 26  1  0
 19 18  2  0
 20 19  1  0
 20 21  1  0
 21 22  1  0
 21 26  2  0
 22 23  2  0
 23 24  1  0
 25 24  2  0
 26 25  1  0
 27 16  1  0
 28 27  2  0
 29 27  1  0
 30 31  1  6
 30 29  1  0
 32 31  1  0
 33 32  1  0
 34 33  1  0
 35 34  1  0
 36 38  1  0
 36 30  1  0
 37 36  2  0
M  END
$$$$
