WWK.pdb
     RDKit          3D

 38 41  0  0  1  0  0  0  0  0999 V2000
    5.5569  -19.4268   23.0292 N   0  0  0  0  0  0  0  0  0  0  0  0
    6.5544  -19.3231   24.0796 C   0  0  1  0  0  0  0  0  0  0  0  0
    7.4442  -20.5526   23.9090 C   0  0  0  0  0  0  0  0  0  0  0  0
    6.9542  -21.6630   24.7387 C   0  0  0  0  0  0  0  0  0  0  0  0
    6.6341  -22.9630   24.3247 C   0  0  0  0  0  0  0  0  0  0  0  0
    6.2267  -23.6753   25.3678 N   0  0  0  0  0  0  0  0  0  0  0  0
    6.2762  -22.8675   26.4433 C   0  0  0  0  0  0  0  0  0  0  0  0
    5.9668  -23.0970   27.7541 C   0  0  0  0  0  0  0  0  0  0  0  0
    6.1005  -22.0931   28.6945 C   0  0  0  0  0  0  0  0  0  0  0  0
    6.5451  -20.8299   28.3655 C   0  0  0  0  0  0  0  0  0  0  0  0
    6.8573  -20.6103   27.0223 C   0  0  0  0  0  0  0  0  0  0  0  0
    6.7238  -21.6076   26.0913 C   0  0  0  0  0  0  0  0  0  0  0  0
    7.3195  -18.0854   23.8714 C   0  0  0  0  0  0  0  0  0  0  0  0
    7.6871  -17.7766   22.7106 O   0  0  0  0  0  0  0  0  0  0  0  0
    7.6953  -17.1794   24.8800 N   0  0  0  0  0  0  0  0  0  0  0  0
    8.6925  -16.1509   24.6998 C   0  0  1  0  0  0  0  0  0  0  0  0
    8.8392  -15.2147   25.8299 C   0  0  0  0  0  0  0  0  0  0  0  0
    7.5781  -14.4604   26.0063 C   0  0  0  0  0  0  0  0  0  0  0  0
    6.3841  -14.7830   26.5950 C   0  0  0  0  0  0  0  0  0  0  0  0
    5.5431  -13.7389   26.4769 N   0  0  0  0  0  0  0  0  0  0  0  0
    6.1435  -12.7294   25.8257 C   0  0  0  0  0  0  0  0  0  0  0  0
    5.7499  -11.4525   25.4379 C   0  0  0  0  0  0  0  0  0  0  0  0
    6.5873  -10.5933   24.7575 C   0  0  0  0  0  0  0  0  0  0  0  0
    7.8556  -11.0310   24.4590 C   0  0  0  0  0  0  0  0  0  0  0  0
    8.2514  -12.3154   24.8490 C   0  0  0  0  0  0  0  0  0  0  0  0
    7.3985  -13.1592   25.5290 C   0  0  0  0  0  0  0  0  0  0  0  0
    9.9823  -16.8473   24.4732 C   0  0  0  0  0  0  0  0  0  0  0  0
   10.3283  -17.7434   25.2751 O   0  0  0  0  0  0  0  0  0  0  0  0
   10.8011  -16.5101   23.3807 N   0  0  0  0  0  0  0  0  0  0  0  0
   12.1084  -17.2129   23.1165 C   0  0  1  0  0  0  0  0  0  0  0  0
   12.4887  -16.9375   21.7227 C   0  0  0  0  0  0  0  0  0  0  0  0
   11.6009  -16.9629   20.5824 C   0  0  0  0  0  0  0  0  0  0  0  0
   12.0056  -16.7132   19.1952 C   0  0  0  0  0  0  0  0  0  0  0  0
   10.7251  -17.0490   18.3415 C   0  0  0  0  0  0  0  0  0  0  0  0
   11.1274  -16.7828   16.9733 N   0  0  0  0  0  0  0  0  0  0  0  0
   13.0628  -16.6530   24.0950 C   0  0  0  0  0  0  0  0  0  0  0  0
   12.8794  -15.6936   24.8638 O   0  0  0  0  0  0  0  0  0  0  0  0
   14.3423  -17.2493   24.2000 O   0  0  0  0  0  0  0  0  0  0  0  0
  2  1  1  6
  2  3  1  0
  3  4  1  0
  4  5  2  0
  6  5  1  0
  7  6  1  0
  8  7  2  0
  9  8  1  0
 10  9  2  0
 10 11  1  0
 11 12  2  0
 12  7  1  0
 12  4  1  0
 13  2  1  0
 13 15  1  0
 14 13  2  0
 16 15  1  0
 16 17  1  1
 18 17  1  0
 18 26  1  0
 19 18  2  0
 20 19  1  0
 20 21  1  0
 21 22  1  0
 21 26  2  0
 22 23  2  0
 23 24  1  0
 25 24  2  0
 26 25  1  0
 27 16  1  0
 28 27  2  0
 29 27  1  0
 30 31  1  6
 30 29  1  0
 32 31  1  0
 33 32  1  0
 34 33  1  0
 35 34  1  0
 36 38  1  0
 36 30  1  0
 37 36  2  0
M  END
$$$$
