WWK.pdb
     RDKit          3D

 38 41  0  0  1  0  0  0  0  0999 V2000
    6.1993  -18.3951   24.0418 N   0  0  0  0  0  0  0  0  0  0  0  0
    6.6935  -17.0454   24.2496 C   0  0  1  0  0  0  0  0  0  0  0  0
    6.8549  -16.9070   25.7619 C   0  0  0  0  0  0  0  0  0  0  0  0
    6.3813  -15.5902   26.2127 C   0  0  0  0  0  0  0  0  0  0  0  0
    5.0555  -15.1772   26.4019 C   0  0  0  0  0  0  0  0  0  0  0  0
    5.0363  -13.9166   26.8163 N   0  0  0  0  0  0  0  0  0  0  0  0
    6.3156  -13.5067   26.8990 C   0  0  0  0  0  0  0  0  0  0  0  0
    6.8522  -12.3065   27.2710 C   0  0  0  0  0  0  0  0  0  0  0  0
    8.2215  -12.1198   27.2766 C   0  0  0  0  0  0  0  0  0  0  0  0
    9.1025  -13.1167   26.9139 C   0  0  0  0  0  0  0  0  0  0  0  0
    8.5396  -14.3375   26.5361 C   0  0  0  0  0  0  0  0  0  0  0  0
    7.1810  -14.5203   26.5312 C   0  0  0  0  0  0  0  0  0  0  0  0
    7.9889  -16.9163   23.5670 C   0  0  0  0  0  0  0  0  0  0  0  0
    8.6056  -17.9527   23.2152 O   0  0  0  0  0  0  0  0  0  0  0  0
    8.6306  -15.7030   23.2577 N   0  0  0  0  0  0  0  0  0  0  0  0
    9.7087  -15.5892   22.3042 C   0  0  1  0  0  0  0  0  0  0  0  0
    9.9166  -14.2380   21.7510 C   0  0  0  0  0  0  0  0  0  0  0  0
    8.7446  -13.8609   20.9294 C   0  0  0  0  0  0  0  0  0  0  0  0
    7.4884  -13.4249   21.2585 C   0  0  0  0  0  0  0  0  0  0  0  0
    6.7843  -13.2295   20.1283 N   0  0  0  0  0  0  0  0  0  0  0  0
    7.5364  -13.5231   19.0551 C   0  0  0  0  0  0  0  0  0  0  0  0
    7.3190  -13.5029   17.6811 C   0  0  0  0  0  0  0  0  0  0  0  0
    8.2902  -13.8663   16.7715 C   0  0  0  0  0  0  0  0  0  0  0  0
    9.5135  -14.2610   17.2579 C   0  0  0  0  0  0  0  0  0  0  0  0
    9.7321  -14.2814   18.6401 C   0  0  0  0  0  0  0  0  0  0  0  0
    8.7475  -13.9139   19.5329 C   0  0  0  0  0  0  0  0  0  0  0  0
   10.9413  -16.0237   23.0055 C   0  0  0  0  0  0  0  0  0  0  0  0
   11.2103  -15.5134   24.1159 O   0  0  0  0  0  0  0  0  0  0  0  0
   11.7917  -16.9887   22.4370 N   0  0  0  0  0  0  0  0  0  0  0  0
   13.0152  -17.4970   23.1564 C   0  0  1  0  0  0  0  0  0  0  0  0
   13.4304  -18.7466   22.5011 C   0  0  0  0  0  0  0  0  0  0  0  0
   14.6437  -19.4830   22.7747 C   0  0  0  0  0  0  0  0  0  0  0  0
   15.0770  -20.6868   22.0581 C   0  0  0  0  0  0  0  0  0  0  0  0
   16.3788  -21.1515   22.8135 C   0  0  0  0  0  0  0  0  0  0  0  0
   16.8399  -22.3008   22.0577 N   0  0  0  0  0  0  0  0  0  0  0  0
   14.0204  -16.4216   23.0346 C   0  0  0  0  0  0  0  0  0  0  0  0
   14.8366  -16.0508   23.8957 O   0  0  0  0  0  0  0  0  0  0  0  0
   14.0946  -15.7087   21.8140 O   0  0  0  0  0  0  0  0  0  0  0  0
  2  1  1  1
  2  3  1  0
  3  4  1  0
  4  5  2  0
  6  5  1  0
  7  6  1  0
  8  7  2  0
  9  8  1  0
 10  9  2  0
 10 11  1  0
 11 12  2  0
 12  7  1  0
 12  4  1  0
 13  2  1  0
 13 15  1  0
 14 13  2  0
 16 15  1  0
 16 17  1  1
 18 17  1  0
 18 26  1  0
 19 18  2  0
 20 19  1  0
 20 21  1  0
 21 22  1  0
 21 26  2  0
 22 23  2  0
 23 24  1  0
 25 24  2  0
 26 25  1  0
 27 16  1  0
 28 27  2  0
 29 27  1  0
 30 31  1  6
 30 29  1  0
 32 31  1  0
 33 32  1  0
 34 33  1  0
 35 34  1  0
 36 38  1  0
 36 30  1  0
 37 36  2  0
M  END
$$$$
