WWK.pdb
     RDKit          3D

 38 41  0  0  1  0  0  0  0  0999 V2000
    8.5627  -17.0580   21.8608 N   0  0  0  0  0  0  0  0  0  0  0  0
    8.6442  -15.6568   22.2336 C   0  0  1  0  0  0  0  0  0  0  0  0
    7.2655  -15.0789   21.9211 C   0  0  0  0  0  0  0  0  0  0  0  0
    7.1148  -14.8570   20.4756 C   0  0  0  0  0  0  0  0  0  0  0  0
    6.4135  -15.6501   19.5575 C   0  0  0  0  0  0  0  0  0  0  0  0
    6.5101  -15.1193   18.3449 N   0  0  0  0  0  0  0  0  0  0  0  0
    7.2557  -14.0045   18.4583 C   0  0  0  0  0  0  0  0  0  0  0  0
    7.6560  -13.0925   17.5230 C   0  0  0  0  0  0  0  0  0  0  0  0
    8.4327  -12.0083   17.8853 C   0  0  0  0  0  0  0  0  0  0  0  0
    8.8373  -11.7936   19.1860 C   0  0  0  0  0  0  0  0  0  0  0  0
    8.4207  -12.7338   20.1305 C   0  0  0  0  0  0  0  0  0  0  0  0
    7.6503  -13.8085   19.7688 C   0  0  0  0  0  0  0  0  0  0  0  0
    8.9360  -15.5764   23.6720 C   0  0  0  0  0  0  0  0  0  0  0  0
    9.0244  -14.4497   24.2204 O   0  0  0  0  0  0  0  0  0  0  0  0
    9.1341  -16.6762   24.5268 N   0  0  0  0  0  0  0  0  0  0  0  0
    9.8886  -16.6078   25.7559 C   0  0  1  0  0  0  0  0  0  0  0  0
    9.0783  -16.5286   26.9856 C   0  0  0  0  0  0  0  0  0  0  0  0
    7.8293  -15.7874   26.7007 C   0  0  0  0  0  0  0  0  0  0  0  0
    6.5943  -16.1917   26.2674 C   0  0  0  0  0  0  0  0  0  0  0  0
    5.7976  -15.1131   26.1520 N   0  0  0  0  0  0  0  0  0  0  0  0
    6.4674  -14.0012   26.4963 C   0  0  0  0  0  0  0  0  0  0  0  0
    6.1412  -12.6501   26.5586 C   0  0  0  0  0  0  0  0  0  0  0  0
    7.0450  -11.6868   26.9555 C   0  0  0  0  0  0  0  0  0  0  0  0
    8.3119  -12.0941   27.2991 C   0  0  0  0  0  0  0  0  0  0  0  0
    8.6401  -13.4531   27.2364 C   0  0  0  0  0  0  0  0  0  0  0  0
    7.7213  -14.4007   26.8370 C   0  0  0  0  0  0  0  0  0  0  0  0
   10.7299  -17.8284   25.8043 C   0  0  0  0  0  0  0  0  0  0  0  0
   10.4091  -18.7464   26.5919 O   0  0  0  0  0  0  0  0  0  0  0  0
   11.8647  -17.9544   24.9834 N   0  0  0  0  0  0  0  0  0  0  0  0
   12.7654  -19.1617   25.0469 C   0  0  1  0  0  0  0  0  0  0  0  0
   12.8635  -19.7165   23.6884 C   0  0  0  0  0  0  0  0  0  0  0  0
   12.8934  -18.9519   22.4621 C   0  0  0  0  0  0  0  0  0  0  0  0
   12.0652  -19.2211   21.2822 C   0  0  0  0  0  0  0  0  0  0  0  0
   12.4269  -18.0681   20.2719 C   0  0  0  0  0  0  0  0  0  0  0  0
   12.7460  -18.7609   19.0378 N   0  0  0  0  0  0  0  0  0  0  0  0
   14.0578  -18.6638   25.5602 C   0  0  0  0  0  0  0  0  0  0  0  0
   14.3606  -17.4886   25.8291 O   0  0  0  0  0  0  0  0  0  0  0  0
   15.0952  -19.6003   25.7851 O   0  0  0  0  0  0  0  0  0  0  0  0
  2  1  1  1
  2  3  1  0
  3  4  1  0
  4  5  2  0
  6  5  1  0
  7  6  1  0
  8  7  2  0
  9  8  1  0
 10  9  2  0
 10 11  1  0
 11 12  2  0
 12  7  1  0
 12  4  1  0
 13  2  1  0
 13 15  1  0
 14 13  2  0
 16 15  1  0
 16 17  1  1
 18 17  1  0
 18 26  1  0
 19 18  2  0
 20 19  1  0
 20 21  1  0
 21 22  1  0
 21 26  2  0
 22 23  2  0
 23 24  1  0
 25 24  2  0
 26 25  1  0
 27 16  1  0
 28 27  2  0
 29 27  1  0
 30 31  1  6
 30 29  1  0
 32 31  1  0
 33 32  1  0
 34 33  1  0
 35 34  1  0
 36 38  1  0
 36 30  1  0
 37 36  2  0
M  END
$$$$
