WWK.pdb
     RDKit          3D

 38 41  0  0  1  0  0  0  0  0999 V2000
    8.9745  -16.8787   21.5573 N   0  0  0  0  0  0  0  0  0  0  0  0
    9.1225  -15.5571   22.1408 C   0  0  1  0  0  0  0  0  0  0  0  0
    7.7541  -14.8965   21.9870 C   0  0  0  0  0  0  0  0  0  0  0  0
    7.3870  -14.7950   20.5670 C   0  0  0  0  0  0  0  0  0  0  0  0
    6.4505  -15.5689   19.8686 C   0  0  0  0  0  0  0  0  0  0  0  0
    6.4017  -15.1743   18.6024 N   0  0  0  0  0  0  0  0  0  0  0  0
    7.2829  -14.1659   18.4671 C   0  0  0  0  0  0  0  0  0  0  0  0
    7.6236  -13.4103   17.3809 C   0  0  0  0  0  0  0  0  0  0  0  0
    8.5739  -12.4126   17.4884 C   0  0  0  0  0  0  0  0  0  0  0  0
    9.2165  -12.1321   18.6757 C   0  0  0  0  0  0  0  0  0  0  0  0
    8.8580  -12.9124   19.7769 C   0  0  0  0  0  0  0  0  0  0  0  0
    7.9152  -13.9015   19.6679 C   0  0  0  0  0  0  0  0  0  0  0  0
    9.4761  -15.7138   23.5588 C   0  0  0  0  0  0  0  0  0  0  0  0
   10.0142  -14.7564   24.1687 O   0  0  0  0  0  0  0  0  0  0  0  0
    9.2646  -16.8720   24.3291 N   0  0  0  0  0  0  0  0  0  0  0  0
    9.6270  -16.9829   25.7223 C   0  0  1  0  0  0  0  0  0  0  0  0
    8.5044  -17.2384   26.6439 C   0  0  0  0  0  0  0  0  0  0  0  0
    7.4843  -16.1791   26.4768 C   0  0  0  0  0  0  0  0  0  0  0  0
    6.2361  -16.1803   25.9126 C   0  0  0  0  0  0  0  0  0  0  0  0
    5.7145  -14.9430   26.0045 N   0  0  0  0  0  0  0  0  0  0  0  0
    6.5805  -14.1173   26.6142 C   0  0  0  0  0  0  0  0  0  0  0  0
    6.5596  -12.7697   26.9595 C   0  0  0  0  0  0  0  0  0  0  0  0
    7.6146  -12.1515   27.5976 C   0  0  0  0  0  0  0  0  0  0  0  0
    8.7211  -12.9100   27.8965 C   0  0  0  0  0  0  0  0  0  0  0  0
    8.7421  -14.2656   27.5491 C   0  0  0  0  0  0  0  0  0  0  0  0
    7.6763  -14.8648   26.9113 C   0  0  0  0  0  0  0  0  0  0  0  0
   10.6003  -18.0980   25.8187 C   0  0  0  0  0  0  0  0  0  0  0  0
   10.4534  -19.0880   25.0675 O   0  0  0  0  0  0  0  0  0  0  0  0
   11.6668  -18.0465   26.7338 N   0  0  0  0  0  0  0  0  0  0  0  0
   12.2716  -19.2945   27.3251 C   0  0  1  0  0  0  0  0  0  0  0  0
   12.5216  -19.0358   28.7512 C   0  0  0  0  0  0  0  0  0  0  0  0
   13.2911  -19.8753   29.6414 C   0  0  0  0  0  0  0  0  0  0  0  0
   13.6629  -19.5256   31.0161 C   0  0  0  0  0  0  0  0  0  0  0  0
   13.1757  -20.7477   31.8823 C   0  0  0  0  0  0  0  0  0  0  0  0
   14.1821  -20.8748   32.9195 N   0  0  0  0  0  0  0  0  0  0  0  0
   11.2754  -20.3614   27.0996 C   0  0  0  0  0  0  0  0  0  0  0  0
   10.0383  -20.2675   27.1779 O   0  0  0  0  0  0  0  0  0  0  0  0
   11.7423  -21.6519   26.7525 O   0  0  0  0  0  0  0  0  0  0  0  0
  2  1  1  1
  2  3  1  0
  3  4  1  0
  4  5  2  0
  6  5  1  0
  7  6  1  0
  8  7  2  0
  9  8  1  0
 10  9  2  0
 10 11  1  0
 11 12  2  0
 12  7  1  0
 12  4  1  0
 13  2  1  0
 13 15  1  0
 14 13  2  0
 16 15  1  0
 16 17  1  1
 18 17  1  0
 18 26  1  0
 19 18  2  0
 20 19  1  0
 20 21  1  0
 21 22  1  0
 21 26  2  0
 22 23  2  0
 23 24  1  0
 25 24  2  0
 26 25  1  0
 27 16  1  0
 28 27  2  0
 29 27  1  0
 30 31  1  1
 30 29  1  0
 32 31  1  0
 33 32  1  0
 34 33  1  0
 35 34  1  0
 36 38  1  0
 36 30  1  0
 37 36  2  0
M  END
$$$$
