WWK.pdb
     RDKit          3D

 38 41  0  0  1  0  0  0  0  0999 V2000
    6.4203  -18.6378   21.1884 N   0  0  0  0  0  0  0  0  0  0  0  0
    7.0856  -17.4073   20.7981 C   0  0  1  0  0  0  0  0  0  0  0  0
    6.0250  -16.5976   20.0551 C   0  0  0  0  0  0  0  0  0  0  0  0
    6.6511  -15.5184   19.2774 C   0  0  0  0  0  0  0  0  0  0  0  0
    7.0738  -15.5613   17.9420 C   0  0  0  0  0  0  0  0  0  0  0  0
    7.5894  -14.3872   17.5998 N   0  0  0  0  0  0  0  0  0  0  0  0
    7.5096  -13.5889   18.6805 C   0  0  0  0  0  0  0  0  0  0  0  0
    7.8937  -12.2914   18.8692 C   0  0  0  0  0  0  0  0  0  0  0  0
    7.7060  -11.6729   20.0908 C   0  0  0  0  0  0  0  0  0  0  0  0
    7.1318  -12.3209   21.1641 C   0  0  0  0  0  0  0  0  0  0  0  0
    6.7445  -13.6463   20.9563 C   0  0  0  0  0  0  0  0  0  0  0  0
    6.9316  -14.2576   19.7437 C   0  0  0  0  0  0  0  0  0  0  0  0
    7.5233  -16.7109   22.0163 C   0  0  0  0  0  0  0  0  0  0  0  0
    8.0725  -15.5853   21.9185 O   0  0  0  0  0  0  0  0  0  0  0  0
    7.3839  -17.1977   23.3289 N   0  0  0  0  0  0  0  0  0  0  0  0
    8.0669  -16.6320   24.4682 C   0  0  1  0  0  0  0  0  0  0  0  0
    7.2153  -16.3697   25.6433 C   0  0  0  0  0  0  0  0  0  0  0  0
    7.8854  -15.3854   26.5224 C   0  0  0  0  0  0  0  0  0  0  0  0
    8.7573  -15.5261   27.5694 C   0  0  0  0  0  0  0  0  0  0  0  0
    9.0656  -14.3063   28.0476 N   0  0  0  0  0  0  0  0  0  0  0  0
    8.4232  -13.3567   27.3482 C   0  0  0  0  0  0  0  0  0  0  0  0
    8.3758  -11.9677   27.4117 C   0  0  0  0  0  0  0  0  0  0  0  0
    7.6099  -11.2119   26.5487 C   0  0  0  0  0  0  0  0  0  0  0  0
    6.8714  -11.8719   25.5958 C   0  0  0  0  0  0  0  0  0  0  0  0
    6.9190  -13.2691   25.5321 C   0  0  0  0  0  0  0  0  0  0  0  0
    7.6917  -14.0064   26.4045 C   0  0  0  0  0  0  0  0  0  0  0  0
    9.1321  -17.5936   24.8432 C   0  0  0  0  0  0  0  0  0  0  0  0
    8.7982  -18.7056   25.3101 O   0  0  0  0  0  0  0  0  0  0  0  0
   10.4896  -17.2657   24.6784 N   0  0  0  0  0  0  0  0  0  0  0  0
   11.5928  -18.2219   25.0544 C   0  0  1  0  0  0  0  0  0  0  0  0
   12.7889  -17.8472   24.2848 C   0  0  0  0  0  0  0  0  0  0  0  0
   12.8978  -17.8330   22.8437 C   0  0  0  0  0  0  0  0  0  0  0  0
   14.1326  -17.5756   22.0956 C   0  0  0  0  0  0  0  0  0  0  0  0
   13.7158  -17.7109   20.5827 C   0  0  0  0  0  0  0  0  0  0  0  0
   14.6897  -16.9058   19.8700 N   0  0  0  0  0  0  0  0  0  0  0  0
   11.7731  -18.0637   26.5119 C   0  0  0  0  0  0  0  0  0  0  0  0
   11.2816  -17.1859   27.2420 O   0  0  0  0  0  0  0  0  0  0  0  0
   12.5909  -18.9981   27.1913 O   0  0  0  0  0  0  0  0  0  0  0  0
  2  1  1  1
  2  3  1  0
  3  4  1  0
  4  5  2  0
  6  5  1  0
  7  6  1  0
  8  7  2  0
  9  8  1  0
 10  9  2  0
 10 11  1  0
 11 12  2  0
 12  7  1  0
 12  4  1  0
 13  2  1  0
 13 15  1  0
 14 13  2  0
 16 15  1  0
 16 17  1  1
 18 17  1  0
 18 26  1  0
 19 18  2  0
 20 19  1  0
 20 21  1  0
 21 22  1  0
 21 26  2  0
 22 23  2  0
 23 24  1  0
 25 24  2  0
 26 25  1  0
 27 16  1  0
 28 27  2  0
 29 27  1  0
 30 31  1  6
 30 29  1  0
 32 31  1  0
 33 32  1  0
 34 33  1  0
 35 34  1  0
 36 38  1  0
 36 30  1  0
 37 36  2  0
M  END
$$$$
