KKD.pdb
     RDKit          3D

 27 26  0  0  1  0  0  0  0  0999 V2000
    7.2424  -15.5694   19.9561 N   0  0  0  0  0  0  0  0  0  0  0  0
    8.5245  -14.9558   20.0150 C   0  0  1  0  0  0  0  0  0  0  0  0
    8.5064  -13.5843   19.3526 C   0  0  0  0  0  0  0  0  0  0  0  0
    7.6801  -13.4993   18.1234 C   0  0  0  0  0  0  0  0  0  0  0  0
    8.4075  -13.6247   16.8214 C   0  0  0  0  0  0  0  0  0  0  0  0
    7.4309  -13.4547   15.6618 C   0  0  0  0  0  0  0  0  0  0  0  0
    8.2648  -13.5985   14.4555 N   0  0  0  0  0  0  0  0  0  0  0  0
    8.9658  -14.7912   21.4533 C   0  0  0  0  0  0  0  0  0  0  0  0
   10.1053  -14.3330   21.6588 O   0  0  0  0  0  0  0  0  0  0  0  0
    8.1003  -15.1524   22.4989 N   0  0  0  0  0  0  0  0  0  0  0  0
    8.5039  -15.1596   23.8917 C   0  0  1  0  0  0  0  0  0  0  0  0
    7.3576  -14.7232   24.7763 C   0  0  0  0  0  0  0  0  0  0  0  0
    7.3805  -13.3048   25.2003 C   0  0  0  0  0  0  0  0  0  0  0  0
    6.2800  -12.9834   26.1861 C   0  0  0  0  0  0  0  0  0  0  0  0
    6.2824  -11.5635   26.6679 C   0  0  0  0  0  0  0  0  0  0  0  0
    5.2357  -11.2350   27.5801 N   0  0  0  0  0  0  0  0  0  0  0  0
    9.0536  -16.4654   24.2406 C   0  0  0  0  0  0  0  0  0  0  0  0
    8.4981  -17.5700   23.9911 O   0  0  0  0  0  0  0  0  0  0  0  0
   10.2996  -16.5412   24.9050 N   0  0  0  0  0  0  0  0  0  0  0  0
   10.8918  -17.8612   25.2545 C   0  0  1  0  0  0  0  0  0  0  0  0
   12.2820  -17.8376   24.6596 C   0  0  0  0  0  0  0  0  0  0  0  0
   13.1491  -18.9529   25.0064 C   0  0  0  0  0  0  0  0  0  0  0  0
   12.7453  -20.1224   24.9766 O   0  0  0  0  0  0  0  0  0  0  0  0
   10.9881  -17.9805   26.7088 C   0  0  0  0  0  0  0  0  0  0  0  0
   10.7534  -16.9682   27.4315 O   0  0  0  0  0  0  0  0  0  0  0  0
   14.4848  -18.7462   25.3909 O   0  0  0  0  0  0  0  0  0  0  0  0
   11.3247  -19.1486   27.3562 O   0  0  0  0  0  0  0  0  0  0  0  0
  2  3  1  0
  2  1  1  1
  4  3  1  0
  4  5  1  0
  5  6  1  0
  6  7  1  0
  8  2  1  0
  9  8  2  0
 10  8  1  0
 11 10  1  0
 11 12  1  1
 13 12  1  0
 14 13  1  0
 15 14  1  0
 16 15  1  0
 17 11  1  0
 17 18  2  0
 19 17  1  0
 20 19  1  0
 20 21  1  6
 21 22  1  0
 22 26  1  0
 22 23  2  0
 24 20  1  0
 25 24  2  0
 27 24  1  0
M  END
$$$$
