KKD.pdb
     RDKit          3D

 27 26  0  0  1  0  0  0  0  0999 V2000
    7.4131  -17.2284   19.5450 N   0  0  0  0  0  0  0  0  0  0  0  0
    8.7837  -16.8757   19.4009 C   0  0  1  0  0  0  0  0  0  0  0  0
    8.9945  -15.9816   18.1860 C   0  0  0  0  0  0  0  0  0  0  0  0
    7.7684  -15.3109   17.6883 C   0  0  0  0  0  0  0  0  0  0  0  0
    7.9167  -14.4855   16.4487 C   0  0  0  0  0  0  0  0  0  0  0  0
    7.1852  -13.1576   16.6177 C   0  0  0  0  0  0  0  0  0  0  0  0
    7.3966  -12.4566   15.3389 N   0  0  0  0  0  0  0  0  0  0  0  0
    9.2724  -16.1416   20.6309 C   0  0  0  0  0  0  0  0  0  0  0  0
   10.4595  -15.7658   20.6455 O   0  0  0  0  0  0  0  0  0  0  0  0
    8.3962  -15.9081   21.7036 N   0  0  0  0  0  0  0  0  0  0  0  0
    8.8088  -15.2622   22.9346 C   0  0  1  0  0  0  0  0  0  0  0  0
    7.6173  -14.6466   23.6334 C   0  0  0  0  0  0  0  0  0  0  0  0
    7.9168  -13.9181   24.8870 C   0  0  0  0  0  0  0  0  0  0  0  0
    6.6797  -13.3040   25.5026 C   0  0  0  0  0  0  0  0  0  0  0  0
    6.9276  -12.5907   26.7980 C   0  0  0  0  0  0  0  0  0  0  0  0
    5.7657  -12.0349   27.4117 N   0  0  0  0  0  0  0  0  0  0  0  0
    9.5551  -16.2045   23.7616 C   0  0  0  0  0  0  0  0  0  0  0  0
    9.1388  -17.3433   24.1092 O   0  0  0  0  0  0  0  0  0  0  0  0
   10.8445  -15.8546   24.2249 N   0  0  0  0  0  0  0  0  0  0  0  0
   11.6948  -16.8561   24.9243 C   0  0  1  0  0  0  0  0  0  0  0  0
   13.1163  -16.3956   24.6909 C   0  0  0  0  0  0  0  0  0  0  0  0
   14.1006  -17.4405   24.4563 C   0  0  0  0  0  0  0  0  0  0  0  0
   13.7893  -18.6383   24.4616 O   0  0  0  0  0  0  0  0  0  0  0  0
   11.4035  -16.8245   26.3571 C   0  0  0  0  0  0  0  0  0  0  0  0
   11.9827  -17.6457   27.1265 O   0  0  0  0  0  0  0  0  0  0  0  0
   15.4496  -17.1305   24.2134 O   0  0  0  0  0  0  0  0  0  0  0  0
   10.5206  -15.9393   26.9351 O   0  0  0  0  0  0  0  0  0  0  0  0
  2  3  1  0
  2  1  1  1
  4  3  1  0
  4  5  1  0
  5  6  1  0
  6  7  1  0
  8  2  1  0
  9  8  2  0
 10  8  1  0
 11 10  1  0
 11 12  1  1
 13 12  1  0
 14 13  1  0
 15 14  1  0
 16 15  1  0
 17 11  1  0
 17 18  2  0
 19 17  1  0
 20 19  1  0
 20 21  1  1
 21 22  1  0
 22 26  1  0
 22 23  2  0
 24 20  1  0
 25 24  2  0
 27 24  1  0
M  END
$$$$
