KKD.pdb
     RDKit          3D

 27 26  0  0  1  0  0  0  0  0999 V2000
    7.1549  -15.4061   19.4391 N   0  0  0  0  0  0  0  0  0  0  0  0
    8.3183  -14.5873   19.4388 C   0  0  1  0  0  0  0  0  0  0  0  0
    8.0700  -13.2827   18.6929 C   0  0  0  0  0  0  0  0  0  0  0  0
    7.5422  -13.4454   17.3160 C   0  0  0  0  0  0  0  0  0  0  0  0
    8.4407  -14.1303   16.3345 C   0  0  0  0  0  0  0  0  0  0  0  0
    7.7168  -14.3090   15.0036 C   0  0  0  0  0  0  0  0  0  0  0  0
    8.6871  -15.0167   14.1499 N   0  0  0  0  0  0  0  0  0  0  0  0
    8.7349  -14.2608   20.8567 C   0  0  0  0  0  0  0  0  0  0  0  0
    9.7991  -13.6341   21.0161 O   0  0  0  0  0  0  0  0  0  0  0  0
    7.9307  -14.6645   21.9353 N   0  0  0  0  0  0  0  0  0  0  0  0
    8.2944  -14.4369   23.3205 C   0  0  1  0  0  0  0  0  0  0  0  0
    7.1501  -13.7894   24.0676 C   0  0  0  0  0  0  0  0  0  0  0  0
    7.4143  -13.4674   25.4884 C   0  0  0  0  0  0  0  0  0  0  0  0
    6.2955  -12.6634   26.1115 C   0  0  0  0  0  0  0  0  0  0  0  0
    6.4927  -12.3618   27.5670 C   0  0  0  0  0  0  0  0  0  0  0  0
    5.4891  -11.5335   28.1521 N   0  0  0  0  0  0  0  0  0  0  0  0
    8.7605  -15.6824   23.9206 C   0  0  0  0  0  0  0  0  0  0  0  0
    8.0889  -16.7485   23.9790 O   0  0  0  0  0  0  0  0  0  0  0  0
   10.0552  -15.7409   24.4862 N   0  0  0  0  0  0  0  0  0  0  0  0
   10.5692  -17.0096   25.0706 C   0  0  1  0  0  0  0  0  0  0  0  0
   12.0748  -16.9042   24.9751 C   0  0  0  0  0  0  0  0  0  0  0  0
   12.6375  -16.9287   23.6339 C   0  0  0  0  0  0  0  0  0  0  0  0
   12.0248  -17.4290   22.6822 O   0  0  0  0  0  0  0  0  0  0  0  0
   10.1765  -17.0905   26.4770 C   0  0  0  0  0  0  0  0  0  0  0  0
    9.6708  -16.0757   27.0396 O   0  0  0  0  0  0  0  0  0  0  0  0
   13.9044  -16.3835   23.3644 O   0  0  0  0  0  0  0  0  0  0  0  0
   10.3246  -18.2244   27.2447 O   0  0  0  0  0  0  0  0  0  0  0  0
  2  3  1  0
  2  1  1  1
  4  3  1  0
  4  5  1  0
  5  6  1  0
  6  7  1  0
  8  2  1  0
  9  8  2  0
 10  8  1  0
 11 10  1  0
 11 12  1  1
 13 12  1  0
 14 13  1  0
 15 14  1  0
 16 15  1  0
 17 11  1  0
 17 18  2  0
 19 17  1  0
 20 19  1  0
 20 21  1  1
 21 22  1  0
 22 26  1  0
 22 23  2  0
 24 20  1  0
 25 24  2  0
 27 24  1  0
M  END
$$$$
