KKD.pdb
     RDKit          3D

 27 26  0  0  1  0  0  0  0  0999 V2000
    7.1417  -15.3473   19.2804 N   0  0  0  0  0  0  0  0  0  0  0  0
    8.3271  -14.5607   19.2717 C   0  0  1  0  0  0  0  0  0  0  0  0
    8.1036  -13.2411   18.5444 C   0  0  0  0  0  0  0  0  0  0  0  0
    7.4310  -13.3639   17.2278 C   0  0  0  0  0  0  0  0  0  0  0  0
    8.1117  -14.2236   16.2093 C   0  0  0  0  0  0  0  0  0  0  0  0
    7.2718  -14.2869   14.9374 C   0  0  0  0  0  0  0  0  0  0  0  0
    8.0239  -15.1867   14.0452 N   0  0  0  0  0  0  0  0  0  0  0  0
    8.7735  -14.2622   20.6867 C   0  0  0  0  0  0  0  0  0  0  0  0
    9.8550  -13.6637   20.8368 O   0  0  0  0  0  0  0  0  0  0  0  0
    7.9765  -14.6597   21.7729 N   0  0  0  0  0  0  0  0  0  0  0  0
    8.3531  -14.4315   23.1544 C   0  0  1  0  0  0  0  0  0  0  0  0
    7.2134  -13.7902   23.9138 C   0  0  0  0  0  0  0  0  0  0  0  0
    7.4918  -13.4648   25.3311 C   0  0  0  0  0  0  0  0  0  0  0  0
    6.3181  -12.7911   26.0057 C   0  0  0  0  0  0  0  0  0  0  0  0
    6.5689  -12.4043   27.4325 C   0  0  0  0  0  0  0  0  0  0  0  0
    5.4709  -11.7704   28.0868 N   0  0  0  0  0  0  0  0  0  0  0  0
    8.8313  -15.6753   23.7488 C   0  0  0  0  0  0  0  0  0  0  0  0
    8.2216  -16.7783   23.6975 O   0  0  0  0  0  0  0  0  0  0  0  0
   10.0657  -15.6878   24.4385 N   0  0  0  0  0  0  0  0  0  0  0  0
   10.6454  -16.9678   24.9293 C   0  0  1  0  0  0  0  0  0  0  0  0
   12.1147  -16.8930   24.5791 C   0  0  0  0  0  0  0  0  0  0  0  0
   12.8849  -18.1117   24.7728 C   0  0  0  0  0  0  0  0  0  0  0  0
   14.0837  -18.1764   24.4724 O   0  0  0  0  0  0  0  0  0  0  0  0
   10.4959  -17.0430   26.3821 C   0  0  0  0  0  0  0  0  0  0  0  0
   10.3408  -15.9767   27.0462 O   0  0  0  0  0  0  0  0  0  0  0  0
   12.2962  -19.2688   25.3107 O   0  0  0  0  0  0  0  0  0  0  0  0
   10.5133  -18.2250   27.0890 O   0  0  0  0  0  0  0  0  0  0  0  0
  2  3  1  0
  2  1  1  1
  4  3  1  0
  4  5  1  0
  5  6  1  0
  6  7  1  0
  8  2  1  0
  9  8  2  0
 10  8  1  0
 11 10  1  0
 11 12  1  1
 13 12  1  0
 14 13  1  0
 15 14  1  0
 16 15  1  0
 17 11  1  0
 17 18  2  0
 19 17  1  0
 20 19  1  0
 20 21  1  1
 21 22  1  0
 22 26  1  0
 22 23  2  0
 24 20  1  0
 25 24  2  0
 27 24  1  0
M  END
$$$$
