KKD.pdb
     RDKit          3D

 27 26  0  0  1  0  0  0  0  0999 V2000
    7.2727  -16.1743   19.8242 N   0  0  0  0  0  0  0  0  0  0  0  0
    8.5346  -15.5200   19.7678 C   0  0  1  0  0  0  0  0  0  0  0  0
    8.4878  -14.3192   18.8320 C   0  0  0  0  0  0  0  0  0  0  0  0
    8.2146  -14.6491   17.4116 C   0  0  0  0  0  0  0  0  0  0  0  0
    8.2280  -13.5047   16.4471 C   0  0  0  0  0  0  0  0  0  0  0  0
    7.8078  -13.9871   15.0622 C   0  0  0  0  0  0  0  0  0  0  0  0
    7.6312  -12.7504   14.2807 N   0  0  0  0  0  0  0  0  0  0  0  0
    8.9446  -15.0433   21.1445 C   0  0  0  0  0  0  0  0  0  0  0  0
   10.0645  -14.5117   21.2617 O   0  0  0  0  0  0  0  0  0  0  0  0
    8.0728  -15.2092   22.2333 N   0  0  0  0  0  0  0  0  0  0  0  0
    8.3824  -14.7437   23.5713 C   0  0  1  0  0  0  0  0  0  0  0  0
    7.2271  -13.9466   24.1340 C   0  0  0  0  0  0  0  0  0  0  0  0
    7.4416  -13.3732   25.4821 C   0  0  0  0  0  0  0  0  0  0  0  0
    6.2449  -12.5867   25.9675 C   0  0  0  0  0  0  0  0  0  0  0  0
    6.4832  -11.8278   27.2385 C   0  0  0  0  0  0  0  0  0  0  0  0
    6.0790  -12.5034   28.4284 N   0  0  0  0  0  0  0  0  0  0  0  0
    8.7833  -15.8707   24.4067 C   0  0  0  0  0  0  0  0  0  0  0  0
    8.0750  -16.8908   24.6273 O   0  0  0  0  0  0  0  0  0  0  0  0
   10.0526  -15.8584   25.0301 N   0  0  0  0  0  0  0  0  0  0  0  0
   10.5135  -17.0250   25.8312 C   0  0  1  0  0  0  0  0  0  0  0  0
   11.9790  -17.1800   25.4915 C   0  0  0  0  0  0  0  0  0  0  0  0
   12.2902  -17.4609   24.0986 C   0  0  0  0  0  0  0  0  0  0  0  0
   11.8070  -18.4362   23.5096 O   0  0  0  0  0  0  0  0  0  0  0  0
   10.3748  -16.7215   27.2551 C   0  0  0  0  0  0  0  0  0  0  0  0
   10.6723  -17.6061   28.1101 O   0  0  0  0  0  0  0  0  0  0  0  0
   13.1553  -16.6328   23.3633 O   0  0  0  0  0  0  0  0  0  0  0  0
    9.9320  -15.5090   27.7354 O   0  0  0  0  0  0  0  0  0  0  0  0
  2  3  1  0
  2  1  1  1
  4  3  1  0
  4  5  1  0
  5  6  1  0
  6  7  1  0
  8  2  1  0
  9  8  2  0
 10  8  1  0
 11 10  1  0
 11 12  1  1
 13 12  1  0
 14 13  1  0
 15 14  1  0
 16 15  1  0
 17 11  1  0
 17 18  2  0
 19 17  1  0
 20 19  1  0
 20 21  1  1
 21 22  1  0
 22 26  1  0
 22 23  2  0
 24 20  1  0
 25 24  2  0
 27 24  1  0
M  END
$$$$
