KKD.pdb
     RDKit          3D

 27 26  0  0  1  0  0  0  0  0999 V2000
    8.4365  -16.5943   19.0514 N   0  0  0  0  0  0  0  0  0  0  0  0
    8.9413  -15.5597   19.8872 C   0  0  1  0  0  0  0  0  0  0  0  0
    8.2160  -14.2452   19.6307 C   0  0  0  0  0  0  0  0  0  0  0  0
    7.8413  -14.0087   18.2148 C   0  0  0  0  0  0  0  0  0  0  0  0
    7.1389  -12.7211   17.9174 C   0  0  0  0  0  0  0  0  0  0  0  0
    6.6628  -12.7112   16.4681 C   0  0  0  0  0  0  0  0  0  0  0  0
    7.8957  -12.8634   15.6756 N   0  0  0  0  0  0  0  0  0  0  0  0
    8.7712  -15.9282   21.3452 C   0  0  0  0  0  0  0  0  0  0  0  0
    9.1368  -15.0970   22.1973 O   0  0  0  0  0  0  0  0  0  0  0  0
    8.2192  -17.1714   21.6954 N   0  0  0  0  0  0  0  0  0  0  0  0
    8.0652  -17.6086   23.0694 C   0  0  1  0  0  0  0  0  0  0  0  0
    6.9271  -18.5977   23.1847 C   0  0  0  0  0  0  0  0  0  0  0  0
    5.7257  -18.2881   22.3767 C   0  0  0  0  0  0  0  0  0  0  0  0
    4.7322  -19.4279   22.3667 C   0  0  0  0  0  0  0  0  0  0  0  0
    3.4625  -19.1295   21.6272 C   0  0  0  0  0  0  0  0  0  0  0  0
    2.4926  -20.1758   21.6485 N   0  0  0  0  0  0  0  0  0  0  0  0
    9.3380  -18.1132   23.5736 C   0  0  0  0  0  0  0  0  0  0  0  0
    9.9446  -19.1203   23.1167 O   0  0  0  0  0  0  0  0  0  0  0  0
    9.9721  -17.4509   24.6502 N   0  0  0  0  0  0  0  0  0  0  0  0
   11.1993  -18.0197   25.2711 C   0  0  1  0  0  0  0  0  0  0  0  0
   12.2833  -16.9996   25.0040 C   0  0  0  0  0  0  0  0  0  0  0  0
   12.9628  -17.1038   23.7220 C   0  0  0  0  0  0  0  0  0  0  0  0
   12.6115  -17.9259   22.8663 O   0  0  0  0  0  0  0  0  0  0  0  0
   10.9986  -18.1481   26.7140 C   0  0  0  0  0  0  0  0  0  0  0  0
   10.0258  -17.5509   27.2609 O   0  0  0  0  0  0  0  0  0  0  0  0
   14.0496  -16.2720   23.4028 O   0  0  0  0  0  0  0  0  0  0  0  0
   11.8176  -18.8932   27.5333 O   0  0  0  0  0  0  0  0  0  0  0  0
  2  3  1  0
  2  1  1  6
  4  3  1  0
  4  5  1  0
  5  6  1  0
  6  7  1  0
  8  2  1  0
  9  8  2  0
 10  8  1  0
 11 10  1  0
 11 12  1  6
 13 12  1  0
 14 13  1  0
 15 14  1  0
 16 15  1  0
 17 11  1  0
 17 18  2  0
 19 17  1  0
 20 19  1  0
 20 21  1  1
 21 22  1  0
 22 26  1  0
 22 23  2  0
 24 20  1  0
 25 24  2  0
 27 24  1  0
M  END
$$$$
