KKD.pdb
     RDKit          3D

 27 26  0  0  1  0  0  0  0  0999 V2000
    7.0603  -15.7692   19.4620 N   0  0  0  0  0  0  0  0  0  0  0  0
    8.3500  -15.1708   19.4101 C   0  0  1  0  0  0  0  0  0  0  0  0
    8.3575  -13.9652   18.4793 C   0  0  0  0  0  0  0  0  0  0  0  0
    7.7577  -14.2078   17.1442 C   0  0  0  0  0  0  0  0  0  0  0  0
    8.5983  -13.8452   15.9602 C   0  0  0  0  0  0  0  0  0  0  0  0
    7.8461  -14.1631   14.6717 C   0  0  0  0  0  0  0  0  0  0  0  0
    8.7844  -13.7924   13.5978 N   0  0  0  0  0  0  0  0  0  0  0  0
    8.7783  -14.7183   20.7894 C   0  0  0  0  0  0  0  0  0  0  0  0
    9.9510  -14.3238   20.9294 O   0  0  0  0  0  0  0  0  0  0  0  0
    7.8643  -14.7545   21.8554 N   0  0  0  0  0  0  0  0  0  0  0  0
    8.2200  -14.3916   23.2136 C   0  0  1  0  0  0  0  0  0  0  0  0
    7.0566  -13.7127   23.9009 C   0  0  0  0  0  0  0  0  0  0  0  0
    7.3332  -13.1857   25.2566 C   0  0  0  0  0  0  0  0  0  0  0  0
    6.1287  -12.5010   25.8622 C   0  0  0  0  0  0  0  0  0  0  0  0
    6.3859  -11.8764   27.2009 C   0  0  0  0  0  0  0  0  0  0  0  0
    5.2425  -11.2916   27.8225 N   0  0  0  0  0  0  0  0  0  0  0  0
    8.7218  -15.5633   23.9235 C   0  0  0  0  0  0  0  0  0  0  0  0
    8.1119  -16.6634   24.0178 O   0  0  0  0  0  0  0  0  0  0  0  0
    9.9815  -15.5031   24.5632 N   0  0  0  0  0  0  0  0  0  0  0  0
   10.5900  -16.7268   25.1528 C   0  0  1  0  0  0  0  0  0  0  0  0
   12.0830  -16.5263   25.0189 C   0  0  0  0  0  0  0  0  0  0  0  0
   12.8102  -17.5657   24.3071 C   0  0  0  0  0  0  0  0  0  0  0  0
   12.2473  -18.5912   23.9032 O   0  0  0  0  0  0  0  0  0  0  0  0
   10.2366  -16.8104   26.5695 C   0  0  0  0  0  0  0  0  0  0  0  0
    9.8564  -15.7672   27.1770 O   0  0  0  0  0  0  0  0  0  0  0  0
   14.1864  -17.4467   24.0488 O   0  0  0  0  0  0  0  0  0  0  0  0
   10.2921  -17.9766   27.3003 O   0  0  0  0  0  0  0  0  0  0  0  0
  2  3  1  0
  2  1  1  1
  4  3  1  0
  4  5  1  0
  5  6  1  0
  6  7  1  0
  8  2  1  0
  9  8  2  0
 10  8  1  0
 11 10  1  0
 11 12  1  1
 13 12  1  0
 14 13  1  0
 15 14  1  0
 16 15  1  0
 17 11  1  0
 17 18  2  0
 19 17  1  0
 20 19  1  0
 20 21  1  1
 21 22  1  0
 22 26  1  0
 22 23  2  0
 24 20  1  0
 25 24  2  0
 27 24  1  0
M  END
$$$$
