KKD.pdb
     RDKit          3D

 27 26  0  0  1  0  0  0  0  0999 V2000
    7.4257  -16.0204   19.4826 N   0  0  0  0  0  0  0  0  0  0  0  0
    8.4466  -15.0299   19.5056 C   0  0  1  0  0  0  0  0  0  0  0  0
    8.0163  -13.7817   18.7461 C   0  0  0  0  0  0  0  0  0  0  0  0
    7.3440  -14.0445   17.4500 C   0  0  0  0  0  0  0  0  0  0  0  0
    7.9937  -13.4649   16.2327 C   0  0  0  0  0  0  0  0  0  0  0  0
    7.2051  -13.8556   14.9866 C   0  0  0  0  0  0  0  0  0  0  0  0
    7.8879  -13.1542   13.8852 N   0  0  0  0  0  0  0  0  0  0  0  0
    8.7716  -14.6392   20.9312 C   0  0  0  0  0  0  0  0  0  0  0  0
    9.6988  -13.8276   21.1105 O   0  0  0  0  0  0  0  0  0  0  0  0
    8.0376  -15.1898   21.9947 N   0  0  0  0  0  0  0  0  0  0  0  0
    8.3529  -14.9361   23.3872 C   0  0  1  0  0  0  0  0  0  0  0  0
    7.1155  -14.4974   24.1377 C   0  0  0  0  0  0  0  0  0  0  0  0
    7.2845  -14.3109   25.5968 C   0  0  0  0  0  0  0  0  0  0  0  0
    6.7129  -12.9958   26.0765 C   0  0  0  0  0  0  0  0  0  0  0  0
    6.8136  -12.7861   27.5577 C   0  0  0  0  0  0  0  0  0  0  0  0
    6.2290  -11.5757   28.0361 N   0  0  0  0  0  0  0  0  0  0  0  0
    9.0107  -16.1028   23.9660 C   0  0  0  0  0  0  0  0  0  0  0  0
    8.5216  -17.2651   23.9929 O   0  0  0  0  0  0  0  0  0  0  0  0
   10.2927  -15.9627   24.5463 N   0  0  0  0  0  0  0  0  0  0  0  0
   10.9567  -17.1216   25.2030 C   0  0  1  0  0  0  0  0  0  0  0  0
   12.4389  -16.8598   25.0557 C   0  0  0  0  0  0  0  0  0  0  0  0
   12.9481  -16.7930   23.6947 C   0  0  0  0  0  0  0  0  0  0  0  0
   12.5748  -17.5875   22.8224 O   0  0  0  0  0  0  0  0  0  0  0  0
   10.6061  -17.1416   26.6226 C   0  0  0  0  0  0  0  0  0  0  0  0
    9.9685  -16.1671   27.1183 O   0  0  0  0  0  0  0  0  0  0  0  0
   13.8880  -15.8198   23.3146 O   0  0  0  0  0  0  0  0  0  0  0  0
   10.9321  -18.1751   27.4728 O   0  0  0  0  0  0  0  0  0  0  0  0
  2  3  1  0
  2  1  1  1
  4  3  1  0
  4  5  1  0
  5  6  1  0
  6  7  1  0
  8  2  1  0
  9  8  2  0
 10  8  1  0
 11 10  1  0
 11 12  1  1
 13 12  1  0
 14 13  1  0
 15 14  1  0
 16 15  1  0
 17 11  1  0
 17 18  2  0
 19 17  1  0
 20 19  1  0
 20 21  1  1
 21 22  1  0
 22 26  1  0
 22 23  2  0
 24 20  1  0
 25 24  2  0
 27 24  1  0
M  END
$$$$
