KKD.pdb
     RDKit          3D

 27 26  0  0  1  0  0  0  0  0999 V2000
    8.8732  -15.9973   18.5268 N   0  0  0  0  0  0  0  0  0  0  0  0
    7.9317  -16.1394   19.5838 C   0  0  1  0  0  0  0  0  0  0  0  0
    7.5445  -17.5994   19.7800 C   0  0  0  0  0  0  0  0  0  0  0  0
    6.9344  -18.2451   18.5919 C   0  0  0  0  0  0  0  0  0  0  0  0
    6.5099  -19.6712   18.7528 C   0  0  0  0  0  0  0  0  0  0  0  0
    5.7320  -20.1243   17.5212 C   0  0  0  0  0  0  0  0  0  0  0  0
    5.2848  -21.4890   17.8510 N   0  0  0  0  0  0  0  0  0  0  0  0
    8.5099  -15.6150   20.8804 C   0  0  0  0  0  0  0  0  0  0  0  0
    9.7303  -15.7701   21.0729 O   0  0  0  0  0  0  0  0  0  0  0  0
    7.6753  -14.9817   21.8160 N   0  0  0  0  0  0  0  0  0  0  0  0
    8.1444  -14.5199   23.1081 C   0  0  1  0  0  0  0  0  0  0  0  0
    7.0871  -13.6753   23.7830 C   0  0  0  0  0  0  0  0  0  0  0  0
    7.4172  -13.2075   25.1484 C   0  0  0  0  0  0  0  0  0  0  0  0
    6.3375  -12.3212   25.7274 C   0  0  0  0  0  0  0  0  0  0  0  0
    6.6141  -11.8479   27.1229 C   0  0  0  0  0  0  0  0  0  0  0  0
    5.6672  -10.9152   27.6417 N   0  0  0  0  0  0  0  0  0  0  0  0
    8.5900  -15.6562   23.9075 C   0  0  0  0  0  0  0  0  0  0  0  0
    7.8672  -16.6396   24.2260 O   0  0  0  0  0  0  0  0  0  0  0  0
    9.9236  -15.6975   24.3760 N   0  0  0  0  0  0  0  0  0  0  0  0
   10.4445  -16.9062   25.0709 C   0  0  1  0  0  0  0  0  0  0  0  0
   11.9052  -16.9811   24.6865 C   0  0  0  0  0  0  0  0  0  0  0  0
   12.6690  -18.0723   25.2711 C   0  0  0  0  0  0  0  0  0  0  0  0
   12.1566  -18.8700   26.0665 O   0  0  0  0  0  0  0  0  0  0  0  0
   10.3321  -16.7210   26.5172 C   0  0  0  0  0  0  0  0  0  0  0  0
   10.7574  -17.6256   27.2937 O   0  0  0  0  0  0  0  0  0  0  0  0
   14.0247  -18.2650   24.9550 O   0  0  0  0  0  0  0  0  0  0  0  0
    9.7817  -15.6014   27.1009 O   0  0  0  0  0  0  0  0  0  0  0  0
  2  3  1  0
  2  1  1  6
  4  3  1  0
  4  5  1  0
  5  6  1  0
  6  7  1  0
  8  2  1  0
  9  8  2  0
 10  8  1  0
 11 10  1  0
 11 12  1  1
 13 12  1  0
 14 13  1  0
 15 14  1  0
 16 15  1  0
 17 11  1  0
 17 18  2  0
 19 17  1  0
 20 19  1  0
 20 21  1  1
 21 22  1  0
 22 26  1  0
 22 23  2  0
 24 20  1  0
 25 24  2  0
 27 24  1  0
M  END
$$$$
