KKD.pdb
     RDKit          3D

 27 26  0  0  1  0  0  0  0  0999 V2000
    6.9643  -15.2527   19.3218 N   0  0  0  0  0  0  0  0  0  0  0  0
    8.2347  -14.6144   19.2723 C   0  0  1  0  0  0  0  0  0  0  0  0
    8.1602  -13.3051   18.4976 C   0  0  0  0  0  0  0  0  0  0  0  0
    7.5519  -13.4154   17.1489 C   0  0  0  0  0  0  0  0  0  0  0  0
    8.2499  -14.3114   16.1743 C   0  0  0  0  0  0  0  0  0  0  0  0
    7.5183  -14.2938   14.8358 C   0  0  0  0  0  0  0  0  0  0  0  0
    8.3074  -15.1918   13.9743 N   0  0  0  0  0  0  0  0  0  0  0  0
    8.7328  -14.3199   20.6708 C   0  0  0  0  0  0  0  0  0  0  0  0
    9.9234  -13.9789   20.7998 O   0  0  0  0  0  0  0  0  0  0  0  0
    7.8609  -14.4370   21.7658 N   0  0  0  0  0  0  0  0  0  0  0  0
    8.2896  -14.2596   23.1396 C   0  0  1  0  0  0  0  0  0  0  0  0
    7.2004  -13.5952   23.9514 C   0  0  0  0  0  0  0  0  0  0  0  0
    7.5206  -13.3558   25.3770 C   0  0  0  0  0  0  0  0  0  0  0  0
    6.3891  -12.6728   26.1117 C   0  0  0  0  0  0  0  0  0  0  0  0
    6.6812  -12.3792   27.5528 C   0  0  0  0  0  0  0  0  0  0  0  0
    5.6032  -11.7897   28.2781 N   0  0  0  0  0  0  0  0  0  0  0  0
    8.7373  -15.5359   23.6868 C   0  0  0  0  0  0  0  0  0  0  0  0
    8.0795  -16.6110   23.6363 O   0  0  0  0  0  0  0  0  0  0  0  0
    9.9964  -15.6162   24.3257 N   0  0  0  0  0  0  0  0  0  0  0  0
   10.5223  -16.9254   24.7996 C   0  0  1  0  0  0  0  0  0  0  0  0
   11.8756  -17.0669   24.1396 C   0  0  0  0  0  0  0  0  0  0  0  0
   12.6489  -18.2440   24.5037 C   0  0  0  0  0  0  0  0  0  0  0  0
   12.1816  -19.1270   25.2341 O   0  0  0  0  0  0  0  0  0  0  0  0
   10.6924  -16.8835   26.2515 C   0  0  0  0  0  0  0  0  0  0  0  0
   10.6887  -15.7655   26.8448 O   0  0  0  0  0  0  0  0  0  0  0  0
   13.9626  -18.4260   24.0390 O   0  0  0  0  0  0  0  0  0  0  0  0
   10.8597  -18.0065   27.0311 O   0  0  0  0  0  0  0  0  0  0  0  0
  2  3  1  0
  2  1  1  1
  4  3  1  0
  4  5  1  0
  5  6  1  0
  6  7  1  0
  8  2  1  0
  9  8  2  0
 10  8  1  0
 11 10  1  0
 11 12  1  1
 13 12  1  0
 14 13  1  0
 15 14  1  0
 16 15  1  0
 17 11  1  0
 17 18  2  0
 19 17  1  0
 20 19  1  0
 20 21  1  6
 21 22  1  0
 22 26  1  0
 22 23  2  0
 24 20  1  0
 25 24  2  0
 27 24  1  0
M  END
$$$$
