KKD.pdb
     RDKit          3D

 27 26  0  0  1  0  0  0  0  0999 V2000
    9.2955  -19.9834   17.7074 N   0  0  0  0  0  0  0  0  0  0  0  0
    9.9245  -18.7078   17.6759 C   0  0  1  0  0  0  0  0  0  0  0  0
    9.1060  -17.7132   16.8629 C   0  0  0  0  0  0  0  0  0  0  0  0
    8.0802  -18.3255   15.9833 C   0  0  0  0  0  0  0  0  0  0  0  0
    7.7844  -17.6070   14.7042 C   0  0  0  0  0  0  0  0  0  0  0  0
    6.3863  -17.9713   14.2146 C   0  0  0  0  0  0  0  0  0  0  0  0
    6.2210  -17.2007   12.9695 N   0  0  0  0  0  0  0  0  0  0  0  0
   10.0885  -18.1648   19.0791 C   0  0  0  0  0  0  0  0  0  0  0  0
   10.6082  -17.0404   19.2060 O   0  0  0  0  0  0  0  0  0  0  0  0
    9.6621  -18.9253   20.1804 N   0  0  0  0  0  0  0  0  0  0  0  0
    9.7334  -18.4454   21.5469 C   0  0  1  0  0  0  0  0  0  0  0  0
    8.8101  -19.2465   22.4371 C   0  0  0  0  0  0  0  0  0  0  0  0
    7.3649  -19.1164   22.1425 C   0  0  0  0  0  0  0  0  0  0  0  0
    6.5155  -19.9817   23.0459 C   0  0  0  0  0  0  0  0  0  0  0  0
    5.0394  -19.8324   22.8290 C   0  0  0  0  0  0  0  0  0  0  0  0
    4.2205  -20.6063   23.7043 N   0  0  0  0  0  0  0  0  0  0  0  0
   11.1218  -18.4345   21.9955 C   0  0  0  0  0  0  0  0  0  0  0  0
   11.8915  -19.4336   21.9780 O   0  0  0  0  0  0  0  0  0  0  0  0
   11.6842  -17.2350   22.4901 N   0  0  0  0  0  0  0  0  0  0  0  0
   13.1026  -17.1931   22.9392 C   0  0  1  0  0  0  0  0  0  0  0  0
   13.6327  -15.8670   22.4417 C   0  0  0  0  0  0  0  0  0  0  0  0
   15.0370  -15.5955   22.7067 C   0  0  0  0  0  0  0  0  0  0  0  0
   15.7505  -16.4031   23.3153 O   0  0  0  0  0  0  0  0  0  0  0  0
   13.1501  -17.2175   24.4006 C   0  0  0  0  0  0  0  0  0  0  0  0
   14.2503  -17.4487   24.9820 O   0  0  0  0  0  0  0  0  0  0  0  0
   15.6419  -14.4008   22.2808 O   0  0  0  0  0  0  0  0  0  0  0  0
   12.0511  -17.0000   25.2018 O   0  0  0  0  0  0  0  0  0  0  0  0
  2  3  1  0
  2  1  1  1
  4  3  1  0
  4  5  1  0
  5  6  1  0
  6  7  1  0
  8  2  1  0
  9  8  2  0
 10  8  1  0
 11 10  1  0
 11 12  1  1
 13 12  1  0
 14 13  1  0
 15 14  1  0
 16 15  1  0
 17 11  1  0
 17 18  2  0
 19 17  1  0
 20 19  1  0
 20 21  1  1
 21 22  1  0
 22 26  1  0
 22 23  2  0
 24 20  1  0
 25 24  2  0
 27 24  1  0
M  END
$$$$
