KKD.pdb
     RDKit          3D

 27 26  0  0  1  0  0  0  0  0999 V2000
    8.3055  -15.2610   18.7663 N   0  0  0  0  0  0  0  0  0  0  0  0
    7.6257  -15.8349   19.8763 C   0  0  1  0  0  0  0  0  0  0  0  0
    7.6429  -17.3562   19.8025 C   0  0  0  0  0  0  0  0  0  0  0  0
    8.9898  -17.9543   19.6322 C   0  0  0  0  0  0  0  0  0  0  0  0
    9.0381  -19.4314   19.3963 C   0  0  0  0  0  0  0  0  0  0  0  0
   10.4824  -19.8787   19.1934 C   0  0  0  0  0  0  0  0  0  0  0  0
   10.3923  -21.3376   19.0073 N   0  0  0  0  0  0  0  0  0  0  0  0
    8.2774  -15.4073   21.1736 C   0  0  0  0  0  0  0  0  0  0  0  0
    9.4978  -15.1606   21.1529 O   0  0  0  0  0  0  0  0  0  0  0  0
    7.5085  -15.3027   22.3445 N   0  0  0  0  0  0  0  0  0  0  0  0
    8.0706  -14.9291   23.6280 C   0  0  1  0  0  0  0  0  0  0  0  0
    6.9940  -14.3790   24.5363 C   0  0  0  0  0  0  0  0  0  0  0  0
    7.3601  -13.1647   25.3001 C   0  0  0  0  0  0  0  0  0  0  0  0
    6.2252  -12.6698   26.1683 C   0  0  0  0  0  0  0  0  0  0  0  0
    6.5825  -11.5034   27.0401 C   0  0  0  0  0  0  0  0  0  0  0  0
    5.5299  -11.0358   27.8822 N   0  0  0  0  0  0  0  0  0  0  0  0
    8.8007  -16.0576   24.1956 C   0  0  0  0  0  0  0  0  0  0  0  0
    8.3657  -17.2402   24.2538 O   0  0  0  0  0  0  0  0  0  0  0  0
   10.0951  -15.8530   24.7269 N   0  0  0  0  0  0  0  0  0  0  0  0
   10.8354  -16.9733   25.3690 C   0  0  1  0  0  0  0  0  0  0  0  0
   12.2941  -16.5861   25.2727 C   0  0  0  0  0  0  0  0  0  0  0  0
   12.9156  -16.7399   23.9666 C   0  0  0  0  0  0  0  0  0  0  0  0
   12.2913  -17.1970   23.0007 O   0  0  0  0  0  0  0  0  0  0  0  0
   10.4498  -17.0665   26.7766 C   0  0  0  0  0  0  0  0  0  0  0  0
    9.7583  -16.1408   27.2932 O   0  0  0  0  0  0  0  0  0  0  0  0
   14.2549  -16.3745   23.7485 O   0  0  0  0  0  0  0  0  0  0  0  0
   10.7981  -18.1194   27.5932 O   0  0  0  0  0  0  0  0  0  0  0  0
  2  3  1  0
  2  1  1  6
  4  3  1  0
  4  5  1  0
  5  6  1  0
  6  7  1  0
  8  2  1  0
  9  8  2  0
 10  8  1  0
 11 10  1  0
 11 12  1  1
 13 12  1  0
 14 13  1  0
 15 14  1  0
 16 15  1  0
 17 11  1  0
 17 18  2  0
 19 17  1  0
 20 19  1  0
 20 21  1  1
 21 22  1  0
 22 26  1  0
 22 23  2  0
 24 20  1  0
 25 24  2  0
 27 24  1  0
M  END
$$$$
