KKD.pdb
     RDKit          3D

 27 26  0  0  1  0  0  0  0  0999 V2000
   10.3846  -17.6828   16.7983 N   0  0  0  0  0  0  0  0  0  0  0  0
   10.1782  -18.3212   18.0527 C   0  0  1  0  0  0  0  0  0  0  0  0
   10.8618  -19.6817   18.0941 C   0  0  0  0  0  0  0  0  0  0  0  0
   12.2953  -19.6682   17.7119 C   0  0  0  0  0  0  0  0  0  0  0  0
   12.9913  -20.9929   17.6890 C   0  0  0  0  0  0  0  0  0  0  0  0
   14.4178  -20.8219   17.1761 C   0  0  0  0  0  0  0  0  0  0  0  0
   15.0121  -22.1655   17.2888 N   0  0  0  0  0  0  0  0  0  0  0  0
   10.7296  -17.4697   19.1759 C   0  0  0  0  0  0  0  0  0  0  0  0
   11.7301  -16.7697   18.9321 O   0  0  0  0  0  0  0  0  0  0  0  0
   10.1149  -17.4897   20.4387 N   0  0  0  0  0  0  0  0  0  0  0  0
   10.5593  -16.6664   21.5467 C   0  0  1  0  0  0  0  0  0  0  0  0
    9.4265  -16.4368   22.5219 C   0  0  0  0  0  0  0  0  0  0  0  0
    9.7316  -15.5359   23.6565 C   0  0  0  0  0  0  0  0  0  0  0  0
    8.5186  -15.2694   24.5191 C   0  0  0  0  0  0  0  0  0  0  0  0
    8.7349  -14.2317   25.5795 C   0  0  0  0  0  0  0  0  0  0  0  0
    7.6235  -14.0167   26.4478 N   0  0  0  0  0  0  0  0  0  0  0  0
   11.7493  -17.2537   22.1532 C   0  0  0  0  0  0  0  0  0  0  0  0
   11.9363  -18.4899   22.3205 O   0  0  0  0  0  0  0  0  0  0  0  0
   12.7937  -16.4095   22.5962 N   0  0  0  0  0  0  0  0  0  0  0  0
   14.0577  -16.9860   23.1303 C   0  0  1  0  0  0  0  0  0  0  0  0
   15.1120  -15.9351   22.8633 C   0  0  0  0  0  0  0  0  0  0  0  0
   16.4945  -16.3514   23.0404 C   0  0  0  0  0  0  0  0  0  0  0  0
   16.7900  -17.5222   23.3115 O   0  0  0  0  0  0  0  0  0  0  0  0
   13.9279  -17.1877   24.5729 C   0  0  0  0  0  0  0  0  0  0  0  0
   12.9625  -16.6503   25.1903 O   0  0  0  0  0  0  0  0  0  0  0  0
   17.5538  -15.4372   22.9105 O   0  0  0  0  0  0  0  0  0  0  0  0
   14.8074  -17.9412   25.3184 O   0  0  0  0  0  0  0  0  0  0  0  0
  2  3  1  0
  2  1  1  6
  4  3  1  0
  4  5  1  0
  5  6  1  0
  6  7  1  0
  8  2  1  0
  9  8  2  0
 10  8  1  0
 11 10  1  0
 11 12  1  1
 13 12  1  0
 14 13  1  0
 15 14  1  0
 16 15  1  0
 17 11  1  0
 17 18  2  0
 19 17  1  0
 20 19  1  0
 20 21  1  1
 21 22  1  0
 22 26  1  0
 22 23  2  0
 24 20  1  0
 25 24  2  0
 27 24  1  0
M  END
$$$$
