VMW.pdb
     RDKit          3D

 30 31  0  0  1  0  0  0  0  0999 V2000
    8.4445  -12.9211   21.3957 C   0  0  0  0  0  0  0  0  0  0  0  0
    7.5581  -13.4574   20.3140 C   0  0  1  0  0  0  0  0  0  0  0  0
    7.3580  -12.3802   19.2583 C   0  0  0  0  0  0  0  0  0  0  0  0
    8.2066  -14.6897   19.7077 C   0  0  2  0  0  0  0  0  0  0  0  0
    7.3697  -15.2661   18.6708 N   0  0  0  0  0  0  0  0  0  0  0  0
    8.3283  -15.6888   20.7832 C   0  0  0  0  0  0  0  0  0  0  0  0
    7.3151  -16.3026   21.2099 O   0  0  0  0  0  0  0  0  0  0  0  0
   11.4533  -21.0194   20.7630 C   0  0  0  0  0  0  0  0  0  0  0  0
   11.7333  -20.5818   22.4947 S   0  0  0  0  0  0  0  0  0  0  0  0
   10.5723  -19.2668   22.9509 C   0  0  0  0  0  0  0  0  0  0  0  0
   10.6215  -18.1489   21.9283 C   0  0  0  0  0  0  0  0  0  0  0  0
    9.6948  -17.0434   22.4049 C   0  0  2  0  0  0  0  0  0  0  0  0
    9.5793  -16.0138   21.3929 N   0  0  0  0  0  0  0  0  0  0  0  0
   10.1680  -16.4678   23.6901 C   0  0  0  0  0  0  0  0  0  0  0  0
   11.1024  -15.6068   23.6925 O   0  0  0  0  0  0  0  0  0  0  0  0
    9.5530  -16.9042   24.8919 N   0  0  0  0  0  0  0  0  0  0  0  0
    9.9848  -16.4236   26.1848 C   0  0  1  0  0  0  0  0  0  0  0  0
    8.7731  -16.2535   27.0741 C   0  0  0  0  0  0  0  0  0  0  0  0
    7.7212  -15.4397   26.4505 C   0  0  0  0  0  0  0  0  0  0  0  0
    6.6402  -15.8870   25.7045 C   0  0  0  0  0  0  0  0  0  0  0  0
    5.9310  -14.8160   25.3259 N   0  0  0  0  0  0  0  0  0  0  0  0
    6.4723  -13.6809   25.7736 C   0  0  0  0  0  0  0  0  0  0  0  0
    6.1198  -12.3554   25.6507 C   0  0  0  0  0  0  0  0  0  0  0  0
    6.9088  -11.4003   26.2471 C   0  0  0  0  0  0  0  0  0  0  0  0
    8.0274  -11.7910   26.9498 C   0  0  0  0  0  0  0  0  0  0  0  0
    8.3871  -13.1133   27.0777 C   0  0  0  0  0  0  0  0  0  0  0  0
    7.6033  -14.0656   26.4848 C   0  0  0  0  0  0  0  0  0  0  0  0
   10.9738  -17.3627   26.7671 C   0  0  0  0  0  0  0  0  0  0  0  0
   11.2044  -18.4490   26.1806 O   0  0  0  0  0  0  0  0  0  0  0  0
   11.6302  -17.0445   27.9378 O   0  0  0  0  0  0  0  0  0  0  0  0
  2  1  1  1
  3  2  1  0
  4  6  1  0
  4  2  1  0
  4  5  1  6
  6  7  2  0
  9  8  1  0
 10  9  1  0
 11 10  1  0
 12 11  1  6
 12 14  1  0
 13 12  1  0
 13  6  1  0
 14 15  2  0
 16 14  1  0
 16 17  1  0
 17 28  1  0
 17 18  1  1
 19 27  1  0
 19 18  1  0
 20 19  2  0
 21 20  1  0
 21 22  1  0
 22 27  2  0
 23 22  1  0
 23 24  2  0
 24 25  1  0
 25 26  2  0
 27 26  1  0
 28 29  2  0
 28 30  1  0
M  END
$$$$
