VMW.pdb
     RDKit          3D

 30 31  0  0  1  0  0  0  0  0999 V2000
    8.9469  -12.9426   20.6076 C   0  0  0  0  0  0  0  0  0  0  0  0
    8.0132  -13.4693   19.5615 C   0  0  1  0  0  0  0  0  0  0  0  0
    7.8633  -12.4281   18.4622 C   0  0  0  0  0  0  0  0  0  0  0  0
    8.5760  -14.7641   19.0018 C   0  0  2  0  0  0  0  0  0  0  0  0
    7.7127  -15.3078   17.9690 N   0  0  0  0  0  0  0  0  0  0  0  0
    8.6081  -15.7364   20.1078 C   0  0  0  0  0  0  0  0  0  0  0  0
    7.5416  -16.2147   20.5761 O   0  0  0  0  0  0  0  0  0  0  0  0
   12.6985  -20.4826   20.8621 C   0  0  0  0  0  0  0  0  0  0  0  0
   11.9325  -19.7072   19.4197 S   0  0  0  0  0  0  0  0  0  0  0  0
   11.0441  -18.2251   19.9670 C   0  0  0  0  0  0  0  0  0  0  0  0
   10.6078  -18.3811   21.4103 C   0  0  0  0  0  0  0  0  0  0  0  0
    9.8440  -17.1275   21.8018 C   0  0  2  0  0  0  0  0  0  0  0  0
    9.8279  -16.1853   20.7019 N   0  0  0  0  0  0  0  0  0  0  0  0
   10.4266  -16.5061   23.0189 C   0  0  0  0  0  0  0  0  0  0  0  0
   11.4478  -15.7565   22.9203 O   0  0  0  0  0  0  0  0  0  0  0  0
    9.8158  -16.7735   24.2713 N   0  0  0  0  0  0  0  0  0  0  0  0
   10.3769  -16.2848   25.5104 C   0  0  1  0  0  0  0  0  0  0  0  0
    9.8839  -14.8748   25.7492 C   0  0  0  0  0  0  0  0  0  0  0  0
    8.4306  -14.8085   25.9522 C   0  0  0  0  0  0  0  0  0  0  0  0
    7.5229  -15.8564   25.8957 C   0  0  0  0  0  0  0  0  0  0  0  0
    6.3042  -15.3578   26.1397 N   0  0  0  0  0  0  0  0  0  0  0  0
    6.3427  -14.0412   26.3558 C   0  0  0  0  0  0  0  0  0  0  0  0
    5.3752  -13.1037   26.6412 C   0  0  0  0  0  0  0  0  0  0  0  0
    5.7510  -11.7924   26.8127 C   0  0  0  0  0  0  0  0  0  0  0  0
    7.0802  -11.4500   26.6954 C   0  0  0  0  0  0  0  0  0  0  0  0
    8.0537  -12.3802   26.4105 C   0  0  0  0  0  0  0  0  0  0  0  0
    7.6818  -13.6861   26.2393 C   0  0  0  0  0  0  0  0  0  0  0  0
   10.0134  -17.1961   26.6223 C   0  0  0  0  0  0  0  0  0  0  0  0
   10.4319  -16.9458   27.7797 O   0  0  0  0  0  0  0  0  0  0  0  0
    9.2260  -18.3036   26.3854 O   0  0  0  0  0  0  0  0  0  0  0  0
  2  1  1  1
  3  2  1  0
  4  6  1  0
  4  2  1  0
  4  5  1  6
  6  7  2  0
  9  8  1  0
 10  9  1  0
 11 10  1  0
 12 11  1  6
 12 14  1  0
 13 12  1  0
 13  6  1  0
 14 15  2  0
 16 14  1  0
 16 17  1  0
 17 28  1  0
 17 18  1  1
 19 27  1  0
 19 18  1  0
 20 19  2  0
 21 20  1  0
 21 22  1  0
 22 27  2  0
 23 22  1  0
 23 24  2  0
 24 25  1  0
 25 26  2  0
 27 26  1  0
 28 29  2  0
 28 30  1  0
M  END
$$$$
