VMW.pdb
     RDKit          3D

 30 31  0  0  1  0  0  0  0  0999 V2000
    2.4209  -20.3958   22.7509 C   0  0  0  0  0  0  0  0  0  0  0  0
    3.2225  -19.1563   23.0050 C   0  0  1  0  0  0  0  0  0  0  0  0
    2.5634  -18.3608   24.1219 C   0  0  0  0  0  0  0  0  0  0  0  0
    4.6375  -19.5517   23.3899 C   0  0  2  0  0  0  0  0  0  0  0  0
    4.6724  -20.1554   24.7098 N   0  0  0  0  0  0  0  0  0  0  0  0
    5.4325  -18.3132   23.4495 C   0  0  0  0  0  0  0  0  0  0  0  0
    5.6604  -17.6434   22.4079 O   0  0  0  0  0  0  0  0  0  0  0  0
    8.5551  -13.0066   27.9363 C   0  0  0  0  0  0  0  0  0  0  0  0
    6.9054  -13.6626   27.5946 S   0  0  0  0  0  0  0  0  0  0  0  0
    6.9283  -14.4574   25.9657 C   0  0  0  0  0  0  0  0  0  0  0  0
    6.5674  -15.9240   26.0953 C   0  0  0  0  0  0  0  0  0  0  0  0
    6.7116  -16.5599   24.7232 C   0  0  2  0  0  0  0  0  0  0  0  0
    5.9805  -17.8091   24.6693 N   0  0  0  0  0  0  0  0  0  0  0  0
    8.1417  -16.7716   24.3809 C   0  0  0  0  0  0  0  0  0  0  0  0
    8.7727  -17.7560   24.8778 O   0  0  0  0  0  0  0  0  0  0  0  0
    8.7668  -15.8543   23.4972 N   0  0  0  0  0  0  0  0  0  0  0  0
   10.1066  -16.0705   23.0002 C   0  0  1  0  0  0  0  0  0  0  0  0
   10.3987  -15.0530   21.9198 C   0  0  0  0  0  0  0  0  0  0  0  0
    9.1860  -14.5944   21.2293 C   0  0  0  0  0  0  0  0  0  0  0  0
    7.8706  -14.9133   21.5346 C   0  0  0  0  0  0  0  0  0  0  0  0
    7.0806  -14.2833   20.6557 N   0  0  0  0  0  0  0  0  0  0  0  0
    7.7881  -13.5632   19.7824 C   0  0  0  0  0  0  0  0  0  0  0  0
    7.4383  -12.7617   18.7186 C   0  0  0  0  0  0  0  0  0  0  0  0
    8.4325  -12.1417   17.9991 C   0  0  0  0  0  0  0  0  0  0  0  0
    9.7480  -12.3367   18.3583 C   0  0  0  0  0  0  0  0  0  0  0  0
   10.1066  -13.1359   19.4198 C   0  0  0  0  0  0  0  0  0  0  0  0
    9.1187  -13.7540   20.1374 C   0  0  0  0  0  0  0  0  0  0  0  0
   11.0780  -15.9886   24.1177 C   0  0  0  0  0  0  0  0  0  0  0  0
   10.6611  -15.7223   25.2720 O   0  0  0  0  0  0  0  0  0  0  0  0
   12.4215  -16.2024   23.8891 O   0  0  0  0  0  0  0  0  0  0  0  0
  2  1  1  1
  3  2  1  0
  4  6  1  0
  4  2  1  0
  4  5  1  1
  6  7  2  0
  9  8  1  0
 10  9  1  0
 11 10  1  0
 12 11  1  1
 12 14  1  0
 13 12  1  0
 13  6  1  0
 14 15  2  0
 16 14  1  0
 16 17  1  0
 17 28  1  0
 17 18  1  6
 19 27  1  0
 19 18  1  0
 20 19  2  0
 21 20  1  0
 21 22  1  0
 22 27  2  0
 23 22  1  0
 23 24  2  0
 24 25  1  0
 25 26  2  0
 27 26  1  0
 28 29  2  0
 28 30  1  0
M  END
$$$$
