VMW.pdb
     RDKit          3D

 30 31  0  0  1  0  0  0  0  0999 V2000
    9.1060  -21.1263   19.2408 C   0  0  0  0  0  0  0  0  0  0  0  0
    7.8822  -20.6690   19.9735 C   0  0  1  0  0  0  0  0  0  0  0  0
    6.9240  -21.8421   20.1171 C   0  0  0  0  0  0  0  0  0  0  0  0
    8.2902  -20.1386   21.3368 C   0  0  2  0  0  0  0  0  0  0  0  0
    7.1312  -19.9252   22.1847 N   0  0  0  0  0  0  0  0  0  0  0  0
    8.9258  -18.8278   21.1193 C   0  0  0  0  0  0  0  0  0  0  0  0
   10.0162  -18.7361   20.4964 O   0  0  0  0  0  0  0  0  0  0  0  0
    6.5302  -12.0659   21.3597 C   0  0  0  0  0  0  0  0  0  0  0  0
    7.4811  -12.7723   19.9939 S   0  0  0  0  0  0  0  0  0  0  0  0
    8.6414  -13.9898   20.6698 C   0  0  0  0  0  0  0  0  0  0  0  0
    7.9297  -15.3038   20.9249 C   0  0  0  0  0  0  0  0  0  0  0  0
    8.9745  -16.3223   21.3481 C   0  0  2  0  0  0  0  0  0  0  0  0
    8.3527  -17.6073   21.5930 N   0  0  0  0  0  0  0  0  0  0  0  0
    9.7157  -15.8585   22.5492 C   0  0  0  0  0  0  0  0  0  0  0  0
   10.4405  -14.8171   22.4831 O   0  0  0  0  0  0  0  0  0  0  0  0
    9.5892  -16.6042   23.7496 N   0  0  0  0  0  0  0  0  0  0  0  0
   10.2929  -16.2291   24.9551 C   0  0  1  0  0  0  0  0  0  0  0  0
    9.3533  -16.3632   26.1329 C   0  0  0  0  0  0  0  0  0  0  0  0
    8.0850  -15.6501   25.9311 C   0  0  0  0  0  0  0  0  0  0  0  0
    6.8727  -16.1861   25.5207 C   0  0  0  0  0  0  0  0  0  0  0  0
    5.9802  -15.1891   25.4664 N   0  0  0  0  0  0  0  0  0  0  0  0
    6.5225  -14.0204   25.8155 C   0  0  0  0  0  0  0  0  0  0  0  0
    6.0227  -12.7410   25.9142 C   0  0  0  0  0  0  0  0  0  0  0  0
    6.8630  -11.7287   26.3136 C   0  0  0  0  0  0  0  0  0  0  0  0
    8.1782  -12.0178   26.6039 C   0  0  0  0  0  0  0  0  0  0  0  0
    8.6861  -13.2933   26.5079 C   0  0  0  0  0  0  0  0  0  0  0  0
    7.8515  -14.3025   26.1106 C   0  0  0  0  0  0  0  0  0  0  0  0
   11.5050  -17.0686   25.1131 C   0  0  0  0  0  0  0  0  0  0  0  0
   12.2984  -16.8257   26.0558 O   0  0  0  0  0  0  0  0  0  0  0  0
   11.7552  -18.1021   24.2344 O   0  0  0  0  0  0  0  0  0  0  0  0
  2  1  1  1
  3  2  1  0
  4  6  1  0
  4  2  1  0
  4  5  1  1
  6  7  2  0
  9  8  1  0
 10  9  1  0
 11 10  1  0
 12 11  1  1
 12 14  1  0
 13 12  1  0
 13  6  1  0
 14 15  2  0
 16 14  1  0
 16 17  1  0
 17 28  1  0
 17 18  1  1
 19 27  1  0
 19 18  1  0
 20 19  2  0
 21 20  1  0
 21 22  1  0
 22 27  2  0
 23 22  1  0
 23 24  2  0
 24 25  1  0
 25 26  2  0
 27 26  1  0
 28 29  2  0
 28 30  1  0
M  END
$$$$
