VMW.pdb
     RDKit          3D

 30 31  0  0  1  0  0  0  0  0999 V2000
    8.5375  -18.8312   20.1005 C   0  0  0  0  0  0  0  0  0  0  0  0
    9.3010  -18.0131   19.1050 C   0  0  1  0  0  0  0  0  0  0  0  0
    9.0181  -18.5434   17.7073 C   0  0  0  0  0  0  0  0  0  0  0  0
    8.8733  -16.5607   19.2252 C   0  0  2  0  0  0  0  0  0  0  0  0
    9.6265  -15.7154   18.3165 N   0  0  0  0  0  0  0  0  0  0  0  0
    9.1908  -16.1277   20.5968 C   0  0  0  0  0  0  0  0  0  0  0  0
   10.3846  -16.0639   20.9921 O   0  0  0  0  0  0  0  0  0  0  0  0
    7.1149  -12.3425   27.1143 C   0  0  0  0  0  0  0  0  0  0  0  0
    6.4494  -13.1743   25.6536 S   0  0  0  0  0  0  0  0  0  0  0  0
    7.7781  -14.1386   24.8852 C   0  0  0  0  0  0  0  0  0  0  0  0
    7.3189  -14.6880   23.5491 C   0  0  0  0  0  0  0  0  0  0  0  0
    8.5056  -15.3793   22.8996 C   0  0  2  0  0  0  0  0  0  0  0  0
    8.1820  -15.7613   21.5405 N   0  0  0  0  0  0  0  0  0  0  0  0
    8.9332  -16.5614   23.6912 C   0  0  0  0  0  0  0  0  0  0  0  0
    8.2883  -17.6523   23.5989 O   0  0  0  0  0  0  0  0  0  0  0  0
   10.0644  -16.4331   24.5379 N   0  0  0  0  0  0  0  0  0  0  0  0
   10.8204  -17.5844   24.9759 C   0  0  1  0  0  0  0  0  0  0  0  0
   11.9324  -17.1213   25.8908 C   0  0  0  0  0  0  0  0  0  0  0  0
   11.4500  -16.7508   27.2278 C   0  0  0  0  0  0  0  0  0  0  0  0
   11.2485  -17.5905   28.3139 C   0  0  0  0  0  0  0  0  0  0  0  0
   10.8026  -16.8445   29.3328 N   0  0  0  0  0  0  0  0  0  0  0  0
   10.6942  -15.5581   28.9934 C   0  0  0  0  0  0  0  0  0  0  0  0
   10.2910  -14.4331   29.6777 C   0  0  0  0  0  0  0  0  0  0  0  0
   10.2944  -13.2225   29.0259 C   0  0  0  0  0  0  0  0  0  0  0  0
   10.6992  -13.1649   27.7104 C   0  0  0  0  0  0  0  0  0  0  0  0
   11.1036  -14.2840   27.0190 C   0  0  0  0  0  0  0  0  0  0  0  0
   11.1010  -15.4901   27.6657 C   0  0  0  0  0  0  0  0  0  0  0  0
    9.9195  -18.5548   25.6436 C   0  0  0  0  0  0  0  0  0  0  0  0
    8.7509  -18.2016   25.9381 O   0  0  0  0  0  0  0  0  0  0  0  0
   10.3623  -19.8280   25.9364 O   0  0  0  0  0  0  0  0  0  0  0  0
  2  1  1  1
  3  2  1  0
  4  6  1  0
  4  2  1  0
  4  5  1  6
  6  7  2  0
  9  8  1  0
 10  9  1  0
 11 10  1  0
 12 11  1  1
 12 14  1  0
 13 12  1  0
 13  6  1  0
 14 15  2  0
 16 14  1  0
 16 17  1  0
 17 28  1  0
 17 18  1  1
 19 27  1  0
 19 18  1  0
 20 19  2  0
 21 20  1  0
 21 22  1  0
 22 27  2  0
 23 22  1  0
 23 24  2  0
 24 25  1  0
 25 26  2  0
 27 26  1  0
 28 29  2  0
 28 30  1  0
M  END
$$$$
