VMW.pdb
     RDKit          3D

 30 31  0  0  1  0  0  0  0  0999 V2000
    7.5034  -19.5490   23.6187 C   0  0  0  0  0  0  0  0  0  0  0  0
    7.7838  -20.0986   22.2539 C   0  0  1  0  0  0  0  0  0  0  0  0
    7.0152  -21.3996   22.0766 C   0  0  0  0  0  0  0  0  0  0  0  0
    7.3597  -19.0780   21.2121 C   0  0  2  0  0  0  0  0  0  0  0  0
    7.5196  -19.6033   19.8682 N   0  0  0  0  0  0  0  0  0  0  0  0
    8.2630  -17.9222   21.3450 C   0  0  0  0  0  0  0  0  0  0  0  0
    9.4879  -18.0273   21.0726 O   0  0  0  0  0  0  0  0  0  0  0  0
    8.1349  -11.8118   19.4836 C   0  0  0  0  0  0  0  0  0  0  0  0
    7.0117  -13.1807   19.1185 S   0  0  0  0  0  0  0  0  0  0  0  0
    7.6010  -14.6567   19.9899 C   0  0  0  0  0  0  0  0  0  0  0  0
    8.1757  -14.2720   21.3389 C   0  0  0  0  0  0  0  0  0  0  0  0
    8.7231  -15.5327   21.9862 C   0  0  2  0  0  0  0  0  0  0  0  0
    7.8107  -16.6389   21.7818 N   0  0  0  0  0  0  0  0  0  0  0  0
    8.9783  -15.3212   23.4343 C   0  0  0  0  0  0  0  0  0  0  0  0
    8.6709  -14.2140   23.9764 O   0  0  0  0  0  0  0  0  0  0  0  0
    9.5660  -16.3776   24.1771 N   0  0  0  0  0  0  0  0  0  0  0  0
   10.0986  -16.1688   25.5044 C   0  0  1  0  0  0  0  0  0  0  0  0
    8.9961  -16.3923   26.5156 C   0  0  0  0  0  0  0  0  0  0  0  0
    7.8424  -15.5085   26.3021 C   0  0  0  0  0  0  0  0  0  0  0  0
    6.5909  -15.8586   25.8160 C   0  0  0  0  0  0  0  0  0  0  0  0
    5.8396  -14.7505   25.7795 N   0  0  0  0  0  0  0  0  0  0  0  0
    6.5131  -13.6821   26.2117 C   0  0  0  0  0  0  0  0  0  0  0  0
    6.1805  -12.3538   26.3586 C   0  0  0  0  0  0  0  0  0  0  0  0
    7.1264  -11.4822   26.8444 C   0  0  0  0  0  0  0  0  0  0  0  0
    8.3778  -11.9568   27.1707 C   0  0  0  0  0  0  0  0  0  0  0  0
    8.7187  -13.2824   27.0271 C   0  0  0  0  0  0  0  0  0  0  0  0
    7.7788  -14.1518   26.5437 C   0  0  0  0  0  0  0  0  0  0  0  0
   11.2527  -17.0718   25.7322 C   0  0  0  0  0  0  0  0  0  0  0  0
   11.8288  -17.0580   26.8480 O   0  0  0  0  0  0  0  0  0  0  0  0
   11.6855  -17.9144   24.7296 O   0  0  0  0  0  0  0  0  0  0  0  0
  2  1  1  1
  3  2  1  0
  4  6  1  0
  4  2  1  0
  4  5  1  6
  6  7  2  0
  9  8  1  0
 10  9  1  0
 11 10  1  0
 12 11  1  1
 12 14  1  0
 13 12  1  0
 13  6  1  0
 14 15  2  0
 16 14  1  0
 16 17  1  0
 17 28  1  0
 17 18  1  1
 19 27  1  0
 19 18  1  0
 20 19  2  0
 21 20  1  0
 21 22  1  0
 22 27  2  0
 23 22  1  0
 23 24  2  0
 24 25  1  0
 25 26  2  0
 27 26  1  0
 28 29  2  0
 28 30  1  0
M  END
$$$$
