VMW.pdb
     RDKit          3D

 30 31  0  0  1  0  0  0  0  0999 V2000
-13351.9775 5865.0522 4530.6577 C   0  0  0  0  0  0  0  0  0  0  0  0
-13353.3818 5865.4629 4530.9863 C   0  0  1  0  0  0  0  0  0  0  0  0
-13353.6055 5865.3042 4532.4829 C   0  0  0  0  0  0  0  0  0  0  0  0
-13353.5859 5866.9077 4530.5635 C   0  0  2  0  0  0  0  0  0  0  0  0
-13354.8291 5867.4380 4531.0942 N   0  0  0  0  0  0  0  0  0  0  0  0
-13353.6934 5866.9175 4529.0942 C   0  0  0  0  0  0  0  0  0  0  0  0
-13354.6855 5866.3984 4528.5171 O   0  0  0  0  0  0  0  0  0  0  0  0
-13350.2471 5870.8125 4525.4502 C   0  0  0  0  0  0  0  0  0  0  0  0
-13351.5283 5870.3965 4524.2441 S   0  0  0  0  0  0  0  0  0  0  0  0
-13352.4521 5868.9634 4524.8579 C   0  0  0  0  0  0  0  0  0  0  0  0
-13351.8867 5868.5083 4526.1890 C   0  0  0  0  0  0  0  0  0  0  0  0
-13353.0391 5868.4048 4527.1724 C   0  0  2  0  0  0  0  0  0  0  0  0
-13352.6973 5867.5044 4528.2554 N   0  0  0  0  0  0  0  0  0  0  0  0
-13354.2832 5867.9595 4526.4917 C   0  0  0  0  0  0  0  0  0  0  0  0
-13354.9199 5866.9517 4526.9316 O   0  0  0  0  0  0  0  0  0  0  0  0
-13354.7256 5868.6841 4525.3550 N   0  0  0  0  0  0  0  0  0  0  0  0
-13356.1260 5868.9595 4525.1279 C   0  0  1  0  0  0  0  0  0  0  0  0
-13356.2588 5869.8730 4523.9297 C   0  0  0  0  0  0  0  0  0  0  0  0
-13355.6670 5869.3013 4522.7124 C   0  0  0  0  0  0  0  0  0  0  0  0
-13356.2666 5869.1665 4521.4683 C   0  0  0  0  0  0  0  0  0  0  0  0
-13355.3779 5868.5947 4520.6440 N   0  0  0  0  0  0  0  0  0  0  0  0
-13354.2236 5868.3418 4521.2622 C   0  0  0  0  0  0  0  0  0  0  0  0
-13353.0361 5867.7783 4520.8481 C   0  0  0  0  0  0  0  0  0  0  0  0
-13352.0088 5867.6553 4521.7524 C   0  0  0  0  0  0  0  0  0  0  0  0
-13352.1904 5868.0967 4523.0454 C   0  0  0  0  0  0  0  0  0  0  0  0
-13353.3721 5868.6616 4523.4673 C   0  0  0  0  0  0  0  0  0  0  0  0
-13354.3965 5868.7832 4522.5688 C   0  0  0  0  0  0  0  0  0  0  0  0
-13356.8672 5867.6880 4524.9409 C   0  0  0  0  0  0  0  0  0  0  0  0
-13357.8086 5867.4077 4525.7227 O   0  0  0  0  0  0  0  0  0  0  0  0
-13356.5225 5866.8262 4523.9199 O   0  0  0  0  0  0  0  0  0  0  0  0
  2  1  1  1
  3  2  1  0
  4  6  1  0
  4  2  1  0
  4  5  1  1
  6  7  2  0
  9  8  1  0
 10  9  1  0
 11 10  1  0
 12 11  1  6
 12 14  1  0
 13 12  1  0
 13  6  1  0
 14 15  2  0
 16 14  1  0
 16 17  1  0
 17 28  1  0
 17 18  1  6
 19 27  1  0
 19 18  1  0
 20 19  2  0
 21 20  1  0
 21 22  1  0
 22 27  2  0
 23 22  1  0
 23 24  2  0
 24 25  1  0
 25 26  2  0
 27 26  1  0
 28 29  2  0
 28 30  1  0
M  END
$$$$
