VMW.pdb
     RDKit          3D

 30 31  0  0  1  0  0  0  0  0999 V2000
    8.6493  -12.9031   21.4450 C   0  0  0  0  0  0  0  0  0  0  0  0
    7.5887  -13.5289   20.5923 C   0  0  1  0  0  0  0  0  0  0  0  0
    7.2314  -12.5719   19.4647 C   0  0  0  0  0  0  0  0  0  0  0  0
    8.1107  -14.8425   20.0368 C   0  0  2  0  0  0  0  0  0  0  0  0
    7.1804  -15.4136   19.0797 N   0  0  0  0  0  0  0  0  0  0  0  0
    8.2129  -15.7810   21.1675 C   0  0  0  0  0  0  0  0  0  0  0  0
    7.1785  -16.2542   21.7073 O   0  0  0  0  0  0  0  0  0  0  0  0
   12.4185  -20.1273   21.1634 C   0  0  0  0  0  0  0  0  0  0  0  0
   10.7115  -20.3912   20.6292 S   0  0  0  0  0  0  0  0  0  0  0  0
    9.6973  -19.0214   21.2459 C   0  0  0  0  0  0  0  0  0  0  0  0
   10.3893  -18.3429   22.4115 C   0  0  0  0  0  0  0  0  0  0  0  0
    9.5540  -17.1376   22.8086 C   0  0  2  0  0  0  0  0  0  0  0  0
    9.4678  -16.2014   21.7069 N   0  0  0  0  0  0  0  0  0  0  0  0
   10.1106  -16.4780   24.0178 C   0  0  0  0  0  0  0  0  0  0  0  0
   11.0922  -15.6787   23.9080 O   0  0  0  0  0  0  0  0  0  0  0  0
    9.5201  -16.7656   25.2754 N   0  0  0  0  0  0  0  0  0  0  0  0
   10.2087  -16.4976   26.5175 C   0  0  1  0  0  0  0  0  0  0  0  0
    9.3501  -15.5873   27.3674 C   0  0  0  0  0  0  0  0  0  0  0  0
    8.1340  -15.1434   26.6734 C   0  0  0  0  0  0  0  0  0  0  0  0
    7.1536  -15.9393   26.0982 C   0  0  0  0  0  0  0  0  0  0  0  0
    6.2240  -15.1308   25.5731 N   0  0  0  0  0  0  0  0  0  0  0  0
    6.5237  -13.8440   25.7627 C   0  0  0  0  0  0  0  0  0  0  0  0
    5.8951  -12.6685   25.4167 C   0  0  0  0  0  0  0  0  0  0  0  0
    6.4787  -11.4746   25.7693 C   0  0  0  0  0  0  0  0  0  0  0  0
    7.6723  -11.4834   26.4569 C   0  0  0  0  0  0  0  0  0  0  0  0
    8.3074  -12.6533   26.8067 C   0  0  0  0  0  0  0  0  0  0  0  0
    7.7283  -13.8429   26.4567 C   0  0  0  0  0  0  0  0  0  0  0  0
   10.5181  -17.7731   27.2077 C   0  0  0  0  0  0  0  0  0  0  0  0
   11.1994  -17.7480   28.2625 O   0  0  0  0  0  0  0  0  0  0  0  0
   10.0625  -18.9700   26.6953 O   0  0  0  0  0  0  0  0  0  0  0  0
  2  1  1  1
  3  2  1  0
  4  6  1  0
  4  2  1  0
  4  5  1  6
  6  7  2  0
  9  8  1  0
 10  9  1  0
 11 10  1  0
 12 11  1  6
 12 14  1  0
 13 12  1  0
 13  6  1  0
 14 15  2  0
 16 14  1  0
 16 17  1  0
 17 28  1  0
 17 18  1  1
 19 27  1  0
 19 18  1  0
 20 19  2  0
 21 20  1  0
 21 22  1  0
 22 27  2  0
 23 22  1  0
 23 24  2  0
 24 25  1  0
 25 26  2  0
 27 26  1  0
 28 29  2  0
 28 30  1  0
M  END
$$$$
