VMW.pdb
     RDKit          3D

 30 31  0  0  1  0  0  0  0  0999 V2000
    8.7368  -12.4363   18.2745 C   0  0  0  0  0  0  0  0  0  0  0  0
    8.6461  -13.3316   19.4718 C   0  0  1  0  0  0  0  0  0  0  0  0
    7.3962  -12.9755   20.2628 C   0  0  0  0  0  0  0  0  0  0  0  0
    8.5941  -14.7766   19.0070 C   0  0  2  0  0  0  0  0  0  0  0  0
    7.4553  -15.0066   18.1365 N   0  0  0  0  0  0  0  0  0  0  0  0
    8.4089  -15.6112   20.2065 C   0  0  0  0  0  0  0  0  0  0  0  0
    7.3158  -15.6071   20.8315 O   0  0  0  0  0  0  0  0  0  0  0  0
    8.0766  -21.8302   21.4968 C   0  0  0  0  0  0  0  0  0  0  0  0
    9.4880  -21.3116   22.5005 S   0  0  0  0  0  0  0  0  0  0  0  0
    9.3290  -19.5391   22.8447 C   0  0  0  0  0  0  0  0  0  0  0  0
    9.4729  -18.7432   21.5625 C   0  0  0  0  0  0  0  0  0  0  0  0
    9.2403  -17.2796   21.8968 C   0  0  2  0  0  0  0  0  0  0  0  0
    9.4387  -16.4582   20.7205 N   0  0  0  0  0  0  0  0  0  0  0  0
   10.1276  -16.8377   23.0034 C   0  0  0  0  0  0  0  0  0  0  0  0
   11.3721  -16.6877   22.7958 O   0  0  0  0  0  0  0  0  0  0  0  0
    9.5490  -16.5938   24.2757 N   0  0  0  0  0  0  0  0  0  0  0  0
   10.3553  -16.2429   25.4227 C   0  0  1  0  0  0  0  0  0  0  0  0
    9.9533  -14.8654   25.9014 C   0  0  0  0  0  0  0  0  0  0  0  0
    8.4997  -14.7195   26.0543 C   0  0  0  0  0  0  0  0  0  0  0  0
    7.5444  -15.7255   26.0294 C   0  0  0  0  0  0  0  0  0  0  0  0
    6.3447  -15.1570   26.2057 N   0  0  0  0  0  0  0  0  0  0  0  0
    6.4407  -13.8332   26.3470 C   0  0  0  0  0  0  0  0  0  0  0  0
    5.5118  -12.8364   26.5474 C   0  0  0  0  0  0  0  0  0  0  0  0
    5.9457  -11.5362   26.6551 C   0  0  0  0  0  0  0  0  0  0  0  0
    7.2927  -11.2637   26.5604 C   0  0  0  0  0  0  0  0  0  0  0  0
    8.2278  -12.2535   26.3602 C   0  0  0  0  0  0  0  0  0  0  0  0
    7.7982  -13.5484   26.2527 C   0  0  0  0  0  0  0  0  0  0  0  0
   10.1966  -17.2676   26.4829 C   0  0  0  0  0  0  0  0  0  0  0  0
    9.2876  -18.1270   26.3714 O   0  0  0  0  0  0  0  0  0  0  0  0
   11.0377  -17.2740   27.5761 O   0  0  0  0  0  0  0  0  0  0  0  0
  2  1  1  6
  3  2  1  0
  4  6  1  0
  4  2  1  0
  4  5  1  6
  6  7  2  0
  9  8  1  0
 10  9  1  0
 11 10  1  0
 12 11  1  6
 12 14  1  0
 13 12  1  0
 13  6  1  0
 14 15  2  0
 16 14  1  0
 16 17  1  0
 17 28  1  0
 17 18  1  1
 19 27  1  0
 19 18  1  0
 20 19  2  0
 21 20  1  0
 21 22  1  0
 22 27  2  0
 23 22  1  0
 23 24  2  0
 24 25  1  0
 25 26  2  0
 27 26  1  0
 28 29  2  0
 28 30  1  0
M  END
$$$$
