VMW.pdb
     RDKit          3D

 30 31  0  0  1  0  0  0  0  0999 V2000
    9.0455  -12.8419   17.9725 C   0  0  0  0  0  0  0  0  0  0  0  0
    8.7303  -13.5135   19.2737 C   0  0  1  0  0  0  0  0  0  0  0  0
    7.4932  -12.8660   19.8780 C   0  0  0  0  0  0  0  0  0  0  0  0
    8.4944  -14.9928   19.0232 C   0  0  2  0  0  0  0  0  0  0  0  0
    7.3871  -15.1993   18.1073 N   0  0  0  0  0  0  0  0  0  0  0  0
    8.1188  -15.5962   20.3133 C   0  0  0  0  0  0  0  0  0  0  0  0
    7.0321  -15.2948   20.8734 O   0  0  0  0  0  0  0  0  0  0  0  0
    6.0847  -21.2052   22.4605 C   0  0  0  0  0  0  0  0  0  0  0  0
    7.6394  -20.9518   23.3478 S   0  0  0  0  0  0  0  0  0  0  0  0
    7.9519  -19.1701   23.4638 C   0  0  0  0  0  0  0  0  0  0  0  0
    8.3169  -18.6143   22.1015 C   0  0  0  0  0  0  0  0  0  0  0  0
    8.5691  -17.1246   22.2610 C   0  0  2  0  0  0  0  0  0  0  0  0
    8.9496  -16.5409   20.9913 N   0  0  0  0  0  0  0  0  0  0  0  0
    9.6076  -16.8667   23.2915 C   0  0  0  0  0  0  0  0  0  0  0  0
   10.8364  -17.0101   23.0018 O   0  0  0  0  0  0  0  0  0  0  0  0
    9.1886  -16.4629   24.5854 N   0  0  0  0  0  0  0  0  0  0  0  0
   10.1369  -16.2006   25.6441 C   0  0  1  0  0  0  0  0  0  0  0  0
    9.7766  -14.8921   26.3118 C   0  0  0  0  0  0  0  0  0  0  0  0
    8.3304  -14.6353   26.3138 C   0  0  0  0  0  0  0  0  0  0  0  0
    7.3088  -15.5666   26.1944 C   0  0  0  0  0  0  0  0  0  0  0  0
    6.1441  -14.9074   26.2443 N   0  0  0  0  0  0  0  0  0  0  0  0
    6.3256  -13.5930   26.3898 C   0  0  0  0  0  0  0  0  0  0  0  0
    5.4597  -12.5269   26.4900 C   0  0  0  0  0  0  0  0  0  0  0  0
    5.9780  -11.2619   26.6370 C   0  0  0  0  0  0  0  0  0  0  0  0
    7.3445  -11.0928   26.6804 C   0  0  0  0  0  0  0  0  0  0  0  0
    8.2170  -12.1524   26.5811 C   0  0  0  0  0  0  0  0  0  0  0  0
    7.7034  -13.4125   26.4346 C   0  0  0  0  0  0  0  0  0  0  0  0
   10.1453  -17.3305   26.6046 C   0  0  0  0  0  0  0  0  0  0  0  0
   10.9982  -17.3430   27.5264 O   0  0  0  0  0  0  0  0  0  0  0  0
    9.2273  -18.3530   26.4844 O   0  0  0  0  0  0  0  0  0  0  0  0
  2  1  1  6
  3  2  1  0
  4  6  1  0
  4  2  1  0
  4  5  1  6
  6  7  2  0
  9  8  1  0
 10  9  1  0
 11 10  1  0
 12 11  1  6
 12 14  1  0
 13 12  1  0
 13  6  1  0
 14 15  2  0
 16 14  1  0
 16 17  1  0
 17 28  1  0
 17 18  1  1
 19 27  1  0
 19 18  1  0
 20 19  2  0
 21 20  1  0
 21 22  1  0
 22 27  2  0
 23 22  1  0
 23 24  2  0
 24 25  1  0
 25 26  2  0
 27 26  1  0
 28 29  2  0
 28 30  1  0
M  END
$$$$
