VMW.pdb
     RDKit          3D

 30 31  0  0  1  0  0  0  0  0999 V2000
    9.8670  -19.4888   20.1386 C   0  0  0  0  0  0  0  0  0  0  0  0
   10.0441  -18.3256   19.2117 C   0  0  1  0  0  0  0  0  0  0  0  0
    9.8976  -18.8093   17.7767 C   0  0  0  0  0  0  0  0  0  0  0  0
    8.9980  -17.2724   19.5331 C   0  0  2  0  0  0  0  0  0  0  0  0
    9.0691  -16.1615   18.6011 N   0  0  0  0  0  0  0  0  0  0  0  0
    9.3106  -16.7458   20.8726 C   0  0  0  0  0  0  0  0  0  0  0  0
   10.4630  -16.3164   21.1432 O   0  0  0  0  0  0  0  0  0  0  0  0
    6.2726  -12.8035   26.1326 C   0  0  0  0  0  0  0  0  0  0  0  0
    6.3077  -14.6101   26.1946 S   0  0  0  0  0  0  0  0  0  0  0  0
    7.7776  -15.1879   25.3051 C   0  0  0  0  0  0  0  0  0  0  0  0
    7.3851  -15.7302   23.9450 C   0  0  0  0  0  0  0  0  0  0  0  0
    8.6574  -16.1498   23.2286 C   0  0  2  0  0  0  0  0  0  0  0  0
    8.3429  -16.6920   21.9229 N   0  0  0  0  0  0  0  0  0  0  0  0
    9.4248  -17.1327   24.0359 C   0  0  0  0  0  0  0  0  0  0  0  0
    9.1282  -18.3670   23.9805 O   0  0  0  0  0  0  0  0  0  0  0  0
   10.4799  -16.6554   24.8556 N   0  0  0  0  0  0  0  0  0  0  0  0
   11.3795  -17.5572   25.5385 C   0  0  1  0  0  0  0  0  0  0  0  0
   12.3686  -16.7452   26.3450 C   0  0  0  0  0  0  0  0  0  0  0  0
   11.7662  -16.1424   27.5414 C   0  0  0  0  0  0  0  0  0  0  0  0
   11.7953  -16.6340   28.8386 C   0  0  0  0  0  0  0  0  0  0  0  0
   11.1246  -15.7761   29.6181 N   0  0  0  0  0  0  0  0  0  0  0  0
   10.6497  -14.7417   28.9207 C   0  0  0  0  0  0  0  0  0  0  0  0
    9.9161  -13.6287   29.2662 C   0  0  0  0  0  0  0  0  0  0  0  0
    9.5779  -12.7257   28.2861 C   0  0  0  0  0  0  0  0  0  0  0  0
    9.9793  -12.9554   26.9885 C   0  0  0  0  0  0  0  0  0  0  0  0
   10.7126  -14.0649   26.6344 C   0  0  0  0  0  0  0  0  0  0  0  0
   11.0503  -14.9652   27.6083 C   0  0  0  0  0  0  0  0  0  0  0  0
   10.6053  -18.4935   26.3888 C   0  0  0  0  0  0  0  0  0  0  0  0
   11.1926  -19.4728   26.9115 O   0  0  0  0  0  0  0  0  0  0  0  0
    9.2577  -18.2889   26.6008 O   0  0  0  0  0  0  0  0  0  0  0  0
  2  1  1  1
  3  2  1  0
  4  6  1  0
  4  2  1  0
  4  5  1  6
  6  7  2  0
  9  8  1  0
 10  9  1  0
 11 10  1  0
 12 11  1  1
 12 14  1  0
 13 12  1  0
 13  6  1  0
 14 15  2  0
 16 14  1  0
 16 17  1  0
 17 28  1  0
 17 18  1  1
 19 27  1  0
 19 18  1  0
 20 19  2  0
 21 20  1  0
 21 22  1  0
 22 27  2  0
 23 22  1  0
 23 24  2  0
 24 25  1  0
 25 26  2  0
 27 26  1  0
 28 29  2  0
 28 30  1  0
M  END
$$$$
