VMW.pdb
     RDKit          3D

 30 31  0  0  1  0  0  0  0  0999 V2000
    4.7286  -19.5810   23.0772 C   0  0  0  0  0  0  0  0  0  0  0  0
    5.9373  -18.6964   23.0746 C   0  0  1  0  0  0  0  0  0  0  0  0
    7.0659  -19.3981   23.8154 C   0  0  0  0  0  0  0  0  0  0  0  0
    6.3361  -18.4067   21.6381 C   0  0  2  0  0  0  0  0  0  0  0  0
    6.6638  -19.6300   20.9282 N   0  0  0  0  0  0  0  0  0  0  0  0
    7.5561  -17.5828   21.6848 C   0  0  0  0  0  0  0  0  0  0  0  0
    8.6958  -18.1170   21.6514 O   0  0  0  0  0  0  0  0  0  0  0  0
    6.6661  -13.1392   17.4691 C   0  0  0  0  0  0  0  0  0  0  0  0
    7.7305  -12.8172   18.8946 S   0  0  0  0  0  0  0  0  0  0  0  0
    7.7842  -14.3098   19.9216 C   0  0  0  0  0  0  0  0  0  0  0  0
    8.5868  -14.0486   21.1807 C   0  0  0  0  0  0  0  0  0  0  0  0
    8.7210  -15.3654   21.9264 C   0  0  2  0  0  0  0  0  0  0  0  0
    7.5182  -16.1567   21.7687 N   0  0  0  0  0  0  0  0  0  0  0  0
    9.0159  -15.1365   23.3643 C   0  0  0  0  0  0  0  0  0  0  0  0
    8.7834  -14.0013   23.8856 O   0  0  0  0  0  0  0  0  0  0  0  0
    9.5560  -16.2081   24.1212 N   0  0  0  0  0  0  0  0  0  0  0  0
   10.2347  -15.9851   25.3776 C   0  0  1  0  0  0  0  0  0  0  0  0
    9.2717  -16.2622   26.5107 C   0  0  0  0  0  0  0  0  0  0  0  0
    8.0090  -15.5240   26.3757 C   0  0  0  0  0  0  0  0  0  0  0  0
    6.7892  -16.0145   25.9320 C   0  0  0  0  0  0  0  0  0  0  0  0
    5.9058  -15.0085   25.9640 N   0  0  0  0  0  0  0  0  0  0  0  0
    6.4611  -13.8765   26.4021 C   0  0  0  0  0  0  0  0  0  0  0  0
    5.9739  -12.6048   26.6066 C   0  0  0  0  0  0  0  0  0  0  0  0
    6.8262  -11.6353   27.0801 C   0  0  0  0  0  0  0  0  0  0  0  0
    8.1404  -11.9584   27.3371 C   0  0  0  0  0  0  0  0  0  0  0  0
    8.6357  -13.2265   27.1356 C   0  0  0  0  0  0  0  0  0  0  0  0
    7.7892  -14.1931   26.6643 C   0  0  0  0  0  0  0  0  0  0  0  0
   11.4446  -16.8390   25.4555 C   0  0  0  0  0  0  0  0  0  0  0  0
   11.6898  -17.6388   24.5188 O   0  0  0  0  0  0  0  0  0  0  0  0
   12.2876  -16.7538   26.5440 O   0  0  0  0  0  0  0  0  0  0  0  0
  2  1  1  6
  3  2  1  0
  4  6  1  0
  4  2  1  0
  4  5  1  6
  6  7  2  0
  9  8  1  0
 10  9  1  0
 11 10  1  0
 12 11  1  6
 12 14  1  0
 13 12  1  0
 13  6  1  0
 14 15  2  0
 16 14  1  0
 16 17  1  0
 17 28  1  0
 17 18  1  1
 19 27  1  0
 19 18  1  0
 20 19  2  0
 21 20  1  0
 21 22  1  0
 22 27  2  0
 23 22  1  0
 23 24  2  0
 24 25  1  0
 25 26  2  0
 27 26  1  0
 28 29  2  0
 28 30  1  0
M  END
$$$$
