VMW.pdb
     RDKit          3D

 30 31  0  0  1  0  0  0  0  0999 V2000
    8.7864  -12.7155   21.0115 C   0  0  0  0  0  0  0  0  0  0  0  0
    7.7150  -13.2683   20.1226 C   0  0  1  0  0  0  0  0  0  0  0  0
    7.5353  -12.3420   18.9291 C   0  0  0  0  0  0  0  0  0  0  0  0
    8.1185  -14.6597   19.6668 C   0  0  2  0  0  0  0  0  0  0  0  0
    7.1408  -15.2144   18.7479 N   0  0  0  0  0  0  0  0  0  0  0  0
    8.1376  -15.5189   20.8630 C   0  0  0  0  0  0  0  0  0  0  0  0
    7.0649  -15.8719   21.4198 O   0  0  0  0  0  0  0  0  0  0  0  0
   12.2762  -20.8929   23.3044 C   0  0  0  0  0  0  0  0  0  0  0  0
   10.5454  -20.8385   22.7848 S   0  0  0  0  0  0  0  0  0  0  0  0
    9.8531  -19.2313   23.2573 C   0  0  0  0  0  0  0  0  0  0  0  0
   10.0036  -18.2427   22.1180 C   0  0  0  0  0  0  0  0  0  0  0  0
    9.3545  -16.9380   22.5476 C   0  0  2  0  0  0  0  0  0  0  0  0
    9.3513  -15.9934   21.4497 N   0  0  0  0  0  0  0  0  0  0  0  0
   10.0423  -16.3651   23.7332 C   0  0  0  0  0  0  0  0  0  0  0  0
   11.1186  -15.7065   23.5841 O   0  0  0  0  0  0  0  0  0  0  0  0
    9.4674  -16.5746   25.0133 N   0  0  0  0  0  0  0  0  0  0  0  0
   10.2015  -16.3071   26.2292 C   0  0  1  0  0  0  0  0  0  0  0  0
    9.3138  -15.5317   27.1772 C   0  0  0  0  0  0  0  0  0  0  0  0
    8.0394  -15.1342   26.5642 C   0  0  0  0  0  0  0  0  0  0  0  0
    7.0831  -15.9629   25.9950 C   0  0  0  0  0  0  0  0  0  0  0  0
    6.0801  -15.1917   25.5559 N   0  0  0  0  0  0  0  0  0  0  0  0
    6.3083  -13.8989   25.7973 C   0  0  0  0  0  0  0  0  0  0  0  0
    5.5915  -12.7511   25.5418 C   0  0  0  0  0  0  0  0  0  0  0  0
    6.1165  -11.5404   25.9279 C   0  0  0  0  0  0  0  0  0  0  0  0
    7.3411  -11.5055   26.5580 C   0  0  0  0  0  0  0  0  0  0  0  0
    8.0641  -12.6474   26.8173 C   0  0  0  0  0  0  0  0  0  0  0  0
    7.5435  -13.8536   26.4338 C   0  0  0  0  0  0  0  0  0  0  0  0
   10.6713  -17.5813   26.8250 C   0  0  0  0  0  0  0  0  0  0  0  0
   10.2454  -18.6674   26.3600 O   0  0  0  0  0  0  0  0  0  0  0  0
   11.5643  -17.5705   27.8763 O   0  0  0  0  0  0  0  0  0  0  0  0
  2  1  1  1
  3  2  1  0
  4  6  1  0
  4  2  1  0
  4  5  1  6
  6  7  2  0
  9  8  1  0
 10  9  1  0
 11 10  1  0
 12 11  1  6
 12 14  1  0
 13 12  1  0
 13  6  1  0
 14 15  2  0
 16 14  1  0
 16 17  1  0
 17 28  1  0
 17 18  1  1
 19 27  1  0
 19 18  1  0
 20 19  2  0
 21 20  1  0
 21 22  1  0
 22 27  2  0
 23 22  1  0
 23 24  2  0
 24 25  1  0
 25 26  2  0
 27 26  1  0
 28 29  2  0
 28 30  1  0
M  END
$$$$
