VMW.pdb
     RDKit          3D

 30 31  0  0  1  0  0  0  0  0999 V2000
    6.9663  -19.5580   23.5655 C   0  0  0  0  0  0  0  0  0  0  0  0
    7.2936  -20.2956   22.3037 C   0  0  1  0  0  0  0  0  0  0  0  0
    6.2857  -21.4189   22.1112 C   0  0  0  0  0  0  0  0  0  0  0  0
    7.2461  -19.3253   21.1362 C   0  0  2  0  0  0  0  0  0  0  0  0
    7.4171  -20.0179   19.8717 N   0  0  0  0  0  0  0  0  0  0  0  0
    8.3841  -18.4034   21.2924 C   0  0  0  0  0  0  0  0  0  0  0  0
    9.5644  -18.7993   21.1041 O   0  0  0  0  0  0  0  0  0  0  0  0
    6.5189  -11.9380   20.1616 C   0  0  0  0  0  0  0  0  0  0  0  0
    7.9968  -12.9305   19.8465 S   0  0  0  0  0  0  0  0  0  0  0  0
    8.0986  -14.2279   21.1082 C   0  0  0  0  0  0  0  0  0  0  0  0
    9.3829  -15.0163   20.9440 C   0  0  0  0  0  0  0  0  0  0  0  0
    9.3487  -16.1692   21.9328 C   0  0  2  0  0  0  0  0  0  0  0  0
    8.2182  -17.0321   21.6591 N   0  0  0  0  0  0  0  0  0  0  0  0
    9.3044  -15.6710   23.3317 C   0  0  0  0  0  0  0  0  0  0  0  0
    9.2291  -14.4229   23.5573 O   0  0  0  0  0  0  0  0  0  0  0  0
    9.3484  -16.6183   24.3869 N   0  0  0  0  0  0  0  0  0  0  0  0
   10.2405  -16.4608   25.5131 C   0  0  1  0  0  0  0  0  0  0  0  0
    9.4902  -15.7907   26.6427 C   0  0  0  0  0  0  0  0  0  0  0  0
    8.1751  -15.2840   26.2285 C   0  0  0  0  0  0  0  0  0  0  0  0
    7.1000  -16.0203   25.7518 C   0  0  0  0  0  0  0  0  0  0  0  0
    6.1007  -15.1674   25.4923 N   0  0  0  0  0  0  0  0  0  0  0  0
    6.4428  -13.9067   25.7668 C   0  0  0  0  0  0  0  0  0  0  0  0
    5.7754  -12.7060   25.6696 C   0  0  0  0  0  0  0  0  0  0  0  0
    6.4248  -11.5531   26.0430 C   0  0  0  0  0  0  0  0  0  0  0  0
    7.7212  -11.6269   26.5030 C   0  0  0  0  0  0  0  0  0  0  0  0
    8.3957  -12.8224   26.6033 C   0  0  0  0  0  0  0  0  0  0  0  0
    7.7513  -13.9712   26.2322 C   0  0  0  0  0  0  0  0  0  0  0  0
   10.7845  -17.7808   25.9137 C   0  0  0  0  0  0  0  0  0  0  0  0
   11.6975  -17.8301   26.7747 O   0  0  0  0  0  0  0  0  0  0  0  0
   10.2924  -18.9377   25.3462 O   0  0  0  0  0  0  0  0  0  0  0  0
  2  1  1  1
  3  2  1  0
  4  6  1  0
  4  2  1  0
  4  5  1  6
  6  7  2  0
  9  8  1  0
 10  9  1  0
 11 10  1  0
 12 11  1  6
 12 14  1  0
 13 12  1  0
 13  6  1  0
 14 15  2  0
 16 14  1  0
 16 17  1  0
 17 28  1  0
 17 18  1  1
 19 27  1  0
 19 18  1  0
 20 19  2  0
 21 20  1  0
 21 22  1  0
 22 27  2  0
 23 22  1  0
 23 24  2  0
 24 25  1  0
 25 26  2  0
 27 26  1  0
 28 29  2  0
 28 30  1  0
M  END
$$$$
