KCN.pdb
     RDKit          3D

 24 23  0  0  1  0  0  0  0  0999 V2000
    7.4361  -12.9929   19.1295 N   0  0  0  0  0  0  0  0  0  0  0  0
    7.2779  -14.2452   19.9087 C   0  0  1  0  0  0  0  0  0  0  0  0
    7.8525  -15.3034   18.9928 C   0  0  0  0  0  0  0  0  0  0  0  0
    7.5165  -15.1504   17.5535 C   0  0  0  0  0  0  0  0  0  0  0  0
    6.9946  -16.4689   16.9945 C   0  0  0  0  0  0  0  0  0  0  0  0
    6.6742  -16.3876   15.5244 C   0  0  0  0  0  0  0  0  0  0  0  0
    6.1772  -17.7233   15.1523 N   0  0  0  0  0  0  0  0  0  0  0  0
    8.0348  -14.0542   21.1611 C   0  0  0  0  0  0  0  0  0  0  0  0
    9.2857  -13.7945   21.1075 O   0  0  0  0  0  0  0  0  0  0  0  0
    7.5119  -14.1267   22.4742 N   0  0  0  0  0  0  0  0  0  0  0  0
    8.3489  -14.2907   23.6491 C   0  0  1  0  0  0  0  0  0  0  0  0
    7.5390  -13.7424   24.8175 C   0  0  0  0  0  0  0  0  0  0  0  0
    5.8449  -14.3875   24.7834 S   0  0  0  0  0  0  0  0  0  0  0  0
    8.6927  -15.6927   23.9104 C   0  0  0  0  0  0  0  0  0  0  0  0
    7.9278  -16.6320   23.5507 O   0  0  0  0  0  0  0  0  0  0  0  0
   13.7900  -17.2623   24.4845 N   0  0  0  0  0  0  0  0  0  0  0  0
   12.5712  -17.0527   23.8003 C   0  0  0  0  0  0  0  0  0  0  0  0
   12.5587  -16.0162   23.0438 O   0  0  0  0  0  0  0  0  0  0  0  0
   11.3636  -17.8859   23.8764 C   0  0  0  0  0  0  0  0  0  0  0  0
   10.3026  -17.4017   24.8249 C   0  0  2  0  0  0  0  0  0  0  0  0
    9.9053  -16.0154   24.5794 N   0  0  0  0  0  0  0  0  0  0  0  0
   10.8210  -17.4950   26.2083 C   0  0  0  0  0  0  0  0  0  0  0  0
   10.9449  -16.4635   26.9302 O   0  0  0  0  0  0  0  0  0  0  0  0
   11.1786  -18.7566   26.7183 O   0  0  0  0  0  0  0  0  0  0  0  0
  2  1  1  6
  3  2  1  0
  4  3  1  0
  5  4  1  0
  6  5  1  0
  7  6  1  0
  8  2  1  0
  8  9  2  0
 10  8  1  0
 11 10  1  0
 11 12  1  1
 13 12  1  0
 14 11  1  0
 15 14  2  0
 16 17  1  0
 17 19  1  0
 17 18  2  0
 20 19  1  6
 20 22  1  0
 20 21  1  0
 21 14  1  0
 22 24  1  0
 23 22  2  0
M  END
$$$$
