KCN.pdb
     RDKit          3D

 24 23  0  0  1  0  0  0  0  0999 V2000
    7.7261  -14.1864   20.5971 N   0  0  0  0  0  0  0  0  0  0  0  0
    7.2301  -14.8462   21.8296 C   0  0  1  0  0  0  0  0  0  0  0  0
    7.5462  -16.3073   21.5971 C   0  0  0  0  0  0  0  0  0  0  0  0
    6.7448  -16.9711   20.5365 C   0  0  0  0  0  0  0  0  0  0  0  0
    7.0878  -18.4549   20.4723 C   0  0  0  0  0  0  0  0  0  0  0  0
    6.3182  -19.1807   19.3992 C   0  0  0  0  0  0  0  0  0  0  0  0
    6.7542  -20.5854   19.4797 N   0  0  0  0  0  0  0  0  0  0  0  0
    7.9701  -14.2392   22.9530 C   0  0  0  0  0  0  0  0  0  0  0  0
    9.2034  -13.9362   22.8042 O   0  0  0  0  0  0  0  0  0  0  0  0
    7.4480  -13.9382   24.2336 N   0  0  0  0  0  0  0  0  0  0  0  0
    8.2822  -13.5332   25.3507 C   0  0  1  0  0  0  0  0  0  0  0  0
    7.4440  -12.5538   26.1631 C   0  0  0  0  0  0  0  0  0  0  0  0
    5.8350  -13.2779   26.5804 S   0  0  0  0  0  0  0  0  0  0  0  0
    8.6765  -14.6603   26.2031 C   0  0  0  0  0  0  0  0  0  0  0  0
    7.8880  -15.6236   26.4202 O   0  0  0  0  0  0  0  0  0  0  0  0
   12.8548  -15.7933   24.9964 N   0  0  0  0  0  0  0  0  0  0  0  0
   12.0073  -16.5346   25.8506 C   0  0  0  0  0  0  0  0  0  0  0  0
   11.3946  -17.5058   25.2779 O   0  0  0  0  0  0  0  0  0  0  0  0
   11.7755  -16.2995   27.2822 C   0  0  0  0  0  0  0  0  0  0  0  0
   10.4048  -15.7975   27.6413 C   0  0  2  0  0  0  0  0  0  0  0  0
    9.9659  -14.6824   26.8023 N   0  0  0  0  0  0  0  0  0  0  0  0
   10.4184  -15.3385   29.0485 C   0  0  0  0  0  0  0  0  0  0  0  0
   10.1425  -14.1407   29.3474 O   0  0  0  0  0  0  0  0  0  0  0  0
   10.7449  -16.2582   30.0621 O   0  0  0  0  0  0  0  0  0  0  0  0
  2  1  1  6
  3  2  1  0
  4  3  1  0
  5  4  1  0
  6  5  1  0
  7  6  1  0
  8  2  1  0
  8  9  2  0
 10  8  1  0
 11 10  1  0
 11 12  1  1
 13 12  1  0
 14 11  1  0
 15 14  2  0
 16 17  1  0
 17 19  1  0
 17 18  2  0
 20 19  1  6
 20 22  1  0
 20 21  1  0
 21 14  1  0
 22 24  1  0
 23 22  2  0
M  END
$$$$
