KCN.pdb
     RDKit          3D

 24 23  0  0  1  0  0  0  0  0999 V2000
    7.7861  -12.6260   19.5719 N   0  0  0  0  0  0  0  0  0  0  0  0
    7.3392  -13.8789   20.2284 C   0  0  1  0  0  0  0  0  0  0  0  0
    7.9248  -14.9632   19.3508 C   0  0  0  0  0  0  0  0  0  0  0  0
    7.1376  -16.2215   19.2827 C   0  0  0  0  0  0  0  0  0  0  0  0
    7.1202  -16.7517   17.8537 C   0  0  0  0  0  0  0  0  0  0  0  0
    6.4389  -18.0911   17.7419 C   0  0  0  0  0  0  0  0  0  0  0  0
    6.4217  -18.4084   16.3036 N   0  0  0  0  0  0  0  0  0  0  0  0
    7.8871  -13.8488   21.5985 C   0  0  0  0  0  0  0  0  0  0  0  0
    9.1499  -13.9457   21.7740 O   0  0  0  0  0  0  0  0  0  0  0  0
    7.1424  -13.7172   22.7948 N   0  0  0  0  0  0  0  0  0  0  0  0
    7.7497  -13.7709   24.1123 C   0  0  1  0  0  0  0  0  0  0  0  0
    6.7435  -13.1314   25.0613 C   0  0  0  0  0  0  0  0  0  0  0  0
    7.3853  -13.1073   26.7568 S   0  0  0  0  0  0  0  0  0  0  0  0
    8.0309  -15.1418   24.5527 C   0  0  0  0  0  0  0  0  0  0  0  0
    7.1551  -16.0488   24.4682 O   0  0  0  0  0  0  0  0  0  0  0  0
   11.4568  -17.4327   22.4165 N   0  0  0  0  0  0  0  0  0  0  0  0
   10.6464  -17.8112   23.5107 C   0  0  0  0  0  0  0  0  0  0  0  0
    9.6649  -18.5788   23.2038 O   0  0  0  0  0  0  0  0  0  0  0  0
   10.8228  -17.4181   24.9153 C   0  0  0  0  0  0  0  0  0  0  0  0
    9.6140  -16.8146   25.5744 C   0  0  2  0  0  0  0  0  0  0  0  0
    9.3075  -15.4701   25.0863 N   0  0  0  0  0  0  0  0  0  0  0  0
    9.8571  -16.7318   27.0322 C   0  0  0  0  0  0  0  0  0  0  0  0
    9.8467  -15.6190   27.6338 O   0  0  0  0  0  0  0  0  0  0  0  0
   10.1028  -17.9164   27.7505 O   0  0  0  0  0  0  0  0  0  0  0  0
  2  1  1  6
  3  2  1  0
  4  3  1  0
  5  4  1  0
  6  5  1  0
  7  6  1  0
  8  2  1  0
  8  9  2  0
 10  8  1  0
 11 10  1  0
 11 12  1  1
 13 12  1  0
 14 11  1  0
 15 14  2  0
 16 17  1  0
 17 19  1  0
 17 18  2  0
 20 19  1  6
 20 22  1  0
 20 21  1  0
 21 14  1  0
 22 24  1  0
 23 22  2  0
M  END
$$$$
