KCN.pdb
     RDKit          3D

 24 23  0  0  1  0  0  0  0  0999 V2000
    4.9335  -18.4021   23.9783 N   0  0  0  0  0  0  0  0  0  0  0  0
    5.6782  -18.6507   22.7196 C   0  0  1  0  0  0  0  0  0  0  0  0
    4.5863  -18.7288   21.6754 C   0  0  0  0  0  0  0  0  0  0  0  0
    3.4304  -19.5940   22.0265 C   0  0  0  0  0  0  0  0  0  0  0  0
    2.4872  -19.7165   20.8354 C   0  0  0  0  0  0  0  0  0  0  0  0
    1.1918  -20.3993   21.1911 C   0  0  0  0  0  0  0  0  0  0  0  0
    0.4535  -20.5340   19.9237 N   0  0  0  0  0  0  0  0  0  0  0  0
    6.5978  -17.5091   22.5481 C   0  0  0  0  0  0  0  0  0  0  0  0
    7.3546  -17.4593   21.5187 O   0  0  0  0  0  0  0  0  0  0  0  0
    6.7439  -16.4124   23.4306 N   0  0  0  0  0  0  0  0  0  0  0  0
    7.9834  -15.6690   23.5671 C   0  0  1  0  0  0  0  0  0  0  0  0
    7.6306  -14.4108   24.3509 C   0  0  0  0  0  0  0  0  0  0  0  0
    6.6563  -14.8234   25.8232 S   0  0  0  0  0  0  0  0  0  0  0  0
    9.0183  -16.4178   24.2887 C   0  0  0  0  0  0  0  0  0  0  0  0
    8.7207  -17.3977   25.0290 O   0  0  0  0  0  0  0  0  0  0  0  0
   13.2304  -19.0017   22.4984 N   0  0  0  0  0  0  0  0  0  0  0  0
   12.0484  -18.5709   21.8544 C   0  0  0  0  0  0  0  0  0  0  0  0
   11.8276  -19.1301   20.7207 O   0  0  0  0  0  0  0  0  0  0  0  0
   11.0870  -17.5769   22.3505 C   0  0  0  0  0  0  0  0  0  0  0  0
   11.3999  -16.9919   23.6995 C   0  0  2  0  0  0  0  0  0  0  0  0
   10.3849  -16.0455   24.1621 N   0  0  0  0  0  0  0  0  0  0  0  0
   12.6944  -16.2783   23.6213 C   0  0  0  0  0  0  0  0  0  0  0  0
   12.8930  -15.3790   22.7540 O   0  0  0  0  0  0  0  0  0  0  0  0
   13.7136  -16.6138   24.5315 O   0  0  0  0  0  0  0  0  0  0  0  0
  2  1  1  1
  3  2  1  0
  4  3  1  0
  5  4  1  0
  6  5  1  0
  7  6  1  0
  8  2  1  0
  8  9  2  0
 10  8  1  0
 11 10  1  0
 11 12  1  1
 13 12  1  0
 14 11  1  0
 15 14  2  0
 16 17  1  0
 17 19  1  0
 17 18  2  0
 20 19  1  6
 20 22  1  0
 20 21  1  0
 21 14  1  0
 22 24  1  0
 23 22  2  0
M  END
$$$$
