KCN.pdb
     RDKit          3D

 24 23  0  0  1  0  0  0  0  0999 V2000
    7.2522  -15.5851   19.1626 N   0  0  0  0  0  0  0  0  0  0  0  0
    8.4713  -14.7410   19.2038 C   0  0  1  0  0  0  0  0  0  0  0  0
    8.0397  -13.4669   18.5117 C   0  0  0  0  0  0  0  0  0  0  0  0
    7.2697  -13.6546   17.2548 C   0  0  0  0  0  0  0  0  0  0  0  0
    8.2185  -13.9468   16.0981 C   0  0  0  0  0  0  0  0  0  0  0  0
    7.5004  -14.0776   14.7799 C   0  0  0  0  0  0  0  0  0  0  0  0
    8.5310  -14.4721   13.8043 N   0  0  0  0  0  0  0  0  0  0  0  0
    8.8100  -14.5690   20.6300 C   0  0  0  0  0  0  0  0  0  0  0  0
    9.9311  -14.0453   20.9522 O   0  0  0  0  0  0  0  0  0  0  0  0
    7.9996  -14.9316   21.7321 N   0  0  0  0  0  0  0  0  0  0  0  0
    8.4629  -14.8693   23.1066 C   0  0  1  0  0  0  0  0  0  0  0  0
    7.2104  -14.7249   23.9623 C   0  0  0  0  0  0  0  0  0  0  0  0
    7.6413  -14.6302   25.7208 S   0  0  0  0  0  0  0  0  0  0  0  0
    9.1949  -16.0735   23.5144 C   0  0  0  0  0  0  0  0  0  0  0  0
    8.7575  -17.2280   23.2446 O   0  0  0  0  0  0  0  0  0  0  0  0
   13.5941  -15.5069   22.3070 N   0  0  0  0  0  0  0  0  0  0  0  0
   12.9678  -16.6655   22.8194 C   0  0  0  0  0  0  0  0  0  0  0  0
   12.6307  -17.5249   21.9281 O   0  0  0  0  0  0  0  0  0  0  0  0
   12.6799  -16.9609   24.2295 C   0  0  0  0  0  0  0  0  0  0  0  0
   11.2255  -17.1260   24.5717 C   0  0  2  0  0  0  0  0  0  0  0  0
   10.4200  -15.9546   24.2266 N   0  0  0  0  0  0  0  0  0  0  0  0
   11.1015  -17.3582   26.0283 C   0  0  0  0  0  0  0  0  0  0  0  0
   11.7089  -18.3145   26.5913 O   0  0  0  0  0  0  0  0  0  0  0  0
   10.2922  -16.4948   26.7895 O   0  0  0  0  0  0  0  0  0  0  0  0
  2  1  1  1
  3  2  1  0
  4  3  1  0
  5  4  1  0
  6  5  1  0
  7  6  1  0
  8  2  1  0
  8  9  2  0
 10  8  1  0
 11 10  1  0
 11 12  1  1
 13 12  1  0
 14 11  1  0
 15 14  2  0
 16 17  1  0
 17 19  1  0
 17 18  2  0
 20 19  1  1
 20 22  1  0
 20 21  1  0
 21 14  1  0
 22 24  1  0
 23 22  2  0
M  END
$$$$
