KCN.pdb
     RDKit          3D

 24 23  0  0  1  0  0  0  0  0999 V2000
    9.0515  -17.2399   15.6352 N   0  0  0  0  0  0  0  0  0  0  0  0
    7.9045  -16.8741   16.5020 C   0  0  1  0  0  0  0  0  0  0  0  0
    7.1934  -18.1918   16.7177 C   0  0  0  0  0  0  0  0  0  0  0  0
    8.0385  -19.2915   17.2510 C   0  0  0  0  0  0  0  0  0  0  0  0
    7.2400  -20.5890   17.2999 C   0  0  0  0  0  0  0  0  0  0  0  0
    8.0769  -21.7676   17.7256 C   0  0  0  0  0  0  0  0  0  0  0  0
    7.1925  -22.9408   17.6200 N   0  0  0  0  0  0  0  0  0  0  0  0
    8.4802  -16.2901   17.7290 C   0  0  0  0  0  0  0  0  0  0  0  0
    9.6064  -16.7152   18.1604 O   0  0  0  0  0  0  0  0  0  0  0  0
    7.9044  -15.2660   18.5182 N   0  0  0  0  0  0  0  0  0  0  0  0
    8.4744  -14.8267   19.7791 C   0  0  1  0  0  0  0  0  0  0  0  0
    7.4765  -13.8349   20.3643 C   0  0  0  0  0  0  0  0  0  0  0  0
    7.1618  -12.4792   19.2022 S   0  0  0  0  0  0  0  0  0  0  0  0
    8.6771  -15.9291   20.7256 C   0  0  0  0  0  0  0  0  0  0  0  0
    8.5321  -17.1327   20.3690 O   0  0  0  0  0  0  0  0  0  0  0  0
   13.7272  -16.0099   23.3503 N   0  0  0  0  0  0  0  0  0  0  0  0
   12.6466  -16.6785   22.7317 C   0  0  0  0  0  0  0  0  0  0  0  0
   12.7266  -17.9588   22.7630 O   0  0  0  0  0  0  0  0  0  0  0  0
   11.4838  -16.0594   22.0811 C   0  0  0  0  0  0  0  0  0  0  0  0
   10.1551  -16.3459   22.7232 C   0  0  2  0  0  0  0  0  0  0  0  0
    9.0436  -15.6531   22.0716 N   0  0  0  0  0  0  0  0  0  0  0  0
   10.2048  -15.9103   24.1371 C   0  0  0  0  0  0  0  0  0  0  0  0
   10.3039  -16.7516   25.0765 O   0  0  0  0  0  0  0  0  0  0  0  0
   10.1399  -14.5354   24.4292 O   0  0  0  0  0  0  0  0  0  0  0  0
  2  1  1  6
  3  2  1  0
  4  3  1  0
  5  4  1  0
  6  5  1  0
  7  6  1  0
  8  2  1  0
  8  9  2  0
 10  8  1  0
 11 10  1  0
 11 12  1  1
 13 12  1  0
 14 11  1  0
 15 14  2  0
 16 17  1  0
 17 19  1  0
 17 18  2  0
 20 19  1  6
 20 22  1  0
 20 21  1  0
 21 14  1  0
 22 24  1  0
 23 22  2  0
M  END
$$$$
