KCN.pdb
     RDKit          3D

 24 23  0  0  1  0  0  0  0  0999 V2000
    7.4695  -13.3394   20.1213 N   0  0  0  0  0  0  0  0  0  0  0  0
    6.8172  -14.0833   21.2265 C   0  0  1  0  0  0  0  0  0  0  0  0
    7.2002  -15.5216   20.9555 C   0  0  0  0  0  0  0  0  0  0  0  0
    8.6518  -15.7669   20.7546 C   0  0  0  0  0  0  0  0  0  0  0  0
    8.9014  -17.2477   20.4931 C   0  0  0  0  0  0  0  0  0  0  0  0
   10.3650  -17.5680   20.3321 C   0  0  0  0  0  0  0  0  0  0  0  0
   10.4283  -19.0180   20.0803 N   0  0  0  0  0  0  0  0  0  0  0  0
    7.3717  -13.5363   22.4801 C   0  0  0  0  0  0  0  0  0  0  0  0
    8.6005  -13.1857   22.5250 O   0  0  0  0  0  0  0  0  0  0  0  0
    6.6678  -13.3445   23.6928 N   0  0  0  0  0  0  0  0  0  0  0  0
    7.2974  -12.8387   24.8993 C   0  0  1  0  0  0  0  0  0  0  0  0
    6.1585  -12.4999   25.8530 C   0  0  0  0  0  0  0  0  0  0  0  0
    6.8038  -11.8684   27.4253 S   0  0  0  0  0  0  0  0  0  0  0  0
    8.1856  -13.8207   25.5310 C   0  0  0  0  0  0  0  0  0  0  0  0
    8.8523  -13.5305   26.5645 O   0  0  0  0  0  0  0  0  0  0  0  0
   10.8320  -18.3884   26.5935 N   0  0  0  0  0  0  0  0  0  0  0  0
    9.5757  -18.5734   25.9730 C   0  0  0  0  0  0  0  0  0  0  0  0
    9.2082  -19.7988   25.8736 O   0  0  0  0  0  0  0  0  0  0  0  0
    8.6876  -17.5254   25.4520 C   0  0  0  0  0  0  0  0  0  0  0  0
    9.2135  -16.1211   25.5571 C   0  0  2  0  0  0  0  0  0  0  0  0
    8.3082  -15.1265   24.9814 N   0  0  0  0  0  0  0  0  0  0  0  0
   10.5049  -16.0402   24.8382 C   0  0  0  0  0  0  0  0  0  0  0  0
   10.5451  -15.8899   23.5827 O   0  0  0  0  0  0  0  0  0  0  0  0
   11.7010  -16.1333   25.5732 O   0  0  0  0  0  0  0  0  0  0  0  0
  2  1  1  6
  3  2  1  0
  4  3  1  0
  5  4  1  0
  6  5  1  0
  7  6  1  0
  8  2  1  0
  8  9  2  0
 10  8  1  0
 11 10  1  0
 11 12  1  1
 13 12  1  0
 14 11  1  0
 15 14  2  0
 16 17  1  0
 17 19  1  0
 17 18  2  0
 20 19  1  6
 20 22  1  0
 20 21  1  0
 21 14  1  0
 22 24  1  0
 23 22  2  0
M  END
$$$$
