KCN.pdb
     RDKit          3D

 24 23  0  0  1  0  0  0  0  0999 V2000
    9.2830  -15.8118   20.8901 N   0  0  0  0  0  0  0  0  0  0  0  0
    8.2418  -16.0586   21.9175 C   0  0  1  0  0  0  0  0  0  0  0  0
    8.4043  -17.5286   22.2359 C   0  0  0  0  0  0  0  0  0  0  0  0
    8.2998  -18.4474   21.0728 C   0  0  0  0  0  0  0  0  0  0  0  0
    8.5104  -19.8883   21.5231 C   0  0  0  0  0  0  0  0  0  0  0  0
    8.2496  -20.8826   20.4213 C   0  0  0  0  0  0  0  0  0  0  0  0
    8.4706  -22.2087   21.0233 N   0  0  0  0  0  0  0  0  0  0  0  0
    8.5491  -15.1583   23.0458 C   0  0  0  0  0  0  0  0  0  0  0  0
    9.7654  -14.9864   23.4010 O   0  0  0  0  0  0  0  0  0  0  0  0
    7.6106  -14.4285   23.8136 N   0  0  0  0  0  0  0  0  0  0  0  0
    7.9577  -13.7547   25.0519 C   0  0  1  0  0  0  0  0  0  0  0  0
    6.7140  -12.9779   25.4662 C   0  0  0  0  0  0  0  0  0  0  0  0
    6.9646  -12.1732   27.0715 S   0  0  0  0  0  0  0  0  0  0  0  0
    8.3279  -14.6876   26.1218 C   0  0  0  0  0  0  0  0  0  0  0  0
    7.5264  -15.5809   26.5175 O   0  0  0  0  0  0  0  0  0  0  0  0
   10.1321  -17.6597   25.8667 N   0  0  0  0  0  0  0  0  0  0  0  0
   11.2608  -17.2110   26.5892 C   0  0  0  0  0  0  0  0  0  0  0  0
   12.3602  -17.7908   26.2701 O   0  0  0  0  0  0  0  0  0  0  0  0
   11.2847  -16.1780   27.6336 C   0  0  0  0  0  0  0  0  0  0  0  0
    9.9861  -15.4544   27.8571 C   0  0  2  0  0  0  0  0  0  0  0  0
    9.6083  -14.5968   26.7338 N   0  0  0  0  0  0  0  0  0  0  0  0
   10.1146  -14.6053   29.0628 C   0  0  0  0  0  0  0  0  0  0  0  0
   10.0988  -15.1109   30.2223 O   0  0  0  0  0  0  0  0  0  0  0  0
   10.2560  -13.2144   28.9047 O   0  0  0  0  0  0  0  0  0  0  0  0
  2  1  1  6
  3  2  1  0
  4  3  1  0
  5  4  1  0
  6  5  1  0
  7  6  1  0
  8  2  1  0
  8  9  2  0
 10  8  1  0
 11 10  1  0
 11 12  1  1
 13 12  1  0
 14 11  1  0
 15 14  2  0
 16 17  1  0
 17 19  1  0
 17 18  2  0
 20 19  1  6
 20 22  1  0
 20 21  1  0
 21 14  1  0
 22 24  1  0
 23 22  2  0
M  END
$$$$
