KCN.pdb
     RDKit          3D

 24 23  0  0  1  0  0  0  0  0999 V2000
    6.9360  -13.7067   20.2101 N   0  0  0  0  0  0  0  0  0  0  0  0
    6.9818  -15.1611   19.9216 C   0  0  1  0  0  0  0  0  0  0  0  0
    6.5165  -15.2487   18.4848 C   0  0  0  0  0  0  0  0  0  0  0  0
    6.8920  -14.0982   17.6226 C   0  0  0  0  0  0  0  0  0  0  0  0
    7.6218  -14.5921   16.3789 C   0  0  0  0  0  0  0  0  0  0  0  0
    7.9800  -13.4728   15.4357 C   0  0  0  0  0  0  0  0  0  0  0  0
    8.7170  -14.1071   14.3294 N   0  0  0  0  0  0  0  0  0  0  0  0
    8.3807  -15.5826   20.1305 C   0  0  0  0  0  0  0  0  0  0  0  0
    8.7252  -16.7821   19.8521 O   0  0  0  0  0  0  0  0  0  0  0  0
    9.4331  -14.7752   20.6239 N   0  0  0  0  0  0  0  0  0  0  0  0
   10.7409  -15.3052   20.9654 C   0  0  1  0  0  0  0  0  0  0  0  0
   11.7433  -14.2277   20.5705 C   0  0  0  0  0  0  0  0  0  0  0  0
   13.4423  -14.8055   20.8287 S   0  0  0  0  0  0  0  0  0  0  0  0
   10.8792  -15.5979   22.3963 C   0  0  0  0  0  0  0  0  0  0  0  0
   10.9634  -14.6691   23.2490 O   0  0  0  0  0  0  0  0  0  0  0  0
    7.5306  -17.1840   24.2935 N   0  0  0  0  0  0  0  0  0  0  0  0
    8.7407  -17.0679   25.0143 C   0  0  0  0  0  0  0  0  0  0  0  0
    8.7661  -16.1000   25.8564 O   0  0  0  0  0  0  0  0  0  0  0  0
    9.9266  -17.9260   24.8888 C   0  0  0  0  0  0  0  0  0  0  0  0
   11.1275  -17.2806   24.2553 C   0  0  2  0  0  0  0  0  0  0  0  0
   10.9207  -16.9462   22.8462 N   0  0  0  0  0  0  0  0  0  0  0  0
   12.2732  -18.2135   24.3447 C   0  0  0  0  0  0  0  0  0  0  0  0
   12.7979  -18.7050   23.3038 O   0  0  0  0  0  0  0  0  0  0  0  0
   12.7788  -18.5522   25.6133 O   0  0  0  0  0  0  0  0  0  0  0  0
  2  1  1  6
  3  2  1  0
  4  3  1  0
  5  4  1  0
  6  5  1  0
  7  6  1  0
  8  2  1  0
  8  9  2  0
 10  8  1  0
 11 10  1  0
 11 12  1  1
 13 12  1  0
 14 11  1  0
 15 14  2  0
 16 17  1  0
 17 19  1  0
 17 18  2  0
 20 19  1  6
 20 22  1  0
 20 21  1  0
 21 14  1  0
 22 24  1  0
 23 22  2  0
M  END
$$$$
