KCN.pdb
     RDKit          3D

 24 23  0  0  1  0  0  0  0  0999 V2000
    8.7218  -14.6628   19.8759 N   0  0  0  0  0  0  0  0  0  0  0  0
    7.6007  -15.0329   20.7740 C   0  0  1  0  0  0  0  0  0  0  0  0
    7.3173  -16.4728   20.4065 C   0  0  0  0  0  0  0  0  0  0  0  0
    7.0098  -16.7154   18.9731 C   0  0  0  0  0  0  0  0  0  0  0  0
    6.6344  -18.1770   18.7582 C   0  0  0  0  0  0  0  0  0  0  0  0
    6.3701  -18.4994   17.3101 C   0  0  0  0  0  0  0  0  0  0  0  0
    5.9873  -19.9215   17.2839 N   0  0  0  0  0  0  0  0  0  0  0  0
    8.0934  -14.8468   22.1527 C   0  0  0  0  0  0  0  0  0  0  0  0
    9.3396  -14.9896   22.4006 O   0  0  0  0  0  0  0  0  0  0  0  0
    7.3105  -14.5115   23.2829 N   0  0  0  0  0  0  0  0  0  0  0  0
    7.8491  -14.4650   24.6303 C   0  0  1  0  0  0  0  0  0  0  0  0
    6.7760  -13.8024   25.4854 C   0  0  0  0  0  0  0  0  0  0  0  0
    6.7049  -12.0202   25.1598 S   0  0  0  0  0  0  0  0  0  0  0  0
    8.1476  -15.7965   25.1690 C   0  0  0  0  0  0  0  0  0  0  0  0
    7.3836  -16.7784   24.9473 O   0  0  0  0  0  0  0  0  0  0  0  0
   10.6776  -19.6703   24.3318 N   0  0  0  0  0  0  0  0  0  0  0  0
   11.4582  -18.4922   24.3257 C   0  0  0  0  0  0  0  0  0  0  0  0
   12.4286  -18.5027   23.4862 O   0  0  0  0  0  0  0  0  0  0  0  0
   11.2631  -17.3017   25.1644 C   0  0  0  0  0  0  0  0  0  0  0  0
   10.0050  -17.2896   25.9871 C   0  0  2  0  0  0  0  0  0  0  0  0
    9.3139  -16.0006   25.9565 N   0  0  0  0  0  0  0  0  0  0  0  0
   10.3519  -17.5937   27.3937 C   0  0  0  0  0  0  0  0  0  0  0  0
   10.6842  -16.6752   28.1976 O   0  0  0  0  0  0  0  0  0  0  0  0
   10.3079  -18.9297   27.8327 O   0  0  0  0  0  0  0  0  0  0  0  0
  2  1  1  6
  3  2  1  0
  4  3  1  0
  5  4  1  0
  6  5  1  0
  7  6  1  0
  8  2  1  0
  8  9  2  0
 10  8  1  0
 11 10  1  0
 11 12  1  1
 13 12  1  0
 14 11  1  0
 15 14  2  0
 16 17  1  0
 17 19  1  0
 17 18  2  0
 20 19  1  6
 20 22  1  0
 20 21  1  0
 21 14  1  0
 22 24  1  0
 23 22  2  0
M  END
$$$$
