KCN.pdb
     RDKit          3D

 24 23  0  0  1  0  0  0  0  0999 V2000
    6.6133  -15.6576   22.4549 N   0  0  0  0  0  0  0  0  0  0  0  0
    7.9840  -15.2834   22.0287 C   0  0  1  0  0  0  0  0  0  0  0  0
    7.7685  -14.0220   21.2218 C   0  0  0  0  0  0  0  0  0  0  0  0
    7.2523  -14.2281   19.8438 C   0  0  0  0  0  0  0  0  0  0  0  0
    8.0480  -13.3842   18.8548 C   0  0  0  0  0  0  0  0  0  0  0  0
    7.5789  -13.5621   17.4340 C   0  0  0  0  0  0  0  0  0  0  0  0
    8.3246  -12.5684   16.6427 N   0  0  0  0  0  0  0  0  0  0  0  0
    8.7641  -15.0837   23.2656 C   0  0  0  0  0  0  0  0  0  0  0  0
   10.0410  -15.0535   23.2066 O   0  0  0  0  0  0  0  0  0  0  0  0
    8.2380  -14.9121   24.5681 N   0  0  0  0  0  0  0  0  0  0  0  0
    9.0760  -14.7691   25.7451 C   0  0  1  0  0  0  0  0  0  0  0  0
    8.3430  -13.7985   26.6630 C   0  0  0  0  0  0  0  0  0  0  0  0
    9.1887  -13.6628   28.2610 S   0  0  0  0  0  0  0  0  0  0  0  0
    9.2882  -16.0387   26.4489 C   0  0  0  0  0  0  0  0  0  0  0  0
    8.3152  -16.7735   26.7807 O   0  0  0  0  0  0  0  0  0  0  0  0
   11.9082  -21.1515   26.9621 N   0  0  0  0  0  0  0  0  0  0  0  0
   12.2540  -19.8393   27.3571 C   0  0  0  0  0  0  0  0  0  0  0  0
   12.9798  -19.7770   28.4135 O   0  0  0  0  0  0  0  0  0  0  0  0
   11.8701  -18.5882   26.6894 C   0  0  0  0  0  0  0  0  0  0  0  0
   10.8645  -17.7458   27.4235 C   0  0  2  0  0  0  0  0  0  0  0  0
   10.6071  -16.4626   26.7699 N   0  0  0  0  0  0  0  0  0  0  0  0
   11.3736  -17.4750   28.7869 C   0  0  0  0  0  0  0  0  0  0  0  0
   12.0617  -16.4427   29.0340 O   0  0  0  0  0  0  0  0  0  0  0  0
   11.0811  -18.3876   29.8171 O   0  0  0  0  0  0  0  0  0  0  0  0
  2  1  1  1
  3  2  1  0
  4  3  1  0
  5  4  1  0
  6  5  1  0
  7  6  1  0
  8  2  1  0
  8  9  2  0
 10  8  1  0
 11 10  1  0
 11 12  1  1
 13 12  1  0
 14 11  1  0
 15 14  2  0
 16 17  1  0
 17 19  1  0
 17 18  2  0
 20 19  1  6
 20 22  1  0
 20 21  1  0
 21 14  1  0
 22 24  1  0
 23 22  2  0
M  END
$$$$
