KCN.pdb
     RDKit          3D

 24 23  0  0  1  0  0  0  0  0999 V2000
    7.5416  -13.4184   20.1501 N   0  0  0  0  0  0  0  0  0  0  0  0
    6.8632  -14.1449   21.2512 C   0  0  1  0  0  0  0  0  0  0  0  0
    6.7418  -15.5556   20.7185 C   0  0  0  0  0  0  0  0  0  0  0  0
    7.6893  -15.9088   19.6297 C   0  0  0  0  0  0  0  0  0  0  0  0
    7.4600  -17.3478   19.1822 C   0  0  0  0  0  0  0  0  0  0  0  0
    8.4330  -17.7845   18.1178 C   0  0  0  0  0  0  0  0  0  0  0  0
    8.0362  -19.1562   17.7564 N   0  0  0  0  0  0  0  0  0  0  0  0
    7.7374  -14.0185   22.4335 C   0  0  0  0  0  0  0  0  0  0  0  0
    9.0056  -13.9721   22.2769 O   0  0  0  0  0  0  0  0  0  0  0  0
    7.3148  -13.9371   23.7818 N   0  0  0  0  0  0  0  0  0  0  0  0
    8.2409  -13.9288   24.8998 C   0  0  1  0  0  0  0  0  0  0  0  0
    7.5619  -13.1185   25.9972 C   0  0  0  0  0  0  0  0  0  0  0  0
    5.9279  -13.8028   26.3832 S   0  0  0  0  0  0  0  0  0  0  0  0
    8.5377  -15.2751   25.4016 C   0  0  0  0  0  0  0  0  0  0  0  0
    7.6428  -16.1657   25.4544 O   0  0  0  0  0  0  0  0  0  0  0  0
   11.3124  -18.0201   23.4363 N   0  0  0  0  0  0  0  0  0  0  0  0
   11.8928  -17.2632   24.4792 C   0  0  0  0  0  0  0  0  0  0  0  0
   12.7740  -16.4146   24.0923 O   0  0  0  0  0  0  0  0  0  0  0  0
   11.5868  -17.3593   25.9130 C   0  0  0  0  0  0  0  0  0  0  0  0
   10.1982  -16.9397   26.3073 C   0  0  2  0  0  0  0  0  0  0  0  0
    9.8515  -15.5977   25.8396 N   0  0  0  0  0  0  0  0  0  0  0  0
   10.0967  -16.9541   27.7840 C   0  0  0  0  0  0  0  0  0  0  0  0
    9.8035  -15.9059   28.4287 O   0  0  0  0  0  0  0  0  0  0  0  0
   10.3324  -18.1589   28.4715 O   0  0  0  0  0  0  0  0  0  0  0  0
  2  1  1  6
  3  2  1  0
  4  3  1  0
  5  4  1  0
  6  5  1  0
  7  6  1  0
  8  2  1  0
  8  9  2  0
 10  8  1  0
 11 10  1  0
 11 12  1  1
 13 12  1  0
 14 11  1  0
 15 14  2  0
 16 17  1  0
 17 19  1  0
 17 18  2  0
 20 19  1  1
 20 22  1  0
 20 21  1  0
 21 14  1  0
 22 24  1  0
 23 22  2  0
M  END
$$$$
