KCN.pdb
     RDKit          3D

 24 23  0  0  1  0  0  0  0  0999 V2000
    8.2915  -12.6998   17.3130 N   0  0  0  0  0  0  0  0  0  0  0  0
    7.7108  -13.8749   18.0077 C   0  0  1  0  0  0  0  0  0  0  0  0
    8.0968  -15.0353   17.1171 C   0  0  0  0  0  0  0  0  0  0  0  0
    9.5507  -15.1704   16.8419 C   0  0  0  0  0  0  0  0  0  0  0  0
    9.7966  -16.3289   15.8823 C   0  0  0  0  0  0  0  0  0  0  0  0
   11.2596  -16.5331   15.5848 C   0  0  0  0  0  0  0  0  0  0  0  0
   11.3238  -17.7075   14.6981 N   0  0  0  0  0  0  0  0  0  0  0  0
    8.3263  -13.9113   19.3486 C   0  0  0  0  0  0  0  0  0  0  0  0
    9.5348  -13.5213   19.4975 O   0  0  0  0  0  0  0  0  0  0  0  0
    7.7044  -14.3461   20.5432 N   0  0  0  0  0  0  0  0  0  0  0  0
    8.3921  -14.3873   21.8211 C   0  0  1  0  0  0  0  0  0  0  0  0
    7.3055  -14.5719   22.8733 C   0  0  0  0  0  0  0  0  0  0  0  0
    8.0209  -14.5890   24.5392 S   0  0  0  0  0  0  0  0  0  0  0  0
    9.3525  -15.4924   21.9140 C   0  0  0  0  0  0  0  0  0  0  0  0
    9.0782  -16.6379   21.4562 O   0  0  0  0  0  0  0  0  0  0  0  0
   13.5472  -13.9530   20.4953 N   0  0  0  0  0  0  0  0  0  0  0  0
   13.1251  -15.2593   20.8309 C   0  0  0  0  0  0  0  0  0  0  0  0
   12.8223  -15.9945   19.8237 O   0  0  0  0  0  0  0  0  0  0  0  0
   13.0073  -15.8276   22.1806 C   0  0  0  0  0  0  0  0  0  0  0  0
   11.6408  -16.3315   22.5530 C   0  0  2  0  0  0  0  0  0  0  0  0
   10.6186  -15.2854   22.5274 N   0  0  0  0  0  0  0  0  0  0  0  0
   11.6952  -16.8899   23.9228 C   0  0  0  0  0  0  0  0  0  0  0  0
   12.5222  -17.7981   24.2255 O   0  0  0  0  0  0  0  0  0  0  0  0
   10.8079  -16.3949   24.8961 O   0  0  0  0  0  0  0  0  0  0  0  0
  2  1  1  6
  3  2  1  0
  4  3  1  0
  5  4  1  0
  6  5  1  0
  7  6  1  0
  8  2  1  0
  8  9  2  0
 10  8  1  0
 11 10  1  0
 11 12  1  1
 13 12  1  0
 14 11  1  0
 15 14  2  0
 16 17  1  0
 17 19  1  0
 17 18  2  0
 20 19  1  1
 20 22  1  0
 20 21  1  0
 21 14  1  0
 22 24  1  0
 23 22  2  0
M  END
$$$$
