KCN.pdb
     RDKit          3D

 24 23  0  0  1  0  0  0  0  0999 V2000
    6.8344  -15.7596   21.5790 N   0  0  0  0  0  0  0  0  0  0  0  0
    8.2386  -15.2843   21.5249 C   0  0  1  0  0  0  0  0  0  0  0  0
    8.1670  -14.0811   20.6106 C   0  0  0  0  0  0  0  0  0  0  0  0
    7.8616  -14.3802   19.1875 C   0  0  0  0  0  0  0  0  0  0  0  0
    8.1457  -13.1575   18.3228 C   0  0  0  0  0  0  0  0  0  0  0  0
    7.6988  -13.3419   16.8956 C   0  0  0  0  0  0  0  0  0  0  0  0
    7.8801  -12.0301   16.2507 N   0  0  0  0  0  0  0  0  0  0  0  0
    8.6236  -14.9659   22.9136 C   0  0  0  0  0  0  0  0  0  0  0  0
    9.8203  -14.5924   23.1654 O   0  0  0  0  0  0  0  0  0  0  0  0
    7.7825  -15.0272   24.0502 N   0  0  0  0  0  0  0  0  0  0  0  0
    8.2632  -14.7990   25.4009 C   0  0  1  0  0  0  0  0  0  0  0  0
    7.0760  -14.2423   26.1772 C   0  0  0  0  0  0  0  0  0  0  0  0
    7.0747  -12.4297   26.1360 S   0  0  0  0  0  0  0  0  0  0  0  0
    8.7371  -16.0262   26.0502 C   0  0  0  0  0  0  0  0  0  0  0  0
    7.9863  -17.0358   26.1684 O   0  0  0  0  0  0  0  0  0  0  0  0
   11.5795  -18.5016   24.4408 N   0  0  0  0  0  0  0  0  0  0  0  0
   12.2536  -17.6944   25.3850 C   0  0  0  0  0  0  0  0  0  0  0  0
   13.1849  -16.9636   24.8897 O   0  0  0  0  0  0  0  0  0  0  0  0
   11.9912  -17.6214   26.8287 C   0  0  0  0  0  0  0  0  0  0  0  0
   10.5736  -17.3008   27.2127 C   0  0  2  0  0  0  0  0  0  0  0  0
   10.0627  -16.0953   26.5602 N   0  0  0  0  0  0  0  0  0  0  0  0
   10.5112  -17.0943   28.6772 C   0  0  0  0  0  0  0  0  0  0  0  0
   10.1972  -15.9703   29.1654 O   0  0  0  0  0  0  0  0  0  0  0  0
   10.8080  -18.1728   29.5307 O   0  0  0  0  0  0  0  0  0  0  0  0
  2  1  1  1
  3  2  1  0
  4  3  1  0
  5  4  1  0
  6  5  1  0
  7  6  1  0
  8  2  1  0
  8  9  2  0
 10  8  1  0
 11 10  1  0
 11 12  1  1
 13 12  1  0
 14 11  1  0
 15 14  2  0
 16 17  1  0
 17 19  1  0
 17 18  2  0
 20 19  1  6
 20 22  1  0
 20 21  1  0
 21 14  1  0
 22 24  1  0
 23 22  2  0
M  END
$$$$
