KCN.pdb
     RDKit          3D

 24 23  0  0  1  0  0  0  0  0999 V2000
    4.9204  -19.2907   20.2639 N   0  0  0  0  0  0  0  0  0  0  0  0
    5.0134  -19.7233   21.6798 C   0  0  1  0  0  0  0  0  0  0  0  0
    5.1180  -21.2293   21.5805 C   0  0  0  0  0  0  0  0  0  0  0  0
    5.6417  -21.7474   20.2901 C   0  0  0  0  0  0  0  0  0  0  0  0
    5.5984  -23.2710   20.2813 C   0  0  0  0  0  0  0  0  0  0  0  0
    6.1933  -23.8594   19.0281 C   0  0  0  0  0  0  0  0  0  0  0  0
    6.0071  -25.3157   19.1465 N   0  0  0  0  0  0  0  0  0  0  0  0
    6.2138  -19.0696   22.2364 C   0  0  0  0  0  0  0  0  0  0  0  0
    7.2360  -18.8891   21.4897 O   0  0  0  0  0  0  0  0  0  0  0  0
    6.3706  -18.5961   23.5609 N   0  0  0  0  0  0  0  0  0  0  0  0
    7.6139  -18.0330   24.0556 C   0  0  1  0  0  0  0  0  0  0  0  0
    7.2270  -16.7660   24.8085 C   0  0  0  0  0  0  0  0  0  0  0  0
    6.0260  -17.1368   26.1151 S   0  0  0  0  0  0  0  0  0  0  0  0
    8.3270  -18.9395   24.9623 C   0  0  0  0  0  0  0  0  0  0  0  0
    7.8184  -20.0390   25.3218 O   0  0  0  0  0  0  0  0  0  0  0  0
   10.6799  -19.3341   29.2940 N   0  0  0  0  0  0  0  0  0  0  0  0
    9.6848  -20.1205   28.6705 C   0  0  0  0  0  0  0  0  0  0  0  0
    8.8925  -20.7172   29.4846 O   0  0  0  0  0  0  0  0  0  0  0  0
    9.4856  -20.3072   27.2269 C   0  0  0  0  0  0  0  0  0  0  0  0
   10.3681  -19.4744   26.3395 C   0  0  2  0  0  0  0  0  0  0  0  0
    9.6144  -18.5876   25.4532 N   0  0  0  0  0  0  0  0  0  0  0  0
   11.1884  -20.3767   25.5004 C   0  0  0  0  0  0  0  0  0  0  0  0
   12.4223  -20.1615   25.3232 O   0  0  0  0  0  0  0  0  0  0  0  0
   10.5752  -21.4889   24.8948 O   0  0  0  0  0  0  0  0  0  0  0  0
  2  1  1  6
  3  2  1  0
  4  3  1  0
  5  4  1  0
  6  5  1  0
  7  6  1  0
  8  2  1  0
  8  9  2  0
 10  8  1  0
 11 10  1  0
 11 12  1  1
 13 12  1  0
 14 11  1  0
 15 14  2  0
 16 17  1  0
 17 19  1  0
 17 18  2  0
 20 19  1  6
 20 22  1  0
 20 21  1  0
 21 14  1  0
 22 24  1  0
 23 22  2  0
M  END
$$$$
