KCN.pdb
     RDKit          3D

 24 23  0  0  1  0  0  0  0  0999 V2000
    8.4417  -17.7545   19.6587 N   0  0  0  0  0  0  0  0  0  0  0  0
    9.8723  -18.1337   19.5575 C   0  0  1  0  0  0  0  0  0  0  0  0
   10.1357  -18.1157   18.0679 C   0  0  0  0  0  0  0  0  0  0  0  0
    9.5357  -19.2385   17.3016 C   0  0  0  0  0  0  0  0  0  0  0  0
    9.8075  -19.0604   15.8124 C   0  0  0  0  0  0  0  0  0  0  0  0
    9.3985  -20.2630   15.0018 C   0  0  0  0  0  0  0  0  0  0  0  0
    9.6839  -19.9122   13.6000 N   0  0  0  0  0  0  0  0  0  0  0  0
   10.6266  -17.1176   20.3170 C   0  0  0  0  0  0  0  0  0  0  0  0
   10.8342  -15.9682   19.7966 O   0  0  0  0  0  0  0  0  0  0  0  0
   11.1698  -17.2751   21.6143 N   0  0  0  0  0  0  0  0  0  0  0  0
   11.8514  -16.2048   22.3197 C   0  0  1  0  0  0  0  0  0  0  0  0
   11.3496  -16.2674   23.7571 C   0  0  0  0  0  0  0  0  0  0  0  0
    9.6549  -15.6338   23.8739 S   0  0  0  0  0  0  0  0  0  0  0  0
   13.3107  -16.3549   22.3065 C   0  0  0  0  0  0  0  0  0  0  0  0
   13.8557  -17.4716   22.5364 O   0  0  0  0  0  0  0  0  0  0  0  0
   15.4301  -15.1904   19.1269 N   0  0  0  0  0  0  0  0  0  0  0  0
   16.1007  -14.2109   19.8939 C   0  0  0  0  0  0  0  0  0  0  0  0
   16.5838  -13.2394   19.2089 O   0  0  0  0  0  0  0  0  0  0  0  0
   16.2857  -14.2078   21.3514 C   0  0  0  0  0  0  0  0  0  0  0  0
   15.5981  -15.3201   22.0928 C   0  0  2  0  0  0  0  0  0  0  0  0
   14.1392  -15.2323   22.0315 N   0  0  0  0  0  0  0  0  0  0  0  0
   16.0040  -15.2675   23.5154 C   0  0  0  0  0  0  0  0  0  0  0  0
   15.2441  -14.7652   24.3932 O   0  0  0  0  0  0  0  0  0  0  0  0
   17.2578  -15.7876   23.8860 O   0  0  0  0  0  0  0  0  0  0  0  0
  2  1  1  6
  3  2  1  0
  4  3  1  0
  5  4  1  0
  6  5  1  0
  7  6  1  0
  8  2  1  0
  8  9  2  0
 10  8  1  0
 11 10  1  0
 11 12  1  1
 13 12  1  0
 14 11  1  0
 15 14  2  0
 16 17  1  0
 17 19  1  0
 17 18  2  0
 20 19  1  6
 20 22  1  0
 20 21  1  0
 21 14  1  0
 22 24  1  0
 23 22  2  0
M  END
$$$$
