KCN.pdb
     RDKit          3D

 24 23  0  0  1  0  0  0  0  0999 V2000
    6.9113  -15.3487   21.3131 N   0  0  0  0  0  0  0  0  0  0  0  0
    8.2665  -14.7454   21.3085 C   0  0  1  0  0  0  0  0  0  0  0  0
    8.1859  -13.7098   20.2087 C   0  0  0  0  0  0  0  0  0  0  0  0
    7.6616  -14.2015   18.9083 C   0  0  0  0  0  0  0  0  0  0  0  0
    8.5849  -13.7706   17.7746 C   0  0  0  0  0  0  0  0  0  0  0  0
    8.0913  -14.2204   16.4239 C   0  0  0  0  0  0  0  0  0  0  0  0
    9.0069  -13.6111   15.4440 N   0  0  0  0  0  0  0  0  0  0  0  0
    8.4750  -14.1809   22.6561 C   0  0  0  0  0  0  0  0  0  0  0  0
    9.5979  -13.6427   22.9466 O   0  0  0  0  0  0  0  0  0  0  0  0
    7.5320  -14.1639   23.7113 N   0  0  0  0  0  0  0  0  0  0  0  0
    7.8482  -13.6842   25.0446 C   0  0  1  0  0  0  0  0  0  0  0  0
    6.5835  -13.0035   25.5533 C   0  0  0  0  0  0  0  0  0  0  0  0
    6.8158  -12.3999   27.2471 S   0  0  0  0  0  0  0  0  0  0  0  0
    8.2225  -14.7651   25.9633 C   0  0  0  0  0  0  0  0  0  0  0  0
    7.4181  -15.7012   26.2346 O   0  0  0  0  0  0  0  0  0  0  0  0
   12.1206  -16.3856   24.6713 N   0  0  0  0  0  0  0  0  0  0  0  0
   11.3650  -16.9455   25.7262 C   0  0  0  0  0  0  0  0  0  0  0  0
   10.7178  -18.0075   25.4101 O   0  0  0  0  0  0  0  0  0  0  0  0
   11.2600  -16.4376   27.1008 C   0  0  0  0  0  0  0  0  0  0  0  0
    9.9295  -15.8434   27.4706 C   0  0  2  0  0  0  0  0  0  0  0  0
    9.5102  -14.7724   26.5666 N   0  0  0  0  0  0  0  0  0  0  0  0
   10.0206  -15.2837   28.8379 C   0  0  0  0  0  0  0  0  0  0  0  0
    9.7952  -14.0586   29.0584 O   0  0  0  0  0  0  0  0  0  0  0  0
   10.3641  -16.1375   29.9022 O   0  0  0  0  0  0  0  0  0  0  0  0
  2  1  1  1
  3  2  1  0
  4  3  1  0
  5  4  1  0
  6  5  1  0
  7  6  1  0
  8  2  1  0
  8  9  2  0
 10  8  1  0
 11 10  1  0
 11 12  1  1
 13 12  1  0
 14 11  1  0
 15 14  2  0
 16 17  1  0
 17 19  1  0
 17 18  2  0
 20 19  1  6
 20 22  1  0
 20 21  1  0
 21 14  1  0
 22 24  1  0
 23 22  2  0
M  END
$$$$
