IKS.pdb
     RDKit          3D

 24 23  0  0  1  0  0  0  0  0999 V2000
   28.9761  -18.4812  -14.1058 C   0  0  0  0  0  0  0  0  0  0  0  0
   28.3391  -18.2251  -15.4299 C   0  0  0  0  0  0  0  0  0  0  0  0
   27.0275  -18.9554  -15.6102 C   0  0  2  0  0  0  0  0  0  0  0  0
   26.1233  -18.5849  -14.4543 C   0  0  0  0  0  0  0  0  0  0  0  0
   27.2131  -20.4552  -15.5890 C   0  0  2  0  0  0  0  0  0  0  0  0
   28.1361  -20.8866  -16.6286 N   0  0  0  0  0  0  0  0  0  0  0  0
   25.8875  -21.0974  -15.7780 C   0  0  0  0  0  0  0  0  0  0  0  0
   25.2477  -20.9385  -16.8439 O   0  0  0  0  0  0  0  0  0  0  0  0
   25.3218  -21.8898  -14.7811 N   0  0  0  0  0  0  0  0  0  0  0  0
   24.0098  -22.5636  -14.8885 C   0  0  1  0  0  0  0  0  0  0  0  0
   24.0531  -23.8392  -14.1184 C   0  0  0  0  0  0  0  0  0  0  0  0
   22.7557  -24.5715  -14.1606 C   0  0  0  0  0  0  0  0  0  0  0  0
   22.8307  -25.8151  -15.0374 C   0  0  0  0  0  0  0  0  0  0  0  0
   21.4433  -26.4580  -15.0413 C   0  0  0  0  0  0  0  0  0  0  0  0
   21.4196  -27.6276  -15.8796 N   0  0  0  0  0  0  0  0  0  0  0  0
   23.0460  -21.5619  -14.4289 C   0  0  0  0  0  0  0  0  0  0  0  0
   23.2618  -20.9623  -13.3459 O   0  0  0  0  0  0  0  0  0  0  0  0
   20.1714  -19.8491  -16.8153 O   0  0  0  0  0  0  0  0  0  0  0  0
   20.7393  -19.1946  -15.7214 C   0  0  0  0  0  0  0  0  0  0  0  0
   21.0086  -20.1427  -14.5933 C   0  0  2  0  0  0  0  0  0  0  0  0
   21.8786  -21.2111  -15.1235 N   0  0  0  0  0  0  0  0  0  0  0  0
   19.7904  -20.7292  -14.0334 C   0  0  0  0  0  0  0  0  0  0  0  0
   18.8431  -19.9949  -13.3356 O   0  0  0  0  0  0  0  0  0  0  0  0
   19.5700  -21.9577  -14.1797 O   0  0  0  0  0  0  0  0  0  0  0  0
  1  2  1  0
  3  4  1  1
  3  2  1  0
  5  6  1  6
  5  3  1  0
  7  5  1  0
  8  7  2  0
  9  7  1  0
 10  9  1  0
 10 11  1  1
 11 12  1  0
 12 13  1  0
 13 14  1  0
 14 15  1  0
 16 10  1  0
 17 16  2  0
 18 19  1  0
 20 19  1  6
 20 21  1  0
 21 16  1  0
 22 20  1  0
 22 23  1  0
 24 22  2  0
M  END
$$$$
