IKS.pdb
     RDKit          3D

 24 23  0  0  1  0  0  0  0  0999 V2000
   18.0478  -10.9942  -14.8111 C   0  0  0  0  0  0  0  0  0  0  0  0
   17.7020  -11.1653  -13.3704 C   0  0  0  0  0  0  0  0  0  0  0  0
   16.9112  -10.0064  -12.8067 C   0  0  2  0  0  0  0  0  0  0  0  0
   17.7678   -8.7627  -12.9077 C   0  0  0  0  0  0  0  0  0  0  0  0
   16.5712  -10.2158  -11.3490 C   0  0  2  0  0  0  0  0  0  0  0  0
   15.8621  -11.4712  -11.1484 N   0  0  0  0  0  0  0  0  0  0  0  0
   15.7388   -9.0748  -10.8901 C   0  0  0  0  0  0  0  0  0  0  0  0
   14.6478   -8.8152  -11.4495 O   0  0  0  0  0  0  0  0  0  0  0  0
   16.1456   -8.2660   -9.8307 N   0  0  0  0  0  0  0  0  0  0  0  0
   15.3722   -7.1207   -9.3047 C   0  0  1  0  0  0  0  0  0  0  0  0
   15.1230   -7.3285   -7.8497 C   0  0  0  0  0  0  0  0  0  0  0  0
   14.4712   -6.1497   -7.2118 C   0  0  0  0  0  0  0  0  0  0  0  0
   12.9572   -6.3041   -7.1405 C   0  0  0  0  0  0  0  0  0  0  0  0
   12.3828   -4.9725   -6.6557 C   0  0  0  0  0  0  0  0  0  0  0  0
   10.9524   -4.9407   -6.8125 N   0  0  0  0  0  0  0  0  0  0  0  0
   16.1689   -5.9461   -9.6640 C   0  0  0  0  0  0  0  0  0  0  0  0
   17.3648   -5.8828   -9.2835 O   0  0  0  0  0  0  0  0  0  0  0  0
   15.3939   -3.4204  -12.7455 O   0  0  0  0  0  0  0  0  0  0  0  0
   16.6579   -3.5534  -12.1693 C   0  0  0  0  0  0  0  0  0  0  0  0
   16.5698   -3.7112  -10.6822 C   0  0  2  0  0  0  0  0  0  0  0  0
   15.6887   -4.8664  -10.4204 N   0  0  0  0  0  0  0  0  0  0  0  0
   16.0413   -2.5238  -10.0095 C   0  0  0  0  0  0  0  0  0  0  0  0
   16.6754   -1.2905  -10.0322 O   0  0  0  0  0  0  0  0  0  0  0  0
   14.9604   -2.6014   -9.3734 O   0  0  0  0  0  0  0  0  0  0  0  0
  1  2  1  0
  3  4  1  1
  3  2  1  0
  5  6  1  6
  5  3  1  0
  7  5  1  0
  8  7  2  0
  9  7  1  0
 10  9  1  0
 10 11  1  1
 11 12  1  0
 12 13  1  0
 13 14  1  0
 14 15  1  0
 16 10  1  0
 17 16  2  0
 18 19  1  0
 20 19  1  6
 20 21  1  0
 21 16  1  0
 22 20  1  0
 22 23  1  0
 24 22  2  0
M  END
$$$$
