IKS.pdb
     RDKit          3D

 24 23  0  0  1  0  0  0  0  0999 V2000
   24.6239  -13.1753  -18.5210 C   0  0  0  0  0  0  0  0  0  0  0  0
   24.6315  -12.3065  -17.3087 C   0  0  0  0  0  0  0  0  0  0  0  0
   23.5227  -11.2784  -17.3067 C   0  0  2  0  0  0  0  0  0  0  0  0
   23.6537  -10.4469  -18.5647 C   0  0  0  0  0  0  0  0  0  0  0  0
   23.6262  -10.3444  -16.1230 C   0  0  2  0  0  0  0  0  0  0  0  0
   23.6653  -11.0842  -14.8699 N   0  0  0  0  0  0  0  0  0  0  0  0
   22.4591   -9.4263  -16.1430 C   0  0  0  0  0  0  0  0  0  0  0  0
   22.2568   -8.6726  -17.1237 O   0  0  0  0  0  0  0  0  0  0  0  0
   21.5618   -9.3779  -15.0779 N   0  0  0  0  0  0  0  0  0  0  0  0
   20.3973   -8.4697  -15.0027 C   0  0  1  0  0  0  0  0  0  0  0  0
   19.2442   -9.2046  -14.4091 C   0  0  0  0  0  0  0  0  0  0  0  0
   18.5392  -10.0564  -15.4085 C   0  0  0  0  0  0  0  0  0  0  0  0
   17.3393   -9.3441  -16.0200 C   0  0  0  0  0  0  0  0  0  0  0  0
   16.7096  -10.2969  -17.0368 C   0  0  0  0  0  0  0  0  0  0  0  0
   15.7020   -9.6266  -17.8159 N   0  0  0  0  0  0  0  0  0  0  0  0
   20.8845   -7.3124  -14.2499 C   0  0  0  0  0  0  0  0  0  0  0  0
   21.7459   -7.4896  -13.3523 O   0  0  0  0  0  0  0  0  0  0  0  0
   23.4748   -3.9489  -14.3477 O   0  0  0  0  0  0  0  0  0  0  0  0
   22.6303   -5.0147  -14.6613 C   0  0  0  0  0  0  0  0  0  0  0  0
   21.2951   -4.8711  -13.9975 C   0  0  2  0  0  0  0  0  0  0  0  0
   20.4567   -5.9934  -14.4632 N   0  0  0  0  0  0  0  0  0  0  0  0
   20.6358   -3.6010  -14.3036 C   0  0  0  0  0  0  0  0  0  0  0  0
   20.8139   -2.4500  -13.5505 O   0  0  0  0  0  0  0  0  0  0  0  0
   19.8653   -3.5254  -15.2933 O   0  0  0  0  0  0  0  0  0  0  0  0
  1  2  1  0
  3  4  1  6
  3  2  1  0
  5  6  1  1
  5  3  1  0
  7  5  1  0
  8  7  2  0
  9  7  1  0
 10  9  1  0
 10 11  1  1
 11 12  1  0
 12 13  1  0
 13 14  1  0
 14 15  1  0
 16 10  1  0
 17 16  2  0
 18 19  1  0
 20 19  1  6
 20 21  1  0
 21 16  1  0
 22 20  1  0
 22 23  1  0
 24 22  2  0
M  END
$$$$
