IKS.pdb
     RDKit          3D

 24 23  0  0  1  0  0  0  0  0999 V2000
   20.8226  -28.7863  -11.2865 C   0  0  0  0  0  0  0  0  0  0  0  0
   19.7884  -27.7136  -11.2204 C   0  0  0  0  0  0  0  0  0  0  0  0
   19.5821  -27.1715   -9.8241 C   0  0  2  0  0  0  0  0  0  0  0  0
   19.1565  -28.3199   -8.9347 C   0  0  0  0  0  0  0  0  0  0  0  0
   18.4904  -26.1271   -9.7837 C   0  0  2  0  0  0  0  0  0  0  0  0
   18.7677  -25.0389  -10.7099 N   0  0  0  0  0  0  0  0  0  0  0  0
   18.3848  -25.6083   -8.3962 C   0  0  0  0  0  0  0  0  0  0  0  0
   19.2305  -24.7968   -7.9523 O   0  0  0  0  0  0  0  0  0  0  0  0
   17.3485  -26.0073   -7.5544 N   0  0  0  0  0  0  0  0  0  0  0  0
   17.1144  -25.4673   -6.1978 C   0  0  1  0  0  0  0  0  0  0  0  0
   15.7647  -24.8362   -6.1512 C   0  0  0  0  0  0  0  0  0  0  0  0
   15.4526  -24.2631   -4.8112 C   0  0  0  0  0  0  0  0  0  0  0  0
   14.1398  -23.4900   -4.8131 C   0  0  0  0  0  0  0  0  0  0  0  0
   13.9151  -22.9642   -3.3950 C   0  0  0  0  0  0  0  0  0  0  0  0
   12.7493  -22.1222   -3.3362 N   0  0  0  0  0  0  0  0  0  0  0  0
   17.3260  -26.6105   -5.3080 C   0  0  0  0  0  0  0  0  0  0  0  0
   16.9417  -27.7483   -5.6778 O   0  0  0  0  0  0  0  0  0  0  0  0
   19.3272  -28.5514   -1.3476 O   0  0  0  0  0  0  0  0  0  0  0  0
   19.1351  -27.4618   -2.1980 C   0  0  0  0  0  0  0  0  0  0  0  0
   18.0893  -27.7493   -3.2314 C   0  0  2  0  0  0  0  0  0  0  0  0
   17.9423  -26.5298   -4.0502 N   0  0  0  0  0  0  0  0  0  0  0  0
   16.7960  -28.1152   -2.6525 C   0  0  0  0  0  0  0  0  0  0  0  0
   16.3911  -29.4280   -2.4625 O   0  0  0  0  0  0  0  0  0  0  0  0
   15.9957  -27.2118   -2.3025 O   0  0  0  0  0  0  0  0  0  0  0  0
  1  2  1  0
  3  4  1  1
  3  2  1  0
  5  6  1  6
  5  3  1  0
  7  5  1  0
  8  7  2  0
  9  7  1  0
 10  9  1  0
 10 11  1  6
 11 12  1  0
 12 13  1  0
 13 14  1  0
 14 15  1  0
 16 10  1  0
 17 16  2  0
 18 19  1  0
 20 19  1  1
 20 21  1  0
 21 16  1  0
 22 20  1  0
 22 23  1  0
 24 22  2  0
M  END
$$$$
