IKS.pdb
     RDKit          3D

 24 23  0  0  1  0  0  0  0  0999 V2000
   24.6143  -32.1181   -5.9973 C   0  0  0  0  0  0  0  0  0  0  0  0
   25.8135  -32.6470   -6.7091 C   0  0  0  0  0  0  0  0  0  0  0  0
   26.5671  -33.6880   -5.9124 C   0  0  2  0  0  0  0  0  0  0  0  0
   26.9153  -33.0862   -4.5680 C   0  0  0  0  0  0  0  0  0  0  0  0
   27.8588  -34.0852   -6.5891 C   0  0  2  0  0  0  0  0  0  0  0  0
   27.6066  -34.7246   -7.8722 N   0  0  0  0  0  0  0  0  0  0  0  0
   28.5979  -35.0078   -5.6902 C   0  0  0  0  0  0  0  0  0  0  0  0
   28.1467  -36.1492   -5.4364 O   0  0  0  0  0  0  0  0  0  0  0  0
   29.8067  -34.6319   -5.1076 N   0  0  0  0  0  0  0  0  0  0  0  0
   30.6204  -35.4999   -4.2294 C   0  0  1  0  0  0  0  0  0  0  0  0
   32.0635  -35.1954   -4.4457 C   0  0  0  0  0  0  0  0  0  0  0  0
   32.9251  -36.4036   -4.3073 C   0  0  0  0  0  0  0  0  0  0  0  0
   34.3846  -36.1029   -4.6243 C   0  0  0  0  0  0  0  0  0  0  0  0
   35.1663  -37.4077   -4.4673 C   0  0  0  0  0  0  0  0  0  0  0  0
   36.5171  -37.2594   -4.9413 N   0  0  0  0  0  0  0  0  0  0  0  0
   30.1001  -35.2489   -2.8841 C   0  0  0  0  0  0  0  0  0  0  0  0
   29.8340  -34.0684   -2.5454 O   0  0  0  0  0  0  0  0  0  0  0  0
   27.6873  -36.4411    0.9330 O   0  0  0  0  0  0  0  0  0  0  0  0
   28.5379  -36.9302   -0.0592 C   0  0  0  0  0  0  0  0  0  0  0  0
   29.4683  -35.8673   -0.5581 C   0  0  2  0  0  0  0  0  0  0  0  0
   29.8672  -36.2483   -1.9274 N   0  0  0  0  0  0  0  0  0  0  0  0
   30.6589  -35.7084    0.2778 C   0  0  0  0  0  0  0  0  0  0  0  0
   31.9452  -35.9646   -0.1730 O   0  0  0  0  0  0  0  0  0  0  0  0
   30.5343  -35.3216    1.4669 O   0  0  0  0  0  0  0  0  0  0  0  0
  1  2  1  0
  3  4  1  1
  3  2  1  0
  5  6  1  6
  5  3  1  0
  7  5  1  0
  8  7  2  0
  9  7  1  0
 10  9  1  0
 10 11  1  1
 11 12  1  0
 12 13  1  0
 13 14  1  0
 14 15  1  0
 16 10  1  0
 17 16  2  0
 18 19  1  0
 20 19  1  1
 20 21  1  0
 21 16  1  0
 22 20  1  0
 22 23  1  0
 24 22  2  0
M  END
$$$$
