IKS.pdb
     RDKit          3D

 24 23  0  0  1  0  0  0  0  0999 V2000
   19.0173  -13.6004  -16.7630 C   0  0  0  0  0  0  0  0  0  0  0  0
   18.1563  -13.6147  -15.5452 C   0  0  0  0  0  0  0  0  0  0  0  0
   17.2834  -12.3865  -15.4195 C   0  0  2  0  0  0  0  0  0  0  0  0
   18.1876  -11.1740  -15.3627 C   0  0  0  0  0  0  0  0  0  0  0  0
   16.4620  -12.4098  -14.1510 C   0  0  2  0  0  0  0  0  0  0  0  0
   15.6366  -13.6067  -14.0797 N   0  0  0  0  0  0  0  0  0  0  0  0
   15.6100  -11.1938  -14.1182 C   0  0  0  0  0  0  0  0  0  0  0  0
   14.7264  -11.0101  -14.9877 O   0  0  0  0  0  0  0  0  0  0  0  0
   15.7689  -10.2291  -13.1253 N   0  0  0  0  0  0  0  0  0  0  0  0
   14.9716   -8.9876  -13.0266 C   0  0  1  0  0  0  0  0  0  0  0  0
   14.2735   -8.9606  -11.7098 C   0  0  0  0  0  0  0  0  0  0  0  0
   13.0056   -9.7441  -11.7237 C   0  0  0  0  0  0  0  0  0  0  0  0
   12.2368   -9.6086  -10.4155 C   0  0  0  0  0  0  0  0  0  0  0  0
   11.0071  -10.5125  -10.5104 C   0  0  0  0  0  0  0  0  0  0  0  0
   10.3283  -10.5939   -9.2439 N   0  0  0  0  0  0  0  0  0  0  0  0
   15.9362   -7.9136  -13.2704 C   0  0  0  0  0  0  0  0  0  0  0  0
   17.1585   -8.1409  -13.0876 O   0  0  0  0  0  0  0  0  0  0  0  0
   18.7979   -6.4345  -14.8247 O   0  0  0  0  0  0  0  0  0  0  0  0
   17.4528   -6.3099  -15.1751 C   0  0  0  0  0  0  0  0  0  0  0  0
   16.6563   -5.6727  -14.0780 C   0  0  2  0  0  0  0  0  0  0  0  0
   15.5915   -6.6253  -13.7061 N   0  0  0  0  0  0  0  0  0  0  0  0
   16.0615   -4.3941  -14.4689 C   0  0  0  0  0  0  0  0  0  0  0  0
   16.7167   -3.1785  -14.3395 O   0  0  0  0  0  0  0  0  0  0  0  0
   14.9002   -4.3715  -14.9482 O   0  0  0  0  0  0  0  0  0  0  0  0
  1  2  1  0
  3  4  1  1
  3  2  1  0
  5  6  1  6
  5  3  1  0
  7  5  1  0
  8  7  2  0
  9  7  1  0
 10  9  1  0
 10 11  1  1
 11 12  1  0
 12 13  1  0
 13 14  1  0
 14 15  1  0
 16 10  1  0
 17 16  2  0
 18 19  1  0
 20 19  1  6
 20 21  1  0
 21 16  1  0
 22 20  1  0
 22 23  1  0
 24 22  2  0
M  END
$$$$
