IKS.pdb
     RDKit          3D

 24 23  0  0  1  0  0  0  0  0999 V2000
   15.5047   -9.3601  -18.7318 C   0  0  0  0  0  0  0  0  0  0  0  0
   16.6172  -10.3085  -18.4363 C   0  0  0  0  0  0  0  0  0  0  0  0
   17.6756   -9.7203  -17.5307 C   0  0  2  0  0  0  0  0  0  0  0  0
   18.3454   -8.5830  -18.2714 C   0  0  0  0  0  0  0  0  0  0  0  0
   18.7405  -10.7341  -17.1806 C   0  0  2  0  0  0  0  0  0  0  0  0
   18.1571  -11.9263  -16.5831 N   0  0  0  0  0  0  0  0  0  0  0  0
   19.7010  -10.1035  -16.2397 C   0  0  0  0  0  0  0  0  0  0  0  0
   19.3442   -9.7864  -15.0809 O   0  0  0  0  0  0  0  0  0  0  0  0
   21.0179   -9.8486  -16.6172 N   0  0  0  0  0  0  0  0  0  0  0  0
   22.0497   -9.2744  -15.7270 C   0  0  1  0  0  0  0  0  0  0  0  0
   23.3941   -9.7291  -16.1830 C   0  0  0  0  0  0  0  0  0  0  0  0
   23.7273  -11.0962  -15.6916 C   0  0  0  0  0  0  0  0  0  0  0  0
   25.1099  -11.5451  -16.1477 C   0  0  0  0  0  0  0  0  0  0  0  0
   25.3387  -12.9541  -15.5994 C   0  0  0  0  0  0  0  0  0  0  0  0
   26.6108  -13.4735  -16.0277 N   0  0  0  0  0  0  0  0  0  0  0  0
   21.8056   -7.8315  -15.7680 C   0  0  0  0  0  0  0  0  0  0  0  0
   21.7623   -7.2535  -16.8830 O   0  0  0  0  0  0  0  0  0  0  0  0
   19.4240   -5.7950  -13.4330 O   0  0  0  0  0  0  0  0  0  0  0  0
   19.9045   -5.3515  -14.6658 C   0  0  0  0  0  0  0  0  0  0  0  0
   21.3792   -5.5811  -14.7953 C   0  0  2  0  0  0  0  0  0  0  0  0
   21.6079   -7.0305  -14.6332 N   0  0  0  0  0  0  0  0  0  0  0  0
   22.1640   -4.8429  -13.8050 C   0  0  0  0  0  0  0  0  0  0  0  0
   22.2351   -3.4582  -13.7687 O   0  0  0  0  0  0  0  0  0  0  0  0
   22.8142   -5.4736  -12.9341 O   0  0  0  0  0  0  0  0  0  0  0  0
  1  2  1  0
  3  4  1  6
  3  2  1  0
  5  6  1  1
  5  3  1  0
  7  5  1  0
  8  7  2  0
  9  7  1  0
 10  9  1  0
 10 11  1  6
 11 12  1  0
 12 13  1  0
 13 14  1  0
 14 15  1  0
 16 10  1  0
 17 16  2  0
 18 19  1  0
 20 19  1  1
 20 21  1  0
 21 16  1  0
 22 20  1  0
 22 23  1  0
 24 22  2  0
M  END
$$$$
