IKS.pdb
     RDKit          3D

 24 23  0  0  1  0  0  0  0  0999 V2000
   27.2759  -15.2713  -15.5103 C   0  0  0  0  0  0  0  0  0  0  0  0
   25.8212  -15.5786  -15.6274 C   0  0  0  0  0  0  0  0  0  0  0  0
   24.9870  -14.3744  -16.0016 C   0  0  2  0  0  0  0  0  0  0  0  0
   25.0688  -13.3775  -14.8657 C   0  0  0  0  0  0  0  0  0  0  0  0
   23.5325  -14.7375  -16.1935 C   0  0  2  0  0  0  0  0  0  0  0  0
   23.3815  -15.8149  -17.1606 N   0  0  0  0  0  0  0  0  0  0  0  0
   22.8007  -13.5287  -16.6505 C   0  0  0  0  0  0  0  0  0  0  0  0
   23.0044  -13.0530  -17.7919 O   0  0  0  0  0  0  0  0  0  0  0  0
   21.8728  -12.8938  -15.8273 N   0  0  0  0  0  0  0  0  0  0  0  0
   21.0284  -11.7520  -16.2397 C   0  0  1  0  0  0  0  0  0  0  0  0
   19.6509  -11.9465  -15.7041 C   0  0  0  0  0  0  0  0  0  0  0  0
   18.8328  -12.8528  -16.5588 C   0  0  0  0  0  0  0  0  0  0  0  0
   17.4257  -13.0420  -16.0061 C   0  0  0  0  0  0  0  0  0  0  0  0
   16.6513  -13.9002  -17.0071 C   0  0  0  0  0  0  0  0  0  0  0  0
   15.3815  -14.3057  -16.4644 N   0  0  0  0  0  0  0  0  0  0  0  0
   21.7496  -10.5720  -15.7591 C   0  0  0  0  0  0  0  0  0  0  0  0
   22.4861  -10.6799  -14.7467 O   0  0  0  0  0  0  0  0  0  0  0  0
   23.4796   -7.8702  -17.9870 O   0  0  0  0  0  0  0  0  0  0  0  0
   23.7575   -8.1521  -16.6488 C   0  0  0  0  0  0  0  0  0  0  0  0
   22.5062   -8.2024  -15.8268 C   0  0  2  0  0  0  0  0  0  0  0  0
   21.6821   -9.3055  -16.3590 N   0  0  0  0  0  0  0  0  0  0  0  0
   21.7444   -6.9534  -15.8643 C   0  0  0  0  0  0  0  0  0  0  0  0
   22.1911   -5.7718  -15.2918 O   0  0  0  0  0  0  0  0  0  0  0  0
   20.6270   -6.9260  -16.4385 O   0  0  0  0  0  0  0  0  0  0  0  0
  1  2  1  0
  3  4  1  1
  3  2  1  0
  5  6  1  6
  5  3  1  0
  7  5  1  0
  8  7  2  0
  9  7  1  0
 10  9  1  0
 10 11  1  1
 11 12  1  0
 12 13  1  0
 13 14  1  0
 14 15  1  0
 16 10  1  0
 17 16  2  0
 18 19  1  0
 20 19  1  6
 20 21  1  0
 21 16  1  0
 22 20  1  0
 22 23  1  0
 24 22  2  0
M  END
$$$$
