IKS.pdb
     RDKit          3D

 24 23  0  0  1  0  0  0  0  0999 V2000
   23.4241  -20.3704   -7.4719 C   0  0  0  0  0  0  0  0  0  0  0  0
   24.6164  -20.9037   -8.1921 C   0  0  0  0  0  0  0  0  0  0  0  0
   24.6692  -20.4874   -9.6448 C   0  0  2  0  0  0  0  0  0  0  0  0
   23.4092  -20.9848  -10.3199 C   0  0  0  0  0  0  0  0  0  0  0  0
   25.8501  -21.1010  -10.3613 C   0  0  2  0  0  0  0  0  0  0  0  0
   27.1068  -20.6957   -9.7487 N   0  0  0  0  0  0  0  0  0  0  0  0
   25.8104  -20.6778  -11.7842 C   0  0  0  0  0  0  0  0  0  0  0  0
   26.1082  -19.5047  -12.1096 O   0  0  0  0  0  0  0  0  0  0  0  0
   25.4431  -21.5683  -12.7911 N   0  0  0  0  0  0  0  0  0  0  0  0
   25.4798  -21.2612  -14.2371 C   0  0  1  0  0  0  0  0  0  0  0  0
   25.8373  -22.4980  -14.9887 C   0  0  0  0  0  0  0  0  0  0  0  0
   25.8352  -22.2858  -16.4639 C   0  0  0  0  0  0  0  0  0  0  0  0
   27.2240  -21.9528  -16.9944 C   0  0  0  0  0  0  0  0  0  0  0  0
   27.0905  -21.6873  -18.4943 C   0  0  0  0  0  0  0  0  0  0  0  0
   28.3545  -21.3006  -19.0638 N   0  0  0  0  0  0  0  0  0  0  0  0
   24.1632  -20.6878  -14.5223 C   0  0  0  0  0  0  0  0  0  0  0  0
   23.1704  -21.0867  -13.8632 O   0  0  0  0  0  0  0  0  0  0  0  0
   21.4762  -17.1967  -16.5123 O   0  0  0  0  0  0  0  0  0  0  0  0
   22.7125  -17.8176  -16.3297 C   0  0  0  0  0  0  0  0  0  0  0  0
   22.5671  -19.1376  -15.6365 C   0  0  2  0  0  0  0  0  0  0  0  0
   23.9230  -19.7033  -15.4925 N   0  0  0  0  0  0  0  0  0  0  0  0
   21.7140  -20.0774  -16.3650 C   0  0  0  0  0  0  0  0  0  0  0  0
   20.3663  -20.2536  -16.0886 O   0  0  0  0  0  0  0  0  0  0  0  0
   22.2049  -20.7701  -17.2913 O   0  0  0  0  0  0  0  0  0  0  0  0
  1  2  1  0
  3  4  1  6
  3  2  1  0
  5  6  1  1
  5  3  1  0
  7  5  1  0
  8  7  2  0
  9  7  1  0
 10  9  1  0
 10 11  1  6
 11 12  1  0
 12 13  1  0
 13 14  1  0
 14 15  1  0
 16 10  1  0
 17 16  2  0
 18 19  1  0
 20 19  1  6
 20 21  1  0
 21 16  1  0
 22 20  1  0
 22 23  1  0
 24 22  2  0
M  END
$$$$
