IKS.pdb
     RDKit          3D

 24 23  0  0  1  0  0  0  0  0999 V2000
   28.2629  -19.2485   -6.4585 C   0  0  0  0  0  0  0  0  0  0  0  0
   26.8316  -19.5236   -6.7753 C   0  0  0  0  0  0  0  0  0  0  0  0
   26.6325  -20.1397   -8.1417 C   0  0  2  0  0  0  0  0  0  0  0  0
   27.2437  -19.2096   -9.1675 C   0  0  0  0  0  0  0  0  0  0  0  0
   25.1674  -20.2984   -8.4772 C   0  0  2  0  0  0  0  0  0  0  0  0
   24.4831  -21.1078   -7.4795 N   0  0  0  0  0  0  0  0  0  0  0  0
   25.0559  -20.9291   -9.8170 C   0  0  0  0  0  0  0  0  0  0  0  0
   25.5916  -22.0386  -10.0466 O   0  0  0  0  0  0  0  0  0  0  0  0
   24.3565  -20.3081  -10.8500 N   0  0  0  0  0  0  0  0  0  0  0  0
   24.2045  -20.8628  -12.2123 C   0  0  1  0  0  0  0  0  0  0  0  0
   22.8358  -20.5524  -12.7146 C   0  0  0  0  0  0  0  0  0  0  0  0
   22.6240  -21.0243  -14.1124 C   0  0  0  0  0  0  0  0  0  0  0  0
   22.7081  -22.5416  -14.2212 C   0  0  0  0  0  0  0  0  0  0  0  0
   22.5079  -22.9077  -15.6923 C   0  0  0  0  0  0  0  0  0  0  0  0
   22.7003  -24.3184  -15.9031 N   0  0  0  0  0  0  0  0  0  0  0  0
   25.3180  -20.2860  -12.9679 C   0  0  0  0  0  0  0  0  0  0  0  0
   25.6065  -19.0750  -12.7966 O   0  0  0  0  0  0  0  0  0  0  0  0
   28.1086  -22.4571  -15.1718 O   0  0  0  0  0  0  0  0  0  0  0  0
   28.3935  -21.2476  -14.5367 C   0  0  0  0  0  0  0  0  0  0  0  0
   27.2191  -20.3182  -14.5732 C   0  0  2  0  0  0  0  0  0  0  0  0
   26.1057  -20.9996  -13.8837 N   0  0  0  0  0  0  0  0  0  0  0  0
   26.8134  -19.9594  -15.9326 C   0  0  0  0  0  0  0  0  0  0  0  0
   27.6624  -19.3504  -16.8447 O   0  0  0  0  0  0  0  0  0  0  0  0
   25.6420  -20.2056  -16.3152 O   0  0  0  0  0  0  0  0  0  0  0  0
  1  2  1  0
  3  4  1  6
  3  2  1  0
  5  6  1  1
  5  3  1  0
  7  5  1  0
  8  7  2  0
  9  7  1  0
 10  9  1  0
 10 11  1  6
 11 12  1  0
 12 13  1  0
 13 14  1  0
 14 15  1  0
 16 10  1  0
 17 16  2  0
 18 19  1  0
 20 19  1  6
 20 21  1  0
 21 16  1  0
 22 20  1  0
 22 23  1  0
 24 22  2  0
M  END
$$$$
