IKS.pdb
     RDKit          3D

 24 23  0  0  1  0  0  0  0  0999 V2000
   26.9276  -17.0007  -17.2620 C   0  0  0  0  0  0  0  0  0  0  0  0
   26.3155  -16.3222  -16.0832 C   0  0  0  0  0  0  0  0  0  0  0  0
   25.4191  -15.1649  -16.4621 C   0  0  2  0  0  0  0  0  0  0  0  0
   26.2566  -14.1501  -17.2101 C   0  0  0  0  0  0  0  0  0  0  0  0
   24.8426  -14.4802  -15.2443 C   0  0  2  0  0  0  0  0  0  0  0  0
   24.3524  -15.4508  -14.2766 N   0  0  0  0  0  0  0  0  0  0  0  0
   23.7396  -13.5877  -15.6828 C   0  0  0  0  0  0  0  0  0  0  0  0
   23.9522  -12.6684  -16.5076 O   0  0  0  0  0  0  0  0  0  0  0  0
   22.4452  -13.7469  -15.1919 N   0  0  0  0  0  0  0  0  0  0  0  0
   21.2910  -12.9089  -15.5821 C   0  0  1  0  0  0  0  0  0  0  0  0
   20.0305  -13.6131  -15.2112 C   0  0  0  0  0  0  0  0  0  0  0  0
   18.8172  -12.9016  -15.7041 C   0  0  0  0  0  0  0  0  0  0  0  0
   17.5324  -13.5700  -15.2314 C   0  0  0  0  0  0  0  0  0  0  0  0
   16.3632  -12.8196  -15.8700 C   0  0  0  0  0  0  0  0  0  0  0  0
   15.1035  -13.3212  -15.3872 N   0  0  0  0  0  0  0  0  0  0  0  0
   21.5330  -11.6241  -14.9234 C   0  0  0  0  0  0  0  0  0  0  0  0
   22.3857  -11.5640  -14.0023 O   0  0  0  0  0  0  0  0  0  0  0  0
   23.3851   -7.8015  -14.9435 O   0  0  0  0  0  0  0  0  0  0  0  0
   22.7990   -9.0110  -15.3189 C   0  0  0  0  0  0  0  0  0  0  0  0
   21.4121   -9.1434  -14.7685 C   0  0  2  0  0  0  0  0  0  0  0  0
   20.8744  -10.4300  -15.2533 N   0  0  0  0  0  0  0  0  0  0  0  0
   20.5263   -8.0522  -15.1762 C   0  0  0  0  0  0  0  0  0  0  0  0
   19.5027   -8.2070  -16.0992 O   0  0  0  0  0  0  0  0  0  0  0  0
   20.6819   -6.9089  -14.6786 O   0  0  0  0  0  0  0  0  0  0  0  0
  1  2  1  0
  3  4  1  1
  3  2  1  0
  5  6  1  1
  5  3  1  0
  7  5  1  0
  8  7  2  0
  9  7  1  0
 10  9  1  0
 10 11  1  1
 11 12  1  0
 12 13  1  0
 13 14  1  0
 14 15  1  0
 16 10  1  0
 17 16  2  0
 18 19  1  0
 20 19  1  6
 20 21  1  0
 21 16  1  0
 22 20  1  0
 22 23  1  0
 24 22  2  0
M  END
$$$$
