IKS.pdb
     RDKit          3D

 24 23  0  0  1  0  0  0  0  0999 V2000
   28.6040  -11.4037  -16.7488 C   0  0  0  0  0  0  0  0  0  0  0  0
   27.3218  -11.9181  -16.1870 C   0  0  0  0  0  0  0  0  0  0  0  0
   26.1530  -10.9887  -16.4245 C   0  0  2  0  0  0  0  0  0  0  0  0
   26.4374   -9.6868  -15.7069 C   0  0  0  0  0  0  0  0  0  0  0  0
   24.8663  -11.5521  -15.8665 C   0  0  2  0  0  0  0  0  0  0  0  0
   24.6161  -12.8943  -16.3712 N   0  0  0  0  0  0  0  0  0  0  0  0
   23.7521  -10.6446  -16.2416 C   0  0  0  0  0  0  0  0  0  0  0  0
   23.3737  -10.5575  -17.4332 O   0  0  0  0  0  0  0  0  0  0  0  0
   23.1005   -9.8694  -15.2844 N   0  0  0  0  0  0  0  0  0  0  0  0
   21.9052   -9.0400  -15.5486 C   0  0  1  0  0  0  0  0  0  0  0  0
   20.7710   -9.5431  -14.7222 C   0  0  0  0  0  0  0  0  0  0  0  0
   19.5898   -9.9195  -15.5494 C   0  0  0  0  0  0  0  0  0  0  0  0
   19.8909  -11.0929  -16.4734 C   0  0  0  0  0  0  0  0  0  0  0  0
   18.6652  -11.3021  -17.3633 C   0  0  0  0  0  0  0  0  0  0  0  0
   17.6603  -12.0759  -16.6829 N   0  0  0  0  0  0  0  0  0  0  0  0
   22.3446   -7.6696  -15.2794 C   0  0  0  0  0  0  0  0  0  0  0  0
   22.9030   -7.4143  -14.1830 O   0  0  0  0  0  0  0  0  0  0  0  0
   23.2672   -3.1817  -16.8533 O   0  0  0  0  0  0  0  0  0  0  0  0
   22.7115   -4.4436  -17.0687 C   0  0  0  0  0  0  0  0  0  0  0  0
   22.7268   -5.2709  -15.8199 C   0  0  2  0  0  0  0  0  0  0  0  0
   22.1901   -6.5998  -16.1738 N   0  0  0  0  0  0  0  0  0  0  0  0
   21.9331   -4.6894  -14.7367 C   0  0  0  0  0  0  0  0  0  0  0  0
   20.5492   -4.7638  -14.6824 O   0  0  0  0  0  0  0  0  0  0  0  0
   22.5124   -4.0878  -13.7978 O   0  0  0  0  0  0  0  0  0  0  0  0
  1  2  1  0
  3  4  1  1
  3  2  1  0
  5  6  1  6
  5  3  1  0
  7  5  1  0
  8  7  2  0
  9  7  1  0
 10  9  1  0
 10 11  1  1
 11 12  1  0
 12 13  1  0
 13 14  1  0
 14 15  1  0
 16 10  1  0
 17 16  2  0
 18 19  1  0
 20 19  1  6
 20 21  1  0
 21 16  1  0
 22 20  1  0
 22 23  1  0
 24 22  2  0
M  END
$$$$
