IKS.pdb
     RDKit          3D

 24 23  0  0  1  0  0  0  0  0999 V2000
   11.8005  -11.1709   -9.1349 C   0  0  0  0  0  0  0  0  0  0  0  0
   12.8634  -11.2952  -10.1737 C   0  0  0  0  0  0  0  0  0  0  0  0
   13.9610  -10.2656  -10.0279 C   0  0  2  0  0  0  0  0  0  0  0  0
   13.3352   -8.8935  -10.1567 C   0  0  0  0  0  0  0  0  0  0  0  0
   15.0045  -10.4008  -11.1130 C   0  0  2  0  0  0  0  0  0  0  0  0
   15.6671  -11.6953  -11.0484 N   0  0  0  0  0  0  0  0  0  0  0  0
   15.9955   -9.3063  -10.9536 C   0  0  0  0  0  0  0  0  0  0  0  0
   16.8228   -9.3266  -10.0124 O   0  0  0  0  0  0  0  0  0  0  0  0
   16.0325   -8.2327  -11.8411 N   0  0  0  0  0  0  0  0  0  0  0  0
   17.0082   -7.1235  -11.7758 C   0  0  1  0  0  0  0  0  0  0  0  0
   17.5561   -6.8759  -13.1399 C   0  0  0  0  0  0  0  0  0  0  0  0
   18.6483   -7.8263  -13.4936 C   0  0  0  0  0  0  0  0  0  0  0  0
   18.6235   -8.1999  -14.9704 C   0  0  0  0  0  0  0  0  0  0  0  0
   19.7963   -9.1478  -15.2234 C   0  0  0  0  0  0  0  0  0  0  0  0
   19.9184   -9.4541  -16.6244 N   0  0  0  0  0  0  0  0  0  0  0  0
   16.2655   -6.0190  -11.1658 C   0  0  0  0  0  0  0  0  0  0  0  0
   15.0737   -5.8229  -11.5125 O   0  0  0  0  0  0  0  0  0  0  0  0
   15.1407   -3.1042   -7.6744 O   0  0  0  0  0  0  0  0  0  0  0  0
   15.8005   -4.1932   -8.2457 C   0  0  0  0  0  0  0  0  0  0  0  0
   15.9824   -4.0125   -9.7216 C   0  0  2  0  0  0  0  0  0  0  0  0
   16.7940   -5.1488  -10.2006 N   0  0  0  0  0  0  0  0  0  0  0  0
   16.6416   -2.7529  -10.0685 C   0  0  0  0  0  0  0  0  0  0  0  0
   16.0009   -1.5233  -10.0326 O   0  0  0  0  0  0  0  0  0  0  0  0
   17.8481   -2.7609  -10.4195 O   0  0  0  0  0  0  0  0  0  0  0  0
  1  2  1  0
  3  4  1  6
  3  2  1  0
  5  6  1  1
  5  3  1  0
  7  5  1  0
  8  7  2  0
  9  7  1  0
 10  9  1  0
 10 11  1  6
 11 12  1  0
 12 13  1  0
 13 14  1  0
 14 15  1  0
 16 10  1  0
 17 16  2  0
 18 19  1  0
 20 19  1  1
 20 21  1  0
 21 16  1  0
 22 20  1  0
 22 23  1  0
 24 22  2  0
M  END
$$$$
