IKS.pdb
     RDKit          3D

 24 23  0  0  1  0  0  0  0  0999 V2000
   18.2435  -30.8192    3.9423 C   0  0  0  0  0  0  0  0  0  0  0  0
   18.9649  -29.7824    4.7355 C   0  0  0  0  0  0  0  0  0  0  0  0
   20.4452  -29.7252    4.4331 C   0  0  2  0  0  0  0  0  0  0  0  0
   21.0598  -31.0428    4.8538 C   0  0  0  0  0  0  0  0  0  0  0  0
   21.1339  -28.6259    5.2086 C   0  0  2  0  0  0  0  0  0  0  0  0
   20.6219  -27.3159    4.8334 N   0  0  0  0  0  0  0  0  0  0  0  0
   22.5930  -28.7041    4.9432 C   0  0  0  0  0  0  0  0  0  0  0  0
   23.0733  -28.2488    3.8790 O   0  0  0  0  0  0  0  0  0  0  0  0
   23.4632  -29.2826    5.8651 N   0  0  0  0  0  0  0  0  0  0  0  0
   24.9319  -29.3486    5.7054 C   0  0  1  0  0  0  0  0  0  0  0  0
   25.5797  -28.9279    6.9803 C   0  0  0  0  0  0  0  0  0  0  0  0
   27.0673  -28.9294    6.8882 C   0  0  0  0  0  0  0  0  0  0  0  0
   27.7185  -28.4112    8.1643 C   0  0  0  0  0  0  0  0  0  0  0  0
   29.2278  -28.3667    7.9235 C   0  0  0  0  0  0  0  0  0  0  0  0
   29.9109  -27.7720    9.0421 N   0  0  0  0  0  0  0  0  0  0  0  0
   25.1906  -30.7222    5.2699 C   0  0  0  0  0  0  0  0  0  0  0  0
   24.2353  -31.5376    5.2298 O   0  0  0  0  0  0  0  0  0  0  0  0
   25.7550  -33.6413    2.2573 O   0  0  0  0  0  0  0  0  0  0  0  0
   25.6923  -32.4539    2.9877 C   0  0  0  0  0  0  0  0  0  0  0  0
   26.5525  -32.5164    4.2125 C   0  0  2  0  0  0  0  0  0  0  0  0
   26.4496  -31.2046    4.8817 N   0  0  0  0  0  0  0  0  0  0  0  0
   27.9546  -32.8108    3.9144 C   0  0  0  0  0  0  0  0  0  0  0  0
   28.4343  -34.0947    3.7016 O   0  0  0  0  0  0  0  0  0  0  0  0
   28.7839  -31.8695    3.8426 O   0  0  0  0  0  0  0  0  0  0  0  0
  1  2  1  0
  3  4  1  1
  3  2  1  0
  5  6  1  6
  5  3  1  0
  7  5  1  0
  8  7  2  0
  9  7  1  0
 10  9  1  0
 10 11  1  1
 11 12  1  0
 12 13  1  0
 13 14  1  0
 14 15  1  0
 16 10  1  0
 17 16  2  0
 18 19  1  0
 20 19  1  6
 20 21  1  0
 21 16  1  0
 22 20  1  0
 22 23  1  0
 24 22  2  0
M  END
$$$$
