QWA.pdb
     RDKit          3D

 29 30  0  0  1  0  0  0  0  0999 V2000
   28.9726  -18.3721  -15.0048 N   0  0  0  0  0  0  0  0  0  0  0  0
   29.2968  -19.3192  -16.0080 C   0  0  0  0  0  0  0  0  0  0  0  0
   29.8169  -18.9417  -17.0775 O   0  0  0  0  0  0  0  0  0  0  0  0
   29.0084  -20.7474  -15.7619 C   0  0  0  0  0  0  0  0  0  0  0  0
   28.5591  -20.9229  -14.3491 C   0  0  0  0  0  0  0  0  0  0  0  0
   27.0455  -20.9353  -14.2425 C   0  0  2  0  0  0  0  0  0  0  0  0
   26.4820  -19.6542  -14.5790 N   0  0  0  0  0  0  0  0  0  0  0  0
   26.5651  -21.4282  -12.9470 C   0  0  0  0  0  0  0  0  0  0  0  0
   26.6930  -22.6385  -12.6243 O   0  0  0  0  0  0  0  0  0  0  0  0
   25.9362  -20.5525  -12.0093 N   0  0  0  0  0  0  0  0  0  0  0  0
   25.3324  -21.0388  -10.7884 C   0  0  1  0  0  0  0  0  0  0  0  0
   25.7725  -20.2258   -9.5899 C   0  0  0  0  0  0  0  0  0  0  0  0
   27.1174  -20.5917   -9.1009 C   0  0  0  0  0  0  0  0  0  0  0  0
   28.0162  -21.3657   -9.7970 C   0  0  0  0  0  0  0  0  0  0  0  0
   29.1285  -21.4822   -9.0398 N   0  0  0  0  0  0  0  0  0  0  0  0
   28.9730  -20.8070   -7.8782 C   0  0  0  0  0  0  0  0  0  0  0  0
   29.7895  -20.6098   -6.7793 C   0  0  0  0  0  0  0  0  0  0  0  0
   29.3884  -19.8590   -5.6892 C   0  0  0  0  0  0  0  0  0  0  0  0
   28.1193  -19.3031   -5.7388 C   0  0  0  0  0  0  0  0  0  0  0  0
   27.2851  -19.4823   -6.8187 C   0  0  0  0  0  0  0  0  0  0  0  0
   27.6980  -20.2355   -7.9033 C   0  0  0  0  0  0  0  0  0  0  0  0
   23.8525  -20.8290  -10.9149 C   0  0  0  0  0  0  0  0  0  0  0  0
   23.0806  -20.8987   -9.9117 O   0  0  0  0  0  0  0  0  0  0  0  0
   21.5406  -19.2500  -13.3969 C   0  0  0  0  0  0  0  0  0  0  0  0
   21.8238  -20.2086  -12.2716 C   0  0  2  0  0  0  0  0  0  0  0  0
   23.2355  -20.5411  -12.1646 N   0  0  0  0  0  0  0  0  0  0  0  0
   20.9892  -21.4248  -12.4037 C   0  0  0  0  0  0  0  0  0  0  0  0
   19.7081  -21.3876  -11.8745 O   0  0  0  0  0  0  0  0  0  0  0  0
   21.3696  -22.4849  -12.9640 O   0  0  0  0  0  0  0  0  0  0  0  0
  1  2  1  0
  2  3  2  0
  4  5  1  0
  4  2  1  0
  5  6  1  0
  6  7  1  1
  8  6  1  0
  9  8  2  0
 10  8  1  0
 11 10  1  0
 12 13  1  0
 11 12  1  1
 13 21  1  0
 13 14  2  0
 14 15  1  0
 16 15  1  0
 16 17  2  0
 18 17  1  0
 19 18  2  0
 20 19  1  0
 20 21  2  0
 21 16  1  0
 22 26  1  0
 22 11  1  0
 23 22  2  0
 25 24  1  6
 25 26  1  0
 25 27  1  0
 27 28  1  0
 29 27  2  0
M  END
$$$$
