QWA.pdb
     RDKit          3D

 29 30  0  0  1  0  0  0  0  0999 V2000
   30.5785  -24.0627  -16.1179 N   0  0  0  0  0  0  0  0  0  0  0  0
   30.1172  -23.3101  -17.2266 C   0  0  0  0  0  0  0  0  0  0  0  0
   30.8048  -23.2449  -18.2656 O   0  0  0  0  0  0  0  0  0  0  0  0
   28.8186  -22.6125  -17.1257 C   0  0  0  0  0  0  0  0  0  0  0  0
   28.2602  -22.8067  -15.7548 C   0  0  0  0  0  0  0  0  0  0  0  0
   27.6325  -21.5320  -15.2224 C   0  0  2  0  0  0  0  0  0  0  0  0
   28.5769  -20.4458  -15.2049 N   0  0  0  0  0  0  0  0  0  0  0  0
   26.9748  -21.7146  -13.9237 C   0  0  0  0  0  0  0  0  0  0  0  0
   26.2252  -22.7030  -13.7084 O   0  0  0  0  0  0  0  0  0  0  0  0
   27.1625  -20.7778  -12.8613 N   0  0  0  0  0  0  0  0  0  0  0  0
   26.5442  -20.9511  -11.5653 C   0  0  1  0  0  0  0  0  0  0  0  0
   27.2916  -20.1941  -10.4886 C   0  0  0  0  0  0  0  0  0  0  0  0
   26.6875  -20.3406   -9.1487 C   0  0  0  0  0  0  0  0  0  0  0  0
   25.4031  -20.7736   -8.9156 C   0  0  0  0  0  0  0  0  0  0  0  0
   25.2100  -20.7812   -7.5789 N   0  0  0  0  0  0  0  0  0  0  0  0
   26.3305  -20.3664   -6.9449 C   0  0  0  0  0  0  0  0  0  0  0  0
   26.6577  -20.1950   -5.6120 C   0  0  0  0  0  0  0  0  0  0  0  0
   27.9035  -19.7475   -5.2112 C   0  0  0  0  0  0  0  0  0  0  0  0
   28.8261  -19.4729   -6.2090 C   0  0  0  0  0  0  0  0  0  0  0  0
   28.5288  -19.6341   -7.5430 C   0  0  0  0  0  0  0  0  0  0  0  0
   27.2789  -20.0826   -7.9313 C   0  0  0  0  0  0  0  0  0  0  0  0
   25.1803  -20.3311  -11.6416 C   0  0  0  0  0  0  0  0  0  0  0  0
   25.0225  -19.0867  -11.8253 O   0  0  0  0  0  0  0  0  0  0  0  0
   21.9523  -21.2934  -12.8767 C   0  0  0  0  0  0  0  0  0  0  0  0
   22.6758  -20.5494  -11.7865 C   0  0  2  0  0  0  0  0  0  0  0  0
   23.9921  -21.1037  -11.5125 N   0  0  0  0  0  0  0  0  0  0  0  0
   21.8470  -20.4901  -10.5607 C   0  0  0  0  0  0  0  0  0  0  0  0
   20.7514  -19.6403  -10.5644 O   0  0  0  0  0  0  0  0  0  0  0  0
   22.0750  -21.1605   -9.5209 O   0  0  0  0  0  0  0  0  0  0  0  0
  1  2  1  0
  2  3  2  0
  4  5  1  0
  4  2  1  0
  5  6  1  0
  6  7  1  1
  8  6  1  0
  9  8  2  0
 10  8  1  0
 11 10  1  0
 12 13  1  0
 11 12  1  1
 13 21  1  0
 13 14  2  0
 14 15  1  0
 16 15  1  0
 16 17  2  0
 18 17  1  0
 19 18  2  0
 20 19  1  0
 20 21  2  0
 21 16  1  0
 22 26  1  0
 22 11  1  0
 23 22  2  0
 25 24  1  6
 25 26  1  0
 25 27  1  0
 27 28  1  0
 29 27  2  0
M  END
$$$$
