QWA.pdb
     RDKit          3D

 29 30  0  0  1  0  0  0  0  0999 V2000
   26.1871  -20.9053  -17.2817 N   0  0  0  0  0  0  0  0  0  0  0  0
   26.1307  -19.5117  -17.0306 C   0  0  0  0  0  0  0  0  0  0  0  0
   26.4427  -18.7031  -17.9283 O   0  0  0  0  0  0  0  0  0  0  0  0
   25.6988  -19.0429  -15.6976 C   0  0  0  0  0  0  0  0  0  0  0  0
   25.3626  -20.2220  -14.8458 C   0  0  0  0  0  0  0  0  0  0  0  0
   26.5171  -20.6012  -13.9372 C   0  0  2  0  0  0  0  0  0  0  0  0
   27.3478  -21.6142  -14.5338 N   0  0  0  0  0  0  0  0  0  0  0  0
   26.0864  -20.9655  -12.5829 C   0  0  0  0  0  0  0  0  0  0  0  0
   25.2846  -21.9169  -12.3900 O   0  0  0  0  0  0  0  0  0  0  0  0
   26.5613  -20.2533  -11.4389 N   0  0  0  0  0  0  0  0  0  0  0  0
   26.2115  -20.6430  -10.0907 C   0  0  1  0  0  0  0  0  0  0  0  0
   27.0324  -19.8908   -9.0654 C   0  0  0  0  0  0  0  0  0  0  0  0
   26.8081  -20.3602   -7.6829 C   0  0  0  0  0  0  0  0  0  0  0  0
   25.9205  -21.3496   -7.3298 C   0  0  0  0  0  0  0  0  0  0  0  0
   25.9928  -21.5053   -5.9902 N   0  0  0  0  0  0  0  0  0  0  0  0
   26.8994  -20.6466   -5.4706 C   0  0  0  0  0  0  0  0  0  0  0  0
   27.3457  -20.4023   -4.1844 C   0  0  0  0  0  0  0  0  0  0  0  0
   28.3058  -19.4460   -3.9073 C   0  0  0  0  0  0  0  0  0  0  0  0
   28.8120  -18.7306   -4.9816 C   0  0  0  0  0  0  0  0  0  0  0  0
   28.3871  -18.9520   -6.2717 C   0  0  0  0  0  0  0  0  0  0  0  0
   27.4260  -19.9116   -6.5361 C   0  0  0  0  0  0  0  0  0  0  0  0
   24.7863  -20.2308   -9.8689 C   0  0  0  0  0  0  0  0  0  0  0  0
   24.4321  -19.0138   -9.8943 O   0  0  0  0  0  0  0  0  0  0  0  0
   21.5088  -21.2233  -10.6201 C   0  0  0  0  0  0  0  0  0  0  0  0
   22.3649  -20.7889   -9.4609 C   0  0  2  0  0  0  0  0  0  0  0  0
   23.7566  -21.1806   -9.6183 N   0  0  0  0  0  0  0  0  0  0  0  0
   21.8026  -21.2879   -8.1850 C   0  0  0  0  0  0  0  0  0  0  0  0
   20.5998  -20.7475   -7.7561 O   0  0  0  0  0  0  0  0  0  0  0  0
   22.3468  -22.1680   -7.4697 O   0  0  0  0  0  0  0  0  0  0  0  0
  1  2  1  0
  2  3  2  0
  4  5  1  0
  4  2  1  0
  5  6  1  0
  6  7  1  6
  8  6  1  0
  9  8  2  0
 10  8  1  0
 11 10  1  0
 12 13  1  0
 11 12  1  1
 13 21  1  0
 13 14  2  0
 14 15  1  0
 16 15  1  0
 16 17  2  0
 18 17  1  0
 19 18  2  0
 20 19  1  0
 20 21  2  0
 21 16  1  0
 22 26  1  0
 22 11  1  0
 23 22  2  0
 25 24  1  6
 25 26  1  0
 25 27  1  0
 27 28  1  0
 29 27  2  0
M  END
$$$$
