QWA.pdb
     RDKit          3D

 29 30  0  0  1  0  0  0  0  0999 V2000
   27.4465  -22.2618  -17.8811 N   0  0  0  0  0  0  0  0  0  0  0  0
   28.6665  -21.5578  -17.7253 C   0  0  0  0  0  0  0  0  0  0  0  0
   29.3360  -21.2404  -18.7291 O   0  0  0  0  0  0  0  0  0  0  0  0
   29.1227  -21.2120  -16.3630 C   0  0  0  0  0  0  0  0  0  0  0  0
   28.1916  -21.8148  -15.3639 C   0  0  0  0  0  0  0  0  0  0  0  0
   27.3791  -20.7526  -14.6467 C   0  0  2  0  0  0  0  0  0  0  0  0
   28.0784  -19.4954  -14.5995 N   0  0  0  0  0  0  0  0  0  0  0  0
   26.9184  -21.1798  -13.3209 C   0  0  0  0  0  0  0  0  0  0  0  0
   26.3260  -22.2793  -13.1621 O   0  0  0  0  0  0  0  0  0  0  0  0
   27.1257  -20.3629  -12.1671 N   0  0  0  0  0  0  0  0  0  0  0  0
   26.5587  -20.6943  -10.8785 C   0  0  1  0  0  0  0  0  0  0  0  0
   27.1850  -19.8758   -9.7700 C   0  0  0  0  0  0  0  0  0  0  0  0
   26.7573  -20.2997   -8.4212 C   0  0  0  0  0  0  0  0  0  0  0  0
   25.6329  -21.0468   -8.1587 C   0  0  0  0  0  0  0  0  0  0  0  0
   25.5716  -21.2388   -6.8232 N   0  0  0  0  0  0  0  0  0  0  0  0
   26.6220  -20.6383   -6.2185 C   0  0  0  0  0  0  0  0  0  0  0  0
   27.0239  -20.5337   -4.8993 C   0  0  0  0  0  0  0  0  0  0  0  0
   28.1666  -19.8476   -4.5297 C   0  0  0  0  0  0  0  0  0  0  0  0
   28.9054  -19.2599   -5.5450 C   0  0  0  0  0  0  0  0  0  0  0  0
   28.5301  -19.3475   -6.8662 C   0  0  0  0  0  0  0  0  0  0  0  0
   27.3848  -20.0368   -7.2231 C   0  0  0  0  0  0  0  0  0  0  0  0
   25.1112  -20.3026  -10.9204 C   0  0  0  0  0  0  0  0  0  0  0  0
   24.7457  -19.0908  -10.8493 O   0  0  0  0  0  0  0  0  0  0  0  0
   21.9773  -21.9133  -12.1613 C   0  0  0  0  0  0  0  0  0  0  0  0
   22.6959  -20.8900  -11.3235 C   0  0  2  0  0  0  0  0  0  0  0  0
   24.0719  -21.2672  -11.0418 N   0  0  0  0  0  0  0  0  0  0  0  0
   21.9428  -20.6180  -10.0777 C   0  0  0  0  0  0  0  0  0  0  0  0
   20.7161  -19.9819  -10.1925 O   0  0  0  0  0  0  0  0  0  0  0  0
   22.3460  -20.9272   -8.9270 O   0  0  0  0  0  0  0  0  0  0  0  0
  1  2  1  0
  2  3  2  0
  4  5  1  0
  4  2  1  0
  5  6  1  0
  6  7  1  1
  8  6  1  0
  9  8  2  0
 10  8  1  0
 11 10  1  0
 12 13  1  0
 11 12  1  1
 13 21  1  0
 13 14  2  0
 14 15  1  0
 16 15  1  0
 16 17  2  0
 18 17  1  0
 19 18  2  0
 20 19  1  0
 20 21  2  0
 21 16  1  0
 22 26  1  0
 22 11  1  0
 23 22  2  0
 25 24  1  1
 25 26  1  0
 25 27  1  0
 27 28  1  0
 29 27  2  0
M  END
$$$$
