QWA.pdb
     RDKit          3D

 29 30  0  0  1  0  0  0  0  0999 V2000
   22.7882  -20.1684  -17.4628 N   0  0  0  0  0  0  0  0  0  0  0  0
   23.3211  -18.9088  -17.8339 C   0  0  0  0  0  0  0  0  0  0  0  0
   22.8396  -17.8622  -17.3548 O   0  0  0  0  0  0  0  0  0  0  0  0
   24.4468  -18.8631  -18.7900 C   0  0  0  0  0  0  0  0  0  0  0  0
   25.3156  -20.0598  -18.5855 C   0  0  0  0  0  0  0  0  0  0  0  0
   26.5764  -19.7092  -17.8174 C   0  0  2  0  0  0  0  0  0  0  0  0
   27.7582  -19.9599  -18.6000 N   0  0  0  0  0  0  0  0  0  0  0  0
   26.6409  -20.3469  -16.4977 C   0  0  0  0  0  0  0  0  0  0  0  0
   26.4668  -21.5869  -16.3661 O   0  0  0  0  0  0  0  0  0  0  0  0
   26.9026  -19.5829  -15.3190 N   0  0  0  0  0  0  0  0  0  0  0  0
   26.9433  -20.1860  -14.0051 C   0  0  1  0  0  0  0  0  0  0  0  0
   27.9101  -19.4625  -13.0925 C   0  0  0  0  0  0  0  0  0  0  0  0
   28.1737  -20.1871  -11.8326 C   0  0  0  0  0  0  0  0  0  0  0  0
   29.0276  -21.2586  -11.7134 C   0  0  0  0  0  0  0  0  0  0  0  0
   29.0128  -21.6521  -10.4215 N   0  0  0  0  0  0  0  0  0  0  0  0
   28.1756  -20.8668   -9.7059 C   0  0  0  0  0  0  0  0  0  0  0  0
   27.8053  -20.8422   -8.3735 C   0  0  0  0  0  0  0  0  0  0  0  0
   26.9081  -19.9148   -7.8755 C   0  0  0  0  0  0  0  0  0  0  0  0
   26.3859  -18.9971   -8.7739 C   0  0  0  0  0  0  0  0  0  0  0  0
   26.7359  -18.9974  -10.1048 C   0  0  0  0  0  0  0  0  0  0  0  0
   27.6346  -19.9303  -10.5909 C   0  0  0  0  0  0  0  0  0  0  0  0
   25.5833  -20.0096  -13.3971 C   0  0  0  0  0  0  0  0  0  0  0  0
   25.0253  -18.8732  -13.3290 O   0  0  0  0  0  0  0  0  0  0  0  0
   22.4638  -21.7112  -12.9696 C   0  0  0  0  0  0  0  0  0  0  0  0
   23.5372  -20.9335  -12.2566 C   0  0  2  0  0  0  0  0  0  0  0  0
   24.8470  -21.1050  -12.8649 N   0  0  0  0  0  0  0  0  0  0  0  0
   23.5591  -21.2797  -10.8168 C   0  0  0  0  0  0  0  0  0  0  0  0
   24.6938  -21.9041  -10.3216 O   0  0  0  0  0  0  0  0  0  0  0  0
   22.6155  -21.0432  -10.0192 O   0  0  0  0  0  0  0  0  0  0  0  0
  1  2  1  0
  2  3  2  0
  4  5  1  0
  4  2  1  0
  5  6  1  0
  6  7  1  6
  8  6  1  0
  9  8  2  0
 10  8  1  0
 11 10  1  0
 12 13  1  0
 11 12  1  1
 13 21  1  0
 13 14  2  0
 14 15  1  0
 16 15  1  0
 16 17  2  0
 18 17  1  0
 19 18  2  0
 20 19  1  0
 20 21  2  0
 21 16  1  0
 22 26  1  0
 22 11  1  0
 23 22  2  0
 25 24  1  6
 25 26  1  0
 25 27  1  0
 27 28  1  0
 29 27  2  0
M  END
$$$$
