QWA.pdb
     RDKit          3D

 29 30  0  0  1  0  0  0  0  0999 V2000
   23.3172  -16.0877  -17.2499 N   0  0  0  0  0  0  0  0  0  0  0  0
   22.8591  -16.8808  -18.3314 C   0  0  0  0  0  0  0  0  0  0  0  0
   22.5825  -16.3457  -19.4240 O   0  0  0  0  0  0  0  0  0  0  0  0
   22.7181  -18.3390  -18.1384 C   0  0  0  0  0  0  0  0  0  0  0  0
   23.1977  -18.7037  -16.7725 C   0  0  0  0  0  0  0  0  0  0  0  0
   24.6753  -19.0488  -16.7736 C   0  0  2  0  0  0  0  0  0  0  0  0
   25.0751  -19.6539  -18.0170 N   0  0  0  0  0  0  0  0  0  0  0  0
   25.0788  -19.8503  -15.6130 C   0  0  0  0  0  0  0  0  0  0  0  0
   24.9462  -21.1022  -15.6103 O   0  0  0  0  0  0  0  0  0  0  0  0
   25.6347  -19.2374  -14.4481 N   0  0  0  0  0  0  0  0  0  0  0  0
   25.9672  -19.9979  -13.2636 C   0  0  1  0  0  0  0  0  0  0  0  0
   26.9649  -19.2628  -12.3946 C   0  0  0  0  0  0  0  0  0  0  0  0
   27.5490  -20.1104  -11.3352 C   0  0  0  0  0  0  0  0  0  0  0  0
   28.2782  -21.2537  -11.5648 C   0  0  0  0  0  0  0  0  0  0  0  0
   28.6459  -21.7526  -10.3648 N   0  0  0  0  0  0  0  0  0  0  0  0
   28.1757  -20.9656   -9.3703 C   0  0  0  0  0  0  0  0  0  0  0  0
   28.2663  -21.0241   -7.9914 C   0  0  0  0  0  0  0  0  0  0  0  0
   27.6834  -20.0726   -7.1741 C   0  0  0  0  0  0  0  0  0  0  0  0
   26.9948  -19.0429   -7.7966 C   0  0  0  0  0  0  0  0  0  0  0  0
   26.8881  -18.9588   -9.1661 C   0  0  0  0  0  0  0  0  0  0  0  0
   27.4757  -19.9169   -9.9731 C   0  0  0  0  0  0  0  0  0  0  0  0
   24.7126  -20.1171  -12.4501 C   0  0  0  0  0  0  0  0  0  0  0  0
   23.9494  -19.1245  -12.2515 O   0  0  0  0  0  0  0  0  0  0  0  0
   23.3409  -20.4742   -9.7717 C   0  0  0  0  0  0  0  0  0  0  0  0
   23.1987  -21.4303  -10.9253 C   0  0  2  0  0  0  0  0  0  0  0  0
   24.3113  -21.3476  -11.8582 N   0  0  0  0  0  0  0  0  0  0  0  0
   21.9013  -21.2277  -11.6101 C   0  0  0  0  0  0  0  0  0  0  0  0
   21.9259  -20.9593  -12.9703 O   0  0  0  0  0  0  0  0  0  0  0  0
   20.7834  -21.2837  -11.0361 O   0  0  0  0  0  0  0  0  0  0  0  0
  1  2  1  0
  2  3  2  0
  4  5  1  0
  4  2  1  0
  5  6  1  0
  6  7  1  6
  8  6  1  0
  9  8  2  0
 10  8  1  0
 11 10  1  0
 12 13  1  0
 11 12  1  1
 13 21  1  0
 13 14  2  0
 14 15  1  0
 16 15  1  0
 16 17  2  0
 18 17  1  0
 19 18  2  0
 20 19  1  0
 20 21  2  0
 21 16  1  0
 22 26  1  0
 22 11  1  0
 23 22  2  0
 25 24  1  1
 25 26  1  0
 25 27  1  0
 27 28  1  0
 29 27  2  0
M  END
$$$$
