QWA.pdb
     RDKit          3D

 29 30  0  0  1  0  0  0  0  0999 V2000
   27.1575  -19.4361  -15.9658 N   0  0  0  0  0  0  0  0  0  0  0  0
   28.2809  -18.6495  -15.6084 C   0  0  0  0  0  0  0  0  0  0  0  0
   28.8235  -17.9146  -16.4583 O   0  0  0  0  0  0  0  0  0  0  0  0
   28.7893  -18.7183  -14.2227 C   0  0  0  0  0  0  0  0  0  0  0  0
   27.9030  -19.6090  -13.4165 C   0  0  0  0  0  0  0  0  0  0  0  0
   28.6150  -20.1382  -12.1855 C   0  0  2  0  0  0  0  0  0  0  0  0
   29.7831  -20.9018  -12.5386 N   0  0  0  0  0  0  0  0  0  0  0  0
   27.7259  -20.8738  -11.2795 C   0  0  0  0  0  0  0  0  0  0  0  0
   27.8020  -22.1257  -11.1692 O   0  0  0  0  0  0  0  0  0  0  0  0
   26.7447  -20.1949  -10.4935 N   0  0  0  0  0  0  0  0  0  0  0  0
   25.6000  -20.8792   -9.9338 C   0  0  1  0  0  0  0  0  0  0  0  0
   25.1584  -20.2473   -8.6313 C   0  0  0  0  0  0  0  0  0  0  0  0
   26.2826  -19.7269   -7.8267 C   0  0  0  0  0  0  0  0  0  0  0  0
   26.8861  -18.5075   -8.0273 C   0  0  0  0  0  0  0  0  0  0  0  0
   27.8642  -18.3782   -7.1050 N   0  0  0  0  0  0  0  0  0  0  0  0
   27.9085  -19.4769   -6.3173 C   0  0  0  0  0  0  0  0  0  0  0  0
   28.7038  -19.8451   -5.2472 C   0  0  0  0  0  0  0  0  0  0  0  0
   28.5457  -21.0539   -4.5939 C   0  0  0  0  0  0  0  0  0  0  0  0
   27.5463  -21.8955   -5.0575 C   0  0  0  0  0  0  0  0  0  0  0  0
   26.7399  -21.5558   -6.1197 C   0  0  0  0  0  0  0  0  0  0  0  0
   26.9079  -20.3435   -6.7651 C   0  0  0  0  0  0  0  0  0  0  0  0
   24.4630  -20.6940  -10.8946 C   0  0  0  0  0  0  0  0  0  0  0  0
   24.1541  -19.5521  -11.3506 O   0  0  0  0  0  0  0  0  0  0  0  0
   22.2091  -22.8904  -12.9900 C   0  0  0  0  0  0  0  0  0  0  0  0
   22.5750  -21.6116  -12.2856 C   0  0  2  0  0  0  0  0  0  0  0  0
   23.6708  -21.7869  -11.3457 N   0  0  0  0  0  0  0  0  0  0  0  0
   21.3858  -21.0231  -11.6277 C   0  0  0  0  0  0  0  0  0  0  0  0
   21.4202  -20.8732  -10.2497 O   0  0  0  0  0  0  0  0  0  0  0  0
   20.3511  -20.6527  -12.2397 O   0  0  0  0  0  0  0  0  0  0  0  0
  1  2  1  0
  2  3  2  0
  4  5  1  0
  4  2  1  0
  5  6  1  0
  6  7  1  6
  8  6  1  0
  9  8  2  0
 10  8  1  0
 11 10  1  0
 12 13  1  0
 11 12  1  1
 13 21  1  0
 13 14  2  0
 14 15  1  0
 16 15  1  0
 16 17  2  0
 18 17  1  0
 19 18  2  0
 20 19  1  0
 20 21  2  0
 21 16  1  0
 22 26  1  0
 22 11  1  0
 23 22  2  0
 25 24  1  1
 25 26  1  0
 25 27  1  0
 27 28  1  0
 29 27  2  0
M  END
$$$$
