QWA.pdb
     RDKit          3D

 29 30  0  0  1  0  0  0  0  0999 V2000
   26.9454  -17.4917  -15.2839 N   0  0  0  0  0  0  0  0  0  0  0  0
   27.4051  -18.8156  -15.4947 C   0  0  0  0  0  0  0  0  0  0  0  0
   26.8228  -19.5550  -16.3137 O   0  0  0  0  0  0  0  0  0  0  0  0
   28.5761  -19.2951  -14.7316 C   0  0  0  0  0  0  0  0  0  0  0  0
   28.3602  -19.0280  -13.2787 C   0  0  0  0  0  0  0  0  0  0  0  0
   28.7018  -20.2399  -12.4319 C   0  0  2  0  0  0  0  0  0  0  0  0
   29.3924  -21.2428  -13.1997 N   0  0  0  0  0  0  0  0  0  0  0  0
   27.5421  -20.7887  -11.7204 C   0  0  0  0  0  0  0  0  0  0  0  0
   27.0530  -21.9044  -12.0386 O   0  0  0  0  0  0  0  0  0  0  0  0
   26.9294  -20.0761  -10.6442 N   0  0  0  0  0  0  0  0  0  0  0  0
   25.7661  -20.5828   -9.9502 C   0  0  1  0  0  0  0  0  0  0  0  0
   25.4205  -19.7282   -8.7497 C   0  0  0  0  0  0  0  0  0  0  0  0
   26.5901  -19.4121   -7.9047 C   0  0  0  0  0  0  0  0  0  0  0  0
   27.3981  -18.3118   -8.0717 C   0  0  0  0  0  0  0  0  0  0  0  0
   28.3536  -18.3571   -7.1183 N   0  0  0  0  0  0  0  0  0  0  0  0
   28.1852  -19.4526   -6.3431 C   0  0  0  0  0  0  0  0  0  0  0  0
   28.8713  -19.9581   -5.2537 C   0  0  0  0  0  0  0  0  0  0  0  0
   28.4892  -21.1267   -4.6203 C   0  0  0  0  0  0  0  0  0  0  0  0
   27.3769  -21.7829   -5.1247 C   0  0  0  0  0  0  0  0  0  0  0  0
   26.6747  -21.3037   -6.2070 C   0  0  0  0  0  0  0  0  0  0  0  0
   27.0669  -20.1333   -6.8320 C   0  0  0  0  0  0  0  0  0  0  0  0
   24.6054  -20.4670  -10.8935 C   0  0  0  0  0  0  0  0  0  0  0  0
   24.6374  -19.6956  -11.8991 O   0  0  0  0  0  0  0  0  0  0  0  0
   22.3793  -22.1316  -12.7510 C   0  0  0  0  0  0  0  0  0  0  0  0
   22.2908  -21.1222  -11.6381 C   0  0  2  0  0  0  0  0  0  0  0  0
   23.4081  -21.2145  -10.7118 N   0  0  0  0  0  0  0  0  0  0  0  0
   20.9928  -21.2381  -10.9346 C   0  0  0  0  0  0  0  0  0  0  0  0
   21.0178  -21.5527   -9.5844 O   0  0  0  0  0  0  0  0  0  0  0  0
   19.8740  -21.0694  -11.4844 O   0  0  0  0  0  0  0  0  0  0  0  0
  1  2  1  0
  2  3  2  0
  4  5  1  0
  4  2  1  0
  5  6  1  0
  6  7  1  6
  8  6  1  0
  9  8  2  0
 10  8  1  0
 11 10  1  0
 12 13  1  0
 11 12  1  1
 13 21  1  0
 13 14  2  0
 14 15  1  0
 16 15  1  0
 16 17  2  0
 18 17  1  0
 19 18  2  0
 20 19  1  0
 20 21  2  0
 21 16  1  0
 22 26  1  0
 22 11  1  0
 23 22  2  0
 25 24  1  6
 25 26  1  0
 25 27  1  0
 27 28  1  0
 29 27  2  0
M  END
$$$$
