QWA.pdb
     RDKit          3D

 29 30  0  0  1  0  0  0  0  0999 V2000
   28.1814  -18.0373  -16.6609 N   0  0  0  0  0  0  0  0  0  0  0  0
   28.8679  -18.5397  -17.7944 C   0  0  0  0  0  0  0  0  0  0  0  0
   29.7796  -17.8689  -18.3194 O   0  0  0  0  0  0  0  0  0  0  0  0
   28.4844  -19.8606  -18.3343 C   0  0  0  0  0  0  0  0  0  0  0  0
   27.4264  -20.4588  -17.4675 C   0  0  0  0  0  0  0  0  0  0  0  0
   28.0197  -21.1107  -16.2323 C   0  0  2  0  0  0  0  0  0  0  0  0
   28.8742  -22.2163  -16.5777 N   0  0  0  0  0  0  0  0  0  0  0  0
   27.0080  -21.4828  -15.2372 C   0  0  0  0  0  0  0  0  0  0  0  0
   26.5406  -22.6510  -15.1915 O   0  0  0  0  0  0  0  0  0  0  0  0
   26.5195  -20.5330  -14.2881 N   0  0  0  0  0  0  0  0  0  0  0  0
   25.5971  -20.9014  -13.2367 C   0  0  1  0  0  0  0  0  0  0  0  0
   25.6157  -19.8962  -12.1053 C   0  0  0  0  0  0  0  0  0  0  0  0
   26.3930  -20.3521  -10.9349 C   0  0  0  0  0  0  0  0  0  0  0  0
   25.8647  -20.5657   -9.6832 C   0  0  0  0  0  0  0  0  0  0  0  0
   26.8694  -20.9766   -8.8796 N   0  0  0  0  0  0  0  0  0  0  0  0
   28.0276  -21.0341   -9.5756 C   0  0  0  0  0  0  0  0  0  0  0  0
   29.3216  -21.3853   -9.2362 C   0  0  0  0  0  0  0  0  0  0  0  0
   30.3562  -21.3607  -10.1539 C   0  0  0  0  0  0  0  0  0  0  0  0
   30.0442  -20.9654  -11.4455 C   0  0  0  0  0  0  0  0  0  0  0  0
   28.7661  -20.6105  -11.8122 C   0  0  0  0  0  0  0  0  0  0  0  0
   27.7396  -20.6392  -10.8849 C   0  0  0  0  0  0  0  0  0  0  0  0
   24.2171  -20.8460  -13.8222 C   0  0  0  0  0  0  0  0  0  0  0  0
   23.9027  -19.9976  -14.7103 O   0  0  0  0  0  0  0  0  0  0  0  0
   21.5262  -22.8855  -14.8227 C   0  0  0  0  0  0  0  0  0  0  0  0
   21.8474  -21.6840  -13.9750 C   0  0  2  0  0  0  0  0  0  0  0  0
   23.1879  -21.7401  -13.4139 N   0  0  0  0  0  0  0  0  0  0  0  0
   20.8249  -21.5062  -12.9185 C   0  0  0  0  0  0  0  0  0  0  0  0
   19.5310  -21.2083  -13.3179 O   0  0  0  0  0  0  0  0  0  0  0  0
   21.0573  -21.6085  -11.6864 O   0  0  0  0  0  0  0  0  0  0  0  0
  1  2  1  0
  2  3  2  0
  4  5  1  0
  4  2  1  0
  5  6  1  0
  6  7  1  6
  8  6  1  0
  9  8  2  0
 10  8  1  0
 11 10  1  0
 12 13  1  0
 11 12  1  1
 13 21  1  0
 13 14  2  0
 14 15  1  0
 16 15  1  0
 16 17  2  0
 18 17  1  0
 19 18  2  0
 20 19  1  0
 20 21  2  0
 21 16  1  0
 22 26  1  0
 22 11  1  0
 23 22  2  0
 25 24  1  1
 25 26  1  0
 25 27  1  0
 27 28  1  0
 29 27  2  0
M  END
$$$$
