QWA.pdb
     RDKit          3D

 29 30  0  0  1  0  0  0  0  0999 V2000
   21.4494   -9.4109  -22.5084 N   0  0  0  0  0  0  0  0  0  0  0  0
   21.2281  -10.8030  -22.6552 C   0  0  0  0  0  0  0  0  0  0  0  0
   21.0705  -11.2931  -23.7917 O   0  0  0  0  0  0  0  0  0  0  0  0
   21.1888  -11.6513  -21.4460 C   0  0  0  0  0  0  0  0  0  0  0  0
   21.2711  -10.7846  -20.2333 C   0  0  0  0  0  0  0  0  0  0  0  0
   22.6994  -10.6520  -19.7383 C   0  0  2  0  0  0  0  0  0  0  0  0
   23.2850  -11.9382  -19.4650 N   0  0  0  0  0  0  0  0  0  0  0  0
   22.8307   -9.7316  -18.6034 C   0  0  0  0  0  0  0  0  0  0  0  0
   22.6474  -10.1265  -17.4221 O   0  0  0  0  0  0  0  0  0  0  0  0
   23.1702   -8.3577  -18.8006 N   0  0  0  0  0  0  0  0  0  0  0  0
   23.2091   -7.4109  -17.7081 C   0  0  1  0  0  0  0  0  0  0  0  0
   24.5114   -6.6397  -17.6886 C   0  0  0  0  0  0  0  0  0  0  0  0
   25.6783   -7.4775  -17.3447 C   0  0  0  0  0  0  0  0  0  0  0  0
   26.8603   -7.4943  -18.0475 C   0  0  0  0  0  0  0  0  0  0  0  0
   27.6862   -8.3724  -17.4386 N   0  0  0  0  0  0  0  0  0  0  0  0
   27.0720   -8.9210  -16.3657 C   0  0  0  0  0  0  0  0  0  0  0  0
   27.4644   -9.8530  -15.4221 C   0  0  0  0  0  0  0  0  0  0  0  0
   26.6302  -10.2584  -14.3960 C   0  0  0  0  0  0  0  0  0  0  0  0
   25.3675   -9.6879  -14.3471 C   0  0  0  0  0  0  0  0  0  0  0  0
   24.9497   -8.7583  -15.2719 C   0  0  0  0  0  0  0  0  0  0  0  0
   25.7937   -8.3609  -16.2938 C   0  0  0  0  0  0  0  0  0  0  0  0
   22.1293   -6.4010  -17.9618 C   0  0  0  0  0  0  0  0  0  0  0  0
   21.9611   -5.8768  -19.1039 O   0  0  0  0  0  0  0  0  0  0  0  0
   18.9153   -5.8446  -17.7436 C   0  0  0  0  0  0  0  0  0  0  0  0
   20.1090   -5.1001  -17.2087 C   0  0  2  0  0  0  0  0  0  0  0  0
   21.2370   -5.9769  -16.9374 N   0  0  0  0  0  0  0  0  0  0  0  0
   19.7353   -4.3121  -16.0118 C   0  0  0  0  0  0  0  0  0  0  0  0
   19.1345   -3.0789  -16.2142 O   0  0  0  0  0  0  0  0  0  0  0  0
   19.9286   -4.6912  -14.8280 O   0  0  0  0  0  0  0  0  0  0  0  0
  1  2  1  0
  2  3  2  0
  4  5  1  0
  4  2  1  0
  5  6  1  0
  6  7  1  1
  8  6  1  0
  9  8  2  0
 10  8  1  0
 11 10  1  0
 12 13  1  0
 11 12  1  6
 13 21  1  0
 13 14  2  0
 14 15  1  0
 16 15  1  0
 16 17  2  0
 18 17  1  0
 19 18  2  0
 20 19  1  0
 20 21  2  0
 21 16  1  0
 22 26  1  0
 22 11  1  0
 23 22  2  0
 25 24  1  1
 25 26  1  0
 25 27  1  0
 27 28  1  0
 29 27  2  0
M  END
$$$$
