QWA.pdb
     RDKit          3D

 29 30  0  0  1  0  0  0  0  0999 V2000
   24.3298  -19.7945  -18.3126 N   0  0  0  0  0  0  0  0  0  0  0  0
   25.3588  -20.3825  -19.0897 C   0  0  0  0  0  0  0  0  0  0  0  0
   25.6619  -19.8926  -20.1965 O   0  0  0  0  0  0  0  0  0  0  0  0
   26.0568  -21.5749  -18.5659 C   0  0  0  0  0  0  0  0  0  0  0  0
   25.5479  -21.8815  -17.1963 C   0  0  0  0  0  0  0  0  0  0  0  0
   26.6327  -21.7164  -16.1482 C   0  0  2  0  0  0  0  0  0  0  0  0
   27.7459  -22.5943  -16.3977 N   0  0  0  0  0  0  0  0  0  0  0  0
   26.1286  -21.8381  -14.7758 C   0  0  0  0  0  0  0  0  0  0  0  0
   25.0305  -22.4048  -14.5349 O   0  0  0  0  0  0  0  0  0  0  0  0
   26.8659  -21.3175  -13.6681 N   0  0  0  0  0  0  0  0  0  0  0  0
   26.3497  -21.3502  -12.3175 C   0  0  1  0  0  0  0  0  0  0  0  0
   27.3591  -20.8146  -11.3249 C   0  0  0  0  0  0  0  0  0  0  0  0
   26.8084  -20.6561   -9.9634 C   0  0  0  0  0  0  0  0  0  0  0  0
   25.4820  -20.8131   -9.6358 C   0  0  0  0  0  0  0  0  0  0  0  0
   25.3594  -20.5939   -8.3088 N   0  0  0  0  0  0  0  0  0  0  0  0
   26.5661  -20.3006   -7.7726 C   0  0  0  0  0  0  0  0  0  0  0  0
   26.9862  -20.0012   -6.4893 C   0  0  0  0  0  0  0  0  0  0  0  0
   28.3098  -19.7321   -6.1917 C   0  0  0  0  0  0  0  0  0  0  0  0
   29.2135  -19.7739   -7.2422 C   0  0  0  0  0  0  0  0  0  0  0  0
   28.8246  -20.0689   -8.5290 C   0  0  0  0  0  0  0  0  0  0  0  0
   27.4974  -20.3365   -8.8140 C   0  0  0  0  0  0  0  0  0  0  0  0
   25.1795  -20.4127  -12.2704 C   0  0  0  0  0  0  0  0  0  0  0  0
   25.3160  -19.1656  -12.4535 O   0  0  0  0  0  0  0  0  0  0  0  0
   22.5785  -19.6599  -13.7393 C   0  0  0  0  0  0  0  0  0  0  0  0
   22.6882  -20.0466  -12.2888 C   0  0  2  0  0  0  0  0  0  0  0  0
   23.8558  -20.8704  -12.0184 N   0  0  0  0  0  0  0  0  0  0  0  0
   21.4429  -20.7053  -11.8320 C   0  0  0  0  0  0  0  0  0  0  0  0
   21.5410  -21.9982  -11.3407 O   0  0  0  0  0  0  0  0  0  0  0  0
   20.3068  -20.1661  -11.8622 O   0  0  0  0  0  0  0  0  0  0  0  0
  1  2  1  0
  2  3  2  0
  4  5  1  0
  4  2  1  0
  5  6  1  0
  6  7  1  6
  8  6  1  0
  9  8  2  0
 10  8  1  0
 11 10  1  0
 12 13  1  0
 11 12  1  1
 13 21  1  0
 13 14  2  0
 14 15  1  0
 16 15  1  0
 16 17  2  0
 18 17  1  0
 19 18  2  0
 20 19  1  0
 20 21  2  0
 21 16  1  0
 22 26  1  0
 22 11  1  0
 23 22  2  0
 25 24  1  6
 25 26  1  0
 25 27  1  0
 27 28  1  0
 29 27  2  0
M  END
$$$$
