QWA.pdb
     RDKit          3D

 29 30  0  0  1  0  0  0  0  0999 V2000
   28.4963  -25.1381  -17.8264 N   0  0  0  0  0  0  0  0  0  0  0  0
   29.2699  -24.1661  -18.5085 C   0  0  0  0  0  0  0  0  0  0  0  0
   29.6467  -24.3779  -19.6789 O   0  0  0  0  0  0  0  0  0  0  0  0
   29.6160  -22.9104  -17.8107 C   0  0  0  0  0  0  0  0  0  0  0  0
   28.9584  -22.8943  -16.4705 C   0  0  0  0  0  0  0  0  0  0  0  0
   27.5913  -22.2385  -16.5277 C   0  0  2  0  0  0  0  0  0  0  0  0
   27.6684  -20.9022  -17.0574 N   0  0  0  0  0  0  0  0  0  0  0  0
   26.8775  -22.2858  -15.2468 C   0  0  0  0  0  0  0  0  0  0  0  0
   26.6998  -23.3756  -14.6420 O   0  0  0  0  0  0  0  0  0  0  0  0
   26.3604  -21.0981  -14.6439 N   0  0  0  0  0  0  0  0  0  0  0  0
   25.6398  -21.1234  -13.3901 C   0  0  1  0  0  0  0  0  0  0  0  0
   26.0574  -19.9825  -12.4874 C   0  0  0  0  0  0  0  0  0  0  0  0
   27.0599  -20.3772  -11.4769 C   0  0  0  0  0  0  0  0  0  0  0  0
   28.3242  -20.8325  -11.7694 C   0  0  0  0  0  0  0  0  0  0  0  0
   28.9476  -21.0896  -10.5992 N   0  0  0  0  0  0  0  0  0  0  0  0
   28.1233  -20.8137   -9.5630 C   0  0  0  0  0  0  0  0  0  0  0  0
   28.2649  -20.8992   -8.1898 C   0  0  0  0  0  0  0  0  0  0  0  0
   27.2473  -20.5483   -7.3212 C   0  0  0  0  0  0  0  0  0  0  0  0
   26.0625  -20.1011   -7.8856 C   0  0  0  0  0  0  0  0  0  0  0  0
   25.8929  -20.0056   -9.2481 C   0  0  0  0  0  0  0  0  0  0  0  0
   26.9186  -20.3596  -10.1065 C   0  0  0  0  0  0  0  0  0  0  0  0
   24.1920  -20.8951  -13.7095 C   0  0  0  0  0  0  0  0  0  0  0  0
   23.8139  -19.9287  -14.4378 O   0  0  0  0  0  0  0  0  0  0  0  0
   20.8716  -22.6238  -13.0558 C   0  0  0  0  0  0  0  0  0  0  0  0
   21.7556  -21.4608  -13.4183 C   0  0  2  0  0  0  0  0  0  0  0  0
   23.1665  -21.7483  -13.2140 N   0  0  0  0  0  0  0  0  0  0  0  0
   21.3388  -20.2439  -12.6844 C   0  0  0  0  0  0  0  0  0  0  0  0
   21.9592  -19.9780  -11.4731 O   0  0  0  0  0  0  0  0  0  0  0  0
   20.4604  -19.4403  -13.0906 O   0  0  0  0  0  0  0  0  0  0  0  0
  1  2  1  0
  2  3  2  0
  4  5  1  0
  4  2  1  0
  5  6  1  0
  6  7  1  1
  8  6  1  0
  9  8  2  0
 10  8  1  0
 11 10  1  0
 12 13  1  0
 11 12  1  1
 13 21  1  0
 13 14  2  0
 14 15  1  0
 16 15  1  0
 16 17  2  0
 18 17  1  0
 19 18  2  0
 20 19  1  0
 20 21  2  0
 21 16  1  0
 22 26  1  0
 22 11  1  0
 23 22  2  0
 25 24  1  1
 25 26  1  0
 25 27  1  0
 27 28  1  0
 29 27  2  0
M  END
$$$$
