QWA.pdb
     RDKit          3D

 29 30  0  0  1  0  0  0  0  0999 V2000
   23.8968  -24.0006  -15.0485 N   0  0  0  0  0  0  0  0  0  0  0  0
   25.2625  -24.0295  -14.6712 C   0  0  0  0  0  0  0  0  0  0  0  0
   26.0339  -24.8651  -15.1847 O   0  0  0  0  0  0  0  0  0  0  0  0
   25.7471  -23.0590  -13.6679 C   0  0  0  0  0  0  0  0  0  0  0  0
   24.6178  -22.1761  -13.2511 C   0  0  0  0  0  0  0  0  0  0  0  0
   24.3483  -21.0923  -14.2784 C   0  0  2  0  0  0  0  0  0  0  0  0
   25.3514  -20.0609  -14.2332 N   0  0  0  0  0  0  0  0  0  0  0  0
   22.9891  -20.5466  -14.1945 C   0  0  0  0  0  0  0  0  0  0  0  0
   22.6461  -19.8013  -13.2395 O   0  0  0  0  0  0  0  0  0  0  0  0
   22.0102  -20.8428  -15.1922 N   0  0  0  0  0  0  0  0  0  0  0  0
   20.6939  -20.2437  -15.1797 C   0  0  1  0  0  0  0  0  0  0  0  0
   20.3292  -19.6777  -16.5353 C   0  0  0  0  0  0  0  0  0  0  0  0
   21.0263  -18.4124  -16.8439 C   0  0  0  0  0  0  0  0  0  0  0  0
   20.8904  -17.2508  -16.1204 C   0  0  0  0  0  0  0  0  0  0  0  0
   21.6769  -16.3158  -16.6959 N   0  0  0  0  0  0  0  0  0  0  0  0
   22.3147  -16.8401  -17.7672 C   0  0  0  0  0  0  0  0  0  0  0  0
   23.2128  -16.3228  -18.6831 C   0  0  0  0  0  0  0  0  0  0  0  0
   23.7335  -17.0833  -19.7143 C   0  0  0  0  0  0  0  0  0  0  0  0
   23.3162  -18.4028  -19.7977 C   0  0  0  0  0  0  0  0  0  0  0  0
   22.4239  -18.9447  -18.9009 C   0  0  0  0  0  0  0  0  0  0  0  0
   21.9102  -18.1735  -17.8735 C   0  0  0  0  0  0  0  0  0  0  0  0
   19.7114  -21.3444  -14.9086 C   0  0  0  0  0  0  0  0  0  0  0  0
   20.0414  -22.5663  -14.9824 O   0  0  0  0  0  0  0  0  0  0  0  0
   18.1487  -23.3446  -13.6179 C   0  0  0  0  0  0  0  0  0  0  0  0
   17.4392  -22.1354  -14.1654 C   0  0  2  0  0  0  0  0  0  0  0  0
   18.3590  -21.0783  -14.5547 N   0  0  0  0  0  0  0  0  0  0  0  0
   16.4284  -21.6457  -13.2001 C   0  0  0  0  0  0  0  0  0  0  0  0
   15.4139  -22.5165  -12.8324 O   0  0  0  0  0  0  0  0  0  0  0  0
   16.4336  -20.4933  -12.6957 O   0  0  0  0  0  0  0  0  0  0  0  0
  1  2  1  0
  2  3  2  0
  4  5  1  0
  4  2  1  0
  5  6  1  0
  6  7  1  1
  8  6  1  0
  9  8  2  0
 10  8  1  0
 11 10  1  0
 12 13  1  0
 11 12  1  6
 13 21  1  0
 13 14  2  0
 14 15  1  0
 16 15  1  0
 16 17  2  0
 18 17  1  0
 19 18  2  0
 20 19  1  0
 20 21  2  0
 21 16  1  0
 22 26  1  0
 22 11  1  0
 23 22  2  0
 25 24  1  1
 25 26  1  0
 25 27  1  0
 27 28  1  0
 29 27  2  0
M  END
$$$$
