KFT.pdb
     RDKit          3D

 28 28  0  0  1  0  0  0  0  0999 V2000
   27.8753  -20.7830  -17.0789 N   0  0  0  0  0  0  0  0  0  0  0  0
   27.3372  -22.1025  -16.8311 C   0  0  1  0  0  0  0  0  0  0  0  0
   28.3499  -23.1846  -16.9998 C   0  0  0  0  0  0  0  0  0  0  0  0
   28.9943  -23.1976  -18.3477 C   0  0  0  0  0  0  0  0  0  0  0  0
   29.6549  -21.8771  -18.6220 C   0  0  0  0  0  0  0  0  0  0  0  0
   30.2549  -21.8653  -20.0342 C   0  0  0  0  0  0  0  0  0  0  0  0
   30.9526  -20.5928  -20.1838 N   0  0  0  0  0  0  0  0  0  0  0  0
   26.8223  -22.2078  -15.4243 C   0  0  0  0  0  0  0  0  0  0  0  0
   26.3354  -23.2786  -15.0050 O   0  0  0  0  0  0  0  0  0  0  0  0
   26.8859  -21.1006  -14.5717 N   0  0  0  0  0  0  0  0  0  0  0  0
   26.3254  -21.0496  -13.2402 C   0  0  1  0  0  0  0  0  0  0  0  0
   27.2475  -20.4451  -12.2367 C   0  0  0  0  0  0  0  0  0  0  0  0
   26.7220  -20.3504  -10.8801 C   0  0  0  0  0  0  0  0  0  0  0  0
   27.0247  -21.3017   -9.9292 C   0  0  0  0  0  0  0  0  0  0  0  0
   26.5566  -21.2610   -8.6393 C   0  0  0  0  0  0  0  0  0  0  0  0
   25.7354  -20.2177   -8.2515 C   0  0  0  0  0  0  0  0  0  0  0  0
   25.4068  -19.2379   -9.1816 C   0  0  0  0  0  0  0  0  0  0  0  0
   25.9043  -19.3147  -10.4881 C   0  0  0  0  0  0  0  0  0  0  0  0
   24.9574  -20.5012  -13.2432 C   0  0  0  0  0  0  0  0  0  0  0  0
   24.7435  -19.2911  -13.5107 O   0  0  0  0  0  0  0  0  0  0  0  0
   22.2879  -21.1272  -15.3119 C   0  0  0  0  0  0  0  0  0  0  0  0
   21.6646  -21.4469  -13.9703 C   0  0  1  0  0  0  0  0  0  0  0  0
   21.6966  -22.8092  -13.7920 O   0  0  0  0  0  0  0  0  0  0  0  0
   22.4818  -20.7131  -12.9142 C   0  0  2  0  0  0  0  0  0  0  0  0
   23.8218  -21.3042  -12.9496 N   0  0  0  0  0  0  0  0  0  0  0  0
   21.9176  -20.8979  -11.5781 C   0  0  0  0  0  0  0  0  0  0  0  0
   22.5634  -21.5186  -10.7017 O   0  0  0  0  0  0  0  0  0  0  0  0
   20.6778  -20.3970  -11.2618 O   0  0  0  0  0  0  0  0  0  0  0  0
  2  1  1  1
  2  8  1  0
  2  3  1  0
  4  3  1  0
  5  4  1  0
  6  5  1  0
  7  6  1  0
  8  9  2  0
 10 11  1  0
 10  8  1  0
 12 13  1  0
 11 12  1  1
 13 18  2  0
 14 15  2  0
 14 13  1  0
 15 16  1  0
 16 17  2  0
 18 17  1  0
 19 20  2  0
 19 11  1  0
 22 21  1  6
 22 24  1  0
 23 22  1  0
 24 26  1  0
 24 25  1  1
 25 19  1  0
 26 28  1  0
 27 26  2  0
M  END
$$$$
