KFT.pdb
     RDKit          3D

 28 28  0  0  1  0  0  0  0  0999 V2000
   29.4675  -23.0667  -17.7297 N   0  0  0  0  0  0  0  0  0  0  0  0
   28.6036  -21.9179  -17.5683 C   0  0  1  0  0  0  0  0  0  0  0  0
   27.7109  -21.6920  -18.7416 C   0  0  0  0  0  0  0  0  0  0  0  0
   28.0580  -22.5298  -19.9290 C   0  0  0  0  0  0  0  0  0  0  0  0
   26.9447  -23.4912  -20.2315 C   0  0  0  0  0  0  0  0  0  0  0  0
   27.2997  -24.3492  -21.4531 C   0  0  0  0  0  0  0  0  0  0  0  0
   26.2189  -25.3155  -21.6164 N   0  0  0  0  0  0  0  0  0  0  0  0
   27.7112  -22.0914  -16.3730 C   0  0  0  0  0  0  0  0  0  0  0  0
   27.0974  -23.1634  -16.1893 O   0  0  0  0  0  0  0  0  0  0  0  0
   27.5622  -21.0472  -15.4540 N   0  0  0  0  0  0  0  0  0  0  0  0
   26.7493  -21.1067  -14.2602 C   0  0  1  0  0  0  0  0  0  0  0  0
   27.4114  -20.5055  -13.0673 C   0  0  0  0  0  0  0  0  0  0  0  0
   26.6466  -20.5693  -11.8278 C   0  0  0  0  0  0  0  0  0  0  0  0
   26.7843  -21.6299  -10.9578 C   0  0  0  0  0  0  0  0  0  0  0  0
   26.0889  -21.7399   -9.7792 C   0  0  0  0  0  0  0  0  0  0  0  0
   25.1966  -20.7438   -9.4261 C   0  0  0  0  0  0  0  0  0  0  0  0
   25.0292  -19.6571  -10.2772 C   0  0  0  0  0  0  0  0  0  0  0  0
   25.7571  -19.5813  -11.4709 C   0  0  0  0  0  0  0  0  0  0  0  0
   25.3730  -20.6434  -14.5120 C   0  0  0  0  0  0  0  0  0  0  0  0
   25.1491  -19.4989  -14.9828 O   0  0  0  0  0  0  0  0  0  0  0  0
   22.9101  -21.6587  -16.7036 C   0  0  0  0  0  0  0  0  0  0  0  0
   22.1734  -21.8078  -15.3899 C   0  0  1  0  0  0  0  0  0  0  0  0
   22.2040  -23.1323  -15.0246 O   0  0  0  0  0  0  0  0  0  0  0  0
   22.8855  -20.9192  -14.3775 C   0  0  2  0  0  0  0  0  0  0  0  0
   24.2407  -21.4588  -14.2408 N   0  0  0  0  0  0  0  0  0  0  0  0
   22.2257  -20.9598  -13.0735 C   0  0  0  0  0  0  0  0  0  0  0  0
   22.8057  -21.4756  -12.0896 O   0  0  0  0  0  0  0  0  0  0  0  0
   20.9666  -20.4360  -12.9047 O   0  0  0  0  0  0  0  0  0  0  0  0
  2  1  1  6
  2  8  1  0
  2  3  1  0
  4  3  1  0
  5  4  1  0
  6  5  1  0
  7  6  1  0
  8  9  2  0
 10 11  1  0
 10  8  1  0
 12 13  1  0
 11 12  1  1
 13 18  2  0
 14 15  2  0
 14 13  1  0
 15 16  1  0
 16 17  2  0
 18 17  1  0
 19 20  2  0
 19 11  1  0
 22 21  1  6
 22 24  1  0
 23 22  1  0
 24 26  1  0
 24 25  1  1
 25 19  1  0
 26 28  1  0
 27 26  2  0
M  END
$$$$
