KFT.pdb
     RDKit          3D

 28 28  0  0  1  0  0  0  0  0999 V2000
   25.5161  -23.2292  -17.4058 N   0  0  0  0  0  0  0  0  0  0  0  0
   25.8815  -22.0552  -16.6439 C   0  0  1  0  0  0  0  0  0  0  0  0
   25.3321  -20.7938  -17.2199 C   0  0  0  0  0  0  0  0  0  0  0  0
   25.1913  -20.8254  -18.7069 C   0  0  0  0  0  0  0  0  0  0  0  0
   26.5216  -20.5855  -19.3613 C   0  0  0  0  0  0  0  0  0  0  0  0
   26.3258  -20.1214  -20.8107 C   0  0  0  0  0  0  0  0  0  0  0  0
   27.6574  -19.9064  -21.3667 N   0  0  0  0  0  0  0  0  0  0  0  0
   25.3589  -22.1528  -15.2394 C   0  0  0  0  0  0  0  0  0  0  0  0
   24.2897  -22.7520  -15.0001 O   0  0  0  0  0  0  0  0  0  0  0  0
   26.0714  -21.5698  -14.1861 N   0  0  0  0  0  0  0  0  0  0  0  0
   25.5490  -21.3510  -12.8562 C   0  0  1  0  0  0  0  0  0  0  0  0
   26.6031  -21.0088  -11.8590 C   0  0  0  0  0  0  0  0  0  0  0  0
   26.1232  -20.7280  -10.5113 C   0  0  0  0  0  0  0  0  0  0  0  0
   25.4538  -21.6847   -9.7783 C   0  0  0  0  0  0  0  0  0  0  0  0
   24.9807  -21.4730   -8.5070 C   0  0  0  0  0  0  0  0  0  0  0  0
   25.1754  -20.2404   -7.9105 C   0  0  0  0  0  0  0  0  0  0  0  0
   25.8463  -19.2487   -8.6174 C   0  0  0  0  0  0  0  0  0  0  0  0
   26.3138  -19.5035   -9.9123 C   0  0  0  0  0  0  0  0  0  0  0  0
   24.3828  -20.4499  -12.8683 C   0  0  0  0  0  0  0  0  0  0  0  0
   24.5052  -19.2332  -13.1625 O   0  0  0  0  0  0  0  0  0  0  0  0
   22.0277  -19.6670  -14.8561 C   0  0  0  0  0  0  0  0  0  0  0  0
   21.1415  -20.0987  -13.7076 C   0  0  1  0  0  0  0  0  0  0  0  0
   20.7515  -21.3982  -13.9267 O   0  0  0  0  0  0  0  0  0  0  0  0
   21.9643  -19.9562  -12.4332 C   0  0  2  0  0  0  0  0  0  0  0  0
   23.0736  -20.9056  -12.5536 N   0  0  0  0  0  0  0  0  0  0  0  0
   21.1775  -20.2949  -11.2484 C   0  0  0  0  0  0  0  0  0  0  0  0
   21.4694  -21.3042  -10.5654 O   0  0  0  0  0  0  0  0  0  0  0  0
   20.1116  -19.5171  -10.8650 O   0  0  0  0  0  0  0  0  0  0  0  0
  2  1  1  6
  2  8  1  0
  2  3  1  0
  4  3  1  0
  5  4  1  0
  6  5  1  0
  7  6  1  0
  8  9  2  0
 10 11  1  0
 10  8  1  0
 12 13  1  0
 11 12  1  1
 13 18  2  0
 14 15  2  0
 14 13  1  0
 15 16  1  0
 16 17  2  0
 18 17  1  0
 19 20  2  0
 19 11  1  0
 22 21  1  6
 22 24  1  0
 23 22  1  0
 24 26  1  0
 24 25  1  6
 25 19  1  0
 26 28  1  0
 27 26  2  0
M  END
$$$$
