KFT.pdb
     RDKit          3D

 28 28  0  0  1  0  0  0  0  0999 V2000
   28.2357  -22.5101  -17.5266 N   0  0  0  0  0  0  0  0  0  0  0  0
   27.1447  -21.5736  -17.3689 C   0  0  1  0  0  0  0  0  0  0  0  0
   26.1328  -21.6705  -18.4603 C   0  0  0  0  0  0  0  0  0  0  0  0
   26.6360  -21.2042  -19.7875 C   0  0  0  0  0  0  0  0  0  0  0  0
   26.8139  -22.3708  -20.7164 C   0  0  0  0  0  0  0  0  0  0  0  0
   28.0568  -22.1685  -21.5931 C   0  0  0  0  0  0  0  0  0  0  0  0
   27.6159  -21.4609  -22.7904 N   0  0  0  0  0  0  0  0  0  0  0  0
   26.4158  -21.8234  -16.0800 C   0  0  0  0  0  0  0  0  0  0  0  0
   25.6802  -22.8242  -15.9502 O   0  0  0  0  0  0  0  0  0  0  0  0
   26.5582  -20.9312  -15.0118 N   0  0  0  0  0  0  0  0  0  0  0  0
   25.9069  -21.0677  -13.7286 C   0  0  1  0  0  0  0  0  0  0  0  0
   26.7299  -20.5593  -12.5942 C   0  0  0  0  0  0  0  0  0  0  0  0
   26.0813  -20.5850  -11.2888 C   0  0  0  0  0  0  0  0  0  0  0  0
   25.1086  -19.6662  -10.9568 C   0  0  0  0  0  0  0  0  0  0  0  0
   24.4673  -19.6451   -9.7431 C   0  0  0  0  0  0  0  0  0  0  0  0
   24.7998  -20.5878   -8.7871 C   0  0  0  0  0  0  0  0  0  0  0  0
   25.7765  -21.5319   -9.0837 C   0  0  0  0  0  0  0  0  0  0  0  0
   26.4078  -21.5205  -10.3333 C   0  0  0  0  0  0  0  0  0  0  0  0
   24.5185  -20.5745  -13.7648 C   0  0  0  0  0  0  0  0  0  0  0  0
   24.2672  -19.3537  -13.9330 O   0  0  0  0  0  0  0  0  0  0  0  0
   21.4670  -22.9626  -14.8551 C   0  0  0  0  0  0  0  0  0  0  0  0
   21.4092  -21.4522  -14.9327 C   0  0  1  0  0  0  0  0  0  0  0  0
   20.0934  -21.0754  -15.0573 O   0  0  0  0  0  0  0  0  0  0  0  0
   22.0382  -20.9168  -13.6524 C   0  0  2  0  0  0  0  0  0  0  0  0
   23.4043  -21.4446  -13.6155 N   0  0  0  0  0  0  0  0  0  0  0  0
   21.3184  -21.3825  -12.4681 C   0  0  0  0  0  0  0  0  0  0  0  0
   20.1487  -20.9909  -12.2470 O   0  0  0  0  0  0  0  0  0  0  0  0
   21.9077  -22.2527  -11.5828 O   0  0  0  0  0  0  0  0  0  0  0  0
  2  1  1  6
  2  8  1  0
  2  3  1  0
  4  3  1  0
  5  4  1  0
  6  5  1  0
  7  6  1  0
  8  9  2  0
 10 11  1  0
 10  8  1  0
 12 13  1  0
 11 12  1  1
 13 18  2  0
 14 15  2  0
 14 13  1  0
 15 16  1  0
 16 17  2  0
 18 17  1  0
 19 20  2  0
 19 11  1  0
 22 21  1  1
 22 24  1  0
 23 22  1  0
 24 26  1  0
 24 25  1  1
 25 19  1  0
 26 28  1  0
 27 26  2  0
M  END
$$$$
