KFT.pdb
     RDKit          3D

 28 28  0  0  1  0  0  0  0  0999 V2000
   21.2726  -20.1990  -11.5663 N   0  0  0  0  0  0  0  0  0  0  0  0
   22.2347  -21.1296  -12.1144 C   0  0  1  0  0  0  0  0  0  0  0  0
   21.9496  -21.4931  -13.5326 C   0  0  0  0  0  0  0  0  0  0  0  0
   20.5354  -21.2409  -13.9433 C   0  0  0  0  0  0  0  0  0  0  0  0
   19.6622  -22.3942  -13.5398 C   0  0  0  0  0  0  0  0  0  0  0  0
   18.2263  -22.1729  -14.0334 C   0  0  0  0  0  0  0  0  0  0  0  0
   17.4286  -23.2791  -13.5153 N   0  0  0  0  0  0  0  0  0  0  0  0
   23.6152  -20.5391  -12.0886 C   0  0  0  0  0  0  0  0  0  0  0  0
   23.7781  -19.3025  -12.1503 O   0  0  0  0  0  0  0  0  0  0  0  0
   24.7322  -21.3761  -11.9945 N   0  0  0  0  0  0  0  0  0  0  0  0
   26.1044  -20.9226  -11.9611 C   0  0  1  0  0  0  0  0  0  0  0  0
   26.8634  -21.4314  -10.7830 C   0  0  0  0  0  0  0  0  0  0  0  0
   26.4329  -20.9145   -9.4896 C   0  0  0  0  0  0  0  0  0  0  0  0
   25.2767  -21.3660   -8.8894 C   0  0  0  0  0  0  0  0  0  0  0  0
   24.8258  -20.9132   -7.6743 C   0  0  0  0  0  0  0  0  0  0  0  0
   25.5557  -19.9519   -6.9987 C   0  0  0  0  0  0  0  0  0  0  0  0
   26.7279  -19.4708   -7.5710 C   0  0  0  0  0  0  0  0  0  0  0  0
   27.1547  -19.9580   -8.8123 C   0  0  0  0  0  0  0  0  0  0  0  0
   26.7724  -21.1046  -13.2621 C   0  0  0  0  0  0  0  0  0  0  0  0
   27.9813  -21.4446  -13.3294 O   0  0  0  0  0  0  0  0  0  0  0  0
   26.6662  -23.4604  -15.8404 C   0  0  0  0  0  0  0  0  0  0  0  0
   26.1729  -22.1950  -16.5083 C   0  0  1  0  0  0  0  0  0  0  0  0
   24.8010  -22.1714  -16.4309 O   0  0  0  0  0  0  0  0  0  0  0  0
   26.8072  -21.0246  -15.7670 C   0  0  2  0  0  0  0  0  0  0  0  0
   26.0908  -20.9094  -14.4943 N   0  0  0  0  0  0  0  0  0  0  0  0
   26.6552  -19.7752  -16.5109 C   0  0  0  0  0  0  0  0  0  0  0  0
   25.9098  -18.8679  -16.0732 O   0  0  0  0  0  0  0  0  0  0  0  0
   27.3232  -19.5749  -17.6949 O   0  0  0  0  0  0  0  0  0  0  0  0
  2  1  1  6
  2  8  1  0
  2  3  1  0
  4  3  1  0
  5  4  1  0
  6  5  1  0
  7  6  1  0
  8  9  2  0
 10 11  1  0
 10  8  1  0
 12 13  1  0
 11 12  1  1
 13 18  2  0
 14 15  2  0
 14 13  1  0
 15 16  1  0
 16 17  2  0
 18 17  1  0
 19 20  2  0
 19 11  1  0
 22 21  1  1
 22 24  1  0
 23 22  1  0
 24 26  1  0
 24 25  1  1
 25 19  1  0
 26 28  1  0
 27 26  2  0
M  END
$$$$
