KFT.pdb
     RDKit          3D

 28 28  0  0  1  0  0  0  0  0999 V2000
   28.5666  -20.7657  -14.8894 N   0  0  0  0  0  0  0  0  0  0  0  0
   27.8717  -19.9232  -13.9410 C   0  0  1  0  0  0  0  0  0  0  0  0
   27.2908  -18.7000  -14.5664 C   0  0  0  0  0  0  0  0  0  0  0  0
   27.6211  -18.5533  -16.0160 C   0  0  0  0  0  0  0  0  0  0  0  0
   28.7098  -17.5356  -16.2020 C   0  0  0  0  0  0  0  0  0  0  0  0
   28.6015  -16.8877  -17.5886 C   0  0  0  0  0  0  0  0  0  0  0  0
   29.0283  -17.8924  -18.5565 N   0  0  0  0  0  0  0  0  0  0  0  0
   26.7318  -20.6682  -13.3081 C   0  0  0  0  0  0  0  0  0  0  0  0
   26.3460  -21.7583  -13.7798 O   0  0  0  0  0  0  0  0  0  0  0  0
   26.0927  -20.1419  -12.1805 N   0  0  0  0  0  0  0  0  0  0  0  0
   24.9975  -20.7747  -11.4806 C   0  0  1  0  0  0  0  0  0  0  0  0
   24.9704  -20.4598  -10.0236 C   0  0  0  0  0  0  0  0  0  0  0  0
   26.2426  -20.6071   -9.3270 C   0  0  0  0  0  0  0  0  0  0  0  0
   26.5705  -19.7973   -8.2606 C   0  0  0  0  0  0  0  0  0  0  0  0
   27.7535  -19.8930   -7.5707 C   0  0  0  0  0  0  0  0  0  0  0  0
   28.6809  -20.8468   -7.9495 C   0  0  0  0  0  0  0  0  0  0  0  0
   28.3875  -21.6832   -9.0207 C   0  0  0  0  0  0  0  0  0  0  0  0
   27.1695  -21.5542   -9.6992 C   0  0  0  0  0  0  0  0  0  0  0  0
   23.7169  -20.5871  -12.1854 C   0  0  0  0  0  0  0  0  0  0  0  0
   23.2417  -19.4380  -12.3741 O   0  0  0  0  0  0  0  0  0  0  0  0
   22.7400  -22.4706  -15.3646 C   0  0  0  0  0  0  0  0  0  0  0  0
   21.5754  -22.5942  -14.4059 C   0  0  1  0  0  0  0  0  0  0  0  0
   21.6417  -23.8265  -13.8011 O   0  0  0  0  0  0  0  0  0  0  0  0
   21.7046  -21.4566  -13.4005 C   0  0  2  0  0  0  0  0  0  0  0  0
   22.9625  -21.6836  -12.6847 N   0  0  0  0  0  0  0  0  0  0  0  0
   20.6037  -21.4661  -12.4385 C   0  0  0  0  0  0  0  0  0  0  0  0
   19.4411  -21.1798  -12.8083 O   0  0  0  0  0  0  0  0  0  0  0  0
   20.8230  -21.7876  -11.1206 O   0  0  0  0  0  0  0  0  0  0  0  0
  2  1  1  6
  2  8  1  0
  2  3  1  0
  4  3  1  0
  5  4  1  0
  6  5  1  0
  7  6  1  0
  8  9  2  0
 10 11  1  0
 10  8  1  0
 12 13  1  0
 11 12  1  1
 13 18  2  0
 14 15  2  0
 14 13  1  0
 15 16  1  0
 16 17  2  0
 18 17  1  0
 19 20  2  0
 19 11  1  0
 22 21  1  6
 22 24  1  0
 23 22  1  0
 24 26  1  0
 24 25  1  1
 25 19  1  0
 26 28  1  0
 27 26  2  0
M  END
$$$$
