KFT.pdb
     RDKit          3D

 28 28  0  0  1  0  0  0  0  0999 V2000
   30.2846  -23.0909  -13.8361 N   0  0  0  0  0  0  0  0  0  0  0  0
   30.1751  -21.7663  -13.2656 C   0  0  1  0  0  0  0  0  0  0  0  0
   29.5467  -20.7831  -14.1947 C   0  0  0  0  0  0  0  0  0  0  0  0
   28.5675  -21.3953  -15.1425 C   0  0  0  0  0  0  0  0  0  0  0  0
   29.1660  -21.4975  -16.5161 C   0  0  0  0  0  0  0  0  0  0  0  0
   28.1314  -22.0451  -17.5081 C   0  0  0  0  0  0  0  0  0  0  0  0
   28.8428  -22.3094  -18.7541 N   0  0  0  0  0  0  0  0  0  0  0  0
   29.3275  -21.7929  -12.0263 C   0  0  0  0  0  0  0  0  0  0  0  0
   28.4162  -22.6371  -11.8984 O   0  0  0  0  0  0  0  0  0  0  0  0
   29.5559  -20.8669  -11.0028 N   0  0  0  0  0  0  0  0  0  0  0  0
   28.8013  -20.7924   -9.7721 C   0  0  1  0  0  0  0  0  0  0  0  0
   29.5751  -20.2023   -8.6426 C   0  0  0  0  0  0  0  0  0  0  0  0
   28.8531  -20.0875   -7.3812 C   0  0  0  0  0  0  0  0  0  0  0  0
   29.0084  -21.0246   -6.3820 C   0  0  0  0  0  0  0  0  0  0  0  0
   28.3532  -20.9648   -5.1771 C   0  0  0  0  0  0  0  0  0  0  0  0
   27.4856  -19.9159   -4.9315 C   0  0  0  0  0  0  0  0  0  0  0  0
   27.3017  -18.9499   -5.9145 C   0  0  0  0  0  0  0  0  0  0  0  0
   27.9884  -19.0461   -7.1308 C   0  0  0  0  0  0  0  0  0  0  0  0
   27.4636  -20.2117   -9.9852 C   0  0  0  0  0  0  0  0  0  0  0  0
   27.3251  -19.0151  -10.3467 O   0  0  0  0  0  0  0  0  0  0  0  0
   25.4110  -20.6205  -12.4736 C   0  0  0  0  0  0  0  0  0  0  0  0
   24.4709  -21.0424  -11.3650 C   0  0  1  0  0  0  0  0  0  0  0  0
   24.4953  -22.4136  -11.2754 O   0  0  0  0  0  0  0  0  0  0  0  0
   24.9647  -20.3774  -10.0861 C   0  0  2  0  0  0  0  0  0  0  0  0
   26.2742  -20.9673   -9.7972 N   0  0  0  0  0  0  0  0  0  0  0  0
   24.0668  -20.6445   -8.9637 C   0  0  0  0  0  0  0  0  0  0  0  0
   22.8782  -20.2491   -8.9996 O   0  0  0  0  0  0  0  0  0  0  0  0
   24.5072  -21.3301   -7.8573 O   0  0  0  0  0  0  0  0  0  0  0  0
  2  1  1  6
  2  8  1  0
  2  3  1  0
  4  3  1  0
  5  4  1  0
  6  5  1  0
  7  6  1  0
  8  9  2  0
 10 11  1  0
 10  8  1  0
 12 13  1  0
 11 12  1  1
 13 18  2  0
 14 15  2  0
 14 13  1  0
 15 16  1  0
 16 17  2  0
 18 17  1  0
 19 20  2  0
 19 11  1  0
 22 21  1  6
 22 24  1  0
 23 22  1  0
 24 26  1  0
 24 25  1  1
 25 19  1  0
 26 28  1  0
 27 26  2  0
M  END
$$$$
