KFT.pdb
     RDKit          3D

 28 28  0  0  1  0  0  0  0  0999 V2000
   28.8791  -21.3316  -14.6386 N   0  0  0  0  0  0  0  0  0  0  0  0
   28.1224  -20.3090  -13.9503 C   0  0  1  0  0  0  0  0  0  0  0  0
   27.6427  -19.2290  -14.8604 C   0  0  0  0  0  0  0  0  0  0  0  0
   28.7435  -18.5104  -15.5703 C   0  0  0  0  0  0  0  0  0  0  0  0
   28.1801  -17.6283  -16.6473 C   0  0  0  0  0  0  0  0  0  0  0  0
   29.3066  -16.8546  -17.3451 C   0  0  0  0  0  0  0  0  0  0  0  0
   28.6670  -15.9100  -18.2545 N   0  0  0  0  0  0  0  0  0  0  0  0
   26.9042  -20.8999  -13.3008 C   0  0  0  0  0  0  0  0  0  0  0  0
   26.4143  -21.9681  -13.7235 O   0  0  0  0  0  0  0  0  0  0  0  0
   26.3087  -20.2532  -12.2126 N   0  0  0  0  0  0  0  0  0  0  0  0
   25.1639  -20.7487  -11.4821 C   0  0  1  0  0  0  0  0  0  0  0  0
   25.1643  -20.3484  -10.0460 C   0  0  0  0  0  0  0  0  0  0  0  0
   26.4155  -20.5752   -9.3328 C   0  0  0  0  0  0  0  0  0  0  0  0
   26.7138  -19.8847   -8.1774 C   0  0  0  0  0  0  0  0  0  0  0  0
   27.8761  -20.0590   -7.4679 C   0  0  0  0  0  0  0  0  0  0  0  0
   28.8123  -20.9719   -7.9190 C   0  0  0  0  0  0  0  0  0  0  0  0
   28.5485  -21.6884   -9.0810 C   0  0  0  0  0  0  0  0  0  0  0  0
   27.3510  -21.4822   -9.7766 C   0  0  0  0  0  0  0  0  0  0  0  0
   23.9036  -20.4942  -12.2024 C   0  0  0  0  0  0  0  0  0  0  0  0
   23.5657  -19.3272  -12.5274 O   0  0  0  0  0  0  0  0  0  0  0  0
   22.8543  -22.1794  -15.3205 C   0  0  0  0  0  0  0  0  0  0  0  0
   21.6832  -22.3523  -14.3774 C   0  0  1  0  0  0  0  0  0  0  0  0
   21.7540  -23.6088  -13.8253 O   0  0  0  0  0  0  0  0  0  0  0  0
   21.7959  -21.2578  -13.3234 C   0  0  2  0  0  0  0  0  0  0  0  0
   23.0162  -21.5439  -12.5649 N   0  0  0  0  0  0  0  0  0  0  0  0
   20.6549  -21.2765  -12.4095 C   0  0  0  0  0  0  0  0  0  0  0  0
   20.8193  -21.5685  -11.2020 O   0  0  0  0  0  0  0  0  0  0  0  0
   19.3905  -20.9753  -12.8555 O   0  0  0  0  0  0  0  0  0  0  0  0
  2  1  1  6
  2  8  1  0
  2  3  1  0
  4  3  1  0
  5  4  1  0
  6  5  1  0
  7  6  1  0
  8  9  2  0
 10 11  1  0
 10  8  1  0
 12 13  1  0
 11 12  1  1
 13 18  2  0
 14 15  2  0
 14 13  1  0
 15 16  1  0
 16 17  2  0
 18 17  1  0
 19 20  2  0
 19 11  1  0
 22 21  1  6
 22 24  1  0
 23 22  1  0
 24 26  1  0
 24 25  1  1
 25 19  1  0
 26 28  1  0
 27 26  2  0
M  END
$$$$
