KFT.pdb
     RDKit          3D

 28 28  0  0  1  0  0  0  0  0999 V2000
   27.7190  -22.1300  -17.9089 N   0  0  0  0  0  0  0  0  0  0  0  0
   27.5657  -20.9681  -17.0612 C   0  0  1  0  0  0  0  0  0  0  0  0
   26.7560  -19.8881  -17.6958 C   0  0  0  0  0  0  0  0  0  0  0  0
   27.3355  -19.3769  -18.9744 C   0  0  0  0  0  0  0  0  0  0  0  0
   26.5325  -18.2139  -19.4823 C   0  0  0  0  0  0  0  0  0  0  0  0
   27.1128  -17.7049  -20.8084 C   0  0  0  0  0  0  0  0  0  0  0  0
   26.2452  -16.6218  -21.2586 N   0  0  0  0  0  0  0  0  0  0  0  0
   26.8702  -21.3350  -15.7819 C   0  0  0  0  0  0  0  0  0  0  0  0
   26.0232  -22.2525  -15.7603 O   0  0  0  0  0  0  0  0  0  0  0  0
   27.1693  -20.6471  -14.6011 N   0  0  0  0  0  0  0  0  0  0  0  0
   26.4720  -20.8170  -13.3463 C   0  0  1  0  0  0  0  0  0  0  0  0
   27.2728  -20.3851  -12.1652 C   0  0  0  0  0  0  0  0  0  0  0  0
   26.5893  -20.4693  -10.8803 C   0  0  0  0  0  0  0  0  0  0  0  0
   26.1303  -19.3376  -10.2404 C   0  0  0  0  0  0  0  0  0  0  0  0
   25.4818  -19.3603   -9.0305 C   0  0  0  0  0  0  0  0  0  0  0  0
   25.2668  -20.5736   -8.4021 C   0  0  0  0  0  0  0  0  0  0  0  0
   25.7148  -21.7382   -9.0155 C   0  0  0  0  0  0  0  0  0  0  0  0
   26.3723  -21.6736  -10.2499 C   0  0  0  0  0  0  0  0  0  0  0  0
   25.1018  -20.2773  -13.4047 C   0  0  0  0  0  0  0  0  0  0  0  0
   24.8925  -19.0623  -13.6531 O   0  0  0  0  0  0  0  0  0  0  0  0
   22.5641  -20.8797  -15.6540 C   0  0  0  0  0  0  0  0  0  0  0  0
   21.8794  -21.2526  -14.3567 C   0  0  1  0  0  0  0  0  0  0  0  0
   21.9472  -22.6172  -14.2084 O   0  0  0  0  0  0  0  0  0  0  0  0
   22.6126  -20.5193  -13.2403 C   0  0  2  0  0  0  0  0  0  0  0  0
   23.9590  -21.0944  -13.1879 N   0  0  0  0  0  0  0  0  0  0  0  0
   21.9597  -20.7233  -11.9482 C   0  0  0  0  0  0  0  0  0  0  0  0
   22.5239  -21.3998  -11.0569 O   0  0  0  0  0  0  0  0  0  0  0  0
   20.7243  -20.1799  -11.6898 O   0  0  0  0  0  0  0  0  0  0  0  0
  2  1  1  6
  2  8  1  0
  2  3  1  0
  4  3  1  0
  5  4  1  0
  6  5  1  0
  7  6  1  0
  8  9  2  0
 10 11  1  0
 10  8  1  0
 12 13  1  0
 11 12  1  1
 13 18  2  0
 14 15  2  0
 14 13  1  0
 15 16  1  0
 16 17  2  0
 18 17  1  0
 19 20  2  0
 19 11  1  0
 22 21  1  6
 22 24  1  0
 23 22  1  0
 24 26  1  0
 24 25  1  1
 25 19  1  0
 26 28  1  0
 27 26  2  0
M  END
$$$$
