KFT.pdb
     RDKit          3D

 28 28  0  0  1  0  0  0  0  0999 V2000
   26.9322  -22.4781  -17.4457 N   0  0  0  0  0  0  0  0  0  0  0  0
   27.0453  -21.3258  -16.5789 C   0  0  1  0  0  0  0  0  0  0  0  0
   26.4460  -20.0936  -17.1683 C   0  0  0  0  0  0  0  0  0  0  0  0
   27.2759  -19.4816  -18.2494 C   0  0  0  0  0  0  0  0  0  0  0  0
   28.6974  -19.3267  -17.7905 C   0  0  0  0  0  0  0  0  0  0  0  0
   29.5074  -18.5342  -18.8249 C   0  0  0  0  0  0  0  0  0  0  0  0
   30.1358  -19.5126  -19.7060 N   0  0  0  0  0  0  0  0  0  0  0  0
   26.3367  -21.5714  -15.2778 C   0  0  0  0  0  0  0  0  0  0  0  0
   25.3469  -22.3312  -15.2276 O   0  0  0  0  0  0  0  0  0  0  0  0
   26.7844  -20.9468  -14.1088 N   0  0  0  0  0  0  0  0  0  0  0  0
   26.1070  -20.9981  -12.8329 C   0  0  1  0  0  0  0  0  0  0  0  0
   27.0008  -20.6913  -11.6797 C   0  0  0  0  0  0  0  0  0  0  0  0
   26.3412  -20.6010  -10.3827 C   0  0  0  0  0  0  0  0  0  0  0  0
   26.0191  -19.3802   -9.8291 C   0  0  0  0  0  0  0  0  0  0  0  0
   25.3993  -19.2386   -8.6123 C   0  0  0  0  0  0  0  0  0  0  0  0
   25.0713  -20.3690   -7.8859 C   0  0  0  0  0  0  0  0  0  0  0  0
   25.3796  -21.6193   -8.4102 C   0  0  0  0  0  0  0  0  0  0  0  0
   26.0123  -21.7222   -9.6550 C   0  0  0  0  0  0  0  0  0  0  0  0
   24.8376  -20.2498  -12.8572 C   0  0  0  0  0  0  0  0  0  0  0  0
   24.8173  -19.0124  -13.0812 O   0  0  0  0  0  0  0  0  0  0  0  0
   22.4441  -20.1055  -15.1200 C   0  0  0  0  0  0  0  0  0  0  0  0
   21.6092  -20.5553  -13.9404 C   0  0  1  0  0  0  0  0  0  0  0  0
   21.4753  -21.9218  -14.0010 O   0  0  0  0  0  0  0  0  0  0  0  0
   22.3414  -20.1082  -12.6813 C   0  0  2  0  0  0  0  0  0  0  0  0
   23.5843  -20.8823  -12.6336 N   0  0  0  0  0  0  0  0  0  0  0  0
   21.5597  -20.3927  -11.4790 C   0  0  0  0  0  0  0  0  0  0  0  0
   21.9683  -21.2355  -10.6464 O   0  0  0  0  0  0  0  0  0  0  0  0
   20.3713  -19.7448  -11.2420 O   0  0  0  0  0  0  0  0  0  0  0  0
  2  1  1  6
  2  8  1  0
  2  3  1  0
  4  3  1  0
  5  4  1  0
  6  5  1  0
  7  6  1  0
  8  9  2  0
 10 11  1  0
 10  8  1  0
 12 13  1  0
 11 12  1  1
 13 18  2  0
 14 15  2  0
 14 13  1  0
 15 16  1  0
 16 17  2  0
 18 17  1  0
 19 20  2  0
 19 11  1  0
 22 21  1  6
 22 24  1  0
 23 22  1  0
 24 26  1  0
 24 25  1  1
 25 19  1  0
 26 28  1  0
 27 26  2  0
M  END
$$$$
