KFT.pdb
     RDKit          3D

 28 28  0  0  1  0  0  0  0  0999 V2000
   20.6470  -21.1652  -12.4827 N   0  0  0  0  0  0  0  0  0  0  0  0
   21.8018  -21.6004  -13.2371 C   0  0  1  0  0  0  0  0  0  0  0  0
   21.7164  -21.2506  -14.6845 C   0  0  0  0  0  0  0  0  0  0  0  0
   21.8824  -22.4232  -15.5954 C   0  0  0  0  0  0  0  0  0  0  0  0
   21.0381  -23.5724  -15.1243 C   0  0  0  0  0  0  0  0  0  0  0  0
   20.1469  -24.0809  -16.2651 C   0  0  0  0  0  0  0  0  0  0  0  0
   19.4720  -25.2760  -15.7704 N   0  0  0  0  0  0  0  0  0  0  0  0
   23.0515  -20.9560  -12.7095 C   0  0  0  0  0  0  0  0  0  0  0  0
   23.2070  -19.7190  -12.7816 O   0  0  0  0  0  0  0  0  0  0  0  0
   24.0533  -21.7427  -12.1311 N   0  0  0  0  0  0  0  0  0  0  0  0
   25.3409  -21.2516  -11.6945 C   0  0  1  0  0  0  0  0  0  0  0  0
   25.8938  -22.0038  -10.5321 C   0  0  0  0  0  0  0  0  0  0  0  0
   26.7829  -21.2450   -9.6606 C   0  0  0  0  0  0  0  0  0  0  0  0
   26.3079  -20.2109   -8.8823 C   0  0  0  0  0  0  0  0  0  0  0  0
   27.1007  -19.4647   -8.0459 C   0  0  0  0  0  0  0  0  0  0  0  0
   28.4519  -19.7489   -7.9645 C   0  0  0  0  0  0  0  0  0  0  0  0
   28.9696  -20.7848   -8.7341 C   0  0  0  0  0  0  0  0  0  0  0  0
   28.1283  -21.5230   -9.5752 C   0  0  0  0  0  0  0  0  0  0  0  0
   26.2703  -21.0741  -12.8244 C   0  0  0  0  0  0  0  0  0  0  0  0
   26.9524  -22.0360  -13.2616 O   0  0  0  0  0  0  0  0  0  0  0  0
   26.1868  -21.2288  -15.9630 C   0  0  0  0  0  0  0  0  0  0  0  0
   26.6418  -19.7894  -15.8544 C   0  0  1  0  0  0  0  0  0  0  0  0
   25.5300  -18.9817  -15.8694 O   0  0  0  0  0  0  0  0  0  0  0  0
   27.4200  -19.6663  -14.5502 C   0  0  2  0  0  0  0  0  0  0  0  0
   26.4397  -19.8202  -13.4725 N   0  0  0  0  0  0  0  0  0  0  0  0
   28.0555  -18.3553  -14.4288 C   0  0  0  0  0  0  0  0  0  0  0  0
   28.9754  -18.0258  -15.2135 O   0  0  0  0  0  0  0  0  0  0  0  0
   27.6576  -17.4669  -13.4589 O   0  0  0  0  0  0  0  0  0  0  0  0
  2  1  1  1
  2  8  1  0
  2  3  1  0
  4  3  1  0
  5  4  1  0
  6  5  1  0
  7  6  1  0
  8  9  2  0
 10 11  1  0
 10  8  1  0
 12 13  1  0
 11 12  1  1
 13 18  2  0
 14 15  2  0
 14 13  1  0
 15 16  1  0
 16 17  2  0
 18 17  1  0
 19 20  2  0
 19 11  1  0
 22 21  1  1
 22 24  1  0
 23 22  1  0
 24 26  1  0
 24 25  1  1
 25 19  1  0
 26 28  1  0
 27 26  2  0
M  END
$$$$
