KFT.pdb
     RDKit          3D

 28 28  0  0  1  0  0  0  0  0999 V2000
   18.7053  -14.5936  -18.4001 N   0  0  0  0  0  0  0  0  0  0  0  0
   18.7101  -13.1490  -18.4714 C   0  0  1  0  0  0  0  0  0  0  0  0
   17.3666  -12.5501  -18.2244 C   0  0  0  0  0  0  0  0  0  0  0  0
   16.2520  -13.2779  -18.9025 C   0  0  0  0  0  0  0  0  0  0  0  0
   14.9425  -12.5943  -18.6316 C   0  0  0  0  0  0  0  0  0  0  0  0
   13.7917  -13.3704  -19.2855 C   0  0  0  0  0  0  0  0  0  0  0  0
   12.5555  -12.7104  -18.8794 N   0  0  0  0  0  0  0  0  0  0  0  0
   19.6370  -12.5719  -17.4404 C   0  0  0  0  0  0  0  0  0  0  0  0
   19.5294  -12.8939  -16.2386 O   0  0  0  0  0  0  0  0  0  0  0  0
   20.6316  -11.6656  -17.8233 N   0  0  0  0  0  0  0  0  0  0  0  0
   21.5861  -11.0574  -16.9240 C   0  0  1  0  0  0  0  0  0  0  0  0
   22.9712  -11.5818  -17.0940 C   0  0  0  0  0  0  0  0  0  0  0  0
   24.0021  -10.8869  -16.3325 C   0  0  0  0  0  0  0  0  0  0  0  0
   24.3543  -11.3004  -15.0653 C   0  0  0  0  0  0  0  0  0  0  0  0
   25.3163  -10.6824  -14.3055 C   0  0  0  0  0  0  0  0  0  0  0  0
   25.9805   -9.5836  -14.8199 C   0  0  0  0  0  0  0  0  0  0  0  0
   25.6539   -9.1355  -16.0949 C   0  0  0  0  0  0  0  0  0  0  0  0
   24.6666   -9.7929  -16.8388 C   0  0  0  0  0  0  0  0  0  0  0  0
   21.4698   -9.5882  -16.9152 C   0  0  0  0  0  0  0  0  0  0  0  0
   21.6776   -8.9141  -17.9564 O   0  0  0  0  0  0  0  0  0  0  0  0
   18.6277   -7.4440  -15.7145 C   0  0  0  0  0  0  0  0  0  0  0  0
   19.8485   -7.0091  -14.9326 C   0  0  1  0  0  0  0  0  0  0  0  0
   19.8275   -7.6393  -13.7115 O   0  0  0  0  0  0  0  0  0  0  0  0
   21.0679   -7.4019  -15.7575 C   0  0  2  0  0  0  0  0  0  0  0  0
   21.1181   -8.8660  -15.7424 N   0  0  0  0  0  0  0  0  0  0  0  0
   22.3009   -6.8796  -15.1706 C   0  0  0  0  0  0  0  0  0  0  0  0
   23.1584   -7.6650  -14.7032 O   0  0  0  0  0  0  0  0  0  0  0  0
   22.5400   -5.5273  -15.1220 O   0  0  0  0  0  0  0  0  0  0  0  0
  2  1  1  1
  2  8  1  0
  2  3  1  0
  4  3  1  0
  5  4  1  0
  6  5  1  0
  7  6  1  0
  8  9  2  0
 10 11  1  0
 10  8  1  0
 12 13  1  0
 11 12  1  6
 13 18  2  0
 14 15  2  0
 14 13  1  0
 15 16  1  0
 16 17  2  0
 18 17  1  0
 19 20  2  0
 19 11  1  0
 22 21  1  6
 22 24  1  0
 23 22  1  0
 24 26  1  0
 24 25  1  1
 25 19  1  0
 26 28  1  0
 27 26  2  0
M  END
$$$$
