KFT.pdb
     RDKit          3D

 28 28  0  0  1  0  0  0  0  0999 V2000
   27.5101  -24.5017  -17.0553 N   0  0  0  0  0  0  0  0  0  0  0  0
   27.3786  -23.0949  -16.7457 C   0  0  1  0  0  0  0  0  0  0  0  0
   26.6790  -22.3269  -17.8160 C   0  0  0  0  0  0  0  0  0  0  0  0
   27.5384  -22.0329  -19.0022 C   0  0  0  0  0  0  0  0  0  0  0  0
   27.9785  -23.3111  -19.6562 C   0  0  0  0  0  0  0  0  0  0  0  0
   28.8283  -23.0088  -20.8975 C   0  0  0  0  0  0  0  0  0  0  0  0
   29.2930  -24.2926  -21.4117 N   0  0  0  0  0  0  0  0  0  0  0  0
   26.5841  -22.9029  -15.4860 C   0  0  0  0  0  0  0  0  0  0  0  0
   25.6620  -23.6916  -15.1905 O   0  0  0  0  0  0  0  0  0  0  0  0
   26.8746  -21.8335  -14.6321 N   0  0  0  0  0  0  0  0  0  0  0  0
   26.1868  -21.5562  -13.3913 C   0  0  1  0  0  0  0  0  0  0  0  0
   27.0730  -20.9692  -12.3460 C   0  0  0  0  0  0  0  0  0  0  0  0
   26.4272  -20.6679  -11.0742 C   0  0  0  0  0  0  0  0  0  0  0  0
   26.0649  -19.3790  -10.7453 C   0  0  0  0  0  0  0  0  0  0  0  0
   25.4556  -19.0403   -9.5625 C   0  0  0  0  0  0  0  0  0  0  0  0
   25.1813  -20.0305   -8.6365 C   0  0  0  0  0  0  0  0  0  0  0  0
   25.5314  -21.3435   -8.9310 C   0  0  0  0  0  0  0  0  0  0  0  0
   26.1516  -21.6487  -10.1486 C   0  0  0  0  0  0  0  0  0  0  0  0
   24.9218  -20.8344  -13.6168 C   0  0  0  0  0  0  0  0  0  0  0  0
   24.9083  -19.7050  -14.1699 O   0  0  0  0  0  0  0  0  0  0  0  0
   22.5561  -21.1855  -15.7812 C   0  0  0  0  0  0  0  0  0  0  0  0
   21.6779  -21.2761  -14.5518 C   0  0  1  0  0  0  0  0  0  0  0  0
   21.4328  -22.6032  -14.2920 O   0  0  0  0  0  0  0  0  0  0  0  0
   22.4345  -20.6014  -13.4143 C   0  0  2  0  0  0  0  0  0  0  0  0
   23.6655  -21.3732  -13.2268 N   0  0  0  0  0  0  0  0  0  0  0  0
   21.6651  -20.6274  -12.1713 C   0  0  0  0  0  0  0  0  0  0  0  0
   22.0775  -21.2866  -11.1886 O   0  0  0  0  0  0  0  0  0  0  0  0
   20.4844  -19.9334  -12.0594 O   0  0  0  0  0  0  0  0  0  0  0  0
  2  1  1  6
  2  8  1  0
  2  3  1  0
  4  3  1  0
  5  4  1  0
  6  5  1  0
  7  6  1  0
  8  9  2  0
 10 11  1  0
 10  8  1  0
 12 13  1  0
 11 12  1  1
 13 18  2  0
 14 15  2  0
 14 13  1  0
 15 16  1  0
 16 17  2  0
 18 17  1  0
 19 20  2  0
 19 11  1  0
 22 21  1  6
 22 24  1  0
 23 22  1  0
 24 26  1  0
 24 25  1  1
 25 19  1  0
 26 28  1  0
 27 26  2  0
M  END
$$$$
