GTS.pdb
     RDKit          3D

 18 17  0  0  1  0  0  0  0  0999 V2000
    8.4339  -16.9253   15.6422 N   0  0  0  0  0  0  0  0  0  0  0  0
    7.6488  -16.7810   16.8390 C   0  0  0  0  0  0  0  0  0  0  0  0
    8.4864  -16.1643   17.9009 C   0  0  0  0  0  0  0  0  0  0  0  0
    9.7348  -16.0949   17.7511 O   0  0  0  0  0  0  0  0  0  0  0  0
    7.3079  -12.9584   19.8685 C   0  0  0  0  0  0  0  0  0  0  0  0
    7.9126  -13.9313   20.8571 C   0  0  1  0  0  0  0  0  0  0  0  0
    6.9610  -14.5207   21.6548 O   0  0  0  0  0  0  0  0  0  0  0  0
    8.6949  -14.9861   20.1012 C   0  0  2  0  0  0  0  0  0  0  0  0
    7.9108  -15.6408   19.1025 N   0  0  0  0  0  0  0  0  0  0  0  0
    9.3046  -15.9718   21.0312 C   0  0  0  0  0  0  0  0  0  0  0  0
    8.8861  -17.1392   21.1373 O   0  0  0  0  0  0  0  0  0  0  0  0
   13.1457  -17.2459   23.6767 O   0  0  0  0  0  0  0  0  0  0  0  0
   12.5657  -16.3760   22.7658 C   0  0  0  0  0  0  0  0  0  0  0  0
   11.0644  -16.4845   22.7720 C   0  0  2  0  0  0  0  0  0  0  0  0
   10.4167  -15.6101   21.8556 N   0  0  0  0  0  0  0  0  0  0  0  0
   10.5998  -16.3591   24.1591 C   0  0  0  0  0  0  0  0  0  0  0  0
    9.8504  -15.4090   24.4779 O   0  0  0  0  0  0  0  0  0  0  0  0
   10.9837  -17.2774   25.1030 O   0  0  0  0  0  0  0  0  0  0  0  0
  2  1  1  0
  3  2  1  0
  4  3  2  0
  6  5  1  6
  6  7  1  0
  6  8  1  0
  8  9  1  6
  9  3  1  0
 10  8  1  0
 10 15  1  0
 11 10  2  0
 12 13  1  0
 14 15  1  0
 14 13  1  1
 14 16  1  0
 16 18  1  0
 17 16  2  0
M  END
$$$$
