GTS.pdb
     RDKit          3D

 18 17  0  0  1  0  0  0  0  0999 V2000
    2.4540  -19.7215   22.1965 N   0  0  0  0  0  0  0  0  0  0  0  0
    3.1332  -18.4947   21.8758 C   0  0  0  0  0  0  0  0  0  0  0  0
    4.5994  -18.7391   21.8566 C   0  0  0  0  0  0  0  0  0  0  0  0
    5.0565  -19.8324   22.2824 O   0  0  0  0  0  0  0  0  0  0  0  0
    6.6817  -18.6216   18.8554 C   0  0  0  0  0  0  0  0  0  0  0  0
    7.4354  -17.7526   19.8384 C   0  0  1  0  0  0  0  0  0  0  0  0
    7.3318  -16.4158   19.5361 O   0  0  0  0  0  0  0  0  0  0  0  0
    6.9169  -18.0195   21.2370 C   0  0  2  0  0  0  0  0  0  0  0  0
    5.5181  -17.7585   21.3631 N   0  0  0  0  0  0  0  0  0  0  0  0
    7.6942  -17.2615   22.2516 C   0  0  0  0  0  0  0  0  0  0  0  0
    7.3576  -16.1291   22.6435 O   0  0  0  0  0  0  0  0  0  0  0  0
    8.7786  -18.0166   25.7148 O   0  0  0  0  0  0  0  0  0  0  0  0
    9.9691  -17.8257   25.0299 C   0  0  0  0  0  0  0  0  0  0  0  0
    9.7488  -17.1221   23.7176 C   0  0  2  0  0  0  0  0  0  0  0  0
    8.8815  -17.8146   22.8276 N   0  0  0  0  0  0  0  0  0  0  0  0
   11.0606  -16.7901   23.1478 C   0  0  0  0  0  0  0  0  0  0  0  0
   11.3975  -17.2751   22.0444 O   0  0  0  0  0  0  0  0  0  0  0  0
   11.9147  -15.9527   23.8192 O   0  0  0  0  0  0  0  0  0  0  0  0
  2  1  1  0
  3  2  1  0
  4  3  2  0
  6  5  1  6
  6  7  1  0
  6  8  1  0
  8  9  1  6
  9  3  1  0
 10  8  1  0
 10 15  1  0
 11 10  2  0
 12 13  1  0
 14 15  1  0
 14 13  1  1
 14 16  1  0
 16 18  1  0
 17 16  2  0
M  END
$$$$
