GTS.pdb
     RDKit          3D

 18 17  0  0  1  0  0  0  0  0999 V2000
   11.1620  -16.0913   15.9826 N   0  0  0  0  0  0  0  0  0  0  0  0
    9.9167  -16.2446   16.6863 C   0  0  0  0  0  0  0  0  0  0  0  0
   10.0317  -15.6109   18.0260 C   0  0  0  0  0  0  0  0  0  0  0  0
   11.1689  -15.3387   18.4933 O   0  0  0  0  0  0  0  0  0  0  0  0
    7.5036  -12.8562   19.6126 C   0  0  0  0  0  0  0  0  0  0  0  0
    7.7259  -14.0188   20.5552 C   0  0  1  0  0  0  0  0  0  0  0  0
    6.6467  -14.8691   20.5954 O   0  0  0  0  0  0  0  0  0  0  0  0
    8.9735  -14.7686   20.1340 C   0  0  2  0  0  0  0  0  0  0  0  0
    8.8761  -15.2968   18.8102 N   0  0  0  0  0  0  0  0  0  0  0  0
    9.3138  -15.8360   21.1101 C   0  0  0  0  0  0  0  0  0  0  0  0
    9.1421  -17.0446   20.8669 O   0  0  0  0  0  0  0  0  0  0  0  0
   10.0081  -14.8449   25.1565 O   0  0  0  0  0  0  0  0  0  0  0  0
   10.8012  -15.8554   24.6339 C   0  0  0  0  0  0  0  0  0  0  0  0
   10.1895  -16.4591   23.3981 C   0  0  2  0  0  0  0  0  0  0  0  0
    9.8621  -15.5094   22.3908 N   0  0  0  0  0  0  0  0  0  0  0  0
    9.0695  -17.3144   23.8100 C   0  0  0  0  0  0  0  0  0  0  0  0
    9.2877  -18.3220   24.5194 O   0  0  0  0  0  0  0  0  0  0  0  0
    7.7891  -17.0131   23.4207 O   0  0  0  0  0  0  0  0  0  0  0  0
  2  1  1  0
  3  2  1  0
  4  3  2  0
  6  5  1  6
  6  7  1  0
  6  8  1  0
  8  9  1  6
  9  3  1  0
 10  8  1  0
 10 15  1  0
 11 10  2  0
 12 13  1  0
 14 15  1  0
 14 13  1  1
 14 16  1  0
 16 18  1  0
 17 16  2  0
M  END
$$$$
