GTS.pdb
     RDKit          3D

 18 17  0  0  1  0  0  0  0  0999 V2000
    6.9244  -12.5561   18.4338 N   0  0  0  0  0  0  0  0  0  0  0  0
    8.2488  -13.1112   18.5185 C   0  0  0  0  0  0  0  0  0  0  0  0
    8.2464  -14.2332   19.4936 C   0  0  0  0  0  0  0  0  0  0  0  0
    7.2836  -14.3632   20.2946 O   0  0  0  0  0  0  0  0  0  0  0  0
    9.5805  -18.6911   20.8567 C   0  0  0  0  0  0  0  0  0  0  0  0
    9.7234  -17.5798   19.8397 C   0  0  1  0  0  0  0  0  0  0  0  0
    8.9721  -17.8079   18.7115 O   0  0  0  0  0  0  0  0  0  0  0  0
    9.3274  -16.2653   20.4810 C   0  0  2  0  0  0  0  0  0  0  0  0
    9.3173  -15.1814   19.5505 N   0  0  0  0  0  0  0  0  0  0  0  0
   10.1913  -15.9563   21.6499 C   0  0  0  0  0  0  0  0  0  0  0  0
   11.3904  -15.6441   21.5318 O   0  0  0  0  0  0  0  0  0  0  0  0
    8.4778  -16.1157   25.5061 O   0  0  0  0  0  0  0  0  0  0  0  0
    9.5559  -15.2638   25.3193 C   0  0  0  0  0  0  0  0  0  0  0  0
   10.4078  -15.6924   24.1546 C   0  0  2  0  0  0  0  0  0  0  0  0
    9.6681  -16.0067   22.9807 N   0  0  0  0  0  0  0  0  0  0  0  0
   11.3040  -16.7627   24.6095 C   0  0  0  0  0  0  0  0  0  0  0  0
   11.1798  -17.9160   24.1400 O   0  0  0  0  0  0  0  0  0  0  0  0
   12.2735  -16.5026   25.5444 O   0  0  0  0  0  0  0  0  0  0  0  0
  2  1  1  0
  3  2  1  0
  4  3  2  0
  6  5  1  1
  6  7  1  0
  6  8  1  0
  8  9  1  6
  9  3  1  0
 10  8  1  0
 10 15  1  0
 11 10  2  0
 12 13  1  0
 14 15  1  0
 14 13  1  1
 14 16  1  0
 16 18  1  0
 17 16  2  0
M  END
$$$$
