GTS.pdb
     RDKit          3D

 18 17  0  0  1  0  0  0  0  0999 V2000
    7.9920  -13.3054   16.1033 N   0  0  0  0  0  0  0  0  0  0  0  0
    8.8882  -13.4779   17.2152 C   0  0  0  0  0  0  0  0  0  0  0  0
    8.1854  -14.2133   18.2992 C   0  0  0  0  0  0  0  0  0  0  0  0
    7.0829  -14.7733   18.0617 O   0  0  0  0  0  0  0  0  0  0  0  0
    7.6986  -16.7864   18.6887 C   0  0  0  0  0  0  0  0  0  0  0  0
    8.4106  -16.7007   20.0211 C   0  0  1  0  0  0  0  0  0  0  0  0
    9.7318  -17.0682   19.9290 O   0  0  0  0  0  0  0  0  0  0  0  0
    8.2913  -15.2890   20.5585 C   0  0  2  0  0  0  0  0  0  0  0  0
    8.7298  -14.3053   19.6200 N   0  0  0  0  0  0  0  0  0  0  0  0
    9.0051  -15.1454   21.8538 C   0  0  0  0  0  0  0  0  0  0  0  0
   10.1806  -14.7432   21.9290 O   0  0  0  0  0  0  0  0  0  0  0  0
    6.8880  -14.2280   25.0773 O   0  0  0  0  0  0  0  0  0  0  0  0
    7.9078  -15.0814   25.4707 C   0  0  0  0  0  0  0  0  0  0  0  0
    8.9239  -15.2746   24.3771 C   0  0  2  0  0  0  0  0  0  0  0  0
    8.3565  -15.4700   23.0872 N   0  0  0  0  0  0  0  0  0  0  0  0
    9.8543  -16.3307   24.7950 C   0  0  0  0  0  0  0  0  0  0  0  0
    9.9639  -17.3686   24.1044 O   0  0  0  0  0  0  0  0  0  0  0  0
   10.6010  -16.1832   25.9361 O   0  0  0  0  0  0  0  0  0  0  0  0
  2  1  1  0
  3  2  1  0
  4  3  2  0
  6  5  1  6
  6  7  1  0
  6  8  1  0
  8  9  1  6
  9  3  1  0
 10  8  1  0
 10 15  1  0
 11 10  2  0
 12 13  1  0
 14 15  1  0
 14 13  1  1
 14 16  1  0
 16 18  1  0
 17 16  2  0
M  END
$$$$
