GTS.pdb
     RDKit          3D

 18 17  0  0  1  0  0  0  0  0999 V2000
    9.4406  -18.2041   16.2914 N   0  0  0  0  0  0  0  0  0  0  0  0
    8.3607  -17.6009   17.0257 C   0  0  0  0  0  0  0  0  0  0  0  0
    8.9217  -16.7139   18.0785 C   0  0  0  0  0  0  0  0  0  0  0  0
   10.1616  -16.7115   18.2984 O   0  0  0  0  0  0  0  0  0  0  0  0
    8.4149  -12.8130   21.0367 C   0  0  0  0  0  0  0  0  0  0  0  0
    7.7164  -13.7712   20.0966 C   0  0  1  0  0  0  0  0  0  0  0  0
    7.3689  -13.1733   18.9087 O   0  0  0  0  0  0  0  0  0  0  0  0
    8.6160  -14.9641   19.8441 C   0  0  2  0  0  0  0  0  0  0  0  0
    8.0861  -15.8526   18.8589 N   0  0  0  0  0  0  0  0  0  0  0  0
    8.9166  -15.6869   21.1071 C   0  0  0  0  0  0  0  0  0  0  0  0
    8.1357  -16.5190   21.6040 O   0  0  0  0  0  0  0  0  0  0  0  0
   12.8500  -15.9031   22.2047 O   0  0  0  0  0  0  0  0  0  0  0  0
   12.0195  -15.9402   23.3145 C   0  0  0  0  0  0  0  0  0  0  0  0
   10.5890  -16.2078   22.9297 C   0  0  2  0  0  0  0  0  0  0  0  0
   10.1380  -15.4495   21.8137 N   0  0  0  0  0  0  0  0  0  0  0  0
    9.7561  -16.0703   24.1308 C   0  0  0  0  0  0  0  0  0  0  0  0
    8.8242  -15.2351   24.1463 O   0  0  0  0  0  0  0  0  0  0  0  0
    9.9957  -16.8521   25.2322 O   0  0  0  0  0  0  0  0  0  0  0  0
  2  1  1  0
  3  2  1  0
  4  3  2  0
  6  5  1  1
  6  7  1  0
  6  8  1  0
  8  9  1  6
  9  3  1  0
 10  8  1  0
 10 15  1  0
 11 10  2  0
 12 13  1  0
 14 15  1  0
 14 13  1  1
 14 16  1  0
 16 18  1  0
 17 16  2  0
M  END
$$$$
