GTS.pdb
     RDKit          3D

 18 17  0  0  1  0  0  0  0  0999 V2000
    6.1732  -18.9567   16.9199 N   0  0  0  0  0  0  0  0  0  0  0  0
    6.0493  -19.8412   18.0476 C   0  0  0  0  0  0  0  0  0  0  0  0
    5.7987  -19.0378   19.2729 C   0  0  0  0  0  0  0  0  0  0  0  0
    5.9634  -17.7897   19.2467 O   0  0  0  0  0  0  0  0  0  0  0  0
    2.6487  -18.9595   21.2488 C   0  0  0  0  0  0  0  0  0  0  0  0
    3.7332  -19.2292   22.2691 C   0  0  1  0  0  0  0  0  0  0  0  0
    3.7249  -20.5330   22.7041 O   0  0  0  0  0  0  0  0  0  0  0  0
    5.0796  -18.8820   21.6670 C   0  0  2  0  0  0  0  0  0  0  0  0
    5.3710  -19.6465   20.4960 N   0  0  0  0  0  0  0  0  0  0  0  0
    6.1666  -19.0108   22.6719 C   0  0  0  0  0  0  0  0  0  0  0  0
    7.0152  -19.9202   22.6267 O   0  0  0  0  0  0  0  0  0  0  0  0
    6.1695  -16.3503   25.9139 O   0  0  0  0  0  0  0  0  0  0  0  0
    7.4130  -16.8423   25.5468 C   0  0  0  0  0  0  0  0  0  0  0  0
    7.2944  -18.1129   24.7484 C   0  0  2  0  0  0  0  0  0  0  0  0
    6.2815  -18.0772   23.7501 N   0  0  0  0  0  0  0  0  0  0  0  0
    7.1800  -19.2366   25.6863 C   0  0  0  0  0  0  0  0  0  0  0  0
    6.2055  -20.0172   25.6020 O   0  0  0  0  0  0  0  0  0  0  0  0
    8.1350  -19.4324   26.6514 O   0  0  0  0  0  0  0  0  0  0  0  0
  2  1  1  0
  3  2  1  0
  4  3  2  0
  6  5  1  6
  6  7  1  0
  6  8  1  0
  8  9  1  6
  9  3  1  0
 10  8  1  0
 10 15  1  0
 11 10  2  0
 12 13  1  0
 14 15  1  0
 14 13  1  1
 14 16  1  0
 16 18  1  0
 17 16  2  0
M  END
$$$$
