GTS.pdb
     RDKit          3D

 18 17  0  0  1  0  0  0  0  0999 V2000
    4.1940  -18.4153   19.7724 N   0  0  0  0  0  0  0  0  0  0  0  0
    4.4175  -17.0915   20.2890 C   0  0  0  0  0  0  0  0  0  0  0  0
    5.8754  -16.8012   20.2738 C   0  0  0  0  0  0  0  0  0  0  0  0
    6.6831  -17.6781   19.8686 O   0  0  0  0  0  0  0  0  0  0  0  0
    7.2224  -12.7860   20.5979 C   0  0  0  0  0  0  0  0  0  0  0  0
    7.9639  -13.8699   19.8463 C   0  0  1  0  0  0  0  0  0  0  0  0
    9.3024  -13.5873   19.7127 O   0  0  0  0  0  0  0  0  0  0  0  0
    7.7722  -15.1914   20.5624 C   0  0  2  0  0  0  0  0  0  0  0  0
    6.3951  -15.5410   20.7107 N   0  0  0  0  0  0  0  0  0  0  0  0
    8.4678  -15.1965   21.8755 C   0  0  0  0  0  0  0  0  0  0  0  0
    8.0153  -14.6082   22.8747 O   0  0  0  0  0  0  0  0  0  0  0  0
   10.2339  -18.2558   23.4539 O   0  0  0  0  0  0  0  0  0  0  0  0
   10.2178  -17.0547   24.1468 C   0  0  0  0  0  0  0  0  0  0  0  0
   10.4832  -15.8848   23.2374 C   0  0  2  0  0  0  0  0  0  0  0  0
    9.7075  -15.8907   22.0448 N   0  0  0  0  0  0  0  0  0  0  0  0
   11.9317  -15.7933   23.0163 C   0  0  0  0  0  0  0  0  0  0  0  0
   12.3796  -15.7659   21.8481 O   0  0  0  0  0  0  0  0  0  0  0  0
   12.7923  -15.7381   24.0831 O   0  0  0  0  0  0  0  0  0  0  0  0
  2  1  1  0
  3  2  1  0
  4  3  2  0
  6  5  1  1
  6  7  1  0
  6  8  1  0
  8  9  1  1
  9  3  1  0
 10  8  1  0
 10 15  1  0
 11 10  2  0
 12 13  1  0
 14 15  1  0
 14 13  1  6
 14 16  1  0
 16 18  1  0
 17 16  2  0
M  END
$$$$
