GTS.pdb
     RDKit          3D

 18 17  0  0  1  0  0  0  0  0999 V2000
    3.7238  -18.4566   21.4740 N   0  0  0  0  0  0  0  0  0  0  0  0
    4.1134  -17.0807   21.6302 C   0  0  0  0  0  0  0  0  0  0  0  0
    5.5473  -16.9349   21.2663 C   0  0  0  0  0  0  0  0  0  0  0  0
    6.2441  -17.9607   21.0477 O   0  0  0  0  0  0  0  0  0  0  0  0
    7.3852  -13.0625   20.4882 C   0  0  0  0  0  0  0  0  0  0  0  0
    7.8228  -14.3754   19.8761 C   0  0  1  0  0  0  0  0  0  0  0  0
    9.1480  -14.3628   19.5115 O   0  0  0  0  0  0  0  0  0  0  0  0
    7.5567  -15.4960   20.8606 C   0  0  2  0  0  0  0  0  0  0  0  0
    6.1674  -15.6494   21.1555 N   0  0  0  0  0  0  0  0  0  0  0  0
    8.3491  -15.3172   22.1049 C   0  0  0  0  0  0  0  0  0  0  0  0
    8.0231  -14.5114   22.9958 O   0  0  0  0  0  0  0  0  0  0  0  0
   10.0454  -18.1587   24.1113 O   0  0  0  0  0  0  0  0  0  0  0  0
   10.1955  -16.8573   24.5660 C   0  0  0  0  0  0  0  0  0  0  0  0
   10.4222  -15.8947   23.4311 C   0  0  2  0  0  0  0  0  0  0  0  0
    9.5394  -16.0784   22.3307 N   0  0  0  0  0  0  0  0  0  0  0  0
   11.8465  -15.9292   23.0763 C   0  0  0  0  0  0  0  0  0  0  0  0
   12.1853  -16.1725   21.8964 O   0  0  0  0  0  0  0  0  0  0  0  0
   12.8033  -15.6962   24.0312 O   0  0  0  0  0  0  0  0  0  0  0  0
  2  1  1  0
  3  2  1  0
  4  3  2  0
  6  5  1  1
  6  7  1  0
  6  8  1  0
  8  9  1  1
  9  3  1  0
 10  8  1  0
 10 15  1  0
 11 10  2  0
 12 13  1  0
 14 15  1  0
 14 13  1  1
 14 16  1  0
 16 18  1  0
 17 16  2  0
M  END
$$$$
