GTS.pdb
     RDKit          3D

 18 17  0  0  1  0  0  0  0  0999 V2000
    8.1027  -12.9798   16.7752 N   0  0  0  0  0  0  0  0  0  0  0  0
    9.0102  -13.7958   17.5366 C   0  0  0  0  0  0  0  0  0  0  0  0
    8.3086  -14.3132   18.7407 C   0  0  0  0  0  0  0  0  0  0  0  0
    7.1920  -13.8323   19.0684 O   0  0  0  0  0  0  0  0  0  0  0  0
    6.9077  -17.4625   19.4140 C   0  0  0  0  0  0  0  0  0  0  0  0
    7.8172  -17.2932   20.6115 C   0  0  1  0  0  0  0  0  0  0  0  0
    8.9305  -18.0958   20.5362 O   0  0  0  0  0  0  0  0  0  0  0  0
    8.2224  -15.8376   20.7260 C   0  0  2  0  0  0  0  0  0  0  0  0
    8.8698  -15.3535   19.5482 N   0  0  0  0  0  0  0  0  0  0  0  0
    9.0632  -15.6074   21.9294 C   0  0  0  0  0  0  0  0  0  0  0  0
   10.3071  -15.6050   21.8860 O   0  0  0  0  0  0  0  0  0  0  0  0
    7.1295  -14.7680   25.5798 O   0  0  0  0  0  0  0  0  0  0  0  0
    8.4273  -14.3065   25.4191 C   0  0  0  0  0  0  0  0  0  0  0  0
    9.1861  -15.1228   24.4073 C   0  0  2  0  0  0  0  0  0  0  0  0
    8.4640  -15.3753   23.2079 N   0  0  0  0  0  0  0  0  0  0  0  0
    9.6910  -16.3291   25.0748 C   0  0  0  0  0  0  0  0  0  0  0  0
    9.2654  -17.4535   24.7274 O   0  0  0  0  0  0  0  0  0  0  0  0
   10.6247  -16.2272   26.0746 O   0  0  0  0  0  0  0  0  0  0  0  0
  2  1  1  0
  3  2  1  0
  4  3  2  0
  6  5  1  6
  6  7  1  0
  6  8  1  0
  8  9  1  6
  9  3  1  0
 10  8  1  0
 10 15  1  0
 11 10  2  0
 12 13  1  0
 14 15  1  0
 14 13  1  1
 14 16  1  0
 16 18  1  0
 17 16  2  0
M  END
$$$$
