GTS.pdb
     RDKit          3D

 18 17  0  0  1  0  0  0  0  0999 V2000
   -1.6890  -27.0797   30.6806 N   0  0  0  0  0  0  0  0  0  0  0  0
   -2.8128  -26.9876   29.7874 C   0  0  0  0  0  0  0  0  0  0  0  0
   -3.4071  -25.6289   29.8889 C   0  0  0  0  0  0  0  0  0  0  0  0
   -3.6760  -25.1472   31.0208 O   0  0  0  0  0  0  0  0  0  0  0  0
   -4.6178  -21.3130   27.8534 C   0  0  0  0  0  0  0  0  0  0  0  0
   -4.0264  -22.6853   27.6155 C   0  0  1  0  0  0  0  0  0  0  0  0
   -2.6700  -22.6362   27.3986 O   0  0  0  0  0  0  0  0  0  0  0  0
   -4.3395  -23.5740   28.8021 C   0  0  2  0  0  0  0  0  0  0  0  0
   -3.6863  -24.8422   28.7260 N   0  0  0  0  0  0  0  0  0  0  0  0
   -5.8058  -23.7394   28.9771 C   0  0  0  0  0  0  0  0  0  0  0  0
   -6.4885  -24.4761   28.2419 O   0  0  0  0  0  0  0  0  0  0  0  0
   -9.6030  -23.7901   31.8248 O   0  0  0  0  0  0  0  0  0  0  0  0
   -8.2327  -23.7094   31.6282 C   0  0  0  0  0  0  0  0  0  0  0  0
   -7.8978  -23.1542   30.2698 C   0  0  2  0  0  0  0  0  0  0  0  0
   -6.5022  -23.0452   30.0166 N   0  0  0  0  0  0  0  0  0  0  0  0
   -8.6452  -21.9037   30.0869 C   0  0  0  0  0  0  0  0  0  0  0  0
   -8.1961  -20.8380   30.5652 O   0  0  0  0  0  0  0  0  0  0  0  0
   -9.8300  -21.9005   29.3957 O   0  0  0  0  0  0  0  0  0  0  0  0
  2  1  1  0
  3  2  1  0
  4  3  2  0
  6  5  1  1
  6  7  1  0
  6  8  1  0
  8  9  1  6
  9  3  1  0
 10  8  1  0
 10 15  1  0
 11 10  2  0
 12 13  1  0
 14 15  1  0
 14 13  1  1
 14 16  1  0
 16 18  1  0
 17 16  2  0
M  END
$$$$
