GTS.pdb
     RDKit          3D

 18 17  0  0  1  0  0  0  0  0999 V2000
    8.4902  -15.4983   15.1258 N   0  0  0  0  0  0  0  0  0  0  0  0
    8.0385  -16.1152   16.3443 C   0  0  0  0  0  0  0  0  0  0  0  0
    8.7923  -15.5420   17.4902 C   0  0  0  0  0  0  0  0  0  0  0  0
    9.8956  -14.9696   17.2890 O   0  0  0  0  0  0  0  0  0  0  0  0
    7.4428  -13.0071   19.6584 C   0  0  0  0  0  0  0  0  0  0  0  0
    8.0052  -14.0046   20.6475 C   0  0  1  0  0  0  0  0  0  0  0  0
    7.0174  -14.7050   21.2979 O   0  0  0  0  0  0  0  0  0  0  0  0
    8.9352  -14.9548   19.9207 C   0  0  2  0  0  0  0  0  0  0  0  0
    8.2966  -15.6219   18.8308 N   0  0  0  0  0  0  0  0  0  0  0  0
    9.5457  -15.9316   20.8595 C   0  0  0  0  0  0  0  0  0  0  0  0
    9.1824  -17.1207   20.9175 O   0  0  0  0  0  0  0  0  0  0  0  0
   13.4465  -15.8848   21.9888 O   0  0  0  0  0  0  0  0  0  0  0  0
   12.6069  -15.9645   23.0896 C   0  0  0  0  0  0  0  0  0  0  0  0
   11.2174  -16.3915   22.6991 C   0  0  2  0  0  0  0  0  0  0  0  0
   10.5938  -15.5354   21.7492 N   0  0  0  0  0  0  0  0  0  0  0  0
   10.4390  -16.6023   23.9260 C   0  0  0  0  0  0  0  0  0  0  0  0
   10.8485  -17.4119   24.7880 O   0  0  0  0  0  0  0  0  0  0  0  0
    9.2684  -15.9168   24.1292 O   0  0  0  0  0  0  0  0  0  0  0  0
  2  1  1  0
  3  2  1  0
  4  3  2  0
  6  5  1  6
  6  7  1  0
  6  8  1  0
  8  9  1  6
  9  3  1  0
 10  8  1  0
 10 15  1  0
 11 10  2  0
 12 13  1  0
 14 15  1  0
 14 13  1  1
 14 16  1  0
 16 18  1  0
 17 16  2  0
M  END
$$$$
