GTS.pdb
     RDKit          3D

 18 17  0  0  1  0  0  0  0  0999 V2000
    8.2754  -15.4269   13.8545 N   0  0  0  0  0  0  0  0  0  0  0  0
    8.1138  -15.8739   15.2122 C   0  0  0  0  0  0  0  0  0  0  0  0
    8.9688  -15.0468   16.1035 C   0  0  0  0  0  0  0  0  0  0  0  0
    9.8912  -14.3455   15.6105 O   0  0  0  0  0  0  0  0  0  0  0  0
    7.8403  -12.6161   18.8456 C   0  0  0  0  0  0  0  0  0  0  0  0
    8.8393  -13.5569   19.4831 C   0  0  1  0  0  0  0  0  0  0  0  0
    8.2360  -14.4692   20.3157 O   0  0  0  0  0  0  0  0  0  0  0  0
    9.6164  -14.2689   18.3945 C   0  0  2  0  0  0  0  0  0  0  0  0
    8.7736  -15.0227   17.5215 N   0  0  0  0  0  0  0  0  0  0  0  0
   10.6875  -15.1229   18.9702 C   0  0  0  0  0  0  0  0  0  0  0  0
   10.5581  -16.3526   19.1137 O   0  0  0  0  0  0  0  0  0  0  0  0
   14.6508  -14.3767   18.4665 O   0  0  0  0  0  0  0  0  0  0  0  0
   14.3527  -14.6262   19.7977 C   0  0  0  0  0  0  0  0  0  0  0  0
   13.0110  -15.2909   19.9517 C   0  0  2  0  0  0  0  0  0  0  0  0
   11.9317  -14.5541   19.3894 N   0  0  0  0  0  0  0  0  0  0  0  0
   12.8315  -15.6426   21.3658 C   0  0  0  0  0  0  0  0  0  0  0  0
   11.8348  -15.2136   21.9892 O   0  0  0  0  0  0  0  0  0  0  0  0
   13.7501  -16.4373   22.0031 O   0  0  0  0  0  0  0  0  0  0  0  0
  2  1  1  0
  3  2  1  0
  4  3  2  0
  6  5  1  6
  6  7  1  0
  6  8  1  0
  8  9  1  1
  9  3  1  0
 10  8  1  0
 10 15  1  0
 11 10  2  0
 12 13  1  0
 14 15  1  0
 14 13  1  1
 14 16  1  0
 16 18  1  0
 17 16  2  0
M  END
$$$$
