DEC.pdb
     RDKit          3D

 24 23  0  0  1  0  0  0  0  0999 V2000
   23.9267  -18.4286  -17.6396 N   0  0  0  0  0  0  0  0  0  0  0  0
   24.1513  -18.4289  -16.2286 C   0  0  1  0  0  0  0  0  0  0  0  0
   25.2961  -17.5494  -15.8172 C   0  0  0  0  0  0  0  0  0  0  0  0
   26.5445  -18.0933  -16.3858 C   0  0  0  0  0  0  0  0  0  0  0  0
   27.5565  -17.3755  -16.4625 O   0  0  0  0  0  0  0  0  0  0  0  0
   22.9114  -18.0832  -15.4653 C   0  0  0  0  0  0  0  0  0  0  0  0
   23.0110  -17.9866  -14.2263 O   0  0  0  0  0  0  0  0  0  0  0  0
   26.5098  -19.4299  -16.8183 O   0  0  0  0  0  0  0  0  0  0  0  0
   21.6759  -17.8694  -16.0706 N   0  0  0  0  0  0  0  0  0  0  0  0
   20.5008  -17.5841  -15.2224 C   0  0  1  0  0  0  0  0  0  0  0  0
   19.7519  -16.4353  -15.8175 C   0  0  0  0  0  0  0  0  0  0  0  0
   20.2200  -15.1185  -15.3177 C   0  0  0  0  0  0  0  0  0  0  0  0
   19.4604  -13.9455  -15.8016 C   0  0  0  0  0  0  0  0  0  0  0  0
   19.9796  -13.2089  -16.6659 O   0  0  0  0  0  0  0  0  0  0  0  0
   19.7459  -18.8501  -15.1319 C   0  0  0  0  0  0  0  0  0  0  0  0
   19.4905  -19.4726  -16.2202 O   0  0  0  0  0  0  0  0  0  0  0  0
   18.2056  -13.6100  -15.3564 O   0  0  0  0  0  0  0  0  0  0  0  0
   19.2791  -19.4441  -13.9366 N   0  0  0  0  0  0  0  0  0  0  0  0
   18.4953  -20.6453  -13.8736 C   0  0  1  0  0  0  0  0  0  0  0  0
   18.9428  -21.6357  -12.8531 C   0  0  0  0  0  0  0  0  0  0  0  0
   20.7686  -21.6662  -12.7580 S   0  0  0  0  0  0  0  0  0  0  0  0
   17.0277  -20.3749  -13.8299 C   0  0  0  0  0  0  0  0  0  0  0  0
   16.5928  -19.2145  -13.7491 O   0  0  0  0  0  0  0  0  0  0  0  0
   16.1319  -21.4230  -13.8794 O   0  0  0  0  0  0  0  0  0  0  0  0
  2  1  1  6
  2  3  1  0
  3  4  1  0
  4  5  2  0
  4  8  1  0
  6  2  1  0
  6  9  1  0
  7  6  2  0
 10  9  1  0
 10 15  1  0
 10 11  1  6
 12 11  1  0
 13 12  1  0
 14 13  2  0
 15 18  1  0
 16 15  2  0
 17 13  1  0
 18 19  1  0
 19 20  1  1
 19 22  1  0
 20 21  1  0
 22 24  1  0
 23 22  2  0
M  END
$$$$
