DEC.pdb
     RDKit          3D

 24 23  0  0  1  0  0  0  0  0999 V2000
   16.3773  -12.5753  -14.8773 N   0  0  0  0  0  0  0  0  0  0  0  0
   16.1535  -11.3808  -15.6286 C   0  0  1  0  0  0  0  0  0  0  0  0
   14.7522  -10.8592  -15.4965 C   0  0  0  0  0  0  0  0  0  0  0  0
   13.8553  -11.6831  -16.3297 C   0  0  0  0  0  0  0  0  0  0  0  0
   14.2614  -12.7581  -16.8037 O   0  0  0  0  0  0  0  0  0  0  0  0
   17.1527  -10.3170  -15.2975 C   0  0  0  0  0  0  0  0  0  0  0  0
   17.5787  -10.2772  -14.1266 O   0  0  0  0  0  0  0  0  0  0  0  0
   12.5585  -11.1853  -16.5416 O   0  0  0  0  0  0  0  0  0  0  0  0
   17.6164   -9.3886  -16.2257 N   0  0  0  0  0  0  0  0  0  0  0  0
   18.5920   -8.3672  -15.7934 C   0  0  1  0  0  0  0  0  0  0  0  0
   19.9232   -8.6992  -16.3871 C   0  0  0  0  0  0  0  0  0  0  0  0
   19.8864   -8.8046  -17.8671 C   0  0  0  0  0  0  0  0  0  0  0  0
   21.1718   -9.1441  -18.5148 C   0  0  0  0  0  0  0  0  0  0  0  0
   21.7857   -8.2512  -19.1353 O   0  0  0  0  0  0  0  0  0  0  0  0
   18.0269   -7.0650  -16.2006 C   0  0  0  0  0  0  0  0  0  0  0  0
   17.3986   -7.0081  -17.3137 O   0  0  0  0  0  0  0  0  0  0  0  0
   21.7407  -10.3933  -18.4776 O   0  0  0  0  0  0  0  0  0  0  0  0
   18.1154   -5.8638  -15.4598 N   0  0  0  0  0  0  0  0  0  0  0  0
   17.5728   -4.6030  -15.8806 C   0  0  1  0  0  0  0  0  0  0  0  0
   16.5132   -4.0460  -14.9920 C   0  0  0  0  0  0  0  0  0  0  0  0
   15.2695   -5.3301  -14.6075 S   0  0  0  0  0  0  0  0  0  0  0  0
   18.6295   -3.6092  -16.2338 C   0  0  0  0  0  0  0  0  0  0  0  0
   19.8341   -3.8835  -16.1074 O   0  0  0  0  0  0  0  0  0  0  0  0
   18.2733   -2.3638  -16.7089 O   0  0  0  0  0  0  0  0  0  0  0  0
  2  1  1  1
  2  3  1  0
  3  4  1  0
  4  5  2  0
  4  8  1  0
  6  2  1  0
  6  9  1  0
  7  6  2  0
 10  9  1  0
 10 15  1  0
 10 11  1  6
 12 11  1  0
 13 12  1  0
 14 13  2  0
 15 18  1  0
 16 15  2  0
 17 13  1  0
 18 19  1  0
 19 20  1  1
 19 22  1  0
 20 21  1  0
 22 24  1  0
 23 22  2  0
M  END
$$$$
