DEC.pdb
     RDKit          3D

 24 23  0  0  1  0  0  0  0  0999 V2000
   16.7668  -11.0305  -14.7734 N   0  0  0  0  0  0  0  0  0  0  0  0
   16.9926   -9.8893  -15.6028 C   0  0  1  0  0  0  0  0  0  0  0  0
   15.8923   -8.8722  -15.5124 C   0  0  0  0  0  0  0  0  0  0  0  0
   14.6523   -9.4605  -16.0543 C   0  0  0  0  0  0  0  0  0  0  0  0
   14.6932  -10.1569  -17.0832 O   0  0  0  0  0  0  0  0  0  0  0  0
   18.3243   -9.2603  -15.3375 C   0  0  0  0  0  0  0  0  0  0  0  0
   18.6641   -9.1219  -14.1460 O   0  0  0  0  0  0  0  0  0  0  0  0
   13.4663   -9.1883  -15.3515 O   0  0  0  0  0  0  0  0  0  0  0  0
   19.1820   -8.8320  -16.3472 N   0  0  0  0  0  0  0  0  0  0  0  0
   20.5493   -8.4003  -15.9925 C   0  0  1  0  0  0  0  0  0  0  0  0
   21.4896   -8.8803  -17.0508 C   0  0  0  0  0  0  0  0  0  0  0  0
   22.8814   -8.4070  -16.8458 C   0  0  0  0  0  0  0  0  0  0  0  0
   23.8651   -8.8633  -17.8513 C   0  0  0  0  0  0  0  0  0  0  0  0
   23.8585   -8.3328  -18.9816 O   0  0  0  0  0  0  0  0  0  0  0  0
   20.4837   -6.9345  -15.8247 C   0  0  0  0  0  0  0  0  0  0  0  0
   19.8617   -6.2584  -16.7152 O   0  0  0  0  0  0  0  0  0  0  0  0
   24.7969   -9.8449  -17.6193 O   0  0  0  0  0  0  0  0  0  0  0  0
   21.0493   -6.2045  -14.7539 N   0  0  0  0  0  0  0  0  0  0  0  0
   20.9678   -4.7790  -14.6043 C   0  0  1  0  0  0  0  0  0  0  0  0
   20.2470   -4.3145  -13.3848 C   0  0  0  0  0  0  0  0  0  0  0  0
   20.3342   -2.4928  -13.2528 S   0  0  0  0  0  0  0  0  0  0  0  0
   22.2828   -4.1016  -14.8066 C   0  0  0  0  0  0  0  0  0  0  0  0
   23.3025   -4.4940  -14.2163 O   0  0  0  0  0  0  0  0  0  0  0  0
   22.3779   -3.0219  -15.6604 O   0  0  0  0  0  0  0  0  0  0  0  0
  2  1  1  1
  2  3  1  0
  3  4  1  0
  4  5  2  0
  4  8  1  0
  6  2  1  0
  6  9  1  0
  7  6  2  0
 10  9  1  0
 10 15  1  0
 10 11  1  6
 12 11  1  0
 13 12  1  0
 14 13  2  0
 15 18  1  0
 16 15  2  0
 17 13  1  0
 18 19  1  0
 19 20  1  1
 19 22  1  0
 20 21  1  0
 22 24  1  0
 23 22  2  0
M  END
$$$$
