DEC.pdb
     RDKit          3D

 24 23  0  0  1  0  0  0  0  0999 V2000
   17.6837  -12.8910  -17.0694 N   0  0  0  0  0  0  0  0  0  0  0  0
   18.6423  -12.3638  -16.1505 C   0  0  1  0  0  0  0  0  0  0  0  0
   20.0121  -12.9502  -16.3318 C   0  0  0  0  0  0  0  0  0  0  0  0
   19.9881  -14.3617  -15.9022 C   0  0  0  0  0  0  0  0  0  0  0  0
   18.9728  -14.8278  -15.3572 O   0  0  0  0  0  0  0  0  0  0  0  0
   18.6919  -10.8687  -16.1912 C   0  0  0  0  0  0  0  0  0  0  0  0
   18.7606  -10.3292  -17.3130 O   0  0  0  0  0  0  0  0  0  0  0  0
   21.1504  -15.1136  -16.1437 O   0  0  0  0  0  0  0  0  0  0  0  0
   18.6650  -10.0717  -15.0498 N   0  0  0  0  0  0  0  0  0  0  0  0
   18.5854   -8.6045  -15.2005 C   0  0  1  0  0  0  0  0  0  0  0  0
   17.2846   -8.1374  -14.6310 C   0  0  0  0  0  0  0  0  0  0  0  0
   16.1385   -8.3612  -15.5471 C   0  0  0  0  0  0  0  0  0  0  0  0
   14.8263   -7.8892  -15.0547 C   0  0  0  0  0  0  0  0  0  0  0  0
   14.2333   -6.9932  -15.6907 O   0  0  0  0  0  0  0  0  0  0  0  0
   19.7922   -8.0610  -14.5453 C   0  0  0  0  0  0  0  0  0  0  0  0
   19.9911   -8.3596  -13.3172 O   0  0  0  0  0  0  0  0  0  0  0  0
   14.2105   -8.3787  -13.9292 O   0  0  0  0  0  0  0  0  0  0  0  0
   20.7600   -7.2350  -15.1623 N   0  0  0  0  0  0  0  0  0  0  0  0
   21.9182   -6.7014  -14.5027 C   0  0  1  0  0  0  0  0  0  0  0  0
   23.1946   -6.8437  -15.2596 C   0  0  0  0  0  0  0  0  0  0  0  0
   23.4560   -8.5891  -15.7382 S   0  0  0  0  0  0  0  0  0  0  0  0
   21.6966   -5.3233  -13.9729 C   0  0  0  0  0  0  0  0  0  0  0  0
   20.8799   -4.5556  -14.5074 O   0  0  0  0  0  0  0  0  0  0  0  0
   22.4050   -4.8857  -12.8727 O   0  0  0  0  0  0  0  0  0  0  0  0
  2  1  1  6
  2  3  1  0
  3  4  1  0
  4  5  2  0
  4  8  1  0
  6  2  1  0
  6  9  1  0
  7  6  2  0
 10  9  1  0
 10 15  1  0
 10 11  1  1
 12 11  1  0
 13 12  1  0
 14 13  2  0
 15 18  1  0
 16 15  2  0
 17 13  1  0
 18 19  1  0
 19 20  1  6
 19 22  1  0
 20 21  1  0
 22 24  1  0
 23 22  2  0
M  END
$$$$
