DEC.pdb
     RDKit          3D

 24 23  0  0  1  0  0  0  0  0999 V2000
   16.7691  -13.6640  -13.6394 N   0  0  0  0  0  0  0  0  0  0  0  0
   15.9265  -12.5174  -13.7695 C   0  0  1  0  0  0  0  0  0  0  0  0
   14.5318  -12.7551  -13.2680 C   0  0  0  0  0  0  0  0  0  0  0  0
   13.9216  -13.8460  -14.0522 C   0  0  0  0  0  0  0  0  0  0  0  0
   13.7674  -14.9681  -13.5400 O   0  0  0  0  0  0  0  0  0  0  0  0
   16.5265  -11.3071  -13.1256 C   0  0  0  0  0  0  0  0  0  0  0  0
   16.8730  -11.4068  -11.9322 O   0  0  0  0  0  0  0  0  0  0  0  0
   13.5415  -13.5384  -15.3696 O   0  0  0  0  0  0  0  0  0  0  0  0
   16.7097  -10.0984  -13.7920 N   0  0  0  0  0  0  0  0  0  0  0  0
   17.4304   -9.0045  -13.1096 C   0  0  1  0  0  0  0  0  0  0  0  0
   17.9985   -8.0894  -14.1461 C   0  0  0  0  0  0  0  0  0  0  0  0
   18.6646   -6.8979  -13.5633 C   0  0  0  0  0  0  0  0  0  0  0  0
   19.3630   -6.0214  -14.5282 C   0  0  0  0  0  0  0  0  0  0  0  0
   20.4561   -6.3983  -14.9996 O   0  0  0  0  0  0  0  0  0  0  0  0
   16.4558   -8.3862  -12.1883 C   0  0  0  0  0  0  0  0  0  0  0  0
   15.2578   -8.2232  -12.6072 O   0  0  0  0  0  0  0  0  0  0  0  0
   18.8810   -4.8049  -14.9444 O   0  0  0  0  0  0  0  0  0  0  0  0
   16.7304   -7.9579  -10.8690 N   0  0  0  0  0  0  0  0  0  0  0  0
   15.8084   -7.2401  -10.0348 C   0  0  1  0  0  0  0  0  0  0  0  0
   15.4974   -7.8950   -8.7322 C   0  0  0  0  0  0  0  0  0  0  0  0
   14.2671   -6.9095   -7.8055 S   0  0  0  0  0  0  0  0  0  0  0  0
   16.1569   -5.7947   -9.9003 C   0  0  0  0  0  0  0  0  0  0  0  0
   17.3274   -5.4030  -10.0374 O   0  0  0  0  0  0  0  0  0  0  0  0
   15.1711   -4.8711   -9.6196 O   0  0  0  0  0  0  0  0  0  0  0  0
  2  1  1  1
  2  3  1  0
  3  4  1  0
  4  5  2  0
  4  8  1  0
  6  2  1  0
  6  9  1  0
  7  6  2  0
 10  9  1  0
 10 15  1  0
 10 11  1  6
 12 11  1  0
 13 12  1  0
 14 13  2  0
 15 18  1  0
 16 15  2  0
 17 13  1  0
 18 19  1  0
 19 20  1  1
 19 22  1  0
 20 21  1  0
 22 24  1  0
 23 22  2  0
M  END
$$$$
