DEC.pdb
     RDKit          3D

 24 23  0  0  1  0  0  0  0  0999 V2000
   17.8921  -11.3300  -14.7444 N   0  0  0  0  0  0  0  0  0  0  0  0
   17.4510   -9.9730  -14.6709 C   0  0  1  0  0  0  0  0  0  0  0  0
   15.9872   -9.8159  -14.9636 C   0  0  0  0  0  0  0  0  0  0  0  0
   15.7448  -10.1504  -16.3803 C   0  0  0  0  0  0  0  0  0  0  0  0
   15.0138  -11.1115  -16.6752 O   0  0  0  0  0  0  0  0  0  0  0  0
   17.8045   -9.3407  -13.3614 C   0  0  0  0  0  0  0  0  0  0  0  0
   17.7325  -10.0561  -12.3430 O   0  0  0  0  0  0  0  0  0  0  0  0
   16.3750   -9.3362  -17.3365 O   0  0  0  0  0  0  0  0  0  0  0  0
   18.2027   -8.0123  -13.2370 N   0  0  0  0  0  0  0  0  0  0  0  0
   18.5954   -7.5022  -11.9076 C   0  0  1  0  0  0  0  0  0  0  0  0
   19.5698   -6.3842  -12.0956 C   0  0  0  0  0  0  0  0  0  0  0  0
   20.9075   -6.8510  -12.5379 C   0  0  0  0  0  0  0  0  0  0  0  0
   21.9045   -5.7874  -12.7866 C   0  0  0  0  0  0  0  0  0  0  0  0
   22.1365   -5.4456  -13.9649 O   0  0  0  0  0  0  0  0  0  0  0  0
   17.3390   -7.1354  -11.2237 C   0  0  0  0  0  0  0  0  0  0  0  0
   16.3810   -6.6787  -11.9385 O   0  0  0  0  0  0  0  0  0  0  0  0
   22.6002   -5.1436  -11.7931 O   0  0  0  0  0  0  0  0  0  0  0  0
   17.0962   -7.2495   -9.8354 N   0  0  0  0  0  0  0  0  0  0  0  0
   15.8870   -6.8361   -9.1811 C   0  0  1  0  0  0  0  0  0  0  0  0
   15.3573   -7.7974   -8.1723 C   0  0  0  0  0  0  0  0  0  0  0  0
   13.7598   -7.2037   -7.5094 S   0  0  0  0  0  0  0  0  0  0  0  0
   15.9534   -5.4313   -8.6800 C   0  0  0  0  0  0  0  0  0  0  0  0
   16.9531   -5.0152   -8.0720 O   0  0  0  0  0  0  0  0  0  0  0  0
   14.8932   -4.5737   -8.8902 O   0  0  0  0  0  0  0  0  0  0  0  0
  2  1  1  1
  2  3  1  0
  3  4  1  0
  4  5  2  0
  4  8  1  0
  6  2  1  0
  6  9  1  0
  7  6  2  0
 10  9  1  0
 10 15  1  0
 10 11  1  6
 12 11  1  0
 13 12  1  0
 14 13  2  0
 15 18  1  0
 16 15  2  0
 17 13  1  0
 18 19  1  0
 19 20  1  1
 19 22  1  0
 20 21  1  0
 22 24  1  0
 23 22  2  0
M  END
$$$$
