DEC.pdb
     RDKit          3D

 24 23  0  0  1  0  0  0  0  0999 V2000
   18.9462  -12.7417  -15.8935 N   0  0  0  0  0  0  0  0  0  0  0  0
   18.6369  -11.4036  -16.2872 C   0  0  1  0  0  0  0  0  0  0  0  0
   17.5746  -10.7726  -15.4349 C   0  0  0  0  0  0  0  0  0  0  0  0
   16.2719  -11.3815  -15.7665 C   0  0  0  0  0  0  0  0  0  0  0  0
   16.1298  -12.0007  -16.8349 O   0  0  0  0  0  0  0  0  0  0  0  0
   19.8585  -10.5411  -16.3435 C   0  0  0  0  0  0  0  0  0  0  0  0
   20.5493  -10.4601  -15.3089 O   0  0  0  0  0  0  0  0  0  0  0  0
   15.2420  -11.2179  -14.8246 O   0  0  0  0  0  0  0  0  0  0  0  0
   20.2470   -9.8395  -17.4817 N   0  0  0  0  0  0  0  0  0  0  0  0
   21.5374   -9.1209  -17.4763 C   0  0  1  0  0  0  0  0  0  0  0  0
   21.9864   -8.9382  -18.8905 C   0  0  0  0  0  0  0  0  0  0  0  0
   23.2611   -8.1859  -19.0001 C   0  0  0  0  0  0  0  0  0  0  0  0
   23.8092   -8.0548  -20.3673 C   0  0  0  0  0  0  0  0  0  0  0  0
   24.5875   -7.1100  -20.6141 O   0  0  0  0  0  0  0  0  0  0  0  0
   21.3063   -7.8727  -16.7218 C   0  0  0  0  0  0  0  0  0  0  0  0
   20.2228   -7.2304  -16.9467 O   0  0  0  0  0  0  0  0  0  0  0  0
   23.5139   -8.9155  -21.3956 O   0  0  0  0  0  0  0  0  0  0  0  0
   22.1830   -7.3207  -15.7593 N   0  0  0  0  0  0  0  0  0  0  0  0
   21.9523   -6.0914  -15.0544 C   0  0  1  0  0  0  0  0  0  0  0  0
   21.9409   -6.2109  -13.5685 C   0  0  0  0  0  0  0  0  0  0  0  0
   21.7645   -4.5602  -12.8017 S   0  0  0  0  0  0  0  0  0  0  0  0
   22.8078   -4.9728  -15.5501 C   0  0  0  0  0  0  0  0  0  0  0  0
   23.9890   -5.1681  -15.8801 O   0  0  0  0  0  0  0  0  0  0  0  0
   22.2881   -3.6984  -15.6472 O   0  0  0  0  0  0  0  0  0  0  0  0
  2  1  1  1
  2  3  1  0
  3  4  1  0
  4  5  2  0
  4  8  1  0
  6  2  1  0
  6  9  1  0
  7  6  2  0
 10  9  1  0
 10 15  1  0
 10 11  1  6
 12 11  1  0
 13 12  1  0
 14 13  2  0
 15 18  1  0
 16 15  2  0
 17 13  1  0
 18 19  1  0
 19 20  1  1
 19 22  1  0
 20 21  1  0
 22 24  1  0
 23 22  2  0
M  END
$$$$
