DEC.pdb
     RDKit          3D

 24 23  0  0  1  0  0  0  0  0999 V2000
   16.0809  -10.3604  -14.3418 N   0  0  0  0  0  0  0  0  0  0  0  0
   15.8273   -9.1742  -15.0967 C   0  0  1  0  0  0  0  0  0  0  0  0
   14.3966   -9.0529  -15.5347 C   0  0  0  0  0  0  0  0  0  0  0  0
   14.1183  -10.0879  -16.5490 C   0  0  0  0  0  0  0  0  0  0  0  0
   15.0558  -10.7233  -17.0614 O   0  0  0  0  0  0  0  0  0  0  0  0
   16.2690   -7.9434  -14.3689 C   0  0  0  0  0  0  0  0  0  0  0  0
   16.1062   -6.8495  -14.9443 O   0  0  0  0  0  0  0  0  0  0  0  0
   12.7692  -10.2968  -16.8822 O   0  0  0  0  0  0  0  0  0  0  0  0
   16.8428   -7.9701  -13.1006 N   0  0  0  0  0  0  0  0  0  0  0  0
   17.1924   -6.6941  -12.4439 C   0  0  1  0  0  0  0  0  0  0  0  0
   16.6705   -6.7209  -11.0433 C   0  0  0  0  0  0  0  0  0  0  0  0
   17.0577   -5.5220  -10.2587 C   0  0  0  0  0  0  0  0  0  0  0  0
   16.5821   -5.4946   -8.8587 C   0  0  0  0  0  0  0  0  0  0  0  0
   17.3968   -5.7335   -7.9431 O   0  0  0  0  0  0  0  0  0  0  0  0
   18.6577   -6.5591  -12.5684 C   0  0  0  0  0  0  0  0  0  0  0  0
   19.1941   -5.4707  -12.1623 O   0  0  0  0  0  0  0  0  0  0  0  0
   15.2864   -5.2202   -8.4962 O   0  0  0  0  0  0  0  0  0  0  0  0
   19.5304   -7.5376  -13.0979 N   0  0  0  0  0  0  0  0  0  0  0  0
   20.9452   -7.3635  -13.2684 C   0  0  1  0  0  0  0  0  0  0  0  0
   21.6880   -8.5955  -13.6596 C   0  0  0  0  0  0  0  0  0  0  0  0
   23.4745   -8.2364  -13.8121 S   0  0  0  0  0  0  0  0  0  0  0  0
   21.2833   -6.1780  -14.1105 C   0  0  0  0  0  0  0  0  0  0  0  0
   20.7568   -6.0119  -15.2229 O   0  0  0  0  0  0  0  0  0  0  0  0
   22.1936   -5.2463  -13.6554 O   0  0  0  0  0  0  0  0  0  0  0  0
  2  1  1  1
  2  3  1  0
  3  4  1  0
  4  5  2  0
  4  8  1  0
  6  2  1  0
  6  9  1  0
  7  6  2  0
 10  9  1  0
 10 15  1  0
 10 11  1  1
 12 11  1  0
 13 12  1  0
 14 13  2  0
 15 18  1  0
 16 15  2  0
 17 13  1  0
 18 19  1  0
 19 20  1  6
 19 22  1  0
 20 21  1  0
 22 24  1  0
 23 22  2  0
M  END
$$$$
