DEC.pdb
     RDKit          3D

 24 23  0  0  1  0  0  0  0  0999 V2000
   16.8630  -12.3659  -13.2892 N   0  0  0  0  0  0  0  0  0  0  0  0
   16.3544  -11.0329  -13.3658 C   0  0  1  0  0  0  0  0  0  0  0  0
   14.8784  -10.9528  -13.1049 C   0  0  0  0  0  0  0  0  0  0  0  0
   14.1727  -11.7939  -14.0909 C   0  0  0  0  0  0  0  0  0  0  0  0
   13.3433  -12.6368  -13.7078 O   0  0  0  0  0  0  0  0  0  0  0  0
   17.1060  -10.0960  -12.4732 C   0  0  0  0  0  0  0  0  0  0  0  0
   17.3577  -10.4866  -11.3164 O   0  0  0  0  0  0  0  0  0  0  0  0
   14.4926  -11.5826  -15.4428 O   0  0  0  0  0  0  0  0  0  0  0  0
   17.5271   -8.8309  -12.8745 N   0  0  0  0  0  0  0  0  0  0  0  0
   18.2555   -7.9784  -11.9130 C   0  0  1  0  0  0  0  0  0  0  0  0
   19.4211   -7.3586  -12.6143 C   0  0  0  0  0  0  0  0  0  0  0  0
   20.1575   -6.3885  -11.7660 C   0  0  0  0  0  0  0  0  0  0  0  0
   21.3725   -5.8036  -12.3730 C   0  0  0  0  0  0  0  0  0  0  0  0
   21.9738   -4.8976  -11.7592 O   0  0  0  0  0  0  0  0  0  0  0  0
   17.2619   -7.0257  -11.3782 C   0  0  0  0  0  0  0  0  0  0  0  0
   16.5058   -6.4192  -12.2134 O   0  0  0  0  0  0  0  0  0  0  0  0
   21.8886   -6.1974  -13.5830 O   0  0  0  0  0  0  0  0  0  0  0  0
   17.0665   -6.7243  -10.0105 N   0  0  0  0  0  0  0  0  0  0  0  0
   16.0515   -5.8436   -9.5053 C   0  0  1  0  0  0  0  0  0  0  0  0
   15.4994   -6.2190   -8.1723 C   0  0  0  0  0  0  0  0  0  0  0  0
   15.0372   -7.9882   -8.1536 S   0  0  0  0  0  0  0  0  0  0  0  0
   16.4368   -4.4044   -9.6005 C   0  0  0  0  0  0  0  0  0  0  0  0
   17.5711   -4.0691   -9.9789 O   0  0  0  0  0  0  0  0  0  0  0  0
   15.5264   -3.4234   -9.2652 O   0  0  0  0  0  0  0  0  0  0  0  0
  2  1  1  1
  2  3  1  0
  3  4  1  0
  4  5  2  0
  4  8  1  0
  6  2  1  0
  6  9  1  0
  7  6  2  0
 10  9  1  0
 10 15  1  0
 10 11  1  6
 12 11  1  0
 13 12  1  0
 14 13  2  0
 15 18  1  0
 16 15  2  0
 17 13  1  0
 18 19  1  0
 19 20  1  1
 19 22  1  0
 20 21  1  0
 22 24  1  0
 23 22  2  0
M  END
$$$$
