DEC.pdb
     RDKit          3D

 24 23  0  0  1  0  0  0  0  0999 V2000
   26.9301  -21.2164  -14.8259 N   0  0  0  0  0  0  0  0  0  0  0  0
   26.1524  -20.0839  -14.4335 C   0  0  1  0  0  0  0  0  0  0  0  0
   26.6588  -18.7956  -15.0140 C   0  0  0  0  0  0  0  0  0  0  0  0
   27.2681  -19.0713  -16.3294 C   0  0  0  0  0  0  0  0  0  0  0  0
   27.0554  -20.1564  -16.8972 O   0  0  0  0  0  0  0  0  0  0  0  0
   24.6991  -20.2717  -14.7373 C   0  0  0  0  0  0  0  0  0  0  0  0
   24.4065  -21.0148  -15.6946 O   0  0  0  0  0  0  0  0  0  0  0  0
   28.0755  -18.0585  -16.8743 O   0  0  0  0  0  0  0  0  0  0  0  0
   23.6811  -19.6622  -14.0088 N   0  0  0  0  0  0  0  0  0  0  0  0
   22.2791  -19.8623  -14.4286 C   0  0  1  0  0  0  0  0  0  0  0  0
   21.5241  -20.4719  -13.2915 C   0  0  0  0  0  0  0  0  0  0  0  0
   20.1132  -20.7808  -13.6335 C   0  0  0  0  0  0  0  0  0  0  0  0
   19.3456  -21.4953  -12.5908 C   0  0  0  0  0  0  0  0  0  0  0  0
   18.2765  -20.9949  -12.1835 O   0  0  0  0  0  0  0  0  0  0  0  0
   21.7931  -18.5400  -14.8716 C   0  0  0  0  0  0  0  0  0  0  0  0
   21.7772  -17.5911  -14.0134 O   0  0  0  0  0  0  0  0  0  0  0  0
   19.7373  -22.6881  -12.0348 O   0  0  0  0  0  0  0  0  0  0  0  0
   21.3434  -18.2247  -16.1745 N   0  0  0  0  0  0  0  0  0  0  0  0
   20.8363  -16.9429  -16.5755 C   0  0  1  0  0  0  0  0  0  0  0  0
   20.8607  -16.6880  -18.0442 C   0  0  0  0  0  0  0  0  0  0  0  0
   20.2728  -14.9941  -18.4030 S   0  0  0  0  0  0  0  0  0  0  0  0
   19.5244  -16.6174  -15.9417 C   0  0  0  0  0  0  0  0  0  0  0  0
   18.6003  -17.4468  -15.9207 O   0  0  0  0  0  0  0  0  0  0  0  0
   19.3247  -15.3789  -15.3674 O   0  0  0  0  0  0  0  0  0  0  0  0
  2  1  1  6
  2  3  1  0
  3  4  1  0
  4  5  2  0
  4  8  1  0
  6  2  1  0
  6  9  1  0
  7  6  2  0
 10  9  1  0
 10 15  1  0
 10 11  1  1
 12 11  1  0
 13 12  1  0
 14 13  2  0
 15 18  1  0
 16 15  2  0
 17 13  1  0
 18 19  1  0
 19 20  1  6
 19 22  1  0
 20 21  1  0
 22 24  1  0
 23 22  2  0
M  END
$$$$
