GYP.pdb
     RDKit          3D

 24 25  0  0  1  0  0  0  0  0999 V2000
   22.9228  -13.8251  -17.5285 N   0  0  0  0  0  0  0  0  0  0  0  0
   22.3615  -13.1032  -16.4243 C   0  0  0  0  0  0  0  0  0  0  0  0
   21.9484  -11.7225  -16.8143 C   0  0  0  0  0  0  0  0  0  0  0  0
   22.1344  -11.3735  -17.9859 O   0  0  0  0  0  0  0  0  0  0  0  0
   16.9409  -14.4353  -16.9980 O   0  0  0  0  0  0  0  0  0  0  0  0
   17.5601  -13.2004  -16.8612 C   0  0  0  0  0  0  0  0  0  0  0  0
   18.0040  -12.5456  -17.9770 C   0  0  0  0  0  0  0  0  0  0  0  0
   18.6306  -11.3022  -17.8705 C   0  0  0  0  0  0  0  0  0  0  0  0
   18.8150  -10.7090  -16.6438 C   0  0  0  0  0  0  0  0  0  0  0  0
   19.4607   -9.4091  -16.4785 C   0  0  0  0  0  0  0  0  0  0  0  0
   20.9936   -9.5214  -16.3162 C   0  0  2  0  0  0  0  0  0  0  0  0
   21.3587  -10.8162  -15.8934 N   0  0  0  0  0  0  0  0  0  0  0  0
   21.3981   -8.3681  -15.5281 C   0  0  0  0  0  0  0  0  0  0  0  0
   20.8830   -8.4468  -14.3015 O   0  0  0  0  0  0  0  0  0  0  0  0
   18.3524  -11.4026  -15.5398 C   0  0  0  0  0  0  0  0  0  0  0  0
   17.7322  -12.6314  -15.6341 C   0  0  0  0  0  0  0  0  0  0  0  0
   22.1619   -7.2591  -15.7340 N   0  0  0  0  0  0  0  0  0  0  0  0
   23.0471   -7.1415  -16.9703 C   0  0  0  0  0  0  0  0  0  0  0  0
   22.6191   -5.7424  -17.4551 C   0  0  0  0  0  0  0  0  0  0  0  0
   21.9445   -5.0737  -16.2327 C   0  0  0  0  0  0  0  0  0  0  0  0
   22.4803   -6.0004  -15.1416 C   0  0  1  0  0  0  0  0  0  0  0  0
   22.1954   -5.6762  -13.7907 C   0  0  0  0  0  0  0  0  0  0  0  0
   21.0177   -5.8148  -13.3023 O   0  0  0  0  0  0  0  0  0  0  0  0
   23.1283   -5.1846  -12.8970 O   0  0  0  0  0  0  0  0  0  0  0  0
  2  1  1  0
  3  2  1  0
  3 12  1  0
  4  3  2  0
  6  7  2  0
  6  5  1  0
  8  7  1  0
  9  8  2  0
 10  9  1  0
 11 10  1  1
 11 12  1  0
 13 17  1  0
 13 11  1  0
 14 13  2  0
 15  9  1  0
 15 16  2  0
 16  6  1  0
 17 18  1  0
 19 18  1  0
 20 19  1  0
 20 21  1  0
 21 17  1  0
 21 22  1  1
 22 24  1  0
 23 22  2  0
M  END
$$$$
