GYP.pdb
     RDKit          3D

 24 25  0  0  1  0  0  0  0  0999 V2000
   24.8777  -11.7204  -16.0277 N   0  0  0  0  0  0  0  0  0  0  0  0
   24.1136  -10.9840  -15.0638 C   0  0  0  0  0  0  0  0  0  0  0  0
   23.3078   -9.9012  -15.7020 C   0  0  0  0  0  0  0  0  0  0  0  0
   23.2903   -9.8461  -16.9372 O   0  0  0  0  0  0  0  0  0  0  0  0
   18.4790  -13.2884  -16.9067 O   0  0  0  0  0  0  0  0  0  0  0  0
   18.9279  -12.0358  -16.5110 C   0  0  0  0  0  0  0  0  0  0  0  0
   19.0529  -11.0430  -17.4434 C   0  0  0  0  0  0  0  0  0  0  0  0
   19.5019   -9.7730  -17.0750 C   0  0  0  0  0  0  0  0  0  0  0  0
   19.8278   -9.4924  -15.7690 C   0  0  0  0  0  0  0  0  0  0  0  0
   20.2984   -8.1806  -15.3315 C   0  0  0  0  0  0  0  0  0  0  0  0
   21.8055   -7.9680  -15.6000 C   0  0  2  0  0  0  0  0  0  0  0  0
   22.5745   -8.9507  -14.9431 N   0  0  0  0  0  0  0  0  0  0  0  0
   22.0639   -6.5609  -15.3389 C   0  0  0  0  0  0  0  0  0  0  0  0
   22.0021   -6.3180  -14.0300 O   0  0  0  0  0  0  0  0  0  0  0  0
   19.6880  -10.5227  -14.8562 C   0  0  0  0  0  0  0  0  0  0  0  0
   19.2454  -11.7806  -15.2098 C   0  0  0  0  0  0  0  0  0  0  0  0
   22.3529   -5.4614  -16.0895 N   0  0  0  0  0  0  0  0  0  0  0  0
   22.8509   -5.6063  -17.5236 C   0  0  0  0  0  0  0  0  0  0  0  0
   21.8887   -4.6277  -18.2252 C   0  0  0  0  0  0  0  0  0  0  0  0
   21.3212   -3.7318  -17.0975 C   0  0  0  0  0  0  0  0  0  0  0  0
   22.3614   -4.0360  -16.0196 C   0  0  1  0  0  0  0  0  0  0  0  0
   22.2937   -3.3113  -14.8025 C   0  0  0  0  0  0  0  0  0  0  0  0
   22.4077   -2.0342  -14.7757 O   0  0  0  0  0  0  0  0  0  0  0  0
   22.1133   -3.8930  -13.5616 O   0  0  0  0  0  0  0  0  0  0  0  0
  2  1  1  0
  3  2  1  0
  3 12  1  0
  4  3  2  0
  6  7  2  0
  6  5  1  0
  8  7  1  0
  9  8  2  0
 10  9  1  0
 11 10  1  1
 11 12  1  0
 13 17  1  0
 13 11  1  0
 14 13  2  0
 15  9  1  0
 15 16  2  0
 16  6  1  0
 17 18  1  0
 19 18  1  0
 20 19  1  0
 20 21  1  0
 21 17  1  0
 21 22  1  1
 22 24  1  0
 23 22  2  0
M  END
$$$$
