GYP.pdb
     RDKit          3D

 24 25  0  0  1  0  0  0  0  0999 V2000
   20.9948  -20.6821  -11.4790 N   0  0  0  0  0  0  0  0  0  0  0  0
   21.7406  -21.1432  -12.6132 C   0  0  0  0  0  0  0  0  0  0  0  0
   23.0662  -20.4646  -12.7209 C   0  0  0  0  0  0  0  0  0  0  0  0
   23.0967  -19.2346  -12.5987 O   0  0  0  0  0  0  0  0  0  0  0  0
   25.4429  -19.8756   -6.7382 O   0  0  0  0  0  0  0  0  0  0  0  0
   25.7142  -20.1652   -8.0685 C   0  0  0  0  0  0  0  0  0  0  0  0
   26.2591  -19.1980   -8.8675 C   0  0  0  0  0  0  0  0  0  0  0  0
   26.5428  -19.4601  -10.2095 C   0  0  0  0  0  0  0  0  0  0  0  0
   26.2815  -20.6940  -10.7569 C   0  0  0  0  0  0  0  0  0  0  0  0
   26.5626  -21.0199  -12.1528 C   0  0  0  0  0  0  0  0  0  0  0  0
   25.4839  -20.4812  -13.1196 C   0  0  2  0  0  0  0  0  0  0  0  0
   24.2703  -21.1803  -12.9554 N   0  0  0  0  0  0  0  0  0  0  0  0
   26.1112  -20.4299  -14.4306 C   0  0  0  0  0  0  0  0  0  0  0  0
   26.3630  -21.6634  -14.8676 O   0  0  0  0  0  0  0  0  0  0  0  0
   25.7305  -21.6450   -9.9166 C   0  0  0  0  0  0  0  0  0  0  0  0
   25.4464  -21.3963   -8.5897 C   0  0  0  0  0  0  0  0  0  0  0  0
   26.4876  -19.4507  -15.2997 N   0  0  0  0  0  0  0  0  0  0  0  0
   26.1241  -17.9932  -15.0360 C   0  0  0  0  0  0  0  0  0  0  0  0
   27.5100  -17.3479  -15.2326 C   0  0  0  0  0  0  0  0  0  0  0  0
   28.3399  -18.3912  -16.0195 C   0  0  0  0  0  0  0  0  0  0  0  0
   27.1901  -19.2609  -16.5273 C   0  0  1  0  0  0  0  0  0  0  0  0
   27.4961  -20.3149  -17.4255 C   0  0  0  0  0  0  0  0  0  0  0  0
   26.9294  -20.4038  -18.5724 O   0  0  0  0  0  0  0  0  0  0  0  0
   28.4009  -21.3250  -17.1576 O   0  0  0  0  0  0  0  0  0  0  0  0
  2  1  1  0
  3  2  1  0
  3 12  1  0
  4  3  2  0
  6  7  2  0
  6  5  1  0
  8  7  1  0
  9  8  2  0
 10  9  1  0
 11 10  1  1
 11 12  1  0
 13 17  1  0
 13 11  1  0
 14 13  2  0
 15  9  1  0
 15 16  2  0
 16  6  1  0
 17 18  1  0
 19 18  1  0
 20 19  1  0
 20 21  1  0
 21 17  1  0
 21 22  1  1
 22 24  1  0
 23 22  2  0
M  END
$$$$
