GYP.pdb
     RDKit          3D

 24 25  0  0  1  0  0  0  0  0999 V2000
   24.9967  -18.5327  -18.0169 N   0  0  0  0  0  0  0  0  0  0  0  0
   24.9520  -19.8639  -17.4868 C   0  0  0  0  0  0  0  0  0  0  0  0
   24.9187  -19.8677  -15.9941 C   0  0  0  0  0  0  0  0  0  0  0  0
   24.9362  -18.7761  -15.4135 O   0  0  0  0  0  0  0  0  0  0  0  0
   18.8357  -19.6107  -15.5646 O   0  0  0  0  0  0  0  0  0  0  0  0
   19.9994  -20.1276  -15.0117 C   0  0  0  0  0  0  0  0  0  0  0  0
   20.3601  -19.7604  -13.7445 C   0  0  0  0  0  0  0  0  0  0  0  0
   21.5252  -20.2641  -13.1621 C   0  0  0  0  0  0  0  0  0  0  0  0
   22.3343  -21.1390  -13.8480 C   0  0  0  0  0  0  0  0  0  0  0  0
   23.5605  -21.6970  -13.2831 C   0  0  0  0  0  0  0  0  0  0  0  0
   24.8338  -21.0117  -13.8288 C   0  0  2  0  0  0  0  0  0  0  0  0
   24.8683  -21.0685  -15.2373 N   0  0  0  0  0  0  0  0  0  0  0  0
   25.9419  -21.5567  -13.0608 C   0  0  0  0  0  0  0  0  0  0  0  0
   26.0981  -22.8513  -13.3357 O   0  0  0  0  0  0  0  0  0  0  0  0
   21.9353  -21.4858  -15.1264 C   0  0  0  0  0  0  0  0  0  0  0  0
   20.7865  -20.9940  -15.7109 C   0  0  0  0  0  0  0  0  0  0  0  0
   26.8394  -21.0739  -12.1568 N   0  0  0  0  0  0  0  0  0  0  0  0
   28.2971  -20.8544  -12.5475 C   0  0  0  0  0  0  0  0  0  0  0  0
   28.4813  -19.4123  -12.0353 C   0  0  0  0  0  0  0  0  0  0  0  0
   27.3220  -19.1812  -11.0358 C   0  0  0  0  0  0  0  0  0  0  0  0
   26.9300  -20.6397  -10.8003 C   0  0  1  0  0  0  0  0  0  0  0  0
   25.9412  -20.9161   -9.8219 C   0  0  0  0  0  0  0  0  0  0  0  0
   26.2529  -21.1351   -8.5974 O   0  0  0  0  0  0  0  0  0  0  0  0
   24.5860  -20.9840  -10.0855 O   0  0  0  0  0  0  0  0  0  0  0  0
  2  1  1  0
  3  2  1  0
  3 12  1  0
  4  3  2  0
  6  7  2  0
  6  5  1  0
  8  7  1  0
  9  8  2  0
 10  9  1  0
 11 10  1  1
 11 12  1  0
 13 17  1  0
 13 11  1  0
 14 13  2  0
 15  9  1  0
 15 16  2  0
 16  6  1  0
 17 18  1  0
 19 18  1  0
 20 19  1  0
 20 21  1  0
 21 17  1  0
 21 22  1  6
 22 24  1  0
 23 22  2  0
M  END
$$$$
