GYP.pdb
     RDKit          3D

 24 25  0  0  1  0  0  0  0  0999 V2000
   20.7470  -19.9376  -11.5468 N   0  0  0  0  0  0  0  0  0  0  0  0
   21.6460  -21.0302  -11.7777 C   0  0  0  0  0  0  0  0  0  0  0  0
   23.0576  -20.5673  -11.9278 C   0  0  0  0  0  0  0  0  0  0  0  0
   23.2626  -19.3493  -11.9860 O   0  0  0  0  0  0  0  0  0  0  0  0
   27.1022  -18.8155   -6.3811 O   0  0  0  0  0  0  0  0  0  0  0  0
   26.9296  -19.5204   -7.5645 C   0  0  0  0  0  0  0  0  0  0  0  0
   28.0252  -19.8531   -8.3125 C   0  0  0  0  0  0  0  0  0  0  0  0
   27.8827  -20.5619   -9.5073 C   0  0  0  0  0  0  0  0  0  0  0  0
   26.6400  -20.9406   -9.9578 C   0  0  0  0  0  0  0  0  0  0  0  0
   26.4372  -21.6854  -11.1980 C   0  0  0  0  0  0  0  0  0  0  0  0
   25.4616  -20.9778  -12.1656 C   0  0  2  0  0  0  0  0  0  0  0  0
   24.1505  -21.4711  -12.0040 N   0  0  0  0  0  0  0  0  0  0  0  0
   26.0910  -21.0273  -13.4756 C   0  0  0  0  0  0  0  0  0  0  0  0
   26.1849  -22.2896  -13.8924 O   0  0  0  0  0  0  0  0  0  0  0  0
   25.5573  -20.5852   -9.1733 C   0  0  0  0  0  0  0  0  0  0  0  0
   25.6872  -19.8853   -7.9916 C   0  0  0  0  0  0  0  0  0  0  0  0
   26.5888  -20.1177  -14.3591 N   0  0  0  0  0  0  0  0  0  0  0  0
   26.4058  -18.6221  -14.1235 C   0  0  0  0  0  0  0  0  0  0  0  0
   27.8613  -18.1553  -14.3219 C   0  0  0  0  0  0  0  0  0  0  0  0
   28.5605  -19.3067  -15.0847 C   0  0  0  0  0  0  0  0  0  0  0  0
   27.3151  -20.0380  -15.5850 C   0  0  1  0  0  0  0  0  0  0  0  0
   27.4935  -21.1377  -16.4625 C   0  0  0  0  0  0  0  0  0  0  0  0
   26.8964  -21.1945  -17.5960 O   0  0  0  0  0  0  0  0  0  0  0  0
   28.2967  -22.2284  -16.1867 O   0  0  0  0  0  0  0  0  0  0  0  0
  2  1  1  0
  3  2  1  0
  3 12  1  0
  4  3  2  0
  6  7  2  0
  6  5  1  0
  8  7  1  0
  9  8  2  0
 10  9  1  0
 11 10  1  1
 11 12  1  0
 13 17  1  0
 13 11  1  0
 14 13  2  0
 15  9  1  0
 15 16  2  0
 16  6  1  0
 17 18  1  0
 19 18  1  0
 20 19  1  0
 20 21  1  0
 21 17  1  0
 21 22  1  1
 22 24  1  0
 23 22  2  0
M  END
$$$$
