GYP.pdb
     RDKit          3D

 24 25  0  0  1  0  0  0  0  0999 V2000
   20.5902  -20.0031  -13.2011 N   0  0  0  0  0  0  0  0  0  0  0  0
   21.4598  -20.5146  -14.2197 C   0  0  0  0  0  0  0  0  0  0  0  0
   22.8800  -20.1143  -13.9916 C   0  0  0  0  0  0  0  0  0  0  0  0
   23.1272  -18.9092  -13.8670 O   0  0  0  0  0  0  0  0  0  0  0  0
   23.7571  -20.2854   -7.5580 O   0  0  0  0  0  0  0  0  0  0  0  0
   24.2948  -20.5626   -8.8074 C   0  0  0  0  0  0  0  0  0  0  0  0
   25.4910  -20.0018   -9.1619 C   0  0  0  0  0  0  0  0  0  0  0  0
   26.0564  -20.2623  -10.4119 C   0  0  0  0  0  0  0  0  0  0  0  0
   25.4248  -21.0870  -11.3128 C   0  0  0  0  0  0  0  0  0  0  0  0
   25.9753  -21.3941  -12.6306 C   0  0  0  0  0  0  0  0  0  0  0  0
   25.2665  -20.6231  -13.7671 C   0  0  2  0  0  0  0  0  0  0  0  0
   23.9347  -21.0624  -13.9153 N   0  0  0  0  0  0  0  0  0  0  0  0
   26.1691  -20.6704  -14.9063 C   0  0  0  0  0  0  0  0  0  0  0  0
   26.2629  -21.9177  -15.3662 O   0  0  0  0  0  0  0  0  0  0  0  0
   24.2175  -21.6345  -10.9171 C   0  0  0  0  0  0  0  0  0  0  0  0
   23.6504  -21.3836   -9.6847 C   0  0  0  0  0  0  0  0  0  0  0  0
   26.9171  -19.7695  -15.6026 N   0  0  0  0  0  0  0  0  0  0  0  0
   26.6757  -18.2717  -15.4480 C   0  0  0  0  0  0  0  0  0  0  0  0
   28.1234  -17.8074  -15.1943 C   0  0  0  0  0  0  0  0  0  0  0  0
   29.0191  -18.9664  -15.6952 C   0  0  0  0  0  0  0  0  0  0  0  0
   27.9849  -19.7019  -16.5471 C   0  0  1  0  0  0  0  0  0  0  0  0
   28.4203  -20.8101  -17.3174 C   0  0  0  0  0  0  0  0  0  0  0  0
   28.3202  -22.0113  -16.8797 O   0  0  0  0  0  0  0  0  0  0  0  0
   28.9873  -20.7073  -18.5739 O   0  0  0  0  0  0  0  0  0  0  0  0
  2  1  1  0
  3  2  1  0
  3 12  1  0
  4  3  2  0
  6  7  2  0
  6  5  1  0
  8  7  1  0
  9  8  2  0
 10  9  1  0
 11 10  1  1
 11 12  1  0
 13 17  1  0
 13 11  1  0
 14 13  2  0
 15  9  1  0
 15 16  2  0
 16  6  1  0
 17 18  1  0
 19 18  1  0
 20 19  1  0
 20 21  1  0
 21 17  1  0
 21 22  1  1
 22 24  1  0
 23 22  2  0
M  END
$$$$
