GYP.pdb
     RDKit          3D

 24 25  0  0  1  0  0  0  0  0999 V2000
   24.1379  -24.4181  -14.2639 N   0  0  0  0  0  0  0  0  0  0  0  0
   25.2838  -23.8574  -14.9180 C   0  0  0  0  0  0  0  0  0  0  0  0
   25.3692  -22.3798  -14.7216 C   0  0  0  0  0  0  0  0  0  0  0  0
   24.3147  -21.7342  -14.7316 O   0  0  0  0  0  0  0  0  0  0  0  0
   24.7572  -21.3769   -8.2786 O   0  0  0  0  0  0  0  0  0  0  0  0
   25.4184  -21.0352   -9.4505 C   0  0  0  0  0  0  0  0  0  0  0  0
   24.9680  -19.9764  -10.1901 C   0  0  0  0  0  0  0  0  0  0  0  0
   25.6127  -19.6093  -11.3732 C   0  0  0  0  0  0  0  0  0  0  0  0
   26.7127  -20.3025  -11.8204 C   0  0  0  0  0  0  0  0  0  0  0  0
   27.4245  -19.9571  -13.0485 C   0  0  0  0  0  0  0  0  0  0  0  0
   26.6242  -20.3135  -14.3216 C   0  0  2  0  0  0  0  0  0  0  0  0
   26.6056  -21.7085  -14.5272 N   0  0  0  0  0  0  0  0  0  0  0  0
   27.1289  -19.4401  -15.3691 C   0  0  0  0  0  0  0  0  0  0  0  0
   28.1951  -19.9890  -15.9503 O   0  0  0  0  0  0  0  0  0  0  0  0
   27.1371  -21.3665  -11.0447 C   0  0  0  0  0  0  0  0  0  0  0  0
   26.5074  -21.7374   -9.8746 C   0  0  0  0  0  0  0  0  0  0  0  0
   26.7796  -18.2308  -15.8902 N   0  0  0  0  0  0  0  0  0  0  0  0
   25.6028  -17.4470  -15.3188 C   0  0  0  0  0  0  0  0  0  0  0  0
   26.2803  -16.0753  -15.1314 C   0  0  0  0  0  0  0  0  0  0  0  0
   27.5435  -16.1166  -16.0252 C   0  0  0  0  0  0  0  0  0  0  0  0
   27.1599  -17.3046  -16.9071 C   0  0  1  0  0  0  0  0  0  0  0  0
   28.0144  -17.6367  -17.9891 C   0  0  0  0  0  0  0  0  0  0  0  0
   27.9973  -16.9713  -19.0852 O   0  0  0  0  0  0  0  0  0  0  0  0
   28.9159  -18.6845  -17.9730 O   0  0  0  0  0  0  0  0  0  0  0  0
  2  1  1  0
  3  2  1  0
  3 12  1  0
  4  3  2  0
  6  7  2  0
  6  5  1  0
  8  7  1  0
  9  8  2  0
 10  9  1  0
 11 10  1  1
 11 12  1  0
 13 17  1  0
 13 11  1  0
 14 13  2  0
 15  9  1  0
 15 16  2  0
 16  6  1  0
 17 18  1  0
 19 18  1  0
 20 19  1  0
 20 21  1  0
 21 17  1  0
 21 22  1  1
 22 24  1  0
 23 22  2  0
M  END
$$$$
