GYP.pdb
     RDKit          3D

 24 25  0  0  1  0  0  0  0  0999 V2000
   27.2785  -25.4990  -17.3097 N   0  0  0  0  0  0  0  0  0  0  0  0
   26.0328  -25.3636  -16.6132 C   0  0  0  0  0  0  0  0  0  0  0  0
   25.9088  -24.0326  -15.9482 C   0  0  0  0  0  0  0  0  0  0  0  0
   26.6873  -23.1378  -16.2978 O   0  0  0  0  0  0  0  0  0  0  0  0
   20.9092  -21.7732  -19.3225 O   0  0  0  0  0  0  0  0  0  0  0  0
   21.5253  -21.8205  -18.0794 C   0  0  0  0  0  0  0  0  0  0  0  0
   21.5881  -23.0100  -17.4071 C   0  0  0  0  0  0  0  0  0  0  0  0
   22.2014  -23.0882  -16.1549 C   0  0  0  0  0  0  0  0  0  0  0  0
   22.7552  -21.9734  -15.5708 C   0  0  0  0  0  0  0  0  0  0  0  0
   23.4107  -22.0026  -14.2657 C   0  0  0  0  0  0  0  0  0  0  0  0
   24.8729  -22.4969  -14.3441 C   0  0  2  0  0  0  0  0  0  0  0  0
   24.9391  -23.7714  -14.9439 N   0  0  0  0  0  0  0  0  0  0  0  0
   25.4343  -22.2977  -13.0175 C   0  0  0  0  0  0  0  0  0  0  0  0
   24.8671  -23.1340  -12.1486 O   0  0  0  0  0  0  0  0  0  0  0  0
   22.6712  -20.7898  -16.2822 C   0  0  0  0  0  0  0  0  0  0  0  0
   22.0675  -20.7018  -17.5196 C   0  0  0  0  0  0  0  0  0  0  0  0
   26.3802  -21.4880  -12.4646 N   0  0  0  0  0  0  0  0  0  0  0  0
   27.7286  -21.2862  -13.1477 C   0  0  0  0  0  0  0  0  0  0  0  0
   27.7964  -19.7465  -13.1227 C   0  0  0  0  0  0  0  0  0  0  0  0
   26.7684  -19.3085  -12.0514 C   0  0  0  0  0  0  0  0  0  0  0  0
   26.6033  -20.6475  -11.3330 C   0  0  1  0  0  0  0  0  0  0  0  0
   25.8048  -20.6830  -10.1615 C   0  0  0  0  0  0  0  0  0  0  0  0
   24.5248  -20.6325  -10.2212 O   0  0  0  0  0  0  0  0  0  0  0  0
   26.3124  -20.7633   -8.8783 O   0  0  0  0  0  0  0  0  0  0  0  0
  2  1  1  0
  3  2  1  0
  3 12  1  0
  4  3  2  0
  6  7  2  0
  6  5  1  0
  8  7  1  0
  9  8  2  0
 10  9  1  0
 11 10  1  1
 11 12  1  0
 13 17  1  0
 13 11  1  0
 14 13  2  0
 15  9  1  0
 15 16  2  0
 16  6  1  0
 17 18  1  0
 19 18  1  0
 20 19  1  0
 20 21  1  0
 21 17  1  0
 21 22  1  1
 22 24  1  0
 23 22  2  0
M  END
$$$$
