GYP.pdb
     RDKit          3D

 24 25  0  0  1  0  0  0  0  0999 V2000
   28.6122  -18.3456  -14.6817 N   0  0  0  0  0  0  0  0  0  0  0  0
   27.8216  -18.1377  -13.5040 C   0  0  0  0  0  0  0  0  0  0  0  0
   27.1623  -19.3969  -13.0468 C   0  0  0  0  0  0  0  0  0  0  0  0
   27.4220  -20.4396  -13.6587 O   0  0  0  0  0  0  0  0  0  0  0  0
   29.0486  -19.6870   -6.4148 O   0  0  0  0  0  0  0  0  0  0  0  0
   28.0481  -19.9012   -7.3530 C   0  0  0  0  0  0  0  0  0  0  0  0
   27.9404  -21.1269   -7.9504 C   0  0  0  0  0  0  0  0  0  0  0  0
   26.9441  -21.3718   -8.8978 C   0  0  0  0  0  0  0  0  0  0  0  0
   26.0504  -20.3882   -9.2507 C   0  0  0  0  0  0  0  0  0  0  0  0
   24.9887  -20.5942  -10.2327 C   0  0  0  0  0  0  0  0  0  0  0  0
   25.5133  -20.5947  -11.6864 C   0  0  2  0  0  0  0  0  0  0  0  0
   26.2619  -19.4288  -11.9489 N   0  0  0  0  0  0  0  0  0  0  0  0
   24.3694  -20.9172  -12.5245 C   0  0  0  0  0  0  0  0  0  0  0  0
   23.3558  -20.0955  -12.2538 O   0  0  0  0  0  0  0  0  0  0  0  0
   26.1923  -19.1628   -8.6245 C   0  0  0  0  0  0  0  0  0  0  0  0
   27.1730  -18.9106   -7.6875 C   0  0  0  0  0  0  0  0  0  0  0  0
   24.0938  -21.8287  -13.4986 N   0  0  0  0  0  0  0  0  0  0  0  0
   25.2115  -22.6409  -14.1442 C   0  0  0  0  0  0  0  0  0  0  0  0
   24.6066  -24.0525  -14.0119 C   0  0  0  0  0  0  0  0  0  0  0  0
   23.0945  -23.8291  -13.7670 C   0  0  0  0  0  0  0  0  0  0  0  0
   23.0002  -22.3767  -14.2339 C   0  0  1  0  0  0  0  0  0  0  0  0
   21.7169  -21.7760  -14.2928 C   0  0  0  0  0  0  0  0  0  0  0  0
   21.1645  -21.4839  -15.4127 O   0  0  0  0  0  0  0  0  0  0  0  0
   20.9618  -21.4473  -13.1826 O   0  0  0  0  0  0  0  0  0  0  0  0
  2  1  1  0
  3  2  1  0
  3 12  1  0
  4  3  2  0
  6  7  2  0
  6  5  1  0
  8  7  1  0
  9  8  2  0
 10  9  1  0
 11 10  1  1
 11 12  1  0
 13 17  1  0
 13 11  1  0
 14 13  2  0
 15  9  1  0
 15 16  2  0
 16  6  1  0
 17 18  1  0
 19 18  1  0
 20 19  1  0
 20 21  1  0
 21 17  1  0
 21 22  1  1
 22 24  1  0
 23 22  2  0
M  END
$$$$
