GYP.pdb
     RDKit          3D

 24 25  0  0  1  0  0  0  0  0999 V2000
   28.1662  -20.6762  -16.4252 N   0  0  0  0  0  0  0  0  0  0  0  0
   27.6572  -21.5917  -15.4464 C   0  0  0  0  0  0  0  0  0  0  0  0
   27.1952  -20.8881  -14.2133 C   0  0  0  0  0  0  0  0  0  0  0  0
   27.4493  -19.6826  -14.1070 O   0  0  0  0  0  0  0  0  0  0  0  0
   22.6885  -18.7236  -16.9936 O   0  0  0  0  0  0  0  0  0  0  0  0
   23.1562  -19.1684  -15.7646 C   0  0  0  0  0  0  0  0  0  0  0  0
   23.3155  -20.5104  -15.5536 C   0  0  0  0  0  0  0  0  0  0  0  0
   23.7842  -20.9873  -14.3277 C   0  0  0  0  0  0  0  0  0  0  0  0
   24.0957  -20.1203  -13.3069 C   0  0  0  0  0  0  0  0  0  0  0  0
   24.5924  -20.5676  -12.0080 C   0  0  0  0  0  0  0  0  0  0  0  0
   26.1121  -20.8486  -12.0156 C   0  0  2  0  0  0  0  0  0  0  0  0
   26.4851  -21.5533  -13.1787 N   0  0  0  0  0  0  0  0  0  0  0  0
   26.4227  -21.4051  -10.7084 C   0  0  0  0  0  0  0  0  0  0  0  0
   26.0195  -22.6735  -10.6419 O   0  0  0  0  0  0  0  0  0  0  0  0
   23.9210  -18.7714  -13.5594 C   0  0  0  0  0  0  0  0  0  0  0  0
   23.4587  -18.2899  -14.7667 C   0  0  0  0  0  0  0  0  0  0  0  0
   27.0168  -20.9560   -9.5677 N   0  0  0  0  0  0  0  0  0  0  0  0
   28.5341  -20.8322   -9.4765 C   0  0  0  0  0  0  0  0  0  0  0  0
   28.6379  -19.3924   -8.9363 C   0  0  0  0  0  0  0  0  0  0  0  0
   27.2391  -19.0702   -8.3568 C   0  0  0  0  0  0  0  0  0  0  0  0
   26.7009  -20.4972   -8.2538 C   0  0  1  0  0  0  0  0  0  0  0  0
   25.4380  -20.6920   -7.6388 C   0  0  0  0  0  0  0  0  0  0  0  0
   24.3926  -20.9690   -8.3280 O   0  0  0  0  0  0  0  0  0  0  0  0
   25.2141  -20.5961   -6.2781 O   0  0  0  0  0  0  0  0  0  0  0  0
  2  1  1  0
  3  2  1  0
  3 12  1  0
  4  3  2  0
  6  7  2  0
  6  5  1  0
  8  7  1  0
  9  8  2  0
 10  9  1  0
 11 10  1  1
 11 12  1  0
 13 17  1  0
 13 11  1  0
 14 13  2  0
 15  9  1  0
 15 16  2  0
 16  6  1  0
 17 18  1  0
 19 18  1  0
 20 19  1  0
 20 21  1  0
 21 17  1  0
 21 22  1  6
 22 24  1  0
 23 22  2  0
M  END
$$$$
