GYP.pdb
     RDKit          3D

 24 25  0  0  1  0  0  0  0  0999 V2000
   20.5631  -19.9411  -12.1073 N   0  0  0  0  0  0  0  0  0  0  0  0
   21.4632  -20.9905  -12.4865 C   0  0  0  0  0  0  0  0  0  0  0  0
   22.8869  -20.5425  -12.4513 C   0  0  0  0  0  0  0  0  0  0  0  0
   23.1109  -19.3272  -12.4945 O   0  0  0  0  0  0  0  0  0  0  0  0
   26.4699  -19.0588   -6.4469 O   0  0  0  0  0  0  0  0  0  0  0  0
   26.4122  -19.7096   -7.6718 C   0  0  0  0  0  0  0  0  0  0  0  0
   25.2328  -20.2706   -8.0780 C   0  0  0  0  0  0  0  0  0  0  0  0
   25.1445  -20.9316   -9.3050 C   0  0  0  0  0  0  0  0  0  0  0  0
   26.2392  -21.0332  -10.1309 C   0  0  0  0  0  0  0  0  0  0  0  0
   26.1986  -21.7105  -11.4245 C   0  0  0  0  0  0  0  0  0  0  0  0
   25.2971  -20.9851  -12.4491 C   0  0  2  0  0  0  0  0  0  0  0  0
   23.9705  -21.4571  -12.3711 N   0  0  0  0  0  0  0  0  0  0  0  0
   26.0061  -21.0425  -13.7174 C   0  0  0  0  0  0  0  0  0  0  0  0
   26.0102  -22.2905  -14.1850 O   0  0  0  0  0  0  0  0  0  0  0  0
   27.4132  -20.4532   -9.6844 C   0  0  0  0  0  0  0  0  0  0  0  0
   27.5109  -19.7980   -8.4743 C   0  0  0  0  0  0  0  0  0  0  0  0
   26.6448  -20.1503  -14.5248 N   0  0  0  0  0  0  0  0  0  0  0  0
   26.4422  -18.6500  -14.3414 C   0  0  0  0  0  0  0  0  0  0  0  0
   27.9155  -18.1975  -14.3164 C   0  0  0  0  0  0  0  0  0  0  0  0
   28.7137  -19.3658  -14.9445 C   0  0  0  0  0  0  0  0  0  0  0  0
   27.5544  -20.0949  -15.6231 C   0  0  1  0  0  0  0  0  0  0  0  0
   27.8566  -21.2093  -16.4466 C   0  0  0  0  0  0  0  0  0  0  0  0
   27.6289  -22.4103  -16.0591 O   0  0  0  0  0  0  0  0  0  0  0  0
   28.4184  -21.1142  -17.7060 O   0  0  0  0  0  0  0  0  0  0  0  0
  2  1  1  0
  3  2  1  0
  3 12  1  0
  4  3  2  0
  6  7  2  0
  6  5  1  0
  8  7  1  0
  9  8  2  0
 10  9  1  0
 11 10  1  1
 11 12  1  0
 13 17  1  0
 13 11  1  0
 14 13  2  0
 15  9  1  0
 15 16  2  0
 16  6  1  0
 17 18  1  0
 19 18  1  0
 20 19  1  0
 20 21  1  0
 21 17  1  0
 21 22  1  1
 22 24  1  0
 23 22  2  0
M  END
$$$$
