GYP.pdb
     RDKit          3D

 24 25  0  0  1  0  0  0  0  0999 V2000
   27.3026  -24.1149  -16.0881 N   0  0  0  0  0  0  0  0  0  0  0  0
   27.0843  -22.7053  -16.2317 C   0  0  0  0  0  0  0  0  0  0  0  0
   25.8863  -22.2470  -15.4676 C   0  0  0  0  0  0  0  0  0  0  0  0
   25.2217  -23.1009  -14.8692 O   0  0  0  0  0  0  0  0  0  0  0  0
   27.1355  -21.2131   -8.9783 O   0  0  0  0  0  0  0  0  0  0  0  0
   26.5170  -20.7592  -10.1352 C   0  0  0  0  0  0  0  0  0  0  0  0
   27.2782  -20.4768  -11.2359 C   0  0  0  0  0  0  0  0  0  0  0  0
   26.6840  -20.0186  -12.4137 C   0  0  0  0  0  0  0  0  0  0  0  0
   25.3228  -19.8416  -12.4934 C   0  0  0  0  0  0  0  0  0  0  0  0
   24.6522  -19.3686  -13.7019 C   0  0  0  0  0  0  0  0  0  0  0  0
   24.3396  -20.5102  -14.6957 C   0  0  2  0  0  0  0  0  0  0  0  0
   25.4966  -20.8824  -15.4107 N   0  0  0  0  0  0  0  0  0  0  0  0
   23.1499  -20.0944  -15.4214 C   0  0  0  0  0  0  0  0  0  0  0  0
   23.3873  -18.9612  -16.0813 O   0  0  0  0  0  0  0  0  0  0  0  0
   24.5879  -20.1381  -11.3593 C   0  0  0  0  0  0  0  0  0  0  0  0
   25.1651  -20.5911  -10.1910 C   0  0  0  0  0  0  0  0  0  0  0  0
   21.8864  -20.5749  -15.5900 N   0  0  0  0  0  0  0  0  0  0  0  0
   21.5791  -22.0524  -15.3700 C   0  0  0  0  0  0  0  0  0  0  0  0
   20.3566  -21.9203  -14.4406 C   0  0  0  0  0  0  0  0  0  0  0  0
   19.8506  -20.4699  -14.6326 C   0  0  0  0  0  0  0  0  0  0  0  0
   20.5706  -20.1489  -15.9421 C   0  0  1  0  0  0  0  0  0  0  0  0
   20.2910  -18.9093  -16.5716 C   0  0  0  0  0  0  0  0  0  0  0  0
   21.1036  -17.9202  -16.4946 O   0  0  0  0  0  0  0  0  0  0  0  0
   19.1452  -18.6495  -17.3000 O   0  0  0  0  0  0  0  0  0  0  0  0
  2  1  1  0
  3  2  1  0
  3 12  1  0
  4  3  2  0
  6  7  2  0
  6  5  1  0
  8  7  1  0
  9  8  2  0
 10  9  1  0
 11 10  1  1
 11 12  1  0
 13 17  1  0
 13 11  1  0
 14 13  2  0
 15  9  1  0
 15 16  2  0
 16  6  1  0
 17 18  1  0
 19 18  1  0
 20 19  1  0
 20 21  1  0
 21 17  1  0
 21 22  1  1
 22 24  1  0
 23 22  2  0
M  END
$$$$
