DQF.pdb
     RDKit          3D

 29 29  0  0  1  0  0  0  0  0999 V2000
   16.5432  -13.7742  -14.1406 N   0  0  0  0  0  0  0  0  0  0  0  0
   16.2326  -13.1343  -15.4521 C   0  0  1  0  0  0  0  0  0  0  0  0
   15.2270  -13.9577  -16.1715 C   0  0  0  0  0  0  0  0  0  0  0  0
   15.5209  -15.3906  -16.1784 C   0  0  0  0  0  0  0  0  0  0  0  0
   16.6548  -15.8130  -16.4647 O   0  0  0  0  0  0  0  0  0  0  0  0
   15.7691  -11.7330  -15.1523 C   0  0  0  0  0  0  0  0  0  0  0  0
   15.3708  -10.9315  -16.0104 O   0  0  0  0  0  0  0  0  0  0  0  0
   14.5325  -16.3497  -15.8615 O   0  0  0  0  0  0  0  0  0  0  0  0
   12.3880  -10.0508  -10.2054 N   0  0  0  0  0  0  0  0  0  0  0  0
   12.3016  -10.9371  -11.3097 C   0  0  0  0  0  0  0  0  0  0  0  0
   11.3859  -11.7892  -11.3178 O   0  0  0  0  0  0  0  0  0  0  0  0
   13.2477  -10.8940  -12.4452 C   0  0  0  0  0  0  0  0  0  0  0  0
   14.3475   -9.9105  -12.3213 C   0  0  0  0  0  0  0  0  0  0  0  0
   15.3101   -9.9022  -13.4546 C   0  0  2  0  0  0  0  0  0  0  0  0
   15.7652  -11.2351  -13.8062 N   0  0  0  0  0  0  0  0  0  0  0  0
   16.5337   -9.0791  -13.1837 C   0  0  0  0  0  0  0  0  0  0  0  0
   17.2236   -9.1844  -12.1426 O   0  0  0  0  0  0  0  0  0  0  0  0
   16.9705   -8.1171  -14.1292 N   0  0  0  0  0  0  0  0  0  0  0  0
   18.0558   -7.2058  -13.8187 C   0  0  1  0  0  0  0  0  0  0  0  0
   19.2752   -7.6605  -14.5991 C   0  0  0  0  0  0  0  0  0  0  0  0
   20.4219   -6.7550  -14.4741 C   0  0  0  0  0  0  0  0  0  0  0  0
   20.7449   -5.8387  -15.4540 C   0  0  0  0  0  0  0  0  0  0  0  0
   21.8322   -5.0070  -15.2832 C   0  0  0  0  0  0  0  0  0  0  0  0
   22.6245   -5.0504  -14.1588 C   0  0  0  0  0  0  0  0  0  0  0  0
   22.3063   -5.9641  -13.1770 C   0  0  0  0  0  0  0  0  0  0  0  0
   21.2089   -6.8057  -13.3459 C   0  0  0  0  0  0  0  0  0  0  0  0
   17.6382   -5.8278  -14.1454 C   0  0  0  0  0  0  0  0  0  0  0  0
   18.1066   -4.8438  -13.5346 O   0  0  0  0  0  0  0  0  0  0  0  0
   16.7122   -5.6084  -15.1436 O   0  0  0  0  0  0  0  0  0  0  0  0
  2  1  1  1
  2  6  1  0
  3  2  1  0
  4  3  1  0
  4  5  2  0
  6  7  2  0
  8  4  1  0
  9 10  1  0
 10 12  1  0
 10 11  2  0
 12 13  1  0
 14 13  1  1
 14 16  1  0
 15  6  1  0
 15 14  1  0
 16 17  2  0
 18 19  1  0
 18 16  1  0
 19 27  1  0
 19 20  1  6
 21 20  1  0
 22 21  2  0
 23 22  1  0
 24 23  2  0
 24 25  1  0
 25 26  2  0
 26 21  1  0
 27 28  2  0
 27 29  1  0
M  END
$$$$
