DQF.pdb
     RDKit          3D

 29 29  0  0  1  0  0  0  0  0999 V2000
   18.0983  -10.2237  -20.0179 N   0  0  0  0  0  0  0  0  0  0  0  0
   17.6908   -8.8089  -19.7764 C   0  0  1  0  0  0  0  0  0  0  0  0
   16.2953   -8.6152  -20.2473 C   0  0  0  0  0  0  0  0  0  0  0  0
   16.1794   -8.3404  -21.6792 C   0  0  0  0  0  0  0  0  0  0  0  0
   17.1519   -8.4795  -22.4415 O   0  0  0  0  0  0  0  0  0  0  0  0
   17.8778   -8.5487  -18.3047 C   0  0  0  0  0  0  0  0  0  0  0  0
   17.6099   -7.4742  -17.7470 O   0  0  0  0  0  0  0  0  0  0  0  0
   14.9626   -7.9073  -22.2529 O   0  0  0  0  0  0  0  0  0  0  0  0
   15.4995  -11.5501  -13.1226 N   0  0  0  0  0  0  0  0  0  0  0  0
   16.1203  -10.6345  -14.0108 C   0  0  0  0  0  0  0  0  0  0  0  0
   16.0198   -9.4113  -13.7694 O   0  0  0  0  0  0  0  0  0  0  0  0
   16.8764  -11.0675  -15.2054 C   0  0  0  0  0  0  0  0  0  0  0  0
   18.2951  -10.6460  -15.2488 C   0  0  0  0  0  0  0  0  0  0  0  0
   18.5528   -9.3936  -16.0080 C   0  0  2  0  0  0  0  0  0  0  0  0
   18.3959   -9.5705  -17.4403 N   0  0  0  0  0  0  0  0  0  0  0  0
   19.9278   -8.8394  -15.7833 C   0  0  0  0  0  0  0  0  0  0  0  0
   20.9646   -9.3319  -16.2869 O   0  0  0  0  0  0  0  0  0  0  0  0
   20.1118   -7.6974  -14.9635 N   0  0  0  0  0  0  0  0  0  0  0  0
   21.4073   -7.0522  -14.8639 C   0  0  1  0  0  0  0  0  0  0  0  0
   21.8034   -6.5992  -16.2571 C   0  0  0  0  0  0  0  0  0  0  0  0
   23.0462   -5.8215  -16.2889 C   0  0  0  0  0  0  0  0  0  0  0  0
   24.2888   -6.4215  -16.2871 C   0  0  0  0  0  0  0  0  0  0  0  0
   25.4265   -5.6420  -16.3228 C   0  0  0  0  0  0  0  0  0  0  0  0
   25.3777   -4.2671  -16.3606 C   0  0  0  0  0  0  0  0  0  0  0  0
   24.1388   -3.6629  -16.3624 C   0  0  0  0  0  0  0  0  0  0  0  0
   22.9876   -4.4467  -16.3265 C   0  0  0  0  0  0  0  0  0  0  0  0
   21.3206   -5.9412  -13.8951 C   0  0  0  0  0  0  0  0  0  0  0  0
   20.2636   -5.2934  -13.7410 O   0  0  0  0  0  0  0  0  0  0  0  0
   22.4223   -5.6013  -13.1384 O   0  0  0  0  0  0  0  0  0  0  0  0
  2  1  1  1
  2  6  1  0
  3  2  1  0
  4  3  1  0
  4  5  2  0
  6  7  2  0
  8  4  1  0
  9 10  1  0
 10 12  1  0
 10 11  2  0
 12 13  1  0
 14 13  1  1
 14 16  1  0
 15  6  1  0
 15 14  1  0
 16 17  2  0
 18 19  1  0
 18 16  1  0
 19 27  1  0
 19 20  1  6
 21 20  1  0
 22 21  2  0
 23 22  1  0
 24 23  2  0
 24 25  1  0
 25 26  2  0
 26 21  1  0
 27 28  2  0
 27 29  1  0
M  END
$$$$
