DQF.pdb
     RDKit          3D

 29 29  0  0  1  0  0  0  0  0999 V2000
   16.9944  -12.6320  -18.1009 N   0  0  0  0  0  0  0  0  0  0  0  0
   16.9370  -11.8752  -16.8164 C   0  0  1  0  0  0  0  0  0  0  0  0
   17.3397  -12.7719  -15.7026 C   0  0  0  0  0  0  0  0  0  0  0  0
   16.3575  -13.8075  -15.3827 C   0  0  0  0  0  0  0  0  0  0  0  0
   15.2979  -13.9092  -16.0253 O   0  0  0  0  0  0  0  0  0  0  0  0
   17.8281  -10.6722  -16.9813 C   0  0  0  0  0  0  0  0  0  0  0  0
   18.7871  -10.6170  -17.7652 O   0  0  0  0  0  0  0  0  0  0  0  0
   16.5715  -14.7311  -14.3346 O   0  0  0  0  0  0  0  0  0  0  0  0
   16.5375   -4.6223  -14.8894 N   0  0  0  0  0  0  0  0  0  0  0  0
   17.8352   -4.6021  -15.4621 C   0  0  0  0  0  0  0  0  0  0  0  0
   18.4141   -3.4998  -15.5840 O   0  0  0  0  0  0  0  0  0  0  0  0
   18.5263   -5.8266  -15.9197 C   0  0  0  0  0  0  0  0  0  0  0  0
   17.7568   -7.0835  -15.7773 C   0  0  0  0  0  0  0  0  0  0  0  0
   18.4235   -8.2915  -16.3317 C   0  0  2  0  0  0  0  0  0  0  0  0
   17.6038   -9.4833  -16.2093 N   0  0  0  0  0  0  0  0  0  0  0  0
   19.7371   -8.5943  -15.6754 C   0  0  0  0  0  0  0  0  0  0  0  0
   19.8418   -9.1634  -14.5635 O   0  0  0  0  0  0  0  0  0  0  0  0
   20.9523   -8.2348  -16.3112 N   0  0  0  0  0  0  0  0  0  0  0  0
   22.2305   -8.4861  -15.6728 C   0  0  1  0  0  0  0  0  0  0  0  0
   22.9967   -9.4620  -16.5466 C   0  0  0  0  0  0  0  0  0  0  0  0
   24.3781   -9.6823  -16.1065 C   0  0  0  0  0  0  0  0  0  0  0  0
   24.6885  -10.5097  -15.0468 C   0  0  0  0  0  0  0  0  0  0  0  0
   26.0060  -10.6855  -14.6773 C   0  0  0  0  0  0  0  0  0  0  0  0
   27.0446  -10.0612  -15.3299 C   0  0  0  0  0  0  0  0  0  0  0  0
   26.7398   -9.2335  -16.3890 C   0  0  0  0  0  0  0  0  0  0  0  0
   25.4105   -9.0535  -16.7651 C   0  0  0  0  0  0  0  0  0  0  0  0
   22.9350   -7.2028  -15.4802 C   0  0  0  0  0  0  0  0  0  0  0  0
   23.6198   -6.9834  -14.4586 O   0  0  0  0  0  0  0  0  0  0  0  0
   22.8432   -6.2172  -16.4405 O   0  0  0  0  0  0  0  0  0  0  0  0
  2  1  1  6
  2  6  1  0
  3  2  1  0
  4  3  1  0
  4  5  2  0
  6  7  2  0
  8  4  1  0
  9 10  1  0
 10 12  1  0
 10 11  2  0
 12 13  1  0
 14 13  1  1
 14 16  1  0
 15  6  1  0
 15 14  1  0
 16 17  2  0
 18 19  1  0
 18 16  1  0
 19 27  1  0
 19 20  1  6
 21 20  1  0
 22 21  2  0
 23 22  1  0
 24 23  2  0
 24 25  1  0
 25 26  2  0
 26 21  1  0
 27 28  2  0
 27 29  1  0
M  END
$$$$
