DQF.pdb
     RDKit          3D

 29 29  0  0  1  0  0  0  0  0999 V2000
   24.5931  -17.4194  -16.0544 N   0  0  0  0  0  0  0  0  0  0  0  0
   25.7776  -17.8576  -15.2601 C   0  0  1  0  0  0  0  0  0  0  0  0
   26.3586  -16.6829  -14.5607 C   0  0  0  0  0  0  0  0  0  0  0  0
   27.0827  -15.7623  -15.4370 C   0  0  0  0  0  0  0  0  0  0  0  0
   27.1471  -15.9584  -16.6632 O   0  0  0  0  0  0  0  0  0  0  0  0
   25.3000  -18.9432  -14.3317 C   0  0  0  0  0  0  0  0  0  0  0  0
   24.1822  -18.9603  -13.7953 O   0  0  0  0  0  0  0  0  0  0  0  0
   27.7359  -14.6170  -14.9283 O   0  0  0  0  0  0  0  0  0  0  0  0
   24.3202  -24.8184  -13.3919 N   0  0  0  0  0  0  0  0  0  0  0  0
   24.0579  -24.0370  -14.5465 C   0  0  0  0  0  0  0  0  0  0  0  0
   23.0882  -24.3535  -15.2707 O   0  0  0  0  0  0  0  0  0  0  0  0
   24.8825  -22.8698  -14.9262 C   0  0  0  0  0  0  0  0  0  0  0  0
   25.9327  -22.4886  -13.9547 C   0  0  0  0  0  0  0  0  0  0  0  0
   25.6925  -21.2039  -13.2456 C   0  0  2  0  0  0  0  0  0  0  0  0
   26.1473  -20.0554  -14.0082 N   0  0  0  0  0  0  0  0  0  0  0  0
   26.3638  -21.1341  -11.9067 C   0  0  0  0  0  0  0  0  0  0  0  0
   27.5999  -20.9901  -11.7575 O   0  0  0  0  0  0  0  0  0  0  0  0
   25.5972  -21.2323  -10.7180 N   0  0  0  0  0  0  0  0  0  0  0  0
   26.2347  -21.2010   -9.4151 C   0  0  1  0  0  0  0  0  0  0  0  0
   27.0277  -19.9105   -9.3224 C   0  0  0  0  0  0  0  0  0  0  0  0
   27.6026  -19.6703   -7.9950 C   0  0  0  0  0  0  0  0  0  0  0  0
   27.1449  -18.6661   -7.1666 C   0  0  0  0  0  0  0  0  0  0  0  0
   27.7188  -18.4868   -5.9250 C   0  0  0  0  0  0  0  0  0  0  0  0
   28.7465  -19.2788   -5.4661 C   0  0  0  0  0  0  0  0  0  0  0  0
   29.2076  -20.2832   -6.2898 C   0  0  0  0  0  0  0  0  0  0  0  0
   28.6306  -20.4674   -7.5444 C   0  0  0  0  0  0  0  0  0  0  0  0
   25.2007  -21.3233   -8.3682 C   0  0  0  0  0  0  0  0  0  0  0  0
   24.0208  -20.9682   -8.5745 O   0  0  0  0  0  0  0  0  0  0  0  0
   25.5310  -21.8387   -7.1324 O   0  0  0  0  0  0  0  0  0  0  0  0
  2  1  1  1
  2  6  1  0
  3  2  1  0
  4  3  1  0
  4  5  2  0
  6  7  2  0
  8  4  1  0
  9 10  1  0
 10 12  1  0
 10 11  2  0
 12 13  1  0
 14 13  1  6
 14 16  1  0
 15  6  1  0
 15 14  1  0
 16 17  2  0
 18 19  1  0
 18 16  1  0
 19 27  1  0
 19 20  1  1
 21 20  1  0
 22 21  2  0
 23 22  1  0
 24 23  2  0
 24 25  1  0
 25 26  2  0
 26 21  1  0
 27 28  2  0
 27 29  1  0
M  END
$$$$
