DQF.pdb
     RDKit          3D

 29 29  0  0  1  0  0  0  0  0999 V2000
   20.4406  -12.2745  -17.9614 N   0  0  0  0  0  0  0  0  0  0  0  0
   21.8536  -11.8278  -17.7889 C   0  0  1  0  0  0  0  0  0  0  0  0
   22.7072  -12.5065  -18.7976 C   0  0  0  0  0  0  0  0  0  0  0  0
   22.6687  -13.9671  -18.7291 C   0  0  0  0  0  0  0  0  0  0  0  0
   21.7525  -14.5588  -18.1319 O   0  0  0  0  0  0  0  0  0  0  0  0
   21.8513  -10.3262  -17.9057 C   0  0  0  0  0  0  0  0  0  0  0  0
   22.8628   -9.6169  -17.7999 O   0  0  0  0  0  0  0  0  0  0  0  0
   23.6667  -14.7625  -19.3362 O   0  0  0  0  0  0  0  0  0  0  0  0
   17.1496   -6.4739  -17.8175 N   0  0  0  0  0  0  0  0  0  0  0  0
   18.0489   -5.6995  -18.5947 C   0  0  0  0  0  0  0  0  0  0  0  0
   17.8289   -4.4738  -18.7128 O   0  0  0  0  0  0  0  0  0  0  0  0
   19.2294   -6.2818  -19.2682 C   0  0  0  0  0  0  0  0  0  0  0  0
   19.3870   -7.7470  -19.1240 C   0  0  0  0  0  0  0  0  0  0  0  0
   20.5771   -8.1742  -18.3417 C   0  0  2  0  0  0  0  0  0  0  0  0
   20.6311   -9.6128  -18.1543 N   0  0  0  0  0  0  0  0  0  0  0  0
   20.6421   -7.5524  -16.9789 C   0  0  0  0  0  0  0  0  0  0  0  0
   20.0155   -7.9913  -15.9860 O   0  0  0  0  0  0  0  0  0  0  0  0
   21.4431   -6.4040  -16.7558 N   0  0  0  0  0  0  0  0  0  0  0  0
   21.4226   -5.7177  -15.4778 C   0  0  1  0  0  0  0  0  0  0  0  0
   22.7877   -5.8951  -14.8390 C   0  0  0  0  0  0  0  0  0  0  0  0
   23.1057   -7.2894  -14.5145 C   0  0  0  0  0  0  0  0  0  0  0  0
   24.0295   -8.0191  -15.2343 C   0  0  0  0  0  0  0  0  0  0  0  0
   24.2945   -9.3266  -14.8831 C   0  0  0  0  0  0  0  0  0  0  0  0
   23.6674   -9.9482  -13.8274 C   0  0  0  0  0  0  0  0  0  0  0  0
   22.7435   -9.2238  -13.1052 C   0  0  0  0  0  0  0  0  0  0  0  0
   22.4733   -7.9031  -13.4569 C   0  0  0  0  0  0  0  0  0  0  0  0
   21.0632   -4.3021  -15.6953 C   0  0  0  0  0  0  0  0  0  0  0  0
   20.7637   -3.5529  -14.7415 O   0  0  0  0  0  0  0  0  0  0  0  0
   21.0539   -3.7837  -16.9732 O   0  0  0  0  0  0  0  0  0  0  0  0
  2  1  1  6
  2  6  1  0
  3  2  1  0
  4  3  1  0
  4  5  2  0
  6  7  2  0
  8  4  1  0
  9 10  1  0
 10 12  1  0
 10 11  2  0
 12 13  1  0
 14 13  1  1
 14 16  1  0
 15  6  1  0
 15 14  1  0
 16 17  2  0
 18 19  1  0
 18 16  1  0
 19 27  1  0
 19 20  1  6
 21 20  1  0
 22 21  2  0
 23 22  1  0
 24 23  2  0
 24 25  1  0
 25 26  2  0
 26 21  1  0
 27 28  2  0
 27 29  1  0
M  END
$$$$
