DQF.pdb
     RDKit          3D

 29 29  0  0  1  0  0  0  0  0999 V2000
   25.9051  -20.8054  -18.2288 N   0  0  0  0  0  0  0  0  0  0  0  0
   26.7795  -21.0626  -17.0476 C   0  0  1  0  0  0  0  0  0  0  0  0
   28.0201  -20.2552  -17.1730 C   0  0  0  0  0  0  0  0  0  0  0  0
   28.9329  -20.7184  -18.2179 C   0  0  0  0  0  0  0  0  0  0  0  0
   28.6262  -21.6618  -18.9676 O   0  0  0  0  0  0  0  0  0  0  0  0
   25.9632  -20.7374  -15.8244 C   0  0  0  0  0  0  0  0  0  0  0  0
   25.6785  -19.5863  -15.4617 O   0  0  0  0  0  0  0  0  0  0  0  0
   30.1953  -20.1154  -18.4176 O   0  0  0  0  0  0  0  0  0  0  0  0
   21.2669  -20.2476  -11.6006 N   0  0  0  0  0  0  0  0  0  0  0  0
   21.6641  -21.0405  -12.7078 C   0  0  0  0  0  0  0  0  0  0  0  0
   21.2276  -20.7402  -13.8410 O   0  0  0  0  0  0  0  0  0  0  0  0
   22.5683  -22.2030  -12.5754 C   0  0  0  0  0  0  0  0  0  0  0  0
   23.4667  -22.4458  -13.7269 C   0  0  0  0  0  0  0  0  0  0  0  0
   24.6369  -21.5321  -13.8110 C   0  0  2  0  0  0  0  0  0  0  0  0
   25.4543  -21.7836  -14.9840 N   0  0  0  0  0  0  0  0  0  0  0  0
   25.5422  -21.6212  -12.6191 C   0  0  0  0  0  0  0  0  0  0  0  0
   26.4312  -22.4950  -12.4876 O   0  0  0  0  0  0  0  0  0  0  0  0
   25.4212  -20.6869  -11.5595 N   0  0  0  0  0  0  0  0  0  0  0  0
   26.0074  -20.9540  -10.2596 C   0  0  1  0  0  0  0  0  0  0  0  0
   27.0427  -19.8772   -9.9924 C   0  0  0  0  0  0  0  0  0  0  0  0
   27.5825  -19.9090   -8.6293 C   0  0  0  0  0  0  0  0  0  0  0  0
   27.1793  -19.0154   -7.6582 C   0  0  0  0  0  0  0  0  0  0  0  0
   27.7163  -19.0930   -6.3898 C   0  0  0  0  0  0  0  0  0  0  0  0
   28.6537  -20.0388   -6.0423 C   0  0  0  0  0  0  0  0  0  0  0  0
   29.0600  -20.9337   -7.0088 C   0  0  0  0  0  0  0  0  0  0  0  0
   28.5199  -20.8585   -8.2908 C   0  0  0  0  0  0  0  0  0  0  0  0
   24.9353  -20.9931   -9.2450 C   0  0  0  0  0  0  0  0  0  0  0  0
   23.8765  -20.3465   -9.3920 O   0  0  0  0  0  0  0  0  0  0  0  0
   25.0936  -21.7552   -8.1066 O   0  0  0  0  0  0  0  0  0  0  0  0
  2  1  1  6
  2  6  1  0
  3  2  1  0
  4  3  1  0
  4  5  2  0
  6  7  2  0
  8  4  1  0
  9 10  1  0
 10 12  1  0
 10 11  2  0
 12 13  1  0
 14 13  1  1
 14 16  1  0
 15  6  1  0
 15 14  1  0
 16 17  2  0
 18 19  1  0
 18 16  1  0
 19 27  1  0
 19 20  1  1
 21 20  1  0
 22 21  2  0
 23 22  1  0
 24 23  2  0
 24 25  1  0
 25 26  2  0
 26 21  1  0
 27 28  2  0
 27 29  1  0
M  END
$$$$
