DQF.pdb
     RDKit          3D

 29 29  0  0  1  0  0  0  0  0999 V2000
   14.9380  -12.3780  -15.5963 N   0  0  0  0  0  0  0  0  0  0  0  0
   15.3552  -11.0314  -16.0845 C   0  0  1  0  0  0  0  0  0  0  0  0
   14.3255  -10.0319  -15.7004 C   0  0  0  0  0  0  0  0  0  0  0  0
   13.1851   -9.9657  -16.6140 C   0  0  0  0  0  0  0  0  0  0  0  0
   12.6501  -10.9998  -17.0505 O   0  0  0  0  0  0  0  0  0  0  0  0
   16.7155  -10.7593  -15.4980 C   0  0  0  0  0  0  0  0  0  0  0  0
   16.9757  -10.8109  -14.2868 O   0  0  0  0  0  0  0  0  0  0  0  0
   12.6468   -8.7292  -17.0365 O   0  0  0  0  0  0  0  0  0  0  0  0
   22.0385  -12.7703  -17.8272 N   0  0  0  0  0  0  0  0  0  0  0  0
   21.2347  -11.8672  -18.5694 C   0  0  0  0  0  0  0  0  0  0  0  0
   21.3390  -11.8651  -19.8160 O   0  0  0  0  0  0  0  0  0  0  0  0
   20.2842  -10.9321  -17.9303 C   0  0  0  0  0  0  0  0  0  0  0  0
   20.1816  -11.0360  -16.4569 C   0  0  0  0  0  0  0  0  0  0  0  0
   19.1574  -10.1539  -15.8373 C   0  0  2  0  0  0  0  0  0  0  0  0
   17.8218  -10.4129  -16.3439 N   0  0  0  0  0  0  0  0  0  0  0  0
   19.4301   -8.6946  -16.0475 C   0  0  0  0  0  0  0  0  0  0  0  0
   18.8693   -8.0048  -16.9312 O   0  0  0  0  0  0  0  0  0  0  0  0
   20.3658   -8.0176  -15.2252 N   0  0  0  0  0  0  0  0  0  0  0  0
   20.6432   -6.6066  -15.4171 C   0  0  1  0  0  0  0  0  0  0  0  0
   21.0162   -6.0237  -14.0665 C   0  0  0  0  0  0  0  0  0  0  0  0
   21.3871   -4.6061  -14.1226 C   0  0  0  0  0  0  0  0  0  0  0  0
   22.6898   -4.1945  -14.3165 C   0  0  0  0  0  0  0  0  0  0  0  0
   22.9830   -2.8474  -14.3658 C   0  0  0  0  0  0  0  0  0  0  0  0
   22.0170   -1.8768  -14.2277 C   0  0  0  0  0  0  0  0  0  0  0  0
   20.7141   -2.2827  -14.0335 C   0  0  0  0  0  0  0  0  0  0  0  0
   20.4142   -3.6423  -13.9832 C   0  0  0  0  0  0  0  0  0  0  0  0
   21.7088   -6.4569  -16.4281 C   0  0  0  0  0  0  0  0  0  0  0  0
   22.6371   -7.2876  -16.5230 O   0  0  0  0  0  0  0  0  0  0  0  0
   21.6909   -5.3819  -17.2919 O   0  0  0  0  0  0  0  0  0  0  0  0
  2  1  1  1
  2  6  1  0
  3  2  1  0
  4  3  1  0
  4  5  2  0
  6  7  2  0
  8  4  1  0
  9 10  1  0
 10 12  1  0
 10 11  2  0
 12 13  1  0
 14 13  1  6
 14 16  1  0
 15  6  1  0
 15 14  1  0
 16 17  2  0
 18 19  1  0
 18 16  1  0
 19 27  1  0
 19 20  1  1
 21 20  1  0
 22 21  2  0
 23 22  1  0
 24 23  2  0
 24 25  1  0
 25 26  2  0
 26 21  1  0
 27 28  2  0
 27 29  1  0
M  END
$$$$
