DQF.pdb
     RDKit          3D

 29 29  0  0  1  0  0  0  0  0999 V2000
   17.5578   -9.8605  -14.8704 N   0  0  0  0  0  0  0  0  0  0  0  0
   17.8522   -9.9489  -13.4105 C   0  0  1  0  0  0  0  0  0  0  0  0
   19.3234   -9.9974  -13.2107 C   0  0  0  0  0  0  0  0  0  0  0  0
   20.0945  -10.0581  -14.4522 C   0  0  0  0  0  0  0  0  0  0  0  0
   20.1790   -9.0724  -15.2054 O   0  0  0  0  0  0  0  0  0  0  0  0
   17.1891   -8.7625  -12.7615 C   0  0  0  0  0  0  0  0  0  0  0  0
   17.0631   -7.6529  -13.3002 O   0  0  0  0  0  0  0  0  0  0  0  0
   20.7722  -11.2343  -14.8451 O   0  0  0  0  0  0  0  0  0  0  0  0
   12.6461   -9.3596   -8.4173 N   0  0  0  0  0  0  0  0  0  0  0  0
   12.6608   -9.4781   -9.8309 C   0  0  0  0  0  0  0  0  0  0  0  0
   11.7047  -10.0610  -10.3885 O   0  0  0  0  0  0  0  0  0  0  0  0
   13.7572   -8.9436  -10.6666 C   0  0  0  0  0  0  0  0  0  0  0  0
   14.8278   -8.2307   -9.9333 C   0  0  0  0  0  0  0  0  0  0  0  0
   15.9606   -7.7649  -10.7765 C   0  0  2  0  0  0  0  0  0  0  0  0
   16.6491   -8.8600  -11.4353 N   0  0  0  0  0  0  0  0  0  0  0  0
   16.9936   -6.9983  -10.0063 C   0  0  0  0  0  0  0  0  0  0  0  0
   17.7235   -7.5108   -9.1256 O   0  0  0  0  0  0  0  0  0  0  0  0
   17.1893   -5.6162  -10.2550 N   0  0  0  0  0  0  0  0  0  0  0  0
   18.0103   -4.8089   -9.3725 C   0  0  1  0  0  0  0  0  0  0  0  0
   19.2696   -4.4338  -10.1317 C   0  0  0  0  0  0  0  0  0  0  0  0
   20.0774   -5.5897  -10.5339 C   0  0  0  0  0  0  0  0  0  0  0  0
   20.7632   -6.3614   -9.6183 C   0  0  0  0  0  0  0  0  0  0  0  0
   21.5048   -7.4413  -10.0508 C   0  0  0  0  0  0  0  0  0  0  0  0
   21.5935   -7.7906  -11.3790 C   0  0  0  0  0  0  0  0  0  0  0  0
   20.9104   -7.0229  -12.2977 C   0  0  0  0  0  0  0  0  0  0  0  0
   20.1604   -5.9316  -11.8648 C   0  0  0  0  0  0  0  0  0  0  0  0
   17.2312   -3.6370   -8.9255 C   0  0  0  0  0  0  0  0  0  0  0  0
   16.1049   -3.3840   -9.4030 O   0  0  0  0  0  0  0  0  0  0  0  0
   17.7463   -2.7960   -7.9614 O   0  0  0  0  0  0  0  0  0  0  0  0
  2  1  1  6
  2  6  1  0
  3  2  1  0
  4  3  1  0
  4  5  2  0
  6  7  2  0
  8  4  1  0
  9 10  1  0
 10 12  1  0
 10 11  2  0
 12 13  1  0
 14 13  1  1
 14 16  1  0
 15  6  1  0
 15 14  1  0
 16 17  2  0
 18 19  1  0
 18 16  1  0
 19 27  1  0
 19 20  1  6
 21 20  1  0
 22 21  2  0
 23 22  1  0
 24 23  2  0
 24 25  1  0
 25 26  2  0
 26 21  1  0
 27 28  2  0
 27 29  1  0
M  END
$$$$
