DQF.pdb
     RDKit          3D

 29 29  0  0  1  0  0  0  0  0999 V2000
   18.2114  -12.6062  -17.0580 N   0  0  0  0  0  0  0  0  0  0  0  0
   17.6993  -11.2871  -16.5850 C   0  0  1  0  0  0  0  0  0  0  0  0
   17.2597  -11.4120  -15.1715 C   0  0  0  0  0  0  0  0  0  0  0  0
   16.1093  -12.2943  -14.9780 C   0  0  0  0  0  0  0  0  0  0  0  0
   15.0356  -12.0904  -15.5711 O   0  0  0  0  0  0  0  0  0  0  0  0
   18.8103  -10.2913  -16.7907 C   0  0  0  0  0  0  0  0  0  0  0  0
   20.0169  -10.5690  -16.7247 O   0  0  0  0  0  0  0  0  0  0  0  0
   16.1704  -13.4101  -14.1129 O   0  0  0  0  0  0  0  0  0  0  0  0
   18.5075   -4.9319  -20.3457 N   0  0  0  0  0  0  0  0  0  0  0  0
   19.7621   -4.9000  -19.6844 C   0  0  0  0  0  0  0  0  0  0  0  0
   20.5537   -3.9703  -19.9561 O   0  0  0  0  0  0  0  0  0  0  0  0
   20.1692   -5.9184  -18.6926 C   0  0  0  0  0  0  0  0  0  0  0  0
   19.1618   -6.9640  -18.4030 C   0  0  0  0  0  0  0  0  0  0  0  0
   19.5448   -7.9224  -17.3325 C   0  0  2  0  0  0  0  0  0  0  0  0
   18.5172   -8.9174  -17.0845 N   0  0  0  0  0  0  0  0  0  0  0  0
   19.8355   -7.2568  -16.0208 C   0  0  0  0  0  0  0  0  0  0  0  0
   18.9461   -6.8276  -15.2490 O   0  0  0  0  0  0  0  0  0  0  0  0
   21.1752   -7.0823  -15.5904 N   0  0  0  0  0  0  0  0  0  0  0  0
   21.4765   -6.3801  -14.3572 C   0  0  1  0  0  0  0  0  0  0  0  0
   22.3204   -7.3029  -13.4974 C   0  0  0  0  0  0  0  0  0  0  0  0
   23.3514   -8.0247  -14.2501 C   0  0  0  0  0  0  0  0  0  0  0  0
   24.2060   -7.3851  -15.1245 C   0  0  0  0  0  0  0  0  0  0  0  0
   25.1616   -8.1119  -15.8040 C   0  0  0  0  0  0  0  0  0  0  0  0
   25.3040   -9.4717  -15.6465 C   0  0  0  0  0  0  0  0  0  0  0  0
   24.4527  -10.1154  -14.7742 C   0  0  0  0  0  0  0  0  0  0  0  0
   23.4864   -9.3848  -14.0863 C   0  0  0  0  0  0  0  0  0  0  0  0
   22.1522   -5.1072  -14.6788 C   0  0  0  0  0  0  0  0  0  0  0  0
   22.4398   -4.8025  -15.8557 O   0  0  0  0  0  0  0  0  0  0  0  0
   22.4783   -4.2274  -13.6680 O   0  0  0  0  0  0  0  0  0  0  0  0
  2  1  1  1
  2  6  1  0
  3  2  1  0
  4  3  1  0
  4  5  2  0
  6  7  2  0
  8  4  1  0
  9 10  1  0
 10 12  1  0
 10 11  2  0
 12 13  1  0
 14 13  1  6
 14 16  1  0
 15  6  1  0
 15 14  1  0
 16 17  2  0
 18 19  1  0
 18 16  1  0
 19 27  1  0
 19 20  1  1
 21 20  1  0
 22 21  2  0
 23 22  1  0
 24 23  2  0
 24 25  1  0
 25 26  2  0
 26 21  1  0
 27 28  2  0
 27 29  1  0
M  END
$$$$
