DQF.pdb
     RDKit          3D

 29 29  0  0  1  0  0  0  0  0999 V2000
   19.7618  -12.5455  -20.4437 N   0  0  0  0  0  0  0  0  0  0  0  0
   19.8621  -12.6546  -18.9591 C   0  0  1  0  0  0  0  0  0  0  0  0
   21.2823  -12.4981  -18.5525 C   0  0  0  0  0  0  0  0  0  0  0  0
   22.1404  -13.6208  -18.9305 C   0  0  0  0  0  0  0  0  0  0  0  0
   21.6756  -14.6197  -19.5069 O   0  0  0  0  0  0  0  0  0  0  0  0
   18.9459  -11.6065  -18.3841 C   0  0  0  0  0  0  0  0  0  0  0  0
   18.7173  -10.5111  -18.9183 O   0  0  0  0  0  0  0  0  0  0  0  0
   23.5270  -13.6164  -18.6574 O   0  0  0  0  0  0  0  0  0  0  0  0
   14.1296  -12.6485  -14.1765 N   0  0  0  0  0  0  0  0  0  0  0  0
   14.1904  -11.2489  -14.4005 C   0  0  0  0  0  0  0  0  0  0  0  0
   13.2740  -10.5329  -13.9398 O   0  0  0  0  0  0  0  0  0  0  0  0
   15.2884  -10.6069  -15.1546 C   0  0  0  0  0  0  0  0  0  0  0  0
   16.2279  -11.5342  -15.8253 C   0  0  0  0  0  0  0  0  0  0  0  0
   17.3413  -10.8750  -16.5580 C   0  0  2  0  0  0  0  0  0  0  0  0
   18.2652  -11.8311  -17.1408 N   0  0  0  0  0  0  0  0  0  0  0  0
   18.1510   -9.9530  -15.6963 C   0  0  0  0  0  0  0  0  0  0  0  0
   19.1963  -10.3018  -15.0991 O   0  0  0  0  0  0  0  0  0  0  0  0
   17.7490   -8.6050  -15.5190 N   0  0  0  0  0  0  0  0  0  0  0  0
   18.5881   -7.6653  -14.7996 C   0  0  1  0  0  0  0  0  0  0  0  0
   19.9082   -7.5666  -15.5416 C   0  0  0  0  0  0  0  0  0  0  0  0
   20.7903   -6.5126  -15.0301 C   0  0  0  0  0  0  0  0  0  0  0  0
   21.0121   -5.3399  -15.7225 C   0  0  0  0  0  0  0  0  0  0  0  0
   21.8483   -4.3788  -15.1930 C   0  0  0  0  0  0  0  0  0  0  0  0
   22.4834   -4.5396  -13.9826 C   0  0  0  0  0  0  0  0  0  0  0  0
   22.2652   -5.7094  -13.2870 C   0  0  0  0  0  0  0  0  0  0  0  0
   21.4215   -6.6823  -13.8186 C   0  0  0  0  0  0  0  0  0  0  0  0
   17.8839   -6.3719  -14.6932 C   0  0  0  0  0  0  0  0  0  0  0  0
   18.1478   -5.5605  -13.7806 O   0  0  0  0  0  0  0  0  0  0  0  0
   16.9122   -6.0403  -15.6140 O   0  0  0  0  0  0  0  0  0  0  0  0
  2  1  1  6
  2  6  1  0
  3  2  1  0
  4  3  1  0
  4  5  2  0
  6  7  2  0
  8  4  1  0
  9 10  1  0
 10 12  1  0
 10 11  2  0
 12 13  1  0
 14 13  1  1
 14 16  1  0
 15  6  1  0
 15 14  1  0
 16 17  2  0
 18 19  1  0
 18 16  1  0
 19 27  1  0
 19 20  1  6
 21 20  1  0
 22 21  2  0
 23 22  1  0
 24 23  2  0
 24 25  1  0
 25 26  2  0
 26 21  1  0
 27 28  2  0
 27 29  1  0
M  END
$$$$
