DQF.pdb
     RDKit          3D

 29 29  0  0  1  0  0  0  0  0999 V2000
   19.1349  -14.5078  -17.4088 N   0  0  0  0  0  0  0  0  0  0  0  0
   18.4420  -13.2250  -17.0920 C   0  0  1  0  0  0  0  0  0  0  0  0
   18.0189  -13.2369  -15.6680 C   0  0  0  0  0  0  0  0  0  0  0  0
   17.0197  -14.2563  -15.3488 C   0  0  0  0  0  0  0  0  0  0  0  0
   15.9726  -14.3600  -16.0113 O   0  0  0  0  0  0  0  0  0  0  0  0
   19.4038  -12.1169  -17.4314 C   0  0  0  0  0  0  0  0  0  0  0  0
   20.1646  -12.1292  -18.4105 O   0  0  0  0  0  0  0  0  0  0  0  0
   17.2025  -15.1615  -14.2790 O   0  0  0  0  0  0  0  0  0  0  0  0
   20.7543   -9.0101  -20.5389 N   0  0  0  0  0  0  0  0  0  0  0  0
   20.2346   -7.8269  -19.9537 C   0  0  0  0  0  0  0  0  0  0  0  0
   20.5369   -6.7273  -20.4678 O   0  0  0  0  0  0  0  0  0  0  0  0
   19.3551   -7.8424  -18.7652 C   0  0  0  0  0  0  0  0  0  0  0  0
   19.0247   -9.1846  -18.2346 C   0  0  0  0  0  0  0  0  0  0  0  0
   19.8889   -9.6451  -17.1156 C   0  0  2  0  0  0  0  0  0  0  0  0
   19.4923  -10.9456  -16.6068 N   0  0  0  0  0  0  0  0  0  0  0  0
   19.8970   -8.7026  -15.9496 C   0  0  0  0  0  0  0  0  0  0  0  0
   18.8741   -8.4113  -15.2864 O   0  0  0  0  0  0  0  0  0  0  0  0
   21.1054   -8.0843  -15.5400 N   0  0  0  0  0  0  0  0  0  0  0  0
   21.1592   -7.2782  -14.3350 C   0  0  1  0  0  0  0  0  0  0  0  0
   22.5779   -7.3448  -13.8005 C   0  0  0  0  0  0  0  0  0  0  0  0
   23.5910   -6.9241  -14.7738 C   0  0  0  0  0  0  0  0  0  0  0  0
   23.8992   -5.5960  -14.9861 C   0  0  0  0  0  0  0  0  0  0  0  0
   24.8645   -5.2556  -15.9110 C   0  0  0  0  0  0  0  0  0  0  0  0
   25.5470   -6.1983  -16.6456 C   0  0  0  0  0  0  0  0  0  0  0  0
   25.2428   -7.5264  -16.4374 C   0  0  0  0  0  0  0  0  0  0  0  0
   24.2685   -7.8741  -15.5042 C   0  0  0  0  0  0  0  0  0  0  0  0
   20.7228   -5.9040  -14.6532 C   0  0  0  0  0  0  0  0  0  0  0  0
   20.6268   -5.0299  -13.7657 O   0  0  0  0  0  0  0  0  0  0  0  0
   20.4114   -5.5650  -15.9532 O   0  0  0  0  0  0  0  0  0  0  0  0
  2  1  1  1
  2  6  1  0
  3  2  1  0
  4  3  1  0
  4  5  2  0
  6  7  2  0
  8  4  1  0
  9 10  1  0
 10 12  1  0
 10 11  2  0
 12 13  1  0
 14 13  1  6
 14 16  1  0
 15  6  1  0
 15 14  1  0
 16 17  2  0
 18 19  1  0
 18 16  1  0
 19 27  1  0
 19 20  1  6
 21 20  1  0
 22 21  2  0
 23 22  1  0
 24 23  2  0
 24 25  1  0
 25 26  2  0
 26 21  1  0
 27 28  2  0
 27 29  1  0
M  END
$$$$
