CWT.pdb
     RDKit          3D

 28 29  0  0  1  0  0  0  0  0999 V2000
    7.6870  -17.1367   19.9985 N   0  0  0  0  0  0  0  0  0  0  0  0
    9.0717  -16.8519   19.6485 C   0  0  1  0  0  0  0  0  0  0  0  0
    9.0291  -15.8460   18.4996 C   0  0  0  0  0  0  0  0  0  0  0  0
    7.9985  -16.4458   17.1384 S   0  0  0  0  0  0  0  0  0  0  0  0
    9.7526  -16.3141   20.8462 C   0  0  0  0  0  0  0  0  0  0  0  0
   10.9667  -16.0448   20.7906 O   0  0  0  0  0  0  0  0  0  0  0  0
    9.0076  -16.1196   22.0231 N   0  0  0  0  0  0  0  0  0  0  0  0
    9.5679  -15.6775   23.2633 C   0  0  1  0  0  0  0  0  0  0  0  0
    8.9813  -14.3793   23.6727 C   0  0  0  0  0  0  0  0  0  0  0  0
    7.8785  -14.4368   24.6350 C   0  0  0  0  0  0  0  0  0  0  0  0
    7.0714  -15.5434   24.9321 C   0  0  0  0  0  0  0  0  0  0  0  0
    6.1340  -15.1661   25.8143 N   0  0  0  0  0  0  0  0  0  0  0  0
    6.2937  -13.8553   26.1084 C   0  0  0  0  0  0  0  0  0  0  0  0
    5.6235  -13.0151   26.9775 C   0  0  0  0  0  0  0  0  0  0  0  0
    6.0148  -11.6850   27.1480 C   0  0  0  0  0  0  0  0  0  0  0  0
    7.0956  -11.2216   26.4223 C   0  0  0  0  0  0  0  0  0  0  0  0
    7.7338  -12.0791   25.5711 C   0  0  0  0  0  0  0  0  0  0  0  0
    7.3763  -13.4012   25.3759 C   0  0  0  0  0  0  0  0  0  0  0  0
    9.7331  -16.7423   24.2451 C   0  0  0  0  0  0  0  0  0  0  0  0
    8.8509  -17.6621   24.3711 O   0  0  0  0  0  0  0  0  0  0  0  0
   12.1996  -19.2976   24.2116 C   0  0  0  0  0  0  0  0  0  0  0  0
   12.2982  -18.6958   25.5879 C   0  0  1  0  0  0  0  0  0  0  0  0
   13.3799  -17.7829   25.5982 O   0  0  0  0  0  0  0  0  0  0  0  0
   11.0361  -18.0138   25.9911 C   0  0  2  0  0  0  0  0  0  0  0  0
   10.8516  -16.8288   25.1222 N   0  0  0  0  0  0  0  0  0  0  0  0
   11.2248  -17.4789   27.3917 C   0  0  0  0  0  0  0  0  0  0  0  0
   11.2554  -16.2676   27.5701 O   0  0  0  0  0  0  0  0  0  0  0  0
   11.3550  -18.3861   28.4094 O   0  0  0  0  0  0  0  0  0  0  0  0
  2  1  1  1
  2  3  1  0
  4  3  1  0
  5  2  1  0
  5  6  2  0
  7  5  1  0
  8  7  1  0
  8  9  1  1
 10  9  1  0
 10 18  1  0
 11 12  1  0
 11 10  2  0
 12 13  1  0
 13 18  2  0
 13 14  1  0
 14 15  2  0
 15 16  1  0
 17 16  2  0
 18 17  1  0
 19  8  1  0
 19 20  2  0
 22 21  1  6
 23 22  1  0
 24 25  1  6
 24 22  1  0
 25 19  1  0
 26 24  1  0
 27 26  2  0
 28 26  1  0
M  END
$$$$
