CWT.pdb
     RDKit          3D

 28 29  0  0  1  0  0  0  0  0999 V2000
   10.2279  -15.6399   17.8902 N   0  0  0  0  0  0  0  0  0  0  0  0
    9.5125  -16.5303   18.7936 C   0  0  1  0  0  0  0  0  0  0  0  0
   10.1751  -17.9008   18.6647 C   0  0  0  0  0  0  0  0  0  0  0  0
    8.9855  -19.1594   18.1402 S   0  0  0  0  0  0  0  0  0  0  0  0
    9.6118  -15.9807   20.1632 C   0  0  0  0  0  0  0  0  0  0  0  0
   10.7068  -15.5530   20.5728 O   0  0  0  0  0  0  0  0  0  0  0  0
    8.4613  -15.9553   20.9717 N   0  0  0  0  0  0  0  0  0  0  0  0
    8.4687  -15.6412   22.3676 C   0  0  1  0  0  0  0  0  0  0  0  0
    7.1647  -15.0744   22.7865 C   0  0  0  0  0  0  0  0  0  0  0  0
    6.9886  -14.8346   24.2207 C   0  0  0  0  0  0  0  0  0  0  0  0
    6.5784  -15.7607   25.1893 C   0  0  0  0  0  0  0  0  0  0  0  0
    6.4750  -15.1303   26.3689 N   0  0  0  0  0  0  0  0  0  0  0  0
    6.8014  -13.8266   26.2131 C   0  0  0  0  0  0  0  0  0  0  0  0
    6.8917  -12.7827   27.1144 C   0  0  0  0  0  0  0  0  0  0  0  0
    7.3076  -11.5109   26.7131 C   0  0  0  0  0  0  0  0  0  0  0  0
    7.6291  -11.3158   25.3834 C   0  0  0  0  0  0  0  0  0  0  0  0
    7.5268  -12.3695   24.5196 C   0  0  0  0  0  0  0  0  0  0  0  0
    7.1196  -13.6418   24.8791 C   0  0  0  0  0  0  0  0  0  0  0  0
    9.1211  -16.6506   23.1926 C   0  0  0  0  0  0  0  0  0  0  0  0
    8.7319  -17.8705   23.1681 O   0  0  0  0  0  0  0  0  0  0  0  0
   12.4348  -18.0292   23.0067 C   0  0  0  0  0  0  0  0  0  0  0  0
   12.2884  -17.5118   24.4127 C   0  0  1  0  0  0  0  0  0  0  0  0
   12.8874  -16.2311   24.4805 O   0  0  0  0  0  0  0  0  0  0  0  0
   10.8616  -17.4436   24.8372 C   0  0  2  0  0  0  0  0  0  0  0  0
   10.2020  -16.3600   24.0729 N   0  0  0  0  0  0  0  0  0  0  0  0
   10.8284  -17.0127   26.2851 C   0  0  0  0  0  0  0  0  0  0  0  0
   10.3484  -15.9237   26.5741 O   0  0  0  0  0  0  0  0  0  0  0  0
   11.3440  -17.8717   27.2189 O   0  0  0  0  0  0  0  0  0  0  0  0
  2  1  1  6
  2  3  1  0
  4  3  1  0
  5  2  1  0
  5  6  2  0
  7  5  1  0
  8  7  1  0
  8  9  1  1
 10  9  1  0
 10 18  1  0
 11 12  1  0
 11 10  2  0
 12 13  1  0
 13 18  2  0
 13 14  1  0
 14 15  2  0
 15 16  1  0
 17 16  2  0
 18 17  1  0
 19  8  1  0
 19 20  2  0
 22 21  1  6
 23 22  1  0
 24 25  1  6
 24 22  1  0
 25 19  1  0
 26 24  1  0
 27 26  2  0
 28 26  1  0
M  END
$$$$
