CWT.pdb
     RDKit          3D

 28 29  0  0  1  0  0  0  0  0999 V2000
    9.6411  -16.7052   18.3932 N   0  0  0  0  0  0  0  0  0  0  0  0
    8.6113  -16.9336   19.3974 C   0  0  1  0  0  0  0  0  0  0  0  0
    8.2606  -18.4188   19.3269 C   0  0  0  0  0  0  0  0  0  0  0  0
    7.2724  -18.9294   20.7542 S   0  0  0  0  0  0  0  0  0  0  0  0
    9.1538  -16.5426   20.7167 C   0  0  0  0  0  0  0  0  0  0  0  0
   10.3394  -16.8035   20.9924 O   0  0  0  0  0  0  0  0  0  0  0  0
    8.3124  -15.8830   21.6304 N   0  0  0  0  0  0  0  0  0  0  0  0
    8.7186  -15.4647   22.9371 C   0  0  1  0  0  0  0  0  0  0  0  0
    7.8778  -14.3416   23.4152 C   0  0  0  0  0  0  0  0  0  0  0  0
    7.9984  -13.9945   24.8332 C   0  0  0  0  0  0  0  0  0  0  0  0
    8.7975  -14.6283   25.7944 C   0  0  0  0  0  0  0  0  0  0  0  0
    8.5717  -14.0546   26.9857 N   0  0  0  0  0  0  0  0  0  0  0  0
    7.6560  -13.0688   26.8447 C   0  0  0  0  0  0  0  0  0  0  0  0
    7.1226  -12.1672   27.7464 C   0  0  0  0  0  0  0  0  0  0  0  0
    6.2102  -11.1897   27.3423 C   0  0  0  0  0  0  0  0  0  0  0  0
    5.8476  -11.1425   26.0097 C   0  0  0  0  0  0  0  0  0  0  0  0
    6.3931  -12.0502   25.1462 C   0  0  0  0  0  0  0  0  0  0  0  0
    7.2986  -13.0313   25.5084 C   0  0  0  0  0  0  0  0  0  0  0  0
    9.0352  -16.5690   23.8346 C   0  0  0  0  0  0  0  0  0  0  0  0
    8.1904  -17.5088   24.0429 O   0  0  0  0  0  0  0  0  0  0  0  0
   12.6417  -19.3906   25.6177 C   0  0  0  0  0  0  0  0  0  0  0  0
   12.1124  -18.1815   24.8938 C   0  0  1  0  0  0  0  0  0  0  0  0
   12.3278  -18.3634   23.5067 O   0  0  0  0  0  0  0  0  0  0  0  0
   10.6664  -17.9527   25.1716 C   0  0  2  0  0  0  0  0  0  0  0  0
   10.2692  -16.6747   24.5373 N   0  0  0  0  0  0  0  0  0  0  0  0
   10.5068  -17.7470   26.6600 C   0  0  0  0  0  0  0  0  0  0  0  0
   10.6756  -16.6290   27.1307 O   0  0  0  0  0  0  0  0  0  0  0  0
   10.1767  -18.8353   27.4232 O   0  0  0  0  0  0  0  0  0  0  0  0
  2  1  1  6
  2  3  1  0
  4  3  1  0
  5  2  1  0
  5  6  2  0
  7  5  1  0
  8  7  1  0
  8  9  1  1
 10  9  1  0
 10 18  1  0
 11 12  1  0
 11 10  2  0
 12 13  1  0
 13 18  2  0
 13 14  1  0
 14 15  2  0
 15 16  1  0
 17 16  2  0
 18 17  1  0
 19  8  1  0
 19 20  2  0
 22 21  1  1
 23 22  1  0
 24 25  1  6
 24 22  1  0
 25 19  1  0
 26 24  1  0
 27 26  2  0
 28 26  1  0
M  END
$$$$
