CWT.pdb
     RDKit          3D

 28 29  0  0  1  0  0  0  0  0999 V2000
    6.7545  -14.6943   20.3464 N   0  0  0  0  0  0  0  0  0  0  0  0
    6.8739  -15.7518   21.3406 C   0  0  1  0  0  0  0  0  0  0  0  0
    7.0630  -17.0546   20.5656 C   0  0  0  0  0  0  0  0  0  0  0  0
    8.6771  -17.1055   19.7492 S   0  0  0  0  0  0  0  0  0  0  0  0
    8.0265  -15.4408   22.2138 C   0  0  0  0  0  0  0  0  0  0  0  0
    8.8381  -14.5631   21.8662 O   0  0  0  0  0  0  0  0  0  0  0  0
    8.1771  -16.1479   23.4202 N   0  0  0  0  0  0  0  0  0  0  0  0
    9.3212  -16.0443   24.2732 C   0  0  1  0  0  0  0  0  0  0  0  0
    8.9103  -15.8301   25.6811 C   0  0  0  0  0  0  0  0  0  0  0  0
    7.6909  -15.0465   25.8924 C   0  0  0  0  0  0  0  0  0  0  0  0
    6.3703  -15.5153   25.8751 C   0  0  0  0  0  0  0  0  0  0  0  0
    5.5429  -14.4727   26.0416 N   0  0  0  0  0  0  0  0  0  0  0  0
    6.2681  -13.3376   26.1677 C   0  0  0  0  0  0  0  0  0  0  0  0
    5.8984  -12.0255   26.3955 C   0  0  0  0  0  0  0  0  0  0  0  0
    6.8538  -11.0167   26.5411 C   0  0  0  0  0  0  0  0  0  0  0  0
    8.1891  -11.3608   26.4509 C   0  0  0  0  0  0  0  0  0  0  0  0
    8.5186  -12.6672   26.2233 C   0  0  0  0  0  0  0  0  0  0  0  0
    7.6023  -13.6928   26.0742 C   0  0  0  0  0  0  0  0  0  0  0  0
   10.3743  -17.0029   23.9612 C   0  0  0  0  0  0  0  0  0  0  0  0
   10.2350  -18.2451   24.2396 O   0  0  0  0  0  0  0  0  0  0  0  0
   12.6093  -17.1939   20.6657 C   0  0  0  0  0  0  0  0  0  0  0  0
   13.4470  -17.2294   21.9159 C   0  0  1  0  0  0  0  0  0  0  0  0
   13.9978  -15.9415   22.1195 O   0  0  0  0  0  0  0  0  0  0  0  0
   12.6566  -17.6529   23.1060 C   0  0  2  0  0  0  0  0  0  0  0  0
   11.6080  -16.6363   23.3518 N   0  0  0  0  0  0  0  0  0  0  0  0
   13.5700  -17.6093   24.3090 C   0  0  0  0  0  0  0  0  0  0  0  0
   13.3920  -16.7509   25.1642 O   0  0  0  0  0  0  0  0  0  0  0  0
   14.5678  -18.5442   24.3873 O   0  0  0  0  0  0  0  0  0  0  0  0
  2  1  1  6
  2  3  1  0
  4  3  1  0
  5  2  1  0
  5  6  2  0
  7  5  1  0
  8  7  1  0
  8  9  1  1
 10  9  1  0
 10 18  1  0
 11 12  1  0
 11 10  2  0
 12 13  1  0
 13 18  2  0
 13 14  1  0
 14 15  2  0
 15 16  1  0
 17 16  2  0
 18 17  1  0
 19  8  1  0
 19 20  2  0
 22 21  1  6
 23 22  1  0
 24 25  1  1
 24 22  1  0
 25 19  1  0
 26 24  1  0
 27 26  2  0
 28 26  1  0
M  END
$$$$
