CWT.pdb
     RDKit          3D

 28 29  0  0  1  0  0  0  0  0999 V2000
    7.2331  -16.8539   21.6195 N   0  0  0  0  0  0  0  0  0  0  0  0
    8.0747  -15.7002   21.3335 C   0  0  1  0  0  0  0  0  0  0  0  0
    7.1329  -14.5092   21.1652 C   0  0  0  0  0  0  0  0  0  0  0  0
    5.8810  -14.8347   19.8998 S   0  0  0  0  0  0  0  0  0  0  0  0
    9.0167  -15.5216   22.4597 C   0  0  0  0  0  0  0  0  0  0  0  0
    9.8594  -14.6064   22.4132 O   0  0  0  0  0  0  0  0  0  0  0  0
    8.9362  -16.3943   23.5596 N   0  0  0  0  0  0  0  0  0  0  0  0
    9.8515  -16.3854   24.6593 C   0  0  1  0  0  0  0  0  0  0  0  0
    9.1232  -16.3700   25.9502 C   0  0  0  0  0  0  0  0  0  0  0  0
    7.9182  -15.5393   26.0090 C   0  0  0  0  0  0  0  0  0  0  0  0
    6.5969  -15.9481   25.7830 C   0  0  0  0  0  0  0  0  0  0  0  0
    5.7962  -14.8749   25.8638 N   0  0  0  0  0  0  0  0  0  0  0  0
    6.5396  -13.7774   26.1343 C   0  0  0  0  0  0  0  0  0  0  0  0
    6.1930  -12.4573   26.3519 C   0  0  0  0  0  0  0  0  0  0  0  0
    7.1560  -11.4968   26.6706 C   0  0  0  0  0  0  0  0  0  0  0  0
    8.4753  -11.8974   26.7639 C   0  0  0  0  0  0  0  0  0  0  0  0
    8.7824  -13.2100   26.5408 C   0  0  0  0  0  0  0  0  0  0  0  0
    7.8578  -14.1889   26.2237 C   0  0  0  0  0  0  0  0  0  0  0  0
   10.9932  -17.2739   24.4795 C   0  0  0  0  0  0  0  0  0  0  0  0
   10.8424  -18.5457   24.4819 O   0  0  0  0  0  0  0  0  0  0  0  0
   13.5563  -16.9042   21.6835 C   0  0  0  0  0  0  0  0  0  0  0  0
   14.2994  -17.1501   22.9693 C   0  0  1  0  0  0  0  0  0  0  0  0
   14.8286  -15.9172   23.4204 O   0  0  0  0  0  0  0  0  0  0  0  0
   13.4249  -17.7555   24.0130 C   0  0  2  0  0  0  0  0  0  0  0  0
   12.3268  -16.8059   24.3056 N   0  0  0  0  0  0  0  0  0  0  0  0
   14.2309  -17.8665   25.2863 C   0  0  0  0  0  0  0  0  0  0  0  0
   13.9739  -17.1211   26.2235 O   0  0  0  0  0  0  0  0  0  0  0  0
   15.2246  -18.8079   25.3330 O   0  0  0  0  0  0  0  0  0  0  0  0
  2  1  1  1
  2  3  1  0
  4  3  1  0
  5  2  1  0
  5  6  2  0
  7  5  1  0
  8  7  1  0
  8  9  1  1
 10  9  1  0
 10 18  1  0
 11 12  1  0
 11 10  2  0
 12 13  1  0
 13 18  2  0
 13 14  1  0
 14 15  2  0
 15 16  1  0
 17 16  2  0
 18 17  1  0
 19  8  1  0
 19 20  2  0
 22 21  1  6
 23 22  1  0
 24 25  1  1
 24 22  1  0
 25 19  1  0
 26 24  1  0
 27 26  2  0
 28 26  1  0
M  END
$$$$
