CWT.pdb
     RDKit          3D

 28 29  0  0  1  0  0  0  0  0999 V2000
    6.4327  -14.8650   20.4363 N   0  0  0  0  0  0  0  0  0  0  0  0
    6.9630  -16.0711   21.0569 C   0  0  1  0  0  0  0  0  0  0  0  0
    7.5147  -16.9340   19.9235 C   0  0  0  0  0  0  0  0  0  0  0  0
    6.6866  -18.5416   19.8583 S   0  0  0  0  0  0  0  0  0  0  0  0
    8.0079  -15.6743   22.0257 C   0  0  0  0  0  0  0  0  0  0  0  0
    8.7223  -14.6840   21.7835 O   0  0  0  0  0  0  0  0  0  0  0  0
    8.1685  -16.4294   23.2012 N   0  0  0  0  0  0  0  0  0  0  0  0
    9.2115  -16.2140   24.1567 C   0  0  1  0  0  0  0  0  0  0  0  0
    8.6600  -16.1423   25.5307 C   0  0  0  0  0  0  0  0  0  0  0  0
    7.5315  -15.2309   25.7335 C   0  0  0  0  0  0  0  0  0  0  0  0
    6.1673  -15.5436   25.6592 C   0  0  0  0  0  0  0  0  0  0  0  0
    5.4590  -14.4187   25.8385 N   0  0  0  0  0  0  0  0  0  0  0  0
    6.3042  -13.3795   26.0280 C   0  0  0  0  0  0  0  0  0  0  0  0
    6.0789  -12.0417   26.2923 C   0  0  0  0  0  0  0  0  0  0  0  0
    7.1375  -11.1550   26.5035 C   0  0  0  0  0  0  0  0  0  0  0  0
    8.4272  -11.6475   26.4412 C   0  0  0  0  0  0  0  0  0  0  0  0
    8.6133  -12.9749   26.1761 C   0  0  0  0  0  0  0  0  0  0  0  0
    7.5916  -13.8827   25.9620 C   0  0  0  0  0  0  0  0  0  0  0  0
   10.4156  -16.9936   23.8966 C   0  0  0  0  0  0  0  0  0  0  0  0
   10.3777  -18.2735   23.8770 O   0  0  0  0  0  0  0  0  0  0  0  0
   13.0179  -16.1973   21.1197 C   0  0  0  0  0  0  0  0  0  0  0  0
   13.7380  -16.5194   22.4018 C   0  0  1  0  0  0  0  0  0  0  0  0
   14.1938  -15.3073   22.9731 O   0  0  0  0  0  0  0  0  0  0  0  0
   12.8671  -17.2538   23.3623 C   0  0  2  0  0  0  0  0  0  0  0  0
   11.6914  -16.4052   23.6642 N   0  0  0  0  0  0  0  0  0  0  0  0
   13.6250  -17.3941   24.6620 C   0  0  0  0  0  0  0  0  0  0  0  0
   14.6277  -18.0965   24.6966 O   0  0  0  0  0  0  0  0  0  0  0  0
   13.1484  -16.7204   25.7550 O   0  0  0  0  0  0  0  0  0  0  0  0
  2  1  1  6
  2  3  1  0
  4  3  1  0
  5  2  1  0
  5  6  2  0
  7  5  1  0
  8  7  1  0
  8  9  1  1
 10  9  1  0
 10 18  1  0
 11 12  1  0
 11 10  2  0
 12 13  1  0
 13 18  2  0
 13 14  1  0
 14 15  2  0
 15 16  1  0
 17 16  2  0
 18 17  1  0
 19  8  1  0
 19 20  2  0
 22 21  1  6
 23 22  1  0
 24 25  1  1
 24 22  1  0
 25 19  1  0
 26 24  1  0
 27 26  2  0
 28 26  1  0
M  END
$$$$
