CWT.pdb
     RDKit          3D

 28 29  0  0  1  0  0  0  0  0999 V2000
    7.5829  -13.3333   19.7286 N   0  0  0  0  0  0  0  0  0  0  0  0
    7.1754  -14.5319   20.4485 C   0  0  1  0  0  0  0  0  0  0  0  0
    7.1358  -15.6612   19.4204 C   0  0  0  0  0  0  0  0  0  0  0  0
    8.7812  -15.9926   18.7442 S   0  0  0  0  0  0  0  0  0  0  0  0
    8.1564  -14.7826   21.5266 C   0  0  0  0  0  0  0  0  0  0  0  0
    9.2552  -14.1979   21.5020 O   0  0  0  0  0  0  0  0  0  0  0  0
    7.8214  -15.6795   22.5568 N   0  0  0  0  0  0  0  0  0  0  0  0
    8.7043  -16.0426   23.6227 C   0  0  1  0  0  0  0  0  0  0  0  0
    7.9417  -16.3510   24.8557 C   0  0  0  0  0  0  0  0  0  0  0  0
    7.0771  -15.2868   25.3709 C   0  0  0  0  0  0  0  0  0  0  0  0
    5.6845  -15.3270   25.5226 C   0  0  0  0  0  0  0  0  0  0  0  0
    5.2658  -14.1297   25.9591 N   0  0  0  0  0  0  0  0  0  0  0  0
    6.3287  -13.3047   26.1003 C   0  0  0  0  0  0  0  0  0  0  0  0
    6.4342  -12.0027   26.5518 C   0  0  0  0  0  0  0  0  0  0  0  0
    7.6746  -11.3687   26.6565 C   0  0  0  0  0  0  0  0  0  0  0  0
    8.8049  -12.0766   26.2949 C   0  0  0  0  0  0  0  0  0  0  0  0
    8.6637  -13.3612   25.8513 C   0  0  0  0  0  0  0  0  0  0  0  0
    7.4540  -14.0221   25.7344 C   0  0  0  0  0  0  0  0  0  0  0  0
    9.7980  -16.9126   23.2078 C   0  0  0  0  0  0  0  0  0  0  0  0
    9.7154  -17.6046   22.1334 O   0  0  0  0  0  0  0  0  0  0  0  0
   11.5535  -17.0333   21.1548 C   0  0  0  0  0  0  0  0  0  0  0  0
   12.6323  -17.2136   22.1891 C   0  0  1  0  0  0  0  0  0  0  0  0
   13.1704  -15.9413   22.4976 O   0  0  0  0  0  0  0  0  0  0  0  0
   12.1195  -17.8759   23.4216 C   0  0  2  0  0  0  0  0  0  0  0  0
   11.0017  -17.0630   23.9537 N   0  0  0  0  0  0  0  0  0  0  0  0
   13.2100  -17.8202   24.4661 C   0  0  0  0  0  0  0  0  0  0  0  0
   13.1186  -17.0141   25.3836 O   0  0  0  0  0  0  0  0  0  0  0  0
   14.2637  -18.6853   24.3358 O   0  0  0  0  0  0  0  0  0  0  0  0
  2  1  1  6
  2  3  1  0
  4  3  1  0
  5  2  1  0
  5  6  2  0
  7  5  1  0
  8  7  1  0
  8  9  1  1
 10  9  1  0
 10 18  1  0
 11 12  1  0
 11 10  2  0
 12 13  1  0
 13 18  2  0
 13 14  1  0
 14 15  2  0
 15 16  1  0
 17 16  2  0
 18 17  1  0
 19  8  1  0
 19 20  2  0
 22 21  1  6
 23 22  1  0
 24 25  1  1
 24 22  1  0
 25 19  1  0
 26 24  1  0
 27 26  2  0
 28 26  1  0
M  END
$$$$
