CWT.pdb
     RDKit          3D

 28 29  0  0  1  0  0  0  0  0999 V2000
    6.3491  -15.1800   20.3178 N   0  0  0  0  0  0  0  0  0  0  0  0
    6.8550  -16.3413   21.0365 C   0  0  1  0  0  0  0  0  0  0  0  0
    7.3686  -17.3151   19.9774 C   0  0  0  0  0  0  0  0  0  0  0  0
    6.0340  -18.3588   19.3415 S   0  0  0  0  0  0  0  0  0  0  0  0
    7.9226  -15.8904   21.9554 C   0  0  0  0  0  0  0  0  0  0  0  0
    8.6567  -14.9420   21.6219 O   0  0  0  0  0  0  0  0  0  0  0  0
    8.0820  -16.5478   23.1885 N   0  0  0  0  0  0  0  0  0  0  0  0
    9.1076  -16.2368   24.1366 C   0  0  1  0  0  0  0  0  0  0  0  0
    8.5470  -16.1394   25.5053 C   0  0  0  0  0  0  0  0  0  0  0  0
    7.4644  -15.1719   25.6990 C   0  0  0  0  0  0  0  0  0  0  0  0
    6.0870  -15.4137   25.6068 C   0  0  0  0  0  0  0  0  0  0  0  0
    5.4353  -14.2546   25.7832 N   0  0  0  0  0  0  0  0  0  0  0  0
    6.3305  -13.2611   25.9879 C   0  0  0  0  0  0  0  0  0  0  0  0
    6.1712  -11.9146   26.2562 C   0  0  0  0  0  0  0  0  0  0  0  0
    7.2713  -11.0846   26.4844 C   0  0  0  0  0  0  0  0  0  0  0  0
    8.5346  -11.6425   26.4351 C   0  0  0  0  0  0  0  0  0  0  0  0
    8.6554  -12.9766   26.1657 C   0  0  0  0  0  0  0  0  0  0  0  0
    7.5910  -13.8296   25.9349 C   0  0  0  0  0  0  0  0  0  0  0  0
   10.3535  -16.9594   23.9112 C   0  0  0  0  0  0  0  0  0  0  0  0
   10.3661  -18.2374   23.8307 O   0  0  0  0  0  0  0  0  0  0  0  0
   15.1145  -16.8674   22.5050 C   0  0  0  0  0  0  0  0  0  0  0  0
   13.7843  -16.2027   22.7391 C   0  0  1  0  0  0  0  0  0  0  0  0
   13.2556  -15.8111   21.4858 O   0  0  0  0  0  0  0  0  0  0  0  0
   12.8298  -17.0985   23.4511 C   0  0  2  0  0  0  0  0  0  0  0  0
   11.6167  -16.3152   23.7803 N   0  0  0  0  0  0  0  0  0  0  0  0
   13.4513  -17.4809   24.7742 C   0  0  0  0  0  0  0  0  0  0  0  0
   12.9979  -17.0050   25.8077 O   0  0  0  0  0  0  0  0  0  0  0  0
   14.5070  -18.3532   24.7554 O   0  0  0  0  0  0  0  0  0  0  0  0
  2  1  1  6
  2  3  1  0
  4  3  1  0
  5  2  1  0
  5  6  2  0
  7  5  1  0
  8  7  1  0
  8  9  1  1
 10  9  1  0
 10 18  1  0
 11 12  1  0
 11 10  2  0
 12 13  1  0
 13 18  2  0
 13 14  1  0
 14 15  2  0
 15 16  1  0
 17 16  2  0
 18 17  1  0
 19  8  1  0
 19 20  2  0
 22 21  1  6
 23 22  1  0
 24 25  1  1
 24 22  1  0
 25 19  1  0
 26 24  1  0
 27 26  2  0
 28 26  1  0
M  END
$$$$
