CWT.pdb
     RDKit          3D

 28 29  0  0  1  0  0  0  0  0999 V2000
    6.8805  -14.0928   20.2607 N   0  0  0  0  0  0  0  0  0  0  0  0
    7.4210  -15.4018   20.6004 C   0  0  1  0  0  0  0  0  0  0  0  0
    8.1751  -15.8919   19.3655 C   0  0  0  0  0  0  0  0  0  0  0  0
    7.0463  -16.6147   18.1498 S   0  0  0  0  0  0  0  0  0  0  0  0
    8.3028  -15.2491   21.7779 C   0  0  0  0  0  0  0  0  0  0  0  0
    8.9543  -14.1982   21.9223 O   0  0  0  0  0  0  0  0  0  0  0  0
    8.3834  -16.3001   22.7090 N   0  0  0  0  0  0  0  0  0  0  0  0
    9.2462  -16.2962   23.8504 C   0  0  1  0  0  0  0  0  0  0  0  0
    8.4695  -16.4891   25.0980 C   0  0  0  0  0  0  0  0  0  0  0  0
    7.4524  -15.4780   25.3956 C   0  0  0  0  0  0  0  0  0  0  0  0
    6.0612  -15.6280   25.3153 C   0  0  0  0  0  0  0  0  0  0  0  0
    5.4856  -14.4507   25.6016 N   0  0  0  0  0  0  0  0  0  0  0  0
    6.4440  -13.5334   25.8671 C   0  0  0  0  0  0  0  0  0  0  0  0
    6.3729  -12.2071   26.2491 C   0  0  0  0  0  0  0  0  0  0  0  0
    7.5261  -11.4666   26.5199 C   0  0  0  0  0  0  0  0  0  0  0  0
    8.7514  -12.0933   26.3959 C   0  0  0  0  0  0  0  0  0  0  0  0
    8.7847  -13.4050   26.0146 C   0  0  0  0  0  0  0  0  0  0  0  0
    7.6658  -14.1702   25.7385 C   0  0  0  0  0  0  0  0  0  0  0  0
   10.4901  -17.0291   23.6480 C   0  0  0  0  0  0  0  0  0  0  0  0
   10.4771  -18.2688   23.3270 O   0  0  0  0  0  0  0  0  0  0  0  0
   15.4772  -17.0887   23.6710 C   0  0  0  0  0  0  0  0  0  0  0  0
   14.1676  -16.3607   23.5265 C   0  0  1  0  0  0  0  0  0  0  0  0
   14.1322  -15.7579   22.2463 O   0  0  0  0  0  0  0  0  0  0  0  0
   13.0004  -17.2692   23.7078 C   0  0  2  0  0  0  0  0  0  0  0  0
   11.7772  -16.4394   23.8009 N   0  0  0  0  0  0  0  0  0  0  0  0
   13.1460  -17.9496   25.0492 C   0  0  0  0  0  0  0  0  0  0  0  0
   13.6366  -19.0705   25.1009 O   0  0  0  0  0  0  0  0  0  0  0  0
   12.7163  -17.2717   26.1589 O   0  0  0  0  0  0  0  0  0  0  0  0
  2  1  1  6
  2  3  1  0
  4  3  1  0
  5  2  1  0
  5  6  2  0
  7  5  1  0
  8  7  1  0
  8  9  1  1
 10  9  1  0
 10 18  1  0
 11 12  1  0
 11 10  2  0
 12 13  1  0
 13 18  2  0
 13 14  1  0
 14 15  2  0
 15 16  1  0
 17 16  2  0
 18 17  1  0
 19  8  1  0
 19 20  2  0
 22 21  1  6
 23 22  1  0
 24 25  1  1
 24 22  1  0
 25 19  1  0
 26 24  1  0
 27 26  2  0
 28 26  1  0
M  END
$$$$
