CWT.pdb
     RDKit          3D

 28 29  0  0  1  0  0  0  0  0999 V2000
    6.9835  -14.6815   20.0727 N   0  0  0  0  0  0  0  0  0  0  0  0
    7.0238  -15.7375   21.0748 C   0  0  1  0  0  0  0  0  0  0  0  0
    7.3030  -17.0373   20.3224 C   0  0  0  0  0  0  0  0  0  0  0  0
    8.9697  -17.0440   19.6177 S   0  0  0  0  0  0  0  0  0  0  0  0
    8.0848  -15.4105   22.0520 C   0  0  0  0  0  0  0  0  0  0  0  0
    8.8509  -14.4555   21.8267 O   0  0  0  0  0  0  0  0  0  0  0  0
    8.2019  -16.1907   23.2164 N   0  0  0  0  0  0  0  0  0  0  0  0
    9.2873  -16.0903   24.1433 C   0  0  1  0  0  0  0  0  0  0  0  0
    8.7862  -16.0451   25.5375 C   0  0  0  0  0  0  0  0  0  0  0  0
    7.6450  -15.1627   25.7919 C   0  0  0  0  0  0  0  0  0  0  0  0
    6.2868  -15.5075   25.7674 C   0  0  0  0  0  0  0  0  0  0  0  0
    5.5595  -14.4014   25.9841 N   0  0  0  0  0  0  0  0  0  0  0  0
    6.3866  -13.3438   26.1501 C   0  0  0  0  0  0  0  0  0  0  0  0
    6.1402  -12.0140   26.4350 C   0  0  0  0  0  0  0  0  0  0  0  0
    7.1849  -11.1039   26.6131 C   0  0  0  0  0  0  0  0  0  0  0  0
    8.4824  -11.5647   26.4967 C   0  0  0  0  0  0  0  0  0  0  0  0
    8.6895  -12.8851   26.2127 C   0  0  0  0  0  0  0  0  0  0  0  0
    7.6820  -13.8154   26.0300 C   0  0  0  0  0  0  0  0  0  0  0  0
   10.4259  -16.9364   23.8073 C   0  0  0  0  0  0  0  0  0  0  0  0
   10.3013  -18.2093   23.7415 O   0  0  0  0  0  0  0  0  0  0  0  0
   15.1325  -17.3307   22.2257 C   0  0  0  0  0  0  0  0  0  0  0  0
   13.8844  -16.5285   22.4801 C   0  0  1  0  0  0  0  0  0  0  0  0
   13.4106  -16.0369   21.2402 O   0  0  0  0  0  0  0  0  0  0  0  0
   12.8308  -17.3347   23.1586 C   0  0  2  0  0  0  0  0  0  0  0  0
   11.7290  -16.4245   23.5471 N   0  0  0  0  0  0  0  0  0  0  0  0
   13.4105  -17.8629   24.4502 C   0  0  0  0  0  0  0  0  0  0  0  0
   14.0892  -18.8822   24.4283 O   0  0  0  0  0  0  0  0  0  0  0  0
   13.1459  -17.1679   25.6002 O   0  0  0  0  0  0  0  0  0  0  0  0
  2  1  1  6
  2  3  1  0
  4  3  1  0
  5  2  1  0
  5  6  2  0
  7  5  1  0
  8  7  1  0
  8  9  1  1
 10  9  1  0
 10 18  1  0
 11 12  1  0
 11 10  2  0
 12 13  1  0
 13 18  2  0
 13 14  1  0
 14 15  2  0
 15 16  1  0
 17 16  2  0
 18 17  1  0
 19  8  1  0
 19 20  2  0
 22 21  1  6
 23 22  1  0
 24 25  1  1
 24 22  1  0
 25 19  1  0
 26 24  1  0
 27 26  2  0
 28 26  1  0
M  END
$$$$
