VRY.pdb
     RDKit          3D

 31 31  0  0  1  0  0  0  0  0999 V2000
    9.0547  -12.6645   20.5815 C   0  0  0  0  0  0  0  0  0  0  0  0
    8.0347  -13.0302   19.5300 C   0  0  1  0  0  0  0  0  0  0  0  0
    7.8554  -11.8688   18.5828 C   0  0  0  0  0  0  0  0  0  0  0  0
    8.4790  -14.2485   18.7337 C   0  0  2  0  0  0  0  0  0  0  0  0
    7.5562  -14.5425   17.6597 N   0  0  0  0  0  0  0  0  0  0  0  0
    8.5379  -15.4346   19.6229 C   0  0  0  0  0  0  0  0  0  0  0  0
    7.5174  -16.0082   20.0736 O   0  0  0  0  0  0  0  0  0  0  0  0
   14.1913  -18.5588   18.9518 N   0  0  0  0  0  0  0  0  0  0  0  0
   14.5452  -19.2845   20.1018 C   0  0  0  0  0  0  0  0  0  0  0  0
   15.7245  -19.2818   20.6146 N   0  0  0  0  0  0  0  0  0  0  0  0
   13.5219  -20.0784   20.7428 N   0  0  0  0  0  0  0  0  0  0  0  0
   12.2144  -20.1147   20.1523 C   0  0  0  0  0  0  0  0  0  0  0  0
   11.2831  -19.2466   21.0107 C   0  0  0  0  0  0  0  0  0  0  0  0
   10.9201  -18.0526   20.2141 C   0  0  0  0  0  0  0  0  0  0  0  0
    9.9642  -17.0817   20.8964 C   0  0  2  0  0  0  0  0  0  0  0  0
    9.7999  -15.9388   19.9761 N   0  0  0  0  0  0  0  0  0  0  0  0
   10.4971  -16.6291   22.1850 C   0  0  0  0  0  0  0  0  0  0  0  0
   11.6343  -16.0329   22.2652 O   0  0  0  0  0  0  0  0  0  0  0  0
   15.9268  -19.9224   21.4079 O   0  0  0  0  0  0  0  0  0  0  0  0
   10.8162  -14.0273   30.6545 C   0  0  0  0  0  0  0  0  0  0  0  0
   10.5241  -14.3793   29.3458 C   0  0  0  0  0  0  0  0  0  0  0  0
   11.4617  -14.8907   28.4713 C   0  0  0  0  0  0  0  0  0  0  0  0
   11.1270  -15.2298   27.1703 C   0  0  0  0  0  0  0  0  0  0  0  0
    9.8451  -15.0618   26.7228 C   0  0  0  0  0  0  0  0  0  0  0  0
    9.5096  -15.4220   25.3403 C   0  0  1  0  0  0  0  0  0  0  0  0
   10.4908  -16.3770   24.6971 N   0  0  0  0  0  0  0  0  0  0  0  0
    9.8538  -16.7795   23.4421 C   0  0  0  0  0  0  0  0  0  0  0  0
   10.7191  -17.5114   25.5998 O   0  0  0  0  0  0  0  0  0  0  0  0
   11.8246  -17.6467   26.4136 C   0  0  0  0  0  0  0  0  0  0  0  0
    8.8880  -14.5477   27.5913 C   0  0  0  0  0  0  0  0  0  0  0  0
    9.2334  -14.2151   28.8803 O   0  0  0  0  0  0  0  0  0  0  0  0
  2  1  1  1
  2  3  1  0
  4  2  1  0
  4  5  1  6
  6  4  1  0
  7  6  2  0
  9 11  1  0
  9  8  1  0
 10  9  2  0
 12 13  1  0
 12 11  1  0
 13 14  1  0
 15 14  1  6
 15 16  1  0
 16  6  1  0
 17 15  1  0
 17 18  2  0
 20 19  1  0
 21 20  2  0
 22 21  1  0
 23 29  1  0
 23 22  2  0
 24 23  1  0
 25 24  1  6
 25 26  1  0
 26 17  1  0
 27 25  1  0
 28 27  1  0
 29 30  2  0
 30 20  1  0
 31 27  2  0
M  END
$$$$
