VRY.pdb
     RDKit          3D

 31 31  0  0  1  0  0  0  0  0999 V2000
    8.7524  -12.6728   20.5077 C   0  0  0  0  0  0  0  0  0  0  0  0
    7.7097  -13.2827   19.6018 C   0  0  1  0  0  0  0  0  0  0  0  0
    7.4573  -12.3571   18.4365 C   0  0  0  0  0  0  0  0  0  0  0  0
    8.1680  -14.6315   19.0666 C   0  0  2  0  0  0  0  0  0  0  0  0
    7.2235  -15.1694   18.1127 N   0  0  0  0  0  0  0  0  0  0  0  0
    8.2898  -15.5995   20.1843 C   0  0  0  0  0  0  0  0  0  0  0  0
    7.3043  -16.0422   20.8217 O   0  0  0  0  0  0  0  0  0  0  0  0
   10.5181  -18.9076   16.2106 N   0  0  0  0  0  0  0  0  0  0  0  0
    9.5971  -19.8081   16.7720 C   0  0  0  0  0  0  0  0  0  0  0  0
    8.8645  -20.6066   16.0795 N   0  0  0  0  0  0  0  0  0  0  0  0
    9.4688  -19.8361   18.2111 N   0  0  0  0  0  0  0  0  0  0  0  0
   10.1232  -18.8133   18.9760 C   0  0  0  0  0  0  0  0  0  0  0  0
    9.8459  -19.0831   20.4621 C   0  0  0  0  0  0  0  0  0  0  0  0
   10.6120  -18.0909   21.2499 C   0  0  0  0  0  0  0  0  0  0  0  0
    9.8129  -16.8861   21.7315 C   0  0  2  0  0  0  0  0  0  0  0  0
    9.5731  -16.0407   20.5449 N   0  0  0  0  0  0  0  0  0  0  0  0
   10.5477  -16.1360   22.7546 C   0  0  0  0  0  0  0  0  0  0  0  0
   11.8314  -16.0546   22.7301 O   0  0  0  0  0  0  0  0  0  0  0  0
    8.2124  -21.2455   16.5766 O   0  0  0  0  0  0  0  0  0  0  0  0
   10.8085  -15.3499   31.5845 C   0  0  0  0  0  0  0  0  0  0  0  0
   10.4595  -15.3289   30.2431 C   0  0  0  0  0  0  0  0  0  0  0  0
   10.0993  -16.4583   29.5359 C   0  0  0  0  0  0  0  0  0  0  0  0
    9.7572  -16.3926   28.1949 C   0  0  0  0  0  0  0  0  0  0  0  0
    9.7705  -15.1922   27.5387 C   0  0  0  0  0  0  0  0  0  0  0  0
    9.4098  -15.1421   26.1171 C   0  0  1  0  0  0  0  0  0  0  0  0
   10.5608  -15.4313   25.1789 N   0  0  0  0  0  0  0  0  0  0  0  0
    9.9630  -15.4356   23.8428 C   0  0  0  0  0  0  0  0  0  0  0  0
   11.1549  -16.7260   25.5323 O   0  0  0  0  0  0  0  0  0  0  0  0
   12.3925  -16.8780   26.1221 C   0  0  0  0  0  0  0  0  0  0  0  0
   10.1310  -14.0444   28.2366 C   0  0  0  0  0  0  0  0  0  0  0  0
   10.4683  -14.1234   29.5676 O   0  0  0  0  0  0  0  0  0  0  0  0
  2  1  1  1
  2  3  1  0
  4  2  1  0
  4  5  1  6
  6  4  1  0
  7  6  2  0
  9 11  1  0
  9  8  1  0
 10  9  2  0
 12 13  1  0
 12 11  1  0
 13 14  1  0
 15 14  1  6
 15 16  1  0
 16  6  1  0
 17 15  1  0
 17 18  2  0
 20 19  1  0
 21 20  2  0
 22 21  1  0
 23 29  1  0
 23 22  2  0
 24 23  1  0
 25 24  1  6
 25 26  1  0
 26 17  1  0
 27 25  1  0
 28 27  1  0
 29 30  2  0
 30 20  1  0
 31 27  2  0
M  END
$$$$
