VRY.pdb
     RDKit          3D

 31 31  0  0  1  0  0  0  0  0999 V2000
    6.9457  -19.0024   27.4925 C   0  0  0  0  0  0  0  0  0  0  0  0
    7.3569  -20.2345   26.7226 C   0  0  1  0  0  0  0  0  0  0  0  0
    6.6581  -21.4410   27.3007 C   0  0  0  0  0  0  0  0  0  0  0  0
    6.9876  -20.1118   25.2514 C   0  0  2  0  0  0  0  0  0  0  0  0
    7.2149  -21.3530   24.5449 N   0  0  0  0  0  0  0  0  0  0  0  0
    7.8191  -19.0630   24.6114 C   0  0  0  0  0  0  0  0  0  0  0  0
    9.0072  -19.2491   24.2548 O   0  0  0  0  0  0  0  0  0  0  0  0
    7.9901  -14.3431   18.3632 N   0  0  0  0  0  0  0  0  0  0  0  0
    8.3268  -13.2343   19.1579 C   0  0  0  0  0  0  0  0  0  0  0  0
    8.7291  -12.1092   18.6823 N   0  0  0  0  0  0  0  0  0  0  0  0
    8.2126  -13.3697   20.5921 N   0  0  0  0  0  0  0  0  0  0  0  0
    7.5692  -14.5391   21.1195 C   0  0  0  0  0  0  0  0  0  0  0  0
    7.6680  -14.4836   22.6509 C   0  0  0  0  0  0  0  0  0  0  0  0
    7.0726  -15.7293   23.1855 C   0  0  0  0  0  0  0  0  0  0  0  0
    8.0368  -16.6418   23.9336 C   0  0  2  0  0  0  0  0  0  0  0  0
    7.2453  -17.7998   24.3949 N   0  0  0  0  0  0  0  0  0  0  0  0
    8.6454  -15.9504   25.0742 C   0  0  0  0  0  0  0  0  0  0  0  0
    8.4767  -14.6883   25.2578 O   0  0  0  0  0  0  0  0  0  0  0  0
    8.9189  -11.3270   19.3401 O   0  0  0  0  0  0  0  0  0  0  0  0
    5.8499  -11.2963   25.4673 C   0  0  0  0  0  0  0  0  0  0  0  0
    6.6104  -12.2796   26.0809 C   0  0  0  0  0  0  0  0  0  0  0  0
    6.1209  -13.5318   26.3934 C   0  0  0  0  0  0  0  0  0  0  0  0
    6.9160  -14.4860   27.0072 C   0  0  0  0  0  0  0  0  0  0  0  0
    8.2174  -14.2011   27.3188 C   0  0  0  0  0  0  0  0  0  0  0  0
    9.0437  -15.2224   27.9730 C   0  0  2  0  0  0  0  0  0  0  0  0
   10.1457  -15.7769   27.0974 N   0  0  0  0  0  0  0  0  0  0  0  0
    9.4521  -16.5585   26.0723 C   0  0  0  0  0  0  0  0  0  0  0  0
   11.0437  -16.5982   27.9177 O   0  0  0  0  0  0  0  0  0  0  0  0
   11.2460  -17.9500   27.7331 C   0  0  0  0  0  0  0  0  0  0  0  0
    8.7265  -12.9440   27.0105 C   0  0  0  0  0  0  0  0  0  0  0  0
    7.9265  -12.0058   26.4012 O   0  0  0  0  0  0  0  0  0  0  0  0
  2  1  1  1
  2  3  1  0
  4  2  1  0
  4  5  1  6
  6  4  1  0
  7  6  2  0
  9 11  1  0
  9  8  1  0
 10  9  2  0
 12 13  1  0
 12 11  1  0
 13 14  1  0
 15 14  1  1
 15 16  1  0
 16  6  1  0
 17 15  1  0
 17 18  2  0
 20 19  1  0
 21 20  2  0
 22 21  1  0
 23 29  1  0
 23 22  2  0
 24 23  1  0
 25 24  1  6
 25 26  1  0
 26 17  1  0
 27 25  1  0
 28 27  1  0
 29 30  2  0
 30 20  1  0
 31 27  2  0
M  END
$$$$
