VRY.pdb
     RDKit          3D

 31 31  0  0  1  0  0  0  0  0999 V2000
    8.9717  -12.3221   18.6865 C   0  0  0  0  0  0  0  0  0  0  0  0
    8.8734  -13.3962   19.7430 C   0  0  1  0  0  0  0  0  0  0  0  0
    7.6593  -13.1415   20.6029 C   0  0  0  0  0  0  0  0  0  0  0  0
    8.7480  -14.7761   19.1137 C   0  0  2  0  0  0  0  0  0  0  0  0
    7.5792  -14.8658   18.2668 N   0  0  0  0  0  0  0  0  0  0  0  0
    8.6213  -15.8027   20.1772 C   0  0  0  0  0  0  0  0  0  0  0  0
    7.5210  -16.2774   20.5480 O   0  0  0  0  0  0  0  0  0  0  0  0
   12.3954  -18.6588   17.6386 N   0  0  0  0  0  0  0  0  0  0  0  0
   13.5817  -18.7345   18.3877 C   0  0  0  0  0  0  0  0  0  0  0  0
   14.6953  -18.2075   18.0191 N   0  0  0  0  0  0  0  0  0  0  0  0
   13.5442  -19.4462   19.6449 N   0  0  0  0  0  0  0  0  0  0  0  0
   12.2725  -19.6490   20.2783 C   0  0  0  0  0  0  0  0  0  0  0  0
   11.7078  -18.2723   20.6577 C   0  0  0  0  0  0  0  0  0  0  0  0
   10.4534  -18.4932   21.4124 C   0  0  0  0  0  0  0  0  0  0  0  0
    9.7663  -17.2296   21.9156 C   0  0  2  0  0  0  0  0  0  0  0  0
    9.7929  -16.2647   20.7983 N   0  0  0  0  0  0  0  0  0  0  0  0
   10.4583  -16.6785   23.0848 C   0  0  0  0  0  0  0  0  0  0  0  0
   11.4729  -15.8983   22.9541 O   0  0  0  0  0  0  0  0  0  0  0  0
   15.5396  -18.3598   18.6060 O   0  0  0  0  0  0  0  0  0  0  0  0
    6.0498  -10.9730   27.4205 C   0  0  0  0  0  0  0  0  0  0  0  0
    6.6051  -12.0425   26.7354 C   0  0  0  0  0  0  0  0  0  0  0  0
    5.8600  -13.0913   26.2353 C   0  0  0  0  0  0  0  0  0  0  0  0
    6.4557  -14.1415   25.5558 C   0  0  0  0  0  0  0  0  0  0  0  0
    7.8104  -14.1587   25.3657 C   0  0  0  0  0  0  0  0  0  0  0  0
    8.4250  -15.2814   24.6477 C   0  0  2  0  0  0  0  0  0  0  0  0
    9.6491  -15.8523   25.3290 N   0  0  0  0  0  0  0  0  0  0  0  0
   10.1088  -16.9203   24.4398 C   0  0  0  0  0  0  0  0  0  0  0  0
    9.2715  -16.3507   26.6566 O   0  0  0  0  0  0  0  0  0  0  0  0
    8.4361  -17.4266   26.8741 C   0  0  0  0  0  0  0  0  0  0  0  0
    8.5760  -13.1094   25.8631 C   0  0  0  0  0  0  0  0  0  0  0  0
    7.9722  -12.0729   26.5358 O   0  0  0  0  0  0  0  0  0  0  0  0
  2  1  1  6
  2  3  1  0
  4  2  1  0
  4  5  1  6
  6  4  1  0
  7  6  2  0
  9 11  1  0
  9  8  1  0
 10  9  2  0
 12 13  1  0
 12 11  1  0
 13 14  1  0
 15 14  1  6
 15 16  1  0
 16  6  1  0
 17 15  1  0
 17 18  2  0
 20 19  1  0
 21 20  2  0
 22 21  1  0
 23 29  1  0
 23 22  2  0
 24 23  1  0
 25 24  1  6
 25 26  1  0
 26 17  1  0
 27 25  1  0
 28 27  1  0
 29 30  2  0
 30 20  1  0
 31 27  2  0
M  END
$$$$
