VRY.pdb
     RDKit          3D

 31 31  0  0  1  0  0  0  0  0999 V2000
    8.8537  -12.8181   20.5117 C   0  0  0  0  0  0  0  0  0  0  0  0
    8.2070  -13.1705   19.1937 C   0  0  1  0  0  0  0  0  0  0  0  0
    8.4818  -12.0739   18.1935 C   0  0  0  0  0  0  0  0  0  0  0  0
    8.7531  -14.4814   18.6468 C   0  0  2  0  0  0  0  0  0  0  0  0
    8.1617  -14.8069   17.3678 N   0  0  0  0  0  0  0  0  0  0  0  0
    8.4426  -15.5855   19.5878 C   0  0  0  0  0  0  0  0  0  0  0  0
    7.2985  -16.0851   19.7092 O   0  0  0  0  0  0  0  0  0  0  0  0
    7.9655  -21.5794   19.5676 N   0  0  0  0  0  0  0  0  0  0  0  0
    8.8714  -21.6277   18.4947 C   0  0  0  0  0  0  0  0  0  0  0  0
    8.6095  -22.1763   17.3614 N   0  0  0  0  0  0  0  0  0  0  0  0
   10.1716  -21.0245   18.6788 N   0  0  0  0  0  0  0  0  0  0  0  0
   10.4680  -20.4105   19.9417 C   0  0  0  0  0  0  0  0  0  0  0  0
    9.4832  -19.2504   20.1467 C   0  0  0  0  0  0  0  0  0  0  0  0
   10.0965  -18.3038   21.1058 C   0  0  0  0  0  0  0  0  0  0  0  0
    9.2479  -17.0860   21.4504 C   0  0  2  0  0  0  0  0  0  0  0  0
    9.4831  -16.0951   20.3812 N   0  0  0  0  0  0  0  0  0  0  0  0
    9.6213  -16.5303   22.7547 C   0  0  0  0  0  0  0  0  0  0  0  0
   10.4441  -15.5460   22.8506 O   0  0  0  0  0  0  0  0  0  0  0  0
    9.3117  -22.1079   16.5980 O   0  0  0  0  0  0  0  0  0  0  0  0
    5.8962  -11.1990   28.1078 C   0  0  0  0  0  0  0  0  0  0  0  0
    6.3833  -12.1491   27.2237 C   0  0  0  0  0  0  0  0  0  0  0  0
    7.6473  -12.0933   26.6718 C   0  0  0  0  0  0  0  0  0  0  0  0
    8.0949  -13.0649   25.7913 C   0  0  0  0  0  0  0  0  0  0  0  0
    7.2821  -14.1106   25.4483 C   0  0  0  0  0  0  0  0  0  0  0  0
    7.7710  -15.1281   24.5106 C   0  0  1  0  0  0  0  0  0  0  0  0
    8.8085  -16.0594   25.0981 N   0  0  0  0  0  0  0  0  0  0  0  0
    9.1406  -16.9828   24.0120 C   0  0  0  0  0  0  0  0  0  0  0  0
    8.2346  -16.7448   26.2620 O   0  0  0  0  0  0  0  0  0  0  0  0
    8.5485  -16.4473   27.5718 C   0  0  0  0  0  0  0  0  0  0  0  0
    6.0054  -14.1820   25.9956 C   0  0  0  0  0  0  0  0  0  0  0  0
    5.5734  -13.2109   26.8685 O   0  0  0  0  0  0  0  0  0  0  0  0
  2  1  1  1
  2  3  1  0
  4  2  1  0
  4  5  1  6
  6  4  1  0
  7  6  2  0
  9 11  1  0
  9  8  1  0
 10  9  2  0
 12 13  1  0
 12 11  1  0
 13 14  1  0
 15 14  1  6
 15 16  1  0
 16  6  1  0
 17 15  1  0
 17 18  2  0
 20 19  1  0
 21 20  2  0
 22 21  1  0
 23 29  1  0
 23 22  2  0
 24 23  1  0
 25 24  1  6
 25 26  1  0
 26 17  1  0
 27 25  1  0
 28 27  1  0
 29 30  2  0
 30 20  1  0
 31 27  2  0
M  END
$$$$
