VRY.pdb
     RDKit          3D

 31 31  0  0  1  0  0  0  0  0999 V2000
    8.6041  -12.7481   20.0895 C   0  0  0  0  0  0  0  0  0  0  0  0
    7.6522  -13.4595   19.1581 C   0  0  1  0  0  0  0  0  0  0  0  0
    7.3181  -12.5537   17.9979 C   0  0  0  0  0  0  0  0  0  0  0  0
    8.2679  -14.7420   18.6176 C   0  0  2  0  0  0  0  0  0  0  0  0
    7.4073  -15.3691   17.6391 N   0  0  0  0  0  0  0  0  0  0  0  0
    8.4756  -15.7048   19.7270 C   0  0  0  0  0  0  0  0  0  0  0  0
    7.8591  -16.7934   19.8181 O   0  0  0  0  0  0  0  0  0  0  0  0
   10.3468  -21.8291   21.3448 N   0  0  0  0  0  0  0  0  0  0  0  0
   11.5923  -21.5283   21.9215 C   0  0  0  0  0  0  0  0  0  0  0  0
   11.9987  -22.0148   23.0404 N   0  0  0  0  0  0  0  0  0  0  0  0
   12.4645  -20.6195   21.2131 N   0  0  0  0  0  0  0  0  0  0  0  0
   11.8752  -19.5228   20.4994 C   0  0  0  0  0  0  0  0  0  0  0  0
   11.2160  -18.5897   21.5256 C   0  0  0  0  0  0  0  0  0  0  0  0
   10.6501  -17.4377   20.7877 C   0  0  0  0  0  0  0  0  0  0  0  0
    9.9593  -16.3888   21.6506 C   0  0  2  0  0  0  0  0  0  0  0  0
    9.4097  -15.3793   20.7237 N   0  0  0  0  0  0  0  0  0  0  0  0
   10.9012  -15.7663   22.5858 C   0  0  0  0  0  0  0  0  0  0  0  0
   12.1724  -15.9074   22.4466 O   0  0  0  0  0  0  0  0  0  0  0  0
   12.9369  -21.7404   23.3941 O   0  0  0  0  0  0  0  0  0  0  0  0
   10.7629  -16.1854   31.3943 C   0  0  0  0  0  0  0  0  0  0  0  0
   10.5171  -15.9960   30.0432 C   0  0  0  0  0  0  0  0  0  0  0  0
   10.3379  -17.0351   29.1525 C   0  0  0  0  0  0  0  0  0  0  0  0
   10.0941  -16.8011   27.8089 C   0  0  0  0  0  0  0  0  0  0  0  0
   10.0257  -15.5197   27.3342 C   0  0  0  0  0  0  0  0  0  0  0  0
    9.7713  -15.2907   25.9072 C   0  0  2  0  0  0  0  0  0  0  0  0
   11.0215  -15.2584   25.0559 N   0  0  0  0  0  0  0  0  0  0  0  0
   10.5459  -14.9649   23.7030 C   0  0  0  0  0  0  0  0  0  0  0  0
   11.6963  -16.5587   25.1441 O   0  0  0  0  0  0  0  0  0  0  0  0
   12.9461  -16.7498   25.6956 C   0  0  0  0  0  0  0  0  0  0  0  0
   10.2038  -14.4611   28.2185 C   0  0  0  0  0  0  0  0  0  0  0  0
   10.4452  -14.7071   29.5500 O   0  0  0  0  0  0  0  0  0  0  0  0
  2  1  1  1
  2  3  1  0
  4  2  1  0
  4  5  1  6
  6  4  1  0
  7  6  2  0
  9 11  1  0
  9  8  1  0
 10  9  2  0
 12 13  1  0
 12 11  1  0
 13 14  1  0
 15 14  1  6
 15 16  1  0
 16  6  1  0
 17 15  1  0
 17 18  2  0
 20 19  1  0
 21 20  2  0
 22 21  1  0
 23 29  1  0
 23 22  2  0
 24 23  1  0
 25 24  1  1
 25 26  1  0
 26 17  1  0
 27 25  1  0
 28 27  1  0
 29 30  2  0
 30 20  1  0
 31 27  2  0
M  END
$$$$
