VRY.pdb
     RDKit          3D

 31 31  0  0  1  0  0  0  0  0999 V2000
    8.0870  -12.6687   21.3922 C   0  0  0  0  0  0  0  0  0  0  0  0
    7.4210  -13.2113   20.1506 C   0  0  1  0  0  0  0  0  0  0  0  0
    7.2169  -12.0890   19.1621 C   0  0  0  0  0  0  0  0  0  0  0  0
    8.2717  -14.2911   19.4979 C   0  0  2  0  0  0  0  0  0  0  0  0
    7.6986  -14.7289   18.2444 N   0  0  0  0  0  0  0  0  0  0  0  0
    8.3617  -15.4692   20.3952 C   0  0  0  0  0  0  0  0  0  0  0  0
    7.4951  -16.3754   20.4303 O   0  0  0  0  0  0  0  0  0  0  0  0
   14.5265  -19.7002   18.7176 N   0  0  0  0  0  0  0  0  0  0  0  0
   13.4456  -19.3605   17.8865 C   0  0  0  0  0  0  0  0  0  0  0  0
   13.4623  -19.4810   16.6063 N   0  0  0  0  0  0  0  0  0  0  0  0
   12.2475  -18.8468   18.5102 N   0  0  0  0  0  0  0  0  0  0  0  0
   12.1948  -18.7854   19.9430 C   0  0  0  0  0  0  0  0  0  0  0  0
   10.8132  -18.2477   20.3433 C   0  0  0  0  0  0  0  0  0  0  0  0
   10.9885  -17.4141   21.5542 C   0  0  0  0  0  0  0  0  0  0  0  0
    9.7171  -16.7636   22.0853 C   0  0  2  0  0  0  0  0  0  0  0  0
    9.4735  -15.5730   21.2466 N   0  0  0  0  0  0  0  0  0  0  0  0
    9.8657  -16.3774   23.4918 C   0  0  0  0  0  0  0  0  0  0  0  0
   10.7461  -15.5137   23.8578 O   0  0  0  0  0  0  0  0  0  0  0  0
   12.6011  -19.2524   16.0709 O   0  0  0  0  0  0  0  0  0  0  0  0
    6.5866  -10.7729   26.3463 C   0  0  0  0  0  0  0  0  0  0  0  0
    6.9691  -12.1043   26.3986 C   0  0  0  0  0  0  0  0  0  0  0  0
    8.2767  -12.5233   26.2574 C   0  0  0  0  0  0  0  0  0  0  0  0
    8.6158  -13.8654   26.3163 C   0  0  0  0  0  0  0  0  0  0  0  0
    7.6488  -14.8119   26.5178 C   0  0  0  0  0  0  0  0  0  0  0  0
    8.0255  -16.2292   26.5727 C   0  0  2  0  0  0  0  0  0  0  0  0
    9.3770  -16.5314   25.9639 N   0  0  0  0  0  0  0  0  0  0  0  0
    9.0911  -16.8791   24.5711 C   0  0  0  0  0  0  0  0  0  0  0  0
   10.0000  -17.6364   26.7019 O   0  0  0  0  0  0  0  0  0  0  0  0
   10.5583  -17.5153   27.9574 C   0  0  0  0  0  0  0  0  0  0  0  0
    6.3260  -14.4066   26.6622 C   0  0  0  0  0  0  0  0  0  0  0  0
    6.0029  -13.0712   26.6018 O   0  0  0  0  0  0  0  0  0  0  0  0
  2  1  1  1
  2  3  1  0
  4  2  1  0
  4  5  1  6
  6  4  1  0
  7  6  2  0
  9 11  1  0
  9  8  1  0
 10  9  2  0
 12 13  1  0
 12 11  1  0
 13 14  1  0
 15 14  1  6
 15 16  1  0
 16  6  1  0
 17 15  1  0
 17 18  2  0
 20 19  1  0
 21 20  2  0
 22 21  1  0
 23 29  1  0
 23 22  2  0
 24 23  1  0
 25 24  1  6
 25 26  1  0
 26 17  1  0
 27 25  1  0
 28 27  1  0
 29 30  2  0
 30 20  1  0
 31 27  2  0
M  END
$$$$
