VRY.pdb
     RDKit          3D

 31 31  0  0  1  0  0  0  0  0999 V2000
    8.7232  -12.2951   18.8209 C   0  0  0  0  0  0  0  0  0  0  0  0
    8.6252  -13.3071   19.9371 C   0  0  1  0  0  0  0  0  0  0  0  0
    7.3458  -13.0812   20.7055 C   0  0  0  0  0  0  0  0  0  0  0  0
    8.6257  -14.7280   19.3921 C   0  0  2  0  0  0  0  0  0  0  0  0
    7.5592  -14.9270   18.4359 N   0  0  0  0  0  0  0  0  0  0  0  0
    8.4288  -15.6913   20.5031 C   0  0  0  0  0  0  0  0  0  0  0  0
    7.3134  -16.1845   20.7968 O   0  0  0  0  0  0  0  0  0  0  0  0
    8.6421  -21.9935   22.8562 N   0  0  0  0  0  0  0  0  0  0  0  0
    9.8227  -22.3308   23.5394 C   0  0  0  0  0  0  0  0  0  0  0  0
    9.8799  -23.2069   24.4791 N   0  0  0  0  0  0  0  0  0  0  0  0
   11.0412  -21.6522   23.1610 N   0  0  0  0  0  0  0  0  0  0  0  0
   10.9610  -20.5846   22.2054 C   0  0  0  0  0  0  0  0  0  0  0  0
   10.1968  -19.4228   22.8568 C   0  0  0  0  0  0  0  0  0  0  0  0
   10.1230  -18.3228   21.8686 C   0  0  0  0  0  0  0  0  0  0  0  0
    9.4604  -17.0443   22.3670 C   0  0  2  0  0  0  0  0  0  0  0  0
    9.5481  -16.0685   21.2624 N   0  0  0  0  0  0  0  0  0  0  0  0
   10.1350  -16.5274   23.5617 C   0  0  0  0  0  0  0  0  0  0  0  0
   11.2503  -15.8919   23.4766 O   0  0  0  0  0  0  0  0  0  0  0  0
   10.8060  -23.4415   24.8888 O   0  0  0  0  0  0  0  0  0  0  0  0
    5.3838  -12.0507   26.9765 C   0  0  0  0  0  0  0  0  0  0  0  0
    6.6007  -12.6521   26.6948 C   0  0  0  0  0  0  0  0  0  0  0  0
    7.6786  -12.6217   27.5565 C   0  0  0  0  0  0  0  0  0  0  0  0
    8.8779  -13.2365   27.2354 C   0  0  0  0  0  0  0  0  0  0  0  0
    9.0178  -13.8932   26.0433 C   0  0  0  0  0  0  0  0  0  0  0  0
   10.2969  -14.5347   25.7177 C   0  0  1  0  0  0  0  0  0  0  0  0
   10.3394  -16.0153   26.0254 N   0  0  0  0  0  0  0  0  0  0  0  0
    9.6621  -16.6524   24.8948 C   0  0  0  0  0  0  0  0  0  0  0  0
    9.6553  -16.2608   27.3004 O   0  0  0  0  0  0  0  0  0  0  0  0
   10.1616  -15.9087   28.5343 C   0  0  0  0  0  0  0  0  0  0  0  0
    7.9412  -13.9335   25.1636 C   0  0  0  0  0  0  0  0  0  0  0  0
    6.7561  -13.3191   25.4945 O   0  0  0  0  0  0  0  0  0  0  0  0
  2  1  1  6
  2  3  1  0
  4  2  1  0
  4  5  1  6
  6  4  1  0
  7  6  2  0
  9 11  1  0
  9  8  1  0
 10  9  2  0
 12 13  1  0
 12 11  1  0
 13 14  1  0
 15 14  1  6
 15 16  1  0
 16  6  1  0
 17 15  1  0
 17 18  2  0
 20 19  1  0
 21 20  2  0
 22 21  1  0
 23 29  1  0
 23 22  2  0
 24 23  1  0
 25 24  1  6
 25 26  1  0
 26 17  1  0
 27 25  1  0
 28 27  1  0
 29 30  2  0
 30 20  1  0
 31 27  2  0
M  END
$$$$
