VRY.pdb
     RDKit          3D

 31 31  0  0  1  0  0  0  0  0999 V2000
    6.2921  -12.7960   20.7384 C   0  0  0  0  0  0  0  0  0  0  0  0
    7.3833  -13.2429   19.7954 C   0  0  1  0  0  0  0  0  0  0  0  0
    7.6590  -12.1466   18.7951 C   0  0  0  0  0  0  0  0  0  0  0  0
    8.6681  -13.5534   20.5494 C   0  0  2  0  0  0  0  0  0  0  0  0
    9.7161  -13.9853   19.6512 N   0  0  0  0  0  0  0  0  0  0  0  0
    8.4255  -14.6436   21.5260 C   0  0  0  0  0  0  0  0  0  0  0  0
    7.5729  -14.5690   22.4430 O   0  0  0  0  0  0  0  0  0  0  0  0
   13.7843  -21.2998   23.2212 N   0  0  0  0  0  0  0  0  0  0  0  0
   12.3904  -21.2530   23.0502 C   0  0  0  0  0  0  0  0  0  0  0  0
   11.5603  -21.9425   23.7498 N   0  0  0  0  0  0  0  0  0  0  0  0
   11.8627  -20.3779   22.0284 N   0  0  0  0  0  0  0  0  0  0  0  0
   10.4656  -20.4613   21.7111 C   0  0  0  0  0  0  0  0  0  0  0  0
    9.7315  -19.3813   22.5189 C   0  0  0  0  0  0  0  0  0  0  0  0
    9.7856  -18.1230   21.7407 C   0  0  0  0  0  0  0  0  0  0  0  0
    9.0465  -16.9431   22.3601 C   0  0  2  0  0  0  0  0  0  0  0  0
    9.1895  -15.8167   21.4162 N   0  0  0  0  0  0  0  0  0  0  0  0
    9.6096  -16.5907   23.6671 C   0  0  0  0  0  0  0  0  0  0  0  0
   10.8071  -16.1336   23.7771 O   0  0  0  0  0  0  0  0  0  0  0  0
   10.5437  -21.8517   23.5530 O   0  0  0  0  0  0  0  0  0  0  0  0
    6.4035  -11.0151   25.6073 C   0  0  0  0  0  0  0  0  0  0  0  0
    6.9614  -12.2261   25.9869 C   0  0  0  0  0  0  0  0  0  0  0  0
    8.2928  -12.3763   26.3187 C   0  0  0  0  0  0  0  0  0  0  0  0
    8.8099  -13.6060   26.6931 C   0  0  0  0  0  0  0  0  0  0  0  0
    8.0002  -14.7078   26.7413 C   0  0  0  0  0  0  0  0  0  0  0  0
    8.5660  -16.0032   27.1355 C   0  0  2  0  0  0  0  0  0  0  0  0
    9.6257  -16.5258   26.1908 N   0  0  0  0  0  0  0  0  0  0  0  0
    8.9349  -16.6988   24.9119 C   0  0  0  0  0  0  0  0  0  0  0  0
   10.1578  -17.7883   26.7169 O   0  0  0  0  0  0  0  0  0  0  0  0
   10.0207  -19.0100   26.0914 C   0  0  0  0  0  0  0  0  0  0  0  0
    6.6560  -14.5737   26.4102 C   0  0  0  0  0  0  0  0  0  0  0  0
    6.1554  -13.3473   26.0403 O   0  0  0  0  0  0  0  0  0  0  0  0
  2  1  1  1
  2  3  1  0
  4  2  1  0
  4  5  1  6
  6  4  1  0
  7  6  2  0
  9 11  1  0
  9  8  1  0
 10  9  2  0
 12 13  1  0
 12 11  1  0
 13 14  1  0
 15 14  1  6
 15 16  1  0
 16  6  1  0
 17 15  1  0
 17 18  2  0
 20 19  1  0
 21 20  2  0
 22 21  1  0
 23 29  1  0
 23 22  2  0
 24 23  1  0
 25 24  1  6
 25 26  1  0
 26 17  1  0
 27 25  1  0
 28 27  1  0
 29 30  2  0
 30 20  1  0
 31 27  2  0
M  END
$$$$
