VRY.pdb
     RDKit          3D

 31 31  0  0  1  0  0  0  0  0999 V2000
    8.1377  -11.7682   18.4946 C   0  0  0  0  0  0  0  0  0  0  0  0
    8.3217  -12.9094   19.4659 C   0  0  1  0  0  0  0  0  0  0  0  0
    7.2005  -12.8913   20.4762 C   0  0  0  0  0  0  0  0  0  0  0  0
    8.3120  -14.2504   18.7464 C   0  0  2  0  0  0  0  0  0  0  0  0
    7.1125  -14.4165   17.9558 N   0  0  0  0  0  0  0  0  0  0  0  0
    8.3613  -15.3522   19.7386 C   0  0  0  0  0  0  0  0  0  0  0  0
    7.3691  -15.7137   20.4155 O   0  0  0  0  0  0  0  0  0  0  0  0
   14.1316  -21.3426   19.0139 N   0  0  0  0  0  0  0  0  0  0  0  0
   14.4261  -20.2437   19.8386 C   0  0  0  0  0  0  0  0  0  0  0  0
   15.6202  -19.8391   20.0918 N   0  0  0  0  0  0  0  0  0  0  0  0
   13.3204  -19.5290   20.4344 N   0  0  0  0  0  0  0  0  0  0  0  0
   12.0272  -20.1513   20.4397 C   0  0  0  0  0  0  0  0  0  0  0  0
   11.0662  -19.2391   21.2158 C   0  0  0  0  0  0  0  0  0  0  0  0
   10.7031  -18.1102   20.3293 C   0  0  0  0  0  0  0  0  0  0  0  0
    9.7469  -17.0897   20.9346 C   0  0  2  0  0  0  0  0  0  0  0  0
    9.5806  -16.0225   19.9277 N   0  0  0  0  0  0  0  0  0  0  0  0
   10.2808  -16.5370   22.1832 C   0  0  0  0  0  0  0  0  0  0  0  0
   11.2951  -15.7457   22.1835 O   0  0  0  0  0  0  0  0  0  0  0  0
   15.7498  -19.0359   20.7388 O   0  0  0  0  0  0  0  0  0  0  0  0
   10.7333  -14.3439   30.8144 C   0  0  0  0  0  0  0  0  0  0  0  0
   10.3544  -14.7233   29.5360 C   0  0  0  0  0  0  0  0  0  0  0  0
    9.9342  -13.8281   28.5730 C   0  0  0  0  0  0  0  0  0  0  0  0
    9.5641  -14.2503   27.3064 C   0  0  0  0  0  0  0  0  0  0  0  0
    9.6089  -15.5788   26.9827 C   0  0  0  0  0  0  0  0  0  0  0  0
    9.2088  -16.0085   25.6377 C   0  0  1  0  0  0  0  0  0  0  0  0
   10.3667  -16.2076   24.6848 N   0  0  0  0  0  0  0  0  0  0  0  0
    9.7668  -16.7890   23.4828 C   0  0  0  0  0  0  0  0  0  0  0  0
   11.3532  -17.0984   25.3070 O   0  0  0  0  0  0  0  0  0  0  0  0
   12.5345  -16.6720   25.8774 C   0  0  0  0  0  0  0  0  0  0  0  0
   10.0302  -16.4942   27.9415 C   0  0  0  0  0  0  0  0  0  0  0  0
   10.3949  -16.0619   29.1951 O   0  0  0  0  0  0  0  0  0  0  0  0
  2  1  1  6
  2  3  1  0
  4  2  1  0
  4  5  1  1
  6  4  1  0
  7  6  2  0
  9 11  1  0
  9  8  1  0
 10  9  2  0
 12 13  1  0
 12 11  1  0
 13 14  1  0
 15 14  1  6
 15 16  1  0
 16  6  1  0
 17 15  1  0
 17 18  2  0
 20 19  1  0
 21 20  2  0
 22 21  1  0
 23 29  1  0
 23 22  2  0
 24 23  1  0
 25 24  1  6
 25 26  1  0
 26 17  1  0
 27 25  1  0
 28 27  1  0
 29 30  2  0
 30 20  1  0
 31 27  2  0
M  END
$$$$
