RPN.pdb
     RDKit          3D

 27 27  0  0  1  0  0  0  0  0999 V2000
   23.8534  -24.8962  -16.1916 N   0  0  0  0  0  0  0  0  0  0  0  0
   25.2273  -25.2171  -16.1777 C   0  0  0  0  0  0  0  0  0  0  0  0
   25.5743  -26.3933  -16.6371 N   0  0  0  0  0  0  0  0  0  0  0  0
   26.1862  -24.3003  -15.6917 N   0  0  0  0  0  0  0  0  0  0  0  0
   25.6785  -23.0183  -15.1608 C   0  0  0  0  0  0  0  0  0  0  0  0
   25.0592  -23.3001  -13.8407 C   0  0  0  0  0  0  0  0  0  0  0  0
   24.5500  -22.1443  -13.0492 C   0  0  0  0  0  0  0  0  0  0  0  0
   25.6372  -21.2393  -12.5617 C   0  0  2  0  0  0  0  0  0  0  0  0
   25.7065  -21.2658  -11.1147 N   0  0  0  0  0  0  0  0  0  0  0  0
   25.4650  -19.8560  -13.0405 C   0  0  0  0  0  0  0  0  0  0  0  0
   24.5933  -19.1107  -12.4767 O   0  0  0  0  0  0  0  0  0  0  0  0
   26.5481  -26.7271  -16.6101 N   0  0  0  0  0  0  0  0  0  0  0  0
   26.2154  -19.3063  -14.0951 C   0  0  0  0  0  0  0  0  0  0  0  0
   27.2194  -20.0155  -14.8641 C   0  0  0  0  0  0  0  0  0  0  0  0
   28.2471  -18.8970  -15.1055 C   0  0  0  0  0  0  0  0  0  0  0  0
   27.3767  -17.7331  -15.4058 C   0  0  2  0  0  0  0  0  0  0  0  0
   26.1320  -17.9431  -14.5871 C   0  0  0  0  0  0  0  0  0  0  0  0
   24.8997  -17.7029  -15.3760 O   0  0  0  0  0  0  0  0  0  0  0  0
   24.0617  -18.6371  -15.4566 N   0  0  0  0  0  0  0  0  0  0  0  0
   20.5049  -15.6903  -17.0049 C   0  0  0  0  0  0  0  0  0  0  0  0
   20.9193  -16.0151  -15.6871 O   0  0  0  0  0  0  0  0  0  0  0  0
   20.0596  -16.0399  -14.7899 C   0  0  0  0  0  0  0  0  0  0  0  0
   22.3207  -16.3057  -15.4265 C   0  0  1  0  0  0  0  0  0  0  0  0
   23.2431  -16.2643  -16.6172 N   0  0  0  0  0  0  0  0  0  0  0  0
   24.5901  -16.5094  -16.0444 C   0  0  0  0  0  0  0  0  0  0  0  0
   23.2528  -14.9787  -17.3375 O   0  0  0  0  0  0  0  0  0  0  0  0
   22.4372  -14.7331  -18.4489 O   0  0  0  0  0  0  0  0  0  0  0  0
  2  1  1  0
  3  2  2  0
  4  2  1  0
  5  4  1  0
  6  5  1  0
  7  6  1  0
  8  7  1  0
  8  9  1  1
 10  8  1  0
 10 12  1  0
 11 10  2  0
 12 13  1  0
 13 14  1  0
 15 14  1  0
 16 12  1  0
 16 15  1  0
 16 17  1  6
 18 17  2  0
 19 20  1  0
 20 21  2  0
 23 22  1  6
 22 20  1  0
 23 24  1  0
 24 17  1  0
 25 23  1  0
 25 26  1  0
 27 25  2  0
M  END
$$$$
