RPN.pdb
     RDKit          3D

 27 27  0  0  1  0  0  0  0  0999 V2000
   19.6102  -22.8861   -7.6810 N   0  0  0  0  0  0  0  0  0  0  0  0
   19.5455  -22.1926   -8.9081 C   0  0  0  0  0  0  0  0  0  0  0  0
   18.3929  -22.1771   -9.5295 N   0  0  0  0  0  0  0  0  0  0  0  0
   20.6803  -21.5382   -9.4375 N   0  0  0  0  0  0  0  0  0  0  0  0
   21.9234  -22.3303   -9.5399 C   0  0  0  0  0  0  0  0  0  0  0  0
   22.9810  -21.4284  -10.0629 C   0  0  0  0  0  0  0  0  0  0  0  0
   24.3185  -22.0184  -10.3539 C   0  0  0  0  0  0  0  0  0  0  0  0
   25.4454  -21.0578  -10.1399 C   0  0  2  0  0  0  0  0  0  0  0  0
   25.1999  -20.2432   -8.9671 N   0  0  0  0  0  0  0  0  0  0  0  0
   25.6775  -20.2024  -11.3176 C   0  0  0  0  0  0  0  0  0  0  0  0
   25.0729  -19.0791  -11.3945 O   0  0  0  0  0  0  0  0  0  0  0  0
   18.2602  -21.6900  -10.4271 N   0  0  0  0  0  0  0  0  0  0  0  0
   26.5368  -20.5590  -12.3720 C   0  0  0  0  0  0  0  0  0  0  0  0
   27.2187  -21.8322  -12.4996 C   0  0  0  0  0  0  0  0  0  0  0  0
   28.5555  -21.3876  -13.1165 C   0  0  0  0  0  0  0  0  0  0  0  0
   28.1200  -20.3686  -14.1037 C   0  0  2  0  0  0  0  0  0  0  0  0
   26.9032  -19.7218  -13.5000 C   0  0  0  0  0  0  0  0  0  0  0  0
   25.8005  -19.5849  -14.4820 O   0  0  0  0  0  0  0  0  0  0  0  0
   25.0027  -20.5485  -14.6083 N   0  0  0  0  0  0  0  0  0  0  0  0
   22.4857  -17.5607  -18.0999 C   0  0  0  0  0  0  0  0  0  0  0  0
   22.9590  -16.6020  -17.1667 O   0  0  0  0  0  0  0  0  0  0  0  0
   22.5030  -15.4474  -17.2278 C   0  0  0  0  0  0  0  0  0  0  0  0
   23.9522  -16.9922  -16.1779 C   0  0  1  0  0  0  0  0  0  0  0  0
   24.4535  -18.4107  -16.2600 N   0  0  0  0  0  0  0  0  0  0  0  0
   25.5732  -18.4592  -15.2872 C   0  0  0  0  0  0  0  0  0  0  0  0
   24.9529  -18.8058  -17.5890 O   0  0  0  0  0  0  0  0  0  0  0  0
   24.1654  -19.5068  -18.5105 O   0  0  0  0  0  0  0  0  0  0  0  0
  2  1  1  0
  3  2  2  0
  4  2  1  0
  5  4  1  0
  6  5  1  0
  7  6  1  0
  8  7  1  0
  8  9  1  1
 10  8  1  0
 10 12  1  0
 11 10  2  0
 12 13  1  0
 13 14  1  0
 15 14  1  0
 16 12  1  0
 16 15  1  0
 16 17  1  6
 18 17  2  0
 19 20  1  0
 20 21  2  0
 23 22  1  1
 22 20  1  0
 23 24  1  0
 24 17  1  0
 25 23  1  0
 25 26  1  0
 27 25  2  0
M  END
$$$$
