RPN.pdb
     RDKit          3D

 27 27  0  0  1  0  0  0  0  0999 V2000
   18.3028  -19.9471  -15.7184 N   0  0  0  0  0  0  0  0  0  0  0  0
   19.1647  -19.2213  -16.5676 C   0  0  0  0  0  0  0  0  0  0  0  0
   18.7696  -19.0269  -17.8009 N   0  0  0  0  0  0  0  0  0  0  0  0
   20.4006  -18.7218  -16.0992 N   0  0  0  0  0  0  0  0  0  0  0  0
   21.3729  -19.7106  -15.5893 C   0  0  0  0  0  0  0  0  0  0  0  0
   22.3095  -18.9879  -14.6916 C   0  0  0  0  0  0  0  0  0  0  0  0
   22.3164  -19.3587  -13.2479 C   0  0  0  0  0  0  0  0  0  0  0  0
   23.3871  -20.3433  -12.8976 C   0  0  2  0  0  0  0  0  0  0  0  0
   23.7089  -21.1696  -14.0435 N   0  0  0  0  0  0  0  0  0  0  0  0
   23.0122  -21.1862  -11.7481 C   0  0  0  0  0  0  0  0  0  0  0  0
   22.3401  -22.2529  -11.9569 O   0  0  0  0  0  0  0  0  0  0  0  0
   19.3538  -18.5372  -18.4932 N   0  0  0  0  0  0  0  0  0  0  0  0
   23.3574  -20.8771  -10.4204 C   0  0  0  0  0  0  0  0  0  0  0  0
   24.1308  -19.7229  -10.0056 C   0  0  0  0  0  0  0  0  0  0  0  0
   24.9427  -20.3174   -8.8425 C   0  0  0  0  0  0  0  0  0  0  0  0
   23.9324  -21.1597   -8.1552 C   0  0  2  0  0  0  0  0  0  0  0  0
   23.0191  -21.6560   -9.2430 C   0  0  0  0  0  0  0  0  0  0  0  0
   21.5893  -21.5252   -8.8722 O   0  0  0  0  0  0  0  0  0  0  0  0
   20.9030  -20.6594   -9.4728 N   0  0  0  0  0  0  0  0  0  0  0  0
   16.8961  -23.4309   -8.7305 C   0  0  0  0  0  0  0  0  0  0  0  0
   17.9403  -23.6098   -9.6747 O   0  0  0  0  0  0  0  0  0  0  0  0
   17.6582  -24.1170  -10.7737 C   0  0  0  0  0  0  0  0  0  0  0  0
   19.2940  -23.2004   -9.3341 C   0  0  1  0  0  0  0  0  0  0  0  0
   19.4798  -22.5745   -7.9761 N   0  0  0  0  0  0  0  0  0  0  0  0
   20.9352  -22.2946   -7.8990 C   0  0  0  0  0  0  0  0  0  0  0  0
   19.0954  -23.4401   -6.8472 O   0  0  0  0  0  0  0  0  0  0  0  0
   17.9129  -23.2495   -6.1218 O   0  0  0  0  0  0  0  0  0  0  0  0
  2  1  1  0
  3  2  2  0
  4  2  1  0
  5  4  1  0
  6  5  1  0
  7  6  1  0
  8  7  1  0
  8  9  1  6
 10  8  1  0
 10 12  1  0
 11 10  2  0
 12 13  1  0
 13 14  1  0
 15 14  1  0
 16 12  1  0
 16 15  1  0
 16 17  1  1
 18 17  2  0
 19 20  1  0
 20 21  2  0
 23 22  1  6
 22 20  1  0
 23 24  1  0
 24 17  1  0
 25 23  1  0
 25 26  1  0
 27 25  2  0
M  END
$$$$
