RPN.pdb
     RDKit          3D

 27 27  0  0  1  0  0  0  0  0999 V2000
   38.2908  -10.0234  -17.5431 N   0  0  0  0  0  0  0  0  0  0  0  0
   37.8908  -11.3701  -17.4117 C   0  0  0  0  0  0  0  0  0  0  0  0
   38.1676  -12.1786  -18.4039 N   0  0  0  0  0  0  0  0  0  0  0  0
   37.2238  -11.8236  -16.2517 N   0  0  0  0  0  0  0  0  0  0  0  0
   37.0944  -10.8645  -15.1352 C   0  0  0  0  0  0  0  0  0  0  0  0
   38.0849  -11.2547  -14.0997 C   0  0  0  0  0  0  0  0  0  0  0  0
   38.2803  -10.3369  -12.9416 C   0  0  0  0  0  0  0  0  0  0  0  0
   37.0095  -10.0254  -12.2158 C   0  0  2  0  0  0  0  0  0  0  0  0
   36.0654   -9.3781  -13.1041 N   0  0  0  0  0  0  0  0  0  0  0  0
   37.2414   -9.1936  -11.0214 C   0  0  0  0  0  0  0  0  0  0  0  0
   36.9125   -7.9591  -11.0545 O   0  0  0  0  0  0  0  0  0  0  0  0
   37.9239  -13.1789  -18.3805 N   0  0  0  0  0  0  0  0  0  0  0  0
   37.8110   -9.6896   -9.8353 C   0  0  0  0  0  0  0  0  0  0  0  0
   38.2403  -11.0584   -9.6236 C   0  0  0  0  0  0  0  0  0  0  0  0
   37.8682  -11.2563   -8.1445 C   0  0  0  0  0  0  0  0  0  0  0  0
   38.2774   -9.9622   -7.5441 C   0  0  2  0  0  0  0  0  0  0  0  0
   38.0544   -8.9342   -8.6197 C   0  0  0  0  0  0  0  0  0  0  0  0
   39.2053   -8.0086   -8.7522 O   0  0  0  0  0  0  0  0  0  0  0  0
   39.5564   -7.6691   -9.9110 N   0  0  0  0  0  0  0  0  0  0  0  0
   42.2866   -4.0956   -9.6112 C   0  0  0  0  0  0  0  0  0  0  0  0
   41.2510   -4.1377   -8.6419 O   0  0  0  0  0  0  0  0  0  0  0  0
   41.0881   -3.1448   -7.9124 C   0  0  0  0  0  0  0  0  0  0  0  0
   40.4200   -5.3266   -8.5305 C   0  0  1  0  0  0  0  0  0  0  0  0
   41.0649   -6.5345   -7.9017 N   0  0  0  0  0  0  0  0  0  0  0  0
   39.9394   -7.4766   -7.6821 C   0  0  0  0  0  0  0  0  0  0  0  0
   41.7301   -6.2704   -6.6136 O   0  0  0  0  0  0  0  0  0  0  0  0
   41.0531   -6.3370   -5.3898 O   0  0  0  0  0  0  0  0  0  0  0  0
  2  1  1  0
  3  2  2  0
  4  2  1  0
  5  4  1  0
  6  5  1  0
  7  6  1  0
  8  7  1  0
  8  9  1  6
 10  8  1  0
 10 12  1  0
 11 10  2  0
 12 13  1  0
 13 14  1  0
 15 14  1  0
 16 12  1  0
 16 15  1  0
 16 17  1  1
 18 17  2  0
 19 20  1  0
 20 21  2  0
 23 22  1  6
 22 20  1  0
 23 24  1  0
 24 17  1  0
 25 23  1  0
 25 26  1  0
 27 25  2  0
M  END
$$$$
