RPN.pdb
     RDKit          3D

 27 27  0  0  1  0  0  0  0  0999 V2000
   28.7299  -17.6564  -18.0259 N   0  0  0  0  0  0  0  0  0  0  0  0
   29.6023  -18.5983  -17.4405 C   0  0  0  0  0  0  0  0  0  0  0  0
   30.7166  -18.8614  -18.0763 N   0  0  0  0  0  0  0  0  0  0  0  0
   29.2841  -19.2249  -16.2148 N   0  0  0  0  0  0  0  0  0  0  0  0
   28.0671  -18.7574  -15.5196 C   0  0  0  0  0  0  0  0  0  0  0  0
   26.9068  -19.0961  -16.3825 C   0  0  0  0  0  0  0  0  0  0  0  0
   25.8960  -20.0519  -15.8471 C   0  0  0  0  0  0  0  0  0  0  0  0
   26.4933  -21.1204  -14.9867 C   0  0  2  0  0  0  0  0  0  0  0  0
   27.0679  -22.1677  -15.8067 N   0  0  0  0  0  0  0  0  0  0  0  0
   25.5122  -21.6883  -14.0447 C   0  0  0  0  0  0  0  0  0  0  0  0
   24.9859  -22.8224  -14.3093 O   0  0  0  0  0  0  0  0  0  0  0  0
   31.4032  -19.5416  -17.7208 N   0  0  0  0  0  0  0  0  0  0  0  0
   25.1196  -21.0431  -12.8586 C   0  0  0  0  0  0  0  0  0  0  0  0
   25.7649  -19.8758  -12.2897 C   0  0  0  0  0  0  0  0  0  0  0  0
   25.6373  -20.1745  -10.7864 C   0  0  0  0  0  0  0  0  0  0  0  0
   24.2590  -20.7166  -10.6920 C   0  0  2  0  0  0  0  0  0  0  0  0
   24.0215  -21.4337  -11.9931 C   0  0  0  0  0  0  0  0  0  0  0  0
   22.6989  -21.1042  -12.5770 O   0  0  0  0  0  0  0  0  0  0  0  0
   22.6203  -20.0944  -13.3221 N   0  0  0  0  0  0  0  0  0  0  0  0
   17.6219  -21.3516  -14.0631 C   0  0  0  0  0  0  0  0  0  0  0  0
   18.0459  -22.5726  -13.4773 O   0  0  0  0  0  0  0  0  0  0  0  0
   17.2375  -23.5156  -13.4339 C   0  0  0  0  0  0  0  0  0  0  0  0
   19.3973  -22.6848  -12.9506 C   0  0  1  0  0  0  0  0  0  0  0  0
   20.2332  -21.4317  -12.9860 N   0  0  0  0  0  0  0  0  0  0  0  0
   21.5196  -21.8331  -12.3645 C   0  0  0  0  0  0  0  0  0  0  0  0
   19.6671  -20.2988  -12.2326 O   0  0  0  0  0  0  0  0  0  0  0  0
   19.0206  -19.2265  -12.8595 O   0  0  0  0  0  0  0  0  0  0  0  0
  2  1  1  0
  3  2  2  0
  4  2  1  0
  5  4  1  0
  6  5  1  0
  7  6  1  0
  8  7  1  0
  8  9  1  6
 10  8  1  0
 10 12  1  0
 11 10  2  0
 12 13  1  0
 13 14  1  0
 15 14  1  0
 16 12  1  0
 16 15  1  0
 16 17  1  6
 18 17  2  0
 19 20  1  0
 20 21  2  0
 23 22  1  6
 22 20  1  0
 23 24  1  0
 24 17  1  0
 25 23  1  0
 25 26  1  0
 27 25  2  0
M  END
$$$$
