RPN.pdb
     RDKit          3D

 27 27  0  0  1  0  0  0  0  0999 V2000
   17.9862  -13.6427    2.2152 N   0  0  0  0  0  0  0  0  0  0  0  0
   16.9188  -13.8425    3.1161 C   0  0  0  0  0  0  0  0  0  0  0  0
   15.9609  -12.9496    3.1203 N   0  0  0  0  0  0  0  0  0  0  0  0
   16.8872  -14.9656    3.9729 N   0  0  0  0  0  0  0  0  0  0  0  0
   17.8884  -16.0240    3.7272 C   0  0  0  0  0  0  0  0  0  0  0  0
   17.1710  -17.3243    3.7447 C   0  0  0  0  0  0  0  0  0  0  0  0
   17.9876  -18.5709    3.7118 C   0  0  0  0  0  0  0  0  0  0  0  0
   17.1628  -19.8174    3.7788 C   0  0  2  0  0  0  0  0  0  0  0  0
   15.7524  -19.4887    3.8264 N   0  0  0  0  0  0  0  0  0  0  0  0
   17.5296  -20.6653    4.9273 C   0  0  0  0  0  0  0  0  0  0  0  0
   16.8453  -20.5786    6.0031 O   0  0  0  0  0  0  0  0  0  0  0  0
   15.1278  -13.0420    3.7184 N   0  0  0  0  0  0  0  0  0  0  0  0
   18.6028  -21.5735    4.9032 C   0  0  0  0  0  0  0  0  0  0  0  0
   19.3277  -21.9786    3.7146 C   0  0  0  0  0  0  0  0  0  0  0  0
   19.6139  -23.4553    4.0355 C   0  0  0  0  0  0  0  0  0  0  0  0
   19.9778  -23.3972    5.4731 C   0  0  2  0  0  0  0  0  0  0  0  0
   19.1609  -22.2718    6.0471 C   0  0  0  0  0  0  0  0  0  0  0  0
   19.9714  -21.3801    6.9113 O   0  0  0  0  0  0  0  0  0  0  0  0
   20.3587  -20.2858    6.4279 N   0  0  0  0  0  0  0  0  0  0  0  0
   22.0670  -18.0469    9.4180 C   0  0  0  0  0  0  0  0  0  0  0  0
   20.6559  -18.1942    9.3839 O   0  0  0  0  0  0  0  0  0  0  0  0
   19.9553  -17.1786    9.5331 C   0  0  0  0  0  0  0  0  0  0  0  0
   20.0766  -19.5127    9.1782 C   0  0  2  0  0  0  0  0  0  0  0  0
   21.0486  -20.6592    9.0734 N   0  0  0  0  0  0  0  0  0  0  0  0
   20.3436  -21.6600    8.2343 C   0  0  0  0  0  0  0  0  0  0  0  0
   21.4051  -21.2773   10.3627 O   0  0  0  0  0  0  0  0  0  0  0  0
   22.4343  -20.7844   11.1741 O   0  0  0  0  0  0  0  0  0  0  0  0
  2  1  1  0
  3  2  2  0
  4  2  1  0
  5  4  1  0
  6  5  1  0
  7  6  1  0
  8  7  1  0
  8  9  1  1
 10  8  1  0
 10 12  1  0
 11 10  2  0
 12 13  1  0
 13 14  1  0
 15 14  1  0
 16 12  1  0
 16 15  1  0
 16 17  1  6
 18 17  2  0
 19 20  1  0
 20 21  2  0
 23 22  1  6
 22 20  1  0
 23 24  1  0
 24 17  1  0
 25 23  1  0
 25 26  1  0
 27 25  2  0
M  END
$$$$
