RPN.pdb
     RDKit          3D

 27 27  0  0  1  0  0  0  0  0999 V2000
   19.9171  -20.8428  -13.0424 N   0  0  0  0  0  0  0  0  0  0  0  0
   21.3039  -20.9172  -12.7929 C   0  0  0  0  0  0  0  0  0  0  0  0
   22.1036  -20.3791  -13.6794 N   0  0  0  0  0  0  0  0  0  0  0  0
   21.8037  -21.5433  -11.6291 N   0  0  0  0  0  0  0  0  0  0  0  0
   22.1027  -20.6708  -10.4748 C   0  0  0  0  0  0  0  0  0  0  0  0
   23.5505  -20.3447  -10.5298 C   0  0  0  0  0  0  0  0  0  0  0  0
   24.5132  -21.4723  -10.6831 C   0  0  0  0  0  0  0  0  0  0  0  0
   25.9436  -21.0357  -10.6402 C   0  0  2  0  0  0  0  0  0  0  0  0
   26.2465  -20.4201   -9.3640 N   0  0  0  0  0  0  0  0  0  0  0  0
   26.2775  -20.1172  -11.7435 C   0  0  0  0  0  0  0  0  0  0  0  0
   26.2502  -18.8577  -11.5290 O   0  0  0  0  0  0  0  0  0  0  0  0
   23.1178  -20.5575  -13.6829 N   0  0  0  0  0  0  0  0  0  0  0  0
   26.6278  -20.5561  -13.0327 C   0  0  0  0  0  0  0  0  0  0  0  0
   26.6553  -21.9399  -13.4651 C   0  0  0  0  0  0  0  0  0  0  0  0
   27.8661  -21.9261  -14.4134 C   0  0  0  0  0  0  0  0  0  0  0  0
   27.6820  -20.6427  -15.1357 C   0  0  2  0  0  0  0  0  0  0  0  0
   27.0347  -19.7151  -14.1437 C   0  0  0  0  0  0  0  0  0  0  0  0
   25.8954  -18.9736  -14.7361 O   0  0  0  0  0  0  0  0  0  0  0  0
   24.7512  -19.4883  -14.6514 N   0  0  0  0  0  0  0  0  0  0  0  0
   23.0294  -15.1066  -16.9857 C   0  0  0  0  0  0  0  0  0  0  0  0
   24.1590  -14.6244  -16.2748 O   0  0  0  0  0  0  0  0  0  0  0  0
   24.3054  -13.3949  -16.1681 C   0  0  0  0  0  0  0  0  0  0  0  0
   25.1020  -15.5705  -15.6986 C   0  0  1  0  0  0  0  0  0  0  0  0
   24.7897  -17.0306  -15.9009 N   0  0  0  0  0  0  0  0  0  0  0  0
   25.9908  -17.7355  -15.3880 C   0  0  0  0  0  0  0  0  0  0  0  0
   24.5667  -17.4184  -17.3050 O   0  0  0  0  0  0  0  0  0  0  0  0
   23.2887  -17.4827  -17.8736 O   0  0  0  0  0  0  0  0  0  0  0  0
  2  1  1  0
  3  2  2  0
  4  2  1  0
  5  4  1  0
  6  5  1  0
  7  6  1  0
  8  7  1  0
  8  9  1  1
 10  8  1  0
 10 12  1  0
 11 10  2  0
 12 13  1  0
 13 14  1  0
 15 14  1  0
 16 12  1  0
 16 15  1  0
 16 17  1  6
 18 17  2  0
 19 20  1  0
 20 21  2  0
 23 22  1  1
 22 20  1  0
 23 24  1  0
 24 17  1  0
 25 23  1  0
 25 26  1  0
 27 25  2  0
M  END
$$$$
