RPN.pdb
     RDKit          3D

 27 27  0  0  1  0  0  0  0  0999 V2000
   20.7627  -25.1089  -14.3011 N   0  0  0  0  0  0  0  0  0  0  0  0
   21.7461  -26.0217  -14.7378 C   0  0  0  0  0  0  0  0  0  0  0  0
   21.4169  -26.8436  -15.7027 N   0  0  0  0  0  0  0  0  0  0  0  0
   23.0342  -26.0400  -14.1575 N   0  0  0  0  0  0  0  0  0  0  0  0
   23.8808  -24.8476  -14.3682 C   0  0  0  0  0  0  0  0  0  0  0  0
   22.9885  -23.7421  -14.8008 C   0  0  0  0  0  0  0  0  0  0  0  0
   23.6182  -22.4427  -15.1707 C   0  0  0  0  0  0  0  0  0  0  0  0
   23.9377  -21.5849  -13.9872 C   0  0  2  0  0  0  0  0  0  0  0  0
   22.7234  -21.2132  -13.2894 N   0  0  0  0  0  0  0  0  0  0  0  0
   24.7007  -20.3812  -14.3632 C   0  0  0  0  0  0  0  0  0  0  0  0
   24.0656  -19.3036  -14.6253 O   0  0  0  0  0  0  0  0  0  0  0  0
   22.0644  -27.5623  -16.0556 N   0  0  0  0  0  0  0  0  0  0  0  0
   26.1039  -20.3539  -14.4503 C   0  0  0  0  0  0  0  0  0  0  0  0
   26.9915  -21.3896  -13.9585 C   0  0  0  0  0  0  0  0  0  0  0  0
   28.1755  -20.5460  -13.4565 C   0  0  0  0  0  0  0  0  0  0  0  0
   28.3055  -19.5241  -14.5247 C   0  0  2  0  0  0  0  0  0  0  0  0
   26.9067  -19.2908  -15.0270 C   0  0  0  0  0  0  0  0  0  0  0  0
   26.8423  -19.2761  -16.5084 O   0  0  0  0  0  0  0  0  0  0  0  0
   26.3634  -20.2850  -17.0862 N   0  0  0  0  0  0  0  0  0  0  0  0
   24.6637  -19.5386  -19.8687 C   0  0  0  0  0  0  0  0  0  0  0  0
   24.2295  -18.5394  -18.9593 O   0  0  0  0  0  0  0  0  0  0  0  0
   23.0115  -18.4400  -18.7330 C   0  0  0  0  0  0  0  0  0  0  0  0
   25.2095  -17.6706  -18.3259 C   0  0  2  0  0  0  0  0  0  0  0  0
   26.6550  -17.9516  -18.6450 N   0  0  0  0  0  0  0  0  0  0  0  0
   27.2751  -18.2201  -17.3238 C   0  0  0  0  0  0  0  0  0  0  0  0
   27.3656  -16.8347  -19.2925 O   0  0  0  0  0  0  0  0  0  0  0  0
   27.5679  -16.7734  -20.6767 O   0  0  0  0  0  0  0  0  0  0  0  0
  2  1  1  0
  3  2  2  0
  4  2  1  0
  5  4  1  0
  6  5  1  0
  7  6  1  0
  8  7  1  0
  8  9  1  6
 10  8  1  0
 10 12  1  0
 11 10  2  0
 12 13  1  0
 13 14  1  0
 15 14  1  0
 16 12  1  0
 16 15  1  0
 16 17  1  6
 18 17  2  0
 19 20  1  0
 20 21  2  0
 23 22  1  6
 22 20  1  0
 23 24  1  0
 24 17  1  0
 25 23  1  0
 25 26  1  0
 27 25  2  0
M  END
$$$$
