RPN.pdb
     RDKit          3D

 27 27  0  0  1  0  0  0  0  0999 V2000
   24.6097  -26.4160  -18.2440 N   0  0  0  0  0  0  0  0  0  0  0  0
   24.2824  -25.3536  -17.3751 C   0  0  0  0  0  0  0  0  0  0  0  0
   23.0618  -25.3187  -16.9018 N   0  0  0  0  0  0  0  0  0  0  0  0
   25.2386  -24.3728  -17.0286 N   0  0  0  0  0  0  0  0  0  0  0  0
   26.4394  -24.8351  -16.3025 C   0  0  0  0  0  0  0  0  0  0  0  0
   27.5520  -24.9010  -17.2840 C   0  0  0  0  0  0  0  0  0  0  0  0
   27.9763  -23.6327  -17.9422 C   0  0  0  0  0  0  0  0  0  0  0  0
   29.1745  -23.0078  -17.2999 C   0  0  2  0  0  0  0  0  0  0  0  0
   30.1865  -24.0101  -17.0343 N   0  0  0  0  0  0  0  0  0  0  0  0
   28.8289  -22.2886  -16.0606 C   0  0  0  0  0  0  0  0  0  0  0  0
   29.2457  -22.7474  -14.9430 O   0  0  0  0  0  0  0  0  0  0  0  0
   22.7314  -24.5570  -16.2927 N   0  0  0  0  0  0  0  0  0  0  0  0
   28.0573  -21.1132  -16.0411 C   0  0  0  0  0  0  0  0  0  0  0  0
   27.5191  -20.4478  -17.2116 C   0  0  0  0  0  0  0  0  0  0  0  0
   27.6502  -18.9729  -16.7958 C   0  0  0  0  0  0  0  0  0  0  0  0
   27.2336  -19.0120  -15.3719 C   0  0  2  0  0  0  0  0  0  0  0  0
   27.6785  -20.3557  -14.8620 C   0  0  0  0  0  0  0  0  0  0  0  0
   26.6190  -21.0310  -14.0745 O   0  0  0  0  0  0  0  0  0  0  0  0
   26.7264  -22.2694  -13.8848 N   0  0  0  0  0  0  0  0  0  0  0  0
   24.7029  -20.9150   -9.3479 C   0  0  0  0  0  0  0  0  0  0  0  0
   25.9352  -20.3960   -9.8233 O   0  0  0  0  0  0  0  0  0  0  0  0
   26.8111  -20.1059   -8.9906 C   0  0  0  0  0  0  0  0  0  0  0  0
   26.1359  -20.2199  -11.2533 C   0  0  2  0  0  0  0  0  0  0  0  0
   25.0259  -20.7080  -12.1477 N   0  0  0  0  0  0  0  0  0  0  0  0
   25.4983  -20.3959  -13.5196 C   0  0  0  0  0  0  0  0  0  0  0  0
   23.7270  -20.0490  -11.9241 O   0  0  0  0  0  0  0  0  0  0  0  0
   23.4631  -18.7421  -12.3521 O   0  0  0  0  0  0  0  0  0  0  0  0
  2  1  1  0
  3  2  2  0
  4  2  1  0
  5  4  1  0
  6  5  1  0
  7  6  1  0
  8  7  1  0
  8  9  1  1
 10  8  1  0
 10 12  1  0
 11 10  2  0
 12 13  1  0
 13 14  1  0
 15 14  1  0
 16 12  1  0
 16 15  1  0
 16 17  1  6
 18 17  2  0
 19 20  1  0
 20 21  2  0
 23 22  1  6
 22 20  1  0
 23 24  1  0
 24 17  1  0
 25 23  1  0
 25 26  1  0
 27 25  2  0
M  END
$$$$
