RPN.pdb
     RDKit          3D

 27 27  0  0  1  0  0  0  0  0999 V2000
   22.1460  -21.1150   -8.5610 N   0  0  0  0  0  0  0  0  0  0  0  0
   23.2235  -20.8788   -7.6811 C   0  0  0  0  0  0  0  0  0  0  0  0
   23.0165  -21.0950   -6.4062 N   0  0  0  0  0  0  0  0  0  0  0  0
   24.4746  -20.4325   -8.1623 N   0  0  0  0  0  0  0  0  0  0  0  0
   24.5463  -20.0494   -9.5875 C   0  0  0  0  0  0  0  0  0  0  0  0
   25.8437  -20.5445  -10.1141 C   0  0  0  0  0  0  0  0  0  0  0  0
   25.8754  -21.0668  -11.5098 C   0  0  0  0  0  0  0  0  0  0  0  0
   25.0775  -20.2388  -12.4670 C   0  0  2  0  0  0  0  0  0  0  0  0
   23.6599  -20.4685  -12.2746 N   0  0  0  0  0  0  0  0  0  0  0  0
   25.4518  -20.4952  -13.8693 C   0  0  0  0  0  0  0  0  0  0  0  0
   24.7139  -21.2635  -14.5754 O   0  0  0  0  0  0  0  0  0  0  0  0
   23.7314  -20.8939   -5.6928 N   0  0  0  0  0  0  0  0  0  0  0  0
   26.5885  -19.9350  -14.4786 C   0  0  0  0  0  0  0  0  0  0  0  0
   27.5696  -19.1024  -13.8102 C   0  0  0  0  0  0  0  0  0  0  0  0
   27.9232  -18.1099  -14.9306 C   0  0  0  0  0  0  0  0  0  0  0  0
   27.9874  -18.9936  -16.1213 C   0  0  2  0  0  0  0  0  0  0  0  0
   26.9712  -20.0746  -15.8719 C   0  0  0  0  0  0  0  0  0  0  0  0
   27.5069  -21.4233  -16.1769 O   0  0  0  0  0  0  0  0  0  0  0  0
   28.2659  -21.9598  -15.3299 N   0  0  0  0  0  0  0  0  0  0  0  0
   25.9635  -25.4224  -15.6809 C   0  0  0  0  0  0  0  0  0  0  0  0
   25.6261  -24.5490  -16.7474 O   0  0  0  0  0  0  0  0  0  0  0  0
   24.5284  -23.9675  -16.7060 C   0  0  0  0  0  0  0  0  0  0  0  0
   26.5622  -24.3615  -17.8451 C   0  0  2  0  0  0  0  0  0  0  0  0
   27.7768  -23.5203  -17.5495 N   0  0  0  0  0  0  0  0  0  0  0  0
   27.2337  -22.1549  -17.3419 C   0  0  0  0  0  0  0  0  0  0  0  0
   28.7723  -23.4826  -18.6354 O   0  0  0  0  0  0  0  0  0  0  0  0
   29.6134  -24.5646  -18.9226 O   0  0  0  0  0  0  0  0  0  0  0  0
  2  1  1  0
  3  2  2  0
  4  2  1  0
  5  4  1  0
  6  5  1  0
  7  6  1  0
  8  7  1  0
  8  9  1  6
 10  8  1  0
 10 12  1  0
 11 10  2  0
 12 13  1  0
 13 14  1  0
 15 14  1  0
 16 12  1  0
 16 15  1  0
 16 17  1  1
 18 17  2  0
 19 20  1  0
 20 21  2  0
 23 22  1  1
 22 20  1  0
 23 24  1  0
 24 17  1  0
 25 23  1  0
 25 26  1  0
 27 25  2  0
M  END
$$$$
