RPN.pdb
     RDKit          3D

 27 27  0  0  1  0  0  0  0  0999 V2000
   25.8621  -20.5601   -7.7937 N   0  0  0  0  0  0  0  0  0  0  0  0
   24.9447  -20.7523   -8.8483 C   0  0  0  0  0  0  0  0  0  0  0  0
   23.7649  -21.2290   -8.5389 N   0  0  0  0  0  0  0  0  0  0  0  0
   25.2885  -20.4362  -10.1817 N   0  0  0  0  0  0  0  0  0  0  0  0
   26.7273  -20.2960  -10.4873 C   0  0  0  0  0  0  0  0  0  0  0  0
   27.1179  -21.4605  -11.3221 C   0  0  0  0  0  0  0  0  0  0  0  0
   27.0154  -21.3220  -12.8027 C   0  0  0  0  0  0  0  0  0  0  0  0
   27.5088  -20.0023  -13.3064 C   0  0  2  0  0  0  0  0  0  0  0  0
   27.4727  -19.0119  -12.2495 N   0  0  0  0  0  0  0  0  0  0  0  0
   26.7431  -19.5321  -14.4747 C   0  0  0  0  0  0  0  0  0  0  0  0
   25.8279  -18.6568  -14.3024 O   0  0  0  0  0  0  0  0  0  0  0  0
   23.0496  -21.4283   -9.2524 N   0  0  0  0  0  0  0  0  0  0  0  0
   26.9669  -19.9992  -15.7820 C   0  0  0  0  0  0  0  0  0  0  0  0
   28.0209  -20.9151  -16.1726 C   0  0  0  0  0  0  0  0  0  0  0  0
   28.3867  -20.3650  -17.5615 C   0  0  0  0  0  0  0  0  0  0  0  0
   27.0537  -20.0516  -18.1339 C   0  0  2  0  0  0  0  0  0  0  0  0
   26.2026  -19.6411  -16.9631 C   0  0  0  0  0  0  0  0  0  0  0  0
   24.8693  -20.2896  -16.9897 O   0  0  0  0  0  0  0  0  0  0  0  0
   24.6820  -21.2799  -16.2378 N   0  0  0  0  0  0  0  0  0  0  0  0
   20.2006  -21.0055  -15.4707 C   0  0  0  0  0  0  0  0  0  0  0  0
   20.8371  -19.7387  -15.5354 O   0  0  0  0  0  0  0  0  0  0  0  0
   20.2160  -18.7469  -15.1170 C   0  0  0  0  0  0  0  0  0  0  0  0
   22.1811  -19.6378  -16.0831 C   0  0  1  0  0  0  0  0  0  0  0  0
   22.3913  -20.2373  -17.4493 N   0  0  0  0  0  0  0  0  0  0  0  0
   23.7918  -19.8849  -17.7912 C   0  0  0  0  0  0  0  0  0  0  0  0
   21.4937  -19.7099  -18.4922 O   0  0  0  0  0  0  0  0  0  0  0  0
   21.3952  -18.3428  -18.7789 O   0  0  0  0  0  0  0  0  0  0  0  0
  2  1  1  0
  3  2  2  0
  4  2  1  0
  5  4  1  0
  6  5  1  0
  7  6  1  0
  8  7  1  0
  8  9  1  1
 10  8  1  0
 10 12  1  0
 11 10  2  0
 12 13  1  0
 13 14  1  0
 15 14  1  0
 16 12  1  0
 16 15  1  0
 16 17  1  6
 18 17  2  0
 19 20  1  0
 20 21  2  0
 23 22  1  1
 22 20  1  0
 23 24  1  0
 24 17  1  0
 25 23  1  0
 25 26  1  0
 27 25  2  0
M  END
$$$$
