RPN.pdb
     RDKit          3D

 27 27  0  0  1  0  0  0  0  0999 V2000
   18.8905  -19.5414  -15.8236 N   0  0  0  0  0  0  0  0  0  0  0  0
   19.9095  -19.7829  -14.8779 C   0  0  0  0  0  0  0  0  0  0  0  0
   19.6493  -20.6358  -13.9189 N   0  0  0  0  0  0  0  0  0  0  0  0
   21.1602  -19.1322  -14.9702 N   0  0  0  0  0  0  0  0  0  0  0  0
   21.2004  -17.8616  -15.7232 C   0  0  0  0  0  0  0  0  0  0  0  0
   21.8791  -18.1345  -17.0157 C   0  0  0  0  0  0  0  0  0  0  0  0
   22.9990  -17.2367  -17.4176 C   0  0  0  0  0  0  0  0  0  0  0  0
   24.1699  -17.9740  -17.9868 C   0  0  2  0  0  0  0  0  0  0  0  0
   23.7365  -18.8866  -19.0255 N   0  0  0  0  0  0  0  0  0  0  0  0
   24.9264  -18.6999  -16.9509 C   0  0  0  0  0  0  0  0  0  0  0  0
   24.6328  -19.9205  -16.7122 O   0  0  0  0  0  0  0  0  0  0  0  0
   20.3564  -20.9103  -13.2224 N   0  0  0  0  0  0  0  0  0  0  0  0
   25.9643  -18.1160  -16.2030 C   0  0  0  0  0  0  0  0  0  0  0  0
   26.4760  -16.7725  -16.3916 C   0  0  0  0  0  0  0  0  0  0  0  0
   27.9722  -16.9867  -16.1070 C   0  0  0  0  0  0  0  0  0  0  0  0
   27.9397  -17.9036  -14.9405 C   0  0  2  0  0  0  0  0  0  0  0  0
   26.7109  -18.7504  -15.1318 C   0  0  0  0  0  0  0  0  0  0  0  0
   25.9171  -18.8692  -13.8850 O   0  0  0  0  0  0  0  0  0  0  0  0
   24.7493  -18.4030  -13.8848 N   0  0  0  0  0  0  0  0  0  0  0  0
   24.3427  -23.7510  -12.4790 C   0  0  0  0  0  0  0  0  0  0  0  0
   24.0849  -22.3725  -12.2611 O   0  0  0  0  0  0  0  0  0  0  0  0
   23.0839  -22.0602  -11.5940 C   0  0  0  0  0  0  0  0  0  0  0  0
   24.9876  -21.3767  -12.8177 C   0  0  2  0  0  0  0  0  0  0  0  0
   25.4771  -20.3149  -11.8673 N   0  0  0  0  0  0  0  0  0  0  0  0
   26.3662  -19.4641  -12.6969 C   0  0  0  0  0  0  0  0  0  0  0  0
   26.2400  -20.8301  -10.7166 O   0  0  0  0  0  0  0  0  0  0  0  0
   27.4821  -21.4605  -10.8591 O   0  0  0  0  0  0  0  0  0  0  0  0
  2  1  1  0
  3  2  2  0
  4  2  1  0
  5  4  1  0
  6  5  1  0
  7  6  1  0
  8  7  1  0
  8  9  1  6
 10  8  1  0
 10 12  1  0
 11 10  2  0
 12 13  1  0
 13 14  1  0
 15 14  1  0
 16 12  1  0
 16 15  1  0
 16 17  1  1
 18 17  2  0
 19 20  1  0
 20 21  2  0
 23 22  1  6
 22 20  1  0
 23 24  1  0
 24 17  1  0
 25 23  1  0
 25 26  1  0
 27 25  2  0
M  END
$$$$
