RPN.pdb
     RDKit          3D

 27 27  0  0  1  0  0  0  0  0999 V2000
   24.4878  -25.3158  -15.1261 N   0  0  0  0  0  0  0  0  0  0  0  0
   25.6164  -24.4895  -15.3110 C   0  0  0  0  0  0  0  0  0  0  0  0
   26.2184  -24.5457  -16.4726 N   0  0  0  0  0  0  0  0  0  0  0  0
   26.0710  -23.6338  -14.2827 N   0  0  0  0  0  0  0  0  0  0  0  0
   25.2371  -23.5466  -13.0661 C   0  0  0  0  0  0  0  0  0  0  0  0
   25.3402  -22.1550  -12.5578 C   0  0  0  0  0  0  0  0  0  0  0  0
   24.5218  -21.1056  -13.2294 C   0  0  0  0  0  0  0  0  0  0  0  0
   25.0858  -20.6712  -14.5454 C   0  0  2  0  0  0  0  0  0  0  0  0
   26.3305  -19.9556  -14.3508 N   0  0  0  0  0  0  0  0  0  0  0  0
   24.1353  -19.8455  -15.3118 C   0  0  0  0  0  0  0  0  0  0  0  0
   23.8284  -18.6860  -14.8708 O   0  0  0  0  0  0  0  0  0  0  0  0
   27.0949  -24.0390  -16.6611 N   0  0  0  0  0  0  0  0  0  0  0  0
   23.5416  -20.2689  -16.5141 C   0  0  0  0  0  0  0  0  0  0  0  0
   23.7933  -21.5383  -17.1683 C   0  0  0  0  0  0  0  0  0  0  0  0
   23.7296  -21.1227  -18.6477 C   0  0  0  0  0  0  0  0  0  0  0  0
   22.5768  -20.1881  -18.6598 C   0  0  2  0  0  0  0  0  0  0  0  0
   22.5939  -19.5148  -17.3145 C   0  0  0  0  0  0  0  0  0  0  0  0
   21.2462  -19.4688  -16.6978 O   0  0  0  0  0  0  0  0  0  0  0  0
   20.8973  -20.4364  -15.9744 N   0  0  0  0  0  0  0  0  0  0  0  0
   16.4441  -19.1819  -15.2185 C   0  0  0  0  0  0  0  0  0  0  0  0
   17.0651  -20.0738  -16.1310 O   0  0  0  0  0  0  0  0  0  0  0  0
   16.4580  -21.1124  -16.4429 C   0  0  0  0  0  0  0  0  0  0  0  0
   18.3780  -19.7518  -16.6686 C   0  0  1  0  0  0  0  0  0  0  0  0
   18.9913  -18.4575  -16.2005 N   0  0  0  0  0  0  0  0  0  0  0  0
   20.3221  -18.4257  -16.8565 C   0  0  0  0  0  0  0  0  0  0  0  0
   19.1713  -18.3598  -14.7412 O   0  0  0  0  0  0  0  0  0  0  0  0
   20.0560  -19.1845  -14.0356 O   0  0  0  0  0  0  0  0  0  0  0  0
  2  1  1  0
  3  2  2  0
  4  2  1  0
  5  4  1  0
  6  5  1  0
  7  6  1  0
  8  7  1  0
  8  9  1  1
 10  8  1  0
 10 12  1  0
 11 10  2  0
 12 13  1  0
 13 14  1  0
 15 14  1  0
 16 12  1  0
 16 15  1  0
 16 17  1  6
 18 17  2  0
 19 20  1  0
 20 21  2  0
 23 22  1  6
 22 20  1  0
 23 24  1  0
 24 17  1  0
 25 23  1  0
 25 26  1  0
 27 25  2  0
M  END
$$$$
