VCA.pdb
     RDKit          3D

 19 18  0  0  1  0  0  0  0  0999 V2000
    7.3781  -12.6938   20.5380 C   0  0  0  0  0  0  0  0  0  0  0  0
    8.5111  -13.6652   20.2592 C   0  0  2  0  0  0  0  0  0  0  0  0
    8.8446  -13.5476   18.7920 C   0  0  0  0  0  0  0  0  0  0  0  0
    8.0208  -15.0415   20.6151 C   0  0  2  0  0  0  0  0  0  0  0  0
    7.0451  -15.4545   19.6279 N   0  0  0  0  0  0  0  0  0  0  0  0
    7.4816  -15.1188   21.9945 C   0  0  0  0  0  0  0  0  0  0  0  0
    6.3383  -14.6667   22.2579 O   0  0  0  0  0  0  0  0  0  0  0  0
    8.2033  -15.6931   23.0764 N   0  0  0  0  0  0  0  0  0  0  0  0
    7.7375  -15.6604   24.4511 C   0  0  1  0  0  0  0  0  0  0  0  0
    7.1469  -17.0375   24.7235 C   0  0  0  0  0  0  0  0  0  0  0  0
    8.4287  -18.3086   24.7935 S   0  0  0  0  0  0  0  0  0  0  0  0
    8.8278  -15.3354   25.3966 C   0  0  0  0  0  0  0  0  0  0  0  0
   10.0037  -15.5713   25.0152 O   0  0  0  0  0  0  0  0  0  0  0  0
    9.2020  -13.4137   28.5341 C   0  0  0  0  0  0  0  0  0  0  0  0
    9.7285  -14.4902   27.5998 C   0  0  2  0  0  0  0  0  0  0  0  0
    8.6479  -14.7879   26.6766 N   0  0  0  0  0  0  0  0  0  0  0  0
   10.0648  -15.6639   28.4460 C   0  0  0  0  0  0  0  0  0  0  0  0
   11.1490  -15.5283   29.3025 O   0  0  0  0  0  0  0  0  0  0  0  0
    9.4234  -16.7315   28.4108 O   0  0  0  0  0  0  0  0  0  0  0  0
  2  3  1  6
  2  1  1  0
  4  5  1  6
  4  2  1  0
  6  4  1  0
  7  6  2  0
  8  6  1  0
  9  8  1  0
  9 12  1  0
  9 10  1  1
 11 10  1  0
 12 16  1  0
 13 12  2  0
 15 14  1  1
 16 15  1  0
 17 18  1  0
 17 15  1  0
 19 17  2  0
M  END
$$$$
