VCA.pdb
     RDKit          3D

 19 18  0  0  1  0  0  0  0  0999 V2000
    8.2323  -15.6339   20.0029 C   0  0  0  0  0  0  0  0  0  0  0  0
    7.0431  -14.7261   20.2608 C   0  0  2  0  0  0  0  0  0  0  0  0
    6.3464  -14.5217   18.9377 C   0  0  0  0  0  0  0  0  0  0  0  0
    7.5758  -13.4359   20.8202 C   0  0  2  0  0  0  0  0  0  0  0  0
    8.4331  -12.8208   19.8283 N   0  0  0  0  0  0  0  0  0  0  0  0
    8.2701  -13.6173   22.1181 C   0  0  0  0  0  0  0  0  0  0  0  0
    9.5227  -13.7178   22.1620 O   0  0  0  0  0  0  0  0  0  0  0  0
    7.5824  -13.6871   23.3604 N   0  0  0  0  0  0  0  0  0  0  0  0
    8.2519  -13.9035   24.6304 C   0  0  1  0  0  0  0  0  0  0  0  0
    7.3012  -13.3771   25.6973 C   0  0  0  0  0  0  0  0  0  0  0  0
    5.6228  -14.0014   25.4586 S   0  0  0  0  0  0  0  0  0  0  0  0
    8.5813  -15.3294   24.8458 C   0  0  0  0  0  0  0  0  0  0  0  0
    7.6999  -16.1724   24.5355 O   0  0  0  0  0  0  0  0  0  0  0  0
   11.5339  -17.4018   25.0914 C   0  0  0  0  0  0  0  0  0  0  0  0
   10.1039  -17.2108   25.5683 C   0  0  2  0  0  0  0  0  0  0  0  0
    9.7946  -15.8065   25.3664 N   0  0  0  0  0  0  0  0  0  0  0  0
   10.0811  -17.5751   27.0083 C   0  0  0  0  0  0  0  0  0  0  0  0
   10.2550  -18.9172   27.3176 O   0  0  0  0  0  0  0  0  0  0  0  0
    9.9158  -16.7387   27.9169 O   0  0  0  0  0  0  0  0  0  0  0  0
  2  3  1  6
  2  1  1  0
  4  5  1  6
  4  2  1  0
  6  4  1  0
  7  6  2  0
  8  6  1  0
  9  8  1  0
  9 12  1  0
  9 10  1  1
 11 10  1  0
 12 16  1  0
 13 12  2  0
 15 14  1  1
 16 15  1  0
 17 18  1  0
 17 15  1  0
 19 17  2  0
M  END
$$$$
