VCA.pdb
     RDKit          3D

 19 18  0  0  1  0  0  0  0  0999 V2000
    3.1803  -20.3404   22.7780 C   0  0  0  0  0  0  0  0  0  0  0  0
    2.6608  -19.1635   21.9717 C   0  0  2  0  0  0  0  0  0  0  0  0
    1.2991  -19.5512   21.4488 C   0  0  0  0  0  0  0  0  0  0  0  0
    3.6400  -18.9148   20.8580 C   0  0  2  0  0  0  0  0  0  0  0  0
    3.7034  -20.0977   20.0250 N   0  0  0  0  0  0  0  0  0  0  0  0
    4.9790  -18.5112   21.3516 C   0  0  0  0  0  0  0  0  0  0  0  0
    5.8624  -19.3771   21.5774 O   0  0  0  0  0  0  0  0  0  0  0  0
    5.3387  -17.1574   21.5941 N   0  0  0  0  0  0  0  0  0  0  0  0
    6.6005  -16.7637   22.1947 C   0  0  1  0  0  0  0  0  0  0  0  0
    6.7115  -15.2597   21.9823 C   0  0  0  0  0  0  0  0  0  0  0  0
    8.1650  -14.5769   22.8100 S   0  0  0  0  0  0  0  0  0  0  0  0
    6.6652  -17.1205   23.6288 C   0  0  0  0  0  0  0  0  0  0  0  0
    5.6951  -16.7688   24.3492 O   0  0  0  0  0  0  0  0  0  0  0  0
    7.0101  -19.4204   25.8419 C   0  0  0  0  0  0  0  0  0  0  0  0
    7.7860  -18.1272   25.6562 C   0  0  2  0  0  0  0  0  0  0  0  0
    7.7205  -17.8165   24.2392 N   0  0  0  0  0  0  0  0  0  0  0  0
    9.1796  -18.3979   26.0937 C   0  0  0  0  0  0  0  0  0  0  0  0
   10.1786  -18.2239   25.1456 O   0  0  0  0  0  0  0  0  0  0  0  0
    9.4686  -18.7647   27.2488 O   0  0  0  0  0  0  0  0  0  0  0  0
  2  3  1  6
  2  1  1  0
  4  5  1  1
  4  2  1  0
  6  4  1  0
  7  6  2  0
  8  6  1  0
  9  8  1  0
  9 12  1  0
  9 10  1  1
 11 10  1  0
 12 16  1  0
 13 12  2  0
 15 14  1  6
 16 15  1  0
 17 18  1  0
 17 15  1  0
 19 17  2  0
M  END
$$$$
