VCA.pdb
     RDKit          3D

 19 18  0  0  1  0  0  0  0  0999 V2000
    5.1234  -18.1417   17.9800 C   0  0  0  0  0  0  0  0  0  0  0  0
    5.9347  -19.3726   17.6171 C   0  0  2  0  0  0  0  0  0  0  0  0
    5.7725  -19.5882   16.1322 C   0  0  0  0  0  0  0  0  0  0  0  0
    5.3864  -20.5233   18.4148 C   0  0  2  0  0  0  0  0  0  0  0  0
    4.0388  -20.7995   17.9620 N   0  0  0  0  0  0  0  0  0  0  0  0
    5.4424  -20.2849   19.8775 C   0  0  0  0  0  0  0  0  0  0  0  0
    6.5420  -20.0618   20.4450 O   0  0  0  0  0  0  0  0  0  0  0  0
    4.2883  -20.2934   20.7077 N   0  0  0  0  0  0  0  0  0  0  0  0
    4.3413  -20.1134   22.1473 C   0  0  1  0  0  0  0  0  0  0  0  0
    2.9066  -19.8551   22.5878 C   0  0  0  0  0  0  0  0  0  0  0  0
    1.9671  -18.9832   21.3146 S   0  0  0  0  0  0  0  0  0  0  0  0
    4.9205  -21.2906   22.8307 C   0  0  0  0  0  0  0  0  0  0  0  0
    4.4541  -22.4176   22.5208 O   0  0  0  0  0  0  0  0  0  0  0  0
    7.9700  -22.4545   24.0539 C   0  0  0  0  0  0  0  0  0  0  0  0
    6.5038  -22.4086   24.4502 C   0  0  2  0  0  0  0  0  0  0  0  0
    5.9433  -21.2425   23.7910 N   0  0  0  0  0  0  0  0  0  0  0  0
    6.4646  -22.2735   25.9290 C   0  0  0  0  0  0  0  0  0  0  0  0
    6.8058  -23.3969   26.6698 O   0  0  0  0  0  0  0  0  0  0  0  0
    6.1448  -21.2161   26.5052 O   0  0  0  0  0  0  0  0  0  0  0  0
  2  3  1  6
  2  1  1  0
  4  5  1  6
  4  2  1  0
  6  4  1  0
  7  6  2  0
  8  6  1  0
  9  8  1  0
  9 12  1  0
  9 10  1  1
 11 10  1  0
 12 16  1  0
 13 12  2  0
 15 14  1  6
 16 15  1  0
 17 18  1  0
 17 15  1  0
 19 17  2  0
M  END
$$$$
