VCA.pdb
     RDKit          3D

 19 18  0  0  1  0  0  0  0  0999 V2000
   14.8297  -14.3565   17.7076 C   0  0  0  0  0  0  0  0  0  0  0  0
   14.0665  -14.3032   19.0190 C   0  0  2  0  0  0  0  0  0  0  0  0
   14.8841  -15.0582   20.0385 C   0  0  0  0  0  0  0  0  0  0  0  0
   12.7273  -14.9459   18.7858 C   0  0  2  0  0  0  0  0  0  0  0  0
   12.0870  -14.2877   17.6660 N   0  0  0  0  0  0  0  0  0  0  0  0
   11.8705  -14.9408   19.9964 C   0  0  0  0  0  0  0  0  0  0  0  0
   11.2924  -13.8862   20.3632 O   0  0  0  0  0  0  0  0  0  0  0  0
   11.6546  -16.0958   20.7966 N   0  0  0  0  0  0  0  0  0  0  0  0
   10.8096  -16.1005   21.9771 C   0  0  1  0  0  0  0  0  0  0  0  0
    9.6416  -17.0212   21.6495 C   0  0  0  0  0  0  0  0  0  0  0  0
   10.2017  -18.6967   21.2716 S   0  0  0  0  0  0  0  0  0  0  0  0
   11.5426  -16.5524   23.1799 C   0  0  0  0  0  0  0  0  0  0  0  0
   10.9057  -16.5662   24.2652 O   0  0  0  0  0  0  0  0  0  0  0  0
   13.1036  -18.8625   24.6097 C   0  0  0  0  0  0  0  0  0  0  0  0
   13.5800  -17.4377   24.3819 C   0  0  2  0  0  0  0  0  0  0  0  0
   12.8848  -16.9633   23.1987 N   0  0  0  0  0  0  0  0  0  0  0  0
   15.0478  -17.5073   24.1637 C   0  0  0  0  0  0  0  0  0  0  0  0
   15.5005  -17.2769   22.8717 O   0  0  0  0  0  0  0  0  0  0  0  0
   15.8580  -17.7582   25.0764 O   0  0  0  0  0  0  0  0  0  0  0  0
  2  3  1  1
  2  1  1  0
  4  5  1  6
  4  2  1  0
  6  4  1  0
  7  6  2  0
  8  6  1  0
  9  8  1  0
  9 12  1  0
  9 10  1  6
 11 10  1  0
 12 16  1  0
 13 12  2  0
 15 14  1  6
 16 15  1  0
 17 18  1  0
 17 15  1  0
 19 17  2  0
M  END
$$$$
