VCA.pdb
     RDKit          3D

 19 18  0  0  1  0  0  0  0  0999 V2000
    9.2516  -27.1049   20.1204 C   0  0  0  0  0  0  0  0  0  0  0  0
    7.9380  -26.4303   20.4731 C   0  0  2  0  0  0  0  0  0  0  0  0
    6.9041  -27.5205   20.6148 C   0  0  0  0  0  0  0  0  0  0  0  0
    7.6051  -25.4827   19.3540 C   0  0  2  0  0  0  0  0  0  0  0  0
    7.3657  -26.2530   18.1514 N   0  0  0  0  0  0  0  0  0  0  0  0
    8.6467  -24.4466   19.1513 C   0  0  0  0  0  0  0  0  0  0  0  0
    9.6822  -24.7058   18.4867 O   0  0  0  0  0  0  0  0  0  0  0  0
    8.5434  -23.1314   19.6809 N   0  0  0  0  0  0  0  0  0  0  0  0
    9.5682  -22.1184   19.5033 C   0  0  1  0  0  0  0  0  0  0  0  0
    8.8245  -20.8088   19.2772 C   0  0  0  0  0  0  0  0  0  0  0  0
    9.9509  -19.4776   18.8050 S   0  0  0  0  0  0  0  0  0  0  0  0
   10.4749  -22.0390   20.6694 C   0  0  0  0  0  0  0  0  0  0  0  0
   11.5062  -21.3288   20.5436 O   0  0  0  0  0  0  0  0  0  0  0  0
   10.4854  -23.2877   24.1852 C   0  0  0  0  0  0  0  0  0  0  0  0
   11.2121  -22.6738   23.0004 C   0  0  2  0  0  0  0  0  0  0  0  0
   10.2706  -22.6923   21.8950 N   0  0  0  0  0  0  0  0  0  0  0  0
   12.3919  -23.5349   22.7294 C   0  0  0  0  0  0  0  0  0  0  0  0
   13.6325  -23.0309   23.0957 O   0  0  0  0  0  0  0  0  0  0  0  0
   12.3035  -24.6595   22.2004 O   0  0  0  0  0  0  0  0  0  0  0  0
  2  3  1  6
  2  1  1  0
  4  5  1  6
  4  2  1  0
  6  4  1  0
  7  6  2  0
  8  6  1  0
  9  8  1  0
  9 12  1  0
  9 10  1  1
 11 10  1  0
 12 16  1  0
 13 12  2  0
 15 14  1  1
 16 15  1  0
 17 18  1  0
 17 15  1  0
 19 17  2  0
M  END
$$$$
