VCA.pdb
     RDKit          3D

 19 18  0  0  1  0  0  0  0  0999 V2000
    5.3784  -18.8866   16.3775 C   0  0  0  0  0  0  0  0  0  0  0  0
    6.8232  -18.5376   16.6871 C   0  0  2  0  0  0  0  0  0  0  0  0
    7.6634  -19.0893   15.5613 C   0  0  0  0  0  0  0  0  0  0  0  0
    7.1658  -19.1722   18.0066 C   0  0  2  0  0  0  0  0  0  0  0  0
    7.0203  -20.6076   17.8811 N   0  0  0  0  0  0  0  0  0  0  0  0
    6.3634  -18.6291   19.1294 C   0  0  0  0  0  0  0  0  0  0  0  0
    6.5572  -17.4575   19.5427 O   0  0  0  0  0  0  0  0  0  0  0  0
    5.3522  -19.3779   19.7911 N   0  0  0  0  0  0  0  0  0  0  0  0
    4.5957  -18.8699   20.9214 C   0  0  1  0  0  0  0  0  0  0  0  0
    3.1736  -19.3815   20.7343 C   0  0  0  0  0  0  0  0  0  0  0  0
    2.1155  -18.9280   22.1267 S   0  0  0  0  0  0  0  0  0  0  0  0
    5.1699  -19.3076   22.2125 C   0  0  0  0  0  0  0  0  0  0  0  0
    4.6253  -18.8674   23.2582 O   0  0  0  0  0  0  0  0  0  0  0  0
    7.1154  -22.0505   23.5351 C   0  0  0  0  0  0  0  0  0  0  0  0
    6.8455  -20.5582   23.6296 C   0  0  2  0  0  0  0  0  0  0  0  0
    6.2680  -20.1704   22.3549 N   0  0  0  0  0  0  0  0  0  0  0  0
    8.1572  -19.9001   23.8595 C   0  0  0  0  0  0  0  0  0  0  0  0
    8.6014  -19.0278   22.8750 O   0  0  0  0  0  0  0  0  0  0  0  0
    8.8480  -20.1014   24.8767 O   0  0  0  0  0  0  0  0  0  0  0  0
  2  3  1  6
  2  1  1  0
  4  5  1  6
  4  2  1  0
  6  4  1  0
  7  6  2  0
  8  6  1  0
  9  8  1  0
  9 12  1  0
  9 10  1  6
 11 10  1  0
 12 16  1  0
 13 12  2  0
 15 14  1  6
 16 15  1  0
 17 18  1  0
 17 15  1  0
 19 17  2  0
M  END
$$$$
