VCA.pdb
     RDKit          3D

 19 18  0  0  1  0  0  0  0  0999 V2000
    7.1040  -13.0940   20.8105 C   0  0  0  0  0  0  0  0  0  0  0  0
    8.5877  -13.1934   20.5043 C   0  0  2  0  0  0  0  0  0  0  0  0
    8.8105  -12.5243   19.1699 C   0  0  0  0  0  0  0  0  0  0  0  0
    8.9417  -14.6543   20.4660 C   0  0  2  0  0  0  0  0  0  0  0  0
    8.2507  -15.2686   19.3514 N   0  0  0  0  0  0  0  0  0  0  0  0
    8.6559  -15.3470   21.7459 C   0  0  0  0  0  0  0  0  0  0  0  0
    7.5264  -15.8582   21.9553 O   0  0  0  0  0  0  0  0  0  0  0  0
    9.6144  -15.4733   22.7882 N   0  0  0  0  0  0  0  0  0  0  0  0
    9.3512  -16.1750   24.0317 C   0  0  1  0  0  0  0  0  0  0  0  0
    9.8574  -17.5961   23.8231 C   0  0  0  0  0  0  0  0  0  0  0  0
    9.8182  -18.5477   25.3584 S   0  0  0  0  0  0  0  0  0  0  0  0
   10.0096  -15.5227   25.1845 C   0  0  0  0  0  0  0  0  0  0  0  0
   11.2335  -15.2542   25.0664 O   0  0  0  0  0  0  0  0  0  0  0  0
    8.9948  -13.6823   28.1913 C   0  0  0  0  0  0  0  0  0  0  0  0
   10.0391  -14.5572   27.5184 C   0  0  2  0  0  0  0  0  0  0  0  0
    9.3745  -15.1843   26.3899 N   0  0  0  0  0  0  0  0  0  0  0  0
   10.4708  -15.5597   28.5260 C   0  0  0  0  0  0  0  0  0  0  0  0
   11.2578  -15.0974   29.5721 O   0  0  0  0  0  0  0  0  0  0  0  0
   10.1574  -16.7639   28.4620 O   0  0  0  0  0  0  0  0  0  0  0  0
  2  3  1  6
  2  1  1  0
  4  5  1  6
  4  2  1  0
  6  4  1  0
  7  6  2  0
  8  6  1  0
  9  8  1  0
  9 12  1  0
  9 10  1  6
 11 10  1  0
 12 16  1  0
 13 12  2  0
 15 14  1  1
 16 15  1  0
 17 18  1  0
 17 15  1  0
 19 17  2  0
M  END
$$$$
