VCA.pdb
     RDKit          3D

 19 18  0  0  1  0  0  0  0  0999 V2000
    3.5926  -26.5335   26.5809 C   0  0  0  0  0  0  0  0  0  0  0  0
    2.6240  -26.0729   27.6555 C   0  0  2  0  0  0  0  0  0  0  0  0
    2.1212  -27.3100   28.3587 C   0  0  0  0  0  0  0  0  0  0  0  0
    1.5134  -25.3266   26.9693 C   0  0  2  0  0  0  0  0  0  0  0  0
    2.0932  -24.2691   26.1675 N   0  0  0  0  0  0  0  0  0  0  0  0
    0.4979  -24.8100   27.9187 C   0  0  0  0  0  0  0  0  0  0  0  0
    0.7624  -23.8336   28.6655 O   0  0  0  0  0  0  0  0  0  0  0  0
   -0.8028  -25.3705   28.0412 N   0  0  0  0  0  0  0  0  0  0  0  0
   -1.7535  -24.9622   29.0596 C   0  0  1  0  0  0  0  0  0  0  0  0
   -2.9896  -24.4859   28.3084 C   0  0  0  0  0  0  0  0  0  0  0  0
   -4.2451  -23.8404   29.4359 S   0  0  0  0  0  0  0  0  0  0  0  0
   -2.0710  -26.0647   29.9933 C   0  0  0  0  0  0  0  0  0  0  0  0
   -2.4538  -27.1507   29.4856 O   0  0  0  0  0  0  0  0  0  0  0  0
   -1.5499  -26.8765   33.5540 C   0  0  0  0  0  0  0  0  0  0  0  0
   -2.3910  -27.0436   32.2996 C   0  0  2  0  0  0  0  0  0  0  0  0
   -1.9772  -25.9885   31.3919 N   0  0  0  0  0  0  0  0  0  0  0  0
   -3.8095  -26.8864   32.7119 C   0  0  0  0  0  0  0  0  0  0  0  0
   -4.3558  -27.9071   33.4782 O   0  0  0  0  0  0  0  0  0  0  0  0
   -4.5007  -25.8977   32.4003 O   0  0  0  0  0  0  0  0  0  0  0  0
  2  3  1  6
  2  1  1  0
  4  5  1  1
  4  2  1  0
  6  4  1  0
  7  6  2  0
  8  6  1  0
  9  8  1  0
  9 12  1  0
  9 10  1  6
 11 10  1  0
 12 16  1  0
 13 12  2  0
 15 14  1  1
 16 15  1  0
 17 18  1  0
 17 15  1  0
 19 17  2  0
M  END
$$$$
