VCA.pdb
     RDKit          3D

 19 18  0  0  1  0  0  0  0  0999 V2000
    8.9036  -17.9047   19.5842 C   0  0  0  0  0  0  0  0  0  0  0  0
    7.5804  -17.1984   19.8193 C   0  0  2  0  0  0  0  0  0  0  0  0
    6.7104  -17.4758   18.6176 C   0  0  0  0  0  0  0  0  0  0  0  0
    7.8749  -15.7318   19.9727 C   0  0  2  0  0  0  0  0  0  0  0  0
    8.4867  -15.2526   18.7507 N   0  0  0  0  0  0  0  0  0  0  0  0
    8.7082  -15.4361   21.1635 C   0  0  0  0  0  0  0  0  0  0  0  0
    9.9422  -15.2278   21.0417 O   0  0  0  0  0  0  0  0  0  0  0  0
    8.1792  -15.3713   22.4814 N   0  0  0  0  0  0  0  0  0  0  0  0
    8.9942  -15.1151   23.6552 C   0  0  1  0  0  0  0  0  0  0  0  0
    8.0787  -14.4201   24.6542 C   0  0  0  0  0  0  0  0  0  0  0  0
    6.5071  -15.2928   24.8345 S   0  0  0  0  0  0  0  0  0  0  0  0
    9.5682  -16.3595   24.2121 C   0  0  0  0  0  0  0  0  0  0  0  0
    8.8108  -17.3629   24.2676 O   0  0  0  0  0  0  0  0  0  0  0  0
   12.9353  -17.6594   24.9933 C   0  0  0  0  0  0  0  0  0  0  0  0
   11.4343  -17.7321   25.2188 C   0  0  2  0  0  0  0  0  0  0  0  0
   10.8845  -16.5013   24.6791 N   0  0  0  0  0  0  0  0  0  0  0  0
   11.2265  -17.8275   26.6866 C   0  0  0  0  0  0  0  0  0  0  0  0
   11.6197  -19.0096   27.2993 O   0  0  0  0  0  0  0  0  0  0  0  0
   10.7260  -16.9078   27.3618 O   0  0  0  0  0  0  0  0  0  0  0  0
  2  3  1  6
  2  1  1  0
  4  5  1  6
  4  2  1  0
  6  4  1  0
  7  6  2  0
  8  6  1  0
  9  8  1  0
  9 12  1  0
  9 10  1  1
 11 10  1  0
 12 16  1  0
 13 12  2  0
 15 14  1  1
 16 15  1  0
 17 18  1  0
 17 15  1  0
 19 17  2  0
M  END
$$$$
