VCA.pdb
     RDKit          3D

 19 18  0  0  1  0  0  0  0  0999 V2000
    7.9736  -19.7244   19.7804 C   0  0  0  0  0  0  0  0  0  0  0  0
    6.8096  -18.7747   19.5607 C   0  0  2  0  0  0  0  0  0  0  0  0
    5.7965  -19.5042   18.7126 C   0  0  0  0  0  0  0  0  0  0  0  0
    7.3497  -17.5553   18.8660 C   0  0  2  0  0  0  0  0  0  0  0  0
    7.9090  -17.9582   17.5925 N   0  0  0  0  0  0  0  0  0  0  0  0
    8.3311  -16.8120   19.6930 C   0  0  0  0  0  0  0  0  0  0  0  0
    9.5653  -16.9874   19.5285 O   0  0  0  0  0  0  0  0  0  0  0  0
    7.9492  -15.8800   20.6963 N   0  0  0  0  0  0  0  0  0  0  0  0
    8.9040  -15.1610   21.5205 C   0  0  1  0  0  0  0  0  0  0  0  0
    8.1254  -14.0187   22.1593 C   0  0  0  0  0  0  0  0  0  0  0  0
    6.8269  -14.6309   23.2561 S   0  0  0  0  0  0  0  0  0  0  0  0
    9.5256  -16.0365   22.5379 C   0  0  0  0  0  0  0  0  0  0  0  0
    8.7493  -16.7250   23.2500 O   0  0  0  0  0  0  0  0  0  0  0  0
   11.6861  -18.3682   23.1321 C   0  0  0  0  0  0  0  0  0  0  0  0
   11.4997  -17.0063   23.7797 C   0  0  2  0  0  0  0  0  0  0  0  0
   10.9059  -16.1542   22.7650 N   0  0  0  0  0  0  0  0  0  0  0  0
   12.8513  -16.5308   24.1719 C   0  0  0  0  0  0  0  0  0  0  0  0
   13.3906  -15.4918   23.4257 O   0  0  0  0  0  0  0  0  0  0  0  0
   13.4941  -17.0210   25.1201 O   0  0  0  0  0  0  0  0  0  0  0  0
  2  3  1  6
  2  1  1  0
  4  5  1  6
  4  2  1  0
  6  4  1  0
  7  6  2  0
  8  6  1  0
  9  8  1  0
  9 12  1  0
  9 10  1  1
 11 10  1  0
 12 16  1  0
 13 12  2  0
 15 14  1  6
 16 15  1  0
 17 18  1  0
 17 15  1  0
 19 17  2  0
M  END
$$$$
