YRV.pdb
     RDKit          3D

 31 31  0  0  1  0  0  0  0  0999 V2000
   14.7160  -29.9643  -12.4424 O   0  0  0  0  0  0  0  0  0  0  0  0
   15.2420  -28.8389  -13.0623 C   0  0  0  0  0  0  0  0  0  0  0  0
   16.6271  -28.7375  -13.1513 C   0  0  0  0  0  0  0  0  0  0  0  0
   17.1652  -27.6236  -13.7651 C   0  0  0  0  0  0  0  0  0  0  0  0
   16.3908  -26.6170  -14.2887 C   0  0  0  0  0  0  0  0  0  0  0  0
   16.9839  -25.4321  -14.9386 C   0  0  0  0  0  0  0  0  0  0  0  0
   17.8210  -24.7026  -13.8847 C   0  0  2  0  0  0  0  0  0  0  0  0
   16.8995  -24.2032  -12.8943 N   0  0  0  0  0  0  0  0  0  0  0  0
   18.6631  -23.6739  -14.5062 C   0  0  0  0  0  0  0  0  0  0  0  0
   18.0935  -22.6283  -14.9349 O   0  0  0  0  0  0  0  0  0  0  0  0
   15.0178  -26.7517  -14.1824 C   0  0  0  0  0  0  0  0  0  0  0  0
   14.4480  -27.8517  -13.5749 C   0  0  0  0  0  0  0  0  0  0  0  0
   25.7099  -25.4527  -15.6368 N   0  0  0  0  0  0  0  0  0  0  0  0
   26.0791  -24.2955  -16.3852 C   0  0  0  0  0  0  0  0  0  0  0  0
   26.7010  -24.4195  -17.4927 N   0  0  0  0  0  0  0  0  0  0  0  0
   25.7445  -23.0229  -15.8803 N   0  0  0  0  0  0  0  0  0  0  0  0
   24.6329  -22.8513  -14.9974 C   0  0  0  0  0  0  0  0  0  0  0  0
   23.2899  -23.0005  -15.6789 C   0  0  0  0  0  0  0  0  0  0  0  0
   22.1915  -22.6921  -14.6981 C   0  0  0  0  0  0  0  0  0  0  0  0
   20.8204  -22.7459  -15.3192 C   0  0  2  0  0  0  0  0  0  0  0  0
   20.0504  -23.7805  -14.6515 N   0  0  0  0  0  0  0  0  0  0  0  0
   20.8339  -23.0213  -16.7526 C   0  0  0  0  0  0  0  0  0  0  0  0
   21.2936  -24.1038  -17.1954 O   0  0  0  0  0  0  0  0  0  0  0  0
   26.9749  -23.5843  -18.0417 C   0  0  0  0  0  0  0  0  0  0  0  0
   18.2931  -20.9864  -19.3329 C   0  0  1  0  0  0  0  0  0  0  0  0
   18.9236  -22.3100  -19.7324 C   0  0  0  0  0  0  0  0  0  0  0  0
   18.0662  -23.4102  -19.1428 C   0  0  1  0  0  0  0  0  0  0  0  0
   20.3131  -22.4507  -19.1526 N   0  0  0  0  0  0  0  0  0  0  0  0
   20.3385  -22.1065  -17.7399 C   0  0  0  0  0  0  0  0  0  0  0  0
   21.2464  -21.6097  -19.9068 O   0  0  0  0  0  0  0  0  0  0  0  0
   21.7439  -22.0627  -21.1400 O   0  0  0  0  0  0  0  0  0  0  0  0
  2 12  2  0
  2  1  1  0
  3  2  1  0
  4  5  1  0
  4  3  2  0
  5 11  2  0
  6  7  1  0
  6  5  1  0
  7  8  1  1
  9  7  1  0
  9 21  1  0
 10  9  2  0
 11 12  1  0
 14 13  1  0
 14 16  1  0
 15 14  2  0
 17 16  1  0
 18 19  1  0
 18 17  1  0
 20 19  1  1
 20 21  1  0
 22 23  2  0
 22 20  1  0
 25 24  1  6
 26 25  1  0
 27 28  1  1
 27 25  1  0
 28 22  1  0
 29 27  1  0
 30 29  1  0
 31 29  2  0
M  END
$$$$
