YRV.pdb
     RDKit          3D

 31 31  0  0  1  0  0  0  0  0999 V2000
   29.3890  -11.8073  -17.7490 O   0  0  0  0  0  0  0  0  0  0  0  0
   28.2745  -12.6349  -17.7644 C   0  0  0  0  0  0  0  0  0  0  0  0
   27.4685  -12.6132  -18.8988 C   0  0  0  0  0  0  0  0  0  0  0  0
   26.3562  -13.4310  -18.9289 C   0  0  0  0  0  0  0  0  0  0  0  0
   26.0159  -14.2609  -17.8883 C   0  0  0  0  0  0  0  0  0  0  0  0
   24.8210  -15.1259  -17.9371 C   0  0  0  0  0  0  0  0  0  0  0  0
   25.3051  -16.5650  -18.1333 C   0  0  2  0  0  0  0  0  0  0  0  0
   25.9975  -16.6021  -19.3977 N   0  0  0  0  0  0  0  0  0  0  0  0
   24.1893  -17.5117  -18.0223 C   0  0  0  0  0  0  0  0  0  0  0  0
   23.4593  -17.6817  -19.0420 O   0  0  0  0  0  0  0  0  0  0  0  0
   26.8402  -14.2564  -16.7770 C   0  0  0  0  0  0  0  0  0  0  0  0
   27.9589  -13.4512  -16.7147 C   0  0  0  0  0  0  0  0  0  0  0  0
   27.3054  -22.3296  -18.3749 N   0  0  0  0  0  0  0  0  0  0  0  0
   27.6001  -22.3922  -16.9804 C   0  0  0  0  0  0  0  0  0  0  0  0
   28.8036  -22.5484  -16.5856 N   0  0  0  0  0  0  0  0  0  0  0  0
   26.5429  -22.2778  -16.0554 N   0  0  0  0  0  0  0  0  0  0  0  0
   25.1966  -22.0867  -16.4978 C   0  0  0  0  0  0  0  0  0  0  0  0
   24.6926  -20.6723  -16.3097 C   0  0  0  0  0  0  0  0  0  0  0  0
   23.2935  -20.5609  -16.8519 C   0  0  0  0  0  0  0  0  0  0  0  0
   22.7631  -19.1516  -16.8171 C   0  0  2  0  0  0  0  0  0  0  0  0
   23.8871  -18.2331  -16.8625 N   0  0  0  0  0  0  0  0  0  0  0  0
   21.9602  -18.8538  -15.6350 C   0  0  0  0  0  0  0  0  0  0  0  0
   22.5079  -18.5775  -14.5382 O   0  0  0  0  0  0  0  0  0  0  0  0
   29.0399  -22.5001  -15.5778 C   0  0  0  0  0  0  0  0  0  0  0  0
   17.8023  -17.8710  -15.8736 C   0  0  1  0  0  0  0  0  0  0  0  0
   18.7380  -17.4139  -14.7671 C   0  0  0  0  0  0  0  0  0  0  0  0
   19.4765  -16.1955  -15.2804 C   0  0  1  0  0  0  0  0  0  0  0  0
   19.7679  -18.4745  -14.4491 N   0  0  0  0  0  0  0  0  0  0  0  0
   20.5260  -18.8526  -15.6311 C   0  0  0  0  0  0  0  0  0  0  0  0
   19.1040  -19.6427  -13.8647 O   0  0  0  0  0  0  0  0  0  0  0  0
   18.4600  -19.5227  -12.6221 O   0  0  0  0  0  0  0  0  0  0  0  0
  2 12  2  0
  2  1  1  0
  3  2  1  0
  4  5  1  0
  4  3  2  0
  5 11  2  0
  6  7  1  0
  6  5  1  0
  7  8  1  6
  9  7  1  0
  9 21  1  0
 10  9  2  0
 11 12  1  0
 14 13  1  0
 14 16  1  0
 15 14  2  0
 17 16  1  0
 18 19  1  0
 18 17  1  0
 20 19  1  1
 20 21  1  0
 22 23  2  0
 22 20  1  0
 25 24  1  1
 26 25  1  0
 27 28  1  6
 27 25  1  0
 28 22  1  0
 29 27  1  0
 30 29  1  0
 31 29  2  0
M  END
$$$$
