YRV.pdb
     RDKit          3D

 31 31  0  0  1  0  0  0  0  0999 V2000
   18.6677  -28.1553    0.5505 O   0  0  0  0  0  0  0  0  0  0  0  0
   18.1241  -27.8441   -0.6884 C   0  0  0  0  0  0  0  0  0  0  0  0
   19.0032  -27.5214   -1.7178 C   0  0  0  0  0  0  0  0  0  0  0  0
   18.4773  -27.2094   -2.9560 C   0  0  0  0  0  0  0  0  0  0  0  0
   17.1272  -27.2054   -3.2101 C   0  0  0  0  0  0  0  0  0  0  0  0
   16.5830  -26.8662   -4.5394 C   0  0  0  0  0  0  0  0  0  0  0  0
   16.9129  -25.3955   -4.8077 C   0  0  2  0  0  0  0  0  0  0  0  0
   16.0378  -24.6135   -3.9698 N   0  0  0  0  0  0  0  0  0  0  0  0
   16.8166  -25.0910   -6.2401 C   0  0  0  0  0  0  0  0  0  0  0  0
   15.6855  -24.7498   -6.6936 O   0  0  0  0  0  0  0  0  0  0  0  0
   16.2833  -27.5315   -2.1632 C   0  0  0  0  0  0  0  0  0  0  0  0
   16.7761  -27.8477   -0.9139 C   0  0  0  0  0  0  0  0  0  0  0  0
   20.8294  -23.0873  -12.6788 N   0  0  0  0  0  0  0  0  0  0  0  0
   19.5205  -22.7076  -13.1008 C   0  0  0  0  0  0  0  0  0  0  0  0
   19.2612  -22.5727  -14.3431 N   0  0  0  0  0  0  0  0  0  0  0  0
   18.5278  -22.4873  -12.1250 N   0  0  0  0  0  0  0  0  0  0  0  0
   18.7334  -22.8798  -10.7655 C   0  0  0  0  0  0  0  0  0  0  0  0
   19.0825  -24.3435  -10.6041 C   0  0  0  0  0  0  0  0  0  0  0  0
   19.1223  -24.6925   -9.1412 C   0  0  0  0  0  0  0  0  0  0  0  0
   17.7526  -24.7589   -8.5181 C   0  0  2  0  0  0  0  0  0  0  0  0
   17.8955  -25.1551   -7.1283 N   0  0  0  0  0  0  0  0  0  0  0  0
   16.8483  -25.6925   -9.1825 C   0  0  0  0  0  0  0  0  0  0  0  0
   17.0192  -26.9336   -9.0844 O   0  0  0  0  0  0  0  0  0  0  0  0
   18.3215  -22.2689  -14.6571 C   0  0  0  0  0  0  0  0  0  0  0  0
   13.0858  -24.5707  -10.8506 C   0  0  1  0  0  0  0  0  0  0  0  0
   13.4651  -26.0158  -10.5735 C   0  0  0  0  0  0  0  0  0  0  0  0
   13.1296  -26.2964   -9.1237 C   0  0  1  0  0  0  0  0  0  0  0  0
   14.9507  -26.2348  -10.7514 N   0  0  0  0  0  0  0  0  0  0  0  0
   15.7268  -25.2804   -9.9757 C   0  0  0  0  0  0  0  0  0  0  0  0
   15.2925  -26.1454  -12.1734 O   0  0  0  0  0  0  0  0  0  0  0  0
   14.8138  -27.1219  -13.0626 O   0  0  0  0  0  0  0  0  0  0  0  0
  2 12  2  0
  2  1  1  0
  3  2  1  0
  4  5  1  0
  4  3  2  0
  5 11  2  0
  6  7  1  0
  6  5  1  0
  7  8  1  1
  9  7  1  0
  9 21  1  0
 10  9  2  0
 11 12  1  0
 14 13  1  0
 14 16  1  0
 15 14  2  0
 17 16  1  0
 18 19  1  0
 18 17  1  0
 20 19  1  6
 20 21  1  0
 22 23  2  0
 22 20  1  0
 25 24  1  6
 26 25  1  0
 27 28  1  1
 27 25  1  0
 28 22  1  0
 29 27  1  0
 30 29  1  0
 31 29  2  0
M  END
$$$$
