YRV.pdb
     RDKit          3D

 31 31  0  0  1  0  0  0  0  0999 V2000
   30.0486  -19.6305   -2.9357 O   0  0  0  0  0  0  0  0  0  0  0  0
   29.1604  -19.7313   -3.9978 C   0  0  0  0  0  0  0  0  0  0  0  0
   28.9323  -20.9958   -4.5324 C   0  0  0  0  0  0  0  0  0  0  0  0
   28.0513  -21.1120   -5.5894 C   0  0  0  0  0  0  0  0  0  0  0  0
   27.3944  -20.0338   -6.1310 C   0  0  0  0  0  0  0  0  0  0  0  0
   26.4584  -20.1768   -7.2631 C   0  0  0  0  0  0  0  0  0  0  0  0
   27.2962  -20.4014   -8.5246 C   0  0  2  0  0  0  0  0  0  0  0  0
   28.4788  -19.5875   -8.3888 N   0  0  0  0  0  0  0  0  0  0  0  0
   26.5066  -20.1312   -9.7317 C   0  0  0  0  0  0  0  0  0  0  0  0
   25.9541  -18.9970   -9.8307 O   0  0  0  0  0  0  0  0  0  0  0  0
   27.6454  -18.7923   -5.5741 C   0  0  0  0  0  0  0  0  0  0  0  0
   28.5201  -18.6415   -4.5177 C   0  0  0  0  0  0  0  0  0  0  0  0
   26.9580  -22.9517  -17.3209 N   0  0  0  0  0  0  0  0  0  0  0  0
   27.8904  -23.0763  -16.2483 C   0  0  0  0  0  0  0  0  0  0  0  0
   28.6120  -24.1238  -16.1443 N   0  0  0  0  0  0  0  0  0  0  0  0
   27.9975  -22.0266  -15.3140 N   0  0  0  0  0  0  0  0  0  0  0  0
   27.3223  -20.7838  -15.5241 C   0  0  0  0  0  0  0  0  0  0  0  0
   26.2554  -20.4923  -14.4912 C   0  0  0  0  0  0  0  0  0  0  0  0
   26.7136  -20.9802  -13.1437 C   0  0  0  0  0  0  0  0  0  0  0  0
   25.7443  -20.6469  -12.0402 C   0  0  2  0  0  0  0  0  0  0  0  0
   26.3300  -21.0482  -10.7732 N   0  0  0  0  0  0  0  0  0  0  0  0
   24.4441  -21.2948  -12.1831 C   0  0  0  0  0  0  0  0  0  0  0  0
   24.2905  -22.5037  -11.8762 O   0  0  0  0  0  0  0  0  0  0  0  0
   28.5855  -24.8587  -16.8744 C   0  0  0  0  0  0  0  0  0  0  0  0
   20.8531  -19.1098  -13.2497 C   0  0  1  0  0  0  0  0  0  0  0  0
   20.8680  -20.3078  -12.3151 C   0  0  0  0  0  0  0  0  0  0  0  0
   21.1568  -19.7859  -10.9231 C   0  0  1  0  0  0  0  0  0  0  0  0
   21.9726  -21.2733  -12.6814 N   0  0  0  0  0  0  0  0  0  0  0  0
   23.2738  -20.6238  -12.6700 C   0  0  0  0  0  0  0  0  0  0  0  0
   21.6972  -21.8569  -13.9970 O   0  0  0  0  0  0  0  0  0  0  0  0
   20.6028  -22.7234  -14.1538 O   0  0  0  0  0  0  0  0  0  0  0  0
  2 12  2  0
  2  1  1  0
  3  2  1  0
  4  5  1  0
  4  3  2  0
  5 11  2  0
  6  7  1  0
  6  5  1  0
  7  8  1  1
  9  7  1  0
  9 21  1  0
 10  9  2  0
 11 12  1  0
 14 13  1  0
 14 16  1  0
 15 14  2  0
 17 16  1  0
 18 19  1  0
 18 17  1  0
 20 19  1  6
 20 21  1  0
 22 23  2  0
 22 20  1  0
 25 24  1  1
 26 25  1  0
 27 28  1  1
 27 25  1  0
 28 22  1  0
 29 27  1  0
 30 29  1  0
 31 29  2  0
M  END
$$$$
