YRV.pdb
     RDKit          3D

 31 31  0  0  1  0  0  0  0  0999 V2000
   28.8153  -13.3363  -18.7887 O   0  0  0  0  0  0  0  0  0  0  0  0
   27.9785  -14.3049  -18.2513 C   0  0  0  0  0  0  0  0  0  0  0  0
   27.2528  -15.0962  -19.1367 C   0  0  0  0  0  0  0  0  0  0  0  0
   26.4160  -16.0640  -18.6170 C   0  0  0  0  0  0  0  0  0  0  0  0
   26.2726  -16.2752  -17.2671 C   0  0  0  0  0  0  0  0  0  0  0  0
   25.3707  -17.3126  -16.7297 C   0  0  0  0  0  0  0  0  0  0  0  0
   26.2432  -18.4805  -16.2623 C   0  0  2  0  0  0  0  0  0  0  0  0
   26.7669  -19.1097  -17.4494 N   0  0  0  0  0  0  0  0  0  0  0  0
   25.4871  -19.3778  -15.3809 C   0  0  0  0  0  0  0  0  0  0  0  0
   24.6799  -20.1892  -15.9209 O   0  0  0  0  0  0  0  0  0  0  0  0
   27.0096  -15.4701  -16.4168 C   0  0  0  0  0  0  0  0  0  0  0  0
   27.8546  -14.4938  -16.9034 C   0  0  0  0  0  0  0  0  0  0  0  0
   22.3645  -20.0016   -8.7355 N   0  0  0  0  0  0  0  0  0  0  0  0
   22.8879  -21.1737   -8.1130 C   0  0  0  0  0  0  0  0  0  0  0  0
   22.1688  -21.8425   -7.2979 N   0  0  0  0  0  0  0  0  0  0  0  0
   24.2047  -21.5748   -8.4153 N   0  0  0  0  0  0  0  0  0  0  0  0
   24.9764  -20.8823   -9.4000 C   0  0  0  0  0  0  0  0  0  0  0  0
   24.3759  -20.9368  -10.7880 C   0  0  0  0  0  0  0  0  0  0  0  0
   25.2569  -20.1833  -11.7469 C   0  0  0  0  0  0  0  0  0  0  0  0
   24.7481  -20.2233  -13.1639 C   0  0  2  0  0  0  0  0  0  0  0  0
   25.6057  -19.3891  -13.9871 N   0  0  0  0  0  0  0  0  0  0  0  0
   23.3694  -19.7660  -13.3075 C   0  0  0  0  0  0  0  0  0  0  0  0
   23.0462  -18.5909  -13.0009 O   0  0  0  0  0  0  0  0  0  0  0  0
   22.5533  -22.6738   -6.8130 C   0  0  0  0  0  0  0  0  0  0  0  0
   20.4292  -21.6815  -15.7340 C   0  0  1  0  0  0  0  0  0  0  0  0
   20.3504  -20.2490  -15.2334 C   0  0  0  0  0  0  0  0  0  0  0  0
   21.1949  -19.4029  -16.1630 C   0  0  1  0  0  0  0  0  0  0  0  0
   20.9317  -20.1229  -13.8431 N   0  0  0  0  0  0  0  0  0  0  0  0
   22.3061  -20.5958  -13.7953 C   0  0  0  0  0  0  0  0  0  0  0  0
   20.0965  -20.8633  -12.8937 O   0  0  0  0  0  0  0  0  0  0  0  0
   18.7941  -20.4132  -12.6209 O   0  0  0  0  0  0  0  0  0  0  0  0
  2 12  2  0
  2  1  1  0
  3  2  1  0
  4  5  1  0
  4  3  2  0
  5 11  2  0
  6  7  1  0
  6  5  1  0
  7  8  1  6
  9  7  1  0
  9 21  1  0
 10  9  2  0
 11 12  1  0
 14 13  1  0
 14 16  1  0
 15 14  2  0
 17 16  1  0
 18 19  1  0
 18 17  1  0
 20 19  1  1
 20 21  1  0
 22 23  2  0
 22 20  1  0
 25 24  1  6
 26 25  1  0
 27 28  1  6
 27 25  1  0
 28 22  1  0
 29 27  1  0
 30 29  1  0
 31 29  2  0
M  END
$$$$
