YRV.pdb
     RDKit          3D

 31 31  0  0  1  0  0  0  0  0999 V2000
   23.2541  -21.6616   -6.7932 O   0  0  0  0  0  0  0  0  0  0  0  0
   23.8070  -21.3087   -8.0168 C   0  0  0  0  0  0  0  0  0  0  0  0
   22.9474  -21.1899   -9.1048 C   0  0  0  0  0  0  0  0  0  0  0  0
   23.4828  -20.8396  -10.3286 C   0  0  0  0  0  0  0  0  0  0  0  0
   24.8237  -20.6049  -10.5131 C   0  0  0  0  0  0  0  0  0  0  0  0
   25.3785  -20.2344  -11.8296 C   0  0  0  0  0  0  0  0  0  0  0  0
   24.7011  -21.1209  -12.8779 C   0  0  2  0  0  0  0  0  0  0  0  0
   25.4862  -22.3268  -12.9728 N   0  0  0  0  0  0  0  0  0  0  0  0
   24.5377  -20.3997  -14.1456 C   0  0  0  0  0  0  0  0  0  0  0  0
   25.4930  -20.4441  -14.9743 O   0  0  0  0  0  0  0  0  0  0  0  0
   25.6482  -20.7321   -9.4092 C   0  0  0  0  0  0  0  0  0  0  0  0
   25.1455  -21.0808   -8.1725 C   0  0  0  0  0  0  0  0  0  0  0  0
   21.3837  -20.4465  -19.8493 N   0  0  0  0  0  0  0  0  0  0  0  0
   20.5268  -19.4025  -20.3089 C   0  0  0  0  0  0  0  0  0  0  0  0
   20.3708  -19.2049  -21.5600 N   0  0  0  0  0  0  0  0  0  0  0  0
   19.8610  -18.6010  -19.3599 N   0  0  0  0  0  0  0  0  0  0  0  0
   20.1099  -18.7583  -17.9606 C   0  0  0  0  0  0  0  0  0  0  0  0
   21.5588  -18.5501  -17.5763 C   0  0  0  0  0  0  0  0  0  0  0  0
   21.8149  -19.1669  -16.2282 C   0  0  0  0  0  0  0  0  0  0  0  0
   23.2551  -19.0607  -15.8003 C   0  0  2  0  0  0  0  0  0  0  0  0
   23.3944  -19.6707  -14.4897 N   0  0  0  0  0  0  0  0  0  0  0  0
   23.7504  -17.6891  -15.7354 C   0  0  0  0  0  0  0  0  0  0  0  0
   23.2095  -16.8450  -14.9777 O   0  0  0  0  0  0  0  0  0  0  0  0
   19.7625  -18.4391  -21.9025 C   0  0  0  0  0  0  0  0  0  0  0  0
   27.5940  -16.4321  -17.2378 C   0  0  1  0  0  0  0  0  0  0  0  0
   26.7916  -15.7430  -16.1467 C   0  0  0  0  0  0  0  0  0  0  0  0
   27.0627  -16.4857  -14.8551 C   0  0  1  0  0  0  0  0  0  0  0  0
   25.3074  -15.8289  -16.4225 N   0  0  0  0  0  0  0  0  0  0  0  0
   24.8601  -17.2101  -16.5074 C   0  0  0  0  0  0  0  0  0  0  0  0
   24.9961  -15.1074  -17.6593 O   0  0  0  0  0  0  0  0  0  0  0  0
   24.5837  -15.8257  -18.7939 O   0  0  0  0  0  0  0  0  0  0  0  0
  2 12  2  0
  2  1  1  0
  3  2  1  0
  4  5  1  0
  4  3  2  0
  5 11  2  0
  6  7  1  0
  6  5  1  0
  7  8  1  6
  9  7  1  0
  9 21  1  0
 10  9  2  0
 11 12  1  0
 14 13  1  0
 14 16  1  0
 15 14  2  0
 17 16  1  0
 18 19  1  0
 18 17  1  0
 20 19  1  1
 20 21  1  0
 22 23  2  0
 22 20  1  0
 25 24  1  1
 26 25  1  0
 27 28  1  1
 27 25  1  0
 28 22  1  0
 29 27  1  0
 30 29  1  0
 31 29  2  0
M  END
$$$$
