YRV.pdb
     RDKit          3D

 31 31  0  0  1  0  0  0  0  0999 V2000
   21.2097  -28.1758  -13.6079 O   0  0  0  0  0  0  0  0  0  0  0  0
   20.5272  -27.8354  -12.4480 C   0  0  0  0  0  0  0  0  0  0  0  0
   21.2821  -27.5154  -11.3236 C   0  0  0  0  0  0  0  0  0  0  0  0
   20.6172  -27.1748  -10.1622 C   0  0  0  0  0  0  0  0  0  0  0  0
   19.2467  -27.1394  -10.0738 C   0  0  0  0  0  0  0  0  0  0  0  0
   18.5533  -26.7759   -8.8227 C   0  0  0  0  0  0  0  0  0  0  0  0
   18.5475  -25.2478   -8.7296 C   0  0  2  0  0  0  0  0  0  0  0  0
   18.0331  -24.9126   -7.4248 N   0  0  0  0  0  0  0  0  0  0  0  0
   17.8016  -24.6587   -9.8478 C   0  0  0  0  0  0  0  0  0  0  0  0
   16.5401  -24.6171   -9.7556 O   0  0  0  0  0  0  0  0  0  0  0  0
   18.5288  -27.4631  -11.2114 C   0  0  0  0  0  0  0  0  0  0  0  0
   19.1621  -27.8081  -12.3877 C   0  0  0  0  0  0  0  0  0  0  0  0
   20.4973  -18.6529  -15.1836 N   0  0  0  0  0  0  0  0  0  0  0  0
   20.3366  -18.9462  -13.7967 C   0  0  0  0  0  0  0  0  0  0  0  0
   21.0122  -18.3062  -12.9233 N   0  0  0  0  0  0  0  0  0  0  0  0
   19.4228  -19.9488  -13.4143 N   0  0  0  0  0  0  0  0  0  0  0  0
   18.6644  -20.6642  -14.3929 C   0  0  0  0  0  0  0  0  0  0  0  0
   17.7500  -21.7147  -13.8009 C   0  0  0  0  0  0  0  0  0  0  0  0
   18.4601  -22.4259  -12.6813 C   0  0  0  0  0  0  0  0  0  0  0  0
   17.6118  -23.4872  -12.0313 C   0  0  2  0  0  0  0  0  0  0  0  0
   18.3995  -24.1433  -11.0027 N   0  0  0  0  0  0  0  0  0  0  0  0
   17.1181  -24.4979  -12.9615 C   0  0  0  0  0  0  0  0  0  0  0  0
   17.9081  -25.3040  -13.5142 O   0  0  0  0  0  0  0  0  0  0  0  0
   20.9345  -18.5427  -11.9174 C   0  0  0  0  0  0  0  0  0  0  0  0
   12.9566  -25.5138  -13.3171 C   0  0  1  0  0  0  0  0  0  0  0  0
   14.1073  -26.4508  -13.6440 C   0  0  0  0  0  0  0  0  0  0  0  0
   14.5540  -27.0821  -12.3420 C   0  0  1  0  0  0  0  0  0  0  0  0
   15.2848  -25.6925  -14.2140 N   0  0  0  0  0  0  0  0  0  0  0  0
   15.7345  -24.6473  -13.3083 C   0  0  0  0  0  0  0  0  0  0  0  0
   14.9201  -25.1273  -15.5158 O   0  0  0  0  0  0  0  0  0  0  0  0
   14.6770  -25.9874  -16.5995 O   0  0  0  0  0  0  0  0  0  0  0  0
  2 12  2  0
  2  1  1  0
  3  2  1  0
  4  5  1  0
  4  3  2  0
  5 11  2  0
  6  7  1  0
  6  5  1  0
  7  8  1  1
  9  7  1  0
  9 21  1  0
 10  9  2  0
 11 12  1  0
 14 13  1  0
 14 16  1  0
 15 14  2  0
 17 16  1  0
 18 19  1  0
 18 17  1  0
 20 19  1  6
 20 21  1  0
 22 23  2  0
 22 20  1  0
 25 24  1  6
 26 25  1  0
 27 28  1  1
 27 25  1  0
 28 22  1  0
 29 27  1  0
 30 29  1  0
 31 29  2  0
M  END
$$$$
