YRV.pdb
     RDKit          3D

 31 31  0  0  1  0  0  0  0  0999 V2000
   22.0615  -10.3790  -22.4510 O   0  0  0  0  0  0  0  0  0  0  0  0
   21.9327  -11.6236  -21.8496 C   0  0  0  0  0  0  0  0  0  0  0  0
   22.5862  -11.8271  -20.6379 C   0  0  0  0  0  0  0  0  0  0  0  0
   22.4675  -13.0601  -20.0275 C   0  0  0  0  0  0  0  0  0  0  0  0
   21.7332  -14.0884  -20.5667 C   0  0  0  0  0  0  0  0  0  0  0  0
   21.6202  -15.4009  -19.9013 C   0  0  0  0  0  0  0  0  0  0  0  0
   22.9026  -16.1801  -20.2047 C   0  0  2  0  0  0  0  0  0  0  0  0
   22.8830  -16.4802  -21.6150 N   0  0  0  0  0  0  0  0  0  0  0  0
   23.0186  -17.3555  -19.3337 C   0  0  0  0  0  0  0  0  0  0  0  0
   22.3264  -18.3739  -19.6258 O   0  0  0  0  0  0  0  0  0  0  0  0
   21.0970  -13.8500  -21.7721 C   0  0  0  0  0  0  0  0  0  0  0  0
   21.1954  -12.6296  -22.4083 C   0  0  0  0  0  0  0  0  0  0  0  0
   28.4402  -22.3943  -15.6844 N   0  0  0  0  0  0  0  0  0  0  0  0
   28.6433  -21.4022  -16.6894 C   0  0  0  0  0  0  0  0  0  0  0  0
   29.4171  -21.6383  -17.6765 N   0  0  0  0  0  0  0  0  0  0  0  0
   27.9764  -20.1663  -16.5706 N   0  0  0  0  0  0  0  0  0  0  0  0
   27.0238  -19.9423  -15.5280 C   0  0  0  0  0  0  0  0  0  0  0  0
   25.5901  -19.9228  -16.0118 C   0  0  0  0  0  0  0  0  0  0  0  0
   25.3775  -18.7319  -16.9064 C   0  0  0  0  0  0  0  0  0  0  0  0
   23.9671  -18.6346  -17.4257 C   0  0  2  0  0  0  0  0  0  0  0  0
   23.8448  -17.4161  -18.2065 N   0  0  0  0  0  0  0  0  0  0  0  0
   22.9527  -18.6242  -16.3763 C   0  0  0  0  0  0  0  0  0  0  0  0
   22.9646  -17.7447  -15.4787 O   0  0  0  0  0  0  0  0  0  0  0  0
   29.6149  -20.9041  -18.3805 C   0  0  0  0  0  0  0  0  0  0  0  0
   19.2611  -20.9060  -16.5450 C   0  0  1  0  0  0  0  0  0  0  0  0
   19.4869  -19.5908  -15.8182 C   0  0  0  0  0  0  0  0  0  0  0  0
   19.3514  -18.4842  -16.8430 C   0  0  1  0  0  0  0  0  0  0  0  0
   20.8839  -19.5161  -15.2443 N   0  0  0  0  0  0  0  0  0  0  0  0
   21.8936  -19.5873  -16.2885 C   0  0  0  0  0  0  0  0  0  0  0  0
   21.0714  -20.5936  -14.2690 O   0  0  0  0  0  0  0  0  0  0  0  0
   20.3677  -20.5567  -13.0538 O   0  0  0  0  0  0  0  0  0  0  0  0
  2 12  2  0
  2  1  1  0
  3  2  1  0
  4  5  1  0
  4  3  2  0
  5 11  2  0
  6  7  1  0
  6  5  1  0
  7  8  1  6
  9  7  1  0
  9 21  1  0
 10  9  2  0
 11 12  1  0
 14 13  1  0
 14 16  1  0
 15 14  2  0
 17 16  1  0
 18 19  1  0
 18 17  1  0
 20 19  1  1
 20 21  1  0
 22 23  2  0
 22 20  1  0
 25 24  1  1
 26 25  1  0
 27 28  1  6
 27 25  1  0
 28 22  1  0
 29 27  1  0
 30 29  1  0
 31 29  2  0
M  END
$$$$
