YRV.pdb
     RDKit          3D

 31 31  0  0  1  0  0  0  0  0999 V2000
   20.4711  -21.5468   -8.8060 O   0  0  0  0  0  0  0  0  0  0  0  0
   21.5413  -21.1528   -9.5976 C   0  0  0  0  0  0  0  0  0  0  0  0
   22.6073  -20.5130   -8.9722 C   0  0  0  0  0  0  0  0  0  0  0  0
   23.6792  -20.1150   -9.7466 C   0  0  0  0  0  0  0  0  0  0  0  0
   23.7342  -20.3249  -11.1032 C   0  0  0  0  0  0  0  0  0  0  0  0
   24.8871  -19.8896  -11.9153 C   0  0  0  0  0  0  0  0  0  0  0  0
   25.6867  -21.1420  -12.2837 C   0  0  2  0  0  0  0  0  0  0  0  0
   26.4920  -21.4742  -11.1345 N   0  0  0  0  0  0  0  0  0  0  0  0
   26.4483  -20.9311  -13.5203 C   0  0  0  0  0  0  0  0  0  0  0  0
   27.5533  -20.3204  -13.4330 O   0  0  0  0  0  0  0  0  0  0  0  0
   22.6568  -20.9640  -11.6908 C   0  0  0  0  0  0  0  0  0  0  0  0
   21.5702  -21.3742  -10.9459 C   0  0  0  0  0  0  0  0  0  0  0  0
   27.8674  -25.8299  -16.3533 N   0  0  0  0  0  0  0  0  0  0  0  0
   28.9151  -25.6958  -17.3123 C   0  0  0  0  0  0  0  0  0  0  0  0
   29.1154  -26.6139  -18.1759 N   0  0  0  0  0  0  0  0  0  0  0  0
   29.7173  -24.5373  -17.2867 N   0  0  0  0  0  0  0  0  0  0  0  0
   29.1939  -23.2910  -16.8203 C   0  0  0  0  0  0  0  0  0  0  0  0
   27.9986  -22.8030  -17.6097 C   0  0  0  0  0  0  0  0  0  0  0  0
   26.8336  -22.5948  -16.6807 C   0  0  0  0  0  0  0  0  0  0  0  0
   26.9046  -21.2869  -15.9372 C   0  0  2  0  0  0  0  0  0  0  0  0
   26.0272  -21.3631  -14.7824 N   0  0  0  0  0  0  0  0  0  0  0  0
   26.5229  -20.1306  -16.7421 C   0  0  0  0  0  0  0  0  0  0  0  0
   25.3159  -19.9007  -17.0059 O   0  0  0  0  0  0  0  0  0  0  0  0
   29.8783  -26.5277  -18.8719 C   0  0  0  0  0  0  0  0  0  0  0  0
   29.4054  -17.4805  -18.6895 C   0  0  1  0  0  0  0  0  0  0  0  0
   28.0721  -16.9845  -18.1555 C   0  0  0  0  0  0  0  0  0  0  0  0
   28.2998  -16.5408  -16.7257 C   0  0  1  0  0  0  0  0  0  0  0  0
   27.0450  -18.0940  -18.1336 N   0  0  0  0  0  0  0  0  0  0  0  0
   27.4659  -19.1932  -17.2795 C   0  0  0  0  0  0  0  0  0  0  0  0
   26.8022  -18.5643  -19.5000 O   0  0  0  0  0  0  0  0  0  0  0  0
   27.1657  -19.8738  -19.8555 O   0  0  0  0  0  0  0  0  0  0  0  0
  2 12  2  0
  2  1  1  0
  3  2  1  0
  4  5  1  0
  4  3  2  0
  5 11  2  0
  6  7  1  0
  6  5  1  0
  7  8  1  1
  9  7  1  0
  9 21  1  0
 10  9  2  0
 11 12  1  0
 14 13  1  0
 14 16  1  0
 15 14  2  0
 17 16  1  0
 18 19  1  0
 18 17  1  0
 20 19  1  6
 20 21  1  0
 22 23  2  0
 22 20  1  0
 25 24  1  6
 26 25  1  0
 27 28  1  1
 27 25  1  0
 28 22  1  0
 29 27  1  0
 30 29  1  0
 31 29  2  0
M  END
$$$$
