YRV.pdb
     RDKit          3D

 31 31  0  0  1  0  0  0  0  0999 V2000
   23.5933  -22.5475  -13.5580 O   0  0  0  0  0  0  0  0  0  0  0  0
   24.0820  -23.4649  -14.4782 C   0  0  0  0  0  0  0  0  0  0  0  0
   23.8917  -24.8166  -14.2076 C   0  0  0  0  0  0  0  0  0  0  0  0
   24.3725  -25.7412  -15.1137 C   0  0  0  0  0  0  0  0  0  0  0  0
   25.0278  -25.3807  -16.2660 C   0  0  0  0  0  0  0  0  0  0  0  0
   25.5377  -26.3833  -17.2216 C   0  0  0  0  0  0  0  0  0  0  0  0
   26.8751  -26.8942  -16.6793 C   0  0  2  0  0  0  0  0  0  0  0  0
   27.8099  -25.8008  -16.7807 N   0  0  0  0  0  0  0  0  0  0  0  0
   27.2898  -28.1164  -17.3778 C   0  0  0  0  0  0  0  0  0  0  0  0
   28.0736  -27.9927  -18.3635 O   0  0  0  0  0  0  0  0  0  0  0  0
   25.1987  -24.0281  -16.5024 C   0  0  0  0  0  0  0  0  0  0  0  0
   24.7308  -23.0786  -15.6174 C   0  0  0  0  0  0  0  0  0  0  0  0
   33.1330  -33.1923  -16.0061 N   0  0  0  0  0  0  0  0  0  0  0  0
   32.8500  -31.9543  -16.6561 C   0  0  0  0  0  0  0  0  0  0  0  0
   33.7810  -31.1023  -16.8464 N   0  0  0  0  0  0  0  0  0  0  0  0
   31.5316  -31.6943  -17.0811 N   0  0  0  0  0  0  0  0  0  0  0  0
   30.4898  -32.6513  -16.8724 C   0  0  0  0  0  0  0  0  0  0  0  0
   29.1978  -32.3034  -17.5794 C   0  0  0  0  0  0  0  0  0  0  0  0
   28.6544  -31.0135  -17.0277 C   0  0  0  0  0  0  0  0  0  0  0  0
   27.3808  -30.5784  -17.7039 C   0  0  2  0  0  0  0  0  0  0  0  0
   26.8722  -29.4026  -17.0197 N   0  0  0  0  0  0  0  0  0  0  0  0
   26.3407  -31.6024  -17.7149 C   0  0  0  0  0  0  0  0  0  0  0  0
   25.7815  -31.9630  -16.6488 O   0  0  0  0  0  0  0  0  0  0  0  0
   33.5767  -30.1844  -17.2819 C   0  0  0  0  0  0  0  0  0  0  0  0
   24.2420  -32.5894  -21.2253 C   0  0  1  0  0  0  0  0  0  0  0  0
   23.6992  -32.8646  -19.8330 C   0  0  0  0  0  0  0  0  0  0  0  0
   23.0732  -31.5789  -19.3345 C   0  0  1  0  0  0  0  0  0  0  0  0
   24.8102  -33.2350  -18.8764 N   0  0  0  0  0  0  0  0  0  0  0  0
   25.8875  -32.2586  -18.9070 C   0  0  0  0  0  0  0  0  0  0  0  0
   25.3138  -34.5715  -19.2040 O   0  0  0  0  0  0  0  0  0  0  0  0
   24.5206  -35.6969  -18.9255 O   0  0  0  0  0  0  0  0  0  0  0  0
  2 12  2  0
  2  1  1  0
  3  2  1  0
  4  5  1  0
  4  3  2  0
  5 11  2  0
  6  7  1  0
  6  5  1  0
  7  8  1  6
  9  7  1  0
  9 21  1  0
 10  9  2  0
 11 12  1  0
 14 13  1  0
 14 16  1  0
 15 14  2  0
 17 16  1  0
 18 19  1  0
 18 17  1  0
 20 19  1  1
 20 21  1  0
 22 23  2  0
 22 20  1  0
 25 24  1  6
 26 25  1  0
 27 28  1  6
 27 25  1  0
 28 22  1  0
 29 27  1  0
 30 29  1  0
 31 29  2  0
M  END
$$$$
