YRV.pdb
     RDKit          3D

 31 31  0  0  1  0  0  0  0  0999 V2000
   19.1045  -27.0429  -10.1039 O   0  0  0  0  0  0  0  0  0  0  0  0
   19.9309  -26.3882  -11.0071 C   0  0  0  0  0  0  0  0  0  0  0  0
   20.8308  -27.1592  -11.7367 C   0  0  0  0  0  0  0  0  0  0  0  0
   21.6597  -26.5221  -12.6390 C   0  0  0  0  0  0  0  0  0  0  0  0
   21.6306  -25.1640  -12.8436 C   0  0  0  0  0  0  0  0  0  0  0  0
   22.5266  -24.4999  -13.8104 C   0  0  0  0  0  0  0  0  0  0  0  0
   21.6459  -23.8668  -14.8908 C   0  0  2  0  0  0  0  0  0  0  0  0
   20.8720  -24.9343  -15.4748 N   0  0  0  0  0  0  0  0  0  0  0  0
   22.4583  -23.1089  -15.8496 C   0  0  0  0  0  0  0  0  0  0  0  0
   22.8470  -23.7089  -16.8939 O   0  0  0  0  0  0  0  0  0  0  0  0
   20.7233  -24.4294  -12.1010 C   0  0  0  0  0  0  0  0  0  0  0  0
   19.8812  -25.0349  -11.1910 C   0  0  0  0  0  0  0  0  0  0  0  0
   19.6237  -18.6422  -14.3895 N   0  0  0  0  0  0  0  0  0  0  0  0
   20.1478  -17.3153  -14.3786 C   0  0  0  0  0  0  0  0  0  0  0  0
   19.7979  -16.4951  -13.4656 N   0  0  0  0  0  0  0  0  0  0  0  0
   21.0533  -16.9327  -15.3885 N   0  0  0  0  0  0  0  0  0  0  0  0
   21.4211  -17.8419  -16.4291 C   0  0  0  0  0  0  0  0  0  0  0  0
   22.2608  -19.0052  -15.9477 C   0  0  0  0  0  0  0  0  0  0  0  0
   22.6597  -19.8572  -17.1219 C   0  0  0  0  0  0  0  0  0  0  0  0
   23.5105  -21.0357  -16.7275 C   0  0  2  0  0  0  0  0  0  0  0  0
   22.8257  -21.7700  -15.6782 N   0  0  0  0  0  0  0  0  0  0  0  0
   24.8411  -20.6686  -16.2527 C   0  0  0  0  0  0  0  0  0  0  0  0
   24.9857  -19.9906  -15.2045 O   0  0  0  0  0  0  0  0  0  0  0  0
   20.2093  -15.5449  -13.4226 C   0  0  0  0  0  0  0  0  0  0  0  0
   28.4833  -22.1978  -18.0061 C   0  0  1  0  0  0  0  0  0  0  0  0
   28.3903  -21.6946  -16.5754 C   0  0  0  0  0  0  0  0  0  0  0  0
   27.9378  -22.8594  -15.7199 C   0  0  1  0  0  0  0  0  0  0  0  0
   27.3540  -20.6009  -16.4467 N   0  0  0  0  0  0  0  0  0  0  0  0
   26.0526  -21.0411  -16.9239 C   0  0  0  0  0  0  0  0  0  0  0  0
   27.8001  -19.4141  -17.1813 O   0  0  0  0  0  0  0  0  0  0  0  0
   28.9466  -18.7254  -16.7519 O   0  0  0  0  0  0  0  0  0  0  0  0
  2 12  2  0
  2  1  1  0
  3  2  1  0
  4  5  1  0
  4  3  2  0
  5 11  2  0
  6  7  1  0
  6  5  1  0
  7  8  1  6
  9  7  1  0
  9 21  1  0
 10  9  2  0
 11 12  1  0
 14 13  1  0
 14 16  1  0
 15 14  2  0
 17 16  1  0
 18 19  1  0
 18 17  1  0
 20 19  1  1
 20 21  1  0
 22 23  2  0
 22 20  1  0
 25 24  1  1
 26 25  1  0
 27 28  1  6
 27 25  1  0
 28 22  1  0
 29 27  1  0
 30 29  1  0
 31 29  2  0
M  END
$$$$
