YRV.pdb
     RDKit          3D

 31 31  0  0  1  0  0  0  0  0999 V2000
   31.9549  -29.2052  -18.1557 O   0  0  0  0  0  0  0  0  0  0  0  0
   31.5024  -27.9862  -17.6694 C   0  0  0  0  0  0  0  0  0  0  0  0
   32.4158  -26.9386  -17.5990 C   0  0  0  0  0  0  0  0  0  0  0  0
   31.9804  -25.7199  -17.1171 C   0  0  0  0  0  0  0  0  0  0  0  0
   30.6875  -25.5022  -16.7068 C   0  0  0  0  0  0  0  0  0  0  0  0
   30.2410  -24.1933  -16.1916 C   0  0  0  0  0  0  0  0  0  0  0  0
   29.4786  -23.4930  -17.3194 C   0  0  2  0  0  0  0  0  0  0  0  0
   30.4687  -22.9532  -18.2181 N   0  0  0  0  0  0  0  0  0  0  0  0
   28.5413  -22.5011  -16.7796 C   0  0  0  0  0  0  0  0  0  0  0  0
   28.9960  -21.3535  -16.5010 O   0  0  0  0  0  0  0  0  0  0  0  0
   29.8071  -26.5662  -16.7912 C   0  0  0  0  0  0  0  0  0  0  0  0
   30.2099  -27.7969  -17.2676 C   0  0  0  0  0  0  0  0  0  0  0  0
   20.7534  -21.3566  -15.3651 N   0  0  0  0  0  0  0  0  0  0  0  0
   20.8075  -20.0370  -15.9046 C   0  0  0  0  0  0  0  0  0  0  0  0
   19.9217  -19.1761  -15.5836 N   0  0  0  0  0  0  0  0  0  0  0  0
   21.8516  -19.7065  -16.7917 N   0  0  0  0  0  0  0  0  0  0  0  0
   22.8281  -20.6790  -17.1725 C   0  0  0  0  0  0  0  0  0  0  0  0
   24.0430  -20.7025  -16.2704 C   0  0  0  0  0  0  0  0  0  0  0  0
   25.0885  -21.6105  -16.8587 C   0  0  0  0  0  0  0  0  0  0  0  0
   26.3139  -21.7309  -15.9912 C   0  0  2  0  0  0  0  0  0  0  0  0
   27.1825  -22.7482  -16.5565 N   0  0  0  0  0  0  0  0  0  0  0  0
   26.0214  -22.0801  -14.6044 C   0  0  0  0  0  0  0  0  0  0  0  0
   25.4271  -23.1508  -14.3223 O   0  0  0  0  0  0  0  0  0  0  0  0
   19.8915  -18.2502  -16.0481 C   0  0  0  0  0  0  0  0  0  0  0  0
   27.0173  -19.5584  -11.1189 C   0  0  1  0  0  0  0  0  0  0  0  0
   27.0395  -21.0777  -11.1325 C   0  0  0  0  0  0  0  0  0  0  0  0
   28.4203  -21.5011  -11.5878 C   0  0  1  0  0  0  0  0  0  0  0  0
   26.0401  -21.6302  -12.1237 N   0  0  0  0  0  0  0  0  0  0  0  0
   26.3784  -21.2546  -13.4873 C   0  0  0  0  0  0  0  0  0  0  0  0
   24.6956  -21.1623  -11.7766 O   0  0  0  0  0  0  0  0  0  0  0  0
   24.0069  -20.3179  -12.6631 O   0  0  0  0  0  0  0  0  0  0  0  0
  2 12  2  0
  2  1  1  0
  3  2  1  0
  4  5  1  0
  4  3  2  0
  5 11  2  0
  6  7  1  0
  6  5  1  0
  7  8  1  6
  9  7  1  0
  9 21  1  0
 10  9  2  0
 11 12  1  0
 14 13  1  0
 14 16  1  0
 15 14  2  0
 17 16  1  0
 18 19  1  0
 18 17  1  0
 20 19  1  6
 20 21  1  0
 22 23  2  0
 22 20  1  0
 25 24  1  1
 26 25  1  0
 27 28  1  6
 27 25  1  0
 28 22  1  0
 29 27  1  0
 30 29  1  0
 31 29  2  0
M  END
$$$$
