YRV.pdb
     RDKit          3D

 31 31  0  0  1  0  0  0  0  0999 V2000
   17.3522  -28.4964   -1.4892 O   0  0  0  0  0  0  0  0  0  0  0  0
   17.3196  -28.0324   -2.7972 C   0  0  0  0  0  0  0  0  0  0  0  0
   16.5364  -26.9143   -3.0675 C   0  0  0  0  0  0  0  0  0  0  0  0
   16.4938  -26.4410   -4.3641 C   0  0  0  0  0  0  0  0  0  0  0  0
   17.1909  -27.0276   -5.3923 C   0  0  0  0  0  0  0  0  0  0  0  0
   17.1307  -26.5095   -6.7730 C   0  0  0  0  0  0  0  0  0  0  0  0
   18.4565  -25.7971   -7.0530 C   0  0  2  0  0  0  0  0  0  0  0  0
   18.4605  -24.5966   -6.2541 N   0  0  0  0  0  0  0  0  0  0  0  0
   18.6349  -25.5712   -8.4920 C   0  0  0  0  0  0  0  0  0  0  0  0
   18.3486  -24.4256   -8.9470 O   0  0  0  0  0  0  0  0  0  0  0  0
   17.9591  -28.1370   -5.0867 C   0  0  0  0  0  0  0  0  0  0  0  0
   18.0233  -28.6355   -3.8017 C   0  0  0  0  0  0  0  0  0  0  0  0
   20.0650  -28.3632  -15.2600 N   0  0  0  0  0  0  0  0  0  0  0  0
   21.3661  -27.8792  -15.5889 C   0  0  0  0  0  0  0  0  0  0  0  0
   21.6991  -27.7136  -16.8098 N   0  0  0  0  0  0  0  0  0  0  0  0
   22.2684  -27.5893  -14.5458 N   0  0  0  0  0  0  0  0  0  0  0  0
   21.8903  -27.7617  -13.1776 C   0  0  0  0  0  0  0  0  0  0  0  0
   20.6930  -26.9303  -12.7711 C   0  0  0  0  0  0  0  0  0  0  0  0
   20.4018  -27.1483  -11.3112 C   0  0  0  0  0  0  0  0  0  0  0  0
   19.3290  -26.2313  -10.7852 C   0  0  2  0  0  0  0  0  0  0  0  0
   19.1004  -26.5422   -9.3851 N   0  0  0  0  0  0  0  0  0  0  0  0
   18.0621  -26.3351  -11.5026 C   0  0  0  0  0  0  0  0  0  0  0  0
   17.3992  -27.4026  -11.4865 O   0  0  0  0  0  0  0  0  0  0  0  0
   22.6673  -27.4432  -17.0617 C   0  0  0  0  0  0  0  0  0  0  0  0
   13.8165  -24.5990  -12.9338 C   0  0  1  0  0  0  0  0  0  0  0  0
   15.1372  -24.5728  -12.1828 C   0  0  0  0  0  0  0  0  0  0  0  0
   15.6078  -23.1337  -12.1552 C   0  0  2  0  0  0  0  0  0  0  0  0
   16.1905  -25.3864  -12.9005 N   0  0  0  0  0  0  0  0  0  0  0  0
   17.4900  -25.2598  -12.2598 C   0  0  0  0  0  0  0  0  0  0  0  0
   16.2622  -24.9675  -14.3029 O   0  0  0  0  0  0  0  0  0  0  0  0
   15.3927  -25.5457  -15.2426 O   0  0  0  0  0  0  0  0  0  0  0  0
  2 12  2  0
  2  1  1  0
  3  2  1  0
  4  5  1  0
  4  3  2  0
  5 11  2  0
  6  7  1  0
  6  5  1  0
  7  8  1  1
  9  7  1  0
  9 21  1  0
 10  9  2  0
 11 12  1  0
 14 13  1  0
 14 16  1  0
 15 14  2  0
 17 16  1  0
 18 19  1  0
 18 17  1  0
 20 19  1  6
 20 21  1  0
 22 23  2  0
 22 20  1  0
 25 24  1  1
 26 25  1  0
 27 28  1  6
 27 25  1  0
 28 22  1  0
 29 27  1  0
 30 29  1  0
 31 29  2  0
M  END
$$$$
