YRV.pdb
     RDKit          3D

 31 31  0  0  1  0  0  0  0  0999 V2000
   28.6640  -20.8620   -4.4779 O   0  0  0  0  0  0  0  0  0  0  0  0
   28.2494  -20.5222   -5.7585 C   0  0  0  0  0  0  0  0  0  0  0  0
   26.9580  -20.8777   -6.1359 C   0  0  0  0  0  0  0  0  0  0  0  0
   26.5313  -20.5465   -7.4068 C   0  0  0  0  0  0  0  0  0  0  0  0
   27.3276  -19.8831   -8.3085 C   0  0  0  0  0  0  0  0  0  0  0  0
   26.8554  -19.5401   -9.6641 C   0  0  0  0  0  0  0  0  0  0  0  0
   26.7573  -20.8449  -10.4587 C   0  0  2  0  0  0  0  0  0  0  0  0
   28.1064  -21.2337  -10.7880 N   0  0  0  0  0  0  0  0  0  0  0  0
   25.8697  -20.6864  -11.6166 C   0  0  0  0  0  0  0  0  0  0  0  0
   26.3082  -20.0338  -12.6082 O   0  0  0  0  0  0  0  0  0  0  0  0
   28.6053  -19.5453   -7.8987 C   0  0  0  0  0  0  0  0  0  0  0  0
   29.0628  -19.8617   -6.6360 C   0  0  0  0  0  0  0  0  0  0  0  0
   28.1405  -23.7341  -15.6435 N   0  0  0  0  0  0  0  0  0  0  0  0
   27.0435  -24.6140  -15.8843 C   0  0  0  0  0  0  0  0  0  0  0  0
   27.2383  -25.8720  -15.9742 N   0  0  0  0  0  0  0  0  0  0  0  0
   25.7507  -24.0692  -16.0188 N   0  0  0  0  0  0  0  0  0  0  0  0
   25.4817  -22.7144  -15.6489 C   0  0  0  0  0  0  0  0  0  0  0  0
   25.4087  -22.4985  -14.1528 C   0  0  0  0  0  0  0  0  0  0  0  0
   23.9745  -22.3023  -13.7426 C   0  0  0  0  0  0  0  0  0  0  0  0
   23.7721  -21.0768  -12.8908 C   0  0  2  0  0  0  0  0  0  0  0  0
   24.5751  -21.2115  -11.6883 N   0  0  0  0  0  0  0  0  0  0  0  0
   22.3825  -20.8508  -12.5052 C   0  0  0  0  0  0  0  0  0  0  0  0
   21.8735  -21.4733  -11.5394 O   0  0  0  0  0  0  0  0  0  0  0  0
   26.4586  -26.5121  -16.2115 C   0  0  0  0  0  0  0  0  0  0  0  0
   19.6769  -18.0803  -14.5736 C   0  0  1  0  0  0  0  0  0  0  0  0
   19.6602  -18.3262  -13.0742 C   0  0  0  0  0  0  0  0  0  0  0  0
   20.6301  -17.3455  -12.4490 C   0  0  1  0  0  0  0  0  0  0  0  0
   20.1411  -19.7211  -12.7436 N   0  0  0  0  0  0  0  0  0  0  0  0
   21.5138  -19.9284  -13.1770 C   0  0  0  0  0  0  0  0  0  0  0  0
   19.2493  -20.7063  -13.3611 O   0  0  0  0  0  0  0  0  0  0  0  0
   19.7241  -21.5039  -14.4154 O   0  0  0  0  0  0  0  0  0  0  0  0
  2 12  2  0
  2  1  1  0
  3  2  1  0
  4  5  1  0
  4  3  2  0
  5 11  2  0
  6  7  1  0
  6  5  1  0
  7  8  1  6
  9  7  1  0
  9 21  1  0
 10  9  2  0
 11 12  1  0
 14 13  1  0
 14 16  1  0
 15 14  2  0
 17 16  1  0
 18 19  1  0
 18 17  1  0
 20 19  1  6
 20 21  1  0
 22 23  2  0
 22 20  1  0
 25 24  1  1
 26 25  1  0
 27 28  1  6
 27 25  1  0
 28 22  1  0
 29 27  1  0
 30 29  1  0
 31 29  2  0
M  END
$$$$
