RRK.pdb
     RDKit          3D

 32 31  0  0  1  0  0  0  0  0999 V2000
    7.5934  -14.8221   17.2522 N   0  0  0  0  0  0  0  0  0  0  0  0
    7.7356  -13.4181   17.4199 C   0  0  0  0  0  0  0  0  0  0  0  0
    8.0521  -12.6717   16.4208 N   0  0  0  0  0  0  0  0  0  0  0  0
    7.5408  -12.7824   18.6784 N   0  0  0  0  0  0  0  0  0  0  0  0
    8.1656  -13.2303   19.8860 C   0  0  0  0  0  0  0  0  0  0  0  0
    7.6039  -14.5447   20.3795 C   0  0  0  0  0  0  0  0  0  0  0  0
    8.7166  -15.4724   20.8781 C   0  0  0  0  0  0  0  0  0  0  0  0
    8.5158  -16.7680   20.0965 C   0  0  2  0  0  0  0  0  0  0  0  0
    7.2914  -17.3679   20.5901 N   0  0  0  0  0  0  0  0  0  0  0  0
    9.6689  -17.6930   20.2424 C   0  0  0  0  0  0  0  0  0  0  0  0
    9.5817  -18.5705   21.1257 O   0  0  0  0  0  0  0  0  0  0  0  0
    8.2530  -11.6706   16.4771 N   0  0  0  0  0  0  0  0  0  0  0  0
   16.6196  -19.7176   18.2048 C   0  0  0  0  0  0  0  0  0  0  0  0
   16.4317  -20.7696   17.2750 N   0  0  0  0  0  0  0  0  0  0  0  0
   17.3979  -21.6427   17.1248 N   0  0  0  0  0  0  0  0  0  0  0  0
   15.2419  -20.8833   16.5333 C   0  0  0  0  0  0  0  0  0  0  0  0
   14.1693  -19.9736   16.6711 C   0  0  0  0  0  0  0  0  0  0  0  0
   13.6631  -19.7120   18.0637 C   0  0  0  0  0  0  0  0  0  0  0  0
   12.5393  -18.7231   18.0327 C   0  0  2  0  0  0  0  0  0  0  0  0
   11.9691  -18.4008   19.4088 N   0  0  0  0  0  0  0  0  0  0  0  0
   10.8068  -17.6013   19.4384 C   0  0  0  0  0  0  0  0  0  0  0  0
   13.0589  -18.0910   20.3187 O   0  0  0  0  0  0  0  0  0  0  0  0
   13.7089  -17.0229   20.0938 N   0  0  0  0  0  0  0  0  0  0  0  0
   17.2813  -22.4433   16.4823 C   0  0  2  0  0  0  0  0  0  0  0  0
   13.4668  -18.8583   21.4266 C   0  0  0  0  0  0  0  0  0  0  0  0
   14.7915  -19.0043   21.9316 C   0  0  0  0  0  0  0  0  0  0  0  0
   15.4540  -20.3181   21.5698 C   0  0  0  0  0  0  0  0  0  0  0  0
   16.8402  -20.4252   22.1403 C   0  0  0  0  0  0  0  0  0  0  0  0
   16.8499  -21.5175   23.1796 N   0  0  0  0  0  0  0  0  0  0  0  0
   18.2107  -21.7643   23.7785 C   0  0  0  0  0  0  0  0  0  0  0  0
   18.1346  -22.9076   24.6847 O   0  0  0  0  0  0  0  0  0  0  0  0
   15.7138  -17.9365   21.4574 O   0  0  0  0  0  0  0  0  0  0  0  0
  2  3  2  0
  2  1  1  0
  4  2  1  0
  5  4  1  0
  6  7  1  0
  6  5  1  0
  8 10  1  0
  8  7  1  0
  8  9  1  1
 10 11  2  0
 13 15  1  0
 13 12  1  0
 14 13  2  0
 16 15  1  0
 17 16  1  0
 17 18  1  0
 19 18  1  6
 20 10  1  0
 20 19  1  0
 21 23  1  0
 21 19  1  0
 22 21  2  0
 24 25  1  6
 24 23  1  0
 25 26  1  0
 26 27  1  0
 27 28  1  0
 28 29  1  0
 30 24  1  0
 30 31  1  0
 32 30  2  0
M  END
$$$$
