RRK.pdb
     RDKit          3D

 32 31  0  0  1  0  0  0  0  0999 V2000
    7.5018  -11.6315   21.3878 N   0  0  0  0  0  0  0  0  0  0  0  0
    7.6302  -12.1419   20.0677 C   0  0  0  0  0  0  0  0  0  0  0  0
    8.1159  -11.4071   19.1298 N   0  0  0  0  0  0  0  0  0  0  0  0
    7.2327  -13.4651   19.7256 N   0  0  0  0  0  0  0  0  0  0  0  0
    6.7409  -14.4068   20.6851 C   0  0  0  0  0  0  0  0  0  0  0  0
    7.2009  -15.8195   20.4031 C   0  0  0  0  0  0  0  0  0  0  0  0
    8.6955  -15.9862   20.6961 C   0  0  0  0  0  0  0  0  0  0  0  0
    8.9839  -17.4554   20.3988 C   0  0  2  0  0  0  0  0  0  0  0  0
    8.2069  -18.2330   21.3444 N   0  0  0  0  0  0  0  0  0  0  0  0
   10.4318  -17.7717   20.4981 C   0  0  0  0  0  0  0  0  0  0  0  0
   10.7848  -18.5168   21.4353 O   0  0  0  0  0  0  0  0  0  0  0  0
    8.2708  -11.7124   18.1662 N   0  0  0  0  0  0  0  0  0  0  0  0
   17.4671  -14.7789   19.5562 C   0  0  0  0  0  0  0  0  0  0  0  0
   16.8454  -13.8304   18.7075 N   0  0  0  0  0  0  0  0  0  0  0  0
   17.1307  -12.5629   18.8822 N   0  0  0  0  0  0  0  0  0  0  0  0
   15.9492  -14.2306   17.6999 C   0  0  0  0  0  0  0  0  0  0  0  0
   15.5370  -15.5725   17.5370 C   0  0  0  0  0  0  0  0  0  0  0  0
   14.9332  -16.2572   18.7330 C   0  0  0  0  0  0  0  0  0  0  0  0
   13.4388  -16.2451   18.6413 C   0  0  2  0  0  0  0  0  0  0  0  0
   12.7506  -17.0241   19.7559 N   0  0  0  0  0  0  0  0  0  0  0  0
   11.3703  -17.2688   19.5949 C   0  0  0  0  0  0  0  0  0  0  0  0
   13.2354  -16.5509   21.0414 O   0  0  0  0  0  0  0  0  0  0  0  0
   12.9816  -15.3429   21.3418 N   0  0  0  0  0  0  0  0  0  0  0  0
   16.8110  -11.8580   18.1980 C   0  0  2  0  0  0  0  0  0  0  0  0
   13.9600  -17.2994   21.9887 C   0  0  0  0  0  0  0  0  0  0  0  0
   14.3882  -16.8713   23.2789 C   0  0  0  0  0  0  0  0  0  0  0  0
   14.1625  -17.8888   24.3786 C   0  0  0  0  0  0  0  0  0  0  0  0
   12.7025  -18.0744   24.6826 C   0  0  0  0  0  0  0  0  0  0  0  0
   12.5658  -19.0976   25.7816 N   0  0  0  0  0  0  0  0  0  0  0  0
   11.1353  -19.3906   26.1547 C   0  0  0  0  0  0  0  0  0  0  0  0
   11.1135  -20.3938   27.2164 O   0  0  0  0  0  0  0  0  0  0  0  0
   15.8368  -16.5320   23.3261 O   0  0  0  0  0  0  0  0  0  0  0  0
  2  3  2  0
  2  1  1  0
  4  2  1  0
  5  4  1  0
  6  7  1  0
  6  5  1  0
  8 10  1  0
  8  7  1  0
  8  9  1  1
 10 11  2  0
 13 15  1  0
 13 12  1  0
 14 13  2  0
 16 15  1  0
 17 16  1  0
 17 18  1  0
 19 18  1  6
 20 10  1  0
 20 19  1  0
 21 23  1  0
 21 19  1  0
 22 21  2  0
 24 25  1  1
 24 23  1  0
 25 26  1  0
 26 27  1  0
 27 28  1  0
 28 29  1  0
 30 24  1  0
 30 31  1  0
 32 30  2  0
M  END
$$$$
