RRK.pdb
     RDKit          3D

 32 31  0  0  1  0  0  0  0  0999 V2000
   10.4275  -15.3571   13.1999 N   0  0  0  0  0  0  0  0  0  0  0  0
    9.1942  -16.0624   13.1690 C   0  0  0  0  0  0  0  0  0  0  0  0
    9.1136  -17.2083   12.5894 N   0  0  0  0  0  0  0  0  0  0  0  0
    8.0102  -15.5434   13.7645 N   0  0  0  0  0  0  0  0  0  0  0  0
    7.9804  -14.3219   14.5104 C   0  0  0  0  0  0  0  0  0  0  0  0
    8.4568  -14.4976   15.9348 C   0  0  0  0  0  0  0  0  0  0  0  0
    8.2738  -13.2100   16.7448 C   0  0  0  0  0  0  0  0  0  0  0  0
    8.5054  -13.6312   18.1935 C   0  0  2  0  0  0  0  0  0  0  0  0
    8.5283  -12.4153   18.9833 N   0  0  0  0  0  0  0  0  0  0  0  0
    9.7622  -14.4060   18.3560 C   0  0  0  0  0  0  0  0  0  0  0  0
    9.7505  -15.5912   17.9645 O   0  0  0  0  0  0  0  0  0  0  0  0
    8.2974  -17.8237   12.6176 N   0  0  0  0  0  0  0  0  0  0  0  0
   18.2294  -14.8068   19.0444 C   0  0  0  0  0  0  0  0  0  0  0  0
   17.7730  -13.4946   18.7679 N   0  0  0  0  0  0  0  0  0  0  0  0
   18.5335  -12.4874   19.1222 N   0  0  0  0  0  0  0  0  0  0  0  0
   16.5410  -13.2712   18.1268 C   0  0  0  0  0  0  0  0  0  0  0  0
   15.6962  -14.3257   17.7128 C   0  0  0  0  0  0  0  0  0  0  0  0
   14.6079  -14.7489   18.6616 C   0  0  0  0  0  0  0  0  0  0  0  0
   13.3509  -13.9826   18.3884 C   0  0  2  0  0  0  0  0  0  0  0  0
   12.1589  -14.4460   19.2171 N   0  0  0  0  0  0  0  0  0  0  0  0
   10.9141  -13.8524   18.9184 C   0  0  0  0  0  0  0  0  0  0  0  0
   12.5618  -14.5724   20.6076 O   0  0  0  0  0  0  0  0  0  0  0  0
   12.3527  -13.5701   21.3596 N   0  0  0  0  0  0  0  0  0  0  0  0
   18.2882  -11.5246   18.8388 C   0  0  2  0  0  0  0  0  0  0  0  0
   13.1621  -15.6972   21.2051 C   0  0  0  0  0  0  0  0  0  0  0  0
   13.1021  -16.0778   22.5772 C   0  0  0  0  0  0  0  0  0  0  0  0
   12.1591  -17.2288   22.8630 C   0  0  0  0  0  0  0  0  0  0  0  0
   12.2060  -17.6501   24.3047 C   0  0  0  0  0  0  0  0  0  0  0  0
   11.1579  -18.7101   24.5309 N   0  0  0  0  0  0  0  0  0  0  0  0
   11.1111  -19.2152   25.9501 C   0  0  0  0  0  0  0  0  0  0  0  0
   10.1157  -20.2801   26.0465 O   0  0  0  0  0  0  0  0  0  0  0  0
   14.4249  -16.4869   23.1238 O   0  0  0  0  0  0  0  0  0  0  0  0
  2  3  2  0
  2  1  1  0
  4  2  1  0
  5  4  1  0
  6  7  1  0
  6  5  1  0
  8 10  1  0
  8  7  1  0
  8  9  1  1
 10 11  2  0
 13 15  1  0
 13 12  1  0
 14 13  2  0
 16 15  1  0
 17 16  1  0
 17 18  1  0
 19 18  1  6
 20 10  1  0
 20 19  1  0
 21 23  1  0
 21 19  1  0
 22 21  2  0
 24 25  1  1
 24 23  1  0
 25 26  1  0
 26 27  1  0
 27 28  1  0
 28 29  1  0
 30 24  1  0
 30 31  1  0
 32 30  2  0
M  END
$$$$
