RRK.pdb
     RDKit          3D

 32 31  0  0  1  0  0  0  0  0999 V2000
   16.4593  -20.5515   17.7685 N   0  0  0  0  0  0  0  0  0  0  0  0
   16.0943  -21.5653   18.6951 C   0  0  0  0  0  0  0  0  0  0  0  0
   16.9019  -21.9089   19.6360 N   0  0  0  0  0  0  0  0  0  0  0  0
   14.8422  -22.2386   18.6263 N   0  0  0  0  0  0  0  0  0  0  0  0
   13.7788  -21.8261   17.7613 C   0  0  0  0  0  0  0  0  0  0  0  0
   13.1054  -20.5561   18.2310 C   0  0  0  0  0  0  0  0  0  0  0  0
   13.0304  -19.5182   17.1065 C   0  0  0  0  0  0  0  0  0  0  0  0
   11.6810  -18.8331   17.3053 C   0  0  2  0  0  0  0  0  0  0  0  0
   11.5188  -17.9029   16.2048 N   0  0  0  0  0  0  0  0  0  0  0  0
   11.5937  -18.1408   18.6166 C   0  0  0  0  0  0  0  0  0  0  0  0
   12.6666  -17.9373   19.2211 O   0  0  0  0  0  0  0  0  0  0  0  0
   16.7416  -22.6730   20.2965 N   0  0  0  0  0  0  0  0  0  0  0  0
    6.7867  -12.6126   18.9014 C   0  0  0  0  0  0  0  0  0  0  0  0
    7.2899  -13.1702   20.1025 N   0  0  0  0  0  0  0  0  0  0  0  0
    8.2418  -12.5259   20.7327 N   0  0  0  0  0  0  0  0  0  0  0  0
    6.7836  -14.3791   20.6132 C   0  0  0  0  0  0  0  0  0  0  0  0
    7.2484  -14.9497   21.8196 C   0  0  0  0  0  0  0  0  0  0  0  0
    8.5919  -15.6263   21.7883 C   0  0  0  0  0  0  0  0  0  0  0  0
    8.7429  -16.4278   20.5327 C   0  0  2  0  0  0  0  0  0  0  0  0
   10.0970  -17.1150   20.4039 N   0  0  0  0  0  0  0  0  0  0  0  0
   10.3773  -17.7290   19.1648 C   0  0  0  0  0  0  0  0  0  0  0  0
   10.3845  -17.8412   21.6293 O   0  0  0  0  0  0  0  0  0  0  0  0
    9.9026  -19.0123   21.7296 N   0  0  0  0  0  0  0  0  0  0  0  0
    8.7004  -12.9491   21.5560 C   0  0  2  0  0  0  0  0  0  0  0  0
   11.1452  -17.3749   22.7186 C   0  0  0  0  0  0  0  0  0  0  0  0
   11.5386  -18.1130   23.8725 C   0  0  0  0  0  0  0  0  0  0  0  0
   13.0011  -18.5084   23.8894 C   0  0  0  0  0  0  0  0  0  0  0  0
   13.3226  -19.4269   25.0346 C   0  0  0  0  0  0  0  0  0  0  0  0
   14.7854  -19.7863   24.9676 N   0  0  0  0  0  0  0  0  0  0  0  0
   15.2219  -20.7320   26.0568 C   0  0  0  0  0  0  0  0  0  0  0  0
   16.5929  -21.1633   25.7951 O   0  0  0  0  0  0  0  0  0  0  0  0
   11.2994  -17.3744   25.1426 O   0  0  0  0  0  0  0  0  0  0  0  0
  2  3  2  0
  2  1  1  0
  4  2  1  0
  5  4  1  0
  6  7  1  0
  6  5  1  0
  8 10  1  0
  8  7  1  0
  8  9  1  6
 10 11  2  0
 13 15  1  0
 13 12  1  0
 14 13  2  0
 16 15  1  0
 17 16  1  0
 17 18  1  0
 19 18  1  6
 20 10  1  0
 20 19  1  0
 21 23  1  0
 21 19  1  0
 22 21  2  0
 24 25  1  1
 24 23  1  0
 25 26  1  0
 26 27  1  0
 27 28  1  0
 28 29  1  0
 30 24  1  0
 30 31  1  0
 32 30  2  0
M  END
$$$$
