RRK.pdb
     RDKit          3D

 32 31  0  0  1  0  0  0  0  0999 V2000
    7.2320  -24.0072   25.2373 N   0  0  0  0  0  0  0  0  0  0  0  0
    5.9391  -23.7989   25.7890 C   0  0  0  0  0  0  0  0  0  0  0  0
    5.4868  -24.5837   26.7028 N   0  0  0  0  0  0  0  0  0  0  0  0
    5.0970  -22.7333   25.3633 N   0  0  0  0  0  0  0  0  0  0  0  0
    4.3541  -22.7642   24.1400 C   0  0  0  0  0  0  0  0  0  0  0  0
    4.6580  -21.5844   23.2442 C   0  0  0  0  0  0  0  0  0  0  0  0
    5.1474  -22.0439   21.8670 C   0  0  0  0  0  0  0  0  0  0  0  0
    5.3743  -20.7507   21.0886 C   0  0  2  0  0  0  0  0  0  0  0  0
    5.8068  -21.1341   19.7588 N   0  0  0  0  0  0  0  0  0  0  0  0
    6.3707  -19.8687   21.7488 C   0  0  0  0  0  0  0  0  0  0  0  0
    7.4736  -20.3776   22.0361 O   0  0  0  0  0  0  0  0  0  0  0  0
    4.5718  -24.4963   27.1509 N   0  0  0  0  0  0  0  0  0  0  0  0
    7.8127  -11.4419   20.1445 C   0  0  0  0  0  0  0  0  0  0  0  0
    8.1979  -12.7538   19.7739 N   0  0  0  0  0  0  0  0  0  0  0  0
    8.6882  -12.9387   18.5724 N   0  0  0  0  0  0  0  0  0  0  0  0
    8.0652  -13.8322   20.6672 C   0  0  0  0  0  0  0  0  0  0  0  0
    7.2458  -13.7718   21.8170 C   0  0  0  0  0  0  0  0  0  0  0  0
    7.1560  -15.0119   22.6643 C   0  0  0  0  0  0  0  0  0  0  0  0
    7.0413  -16.2279   21.7982 C   0  0  1  0  0  0  0  0  0  0  0  0
    6.9431  -17.5311   22.5821 N   0  0  0  0  0  0  0  0  0  0  0  0
    6.1050  -18.5299   22.0428 C   0  0  0  0  0  0  0  0  0  0  0  0
    6.8562  -17.2313   24.0014 O   0  0  0  0  0  0  0  0  0  0  0  0
    5.6913  -17.0956   24.4895 N   0  0  0  0  0  0  0  0  0  0  0  0
    8.9375  -13.8887   18.2521 C   0  0  1  0  0  0  0  0  0  0  0  0
    7.9368  -17.0759   24.8907 C   0  0  0  0  0  0  0  0  0  0  0  0
    8.2365  -17.8786   26.0297 C   0  0  0  0  0  0  0  0  0  0  0  0
    8.4147  -19.3517   25.7231 C   0  0  0  0  0  0  0  0  0  0  0  0
    8.8165  -20.1353   26.9409 C   0  0  0  0  0  0  0  0  0  0  0  0
    8.9678  -21.5843   26.5526 N   0  0  0  0  0  0  0  0  0  0  0  0
    9.3962  -22.4702   27.6941 C   0  0  0  0  0  0  0  0  0  0  0  0
    9.6524  -23.8156   27.1857 O   0  0  0  0  0  0  0  0  0  0  0  0
    9.4799  -17.4524   26.7283 O   0  0  0  0  0  0  0  0  0  0  0  0
  2  3  2  0
  2  1  1  0
  4  2  1  0
  5  4  1  0
  6  7  1  0
  6  5  1  0
  8 10  1  0
  8  7  1  0
  8  9  1  6
 10 11  2  0
 13 15  1  0
 13 12  1  0
 14 13  2  0
 16 15  1  0
 17 16  1  0
 17 18  1  0
 19 18  1  6
 20 10  1  0
 20 19  1  0
 21 23  1  0
 21 19  1  0
 22 21  2  0
 24 25  1  1
 24 23  1  0
 25 26  1  0
 26 27  1  0
 27 28  1  0
 28 29  1  0
 30 24  1  0
 30 31  1  0
 32 30  2  0
M  END
$$$$
