RRK.pdb
     RDKit          3D

 32 31  0  0  1  0  0  0  0  0999 V2000
   12.9076  -18.9605   15.6066 N   0  0  0  0  0  0  0  0  0  0  0  0
   14.1289  -18.7492   14.9113 C   0  0  0  0  0  0  0  0  0  0  0  0
   14.1253  -18.5070   13.6476 N   0  0  0  0  0  0  0  0  0  0  0  0
   15.3913  -18.7970   15.5669 N   0  0  0  0  0  0  0  0  0  0  0  0
   16.2566  -17.6624   15.6817 C   0  0  0  0  0  0  0  0  0  0  0  0
   15.5182  -16.4051   16.0828 C   0  0  0  0  0  0  0  0  0  0  0  0
   15.6296  -16.1521   17.5898 C   0  0  0  0  0  0  0  0  0  0  0  0
   14.8421  -14.8654   17.8226 C   0  0  2  0  0  0  0  0  0  0  0  0
   15.8068  -13.7831   17.8418 N   0  0  0  0  0  0  0  0  0  0  0  0
   14.0555  -14.9120   19.0818 C   0  0  0  0  0  0  0  0  0  0  0  0
   14.6990  -15.0035   20.1474 O   0  0  0  0  0  0  0  0  0  0  0  0
   14.9555  -18.2991   13.0880 N   0  0  0  0  0  0  0  0  0  0  0  0
    6.7879  -11.3131   18.9960 C   0  0  0  0  0  0  0  0  0  0  0  0
    7.3214  -12.6135   19.1725 N   0  0  0  0  0  0  0  0  0  0  0  0
    7.5056  -13.3566   18.1085 N   0  0  0  0  0  0  0  0  0  0  0  0
    7.6512  -13.0988   20.4510 C   0  0  0  0  0  0  0  0  0  0  0  0
    7.9809  -14.4521   20.6897 C   0  0  0  0  0  0  0  0  0  0  0  0
    9.4037  -14.7568   21.0726 C   0  0  0  0  0  0  0  0  0  0  0  0
   10.3071  -14.6002   19.8889 C   0  0  2  0  0  0  0  0  0  0  0  0
   11.7515  -15.0011   20.1637 N   0  0  0  0  0  0  0  0  0  0  0  0
   12.6603  -14.8573   19.0940 C   0  0  0  0  0  0  0  0  0  0  0  0
   11.7687  -16.2290   20.9406 O   0  0  0  0  0  0  0  0  0  0  0  0
   11.2551  -17.2578   20.4003 N   0  0  0  0  0  0  0  0  0  0  0  0
    7.8563  -14.3237   18.2030 C   0  0  1  0  0  0  0  0  0  0  0  0
   12.2987  -16.3922   22.2348 C   0  0  0  0  0  0  0  0  0  0  0  0
   12.2464  -17.5635   23.0450 C   0  0  0  0  0  0  0  0  0  0  0  0
   13.5892  -18.0007   23.5941 C   0  0  0  0  0  0  0  0  0  0  0  0
   14.5626  -18.3360   22.4994 C   0  0  0  0  0  0  0  0  0  0  0  0
   15.8668  -18.7580   23.1274 N   0  0  0  0  0  0  0  0  0  0  0  0
   16.8917  -19.2258   22.1264 C   0  0  0  0  0  0  0  0  0  0  0  0
   18.1491  -19.4955   22.8193 O   0  0  0  0  0  0  0  0  0  0  0  0
   11.3510  -17.4130   24.2246 O   0  0  0  0  0  0  0  0  0  0  0  0
  2  3  2  0
  2  1  1  0
  4  2  1  0
  5  4  1  0
  6  7  1  0
  6  5  1  0
  8 10  1  0
  8  7  1  0
  8  9  1  1
 10 11  2  0
 13 15  1  0
 13 12  1  0
 14 13  2  0
 16 15  1  0
 17 16  1  0
 17 18  1  0
 19 18  1  1
 20 10  1  0
 20 19  1  0
 21 23  1  0
 21 19  1  0
 22 21  2  0
 24 25  1  1
 24 23  1  0
 25 26  1  0
 26 27  1  0
 27 28  1  0
 28 29  1  0
 30 24  1  0
 30 31  1  0
 32 30  2  0
M  END
$$$$
