RRK.pdb
     RDKit          3D

 32 31  0  0  1  0  0  0  0  0999 V2000
   13.5848  -16.6772   15.7920 N   0  0  0  0  0  0  0  0  0  0  0  0
   13.7166  -17.8195   14.9569 C   0  0  0  0  0  0  0  0  0  0  0  0
   14.7828  -17.9963   14.2587 N   0  0  0  0  0  0  0  0  0  0  0  0
   12.6933  -18.8033   14.8529 N   0  0  0  0  0  0  0  0  0  0  0  0
   11.4727  -18.7443   15.5984 C   0  0  0  0  0  0  0  0  0  0  0  0
   11.6660  -19.0814   17.0599 C   0  0  0  0  0  0  0  0  0  0  0  0
   10.3321  -19.0728   17.8134 C   0  0  0  0  0  0  0  0  0  0  0  0
   10.7078  -19.3670   19.2633 C   0  0  2  0  0  0  0  0  0  0  0  0
    9.5760  -20.0517   19.8572 N   0  0  0  0  0  0  0  0  0  0  0  0
   11.0478  -18.1312   20.0141 C   0  0  0  0  0  0  0  0  0  0  0  0
   12.1785  -17.6416   19.8150 O   0  0  0  0  0  0  0  0  0  0  0  0
   14.9260  -18.7555   13.5888 N   0  0  0  0  0  0  0  0  0  0  0  0
    8.4356  -11.6104   19.0610 C   0  0  0  0  0  0  0  0  0  0  0  0
    7.5921  -12.5550   18.4262 N   0  0  0  0  0  0  0  0  0  0  0  0
    7.3929  -12.4381   17.1359 N   0  0  0  0  0  0  0  0  0  0  0  0
    6.9855  -13.5952   19.1533 C   0  0  0  0  0  0  0  0  0  0  0  0
    7.4923  -14.0561   20.3894 C   0  0  0  0  0  0  0  0  0  0  0  0
    8.8283  -14.7481   20.3705 C   0  0  0  0  0  0  0  0  0  0  0  0
    9.0902  -15.4116   21.6869 C   0  0  2  0  0  0  0  0  0  0  0  0
   10.2897  -16.3515   21.6709 N   0  0  0  0  0  0  0  0  0  0  0  0
   10.1575  -17.5298   20.9060 C   0  0  0  0  0  0  0  0  0  0  0  0
   10.8461  -16.4417   23.0104 O   0  0  0  0  0  0  0  0  0  0  0  0
   10.0700  -16.8532   23.9281 N   0  0  0  0  0  0  0  0  0  0  0  0
    6.8613  -13.1606   16.6234 C   0  0  1  0  0  0  0  0  0  0  0  0
   12.1618  -16.1175   23.3927 C   0  0  0  0  0  0  0  0  0  0  0  0
   12.8823  -16.6246   24.5130 C   0  0  0  0  0  0  0  0  0  0  0  0
   13.0278  -18.1327   24.5282 C   0  0  0  0  0  0  0  0  0  0  0  0
   13.7448  -18.6164   25.7572 C   0  0  0  0  0  0  0  0  0  0  0  0
   13.9150  -20.1113   25.6582 N   0  0  0  0  0  0  0  0  0  0  0  0
   14.6514  -20.7106   26.8286 C   0  0  0  0  0  0  0  0  0  0  0  0
   14.8314  -22.1420   26.5987 O   0  0  0  0  0  0  0  0  0  0  0  0
   14.2640  -16.0790   24.6090 O   0  0  0  0  0  0  0  0  0  0  0  0
  2  3  2  0
  2  1  1  0
  4  2  1  0
  5  4  1  0
  6  7  1  0
  6  5  1  0
  8 10  1  0
  8  7  1  0
  8  9  1  1
 10 11  2  0
 13 15  1  0
 13 12  1  0
 14 13  2  0
 16 15  1  0
 17 16  1  0
 17 18  1  0
 19 18  1  6
 20 10  1  0
 20 19  1  0
 21 23  1  0
 21 19  1  0
 22 21  2  0
 24 25  1  1
 24 23  1  0
 25 26  1  0
 26 27  1  0
 27 28  1  0
 28 29  1  0
 30 24  1  0
 30 31  1  0
 32 30  2  0
M  END
$$$$
