RRK.pdb
     RDKit          3D

 32 31  0  0  1  0  0  0  0  0999 V2000
   13.2996  -19.5335   13.4211 N   0  0  0  0  0  0  0  0  0  0  0  0
   13.2596  -20.7889   12.7561 C   0  0  0  0  0  0  0  0  0  0  0  0
   13.8699  -20.9518   11.6351 N   0  0  0  0  0  0  0  0  0  0  0  0
   12.5536  -21.9048   13.2873 N   0  0  0  0  0  0  0  0  0  0  0  0
   11.8860  -21.8774   14.5533 C   0  0  0  0  0  0  0  0  0  0  0  0
   12.2426  -20.6580   15.3735 C   0  0  0  0  0  0  0  0  0  0  0  0
   11.5738  -20.7000   16.7513 C   0  0  0  0  0  0  0  0  0  0  0  0
   10.6741  -19.4674   16.7795 C   0  0  2  0  0  0  0  0  0  0  0  0
   10.9253  -18.7389   15.5512 N   0  0  0  0  0  0  0  0  0  0  0  0
   10.9253  -18.6194   17.9730 C   0  0  0  0  0  0  0  0  0  0  0  0
   12.1132  -18.3237   18.2166 O   0  0  0  0  0  0  0  0  0  0  0  0
   13.9097  -21.8289   11.1111 N   0  0  0  0  0  0  0  0  0  0  0  0
    7.5502  -12.0012   22.1203 C   0  0  0  0  0  0  0  0  0  0  0  0
    7.6174  -12.8346   20.9768 N   0  0  0  0  0  0  0  0  0  0  0  0
    8.1697  -12.3515   19.8905 N   0  0  0  0  0  0  0  0  0  0  0  0
    7.1120  -14.1471   21.0005 C   0  0  0  0  0  0  0  0  0  0  0  0
    7.5509  -15.1150   21.9320 C   0  0  0  0  0  0  0  0  0  0  0  0
    8.8351  -15.8355   21.6225 C   0  0  0  0  0  0  0  0  0  0  0  0
    8.6915  -16.6416   20.3689 C   0  0  2  0  0  0  0  0  0  0  0  0
    9.9451  -17.4246   19.9974 N   0  0  0  0  0  0  0  0  0  0  0  0
    9.8940  -18.1642   18.7969 C   0  0  0  0  0  0  0  0  0  0  0  0
   10.4871  -18.0552   21.1891 O   0  0  0  0  0  0  0  0  0  0  0  0
    9.7459  -18.9018   21.7787 N   0  0  0  0  0  0  0  0  0  0  0  0
    8.1872  -12.9109   19.0221 C   0  0  2  0  0  0  0  0  0  0  0  0
   11.7543  -17.8205   21.7563 C   0  0  0  0  0  0  0  0  0  0  0  0
   12.2549  -18.3351   22.9875 C   0  0  0  0  0  0  0  0  0  0  0  0
   13.5548  -17.7038   23.4430 C   0  0  0  0  0  0  0  0  0  0  0  0
   14.6136  -18.7335   23.7205 C   0  0  0  0  0  0  0  0  0  0  0  0
   15.8977  -18.0227   24.0658 N   0  0  0  0  0  0  0  0  0  0  0  0
   17.0540  -18.9575   24.3120 C   0  0  0  0  0  0  0  0  0  0  0  0
   18.2785  -18.1750   24.4616 O   0  0  0  0  0  0  0  0  0  0  0  0
   11.3002  -18.1671   24.1171 O   0  0  0  0  0  0  0  0  0  0  0  0
  2  3  2  0
  2  1  1  0
  4  2  1  0
  5  4  1  0
  6  7  1  0
  6  5  1  0
  8 10  1  0
  8  7  1  0
  8  9  1  6
 10 11  2  0
 13 15  1  0
 13 12  1  0
 14 13  2  0
 16 15  1  0
 17 16  1  0
 17 18  1  0
 19 18  1  6
 20 10  1  0
 20 19  1  0
 21 23  1  0
 21 19  1  0
 22 21  2  0
 24 25  1  1
 24 23  1  0
 25 26  1  0
 26 27  1  0
 27 28  1  0
 28 29  1  0
 30 24  1  0
 30 31  1  0
 32 30  2  0
M  END
$$$$
