RRK.pdb
     RDKit          3D

 32 31  0  0  1  0  0  0  0  0999 V2000
    3.8158  -24.7513   19.4385 N   0  0  0  0  0  0  0  0  0  0  0  0
    4.8425  -25.0132   20.3856 C   0  0  0  0  0  0  0  0  0  0  0  0
    4.6548  -25.8667   21.3301 N   0  0  0  0  0  0  0  0  0  0  0  0
    6.1032  -24.3544   20.3372 N   0  0  0  0  0  0  0  0  0  0  0  0
    6.2433  -22.9504   20.0957 C   0  0  0  0  0  0  0  0  0  0  0  0
    6.5602  -22.6368   18.6507 C   0  0  0  0  0  0  0  0  0  0  0  0
    8.0311  -22.2453   18.4766 C   0  0  0  0  0  0  0  0  0  0  0  0
    7.9904  -20.9393   17.6875 C   0  0  2  0  0  0  0  0  0  0  0  0
    8.6149  -21.2059   16.4063 N   0  0  0  0  0  0  0  0  0  0  0  0
    8.6747  -19.8324   18.4036 C   0  0  0  0  0  0  0  0  0  0  0  0
    9.9184  -19.8967   18.4874 O   0  0  0  0  0  0  0  0  0  0  0  0
    5.3433  -26.1100   22.0460 N   0  0  0  0  0  0  0  0  0  0  0  0
    8.7983  -11.2812   19.6455 C   0  0  0  0  0  0  0  0  0  0  0  0
    8.5583  -12.4850   20.3525 N   0  0  0  0  0  0  0  0  0  0  0  0
    9.5277  -12.9761   21.0855 N   0  0  0  0  0  0  0  0  0  0  0  0
    7.3148  -13.1384   20.2785 C   0  0  0  0  0  0  0  0  0  0  0  0
    7.0383  -14.3309   20.9846 C   0  0  0  0  0  0  0  0  0  0  0  0
    8.0321  -15.4533   20.8558 C   0  0  0  0  0  0  0  0  0  0  0  0
    7.4537  -16.5712   20.0450 C   0  0  2  0  0  0  0  0  0  0  0  0
    8.4260  -17.7198   19.8043 N   0  0  0  0  0  0  0  0  0  0  0  0
    7.9770  -18.7606   18.9640 C   0  0  0  0  0  0  0  0  0  0  0  0
    9.0849  -18.0599   21.0541 O   0  0  0  0  0  0  0  0  0  0  0  0
    8.4092  -18.7298   21.8959 N   0  0  0  0  0  0  0  0  0  0  0  0
    9.4231  -13.8996   21.5366 C   0  0  2  0  0  0  0  0  0  0  0  0
   10.3998  -17.7201   21.4254 C   0  0  0  0  0  0  0  0  0  0  0  0
   11.0602  -18.0432   22.6463 C   0  0  0  0  0  0  0  0  0  0  0  0
   12.5168  -18.4273   22.4831 C   0  0  0  0  0  0  0  0  0  0  0  0
   13.1307  -18.8709   23.7811 C   0  0  0  0  0  0  0  0  0  0  0  0
   14.5488  -19.3099   23.5177 N   0  0  0  0  0  0  0  0  0  0  0  0
   15.2598  -19.8132   24.7476 C   0  0  0  0  0  0  0  0  0  0  0  0
   16.6443  -20.1288   24.4045 O   0  0  0  0  0  0  0  0  0  0  0  0
   11.0391  -16.9263   23.6301 O   0  0  0  0  0  0  0  0  0  0  0  0
  2  3  2  0
  2  1  1  0
  4  2  1  0
  5  4  1  0
  6  7  1  0
  6  5  1  0
  8 10  1  0
  8  7  1  0
  8  9  1  6
 10 11  2  0
 13 15  1  0
 13 12  1  0
 14 13  2  0
 16 15  1  0
 17 16  1  0
 17 18  1  0
 19 18  1  6
 20 10  1  0
 20 19  1  0
 21 23  1  0
 21 19  1  0
 22 21  2  0
 24 25  1  1
 24 23  1  0
 25 26  1  0
 26 27  1  0
 27 28  1  0
 28 29  1  0
 30 24  1  0
 30 31  1  0
 32 30  2  0
M  END
$$$$
