RRK.pdb
     RDKit          3D

 32 31  0  0  1  0  0  0  0  0999 V2000
   10.9079  -25.0143   15.3502 N   0  0  0  0  0  0  0  0  0  0  0  0
   11.7981  -24.3773   16.2563 C   0  0  0  0  0  0  0  0  0  0  0  0
   13.0697  -24.5349   16.1391 N   0  0  0  0  0  0  0  0  0  0  0  0
   11.3342  -23.5517   17.3189 N   0  0  0  0  0  0  0  0  0  0  0  0
   10.1384  -22.7692   17.2366 C   0  0  0  0  0  0  0  0  0  0  0  0
    9.8772  -21.9708   18.4941 C   0  0  0  0  0  0  0  0  0  0  0  0
    8.4812  -21.3400   18.4720 C   0  0  0  0  0  0  0  0  0  0  0  0
    8.6955  -19.9533   17.8711 C   0  0  2  0  0  0  0  0  0  0  0  0
    9.6614  -20.1069   16.8006 N   0  0  0  0  0  0  0  0  0  0  0  0
    9.1611  -18.9715   18.8838 C   0  0  0  0  0  0  0  0  0  0  0  0
   10.3432  -19.0756   19.2706 O   0  0  0  0  0  0  0  0  0  0  0  0
   13.7723  -24.1048   16.7450 N   0  0  0  0  0  0  0  0  0  0  0  0
    8.4882  -11.5458   22.5977 C   0  0  0  0  0  0  0  0  0  0  0  0
    7.8423  -11.4726   21.3390 N   0  0  0  0  0  0  0  0  0  0  0  0
    7.9424  -10.3583   20.6559 N   0  0  0  0  0  0  0  0  0  0  0  0
    7.1160  -12.5633   20.8278 C   0  0  0  0  0  0  0  0  0  0  0  0
    6.9009  -13.7483   21.5673 C   0  0  0  0  0  0  0  0  0  0  0  0
    7.9622  -14.8118   21.4873 C   0  0  0  0  0  0  0  0  0  0  0  0
    7.5646  -15.8724   20.5081 C   0  0  2  0  0  0  0  0  0  0  0  0
    8.5666  -17.0159   20.4034 N   0  0  0  0  0  0  0  0  0  0  0  0
    8.3302  -17.9710   19.3920 C   0  0  0  0  0  0  0  0  0  0  0  0
    8.9101  -17.4759   21.7383 O   0  0  0  0  0  0  0  0  0  0  0  0
    8.0143  -18.1136   22.3744 N   0  0  0  0  0  0  0  0  0  0  0  0
    7.4451  -10.2522   19.7566 C   0  0  1  0  0  0  0  0  0  0  0  0
   10.1393  -17.2845   22.3981 C   0  0  0  0  0  0  0  0  0  0  0  0
   10.5165  -17.7858   23.6778 C   0  0  0  0  0  0  0  0  0  0  0  0
   11.9802  -18.1600   23.7926 C   0  0  0  0  0  0  0  0  0  0  0  0
   12.2638  -19.5114   23.1995 C   0  0  0  0  0  0  0  0  0  0  0  0
   13.7480  -19.7668   23.2714 N   0  0  0  0  0  0  0  0  0  0  0  0
   14.1452  -21.1385   22.7897 C   0  0  0  0  0  0  0  0  0  0  0  0
   15.5944  -21.2843   22.9025 O   0  0  0  0  0  0  0  0  0  0  0  0
   10.2532  -16.8200   24.7794 O   0  0  0  0  0  0  0  0  0  0  0  0
  2  3  2  0
  2  1  1  0
  4  2  1  0
  5  4  1  0
  6  7  1  0
  6  5  1  0
  8 10  1  0
  8  7  1  0
  8  9  1  6
 10 11  2  0
 13 15  1  0
 13 12  1  0
 14 13  2  0
 16 15  1  0
 17 16  1  0
 17 18  1  0
 19 18  1  6
 20 10  1  0
 20 19  1  0
 21 23  1  0
 21 19  1  0
 22 21  2  0
 24 25  1  1
 24 23  1  0
 25 26  1  0
 26 27  1  0
 27 28  1  0
 28 29  1  0
 30 24  1  0
 30 31  1  0
 32 30  2  0
M  END
$$$$
