RRK.pdb
     RDKit          3D

 32 31  0  0  1  0  0  0  0  0999 V2000
   15.0772  -18.7441   14.8084 N   0  0  0  0  0  0  0  0  0  0  0  0
   16.1407  -17.9855   15.3680 C   0  0  0  0  0  0  0  0  0  0  0  0
   17.2682  -17.8940   14.7550 N   0  0  0  0  0  0  0  0  0  0  0  0
   16.0126  -17.3052   16.6117 N   0  0  0  0  0  0  0  0  0  0  0  0
   14.8252  -17.3515   17.4100 C   0  0  0  0  0  0  0  0  0  0  0  0
   14.2560  -18.7477   17.5265 C   0  0  0  0  0  0  0  0  0  0  0  0
   14.4301  -19.3023   18.9441 C   0  0  0  0  0  0  0  0  0  0  0  0
   13.0491  -19.8309   19.3223 C   0  0  2  0  0  0  0  0  0  0  0  0
   12.2722  -19.8823   18.0990 N   0  0  0  0  0  0  0  0  0  0  0  0
   12.3883  -18.9837   20.3480 C   0  0  0  0  0  0  0  0  0  0  0  0
   12.9822  -18.8480   21.4374 O   0  0  0  0  0  0  0  0  0  0  0  0
   18.0859  -17.3884   15.1035 N   0  0  0  0  0  0  0  0  0  0  0  0
    7.3605  -12.1599   19.7337 C   0  0  0  0  0  0  0  0  0  0  0  0
    8.2986  -13.0529   19.1599 N   0  0  0  0  0  0  0  0  0  0  0  0
    8.8381  -12.7289   18.0100 N   0  0  0  0  0  0  0  0  0  0  0  0
    8.6498  -14.2536   19.8029 C   0  0  0  0  0  0  0  0  0  0  0  0
    7.7827  -14.9193   20.6985 C   0  0  0  0  0  0  0  0  0  0  0  0
    8.3054  -16.1615   21.3676 C   0  0  0  0  0  0  0  0  0  0  0  0
    9.0928  -16.9849   20.3961 C   0  0  2  0  0  0  0  0  0  0  0  0
   10.3352  -17.6260   21.0026 N   0  0  0  0  0  0  0  0  0  0  0  0
   11.1596  -18.3596   20.1233 C   0  0  0  0  0  0  0  0  0  0  0  0
    9.9962  -18.2017   22.2931 O   0  0  0  0  0  0  0  0  0  0  0  0
    9.0846  -19.0864   22.3058 N   0  0  0  0  0  0  0  0  0  0  0  0
    9.4650  -13.3907   17.5239 C   0  0  2  0  0  0  0  0  0  0  0  0
   10.5784  -17.8756   23.5330 C   0  0  0  0  0  0  0  0  0  0  0  0
   10.3186  -18.4878   24.7935 C   0  0  0  0  0  0  0  0  0  0  0  0
   11.4977  -18.4774   25.7450 C   0  0  0  0  0  0  0  0  0  0  0  0
   11.2043  -19.2288   27.0130 C   0  0  0  0  0  0  0  0  0  0  0  0
   12.4491  -19.2425   27.8635 N   0  0  0  0  0  0  0  0  0  0  0  0
   12.3018  -20.0450   29.1307 C   0  0  0  0  0  0  0  0  0  0  0  0
   13.5295  -19.9320   29.9143 O   0  0  0  0  0  0  0  0  0  0  0  0
    9.1938  -17.8470   25.5284 O   0  0  0  0  0  0  0  0  0  0  0  0
  2  3  2  0
  2  1  1  0
  4  2  1  0
  5  4  1  0
  6  7  1  0
  6  5  1  0
  8 10  1  0
  8  7  1  0
  8  9  1  6
 10 11  2  0
 13 15  1  0
 13 12  1  0
 14 13  2  0
 16 15  1  0
 17 16  1  0
 17 18  1  0
 19 18  1  6
 20 10  1  0
 20 19  1  0
 21 23  1  0
 21 19  1  0
 22 21  2  0
 24 25  1  1
 24 23  1  0
 25 26  1  0
 26 27  1  0
 27 28  1  0
 28 29  1  0
 30 24  1  0
 30 31  1  0
 32 30  2  0
M  END
$$$$
