RRK.pdb
     RDKit          3D

 32 31  0  0  1  0  0  0  0  0999 V2000
    7.0040  -17.1888   13.2317 N   0  0  0  0  0  0  0  0  0  0  0  0
    8.1335  -16.5644   13.8265 C   0  0  0  0  0  0  0  0  0  0  0  0
    8.4464  -15.3549   13.5186 N   0  0  0  0  0  0  0  0  0  0  0  0
    8.9591  -17.2355   14.7720 N   0  0  0  0  0  0  0  0  0  0  0  0
   10.0538  -16.6025   15.4430 C   0  0  0  0  0  0  0  0  0  0  0  0
    9.6286  -15.3815   16.2272 C   0  0  0  0  0  0  0  0  0  0  0  0
    9.9655  -15.5309   17.7144 C   0  0  0  0  0  0  0  0  0  0  0  0
    9.3427  -14.3038   18.3747 C   0  0  2  0  0  0  0  0  0  0  0  0
    9.9535  -13.1424   17.7578 N   0  0  0  0  0  0  0  0  0  0  0  0
    9.5396  -14.3013   19.8470 C   0  0  0  0  0  0  0  0  0  0  0  0
   10.6969  -14.0863   20.2623 O   0  0  0  0  0  0  0  0  0  0  0  0
    9.2303  -14.8325   13.9164 N   0  0  0  0  0  0  0  0  0  0  0  0
    8.3885  -13.1468   26.4933 C   0  0  0  0  0  0  0  0  0  0  0  0
    7.0929  -13.0031   27.0478 N   0  0  0  0  0  0  0  0  0  0  0  0
    6.9929  -12.5945   28.2893 N   0  0  0  0  0  0  0  0  0  0  0  0
    5.9409  -13.2845   26.2913 C   0  0  0  0  0  0  0  0  0  0  0  0
    5.9802  -13.4945   24.8943 C   0  0  0  0  0  0  0  0  0  0  0  0
    7.2592  -14.0358   24.3153 C   0  0  0  0  0  0  0  0  0  0  0  0
    7.2093  -14.0022   22.8192 C   0  0  1  0  0  0  0  0  0  0  0  0
    8.4792  -14.5176   22.1526 N   0  0  0  0  0  0  0  0  0  0  0  0
    8.4915  -14.5268   20.7416 C   0  0  0  0  0  0  0  0  0  0  0  0
    8.9538  -15.6904   22.8674 O   0  0  0  0  0  0  0  0  0  0  0  0
    8.3656  -16.7894   22.6226 N   0  0  0  0  0  0  0  0  0  0  0  0
    6.0638  -12.4712   28.7238 C   0  0  2  0  0  0  0  0  0  0  0  0
   10.0024  -15.7296   23.8063 C   0  0  0  0  0  0  0  0  0  0  0  0
   10.5140  -16.8780   24.4777 C   0  0  0  0  0  0  0  0  0  0  0  0
   11.5195  -16.5651   25.5671 C   0  0  0  0  0  0  0  0  0  0  0  0
   10.8624  -15.9957   26.7928 C   0  0  0  0  0  0  0  0  0  0  0  0
   11.9295  -15.6902   27.8132 N   0  0  0  0  0  0  0  0  0  0  0  0
   11.3982  -15.0258   29.0573 C   0  0  0  0  0  0  0  0  0  0  0  0
   12.5060  -14.7733   29.9755 O   0  0  0  0  0  0  0  0  0  0  0  0
    9.4499  -17.6934   25.1246 O   0  0  0  0  0  0  0  0  0  0  0  0
  2  3  2  0
  2  1  1  0
  4  2  1  0
  5  4  1  0
  6  7  1  0
  6  5  1  0
  8 10  1  0
  8  7  1  0
  8  9  1  6
 10 11  2  0
 13 15  1  0
 13 12  1  0
 14 13  2  0
 16 15  1  0
 17 16  1  0
 17 18  1  0
 19 18  1  6
 20 10  1  0
 20 19  1  0
 21 23  1  0
 21 19  1  0
 22 21  2  0
 24 25  1  1
 24 23  1  0
 25 26  1  0
 26 27  1  0
 27 28  1  0
 28 29  1  0
 30 24  1  0
 30 31  1  0
 32 30  2  0
M  END
$$$$
