RRK.pdb
     RDKit          3D

 32 31  0  0  1  0  0  0  0  0999 V2000
    9.6930  -14.9295   15.4148 N   0  0  0  0  0  0  0  0  0  0  0  0
    8.6078  -14.0207   15.5410 C   0  0  0  0  0  0  0  0  0  0  0  0
    8.2778  -13.2599   14.5572 N   0  0  0  0  0  0  0  0  0  0  0  0
    7.8495  -13.9089   16.7403 N   0  0  0  0  0  0  0  0  0  0  0  0
    7.6970  -14.9845   17.6725 C   0  0  0  0  0  0  0  0  0  0  0  0
    8.9583  -15.8043   17.8272 C   0  0  0  0  0  0  0  0  0  0  0  0
    9.1818  -16.2100   19.2876 C   0  0  0  0  0  0  0  0  0  0  0  0
    9.6630  -14.9332   19.9718 C   0  0  2  0  0  0  0  0  0  0  0  0
   10.9231  -14.5756   19.3498 N   0  0  0  0  0  0  0  0  0  0  0  0
    9.8140  -15.1085   21.4390 C   0  0  0  0  0  0  0  0  0  0  0  0
   10.9252  -15.5011   21.8502 O   0  0  0  0  0  0  0  0  0  0  0  0
    7.5573  -12.5350   14.5924 N   0  0  0  0  0  0  0  0  0  0  0  0
    5.9194  -13.2993   27.2400 C   0  0  0  0  0  0  0  0  0  0  0  0
    5.8902  -11.9268   26.8905 N   0  0  0  0  0  0  0  0  0  0  0  0
    4.9389  -11.1796   27.3957 N   0  0  0  0  0  0  0  0  0  0  0  0
    6.8549  -11.3731   26.0295 C   0  0  0  0  0  0  0  0  0  0  0  0
    7.8369  -12.1567   25.3824 C   0  0  0  0  0  0  0  0  0  0  0  0
    7.4020  -12.9506   24.1805 C   0  0  0  0  0  0  0  0  0  0  0  0
    7.5250  -14.4178   24.4525 C   0  0  2  0  0  0  0  0  0  0  0  0
    8.6876  -15.0804   23.7232 N   0  0  0  0  0  0  0  0  0  0  0  0
    8.7731  -14.8515   22.3335 C   0  0  0  0  0  0  0  0  0  0  0  0
    8.8596  -16.4334   24.2248 O   0  0  0  0  0  0  0  0  0  0  0  0
    7.9875  -17.2896   23.8780 N   0  0  0  0  0  0  0  0  0  0  0  0
    4.9266  -10.1619   27.2188 C   0  0  1  0  0  0  0  0  0  0  0  0
    9.8982  -16.8903   25.0584 C   0  0  0  0  0  0  0  0  0  0  0  0
   10.5275  -18.1686   25.0275 C   0  0  0  0  0  0  0  0  0  0  0  0
   11.4452  -18.3818   23.8408 C   0  0  0  0  0  0  0  0  0  0  0  0
   12.0911  -19.7385   23.8654 C   0  0  0  0  0  0  0  0  0  0  0  0
   12.9594  -19.8805   22.6410 N   0  0  0  0  0  0  0  0  0  0  0  0
   13.6123  -21.2337   22.5215 C   0  0  0  0  0  0  0  0  0  0  0  0
   14.4680  -21.2494   21.3377 O   0  0  0  0  0  0  0  0  0  0  0  0
   11.3528  -18.4381   26.2367 O   0  0  0  0  0  0  0  0  0  0  0  0
  2  3  2  0
  2  1  1  0
  4  2  1  0
  5  4  1  0
  6  7  1  0
  6  5  1  0
  8 10  1  0
  8  7  1  0
  8  9  1  6
 10 11  2  0
 13 15  1  0
 13 12  1  0
 14 13  2  0
 16 15  1  0
 17 16  1  0
 17 18  1  0
 19 18  1  1
 20 10  1  0
 20 19  1  0
 21 23  1  0
 21 19  1  0
 22 21  2  0
 24 25  1  1
 24 23  1  0
 25 26  1  0
 26 27  1  0
 27 28  1  0
 28 29  1  0
 30 24  1  0
 30 31  1  0
 32 30  2  0
M  END
$$$$
