RRK.pdb
     RDKit          3D

 32 31  0  0  1  0  0  0  0  0999 V2000
   17.6260  -20.3047   13.7552 N   0  0  0  0  0  0  0  0  0  0  0  0
   16.2110  -20.4369   13.7570 C   0  0  0  0  0  0  0  0  0  0  0  0
   15.5181  -20.0346   12.7502 N   0  0  0  0  0  0  0  0  0  0  0  0
   15.5054  -21.0079   14.8533 N   0  0  0  0  0  0  0  0  0  0  0  0
   15.7954  -20.6931   16.2194 C   0  0  0  0  0  0  0  0  0  0  0  0
   14.6525  -19.9818   16.9083 C   0  0  0  0  0  0  0  0  0  0  0  0
   14.7648  -18.4625   16.7456 C   0  0  0  0  0  0  0  0  0  0  0  0
   13.3278  -17.9579   16.8470 C   0  0  2  0  0  0  0  0  0  0  0  0
   13.0172  -17.3247   15.5801 N   0  0  0  0  0  0  0  0  0  0  0  0
   13.1448  -17.0170   17.9818 C   0  0  0  0  0  0  0  0  0  0  0  0
   13.9022  -16.0258   18.0222 O   0  0  0  0  0  0  0  0  0  0  0  0
   14.4979  -20.0681   12.6894 N   0  0  0  0  0  0  0  0  0  0  0  0
    6.5951  -13.8183   17.8878 C   0  0  0  0  0  0  0  0  0  0  0  0
    7.4662  -13.4232   18.9327 N   0  0  0  0  0  0  0  0  0  0  0  0
    7.6654  -12.1414   19.1210 N   0  0  0  0  0  0  0  0  0  0  0  0
    8.0996  -14.3747   19.7526 C   0  0  0  0  0  0  0  0  0  0  0  0
    8.8960  -14.0131   20.8626 C   0  0  0  0  0  0  0  0  0  0  0  0
   10.1185  -14.8474   21.1338 C   0  0  0  0  0  0  0  0  0  0  0  0
   10.4764  -15.6557   19.9253 C   0  0  1  0  0  0  0  0  0  0  0  0
   11.8017  -16.3970   20.0551 N   0  0  0  0  0  0  0  0  0  0  0  0
   12.1760  -17.2147   18.9678 C   0  0  0  0  0  0  0  0  0  0  0  0
   11.9278  -16.9208   21.4047 O   0  0  0  0  0  0  0  0  0  0  0  0
   11.8131  -18.1781   21.5460 N   0  0  0  0  0  0  0  0  0  0  0  0
    8.3139  -11.8177   19.8572 C   0  0  2  0  0  0  0  0  0  0  0  0
   12.1647  -16.1720   22.5734 C   0  0  0  0  0  0  0  0  0  0  0  0
   12.3399  -16.6732   23.8960 C   0  0  0  0  0  0  0  0  0  0  0  0
   11.3021  -17.6936   24.3172 C   0  0  0  0  0  0  0  0  0  0  0  0
   11.5058  -18.1516   25.7339 C   0  0  0  0  0  0  0  0  0  0  0  0
   10.4806  -19.2112   26.0495 N   0  0  0  0  0  0  0  0  0  0  0  0
   10.5493  -19.7089   27.4704 C   0  0  0  0  0  0  0  0  0  0  0  0
    9.6086  -20.8142   27.6364 O   0  0  0  0  0  0  0  0  0  0  0  0
   13.6621  -17.3265   24.0981 O   0  0  0  0  0  0  0  0  0  0  0  0
  2  3  2  0
  2  1  1  0
  4  2  1  0
  5  4  1  0
  6  7  1  0
  6  5  1  0
  8 10  1  0
  8  7  1  0
  8  9  1  6
 10 11  2  0
 13 15  1  0
 13 12  1  0
 14 13  2  0
 16 15  1  0
 17 16  1  0
 17 18  1  0
 19 18  1  6
 20 10  1  0
 20 19  1  0
 21 23  1  0
 21 19  1  0
 22 21  2  0
 24 25  1  6
 24 23  1  0
 25 26  1  0
 26 27  1  0
 27 28  1  0
 28 29  1  0
 30 24  1  0
 30 31  1  0
 32 30  2  0
M  END
$$$$
