RRK.pdb
     RDKit          3D

 32 31  0  0  1  0  0  0  0  0999 V2000
   13.2151  -23.8154   22.0379 N   0  0  0  0  0  0  0  0  0  0  0  0
   12.6664  -24.7912   22.9133 C   0  0  0  0  0  0  0  0  0  0  0  0
   12.9251  -26.0398   22.7408 N   0  0  0  0  0  0  0  0  0  0  0  0
   11.8179  -24.4409   24.0010 N   0  0  0  0  0  0  0  0  0  0  0  0
   11.3876  -23.0998   24.2569 C   0  0  0  0  0  0  0  0  0  0  0  0
   10.8870  -22.4014   23.0126 C   0  0  0  0  0  0  0  0  0  0  0  0
   10.5006  -20.9485   23.3081 C   0  0  0  0  0  0  0  0  0  0  0  0
    9.9797  -20.4112   21.9777 C   0  0  2  0  0  0  0  0  0  0  0  0
   10.9082  -20.8545   20.9560 N   0  0  0  0  0  0  0  0  0  0  0  0
    9.8490  -18.9316   21.9854 C   0  0  0  0  0  0  0  0  0  0  0  0
   10.8985  -18.2720   22.1321 O   0  0  0  0  0  0  0  0  0  0  0  0
   12.5197  -26.8036   23.2867 N   0  0  0  0  0  0  0  0  0  0  0  0
    7.7718  -11.6685   20.0283 C   0  0  0  0  0  0  0  0  0  0  0  0
    8.4090  -12.5920   19.1636 N   0  0  0  0  0  0  0  0  0  0  0  0
    9.3154  -12.1378   18.3325 N   0  0  0  0  0  0  0  0  0  0  0  0
    8.0866  -13.9609   19.1936 C   0  0  0  0  0  0  0  0  0  0  0  0
    6.8769  -14.4461   19.7399 C   0  0  0  0  0  0  0  0  0  0  0  0
    6.9161  -14.9556   21.1551 C   0  0  0  0  0  0  0  0  0  0  0  0
    7.0734  -16.4445   21.1689 C   0  0  2  0  0  0  0  0  0  0  0  0
    8.2801  -16.9254   21.9659 N   0  0  0  0  0  0  0  0  0  0  0  0
    8.6182  -18.2892   21.8371 C   0  0  0  0  0  0  0  0  0  0  0  0
    8.2464  -16.3316   23.2919 O   0  0  0  0  0  0  0  0  0  0  0  0
    7.1473  -16.4022   23.9250 N   0  0  0  0  0  0  0  0  0  0  0  0
    9.8010  -12.7829   17.6880 C   0  0  2  0  0  0  0  0  0  0  0  0
    9.3125  -15.6846   23.9455 C   0  0  0  0  0  0  0  0  0  0  0  0
    9.2738  -15.0217   25.2066 C   0  0  0  0  0  0  0  0  0  0  0  0
    7.8938  -14.5529   25.6208 C   0  0  0  0  0  0  0  0  0  0  0  0
    7.5574  -13.2092   25.0380 C   0  0  0  0  0  0  0  0  0  0  0  0
    6.4624  -12.5858   25.8659 N   0  0  0  0  0  0  0  0  0  0  0  0
    6.0353  -11.2275   25.3718 C   0  0  0  0  0  0  0  0  0  0  0  0
    4.9103  -10.7574   26.1765 O   0  0  0  0  0  0  0  0  0  0  0  0
    9.7701  -15.8711   26.3236 O   0  0  0  0  0  0  0  0  0  0  0  0
  2  3  2  0
  2  1  1  0
  4  2  1  0
  5  4  1  0
  6  7  1  0
  6  5  1  0
  8 10  1  0
  8  7  1  0
  8  9  1  6
 10 11  2  0
 13 15  1  0
 13 12  1  0
 14 13  2  0
 16 15  1  0
 17 16  1  0
 17 18  1  0
 19 18  1  6
 20 10  1  0
 20 19  1  0
 21 23  1  0
 21 19  1  0
 22 21  2  0
 24 25  1  6
 24 23  1  0
 25 26  1  0
 26 27  1  0
 27 28  1  0
 28 29  1  0
 30 24  1  0
 30 31  1  0
 32 30  2  0
M  END
$$$$
