MVF.pdb
     RDKit          3D

 27 27  0  0  1  0  0  0  0  0999 V2000
    7.2492  -11.2256   20.4026 C   0  0  0  0  0  0  0  0  0  0  0  0
    8.0205  -12.7531   19.8984 S   0  0  0  0  0  0  0  0  0  0  0  0
    7.0290  -14.1815   20.2829 C   0  0  0  0  0  0  0  0  0  0  0  0
    7.7037  -15.5113   20.1043 C   0  0  0  0  0  0  0  0  0  0  0  0
    6.8587  -16.7061   20.4178 C   0  0  2  0  0  0  0  0  0  0  0  0
    5.5233  -16.5064   19.8769 N   0  0  0  0  0  0  0  0  0  0  0  0
    6.7617  -16.8181   21.9165 C   0  0  0  0  0  0  0  0  0  0  0  0
    5.9562  -16.0849   22.4965 O   0  0  0  0  0  0  0  0  0  0  0  0
    7.8643  -20.4743   24.0248 C   0  0  0  0  0  0  0  0  0  0  0  0
    7.0272  -19.2537   24.3239 C   0  0  2  0  0  0  0  0  0  0  0  0
    5.5874  -19.4590   23.8896 C   0  0  0  0  0  0  0  0  0  0  0  0
    7.6141  -17.9475   24.0304 C   0  0  2  0  0  0  0  0  0  0  0  0
    7.5770  -17.7390   22.5967 N   0  0  0  0  0  0  0  0  0  0  0  0
    8.9151  -17.5671   24.5535 C   0  0  0  0  0  0  0  0  0  0  0  0
    9.9166  -17.6999   23.7602 O   0  0  0  0  0  0  0  0  0  0  0  0
    9.2100  -17.0685   25.8261 N   0  0  0  0  0  0  0  0  0  0  0  0
   10.6006  -16.8860   26.2647 C   0  0  1  0  0  0  0  0  0  0  0  0
   11.0418  -15.4856   26.0130 C   0  0  0  0  0  0  0  0  0  0  0  0
   10.0966  -14.5192   26.5861 C   0  0  0  0  0  0  0  0  0  0  0  0
    9.0368  -14.0049   25.8736 C   0  0  0  0  0  0  0  0  0  0  0  0
    8.1390  -13.0962   26.4162 C   0  0  0  0  0  0  0  0  0  0  0  0
    8.3004  -12.6788   27.7254 C   0  0  0  0  0  0  0  0  0  0  0  0
    9.3462  -13.1706   28.4659 C   0  0  0  0  0  0  0  0  0  0  0  0
   10.2233  -14.0711   27.9054 C   0  0  0  0  0  0  0  0  0  0  0  0
   10.7100  -17.2112   27.6964 C   0  0  0  0  0  0  0  0  0  0  0  0
    9.5693  -17.5777   28.3904 O   0  0  0  0  0  0  0  0  0  0  0  0
   11.7911  -17.1670   28.2995 O   0  0  0  0  0  0  0  0  0  0  0  0
  2  3  1  0
  2  1  1  0
  4  3  1  0
  4  5  1  0
  5  6  1  6
  7  5  1  0
  7  8  2  0
 10  9  1  6
 11 10  1  0
 12 10  1  0
 12 13  1  6
 13  7  1  0
 14 12  1  0
 15 14  2  0
 16 14  1  0
 17 18  1  1
 17 16  1  0
 18 19  1  0
 19 24  2  0
 20 21  2  0
 20 19  1  0
 21 22  1  0
 22 23  2  0
 24 23  1  0
 25 26  1  0
 25 17  1  0
 27 25  2  0
M  END
$$$$
