MVF.pdb
     RDKit          3D

 27 27  0  0  1  0  0  0  0  0999 V2000
   13.3067  -18.8704   22.2674 C   0  0  0  0  0  0  0  0  0  0  0  0
   13.0826  -20.0391   20.9385 S   0  0  0  0  0  0  0  0  0  0  0  0
   12.0905  -19.3865   19.6114 C   0  0  0  0  0  0  0  0  0  0  0  0
   10.7991  -18.7378   20.0203 C   0  0  0  0  0  0  0  0  0  0  0  0
   10.4853  -17.4456   19.3337 C   0  0  2  0  0  0  0  0  0  0  0  0
   11.6213  -17.0459   18.5178 N   0  0  0  0  0  0  0  0  0  0  0  0
   10.2636  -16.4033   20.3979 C   0  0  0  0  0  0  0  0  0  0  0  0
   11.2431  -15.7603   20.7852 O   0  0  0  0  0  0  0  0  0  0  0  0
    6.1196  -15.2807   21.3612 C   0  0  0  0  0  0  0  0  0  0  0  0
    7.4133  -14.5070   21.4520 C   0  0  2  0  0  0  0  0  0  0  0  0
    7.6017  -13.6138   20.2394 C   0  0  0  0  0  0  0  0  0  0  0  0
    8.5965  -15.2280   21.9177 C   0  0  2  0  0  0  0  0  0  0  0  0
    8.9702  -16.1982   20.9080 N   0  0  0  0  0  0  0  0  0  0  0  0
    8.6406  -15.8403   23.2345 C   0  0  0  0  0  0  0  0  0  0  0  0
    8.8014  -17.1142   23.2727 O   0  0  0  0  0  0  0  0  0  0  0  0
    8.5297  -15.2044   24.4748 N   0  0  0  0  0  0  0  0  0  0  0  0
    8.6945  -15.9542   25.7279 C   0  0  1  0  0  0  0  0  0  0  0  0
    8.9828  -15.0218   26.8533 C   0  0  0  0  0  0  0  0  0  0  0  0
    8.1218  -13.8339   26.7936 C   0  0  0  0  0  0  0  0  0  0  0  0
    6.7729  -13.8801   27.0646 C   0  0  0  0  0  0  0  0  0  0  0  0
    5.9592  -12.7568   27.0148 C   0  0  0  0  0  0  0  0  0  0  0  0
    6.5093  -11.5321   26.6805 C   0  0  0  0  0  0  0  0  0  0  0  0
    7.8511  -11.4486   26.4038 C   0  0  0  0  0  0  0  0  0  0  0  0
    8.6374  -12.5768   26.4601 C   0  0  0  0  0  0  0  0  0  0  0  0
    7.4723  -16.7285   26.0006 C   0  0  0  0  0  0  0  0  0  0  0  0
    6.3505  -16.5086   25.2194 O   0  0  0  0  0  0  0  0  0  0  0  0
    7.4166  -17.5706   26.9072 O   0  0  0  0  0  0  0  0  0  0  0  0
  2  3  1  0
  2  1  1  0
  4  3  1  0
  4  5  1  0
  5  6  1  6
  7  5  1  0
  7  8  2  0
 10  9  1  6
 11 10  1  0
 12 10  1  0
 12 13  1  6
 13  7  1  0
 14 12  1  0
 15 14  2  0
 16 14  1  0
 17 18  1  1
 17 16  1  0
 18 19  1  0
 19 24  2  0
 20 21  2  0
 20 19  1  0
 21 22  1  0
 22 23  2  0
 24 23  1  0
 25 26  1  0
 25 17  1  0
 27 25  2  0
M  END
$$$$
