MVF.pdb
     RDKit          3D

 27 27  0  0  1  0  0  0  0  0999 V2000
    6.2816  -18.0513   27.9708 C   0  0  0  0  0  0  0  0  0  0  0  0
    7.0068  -19.6442   27.6256 S   0  0  0  0  0  0  0  0  0  0  0  0
    7.0742  -20.0037   25.8827 C   0  0  0  0  0  0  0  0  0  0  0  0
    6.0863  -19.2656   25.0255 C   0  0  0  0  0  0  0  0  0  0  0  0
    6.2004  -19.5167   23.5546 C   0  0  2  0  0  0  0  0  0  0  0  0
    6.6369  -20.8863   23.3327 N   0  0  0  0  0  0  0  0  0  0  0  0
    7.2473  -18.5810   23.0100 C   0  0  0  0  0  0  0  0  0  0  0  0
    8.3406  -19.0610   22.6984 O   0  0  0  0  0  0  0  0  0  0  0  0
    5.7995  -15.5077   20.7949 C   0  0  0  0  0  0  0  0  0  0  0  0
    6.9185  -15.1420   21.7406 C   0  0  2  0  0  0  0  0  0  0  0  0
    7.6174  -13.8708   21.2941 C   0  0  0  0  0  0  0  0  0  0  0  0
    7.7792  -16.2243   22.2142 C   0  0  2  0  0  0  0  0  0  0  0  0
    6.9517  -17.2136   22.8750 N   0  0  0  0  0  0  0  0  0  0  0  0
    8.9639  -15.9560   23.0116 C   0  0  0  0  0  0  0  0  0  0  0  0
    9.9459  -15.3860   22.4110 O   0  0  0  0  0  0  0  0  0  0  0  0
    9.1642  -16.2445   24.3650 N   0  0  0  0  0  0  0  0  0  0  0  0
   10.3673  -15.7788   25.0688 C   0  0  1  0  0  0  0  0  0  0  0  0
   10.3760  -14.2913   25.1477 C   0  0  0  0  0  0  0  0  0  0  0  0
    9.2393  -13.7938   25.9327 C   0  0  0  0  0  0  0  0  0  0  0  0
    7.9819  -13.6296   25.3969 C   0  0  0  0  0  0  0  0  0  0  0  0
    6.9051  -13.1655   26.1395 C   0  0  0  0  0  0  0  0  0  0  0  0
    7.0846  -12.8497   27.4746 C   0  0  0  0  0  0  0  0  0  0  0  0
    8.3251  -13.0008   28.0423 C   0  0  0  0  0  0  0  0  0  0  0  0
    9.3773  -13.4631   27.2851 C   0  0  0  0  0  0  0  0  0  0  0  0
   10.4045  -16.3665   26.4181 C   0  0  0  0  0  0  0  0  0  0  0  0
   11.4895  -16.1005   27.2361 O   0  0  0  0  0  0  0  0  0  0  0  0
    9.4952  -17.0917   26.8443 O   0  0  0  0  0  0  0  0  0  0  0  0
  2  3  1  0
  2  1  1  0
  4  3  1  0
  4  5  1  0
  5  6  1  1
  7  5  1  0
  7  8  2  0
 10  9  1  6
 11 10  1  0
 12 10  1  0
 12 13  1  1
 13  7  1  0
 14 12  1  0
 15 14  2  0
 16 14  1  0
 17 18  1  1
 17 16  1  0
 18 19  1  0
 19 24  2  0
 20 21  2  0
 20 19  1  0
 21 22  1  0
 22 23  2  0
 24 23  1  0
 25 26  1  0
 25 17  1  0
 27 25  2  0
M  END
$$$$
