MVF.pdb
     RDKit          3D

 27 27  0  0  1  0  0  0  0  0999 V2000
    6.2931  -11.0931   25.5888 C   0  0  0  0  0  0  0  0  0  0  0  0
    5.1902  -12.0409   26.6221 S   0  0  0  0  0  0  0  0  0  0  0  0
    5.0573  -13.7400   26.1055 C   0  0  0  0  0  0  0  0  0  0  0  0
    6.3178  -14.3615   25.5760 C   0  0  0  0  0  0  0  0  0  0  0  0
    6.1407  -15.6707   24.8729 C   0  0  2  0  0  0  0  0  0  0  0  0
    5.6341  -16.6575   25.8138 N   0  0  0  0  0  0  0  0  0  0  0  0
    7.4946  -16.1165   24.3866 C   0  0  0  0  0  0  0  0  0  0  0  0
    8.0427  -17.0459   24.9853 O   0  0  0  0  0  0  0  0  0  0  0  0
    8.0889  -15.1899   20.4823 C   0  0  0  0  0  0  0  0  0  0  0  0
    9.3516  -15.2062   21.3103 C   0  0  2  0  0  0  0  0  0  0  0  0
   10.5659  -15.5010   20.4489 C   0  0  0  0  0  0  0  0  0  0  0  0
    9.2965  -15.8786   22.6071 C   0  0  2  0  0  0  0  0  0  0  0  0
    8.0816  -15.4717   23.2843 N   0  0  0  0  0  0  0  0  0  0  0  0
   10.4175  -15.8356   23.5306 C   0  0  0  0  0  0  0  0  0  0  0  0
   10.5690  -14.7517   24.2030 O   0  0  0  0  0  0  0  0  0  0  0  0
   11.3574  -16.8407   23.7781 N   0  0  0  0  0  0  0  0  0  0  0  0
   11.9853  -16.9819   25.0993 C   0  0  1  0  0  0  0  0  0  0  0  0
   10.9468  -17.2085   26.1429 C   0  0  0  0  0  0  0  0  0  0  0  0
   10.7409  -16.0049   26.9583 C   0  0  0  0  0  0  0  0  0  0  0  0
    9.6862  -15.1433   26.7575 C   0  0  0  0  0  0  0  0  0  0  0  0
    9.4869  -14.0088   27.5317 C   0  0  0  0  0  0  0  0  0  0  0  0
   10.3749  -13.7160   28.5515 C   0  0  0  0  0  0  0  0  0  0  0  0
   11.4385  -14.5529   28.7805 C   0  0  0  0  0  0  0  0  0  0  0  0
   11.6147  -15.6721   27.9991 C   0  0  0  0  0  0  0  0  0  0  0  0
   12.9405  -18.1019   25.0712 C   0  0  0  0  0  0  0  0  0  0  0  0
   12.9535  -18.9453   23.9732 O   0  0  0  0  0  0  0  0  0  0  0  0
   13.7330  -18.3130   25.9995 O   0  0  0  0  0  0  0  0  0  0  0  0
  2  3  1  0
  2  1  1  0
  4  3  1  0
  4  5  1  0
  5  6  1  1
  7  5  1  0
  7  8  2  0
 10  9  1  6
 11 10  1  0
 12 10  1  0
 12 13  1  1
 13  7  1  0
 14 12  1  0
 15 14  2  0
 16 14  1  0
 17 18  1  1
 17 16  1  0
 18 19  1  0
 19 24  2  0
 20 21  2  0
 20 19  1  0
 21 22  1  0
 22 23  2  0
 24 23  1  0
 25 26  1  0
 25 17  1  0
 27 25  2  0
M  END
$$$$
