MVF.pdb
     RDKit          3D

 27 27  0  0  1  0  0  0  0  0999 V2000
    7.4659  -11.4824   26.0672 C   0  0  0  0  0  0  0  0  0  0  0  0
    5.9212  -11.9688   25.3190 S   0  0  0  0  0  0  0  0  0  0  0  0
    6.1483  -13.0069   23.8900 C   0  0  0  0  0  0  0  0  0  0  0  0
    7.1369  -14.1265   24.0474 C   0  0  0  0  0  0  0  0  0  0  0  0
    7.3773  -14.9468   22.8190 C   0  0  2  0  0  0  0  0  0  0  0  0
    6.1192  -15.5241   22.3721 N   0  0  0  0  0  0  0  0  0  0  0  0
    8.3170  -16.0635   23.1904 C   0  0  0  0  0  0  0  0  0  0  0  0
    7.8244  -17.1088   23.6235 O   0  0  0  0  0  0  0  0  0  0  0  0
   12.5990  -15.6438   22.0792 C   0  0  0  0  0  0  0  0  0  0  0  0
   11.6698  -16.8328   22.1351 C   0  0  2  0  0  0  0  0  0  0  0  0
   11.1194  -17.1611   20.7592 C   0  0  0  0  0  0  0  0  0  0  0  0
   10.7210  -16.8930   23.2455 C   0  0  2  0  0  0  0  0  0  0  0  0
    9.7022  -15.8842   23.0343 N   0  0  0  0  0  0  0  0  0  0  0  0
   11.1695  -16.8636   24.6272 C   0  0  0  0  0  0  0  0  0  0  0  0
   11.9344  -15.8882   24.9641 O   0  0  0  0  0  0  0  0  0  0  0  0
   10.8649  -17.7756   25.6422 N   0  0  0  0  0  0  0  0  0  0  0  0
   11.5886  -17.7553   26.9211 C   0  0  1  0  0  0  0  0  0  0  0  0
   10.6467  -17.4854   28.0431 C   0  0  0  0  0  0  0  0  0  0  0  0
   10.2214  -16.0801   28.0540 C   0  0  0  0  0  0  0  0  0  0  0  0
   11.0209  -15.0660   28.5310 C   0  0  0  0  0  0  0  0  0  0  0  0
   10.6226  -13.7365   28.5360 C   0  0  0  0  0  0  0  0  0  0  0  0
    9.3739  -13.3981   28.0455 C   0  0  0  0  0  0  0  0  0  0  0  0
    8.5497  -14.3834   27.5619 C   0  0  0  0  0  0  0  0  0  0  0  0
    8.9675  -15.6949   27.5675 C   0  0  0  0  0  0  0  0  0  0  0  0
   12.2701  -19.0452   27.1195 C   0  0  0  0  0  0  0  0  0  0  0  0
   13.0629  -19.2195   28.2411 O   0  0  0  0  0  0  0  0  0  0  0  0
   12.1561  -19.9793   26.3141 O   0  0  0  0  0  0  0  0  0  0  0  0
  2  3  1  0
  2  1  1  0
  4  3  1  0
  4  5  1  0
  5  6  1  1
  7  5  1  0
  7  8  2  0
 10  9  1  6
 11 10  1  0
 12 10  1  0
 12 13  1  6
 13  7  1  0
 14 12  1  0
 15 14  2  0
 16 14  1  0
 17 18  1  1
 17 16  1  0
 18 19  1  0
 19 24  2  0
 20 21  2  0
 20 19  1  0
 21 22  1  0
 22 23  2  0
 24 23  1  0
 25 26  1  0
 25 17  1  0
 27 25  2  0
M  END
$$$$
