MVF.pdb
     RDKit          3D

 27 27  0  0  1  0  0  0  0  0999 V2000
    7.5530  -11.1628   26.4632 C   0  0  0  0  0  0  0  0  0  0  0  0
    5.9980  -11.7397   27.1201 S   0  0  0  0  0  0  0  0  0  0  0  0
    5.9751  -13.5012   27.3812 C   0  0  0  0  0  0  0  0  0  0  0  0
    6.8929  -14.3029   26.5033 C   0  0  0  0  0  0  0  0  0  0  0  0
    6.2142  -15.1909   25.5081 C   0  0  2  0  0  0  0  0  0  0  0  0
    5.4494  -16.2076   26.2133 N   0  0  0  0  0  0  0  0  0  0  0  0
    7.2846  -15.8688   24.6940 C   0  0  0  0  0  0  0  0  0  0  0  0
    7.6989  -16.9628   25.0868 O   0  0  0  0  0  0  0  0  0  0  0  0
    7.2832  -15.0073   20.7882 C   0  0  0  0  0  0  0  0  0  0  0  0
    8.6781  -15.1271   21.3541 C   0  0  2  0  0  0  0  0  0  0  0  0
    9.6638  -15.5703   20.2884 C   0  0  0  0  0  0  0  0  0  0  0  0
    8.8190  -15.7506   22.6687 C   0  0  2  0  0  0  0  0  0  0  0  0
    7.7699  -15.2455   23.5315 N   0  0  0  0  0  0  0  0  0  0  0  0
   10.0880  -15.7470   23.3764 C   0  0  0  0  0  0  0  0  0  0  0  0
   10.7685  -14.6584   23.3340 O   0  0  0  0  0  0  0  0  0  0  0  0
   10.6611  -16.7939   24.1049 N   0  0  0  0  0  0  0  0  0  0  0  0
   11.9961  -16.6580   24.7038 C   0  0  1  0  0  0  0  0  0  0  0  0
   11.9413  -16.9599   26.1615 C   0  0  0  0  0  0  0  0  0  0  0  0
   11.1084  -15.9841   26.8757 C   0  0  0  0  0  0  0  0  0  0  0  0
   11.3099  -14.6256   26.7812 C   0  0  0  0  0  0  0  0  0  0  0  0
   10.5193  -13.7020   27.4507 C   0  0  0  0  0  0  0  0  0  0  0  0
    9.4818  -14.1471   28.2506 C   0  0  0  0  0  0  0  0  0  0  0  0
    9.2516  -15.4950   28.3685 C   0  0  0  0  0  0  0  0  0  0  0  0
   10.0495  -16.3914   27.6943 C   0  0  0  0  0  0  0  0  0  0  0  0
   12.9335  -17.5674   24.0242 C   0  0  0  0  0  0  0  0  0  0  0  0
   14.2654  -17.5634   24.4024 O   0  0  0  0  0  0  0  0  0  0  0  0
   12.5674  -18.3362   23.1246 O   0  0  0  0  0  0  0  0  0  0  0  0
  2  3  1  0
  2  1  1  0
  4  3  1  0
  4  5  1  0
  5  6  1  1
  7  5  1  0
  7  8  2  0
 10  9  1  6
 11 10  1  0
 12 10  1  0
 12 13  1  1
 13  7  1  0
 14 12  1  0
 15 14  2  0
 16 14  1  0
 17 18  1  1
 17 16  1  0
 18 19  1  0
 19 24  2  0
 20 21  2  0
 20 19  1  0
 21 22  1  0
 22 23  2  0
 24 23  1  0
 25 26  1  0
 25 17  1  0
 27 25  2  0
M  END
$$$$
