MVF.pdb
     RDKit          3D

 27 27  0  0  1  0  0  0  0  0999 V2000
    7.9071  -20.1075   27.2367 C   0  0  0  0  0  0  0  0  0  0  0  0
    6.6304  -19.4037   26.2085 S   0  0  0  0  0  0  0  0  0  0  0  0
    7.0788  -19.3698   24.4854 C   0  0  0  0  0  0  0  0  0  0  0  0
    6.0097  -18.8974   23.5422 C   0  0  0  0  0  0  0  0  0  0  0  0
    6.4108  -18.8270   22.1021 C   0  0  2  0  0  0  0  0  0  0  0  0
    6.9113  -20.1252   21.6780 N   0  0  0  0  0  0  0  0  0  0  0  0
    7.5227  -17.8180   21.9849 C   0  0  0  0  0  0  0  0  0  0  0  0
    8.6752  -18.2439   21.8701 O   0  0  0  0  0  0  0  0  0  0  0  0
    7.1430  -13.0656   22.3030 C   0  0  0  0  0  0  0  0  0  0  0  0
    7.5298  -14.1920   21.3746 C   0  0  2  0  0  0  0  0  0  0  0  0
    6.4303  -14.4704   20.3661 C   0  0  0  0  0  0  0  0  0  0  0  0
    8.1776  -15.3602   21.9683 C   0  0  2  0  0  0  0  0  0  0  0  0
    7.2187  -16.4461   22.0088 N   0  0  0  0  0  0  0  0  0  0  0  0
    8.8820  -15.2728   23.2361 C   0  0  0  0  0  0  0  0  0  0  0  0
   10.0061  -14.6512   23.2292 O   0  0  0  0  0  0  0  0  0  0  0  0
    8.4794  -15.7867   24.4725 N   0  0  0  0  0  0  0  0  0  0  0  0
    9.3200  -15.6306   25.6677 C   0  0  1  0  0  0  0  0  0  0  0  0
    8.4988  -15.1621   26.8189 C   0  0  0  0  0  0  0  0  0  0  0  0
    8.0114  -13.7940   26.6026 C   0  0  0  0  0  0  0  0  0  0  0  0
    8.8365  -12.6937   26.6625 C   0  0  0  0  0  0  0  0  0  0  0  0
    8.3783  -11.4006   26.4520 C   0  0  0  0  0  0  0  0  0  0  0  0
    7.0404  -11.1901   26.1694 C   0  0  0  0  0  0  0  0  0  0  0  0
    6.1883  -12.2641   26.1019 C   0  0  0  0  0  0  0  0  0  0  0  0
    6.6667  -13.5370   26.3144 C   0  0  0  0  0  0  0  0  0  0  0  0
    9.9656  -16.9152   25.9845 C   0  0  0  0  0  0  0  0  0  0  0  0
   10.7629  -17.0053   27.1129 O   0  0  0  0  0  0  0  0  0  0  0  0
    9.8177  -17.9181   25.2727 O   0  0  0  0  0  0  0  0  0  0  0  0
  2  3  1  0
  2  1  1  0
  4  3  1  0
  4  5  1  0
  5  6  1  1
  7  5  1  0
  7  8  2  0
 10  9  1  1
 11 10  1  0
 12 10  1  0
 12 13  1  1
 13  7  1  0
 14 12  1  0
 15 14  2  0
 16 14  1  0
 17 18  1  1
 17 16  1  0
 18 19  1  0
 19 24  2  0
 20 21  2  0
 20 19  1  0
 21 22  1  0
 22 23  2  0
 24 23  1  0
 25 26  1  0
 25 17  1  0
 27 25  2  0
M  END
$$$$
