MVF.pdb
     RDKit          3D

 27 27  0  0  1  0  0  0  0  0999 V2000
   14.7138  -17.5456   23.9447 C   0  0  0  0  0  0  0  0  0  0  0  0
   15.0756  -18.0808   22.2819 S   0  0  0  0  0  0  0  0  0  0  0  0
   13.9364  -17.4171   21.0847 C   0  0  0  0  0  0  0  0  0  0  0  0
   12.9383  -16.4270   21.6129 C   0  0  0  0  0  0  0  0  0  0  0  0
   12.0994  -15.7475   20.5764 C   0  0  2  0  0  0  0  0  0  0  0  0
   12.8994  -14.7437   19.8921 N   0  0  0  0  0  0  0  0  0  0  0  0
   10.9631  -15.0592   21.2858 C   0  0  0  0  0  0  0  0  0  0  0  0
   11.1825  -13.9506   21.7813 O   0  0  0  0  0  0  0  0  0  0  0  0
    7.6328  -14.1913   19.8715 C   0  0  0  0  0  0  0  0  0  0  0  0
    7.4416  -15.0968   21.0647 C   0  0  2  0  0  0  0  0  0  0  0  0
    6.0425  -14.9588   21.6365 C   0  0  0  0  0  0  0  0  0  0  0  0
    8.5342  -15.1730   22.0328 C   0  0  2  0  0  0  0  0  0  0  0  0
    9.7091  -15.6896   21.3597 N   0  0  0  0  0  0  0  0  0  0  0  0
    8.3652  -15.8359   23.3147 C   0  0  0  0  0  0  0  0  0  0  0  0
    9.1367  -16.8349   23.5531 O   0  0  0  0  0  0  0  0  0  0  0  0
    7.4578  -15.5134   24.3283 N   0  0  0  0  0  0  0  0  0  0  0  0
    7.4439  -16.2552   25.5968 C   0  0  1  0  0  0  0  0  0  0  0  0
    6.6158  -15.5374   26.6057 C   0  0  0  0  0  0  0  0  0  0  0  0
    7.0257  -14.1327   26.7279 C   0  0  0  0  0  0  0  0  0  0  0  0
    8.2761  -13.7595   27.1666 C   0  0  0  0  0  0  0  0  0  0  0  0
    8.6669  -12.4323   27.2764 C   0  0  0  0  0  0  0  0  0  0  0  0
    7.7761  -11.4299   26.9354 C   0  0  0  0  0  0  0  0  0  0  0  0
    6.5204  -11.7652   26.4942 C   0  0  0  0  0  0  0  0  0  0  0  0
    6.1564  -13.0887   26.3937 C   0  0  0  0  0  0  0  0  0  0  0  0
    6.9160  -17.6102   25.3669 C   0  0  0  0  0  0  0  0  0  0  0  0
    7.1381  -18.5878   26.3219 O   0  0  0  0  0  0  0  0  0  0  0  0
    6.2791  -17.9027   24.3455 O   0  0  0  0  0  0  0  0  0  0  0  0
  2  3  1  0
  2  1  1  0
  4  3  1  0
  4  5  1  0
  5  6  1  1
  7  5  1  0
  7  8  2  0
 10  9  1  6
 11 10  1  0
 12 10  1  0
 12 13  1  6
 13  7  1  0
 14 12  1  0
 15 14  2  0
 16 14  1  0
 17 18  1  1
 17 16  1  0
 18 19  1  0
 19 24  2  0
 20 21  2  0
 20 19  1  0
 21 22  1  0
 22 23  2  0
 24 23  1  0
 25 26  1  0
 25 17  1  0
 27 25  2  0
M  END
$$$$
