MVF.pdb
     RDKit          3D

 27 27  0  0  1  0  0  0  0  0999 V2000
    8.5596  -11.8016   20.2797 C   0  0  0  0  0  0  0  0  0  0  0  0
    8.1370  -12.4651   18.6785 S   0  0  0  0  0  0  0  0  0  0  0  0
    8.1993  -14.2443   18.6353 C   0  0  0  0  0  0  0  0  0  0  0  0
    8.2011  -14.9298   19.9716 C   0  0  0  0  0  0  0  0  0  0  0  0
    8.2527  -16.4247   19.9251 C   0  0  2  0  0  0  0  0  0  0  0  0
    7.0843  -16.9248   19.2177 N   0  0  0  0  0  0  0  0  0  0  0  0
    8.2118  -16.9289   21.3437 C   0  0  0  0  0  0  0  0  0  0  0  0
    7.1080  -17.0288   21.8863 O   0  0  0  0  0  0  0  0  0  0  0  0
   11.5068  -19.3092   22.8968 C   0  0  0  0  0  0  0  0  0  0  0  0
   10.0561  -19.1387   23.2800 C   0  0  2  0  0  0  0  0  0  0  0  0
    9.1821  -20.1628   22.5793 C   0  0  0  0  0  0  0  0  0  0  0  0
    9.5338  -17.7750   23.3454 C   0  0  2  0  0  0  0  0  0  0  0  0
    9.4114  -17.2648   21.9944 N   0  0  0  0  0  0  0  0  0  0  0  0
   10.1424  -16.7712   24.2015 C   0  0  0  0  0  0  0  0  0  0  0  0
   11.2059  -16.2035   23.7580 O   0  0  0  0  0  0  0  0  0  0  0  0
    9.7052  -16.3445   25.4592 N   0  0  0  0  0  0  0  0  0  0  0  0
   10.5878  -15.5749   26.3470 C   0  0  1  0  0  0  0  0  0  0  0  0
   10.4061  -14.1145   26.1163 C   0  0  0  0  0  0  0  0  0  0  0  0
    9.0120  -13.7105   26.3384 C   0  0  0  0  0  0  0  0  0  0  0  0
    7.9898  -14.0725   25.4904 C   0  0  0  0  0  0  0  0  0  0  0  0
    6.6708  -13.6966   25.7027 C   0  0  0  0  0  0  0  0  0  0  0  0
    6.3518  -12.9261   26.8068 C   0  0  0  0  0  0  0  0  0  0  0  0
    7.3457  -12.5464   27.6739 C   0  0  0  0  0  0  0  0  0  0  0  0
    8.6465  -12.9319   27.4418 C   0  0  0  0  0  0  0  0  0  0  0  0
   10.2921  -15.9157   27.7484 C   0  0  0  0  0  0  0  0  0  0  0  0
   11.0517  -15.3412   28.7534 O   0  0  0  0  0  0  0  0  0  0  0  0
    9.3845  -16.7005   28.0563 O   0  0  0  0  0  0  0  0  0  0  0  0
  2  3  1  0
  2  1  1  0
  4  3  1  0
  4  5  1  0
  5  6  1  6
  7  5  1  0
  7  8  2  0
 10  9  1  6
 11 10  1  0
 12 10  1  0
 12 13  1  6
 13  7  1  0
 14 12  1  0
 15 14  2  0
 16 14  1  0
 17 18  1  1
 17 16  1  0
 18 19  1  0
 19 24  2  0
 20 21  2  0
 20 19  1  0
 21 22  1  0
 22 23  2  0
 24 23  1  0
 25 26  1  0
 25 17  1  0
 27 25  2  0
M  END
$$$$
