MVF.pdb
     RDKit          3D

 27 27  0  0  1  0  0  0  0  0999 V2000
    7.5802  -19.5683   27.7137 C   0  0  0  0  0  0  0  0  0  0  0  0
    6.1401  -18.5833   27.3420 S   0  0  0  0  0  0  0  0  0  0  0  0
    5.9889  -18.2178   25.6056 C   0  0  0  0  0  0  0  0  0  0  0  0
    6.2173  -19.3730   24.6734 C   0  0  0  0  0  0  0  0  0  0  0  0
    6.1188  -19.0494   23.2156 C   0  0  2  0  0  0  0  0  0  0  0  0
    6.3655  -20.2535   22.4377 N   0  0  0  0  0  0  0  0  0  0  0  0
    7.1898  -18.0398   22.8969 C   0  0  0  0  0  0  0  0  0  0  0  0
    8.3509  -18.4458   22.7976 O   0  0  0  0  0  0  0  0  0  0  0  0
    6.4583  -15.2235   20.2917 C   0  0  0  0  0  0  0  0  0  0  0  0
    7.0914  -14.6604   21.5416 C   0  0  2  0  0  0  0  0  0  0  0  0
    7.8373  -13.3726   21.2435 C   0  0  0  0  0  0  0  0  0  0  0  0
    7.7549  -15.6018   22.4419 C   0  0  2  0  0  0  0  0  0  0  0  0
    6.8399  -16.6895   22.7246 N   0  0  0  0  0  0  0  0  0  0  0  0
    8.3897  -15.1554   23.6703 C   0  0  0  0  0  0  0  0  0  0  0  0
    7.9023  -14.1023   24.2212 O   0  0  0  0  0  0  0  0  0  0  0  0
    9.4747  -15.7400   24.3306 N   0  0  0  0  0  0  0  0  0  0  0  0
    9.9296  -15.2354   25.6337 C   0  0  1  0  0  0  0  0  0  0  0  0
    8.8621  -15.4128   26.6574 C   0  0  0  0  0  0  0  0  0  0  0  0
    7.9596  -14.2550   26.6907 C   0  0  0  0  0  0  0  0  0  0  0  0
    8.4135  -12.9636   26.8376 C   0  0  0  0  0  0  0  0  0  0  0  0
    7.5620  -11.8680   26.8628 C   0  0  0  0  0  0  0  0  0  0  0  0
    6.1980  -12.0628   26.7367 C   0  0  0  0  0  0  0  0  0  0  0  0
    5.7097  -13.3370   26.5887 C   0  0  0  0  0  0  0  0  0  0  0  0
    6.5745  -14.4076   26.5665 C   0  0  0  0  0  0  0  0  0  0  0  0
   11.1529  -15.9489   26.0360 C   0  0  0  0  0  0  0  0  0  0  0  0
   11.6235  -16.9772   25.2370 O   0  0  0  0  0  0  0  0  0  0  0  0
   11.7743  -15.6579   27.0673 O   0  0  0  0  0  0  0  0  0  0  0  0
  2  3  1  0
  2  1  1  0
  4  3  1  0
  4  5  1  0
  5  6  1  6
  7  5  1  0
  7  8  2  0
 10  9  1  6
 11 10  1  0
 12 10  1  0
 12 13  1  1
 13  7  1  0
 14 12  1  0
 15 14  2  0
 16 14  1  0
 17 18  1  1
 17 16  1  0
 18 19  1  0
 19 24  2  0
 20 21  2  0
 20 19  1  0
 21 22  1  0
 22 23  2  0
 24 23  1  0
 25 26  1  0
 25 17  1  0
 27 25  2  0
M  END
$$$$
