MVF.pdb
     RDKit          3D

 27 27  0  0  1  0  0  0  0  0999 V2000
    7.0974  -13.3481   18.0571 C   0  0  0  0  0  0  0  0  0  0  0  0
    8.1736  -12.3125   19.0327 S   0  0  0  0  0  0  0  0  0  0  0  0
    8.2291  -12.8012   20.7442 C   0  0  0  0  0  0  0  0  0  0  0  0
    7.1988  -13.8080   21.1690 C   0  0  0  0  0  0  0  0  0  0  0  0
    7.4606  -15.2158   20.7339 C   0  0  2  0  0  0  0  0  0  0  0  0
    6.4386  -15.6233   19.7824 N   0  0  0  0  0  0  0  0  0  0  0  0
    7.3665  -16.0968   21.9517 C   0  0  0  0  0  0  0  0  0  0  0  0
    6.2503  -16.2762   22.4462 O   0  0  0  0  0  0  0  0  0  0  0  0
    9.2833  -20.0160   24.0615 C   0  0  0  0  0  0  0  0  0  0  0  0
    9.1772  -18.8679   23.0864 C   0  0  2  0  0  0  0  0  0  0  0  0
   10.4398  -18.7398   22.2539 C   0  0  0  0  0  0  0  0  0  0  0  0
    8.5936  -17.6207   23.5772 C   0  0  2  0  0  0  0  0  0  0  0  0
    8.5329  -16.6782   22.4780 N   0  0  0  0  0  0  0  0  0  0  0  0
    9.1047  -16.9624   24.7674 C   0  0  0  0  0  0  0  0  0  0  0  0
   10.1062  -16.1746   24.6053 O   0  0  0  0  0  0  0  0  0  0  0  0
    8.6326  -17.0833   26.0780 N   0  0  0  0  0  0  0  0  0  0  0  0
    9.3576  -16.4770   27.2032 C   0  0  1  0  0  0  0  0  0  0  0  0
    8.4297  -15.6622   28.0363 C   0  0  0  0  0  0  0  0  0  0  0  0
    7.9842  -14.4621   27.3171 C   0  0  0  0  0  0  0  0  0  0  0  0
    8.7112  -13.2932   27.3010 C   0  0  0  0  0  0  0  0  0  0  0  0
    8.2943  -12.1602   26.6163 C   0  0  0  0  0  0  0  0  0  0  0  0
    7.1014  -12.1887   25.9158 C   0  0  0  0  0  0  0  0  0  0  0  0
    6.3502  -13.3374   25.9099 C   0  0  0  0  0  0  0  0  0  0  0  0
    6.7850  -14.4481   26.5966 C   0  0  0  0  0  0  0  0  0  0  0  0
    9.9811  -17.5367   28.0130 C   0  0  0  0  0  0  0  0  0  0  0  0
   10.8787  -17.1821   29.0058 O   0  0  0  0  0  0  0  0  0  0  0  0
    9.7274  -18.7358   27.8338 O   0  0  0  0  0  0  0  0  0  0  0  0
  2  3  1  0
  2  1  1  0
  4  3  1  0
  4  5  1  0
  5  6  1  6
  7  5  1  0
  7  8  2  0
 10  9  1  1
 11 10  1  0
 12 10  1  0
 12 13  1  6
 13  7  1  0
 14 12  1  0
 15 14  2  0
 16 14  1  0
 17 18  1  1
 17 16  1  0
 18 19  1  0
 19 24  2  0
 20 21  2  0
 20 19  1  0
 21 22  1  0
 22 23  2  0
 24 23  1  0
 25 26  1  0
 25 17  1  0
 27 25  2  0
M  END
$$$$
