MVF.pdb
     RDKit          3D

 27 27  0  0  1  0  0  0  0  0999 V2000
    6.9376  -10.9082   26.3147 C   0  0  0  0  0  0  0  0  0  0  0  0
    5.3542  -11.4672   26.9170 S   0  0  0  0  0  0  0  0  0  0  0  0
    5.1284  -13.2232   26.7247 C   0  0  0  0  0  0  0  0  0  0  0  0
    6.2511  -13.9550   26.0469 C   0  0  0  0  0  0  0  0  0  0  0  0
    5.9300  -15.3454   25.5957 C   0  0  2  0  0  0  0  0  0  0  0  0
    5.6607  -16.1781   26.7575 N   0  0  0  0  0  0  0  0  0  0  0  0
    7.1409  -15.8869   24.8826 C   0  0  0  0  0  0  0  0  0  0  0  0
    7.8173  -16.7390   25.4650 O   0  0  0  0  0  0  0  0  0  0  0  0
    9.2104  -15.9143   20.3064 C   0  0  0  0  0  0  0  0  0  0  0  0
    8.3432  -15.3544   21.4086 C   0  0  2  0  0  0  0  0  0  0  0  0
    8.2270  -13.8451   21.2989 C   0  0  0  0  0  0  0  0  0  0  0  0
    8.5325  -15.8952   22.7534 C   0  0  2  0  0  0  0  0  0  0  0  0
    7.4575  -15.4137   23.5976 N   0  0  0  0  0  0  0  0  0  0  0  0
    9.8027  -15.7702   23.4479 C   0  0  0  0  0  0  0  0  0  0  0  0
   10.2543  -14.5792   23.6135 O   0  0  0  0  0  0  0  0  0  0  0  0
   10.5977  -16.7987   23.9628 N   0  0  0  0  0  0  0  0  0  0  0  0
   11.8836  -16.5091   24.6126 C   0  0  1  0  0  0  0  0  0  0  0  0
   11.8847  -17.0275   26.0091 C   0  0  0  0  0  0  0  0  0  0  0  0
   10.9614  -16.2659   26.8598 C   0  0  0  0  0  0  0  0  0  0  0  0
    9.7396  -16.7600   27.2578 C   0  0  0  0  0  0  0  0  0  0  0  0
    8.8688  -16.0437   28.0671 C   0  0  0  0  0  0  0  0  0  0  0  0
    9.2267  -14.7795   28.5007 C   0  0  0  0  0  0  0  0  0  0  0  0
   10.4375  -14.2548   28.1232 C   0  0  0  0  0  0  0  0  0  0  0  0
   11.2841  -14.9848   27.3202 C   0  0  0  0  0  0  0  0  0  0  0  0
   12.9745  -17.1201   23.8354 C   0  0  0  0  0  0  0  0  0  0  0  0
   14.2819  -16.9293   24.2495 O   0  0  0  0  0  0  0  0  0  0  0  0
   12.7590  -17.7998   22.8226 O   0  0  0  0  0  0  0  0  0  0  0  0
  2  3  1  0
  2  1  1  0
  4  3  1  0
  4  5  1  0
  5  6  1  1
  7  5  1  0
  7  8  2  0
 10  9  1  6
 11 10  1  0
 12 10  1  0
 12 13  1  1
 13  7  1  0
 14 12  1  0
 15 14  2  0
 16 14  1  0
 17 18  1  1
 17 16  1  0
 18 19  1  0
 19 24  2  0
 20 21  2  0
 20 19  1  0
 21 22  1  0
 22 23  2  0
 24 23  1  0
 25 26  1  0
 25 17  1  0
 27 25  2  0
M  END
$$$$
