WLI.pdb
     RDKit          3D

 31 32  0  0  1  0  0  0  0  0999 V2000
   26.8376  -21.1800  -12.8279 N   0  0  0  0  0  0  0  0  0  0  0  0
   26.1628  -20.2490  -11.9595 C   0  0  1  0  0  0  0  0  0  0  0  0
   24.9739  -19.5708  -12.5720 C   0  0  0  0  0  0  0  0  0  0  0  0
   25.3820  -18.6973  -13.6935 C   0  0  0  0  0  0  0  0  0  0  0  0
   26.5284  -17.9176  -13.6793 C   0  0  0  0  0  0  0  0  0  0  0  0
   26.6268  -17.2645  -14.8438 N   0  0  0  0  0  0  0  0  0  0  0  0
   25.5841  -17.5695  -15.6596 C   0  0  0  0  0  0  0  0  0  0  0  0
   25.2182  -17.1781  -16.9247 C   0  0  0  0  0  0  0  0  0  0  0  0
   24.0730  -17.6714  -17.4905 C   0  0  0  0  0  0  0  0  0  0  0  0
   23.2898  -18.5615  -16.7853 C   0  0  0  0  0  0  0  0  0  0  0  0
   23.6622  -18.9567  -15.5043 C   0  0  0  0  0  0  0  0  0  0  0  0
   24.8126  -18.4687  -14.9231 C   0  0  0  0  0  0  0  0  0  0  0  0
   25.6549  -20.9867  -10.7604 C   0  0  0  0  0  0  0  0  0  0  0  0
   25.1153  -22.1075  -10.8941 O   0  0  0  0  0  0  0  0  0  0  0  0
   28.4932  -20.7599   -7.7769 C   0  0  0  0  0  0  0  0  0  0  0  0
   27.2472  -19.9217   -7.4491 C   0  0  2  0  0  0  0  0  0  0  0  0
   27.5536  -18.9694   -6.3481 C   0  0  0  0  0  0  0  0  0  0  0  0
   26.1575  -20.8864   -7.1724 C   0  0  0  0  0  0  0  0  0  0  0  0
   25.2931  -21.2575   -8.3474 C   0  0  2  0  0  0  0  0  0  0  0  0
   25.7726  -20.4388   -9.4612 N   0  0  0  0  0  0  0  0  0  0  0  0
   23.8783  -20.8684   -8.0946 C   0  0  0  0  0  0  0  0  0  0  0  0
   23.5240  -19.7162   -8.4360 O   0  0  0  0  0  0  0  0  0  0  0  0
   18.7152  -22.5353   -9.8421 C   0  0  0  0  0  0  0  0  0  0  0  0
   19.3658  -21.9294   -8.6349 C   0  0  0  0  0  0  0  0  0  0  0  0
   20.8638  -22.2054   -8.6894 C   0  0  2  0  0  0  0  0  0  0  0  0
   21.0477  -23.6954   -8.7283 C   0  0  0  0  0  0  0  0  0  0  0  0
   21.5378  -21.5603   -7.5268 C   0  0  2  0  0  0  0  0  0  0  0  0
   22.9618  -21.7644   -7.4905 N   0  0  0  0  0  0  0  0  0  0  0  0
   20.9620  -21.9847   -6.2075 C   0  0  0  0  0  0  0  0  0  0  0  0
   21.8209  -22.4979   -5.2477 O   0  0  0  0  0  0  0  0  0  0  0  0
   19.7533  -21.9069   -5.9124 O   0  0  0  0  0  0  0  0  0  0  0  0
  2  1  1  6
  2 13  1  0
  3  4  1  0
  3  2  1  0
  4 12  1  0
  4  5  2  0
  5  6  1  0
  7  6  1  0
  7  8  2  0
  9  8  1  0
 10  9  2  0
 11 10  1  0
 11 12  2  0
 12  7  1  0
 13 14  2  0
 16 15  1  1
 17 16  1  0
 18 16  1  0
 19 18  1  1
 20 13  1  0
 20 19  1  0
 21 19  1  0
 21 22  2  0
 23 24  1  0
 25 24  1  0
 25 26  1  1
 27 28  1  1
 27 25  1  0
 28 21  1  0
 29 27  1  0
 30 29  1  0
 31 29  2  0
M  END
$$$$
