WLI.pdb
     RDKit          3D

 31 32  0  0  1  0  0  0  0  0999 V2000
   20.0289  -24.6164  -17.5776 N   0  0  0  0  0  0  0  0  0  0  0  0
   19.5790  -23.4048  -16.9405 C   0  0  1  0  0  0  0  0  0  0  0  0
   18.6257  -23.6134  -15.8019 C   0  0  0  0  0  0  0  0  0  0  0  0
   17.2346  -23.3314  -16.2173 C   0  0  0  0  0  0  0  0  0  0  0  0
   16.7879  -22.0743  -16.5954 C   0  0  0  0  0  0  0  0  0  0  0  0
   15.4952  -22.1540  -16.9341 N   0  0  0  0  0  0  0  0  0  0  0  0
   15.0371  -23.4260  -16.8009 C   0  0  0  0  0  0  0  0  0  0  0  0
   13.8189  -24.0266  -17.0080 C   0  0  0  0  0  0  0  0  0  0  0  0
   13.6660  -25.3665  -16.7711 C   0  0  0  0  0  0  0  0  0  0  0  0
   14.7392  -26.1092  -16.3240 C   0  0  0  0  0  0  0  0  0  0  0  0
   15.9720  -25.4991  -16.1149 C   0  0  0  0  0  0  0  0  0  0  0  0
   16.1402  -24.1516  -16.3501 C   0  0  0  0  0  0  0  0  0  0  0  0
   20.7636  -22.6886  -16.3717 C   0  0  0  0  0  0  0  0  0  0  0  0
   21.8404  -23.2995  -16.1914 O   0  0  0  0  0  0  0  0  0  0  0  0
   22.3676  -16.8718  -15.9179 C   0  0  0  0  0  0  0  0  0  0  0  0
   22.8627  -18.2982  -15.6305 C   0  0  2  0  0  0  0  0  0  0  0  0
   24.1575  -18.5336  -16.3243 C   0  0  0  0  0  0  0  0  0  0  0  0
   21.7587  -19.2077  -16.0161 C   0  0  0  0  0  0  0  0  0  0  0  0
   21.9468  -20.6583  -15.6613 C   0  0  2  0  0  0  0  0  0  0  0  0
   20.6935  -21.3177  -16.0285 N   0  0  0  0  0  0  0  0  0  0  0  0
   22.1104  -20.8159  -14.1898 C   0  0  0  0  0  0  0  0  0  0  0  0
   21.0703  -20.8768  -13.4940 O   0  0  0  0  0  0  0  0  0  0  0  0
   27.2731  -21.8470  -12.0979 C   0  0  0  0  0  0  0  0  0  0  0  0
   25.8281  -22.0304  -12.4531 C   0  0  0  0  0  0  0  0  0  0  0  0
   25.0043  -20.9646  -11.7400 C   0  0  2  0  0  0  0  0  0  0  0  0
   25.1855  -21.1664  -10.2629 C   0  0  0  0  0  0  0  0  0  0  0  0
   23.5812  -21.0528  -12.1748 C   0  0  2  0  0  0  0  0  0  0  0  0
   23.3931  -20.8948  -13.5927 N   0  0  0  0  0  0  0  0  0  0  0  0
   22.6909  -20.0757  -11.4644 C   0  0  0  0  0  0  0  0  0  0  0  0
   21.9912  -20.5113  -10.3495 O   0  0  0  0  0  0  0  0  0  0  0  0
   22.5356  -18.8883  -11.8109 O   0  0  0  0  0  0  0  0  0  0  0  0
  2  1  1  1
  2 13  1  0
  3  4  1  0
  3  2  1  0
  4 12  1  0
  4  5  2  0
  5  6  1  0
  7  6  1  0
  7  8  2  0
  9  8  1  0
 10  9  2  0
 11 10  1  0
 11 12  2  0
 12  7  1  0
 13 14  2  0
 16 15  1  6
 17 16  1  0
 18 16  1  0
 19 18  1  1
 20 13  1  0
 20 19  1  0
 21 19  1  0
 21 22  2  0
 23 24  1  0
 25 24  1  0
 25 26  1  1
 27 28  1  6
 27 25  1  0
 28 21  1  0
 29 27  1  0
 30 29  1  0
 31 29  2  0
M  END
$$$$
