WLI.pdb
     RDKit          3D

 31 32  0  0  1  0  0  0  0  0999 V2000
   25.3298  -19.6086  -19.4177 N   0  0  0  0  0  0  0  0  0  0  0  0
   25.8992  -19.5289  -18.0964 C   0  0  1  0  0  0  0  0  0  0  0  0
   25.1247  -18.6820  -17.1313 C   0  0  0  0  0  0  0  0  0  0  0  0
   25.0919  -17.2709  -17.5729 C   0  0  0  0  0  0  0  0  0  0  0  0
   23.9202  -16.5773  -17.8350 C   0  0  0  0  0  0  0  0  0  0  0  0
   24.2254  -15.3231  -18.1902 N   0  0  0  0  0  0  0  0  0  0  0  0
   25.5703  -15.1311  -18.1817 C   0  0  0  0  0  0  0  0  0  0  0  0
   26.3813  -14.0586  -18.4638 C   0  0  0  0  0  0  0  0  0  0  0  0
   27.7415  -14.1834  -18.3670 C   0  0  0  0  0  0  0  0  0  0  0  0
   28.2925  -15.3893  -17.9856 C   0  0  0  0  0  0  0  0  0  0  0  0
   27.4694  -16.4741  -17.7003 C   0  0  0  0  0  0  0  0  0  0  0  0
   26.0989  -16.3622  -17.7929 C   0  0  0  0  0  0  0  0  0  0  0  0
   25.9464  -20.9034  -17.5061 C   0  0  0  0  0  0  0  0  0  0  0  0
   25.0991  -21.7607  -17.8414 O   0  0  0  0  0  0  0  0  0  0  0  0
   28.3320  -24.2556  -18.1484 C   0  0  0  0  0  0  0  0  0  0  0  0
   29.0745  -23.1614  -17.3648 C   0  0  2  0  0  0  0  0  0  0  0  0
   30.5270  -23.4774  -17.3076 C   0  0  0  0  0  0  0  0  0  0  0  0
   28.3936  -23.0537  -16.0534 C   0  0  0  0  0  0  0  0  0  0  0  0
   26.9452  -22.6468  -16.0955 C   0  0  2  0  0  0  0  0  0  0  0  0
   26.9405  -21.2611  -16.5650 N   0  0  0  0  0  0  0  0  0  0  0  0
   26.3657  -22.6468  -14.7239 C   0  0  0  0  0  0  0  0  0  0  0  0
   27.1370  -22.8965  -13.7687 O   0  0  0  0  0  0  0  0  0  0  0  0
   23.3482  -19.7513  -10.6859 C   0  0  0  0  0  0  0  0  0  0  0  0
   23.5496  -21.1293  -11.2412 C   0  0  0  0  0  0  0  0  0  0  0  0
   24.2439  -21.0210  -12.5937 C   0  0  2  0  0  0  0  0  0  0  0  0
   23.4281  -20.0931  -13.4475 C   0  0  0  0  0  0  0  0  0  0  0  0
   24.4037  -22.3786  -13.1884 C   0  0  2  0  0  0  0  0  0  0  0  0
   24.9930  -22.3752  -14.5012 N   0  0  0  0  0  0  0  0  0  0  0  0
   23.1161  -23.1471  -13.2462 C   0  0  0  0  0  0  0  0  0  0  0  0
   22.6762  -23.6048  -14.4788 O   0  0  0  0  0  0  0  0  0  0  0  0
   22.4081  -23.4048  -12.2530 O   0  0  0  0  0  0  0  0  0  0  0  0
  2  1  1  6
  2 13  1  0
  3  4  1  0
  3  2  1  0
  4 12  1  0
  4  5  2  0
  5  6  1  0
  7  6  1  0
  7  8  2  0
  9  8  1  0
 10  9  2  0
 11 10  1  0
 11 12  2  0
 12  7  1  0
 13 14  2  0
 16 15  1  6
 17 16  1  0
 18 16  1  0
 19 18  1  1
 20 13  1  0
 20 19  1  0
 21 19  1  0
 21 22  2  0
 23 24  1  0
 25 24  1  0
 25 26  1  6
 27 28  1  6
 27 25  1  0
 28 21  1  0
 29 27  1  0
 30 29  1  0
 31 29  2  0
M  END
$$$$
