WLI.pdb
     RDKit          3D

 31 32  0  0  1  0  0  0  0  0999 V2000
   25.8731  -19.4564  -11.9730 N   0  0  0  0  0  0  0  0  0  0  0  0
   26.0743  -20.8816  -12.0390 C   0  0  1  0  0  0  0  0  0  0  0  0
   25.7086  -21.6238  -10.7883 C   0  0  0  0  0  0  0  0  0  0  0  0
   26.4940  -21.1360   -9.6341 C   0  0  0  0  0  0  0  0  0  0  0  0
   25.9336  -20.4803   -8.5484 C   0  0  0  0  0  0  0  0  0  0  0  0
   26.8992  -20.1899   -7.6677 N   0  0  0  0  0  0  0  0  0  0  0  0
   28.1071  -20.6244   -8.1127 C   0  0  0  0  0  0  0  0  0  0  0  0
   29.3832  -20.5743   -7.6062 C   0  0  0  0  0  0  0  0  0  0  0  0
   30.4241  -21.1105   -8.3161 C   0  0  0  0  0  0  0  0  0  0  0  0
   30.1856  -21.7001   -9.5403 C   0  0  0  0  0  0  0  0  0  0  0  0
   28.8925  -21.7498  -10.0514 C   0  0  0  0  0  0  0  0  0  0  0  0
   27.8355  -21.2149   -9.3471 C   0  0  0  0  0  0  0  0  0  0  0  0
   25.2137  -21.4419  -13.1277 C   0  0  0  0  0  0  0  0  0  0  0  0
   24.1921  -20.8242  -13.5020 O   0  0  0  0  0  0  0  0  0  0  0  0
   26.0317  -25.5301  -17.5260 C   0  0  0  0  0  0  0  0  0  0  0  0
   24.9981  -24.5554  -16.9395 C   0  0  2  0  0  0  0  0  0  0  0  0
   24.6268  -23.5379  -17.9592 C   0  0  0  0  0  0  0  0  0  0  0  0
   25.5916  -24.0202  -15.6920 C   0  0  0  0  0  0  0  0  0  0  0  0
   24.7379  -23.0498  -14.9208 C   0  0  2  0  0  0  0  0  0  0  0  0
   25.5327  -22.6708  -13.7523 N   0  0  0  0  0  0  0  0  0  0  0  0
   23.5108  -23.7253  -14.4158 C   0  0  0  0  0  0  0  0  0  0  0  0
   23.6580  -24.7913  -13.7743 O   0  0  0  0  0  0  0  0  0  0  0  0
   20.0179  -21.5911  -11.3393 C   0  0  0  0  0  0  0  0  0  0  0  0
   20.9319  -22.4120  -12.1987 C   0  0  0  0  0  0  0  0  0  0  0  0
   20.1355  -22.9773  -13.3688 C   0  0  2  0  0  0  0  0  0  0  0  0
   18.9568  -23.7136  -12.7995 C   0  0  0  0  0  0  0  0  0  0  0  0
   21.0160  -23.8382  -14.2089 C   0  0  2  0  0  0  0  0  0  0  0  0
   22.2211  -23.1866  -14.6494 N   0  0  0  0  0  0  0  0  0  0  0  0
   20.3120  -24.3997  -15.4094 C   0  0  0  0  0  0  0  0  0  0  0  0
   19.9567  -25.7398  -15.3983 O   0  0  0  0  0  0  0  0  0  0  0  0
   20.0219  -23.7380  -16.4253 O   0  0  0  0  0  0  0  0  0  0  0  0
  2  1  1  1
  2 13  1  0
  3  4  1  0
  3  2  1  0
  4 12  1  0
  4  5  2  0
  5  6  1  0
  7  6  1  0
  7  8  2  0
  9  8  1  0
 10  9  2  0
 11 10  1  0
 11 12  2  0
 12  7  1  0
 13 14  2  0
 16 15  1  6
 17 16  1  0
 18 16  1  0
 19 18  1  6
 20 13  1  0
 20 19  1  0
 21 19  1  0
 21 22  2  0
 23 24  1  0
 25 24  1  0
 25 26  1  1
 27 28  1  6
 27 25  1  0
 28 21  1  0
 29 27  1  0
 30 29  1  0
 31 29  2  0
M  END
$$$$
