WLI.pdb
     RDKit          3D

 31 32  0  0  1  0  0  0  0  0999 V2000
   26.0700  -18.9824  -11.2777 N   0  0  0  0  0  0  0  0  0  0  0  0
   25.5871  -20.3367  -11.3720 C   0  0  1  0  0  0  0  0  0  0  0  0
   25.5596  -21.0833  -10.0718 C   0  0  0  0  0  0  0  0  0  0  0  0
   26.7220  -20.7251   -9.2306 C   0  0  0  0  0  0  0  0  0  0  0  0
   26.6298  -19.9424   -8.0897 C   0  0  0  0  0  0  0  0  0  0  0  0
   27.8464  -19.8206   -7.5443 N   0  0  0  0  0  0  0  0  0  0  0  0
   28.7737  -20.4942   -8.2737 C   0  0  0  0  0  0  0  0  0  0  0  0
   30.1298  -20.6790   -8.1535 C   0  0  0  0  0  0  0  0  0  0  0  0
   30.8046  -21.4274   -9.0805 C   0  0  0  0  0  0  0  0  0  0  0  0
   30.1174  -21.9938  -10.1342 C   0  0  0  0  0  0  0  0  0  0  0  0
   28.7441  -21.8055  -10.2541 C   0  0  0  0  0  0  0  0  0  0  0  0
   28.0523  -21.0553   -9.3278 C   0  0  0  0  0  0  0  0  0  0  0  0
   24.1774  -20.3140  -11.8741 C   0  0  0  0  0  0  0  0  0  0  0  0
   23.3497  -19.5122  -11.3871 O   0  0  0  0  0  0  0  0  0  0  0  0
   21.9791  -20.3620  -17.2406 C   0  0  0  0  0  0  0  0  0  0  0  0
   21.4861  -20.4706  -15.7889 C   0  0  2  0  0  0  0  0  0  0  0  0
   20.7195  -19.2495  -15.4222 C   0  0  0  0  0  0  0  0  0  0  0  0
   22.6845  -20.7430  -14.9615 C   0  0  0  0  0  0  0  0  0  0  0  0
   22.4374  -20.9380  -13.4896 C   0  0  2  0  0  0  0  0  0  0  0  0
   23.7530  -21.1900  -12.9011 N   0  0  0  0  0  0  0  0  0  0  0  0
   21.6131  -22.1563  -13.2584 C   0  0  0  0  0  0  0  0  0  0  0  0
   22.1337  -23.2662  -13.5169 O   0  0  0  0  0  0  0  0  0  0  0  0
   19.1987  -23.4463   -8.8357 C   0  0  0  0  0  0  0  0  0  0  0  0
   19.8612  -23.2729  -10.1694 C   0  0  0  0  0  0  0  0  0  0  0  0
   18.7966  -23.3123  -11.2594 C   0  0  2  0  0  0  0  0  0  0  0  0
   18.0011  -24.5719  -11.0690 C   0  0  0  0  0  0  0  0  0  0  0  0
   19.4435  -23.2229  -12.5994 C   0  0  2  0  0  0  0  0  0  0  0  0
   20.2879  -22.0694  -12.7643 N   0  0  0  0  0  0  0  0  0  0  0  0
   18.4561  -23.2557  -13.7290 C   0  0  0  0  0  0  0  0  0  0  0  0
   18.2421  -24.4595  -14.3828 O   0  0  0  0  0  0  0  0  0  0  0  0
   17.8090  -22.2660  -14.1237 O   0  0  0  0  0  0  0  0  0  0  0  0
  2  1  1  1
  2 13  1  0
  3  4  1  0
  3  2  1  0
  4 12  1  0
  4  5  2  0
  5  6  1  0
  7  6  1  0
  7  8  2  0
  9  8  1  0
 10  9  2  0
 11 10  1  0
 11 12  2  0
 12  7  1  0
 13 14  2  0
 16 15  1  6
 17 16  1  0
 18 16  1  0
 19 18  1  6
 20 13  1  0
 20 19  1  0
 21 19  1  0
 21 22  2  0
 23 24  1  0
 25 24  1  0
 25 26  1  6
 27 28  1  1
 27 25  1  0
 28 21  1  0
 29 27  1  0
 30 29  1  0
 31 29  2  0
M  END
$$$$
