WLI.pdb
     RDKit          3D

 31 32  0  0  1  0  0  0  0  0999 V2000
   31.2386 -130.2995   -4.2066 N   0  0  0  0  0  0  0  0  0  0  0  0
   30.8066 -131.4051   -3.3896 C   0  0  1  0  0  0  0  0  0  0  0  0
   30.2356 -132.5622   -4.1536 C   0  0  0  0  0  0  0  0  0  0  0  0
   28.7663 -132.6262   -3.9981 C   0  0  0  0  0  0  0  0  0  0  0  0
   28.0716 -133.8026   -3.7610 C   0  0  0  0  0  0  0  0  0  0  0  0
   26.7670 -133.5239   -3.6473 N   0  0  0  0  0  0  0  0  0  0  0  0
   26.5412 -132.1929   -3.7991 C   0  0  0  0  0  0  0  0  0  0  0  0
   25.4126 -131.4096   -3.7780 C   0  0  0  0  0  0  0  0  0  0  0  0
   25.5122 -130.0583   -3.9760 C   0  0  0  0  0  0  0  0  0  0  0  0
   26.7490 -129.4884   -4.1965 C   0  0  0  0  0  0  0  0  0  0  0  0
   27.8906 -130.2834   -4.2173 C   0  0  0  0  0  0  0  0  0  0  0  0
   27.8050 -131.6445   -4.0187 C   0  0  0  0  0  0  0  0  0  0  0  0
   31.9842 -131.9388   -2.6357 C   0  0  0  0  0  0  0  0  0  0  0  0
   31.8326 -132.8610   -1.8041 O   0  0  0  0  0  0  0  0  0  0  0  0
   32.6957 -133.5568    0.0794 C   0  0  0  0  0  0  0  0  0  0  0  0
   32.5544 -133.6872   -1.4455 C   0  0  2  0  0  0  0  0  0  0  0  0
   31.8643 -134.9613   -1.7825 C   0  0  0  0  0  0  0  0  0  0  0  0
   33.9178 -133.5339   -2.0046 C   0  0  0  0  0  0  0  0  0  0  0  0
   34.3935 -132.1194   -2.2002 C   0  0  2  0  0  0  0  0  0  0  0  0
   33.2830 -131.4176   -2.8445 N   0  0  0  0  0  0  0  0  0  0  0  0
   35.5424 -132.0842   -3.1467 C   0  0  0  0  0  0  0  0  0  0  0  0
   35.7325 -133.0924   -3.8656 O   0  0  0  0  0  0  0  0  0  0  0  0
   39.3690 -129.2767   -3.3648 C   0  0  0  0  0  0  0  0  0  0  0  0
   38.3169 -129.0827   -2.3144 C   0  0  0  0  0  0  0  0  0  0  0  0
   37.0355 -128.5971   -2.9816 C   0  0  2  0  0  0  0  0  0  0  0  0
   36.6661 -127.2855   -2.3501 C   0  0  0  0  0  0  0  0  0  0  0  0
   35.9729 -129.6338   -2.8469 C   0  0  2  0  0  0  0  0  0  0  0  0
   36.3930 -130.9543   -3.2352 N   0  0  0  0  0  0  0  0  0  0  0  0
   34.7219 -129.2908   -3.6016 C   0  0  0  0  0  0  0  0  0  0  0  0
   34.5321 -127.9766   -4.0004 O   0  0  0  0  0  0  0  0  0  0  0  0
   33.8335 -130.1138   -3.8972 O   0  0  0  0  0  0  0  0  0  0  0  0
  2  1  1  6
  2 13  1  0
  3  4  1  0
  3  2  1  0
  4 12  1  0
  4  5  2  0
  5  6  1  0
  7  6  1  0
  7  8  2  0
  9  8  1  0
 10  9  2  0
 11 10  1  0
 11 12  2  0
 12  7  1  0
 13 14  2  0
 16 15  1  1
 17 16  1  0
 18 16  1  0
 19 18  1  6
 20 13  1  0
 20 19  1  0
 21 19  1  0
 21 22  2  0
 23 24  1  0
 25 24  1  0
 25 26  1  1
 27 28  1  6
 27 25  1  0
 28 21  1  0
 29 27  1  0
 30 29  1  0
 31 29  2  0
M  END
$$$$
