WLI.pdb
     RDKit          3D

 31 32  0  0  1  0  0  0  0  0999 V2000
   28.1154  -20.5326  -15.7576 N   0  0  0  0  0  0  0  0  0  0  0  0
   27.1328  -19.6605  -15.1659 C   0  0  1  0  0  0  0  0  0  0  0  0
   26.2750  -18.9244  -16.1513 C   0  0  0  0  0  0  0  0  0  0  0  0
   27.0153  -17.7984  -16.7606 C   0  0  0  0  0  0  0  0  0  0  0  0
   27.5569  -17.8388  -18.0364 C   0  0  0  0  0  0  0  0  0  0  0  0
   28.1400  -16.6630  -18.3006 N   0  0  0  0  0  0  0  0  0  0  0  0
   28.0176  -15.8142  -17.2470 C   0  0  0  0  0  0  0  0  0  0  0  0
   28.4314  -14.5260  -17.0083 C   0  0  0  0  0  0  0  0  0  0  0  0
   28.1524  -13.9275  -15.8087 C   0  0  0  0  0  0  0  0  0  0  0  0
   27.4553  -14.6231  -14.8427 C   0  0  0  0  0  0  0  0  0  0  0  0
   27.0371  -15.9275  -15.0864 C   0  0  0  0  0  0  0  0  0  0  0  0
   27.3103  -16.5417  -16.2895 C   0  0  0  0  0  0  0  0  0  0  0  0
   26.2021  -20.4789  -14.3268 C   0  0  0  0  0  0  0  0  0  0  0  0
   25.9454  -21.6615  -14.6442 O   0  0  0  0  0  0  0  0  0  0  0  0
   26.5172  -22.2416  -10.6202 C   0  0  0  0  0  0  0  0  0  0  0  0
   26.2714  -20.7379  -10.4184 C   0  0  2  0  0  0  0  0  0  0  0  0
   26.4708  -20.3802   -8.9882 C   0  0  0  0  0  0  0  0  0  0  0  0
   24.9218  -20.4598  -10.9626 C   0  0  0  0  0  0  0  0  0  0  0  0
   24.7085  -20.8194  -12.4085 C   0  0  2  0  0  0  0  0  0  0  0  0
   25.5976  -19.9392  -13.1670 N   0  0  0  0  0  0  0  0  0  0  0  0
   23.3151  -20.4980  -12.8234 C   0  0  0  0  0  0  0  0  0  0  0  0
   23.0189  -19.2899  -12.9735 O   0  0  0  0  0  0  0  0  0  0  0  0
   18.9174  -22.4581  -16.4253 C   0  0  0  0  0  0  0  0  0  0  0  0
   19.2396  -21.7108  -15.1660 C   0  0  0  0  0  0  0  0  0  0  0  0
   20.6919  -21.9789  -14.7895 C   0  0  2  0  0  0  0  0  0  0  0  0
   20.8599  -23.4663  -14.6668 C   0  0  0  0  0  0  0  0  0  0  0  0
   21.0321  -21.2441  -13.5379 C   0  0  2  0  0  0  0  0  0  0  0  0
   22.3550  -21.5170  -13.0418 N   0  0  0  0  0  0  0  0  0  0  0  0
   20.0486  -21.4877  -12.4309 C   0  0  0  0  0  0  0  0  0  0  0  0
   18.7512  -21.0248  -12.5880 O   0  0  0  0  0  0  0  0  0  0  0  0
   20.3204  -22.0832  -11.3700 O   0  0  0  0  0  0  0  0  0  0  0  0
  2  1  1  6
  2 13  1  0
  3  4  1  0
  3  2  1  0
  4 12  1  0
  4  5  2  0
  5  6  1  0
  7  6  1  0
  7  8  2  0
  9  8  1  0
 10  9  2  0
 11 10  1  0
 11 12  2  0
 12  7  1  0
 13 14  2  0
 16 15  1  1
 17 16  1  0
 18 16  1  0
 19 18  1  1
 20 13  1  0
 20 19  1  0
 21 19  1  0
 21 22  2  0
 23 24  1  0
 25 24  1  0
 25 26  1  1
 27 28  1  1
 27 25  1  0
 28 21  1  0
 29 27  1  0
 30 29  1  0
 31 29  2  0
M  END
$$$$
