WLI.pdb
     RDKit          3D

 31 32  0  0  1  0  0  0  0  0999 V2000
   23.2433  -21.3748   -7.7293 N   0  0  0  0  0  0  0  0  0  0  0  0
   23.0204  -20.9016   -9.0719 C   0  0  1  0  0  0  0  0  0  0  0  0
   24.2398  -20.8978   -9.9446 C   0  0  0  0  0  0  0  0  0  0  0  0
   25.3453  -20.1506   -9.3069 C   0  0  0  0  0  0  0  0  0  0  0  0
   25.4247  -18.7663   -9.2900 C   0  0  0  0  0  0  0  0  0  0  0  0
   26.5246  -18.4002   -8.6204 N   0  0  0  0  0  0  0  0  0  0  0  0
   27.2057  -19.4885   -8.1759 C   0  0  0  0  0  0  0  0  0  0  0  0
   28.3669  -19.6595   -7.4619 C   0  0  0  0  0  0  0  0  0  0  0  0
   28.8107  -20.9207   -7.1665 C   0  0  0  0  0  0  0  0  0  0  0  0
   28.0874  -22.0170   -7.5887 C   0  0  0  0  0  0  0  0  0  0  0  0
   26.9116  -21.8416   -8.3116 C   0  0  0  0  0  0  0  0  0  0  0  0
   26.4530  -20.5780   -8.6152 C   0  0  0  0  0  0  0  0  0  0  0  0
   22.0262  -21.7974   -9.7419 C   0  0  0  0  0  0  0  0  0  0  0  0
   21.6362  -21.5456  -10.9037 O   0  0  0  0  0  0  0  0  0  0  0  0
   21.8498  -24.9859  -12.1098 C   0  0  0  0  0  0  0  0  0  0  0  0
   22.2456  -25.3343  -10.6661 C   0  0  2  0  0  0  0  0  0  0  0  0
   22.8260  -26.7032  -10.6171 C   0  0  0  0  0  0  0  0  0  0  0  0
   21.0333  -25.1262   -9.8403 C   0  0  0  0  0  0  0  0  0  0  0  0
   20.4999  -23.7194   -9.7975 C   0  0  2  0  0  0  0  0  0  0  0  0
   21.5101  -22.9384   -9.0833 N   0  0  0  0  0  0  0  0  0  0  0  0
   19.2501  -23.6624   -8.9901 C   0  0  0  0  0  0  0  0  0  0  0  0
   19.3670  -23.5505   -7.7478 O   0  0  0  0  0  0  0  0  0  0  0  0
   15.4394  -20.2029   -9.7195 C   0  0  0  0  0  0  0  0  0  0  0  0
   16.3814  -21.2187   -9.1461 C   0  0  0  0  0  0  0  0  0  0  0  0
   15.7998  -22.6107   -9.3632 C   0  0  2  0  0  0  0  0  0  0  0  0
   14.4593  -22.6510   -8.6872 C   0  0  0  0  0  0  0  0  0  0  0  0
   16.7483  -23.6392   -8.8487 C   0  0  2  0  0  0  0  0  0  0  0  0
   17.9726  -23.7317   -9.5993 N   0  0  0  0  0  0  0  0  0  0  0  0
   16.1376  -25.0073   -8.7629 C   0  0  0  0  0  0  0  0  0  0  0  0
   16.6249  -26.0004   -9.5988 O   0  0  0  0  0  0  0  0  0  0  0  0
   15.2138  -25.3153   -7.9846 O   0  0  0  0  0  0  0  0  0  0  0  0
  2  1  1  1
  2 13  1  0
  3  4  1  0
  3  2  1  0
  4 12  1  0
  4  5  2  0
  5  6  1  0
  7  6  1  0
  7  8  2  0
  9  8  1  0
 10  9  2  0
 11 10  1  0
 11 12  2  0
 12  7  1  0
 13 14  2  0
 16 15  1  6
 17 16  1  0
 18 16  1  0
 19 18  1  1
 20 13  1  0
 20 19  1  0
 21 19  1  0
 21 22  2  0
 23 24  1  0
 25 24  1  0
 25 26  1  1
 27 28  1  6
 27 25  1  0
 28 21  1  0
 29 27  1  0
 30 29  1  0
 31 29  2  0
M  END
$$$$
