WLI.pdb
     RDKit          3D

 31 32  0  0  1  0  0  0  0  0999 V2000
   24.5230  -21.0899  -13.6454 N   0  0  0  0  0  0  0  0  0  0  0  0
   24.1626  -20.8277  -12.2751 C   0  0  1  0  0  0  0  0  0  0  0  0
   22.9809  -21.6062  -11.7789 C   0  0  0  0  0  0  0  0  0  0  0  0
   21.7136  -20.9510  -12.1682 C   0  0  0  0  0  0  0  0  0  0  0  0
   21.2019  -20.9770  -13.4567 C   0  0  0  0  0  0  0  0  0  0  0  0
   20.0378  -20.3162  -13.4777 N   0  0  0  0  0  0  0  0  0  0  0  0
   19.7316  -19.8354  -12.2445 C   0  0  0  0  0  0  0  0  0  0  0  0
   18.6830  -19.1049  -11.7402 C   0  0  0  0  0  0  0  0  0  0  0  0
   18.6632  -18.7585  -10.4156 C   0  0  0  0  0  0  0  0  0  0  0  0
   19.6995  -19.1457   -9.5914 C   0  0  0  0  0  0  0  0  0  0  0  0
   20.7605  -19.8855  -10.1042 C   0  0  0  0  0  0  0  0  0  0  0  0
   20.7928  -20.2417  -11.4351 C   0  0  0  0  0  0  0  0  0  0  0  0
   25.3125  -21.2000  -11.3925 C   0  0  0  0  0  0  0  0  0  0  0  0
   25.5180  -22.3991  -11.1005 O   0  0  0  0  0  0  0  0  0  0  0  0
   29.1635  -21.9618  -11.8549 C   0  0  0  0  0  0  0  0  0  0  0  0
   28.9080  -20.4471  -11.9068 C   0  0  2  0  0  0  0  0  0  0  0  0
   30.0993  -19.7519  -12.4640 C   0  0  0  0  0  0  0  0  0  0  0  0
   28.5180  -20.0434  -10.5357 C   0  0  0  0  0  0  0  0  0  0  0  0
   27.2620  -20.6735   -9.9965 C   0  0  2  0  0  0  0  0  0  0  0  0
   26.1849  -20.2142  -10.8737 N   0  0  0  0  0  0  0  0  0  0  0  0
   26.9663  -20.1565   -8.6318 C   0  0  0  0  0  0  0  0  0  0  0  0
   26.0576  -19.3013   -8.5200 O   0  0  0  0  0  0  0  0  0  0  0  0
   30.5307  -21.1125   -4.1655 C   0  0  0  0  0  0  0  0  0  0  0  0
   29.7939  -20.4796   -5.3076 C   0  0  0  0  0  0  0  0  0  0  0  0
   28.2992  -20.7125   -5.1217 C   0  0  2  0  0  0  0  0  0  0  0  0
   28.0712  -22.1969   -5.1089 C   0  0  0  0  0  0  0  0  0  0  0  0
   27.5421  -20.0110   -6.1973 C   0  0  2  0  0  0  0  0  0  0  0  0
   27.6834  -20.6115   -7.4974 N   0  0  0  0  0  0  0  0  0  0  0  0
   27.8913  -18.5554   -6.3044 C   0  0  0  0  0  0  0  0  0  0  0  0
   27.5445  -17.7155   -5.2572 O   0  0  0  0  0  0  0  0  0  0  0  0
   28.4770  -18.0447   -7.2792 O   0  0  0  0  0  0  0  0  0  0  0  0
  2  1  1  6
  2 13  1  0
  3  4  1  0
  3  2  1  0
  4 12  1  0
  4  5  2  0
  5  6  1  0
  7  6  1  0
  7  8  2  0
  9  8  1  0
 10  9  2  0
 11 10  1  0
 11 12  2  0
 12  7  1  0
 13 14  2  0
 16 15  1  1
 17 16  1  0
 18 16  1  0
 19 18  1  6
 20 13  1  0
 20 19  1  0
 21 19  1  0
 21 22  2  0
 23 24  1  0
 25 24  1  0
 25 26  1  6
 27 28  1  6
 27 25  1  0
 28 21  1  0
 29 27  1  0
 30 29  1  0
 31 29  2  0
M  END
$$$$
