WLI.pdb
     RDKit          3D

 31 32  0  0  1  0  0  0  0  0999 V2000
   23.2570  -22.3609  -14.9039 N   0  0  0  0  0  0  0  0  0  0  0  0
   23.4275  -21.3560  -13.8854 C   0  0  1  0  0  0  0  0  0  0  0  0
   22.2999  -21.2653  -12.9009 C   0  0  0  0  0  0  0  0  0  0  0  0
   21.0915  -20.6911  -13.5311 C   0  0  0  0  0  0  0  0  0  0  0  0
   19.8445  -21.2960  -13.4887 C   0  0  0  0  0  0  0  0  0  0  0  0
   18.9608  -20.5199  -14.1283 N   0  0  0  0  0  0  0  0  0  0  0  0
   19.5598  -19.3998  -14.6104 C   0  0  0  0  0  0  0  0  0  0  0  0
   19.1149  -18.3138  -15.3247 C   0  0  0  0  0  0  0  0  0  0  0  0
   19.9890  -17.3209  -15.6781 C   0  0  0  0  0  0  0  0  0  0  0  0
   21.3163  -17.4162  -15.3142 C   0  0  0  0  0  0  0  0  0  0  0  0
   21.7648  -18.5168  -14.5907 C   0  0  0  0  0  0  0  0  0  0  0  0
   20.8957  -19.5230  -14.2277 C   0  0  0  0  0  0  0  0  0  0  0  0
   24.6549  -21.6756  -13.0909 C   0  0  0  0  0  0  0  0  0  0  0  0
   24.9746  -22.8667  -12.8801 O   0  0  0  0  0  0  0  0  0  0  0  0
   28.8300  -21.2224  -13.6607 C   0  0  0  0  0  0  0  0  0  0  0  0
   28.2005  -19.8634  -13.3156 C   0  0  2  0  0  0  0  0  0  0  0  0
   29.2005  -18.7791  -13.5087 C   0  0  0  0  0  0  0  0  0  0  0  0
   27.6577  -19.9926  -11.9431 C   0  0  0  0  0  0  0  0  0  0  0  0
   26.6140  -21.0590  -11.7460 C   0  0  2  0  0  0  0  0  0  0  0  0
   25.4737  -20.6482  -12.5656 N   0  0  0  0  0  0  0  0  0  0  0  0
   26.1521  -21.0782  -10.3306 C   0  0  0  0  0  0  0  0  0  0  0  0
   24.9369  -20.8634  -10.1143 O   0  0  0  0  0  0  0  0  0  0  0  0
   28.2599  -19.9738   -4.6966 C   0  0  0  0  0  0  0  0  0  0  0  0
   27.2575  -20.6922   -5.5492 C   0  0  0  0  0  0  0  0  0  0  0  0
   27.6989  -20.6119   -7.0058 C   0  0  2  0  0  0  0  0  0  0  0  0
   27.9579  -19.1665   -7.3206 C   0  0  0  0  0  0  0  0  0  0  0  0
   26.6613  -21.2272   -7.8816 C   0  0  2  0  0  0  0  0  0  0  0  0
   27.0497  -21.3298   -9.2634 N   0  0  0  0  0  0  0  0  0  0  0  0
   25.3402  -20.5191   -7.8094 C   0  0  0  0  0  0  0  0  0  0  0  0
   24.3784  -21.0053   -6.9371 O   0  0  0  0  0  0  0  0  0  0  0  0
   25.0451  -19.5145   -8.4861 O   0  0  0  0  0  0  0  0  0  0  0  0
  2  1  1  6
  2 13  1  0
  3  4  1  0
  3  2  1  0
  4 12  1  0
  4  5  2  0
  5  6  1  0
  7  6  1  0
  7  8  2  0
  9  8  1  0
 10  9  2  0
 11 10  1  0
 11 12  2  0
 12  7  1  0
 13 14  2  0
 16 15  1  1
 17 16  1  0
 18 16  1  0
 19 18  1  1
 20 13  1  0
 20 19  1  0
 21 19  1  0
 21 22  2  0
 23 24  1  0
 25 24  1  0
 25 26  1  6
 27 28  1  6
 27 25  1  0
 28 21  1  0
 29 27  1  0
 30 29  1  0
 31 29  2  0
M  END
$$$$
