WLI.pdb
     RDKit          3D

 31 32  0  0  1  0  0  0  0  0999 V2000
   26.6768  -20.9363  -14.4541 N   0  0  0  0  0  0  0  0  0  0  0  0
   26.2921  -19.9089  -13.5200 C   0  0  1  0  0  0  0  0  0  0  0  0
   25.0056  -19.2128  -13.8502 C   0  0  0  0  0  0  0  0  0  0  0  0
   25.1168  -18.4711  -15.1248 C   0  0  0  0  0  0  0  0  0  0  0  0
   24.4298  -18.8212  -16.2773 C   0  0  0  0  0  0  0  0  0  0  0  0
   24.7255  -17.9447  -17.2451 N   0  0  0  0  0  0  0  0  0  0  0  0
   25.5948  -17.0023  -16.7959 C   0  0  0  0  0  0  0  0  0  0  0  0
   26.2005  -15.9126  -17.3732 C   0  0  0  0  0  0  0  0  0  0  0  0
   27.0582  -15.1367  -16.6401 C   0  0  0  0  0  0  0  0  0  0  0  0
   27.3108  -15.4541  -15.3216 C   0  0  0  0  0  0  0  0  0  0  0  0
   26.6964  -16.5581  -14.7389 C   0  0  0  0  0  0  0  0  0  0  0  0
   25.8304  -17.3471  -15.4648 C   0  0  0  0  0  0  0  0  0  0  0  0
   26.1011  -20.5284  -12.1710 C   0  0  0  0  0  0  0  0  0  0  0  0
   25.7715  -21.7313  -12.0728 O   0  0  0  0  0  0  0  0  0  0  0  0
   27.6196  -19.1720   -6.4747 C   0  0  0  0  0  0  0  0  0  0  0  0
   26.8715  -20.2144   -7.3209 C   0  0  2  0  0  0  0  0  0  0  0  0
   27.4081  -21.5732   -7.0402 C   0  0  0  0  0  0  0  0  0  0  0  0
   26.9810  -19.7643   -8.7282 C   0  0  0  0  0  0  0  0  0  0  0  0
   26.0947  -20.4736   -9.7166 C   0  0  2  0  0  0  0  0  0  0  0  0
   26.2873  -19.7751  -10.9877 N   0  0  0  0  0  0  0  0  0  0  0  0
   24.6633  -20.3118   -9.3400 C   0  0  0  0  0  0  0  0  0  0  0  0
   24.1892  -19.1521   -9.3479 O   0  0  0  0  0  0  0  0  0  0  0  0
   21.1173  -23.5152  -11.5771 C   0  0  0  0  0  0  0  0  0  0  0  0
   21.8319  -23.1843  -10.3014 C   0  0  0  0  0  0  0  0  0  0  0  0
   21.6415  -21.7029   -9.9976 C   0  0  2  0  0  0  0  0  0  0  0  0
   22.0307  -20.9354  -11.2284 C   0  0  0  0  0  0  0  0  0  0  0  0
   22.4387  -21.3284   -8.7950 C   0  0  2  0  0  0  0  0  0  0  0  0
   23.8619  -21.4251   -8.9847 N   0  0  0  0  0  0  0  0  0  0  0  0
   22.0658  -22.1204   -7.5760 C   0  0  0  0  0  0  0  0  0  0  0  0
   23.0577  -22.8422   -6.9299 O   0  0  0  0  0  0  0  0  0  0  0  0
   20.9149  -22.1746   -7.1000 O   0  0  0  0  0  0  0  0  0  0  0  0
  2  1  1  6
  2 13  1  0
  3  4  1  0
  3  2  1  0
  4 12  1  0
  4  5  2  0
  5  6  1  0
  7  6  1  0
  7  8  2  0
  9  8  1  0
 10  9  2  0
 11 10  1  0
 11 12  2  0
 12  7  1  0
 13 14  2  0
 16 15  1  1
 17 16  1  0
 18 16  1  0
 19 18  1  1
 20 13  1  0
 20 19  1  0
 21 19  1  0
 21 22  2  0
 23 24  1  0
 25 24  1  0
 25 26  1  6
 27 28  1  6
 27 25  1  0
 28 21  1  0
 29 27  1  0
 30 29  1  0
 31 29  2  0
M  END
$$$$
