WLI.pdb
     RDKit          3D

 31 32  0  0  1  0  0  0  0  0999 V2000
   21.5542  -21.1359  -14.6580 N   0  0  0  0  0  0  0  0  0  0  0  0
   22.0172  -19.8105  -14.3337 C   0  0  1  0  0  0  0  0  0  0  0  0
   22.1612  -19.5397  -12.8658 C   0  0  0  0  0  0  0  0  0  0  0  0
   20.8383  -19.4633  -12.2091 C   0  0  0  0  0  0  0  0  0  0  0  0
   20.3880  -20.3918  -11.2829 C   0  0  0  0  0  0  0  0  0  0  0  0
   19.1698  -20.0315  -10.8603 N   0  0  0  0  0  0  0  0  0  0  0  0
   18.7666  -18.8845  -11.4664 C   0  0  0  0  0  0  0  0  0  0  0  0
   17.6299  -18.1164  -11.3920 C   0  0  0  0  0  0  0  0  0  0  0  0
   17.5152  -16.9859  -12.1559 C   0  0  0  0  0  0  0  0  0  0  0  0
   18.5446  -16.6226  -12.9994 C   0  0  0  0  0  0  0  0  0  0  0  0
   19.6949  -17.4018  -13.0732 C   0  0  0  0  0  0  0  0  0  0  0  0
   19.8240  -18.5416  -12.3093 C   0  0  0  0  0  0  0  0  0  0  0  0
   23.3740  -19.6117  -14.9332 C   0  0  0  0  0  0  0  0  0  0  0  0
   24.1272  -20.5925  -15.1227 O   0  0  0  0  0  0  0  0  0  0  0  0
   25.7092  -17.5074  -18.5169 C   0  0  0  0  0  0  0  0  0  0  0  0
   24.9295  -16.5299  -17.6230 C   0  0  2  0  0  0  0  0  0  0  0  0
   25.1285  -15.1362  -18.1037 C   0  0  0  0  0  0  0  0  0  0  0  0
   25.3708  -16.7939  -16.2336 C   0  0  0  0  0  0  0  0  0  0  0  0
   25.2168  -18.2117  -15.7525 C   0  0  2  0  0  0  0  0  0  0  0  0
   23.8311  -18.3227  -15.2960 N   0  0  0  0  0  0  0  0  0  0  0  0
   26.0886  -18.4565  -14.5705 C   0  0  0  0  0  0  0  0  0  0  0  0
   26.0910  -17.5929  -13.6630 O   0  0  0  0  0  0  0  0  0  0  0  0
   26.2566  -21.0566   -9.8117 C   0  0  0  0  0  0  0  0  0  0  0  0
   27.2580  -20.7246  -10.8771 C   0  0  0  0  0  0  0  0  0  0  0  0
   26.5154  -20.3373  -12.1505 C   0  0  2  0  0  0  0  0  0  0  0  0
   25.5780  -21.4614  -12.4869 C   0  0  0  0  0  0  0  0  0  0  0  0
   27.4945  -20.0442  -13.2356 C   0  0  2  0  0  0  0  0  0  0  0  0
   26.8884  -19.6220  -14.4706 N   0  0  0  0  0  0  0  0  0  0  0  0
   28.4103  -21.1975  -13.5243 C   0  0  0  0  0  0  0  0  0  0  0  0
   28.4355  -21.7132  -14.8111 O   0  0  0  0  0  0  0  0  0  0  0  0
   29.1569  -21.7287  -12.6790 O   0  0  0  0  0  0  0  0  0  0  0  0
  2  1  1  1
  2 13  1  0
  3  4  1  0
  3  2  1  0
  4 12  1  0
  4  5  2  0
  5  6  1  0
  7  6  1  0
  7  8  2  0
  9  8  1  0
 10  9  2  0
 11 10  1  0
 11 12  2  0
 12  7  1  0
 13 14  2  0
 16 15  1  6
 17 16  1  0
 18 16  1  0
 19 18  1  1
 20 13  1  0
 20 19  1  0
 21 19  1  0
 21 22  2  0
 23 24  1  0
 25 24  1  0
 25 26  1  6
 27 28  1  6
 27 25  1  0
 28 21  1  0
 29 27  1  0
 30 29  1  0
 31 29  2  0
M  END
$$$$
