WLI.pdb
     RDKit          3D

 31 32  0  0  1  0  0  0  0  0999 V2000
   21.4482  -12.3718  -19.3059 N   0  0  0  0  0  0  0  0  0  0  0  0
   20.3815  -11.4579  -18.9849 C   0  0  1  0  0  0  0  0  0  0  0  0
   19.4967  -11.8997  -17.8577 C   0  0  0  0  0  0  0  0  0  0  0  0
   18.7152  -13.0969  -18.2357 C   0  0  0  0  0  0  0  0  0  0  0  0
   19.2036  -14.3914  -18.1431 C   0  0  0  0  0  0  0  0  0  0  0  0
   18.2516  -15.2465  -18.5365 N   0  0  0  0  0  0  0  0  0  0  0  0
   17.1230  -14.5820  -18.8976 C   0  0  0  0  0  0  0  0  0  0  0  0
   15.8935  -14.9772  -19.3663 C   0  0  0  0  0  0  0  0  0  0  0  0
   14.9367  -14.0412  -19.6553 C   0  0  0  0  0  0  0  0  0  0  0  0
   15.2130  -12.7018  -19.4740 C   0  0  0  0  0  0  0  0  0  0  0  0
   16.4587  -12.3037  -18.9992 C   0  0  0  0  0  0  0  0  0  0  0  0
   17.4305  -13.2351  -18.7036 C   0  0  0  0  0  0  0  0  0  0  0  0
   20.9750  -10.1494  -18.5659 C   0  0  0  0  0  0  0  0  0  0  0  0
   22.1179  -10.1115  -18.0583 O   0  0  0  0  0  0  0  0  0  0  0  0
   22.0228   -6.2383  -20.6312 C   0  0  0  0  0  0  0  0  0  0  0  0
   20.5069   -6.4608  -20.5083 C   0  0  2  0  0  0  0  0  0  0  0  0
   19.7771   -5.3668  -21.2038 C   0  0  0  0  0  0  0  0  0  0  0  0
   20.2222   -6.5970  -19.0608 C   0  0  0  0  0  0  0  0  0  0  0  0
   20.9512   -7.7042  -18.3482 C   0  0  2  0  0  0  0  0  0  0  0  0
   20.2642   -8.9374  -18.7329 N   0  0  0  0  0  0  0  0  0  0  0  0
   20.8006   -7.5603  -16.8738 C   0  0  0  0  0  0  0  0  0  0  0  0
   19.6697   -7.7816  -16.3822 O   0  0  0  0  0  0  0  0  0  0  0  0
   23.3739  -10.4610  -13.7758 C   0  0  0  0  0  0  0  0  0  0  0  0
   22.4492   -9.5041  -14.4665 C   0  0  0  0  0  0  0  0  0  0  0  0
   22.6852   -8.1029  -13.9151 C   0  0  2  0  0  0  0  0  0  0  0  0
   22.4492   -8.1548  -12.4329 C   0  0  0  0  0  0  0  0  0  0  0  0
   21.8011   -7.1294  -14.6171 C   0  0  2  0  0  0  0  0  0  0  0  0
   21.8929   -7.1868  -16.0521 N   0  0  0  0  0  0  0  0  0  0  0  0
   22.0300   -5.7117  -14.1815 C   0  0  0  0  0  0  0  0  0  0  0  0
   21.3652   -5.2527  -13.0547 O   0  0  0  0  0  0  0  0  0  0  0  0
   22.7838   -4.9108  -14.7685 O   0  0  0  0  0  0  0  0  0  0  0  0
  2  1  1  1
  2 13  1  0
  3  4  1  0
  3  2  1  0
  4 12  1  0
  4  5  2  0
  5  6  1  0
  7  6  1  0
  7  8  2  0
  9  8  1  0
 10  9  2  0
 11 10  1  0
 11 12  2  0
 12  7  1  0
 13 14  2  0
 16 15  1  1
 17 16  1  0
 18 16  1  0
 19 18  1  6
 20 13  1  0
 20 19  1  0
 21 19  1  0
 21 22  2  0
 23 24  1  0
 25 24  1  0
 25 26  1  1
 27 28  1  6
 27 25  1  0
 28 21  1  0
 29 27  1  0
 30 29  1  0
 31 29  2  0
M  END
$$$$
