WLI.pdb
     RDKit          3D

 31 32  0  0  1  0  0  0  0  0999 V2000
   21.1649  -19.3062  -16.3465 N   0  0  0  0  0  0  0  0  0  0  0  0
   22.1520  -18.3386  -15.9395 C   0  0  1  0  0  0  0  0  0  0  0  0
   21.7642  -17.5111  -14.7506 C   0  0  0  0  0  0  0  0  0  0  0  0
   21.3808  -16.1427  -15.1601 C   0  0  0  0  0  0  0  0  0  0  0  0
   20.0740  -15.7586  -15.4199 C   0  0  0  0  0  0  0  0  0  0  0  0
   20.0567  -14.4594  -15.7427 N   0  0  0  0  0  0  0  0  0  0  0  0
   21.3104  -13.9367  -15.7141 C   0  0  0  0  0  0  0  0  0  0  0  0
   21.8279  -12.6884  -15.9621 C   0  0  0  0  0  0  0  0  0  0  0  0
   23.1753  -12.4706  -15.8523 C   0  0  0  0  0  0  0  0  0  0  0  0
   24.0092  -13.5090  -15.4923 C   0  0  0  0  0  0  0  0  0  0  0  0
   23.4830  -14.7724  -15.2416 C   0  0  0  0  0  0  0  0  0  0  0  0
   22.1288  -15.0053  -15.3475 C   0  0  0  0  0  0  0  0  0  0  0  0
   23.4076  -19.0590  -15.5592 C   0  0  0  0  0  0  0  0  0  0  0  0
   23.3546  -20.2382  -15.1448 O   0  0  0  0  0  0  0  0  0  0  0  0
   29.3517  -18.0876  -16.4281 C   0  0  0  0  0  0  0  0  0  0  0  0
   28.3502  -19.0693  -15.7990 C   0  0  2  0  0  0  0  0  0  0  0  0
   28.5671  -20.4346  -16.3485 C   0  0  0  0  0  0  0  0  0  0  0  0
   27.0039  -18.4958  -16.0303 C   0  0  0  0  0  0  0  0  0  0  0  0
   25.8511  -19.2663  -15.4448 C   0  0  2  0  0  0  0  0  0  0  0  0
   24.6706  -18.4289  -15.6589 N   0  0  0  0  0  0  0  0  0  0  0  0
   26.0209  -19.4165  -13.9732 C   0  0  0  0  0  0  0  0  0  0  0  0
   26.0761  -18.3703  -13.2862 O   0  0  0  0  0  0  0  0  0  0  0  0
   25.0634  -20.5137   -8.8189 C   0  0  0  0  0  0  0  0  0  0  0  0
   25.6809  -21.5457   -9.7142 C   0  0  0  0  0  0  0  0  0  0  0  0
   25.2400  -21.2832  -11.1493 C   0  0  2  0  0  0  0  0  0  0  0  0
   24.5764  -22.5323  -11.6539 C   0  0  0  0  0  0  0  0  0  0  0  0
   26.4139  -20.8691  -11.9695 C   0  0  2  0  0  0  0  0  0  0  0  0
   26.1172  -20.6935  -13.3666 N   0  0  0  0  0  0  0  0  0  0  0  0
   27.5762  -21.8100  -11.8440 C   0  0  0  0  0  0  0  0  0  0  0  0
   27.8304  -22.6868  -12.8876 O   0  0  0  0  0  0  0  0  0  0  0  0
   28.3360  -21.8581  -10.8569 O   0  0  0  0  0  0  0  0  0  0  0  0
  2  1  1  1
  2 13  1  0
  3  4  1  0
  3  2  1  0
  4 12  1  0
  4  5  2  0
  5  6  1  0
  7  6  1  0
  7  8  2  0
  9  8  1  0
 10  9  2  0
 11 10  1  0
 11 12  2  0
 12  7  1  0
 13 14  2  0
 16 15  1  6
 17 16  1  0
 18 16  1  0
 19 18  1  1
 20 13  1  0
 20 19  1  0
 21 19  1  0
 21 22  2  0
 23 24  1  0
 25 24  1  0
 25 26  1  6
 27 28  1  6
 27 25  1  0
 28 21  1  0
 29 27  1  0
 30 29  1  0
 31 29  2  0
M  END
$$$$
