WLI.pdb
     RDKit          3D

 31 32  0  0  1  0  0  0  0  0999 V2000
   28.3990  -20.2168  -10.2504 N   0  0  0  0  0  0  0  0  0  0  0  0
   27.2137  -20.9271   -9.8421 C   0  0  1  0  0  0  0  0  0  0  0  0
   26.5415  -20.3731   -8.6214 C   0  0  0  0  0  0  0  0  0  0  0  0
   27.5363  -19.9960   -7.5941 C   0  0  0  0  0  0  0  0  0  0  0  0
   28.6951  -19.2876   -7.8735 C   0  0  0  0  0  0  0  0  0  0  0  0
   29.3690  -19.0860   -6.7344 N   0  0  0  0  0  0  0  0  0  0  0  0
   28.7112  -19.6335   -5.6793 C   0  0  0  0  0  0  0  0  0  0  0  0
   28.9685  -19.7099   -4.3318 C   0  0  0  0  0  0  0  0  0  0  0  0
   28.0905  -20.3539   -3.5017 C   0  0  0  0  0  0  0  0  0  0  0  0
   26.9484  -20.9250   -4.0239 C   0  0  0  0  0  0  0  0  0  0  0  0
   26.6897  -20.8465   -5.3888 C   0  0  0  0  0  0  0  0  0  0  0  0
   27.5644  -20.2006   -6.2356 C   0  0  0  0  0  0  0  0  0  0  0  0
   26.2047  -20.8592  -10.9453 C   0  0  0  0  0  0  0  0  0  0  0  0
   26.0636  -19.8049  -11.6039 O   0  0  0  0  0  0  0  0  0  0  0  0
   24.3540  -25.0051  -14.7847 C   0  0  0  0  0  0  0  0  0  0  0  0
   24.1183  -23.5312  -14.4183 C   0  0  2  0  0  0  0  0  0  0  0  0
   24.5433  -22.6560  -15.5437 C   0  0  0  0  0  0  0  0  0  0  0  0
   24.8210  -23.3039  -13.1339 C   0  0  0  0  0  0  0  0  0  0  0  0
   24.6729  -21.9302  -12.5370 C   0  0  2  0  0  0  0  0  0  0  0  0
   25.3956  -21.9749  -11.2657 N   0  0  0  0  0  0  0  0  0  0  0  0
   23.2447  -21.6531  -12.2197 C   0  0  0  0  0  0  0  0  0  0  0  0
   22.7702  -22.1709  -11.1822 O   0  0  0  0  0  0  0  0  0  0  0  0
   21.1407  -16.7515  -12.9323 C   0  0  0  0  0  0  0  0  0  0  0  0
   21.5780  -18.1246  -12.5182 C   0  0  0  0  0  0  0  0  0  0  0  0
   20.6596  -19.1530  -13.1677 C   0  0  2  0  0  0  0  0  0  0  0  0
   19.2511  -18.8163  -12.7700 C   0  0  0  0  0  0  0  0  0  0  0  0
   21.0728  -20.5262  -12.7604 C   0  0  2  0  0  0  0  0  0  0  0  0
   22.4467  -20.8346  -13.0571 N   0  0  0  0  0  0  0  0  0  0  0  0
   20.2054  -21.5979  -13.3528 C   0  0  0  0  0  0  0  0  0  0  0  0
   19.4675  -22.3985  -12.4943 O   0  0  0  0  0  0  0  0  0  0  0  0
   20.1016  -21.8201  -14.5751 O   0  0  0  0  0  0  0  0  0  0  0  0
  2  1  1  6
  2 13  1  0
  3  4  1  0
  3  2  1  0
  4 12  1  0
  4  5  2  0
  5  6  1  0
  7  6  1  0
  7  8  2  0
  9  8  1  0
 10  9  2  0
 11 10  1  0
 11 12  2  0
 12  7  1  0
 13 14  2  0
 16 15  1  6
 17 16  1  0
 18 16  1  0
 19 18  1  1
 20 13  1  0
 20 19  1  0
 21 19  1  0
 21 22  2  0
 23 24  1  0
 25 24  1  0
 25 26  1  1
 27 28  1  6
 27 25  1  0
 28 21  1  0
 29 27  1  0
 30 29  1  0
 31 29  2  0
M  END
$$$$
