TFY.pdb
     RDKit          3D

 31 32  0  0  1  0  0  0  0  0999 V2000
    9.3954  -19.1076   19.2083 C   0  0  0  0  0  0  0  0  0  0  0  0
    9.5563  -18.2929   20.4726 C   0  0  1  0  0  0  0  0  0  0  0  0
   10.7931  -18.6035   21.0631 O   0  0  0  0  0  0  0  0  0  0  0  0
    9.5007  -16.7984   20.1349 C   0  0  2  0  0  0  0  0  0  0  0  0
   10.7131  -16.5101   19.3788 N   0  0  0  0  0  0  0  0  0  0  0  0
    9.5906  -16.0594   21.4227 C   0  0  0  0  0  0  0  0  0  0  0  0
   10.7208  -15.8064   21.9238 O   0  0  0  0  0  0  0  0  0  0  0  0
    8.4383  -15.6156   22.1297 N   0  0  0  0  0  0  0  0  0  0  0  0
    8.4772  -14.9069   23.3767 C   0  0  1  0  0  0  0  0  0  0  0  0
    7.2007  -14.1664   23.6727 C   0  0  0  0  0  0  0  0  0  0  0  0
    7.2204  -13.4212   24.9290 C   0  0  0  0  0  0  0  0  0  0  0  0
    7.8585  -12.2037   25.0194 C   0  0  0  0  0  0  0  0  0  0  0  0
    7.8846  -11.4818   26.2145 C   0  0  0  0  0  0  0  0  0  0  0  0
    7.2699  -11.9662   27.3475 C   0  0  0  0  0  0  0  0  0  0  0  0
    6.6311  -13.1827   27.2611 C   0  0  0  0  0  0  0  0  0  0  0  0
    6.6107  -13.8930   26.0682 C   0  0  0  0  0  0  0  0  0  0  0  0
    8.9269  -15.7552   24.5092 C   0  0  0  0  0  0  0  0  0  0  0  0
    8.3418  -16.8590   24.6588 O   0  0  0  0  0  0  0  0  0  0  0  0
   13.9166  -19.4086   22.0803 O   0  0  0  0  0  0  0  0  0  0  0  0
   13.4159  -18.7158   23.1538 C   0  0  0  0  0  0  0  0  0  0  0  0
   12.9910  -19.3913   24.2659 C   0  0  0  0  0  0  0  0  0  0  0  0
   12.4892  -18.6773   25.3387 C   0  0  0  0  0  0  0  0  0  0  0  0
   12.3929  -17.3176   25.3491 C   0  0  0  0  0  0  0  0  0  0  0  0
   11.8586  -16.5068   26.4598 C   0  0  0  0  0  0  0  0  0  0  0  0
   10.3723  -16.3424   26.4518 C   0  0  2  0  0  0  0  0  0  0  0  0
    9.9497  -15.4044   25.4082 N   0  0  0  0  0  0  0  0  0  0  0  0
    9.8837  -15.8043   27.7382 C   0  0  0  0  0  0  0  0  0  0  0  0
    9.2929  -14.7042   27.7632 O   0  0  0  0  0  0  0  0  0  0  0  0
   12.8276  -16.6308   24.2124 C   0  0  0  0  0  0  0  0  0  0  0  0
   13.3268  -17.3444   23.1463 C   0  0  0  0  0  0  0  0  0  0  0  0
   10.0558  -16.4757   28.9248 O   0  0  0  0  0  0  0  0  0  0  0  0
  2  1  1  6
  2  3  1  0
  4  2  1  0
  4  5  1  6
  6  4  1  0
  6  7  2  0
  8  6  1  0
  9  8  1  0
  9 10  1  1
 11 10  1  0
 11 12  2  0
 13 12  1  0
 14 13  2  0
 15 16  2  0
 15 14  1  0
 16 11  1  0
 17  9  1  0
 18 17  2  0
 19 20  1  0
 20 30  2  0
 20 21  1  0
 21 22  2  0
 22 23  1  0
 23 24  1  0
 25 24  1  1
 25 27  1  0
 25 26  1  0
 26 17  1  0
 27 31  1  0
 28 27  2  0
 29 23  2  0
 30 29  1  0
M  END
$$$$
