TFY.pdb
     RDKit          3D

 31 32  0  0  1  0  0  0  0  0999 V2000
    8.6272  -19.0541   20.2690 C   0  0  0  0  0  0  0  0  0  0  0  0
    9.4030  -18.3361   19.1870 C   0  0  1  0  0  0  0  0  0  0  0  0
    9.3136  -19.0731   17.9939 O   0  0  0  0  0  0  0  0  0  0  0  0
    8.8205  -16.9333   18.9780 C   0  0  2  0  0  0  0  0  0  0  0  0
    9.5814  -16.3389   17.8860 N   0  0  0  0  0  0  0  0  0  0  0  0
    9.1192  -16.1522   20.2082 C   0  0  0  0  0  0  0  0  0  0  0  0
   10.3177  -15.9358   20.5389 O   0  0  0  0  0  0  0  0  0  0  0  0
    8.0959  -15.6272   21.0459 N   0  0  0  0  0  0  0  0  0  0  0  0
    8.3303  -15.0099   22.3198 C   0  0  1  0  0  0  0  0  0  0  0  0
    7.0667  -14.5319   22.9834 C   0  0  0  0  0  0  0  0  0  0  0  0
    7.2705  -13.9552   24.3100 C   0  0  0  0  0  0  0  0  0  0  0  0
    7.9868  -12.7899   24.4723 C   0  0  0  0  0  0  0  0  0  0  0  0
    8.1887  -12.2287   25.7350 C   0  0  0  0  0  0  0  0  0  0  0  0
    7.6753  -12.8253   26.8650 C   0  0  0  0  0  0  0  0  0  0  0  0
    6.9587  -13.9902   26.7067 C   0  0  0  0  0  0  0  0  0  0  0  0
    6.7635  -14.5404   25.4470 C   0  0  0  0  0  0  0  0  0  0  0  0
    9.1738  -15.8394   23.2168 C   0  0  0  0  0  0  0  0  0  0  0  0
    8.7348  -16.9805   23.5140 O   0  0  0  0  0  0  0  0  0  0  0  0
   10.7318  -14.1229   30.6202 O   0  0  0  0  0  0  0  0  0  0  0  0
   10.6036  -14.7901   29.4280 C   0  0  0  0  0  0  0  0  0  0  0  0
    9.3702  -15.2096   29.0081 C   0  0  0  0  0  0  0  0  0  0  0  0
    9.2591  -15.8807   27.8040 C   0  0  0  0  0  0  0  0  0  0  0  0
   10.3268  -16.1515   27.0009 C   0  0  0  0  0  0  0  0  0  0  0  0
   10.2679  -16.8701   25.7138 C   0  0  0  0  0  0  0  0  0  0  0  0
   11.1573  -16.3130   24.6484 C   0  0  2  0  0  0  0  0  0  0  0  0
   10.4120  -15.4326   23.7445 N   0  0  0  0  0  0  0  0  0  0  0  0
   11.7412  -17.3873   23.8190 C   0  0  0  0  0  0  0  0  0  0  0  0
   12.5396  -18.1993   24.3320 O   0  0  0  0  0  0  0  0  0  0  0  0
   11.5846  -15.7219   27.4321 C   0  0  0  0  0  0  0  0  0  0  0  0
   11.6917  -15.0540   28.6311 C   0  0  0  0  0  0  0  0  0  0  0  0
   11.4364  -17.5305   22.4866 O   0  0  0  0  0  0  0  0  0  0  0  0
  2  1  1  1
  2  3  1  0
  4  2  1  0
  4  5  1  6
  6  4  1  0
  6  7  2  0
  8  6  1  0
  9  8  1  0
  9 10  1  1
 11 10  1  0
 11 12  2  0
 13 12  1  0
 14 13  2  0
 15 16  2  0
 15 14  1  0
 16 11  1  0
 17  9  1  0
 18 17  2  0
 19 20  1  0
 20 30  2  0
 20 21  1  0
 21 22  2  0
 22 23  1  0
 23 24  1  0
 25 24  1  1
 25 27  1  0
 25 26  1  0
 26 17  1  0
 27 31  1  0
 28 27  2  0
 29 23  2  0
 30 29  1  0
M  END
$$$$
