TFY.pdb
     RDKit          3D

 31 32  0  0  1  0  0  0  0  0999 V2000
    8.9855  -19.3351   22.7450 C   0  0  0  0  0  0  0  0  0  0  0  0
   10.0114  -18.9077   21.7189 C   0  0  1  0  0  0  0  0  0  0  0  0
   10.1796  -19.9412   20.7818 O   0  0  0  0  0  0  0  0  0  0  0  0
    9.5341  -17.6345   21.0104 C   0  0  2  0  0  0  0  0  0  0  0  0
   10.5083  -17.3681   19.9594 N   0  0  0  0  0  0  0  0  0  0  0  0
    9.6289  -16.5270   21.9989 C   0  0  0  0  0  0  0  0  0  0  0  0
   10.7602  -16.0780   22.3321 O   0  0  0  0  0  0  0  0  0  0  0  0
    8.4802  -15.9387   22.5981 N   0  0  0  0  0  0  0  0  0  0  0  0
    8.5241  -14.8699   23.5545 C   0  0  1  0  0  0  0  0  0  0  0  0
    7.2173  -14.1324   23.6730 C   0  0  0  0  0  0  0  0  0  0  0  0
    7.1933  -13.1270   24.7325 C   0  0  0  0  0  0  0  0  0  0  0  0
    6.3901  -13.2858   25.8403 C   0  0  0  0  0  0  0  0  0  0  0  0
    6.3582  -12.3319   26.8597 C   0  0  0  0  0  0  0  0  0  0  0  0
    7.1328  -11.1954   26.7902 C   0  0  0  0  0  0  0  0  0  0  0  0
    7.9368  -11.0332   25.6844 C   0  0  0  0  0  0  0  0  0  0  0  0
    7.9616  -11.9874   24.6761 C   0  0  0  0  0  0  0  0  0  0  0  0
    9.0677  -15.2938   24.8694 C   0  0  0  0  0  0  0  0  0  0  0  0
    9.4351  -14.3803   25.6528 O   0  0  0  0  0  0  0  0  0  0  0  0
    6.7862  -22.4418   24.6915 O   0  0  0  0  0  0  0  0  0  0  0  0
    7.1549  -21.2856   25.3320 C   0  0  0  0  0  0  0  0  0  0  0  0
    8.0480  -21.3328   26.3683 C   0  0  0  0  0  0  0  0  0  0  0  0
    8.4086  -20.1581   27.0027 C   0  0  0  0  0  0  0  0  0  0  0  0
    7.9157  -18.9378   26.6472 C   0  0  0  0  0  0  0  0  0  0  0  0
    8.2578  -17.6563   27.2932 C   0  0  0  0  0  0  0  0  0  0  0  0
    9.4323  -16.9509   26.6939 C   0  0  2  0  0  0  0  0  0  0  0  0
    9.1940  -16.6315   25.2836 N   0  0  0  0  0  0  0  0  0  0  0  0
   10.6477  -17.7894   26.7463 C   0  0  0  0  0  0  0  0  0  0  0  0
   11.0836  -18.1773   27.8506 O   0  0  0  0  0  0  0  0  0  0  0  0
    7.0044  -18.8928   25.5888 C   0  0  0  0  0  0  0  0  0  0  0  0
    6.6476  -20.0640   24.9594 C   0  0  0  0  0  0  0  0  0  0  0  0
   11.3270  -18.1647   25.6122 O   0  0  0  0  0  0  0  0  0  0  0  0
  2  1  1  1
  2  3  1  0
  4  2  1  0
  4  5  1  6
  6  4  1  0
  6  7  2  0
  8  6  1  0
  9  8  1  0
  9 10  1  1
 11 10  1  0
 11 12  2  0
 13 12  1  0
 14 13  2  0
 15 16  2  0
 15 14  1  0
 16 11  1  0
 17  9  1  0
 18 17  2  0
 19 20  1  0
 20 30  2  0
 20 21  1  0
 21 22  2  0
 22 23  1  0
 23 24  1  0
 25 24  1  6
 25 27  1  0
 25 26  1  0
 26 17  1  0
 27 31  1  0
 28 27  2  0
 29 23  2  0
 30 29  1  0
M  END
$$$$
