TFY.pdb
     RDKit          3D

 31 32  0  0  1  0  0  0  0  0999 V2000
    7.7994  -15.3827   16.5144 C   0  0  0  0  0  0  0  0  0  0  0  0
    8.3397  -15.1875   17.9137 C   0  0  1  0  0  0  0  0  0  0  0  0
    9.7087  -14.8799   17.8371 O   0  0  0  0  0  0  0  0  0  0  0  0
    7.5865  -14.0440   18.6035 C   0  0  2  0  0  0  0  0  0  0  0  0
    7.9509  -12.8293   17.8850 N   0  0  0  0  0  0  0  0  0  0  0  0
    8.1370  -13.9310   19.9808 C   0  0  0  0  0  0  0  0  0  0  0  0
    9.1958  -13.2744   20.1818 O   0  0  0  0  0  0  0  0  0  0  0  0
    7.5128  -14.5411   21.1044 N   0  0  0  0  0  0  0  0  0  0  0  0
    8.0545  -14.5355   22.4331 C   0  0  1  0  0  0  0  0  0  0  0  0
    7.0676  -14.9942   23.4729 C   0  0  0  0  0  0  0  0  0  0  0  0
    6.8349  -14.0272   24.5428 C   0  0  0  0  0  0  0  0  0  0  0  0
    7.2278  -12.7139   24.4071 C   0  0  0  0  0  0  0  0  0  0  0  0
    7.0112  -11.7800   25.4225 C   0  0  0  0  0  0  0  0  0  0  0  0
    6.3945  -12.1437   26.5988 C   0  0  0  0  0  0  0  0  0  0  0  0
    6.0004  -13.4555   26.7381 C   0  0  0  0  0  0  0  0  0  0  0  0
    6.2202  -14.3765   25.7227 C   0  0  0  0  0  0  0  0  0  0  0  0
    9.3591  -15.2379   22.5277 C   0  0  0  0  0  0  0  0  0  0  0  0
   10.3263  -14.7248   21.9077 O   0  0  0  0  0  0  0  0  0  0  0  0
   11.5034  -15.3973   30.7597 O   0  0  0  0  0  0  0  0  0  0  0  0
   11.0305  -15.3845   29.4716 C   0  0  0  0  0  0  0  0  0  0  0  0
   11.1984  -14.2717   28.6924 C   0  0  0  0  0  0  0  0  0  0  0  0
   10.7156  -14.2760   27.3965 C   0  0  0  0  0  0  0  0  0  0  0  0
   10.0720  -15.3435   26.8448 C   0  0  0  0  0  0  0  0  0  0  0  0
    9.5296  -15.3999   25.4740 C   0  0  0  0  0  0  0  0  0  0  0  0
   10.2167  -16.3749   24.5721 C   0  0  2  0  0  0  0  0  0  0  0  0
    9.5739  -16.4214   23.2559 N   0  0  0  0  0  0  0  0  0  0  0  0
   10.1681  -17.7447   25.1238 C   0  0  0  0  0  0  0  0  0  0  0  0
   11.0415  -18.1149   25.9363 O   0  0  0  0  0  0  0  0  0  0  0  0
    9.9023  -16.4782   27.6427 C   0  0  0  0  0  0  0  0  0  0  0  0
   10.3842  -16.4707   28.9322 C   0  0  0  0  0  0  0  0  0  0  0  0
    9.1862  -18.6401   24.7736 O   0  0  0  0  0  0  0  0  0  0  0  0
  2  1  1  6
  2  3  1  0
  4  2  1  0
  4  5  1  6
  6  4  1  0
  6  7  2  0
  8  6  1  0
  9  8  1  0
  9 10  1  1
 11 10  1  0
 11 12  2  0
 13 12  1  0
 14 13  2  0
 15 16  2  0
 15 14  1  0
 16 11  1  0
 17  9  1  0
 18 17  2  0
 19 20  1  0
 20 30  2  0
 20 21  1  0
 21 22  2  0
 22 23  1  0
 23 24  1  0
 25 24  1  1
 25 27  1  0
 25 26  1  0
 26 17  1  0
 27 31  1  0
 28 27  2  0
 29 23  2  0
 30 29  1  0
M  END
$$$$
