TFY.pdb
     RDKit          3D

 31 32  0  0  1  0  0  0  0  0999 V2000
   10.3625  -19.4227   20.4022 C   0  0  0  0  0  0  0  0  0  0  0  0
   10.3559  -18.3815   21.4994 C   0  0  1  0  0  0  0  0  0  0  0  0
   11.6585  -18.2445   22.0084 O   0  0  0  0  0  0  0  0  0  0  0  0
    9.8730  -17.0399   20.9356 C   0  0  2  0  0  0  0  0  0  0  0  0
   10.9286  -16.5726   20.0458 N   0  0  0  0  0  0  0  0  0  0  0  0
    9.7989  -16.0909   22.0786 C   0  0  0  0  0  0  0  0  0  0  0  0
   10.8384  -15.4859   22.4607 O   0  0  0  0  0  0  0  0  0  0  0  0
    8.5862  -15.8283   22.7749 N   0  0  0  0  0  0  0  0  0  0  0  0
    8.4881  -15.0085   23.9485 C   0  0  1  0  0  0  0  0  0  0  0  0
    7.1119  -14.4335   24.1512 C   0  0  0  0  0  0  0  0  0  0  0  0
    6.9779  -13.6158   25.3542 C   0  0  0  0  0  0  0  0  0  0  0  0
    7.5340  -12.3572   25.4197 C   0  0  0  0  0  0  0  0  0  0  0  0
    7.4130  -11.5659   26.5640 C   0  0  0  0  0  0  0  0  0  0  0  0
    6.7301  -12.0206   27.6699 C   0  0  0  0  0  0  0  0  0  0  0  0
    6.1728  -13.2780   27.6082 C   0  0  0  0  0  0  0  0  0  0  0  0
    6.2986  -14.0572   26.4660 C   0  0  0  0  0  0  0  0  0  0  0  0
    9.0188  -15.6749   25.1643 C   0  0  0  0  0  0  0  0  0  0  0  0
    8.5550  -16.8124   25.4364 O   0  0  0  0  0  0  0  0  0  0  0  0
   14.2864  -18.3213   22.4122 O   0  0  0  0  0  0  0  0  0  0  0  0
   13.7524  -17.7146   23.5211 C   0  0  0  0  0  0  0  0  0  0  0  0
   13.6397  -16.3512   23.5672 C   0  0  0  0  0  0  0  0  0  0  0  0
   13.0993  -15.7562   24.6925 C   0  0  0  0  0  0  0  0  0  0  0  0
   12.6666  -16.4637   25.7744 C   0  0  0  0  0  0  0  0  0  0  0  0
   12.0915  -15.8821   27.0021 C   0  0  0  0  0  0  0  0  0  0  0  0
   10.5986  -15.9306   27.0740 C   0  0  2  0  0  0  0  0  0  0  0  0
    9.9916  -15.1201   26.0146 N   0  0  0  0  0  0  0  0  0  0  0  0
   10.1043  -15.3982   28.3605 C   0  0  0  0  0  0  0  0  0  0  0  0
   10.4562  -15.9398   29.4295 O   0  0  0  0  0  0  0  0  0  0  0  0
   12.7828  -17.8554   25.7243 C   0  0  0  0  0  0  0  0  0  0  0  0
   13.3211  -18.4446   24.6026 C   0  0  0  0  0  0  0  0  0  0  0  0
    9.2608  -14.3154   28.4284 O   0  0  0  0  0  0  0  0  0  0  0  0
  2  1  1  6
  2  3  1  0
  4  2  1  0
  4  5  1  6
  6  4  1  0
  6  7  2  0
  8  6  1  0
  9  8  1  0
  9 10  1  1
 11 10  1  0
 11 12  2  0
 13 12  1  0
 14 13  2  0
 15 16  2  0
 15 14  1  0
 16 11  1  0
 17  9  1  0
 18 17  2  0
 19 20  1  0
 20 30  2  0
 20 21  1  0
 21 22  2  0
 22 23  1  0
 23 24  1  0
 25 24  1  1
 25 27  1  0
 25 26  1  0
 26 17  1  0
 27 31  1  0
 28 27  2  0
 29 23  2  0
 30 29  1  0
M  END
$$$$
