TFY.pdb
     RDKit          3D

 31 32  0  0  1  0  0  0  0  0999 V2000
    8.8246  -18.8695   20.2181 C   0  0  0  0  0  0  0  0  0  0  0  0
    9.8507  -18.1932   19.3363 C   0  0  1  0  0  0  0  0  0  0  0  0
    9.9346  -18.8864   18.1168 O   0  0  0  0  0  0  0  0  0  0  0  0
    9.4355  -16.7394   19.0819 C   0  0  2  0  0  0  0  0  0  0  0  0
   10.4824  -16.1604   18.2491 N   0  0  0  0  0  0  0  0  0  0  0  0
    9.4721  -16.0419   20.3953 C   0  0  0  0  0  0  0  0  0  0  0  0
   10.5744  -15.8737   20.9862 O   0  0  0  0  0  0  0  0  0  0  0  0
    8.2986  -15.5458   21.0286 N   0  0  0  0  0  0  0  0  0  0  0  0
    8.2536  -15.0491   22.3741 C   0  0  1  0  0  0  0  0  0  0  0  0
    6.9701  -14.3307   22.6935 C   0  0  0  0  0  0  0  0  0  0  0  0
    6.8749  -13.8643   24.0745 C   0  0  0  0  0  0  0  0  0  0  0  0
    7.4049  -12.6493   24.4490 C   0  0  0  0  0  0  0  0  0  0  0  0
    7.3204  -12.1923   25.7659 C   0  0  0  0  0  0  0  0  0  0  0  0
    6.7011  -12.9457   26.7381 C   0  0  0  0  0  0  0  0  0  0  0  0
    6.1702  -14.1608   26.3677 C   0  0  0  0  0  0  0  0  0  0  0  0
    6.2593  -14.6064   25.0557 C   0  0  0  0  0  0  0  0  0  0  0  0
    8.6024  -16.0814   23.3825 C   0  0  0  0  0  0  0  0  0  0  0  0
    7.9880  -17.1769   23.3093 O   0  0  0  0  0  0  0  0  0  0  0  0
   11.0389  -13.9815   30.6096 O   0  0  0  0  0  0  0  0  0  0  0  0
   11.1422  -14.6378   29.4089 C   0  0  0  0  0  0  0  0  0  0  0  0
   11.2086  -13.9240   28.2428 C   0  0  0  0  0  0  0  0  0  0  0  0
   11.3124  -14.6014   27.0417 C   0  0  0  0  0  0  0  0  0  0  0  0
   11.3526  -15.9612   26.9543 C   0  0  0  0  0  0  0  0  0  0  0  0
   11.4535  -16.7350   25.7023 C   0  0  0  0  0  0  0  0  0  0  0  0
   10.1403  -17.0745   25.0727 C   0  0  2  0  0  0  0  0  0  0  0  0
    9.5614  -15.9102   24.3965 N   0  0  0  0  0  0  0  0  0  0  0  0
    9.1579  -17.5183   26.0831 C   0  0  0  0  0  0  0  0  0  0  0  0
    8.1285  -16.8400   26.2836 O   0  0  0  0  0  0  0  0  0  0  0  0
   11.2849  -16.6871   28.1465 C   0  0  0  0  0  0  0  0  0  0  0  0
   11.1817  -16.0098   29.3405 C   0  0  0  0  0  0  0  0  0  0  0  0
    9.3343  -18.6639   26.8213 O   0  0  0  0  0  0  0  0  0  0  0  0
  2  1  1  1
  2  3  1  0
  4  2  1  0
  4  5  1  6
  6  4  1  0
  6  7  2  0
  8  6  1  0
  9  8  1  0
  9 10  1  1
 11 10  1  0
 11 12  2  0
 13 12  1  0
 14 13  2  0
 15 16  2  0
 15 14  1  0
 16 11  1  0
 17  9  1  0
 18 17  2  0
 19 20  1  0
 20 30  2  0
 20 21  1  0
 21 22  2  0
 22 23  1  0
 23 24  1  0
 25 24  1  1
 25 27  1  0
 25 26  1  0
 26 17  1  0
 27 31  1  0
 28 27  2  0
 29 23  2  0
 30 29  1  0
M  END
$$$$
