TFY.pdb
     RDKit          3D

 31 32  0  0  1  0  0  0  0  0999 V2000
    8.7921  -19.5949   18.2158 C   0  0  0  0  0  0  0  0  0  0  0  0
    9.0863  -18.6347   19.3470 C   0  0  1  0  0  0  0  0  0  0  0  0
   10.4460  -18.7322   19.6883 O   0  0  0  0  0  0  0  0  0  0  0  0
    8.7609  -17.2025   18.9070 C   0  0  2  0  0  0  0  0  0  0  0  0
    9.7517  -16.8560   17.8956 N   0  0  0  0  0  0  0  0  0  0  0  0
    8.9966  -16.3234   20.0835 C   0  0  0  0  0  0  0  0  0  0  0  0
   10.1266  -15.7867   20.2498 O   0  0  0  0  0  0  0  0  0  0  0  0
    7.9870  -16.0543   21.0494 N   0  0  0  0  0  0  0  0  0  0  0  0
    8.1713  -15.2191   22.2014 C   0  0  1  0  0  0  0  0  0  0  0  0
    6.8855  -14.6222   22.7072 C   0  0  0  0  0  0  0  0  0  0  0  0
    7.0251  -13.8714   23.9525 C   0  0  0  0  0  0  0  0  0  0  0  0
    7.5225  -12.5868   23.9521 C   0  0  0  0  0  0  0  0  0  0  0  0
    7.6609  -11.8588   25.1357 C   0  0  0  0  0  0  0  0  0  0  0  0
    7.3027  -12.4044   26.3483 C   0  0  0  0  0  0  0  0  0  0  0  0
    6.8052  -13.6881   26.3527 C   0  0  0  0  0  0  0  0  0  0  0  0
    6.6713  -14.4039   25.1705 C   0  0  0  0  0  0  0  0  0  0  0  0
    8.9608  -15.8782   23.2721 C   0  0  0  0  0  0  0  0  0  0  0  0
    8.3982  -16.8133   23.8984 O   0  0  0  0  0  0  0  0  0  0  0  0
   11.1003  -15.8981   31.3521 O   0  0  0  0  0  0  0  0  0  0  0  0
   10.8157  -15.6208   30.0387 C   0  0  0  0  0  0  0  0  0  0  0  0
   10.1542  -14.4682   29.7108 C   0  0  0  0  0  0  0  0  0  0  0  0
    9.8755  -14.2044   28.3822 C   0  0  0  0  0  0  0  0  0  0  0  0
   10.2284  -15.0422   27.3663 C   0  0  0  0  0  0  0  0  0  0  0  0
    9.9493  -14.8161   25.9355 C   0  0  0  0  0  0  0  0  0  0  0  0
   10.7415  -15.6759   25.0031 C   0  0  2  0  0  0  0  0  0  0  0  0
   10.2764  -15.5257   23.6215 N   0  0  0  0  0  0  0  0  0  0  0  0
   10.6108  -17.1066   25.3485 C   0  0  0  0  0  0  0  0  0  0  0  0
    9.4750  -17.6126   25.4659 O   0  0  0  0  0  0  0  0  0  0  0  0
   10.9037  -16.2181   27.7042 C   0  0  0  0  0  0  0  0  0  0  0  0
   11.1798  -16.4775   29.0277 C   0  0  0  0  0  0  0  0  0  0  0  0
   11.7048  -17.9138   25.5483 O   0  0  0  0  0  0  0  0  0  0  0  0
  2  1  1  6
  2  3  1  0
  4  2  1  0
  4  5  1  6
  6  4  1  0
  6  7  2  0
  8  6  1  0
  9  8  1  0
  9 10  1  1
 11 10  1  0
 11 12  2  0
 13 12  1  0
 14 13  2  0
 15 16  2  0
 15 14  1  0
 16 11  1  0
 17  9  1  0
 18 17  2  0
 19 20  1  0
 20 30  2  0
 20 21  1  0
 21 22  2  0
 22 23  1  0
 23 24  1  0
 25 24  1  1
 25 27  1  0
 25 26  1  0
 26 17  1  0
 27 31  1  0
 28 27  2  0
 29 23  2  0
 30 29  1  0
M  END
$$$$
