TFY.pdb
     RDKit          3D

 31 32  0  0  1  0  0  0  0  0999 V2000
   11.3690  -19.1720   16.2878 C   0  0  0  0  0  0  0  0  0  0  0  0
   12.2014  -18.0982   15.6229 C   0  0  1  0  0  0  0  0  0  0  0  0
   12.4068  -18.4459   14.2770 O   0  0  0  0  0  0  0  0  0  0  0  0
   11.4719  -16.7523   15.7080 C   0  0  2  0  0  0  0  0  0  0  0  0
   12.3003  -15.7976   14.9820 N   0  0  0  0  0  0  0  0  0  0  0  0
   11.4737  -16.3479   17.1395 C   0  0  0  0  0  0  0  0  0  0  0  0
   12.5189  -15.8620   17.6532 O   0  0  0  0  0  0  0  0  0  0  0  0
   10.3288  -16.4865   17.9729 N   0  0  0  0  0  0  0  0  0  0  0  0
   10.3069  -16.1821   19.3749 C   0  0  1  0  0  0  0  0  0  0  0  0
    8.9132  -16.0969   19.9369 C   0  0  0  0  0  0  0  0  0  0  0  0
    8.3061  -14.7726   19.8292 C   0  0  0  0  0  0  0  0  0  0  0  0
    9.0324  -13.6969   19.3679 C   0  0  0  0  0  0  0  0  0  0  0  0
    8.4635  -12.4260   19.2605 C   0  0  0  0  0  0  0  0  0  0  0  0
    7.1510  -12.2059   19.6141 C   0  0  0  0  0  0  0  0  0  0  0  0
    6.4218  -13.2787   20.0756 C   0  0  0  0  0  0  0  0  0  0  0  0
    6.9964  -14.5384   20.1788 C   0  0  0  0  0  0  0  0  0  0  0  0
   11.1961  -17.0649   20.1713 C   0  0  0  0  0  0  0  0  0  0  0  0
   11.4185  -18.2134   19.7080 O   0  0  0  0  0  0  0  0  0  0  0  0
   19.3230  -14.9229   20.3656 O   0  0  0  0  0  0  0  0  0  0  0  0
   17.9574  -15.0559   20.3820 C   0  0  0  0  0  0  0  0  0  0  0  0
   17.1645  -13.9518   20.5427 C   0  0  0  0  0  0  0  0  0  0  0  0
   15.7901  -14.1040   20.5569 C   0  0  0  0  0  0  0  0  0  0  0  0
   15.1727  -15.3114   20.4178 C   0  0  0  0  0  0  0  0  0  0  0  0
   13.7143  -15.5329   20.4343 C   0  0  0  0  0  0  0  0  0  0  0  0
   13.2429  -16.4986   21.4743 C   0  0  2  0  0  0  0  0  0  0  0  0
   11.7938  -16.7001   21.3907 N   0  0  0  0  0  0  0  0  0  0  0  0
   13.5313  -16.0052   22.8368 C   0  0  0  0  0  0  0  0  0  0  0  0
   14.6347  -16.2575   23.3647 O   0  0  0  0  0  0  0  0  0  0  0  0
   15.9848  -16.4367   20.2537 C   0  0  0  0  0  0  0  0  0  0  0  0
   17.3526  -16.2818   20.2399 C   0  0  0  0  0  0  0  0  0  0  0  0
   12.6207  -15.2693   23.5564 O   0  0  0  0  0  0  0  0  0  0  0  0
  2  1  1  6
  2  3  1  0
  4  2  1  0
  4  5  1  6
  6  4  1  0
  6  7  2  0
  8  6  1  0
  9  8  1  0
  9 10  1  1
 11 10  1  0
 11 12  2  0
 13 12  1  0
 14 13  2  0
 15 16  2  0
 15 14  1  0
 16 11  1  0
 17  9  1  0
 18 17  2  0
 19 20  1  0
 20 30  2  0
 20 21  1  0
 21 22  2  0
 22 23  1  0
 23 24  1  0
 25 24  1  6
 25 27  1  0
 25 26  1  0
 26 17  1  0
 27 31  1  0
 28 27  2  0
 29 23  2  0
 30 29  1  0
M  END
$$$$
