TFY.pdb
     RDKit          3D

 31 32  0  0  1  0  0  0  0  0999 V2000
    6.5700  -20.3737   20.4338 C   0  0  0  0  0  0  0  0  0  0  0  0
    7.1761  -19.3287   21.3441 C   0  0  1  0  0  0  0  0  0  0  0  0
    8.5349  -19.6269   21.5425 O   0  0  0  0  0  0  0  0  0  0  0  0
    7.0348  -17.9422   20.7050 C   0  0  2  0  0  0  0  0  0  0  0  0
    7.9117  -17.9431   19.5407 N   0  0  0  0  0  0  0  0  0  0  0  0
    7.5834  -16.9589   21.6771 C   0  0  0  0  0  0  0  0  0  0  0  0
    8.8127  -16.6743   21.6562 O   0  0  0  0  0  0  0  0  0  0  0  0
    6.7702  -16.3115   22.6488 N   0  0  0  0  0  0  0  0  0  0  0  0
    7.2654  -15.4031   23.6430 C   0  0  1  0  0  0  0  0  0  0  0  0
    6.1890  -14.5309   24.2314 C   0  0  0  0  0  0  0  0  0  0  0  0
    6.6775  -13.5490   25.1963 C   0  0  0  0  0  0  0  0  0  0  0  0
    7.5621  -12.5637   24.8168 C   0  0  0  0  0  0  0  0  0  0  0  0
    8.0364  -11.6194   25.7297 C   0  0  0  0  0  0  0  0  0  0  0  0
    7.6330  -11.6427   27.0462 C   0  0  0  0  0  0  0  0  0  0  0  0
    6.7488  -12.6261   27.4293 C   0  0  0  0  0  0  0  0  0  0  0  0
    6.2830  -13.5605   26.5141 C   0  0  0  0  0  0  0  0  0  0  0  0
    8.0926  -16.0741   24.6772 C   0  0  0  0  0  0  0  0  0  0  0  0
    7.4832  -16.5551   25.6674 O   0  0  0  0  0  0  0  0  0  0  0  0
    5.8300  -21.0831   27.3943 O   0  0  0  0  0  0  0  0  0  0  0  0
    6.9420  -20.3874   26.9914 C   0  0  0  0  0  0  0  0  0  0  0  0
    7.8973  -20.0353   27.9063 C   0  0  0  0  0  0  0  0  0  0  0  0
    9.0116  -19.3342   27.4830 C   0  0  0  0  0  0  0  0  0  0  0  0
    9.2134  -18.9690   26.1852 C   0  0  0  0  0  0  0  0  0  0  0  0
   10.3763  -18.2146   25.6803 C   0  0  0  0  0  0  0  0  0  0  0  0
   10.2377  -16.7279   25.7632 C   0  0  2  0  0  0  0  0  0  0  0  0
    9.4916  -16.2017   24.6168 N   0  0  0  0  0  0  0  0  0  0  0  0
   11.5574  -16.0635   25.7600 C   0  0  0  0  0  0  0  0  0  0  0  0
   11.8397  -15.2547   24.8512 O   0  0  0  0  0  0  0  0  0  0  0  0
    8.2365  -19.3300   25.2535 C   0  0  0  0  0  0  0  0  0  0  0  0
    7.1285  -20.0280   25.6781 C   0  0  0  0  0  0  0  0  0  0  0  0
   12.4996  -16.3035   26.7311 O   0  0  0  0  0  0  0  0  0  0  0  0
  2  1  1  6
  2  3  1  0
  4  2  1  0
  4  5  1  6
  6  4  1  0
  6  7  2  0
  8  6  1  0
  9  8  1  0
  9 10  1  1
 11 10  1  0
 11 12  2  0
 13 12  1  0
 14 13  2  0
 15 16  2  0
 15 14  1  0
 16 11  1  0
 17  9  1  0
 18 17  2  0
 19 20  1  0
 20 30  2  0
 20 21  1  0
 21 22  2  0
 22 23  1  0
 23 24  1  0
 25 24  1  6
 25 27  1  0
 25 26  1  0
 26 17  1  0
 27 31  1  0
 28 27  2  0
 29 23  2  0
 30 29  1  0
M  END
$$$$
