CSE.pdb
     RDKit          3D

 22 21  0  0  1  0  0  0  0  0999 V2000
    8.6582  -16.4133   17.9570 N   0  0  0  0  0  0  0  0  0  0  0  0
    8.0861  -16.6028   19.2496 C   0  0  1  0  0  0  0  0  0  0  0  0
    7.9210  -18.1142   19.4666 C   0  0  0  0  0  0  0  0  0  0  0  0
    6.3557  -18.6453   18.7365 S   0  0  0  0  0  0  0  0  0  0  0  0
    8.8844  -16.0989   20.3772 C   0  0  0  0  0  0  0  0  0  0  0  0
   10.1439  -16.2114   20.2648 O   0  0  0  0  0  0  0  0  0  0  0  0
    7.4098  -15.2222   24.1158 O   0  0  0  0  0  0  0  0  0  0  0  0
    8.3230  -14.3090   23.6085 C   0  0  0  0  0  0  0  0  0  0  0  0
    9.2617  -15.0055   22.6132 C   0  0  2  0  0  0  0  0  0  0  0  0
    8.4010  -15.5094   21.5585 N   0  0  0  0  0  0  0  0  0  0  0  0
    9.9461  -16.0919   23.3582 C   0  0  0  0  0  0  0  0  0  0  0  0
    9.3358  -17.2095   23.3906 O   0  0  0  0  0  0  0  0  0  0  0  0
   11.1759  -15.9470   23.9971 N   0  0  0  0  0  0  0  0  0  0  0  0
   11.8027  -17.0934   24.6505 C   0  0  1  0  0  0  0  0  0  0  0  0
   13.2285  -17.0989   24.1678 C   0  0  0  0  0  0  0  0  0  0  0  0
   14.0936  -16.0038   24.6859 C   0  0  0  0  0  0  0  0  0  0  0  0
   15.3677  -15.8141   23.9726 C   0  0  0  0  0  0  0  0  0  0  0  0
   15.4202  -15.4474   22.7473 O   0  0  0  0  0  0  0  0  0  0  0  0
   11.5827  -17.1263   26.0773 C   0  0  0  0  0  0  0  0  0  0  0  0
   10.9537  -16.2037   26.7051 O   0  0  0  0  0  0  0  0  0  0  0  0
   16.5887  -16.0265   24.6017 O   0  0  0  0  0  0  0  0  0  0  0  0
   12.0203  -18.1649   26.9139 O   0  0  0  0  0  0  0  0  0  0  0  0
  2  5  1  0
  2  1  1  6
  2  3  1  0
  3  4  1  0
  5 10  1  0
  6  5  2  0
  8  7  1  0
  9  8  1  1
 10  9  1  0
 11 12  2  0
 11  9  1  0
 13 11  1  0
 14 15  1  1
 14 13  1  0
 15 16  1  0
 16 17  1  0
 17 18  2  0
 19 14  1  0
 20 19  2  0
 21 17  1  0
 22 19  1  0
M  END
$$$$
