CSE.pdb
     RDKit          3D

 22 21  0  0  1  0  0  0  0  0999 V2000
    8.1577  -16.5794   16.3386 N   0  0  0  0  0  0  0  0  0  0  0  0
    7.8639  -17.0180   17.6634 C   0  0  1  0  0  0  0  0  0  0  0  0
    8.3175  -18.4807   17.7790 C   0  0  0  0  0  0  0  0  0  0  0  0
    7.2800  -19.5039   16.7104 S   0  0  0  0  0  0  0  0  0  0  0  0
    8.5397  -16.2798   18.7411 C   0  0  0  0  0  0  0  0  0  0  0  0
    9.7587  -15.9880   18.5395 O   0  0  0  0  0  0  0  0  0  0  0  0
    6.9545  -15.7283   22.4832 O   0  0  0  0  0  0  0  0  0  0  0  0
    7.6629  -14.6473   21.9782 C   0  0  0  0  0  0  0  0  0  0  0  0
    8.7185  -15.1355   20.9762 C   0  0  2  0  0  0  0  0  0  0  0  0
    7.9799  -15.8665   19.9627 N   0  0  0  0  0  0  0  0  0  0  0  0
    9.6584  -16.0012   21.7319 C   0  0  0  0  0  0  0  0  0  0  0  0
    9.4093  -17.2499   21.6972 O   0  0  0  0  0  0  0  0  0  0  0  0
   10.7553  -15.5258   22.4477 N   0  0  0  0  0  0  0  0  0  0  0  0
   11.6876  -16.4629   23.0695 C   0  0  1  0  0  0  0  0  0  0  0  0
   13.0601  -15.9471   22.7287 C   0  0  0  0  0  0  0  0  0  0  0  0
   14.2021  -16.7241   23.2840 C   0  0  0  0  0  0  0  0  0  0  0  0
   15.5399  -16.2161   22.9372 C   0  0  0  0  0  0  0  0  0  0  0  0
   15.8814  -14.9970   23.1267 O   0  0  0  0  0  0  0  0  0  0  0  0
   11.3980  -16.7156   24.4614 C   0  0  0  0  0  0  0  0  0  0  0  0
   10.6678  -15.9388   25.1716 O   0  0  0  0  0  0  0  0  0  0  0  0
   16.5076  -17.0443   22.3810 O   0  0  0  0  0  0  0  0  0  0  0  0
   11.8713  -17.8306   25.1705 O   0  0  0  0  0  0  0  0  0  0  0  0
  2  5  1  0
  2  1  1  6
  2  3  1  0
  3  4  1  0
  5 10  1  0
  6  5  2  0
  8  7  1  0
  9  8  1  1
 10  9  1  0
 11 12  2  0
 11  9  1  0
 13 11  1  0
 14 15  1  1
 14 13  1  0
 15 16  1  0
 16 17  1  0
 17 18  2  0
 19 14  1  0
 20 19  2  0
 21 17  1  0
 22 19  1  0
M  END
$$$$
