CSE.pdb
     RDKit          3D

 22 21  0  0  1  0  0  0  0  0999 V2000
    7.5105  -14.8635   18.5032 N   0  0  0  0  0  0  0  0  0  0  0  0
    8.4897  -14.4480   19.4531 C   0  0  1  0  0  0  0  0  0  0  0  0
    8.0977  -13.0451   19.9398 C   0  0  0  0  0  0  0  0  0  0  0  0
    8.3714  -11.8613   18.6023 S   0  0  0  0  0  0  0  0  0  0  0  0
    8.6103  -15.2923   20.6512 C   0  0  0  0  0  0  0  0  0  0  0  0
    7.6364  -16.0722   20.8858 O   0  0  0  0  0  0  0  0  0  0  0  0
   11.2491  -17.5983   21.1763 O   0  0  0  0  0  0  0  0  0  0  0  0
   10.0553  -17.6507   21.8815 C   0  0  0  0  0  0  0  0  0  0  0  0
    9.8174  -16.3190   22.6073 C   0  0  2  0  0  0  0  0  0  0  0  0
    9.6848  -15.3254   21.5574 N   0  0  0  0  0  0  0  0  0  0  0  0
   11.0030  -16.0829   23.4689 C   0  0  0  0  0  0  0  0  0  0  0  0
   12.0600  -15.7092   22.8644 O   0  0  0  0  0  0  0  0  0  0  0  0
   11.0086  -16.2463   24.8527 N   0  0  0  0  0  0  0  0  0  0  0  0
   12.2226  -15.9750   25.6186 C   0  0  1  0  0  0  0  0  0  0  0  0
   11.7892  -15.9498   27.0598 C   0  0  0  0  0  0  0  0  0  0  0  0
   10.7459  -14.9461   27.4067 C   0  0  0  0  0  0  0  0  0  0  0  0
   10.2842  -14.9719   28.8046 C   0  0  0  0  0  0  0  0  0  0  0  0
   10.7182  -15.8247   29.6550 O   0  0  0  0  0  0  0  0  0  0  0  0
   13.3225  -16.8430   25.2692 C   0  0  0  0  0  0  0  0  0  0  0  0
   14.5426  -16.5632   25.5417 O   0  0  0  0  0  0  0  0  0  0  0  0
    9.3443  -14.0621   29.2741 O   0  0  0  0  0  0  0  0  0  0  0  0
   13.1712  -18.0740   24.6121 O   0  0  0  0  0  0  0  0  0  0  0  0
  2  5  1  0
  2  1  1  6
  2  3  1  0
  3  4  1  0
  5 10  1  0
  6  5  2  0
  8  7  1  0
  9  8  1  6
 10  9  1  0
 11 12  2  0
 11  9  1  0
 13 11  1  0
 14 15  1  1
 14 13  1  0
 15 16  1  0
 16 17  1  0
 17 18  2  0
 19 14  1  0
 20 19  2  0
 21 17  1  0
 22 19  1  0
M  END
$$$$
