CSE.pdb
     RDKit          3D

 22 21  0  0  1  0  0  0  0  0999 V2000
    9.7608  -17.2931   16.6249 N   0  0  0  0  0  0  0  0  0  0  0  0
    8.7296  -17.2449   17.6088 C   0  0  1  0  0  0  0  0  0  0  0  0
    8.4093  -18.6907   18.0160 C   0  0  0  0  0  0  0  0  0  0  0  0
    7.4223  -19.4629   16.7143 S   0  0  0  0  0  0  0  0  0  0  0  0
    9.0650  -16.5224   18.8451 C   0  0  0  0  0  0  0  0  0  0  0  0
   10.3022  -16.3869   19.0952 O   0  0  0  0  0  0  0  0  0  0  0  0
    6.4759  -15.8966   22.0037 O   0  0  0  0  0  0  0  0  0  0  0  0
    7.2821  -14.8217   21.6573 C   0  0  0  0  0  0  0  0  0  0  0  0
    8.5773  -15.3275   21.0065 C   0  0  2  0  0  0  0  0  0  0  0  0
    8.1639  -15.9697   19.7721 N   0  0  0  0  0  0  0  0  0  0  0  0
    9.1952  -16.2784   21.9646 C   0  0  0  0  0  0  0  0  0  0  0  0
    9.4756  -17.4298   21.4975 O   0  0  0  0  0  0  0  0  0  0  0  0
    9.4695  -15.9777   23.2972 N   0  0  0  0  0  0  0  0  0  0  0  0
   10.5886  -16.6228   23.9794 C   0  0  1  0  0  0  0  0  0  0  0  0
   11.7983  -16.3233   23.1351 C   0  0  0  0  0  0  0  0  0  0  0  0
   13.1059  -16.7613   23.6957 C   0  0  0  0  0  0  0  0  0  0  0  0
   14.2832  -16.4558   22.8657 C   0  0  0  0  0  0  0  0  0  0  0  0
   14.6795  -17.2292   21.9258 O   0  0  0  0  0  0  0  0  0  0  0  0
   10.6613  -16.3001   25.3851 C   0  0  0  0  0  0  0  0  0  0  0  0
   10.1341  -15.2446   25.8841 O   0  0  0  0  0  0  0  0  0  0  0  0
   15.0299  -15.3006   23.0648 O   0  0  0  0  0  0  0  0  0  0  0  0
   11.3000  -17.1043   26.3417 O   0  0  0  0  0  0  0  0  0  0  0  0
  2  5  1  0
  2  1  1  6
  2  3  1  0
  3  4  1  0
  5 10  1  0
  6  5  2  0
  8  7  1  0
  9  8  1  1
 10  9  1  0
 11 12  2  0
 11  9  1  0
 13 11  1  0
 14 15  1  6
 14 13  1  0
 15 16  1  0
 16 17  1  0
 17 18  2  0
 19 14  1  0
 20 19  2  0
 21 17  1  0
 22 19  1  0
M  END
$$$$
