CSE.pdb
     RDKit          3D

 22 21  0  0  1  0  0  0  0  0999 V2000
    7.8059  -12.8968   18.3467 N   0  0  0  0  0  0  0  0  0  0  0  0
    7.7964  -14.0928   19.1234 C   0  0  1  0  0  0  0  0  0  0  0  0
    8.5853  -15.1568   18.3461 C   0  0  0  0  0  0  0  0  0  0  0  0
    8.0525  -15.1389   16.6196 S   0  0  0  0  0  0  0  0  0  0  0  0
    8.4190  -13.9920   20.4519 C   0  0  0  0  0  0  0  0  0  0  0  0
    9.4147  -13.2098   20.5447 O   0  0  0  0  0  0  0  0  0  0  0  0
    6.6626  -15.1981   23.9394 O   0  0  0  0  0  0  0  0  0  0  0  0
    7.6078  -14.1826   23.9104 C   0  0  0  0  0  0  0  0  0  0  0  0
    8.7090  -14.5215   22.8958 C   0  0  2  0  0  0  0  0  0  0  0  0
    8.0287  -14.6670   21.6218 N   0  0  0  0  0  0  0  0  0  0  0  0
    9.3387  -15.7856   23.3534 C   0  0  0  0  0  0  0  0  0  0  0  0
    8.7306  -16.8560   23.0263 O   0  0  0  0  0  0  0  0  0  0  0  0
   10.5169  -15.8484   24.0946 N   0  0  0  0  0  0  0  0  0  0  0  0
   11.0245  -17.1375   24.5577 C   0  0  1  0  0  0  0  0  0  0  0  0
   12.3834  -17.2825   23.9266 C   0  0  0  0  0  0  0  0  0  0  0  0
   13.3239  -16.1489   24.1424 C   0  0  0  0  0  0  0  0  0  0  0  0
   14.6159  -16.2582   23.4447 C   0  0  0  0  0  0  0  0  0  0  0  0
   15.3577  -15.2415   23.2109 O   0  0  0  0  0  0  0  0  0  0  0  0
   10.9340  -17.3045   25.9891 C   0  0  0  0  0  0  0  0  0  0  0  0
   10.4947  -16.3883   26.7694 O   0  0  0  0  0  0  0  0  0  0  0  0
   15.0981  -17.4838   23.0009 O   0  0  0  0  0  0  0  0  0  0  0  0
   11.3032  -18.4771   26.6662 O   0  0  0  0  0  0  0  0  0  0  0  0
  2  5  1  0
  2  1  1  6
  2  3  1  0
  3  4  1  0
  5 10  1  0
  6  5  2  0
  8  7  1  0
  9  8  1  1
 10  9  1  0
 11 12  2  0
 11  9  1  0
 13 11  1  0
 14 15  1  1
 14 13  1  0
 15 16  1  0
 16 17  1  0
 17 18  2  0
 19 14  1  0
 20 19  2  0
 21 17  1  0
 22 19  1  0
M  END
$$$$
