CSE.pdb
     RDKit          3D

 22 21  0  0  1  0  0  0  0  0999 V2000
    8.4968  -17.0925   18.1092 N   0  0  0  0  0  0  0  0  0  0  0  0
    8.2014  -17.2659   19.4936 C   0  0  1  0  0  0  0  0  0  0  0  0
    8.2908  -18.7677   19.8022 C   0  0  0  0  0  0  0  0  0  0  0  0
    7.0739  -19.6477   18.7973 S   0  0  0  0  0  0  0  0  0  0  0  0
    9.1133  -16.5878   20.4271 C   0  0  0  0  0  0  0  0  0  0  0  0
   10.2751  -16.3296   19.9853 O   0  0  0  0  0  0  0  0  0  0  0  0
    8.3461  -16.0546   24.4099 O   0  0  0  0  0  0  0  0  0  0  0  0
    8.9373  -14.9687   23.7802 C   0  0  0  0  0  0  0  0  0  0  0  0
    9.7604  -15.4467   22.5757 C   0  0  2  0  0  0  0  0  0  0  0  0
    8.8339  -16.1983   21.7488 N   0  0  0  0  0  0  0  0  0  0  0  0
   10.8572  -16.2900   23.1139 C   0  0  0  0  0  0  0  0  0  0  0  0
   10.6441  -17.5458   23.1051 O   0  0  0  0  0  0  0  0  0  0  0  0
   12.0592  -15.7874   23.6078 N   0  0  0  0  0  0  0  0  0  0  0  0
   13.0918  -16.6998   24.0931 C   0  0  1  0  0  0  0  0  0  0  0  0
   14.3965  -16.1122   23.6261 C   0  0  0  0  0  0  0  0  0  0  0  0
   15.6263  -16.8122   24.0884 C   0  0  0  0  0  0  0  0  0  0  0  0
   16.8973  -16.2175   23.6423 C   0  0  0  0  0  0  0  0  0  0  0  0
   17.0096  -15.5922   22.5309 O   0  0  0  0  0  0  0  0  0  0  0  0
   12.9652  -17.0077   25.4982 C   0  0  0  0  0  0  0  0  0  0  0  0
   12.3345  -16.2548   26.3207 O   0  0  0  0  0  0  0  0  0  0  0  0
   18.0496  -16.3074   24.4142 O   0  0  0  0  0  0  0  0  0  0  0  0
   13.5041  -18.1551   26.1007 O   0  0  0  0  0  0  0  0  0  0  0  0
  2  5  1  0
  2  1  1  6
  2  3  1  0
  3  4  1  0
  5 10  1  0
  6  5  2  0
  8  7  1  0
  9  8  1  1
 10  9  1  0
 11 12  2  0
 11  9  1  0
 13 11  1  0
 14 15  1  1
 14 13  1  0
 15 16  1  0
 16 17  1  0
 17 18  2  0
 19 14  1  0
 20 19  2  0
 21 17  1  0
 22 19  1  0
M  END
$$$$
