CSE.pdb
     RDKit          3D

 22 21  0  0  1  0  0  0  0  0999 V2000
   10.4910  -18.0652   14.1698 N   0  0  0  0  0  0  0  0  0  0  0  0
    9.6557  -18.6716   15.1539 C   0  0  1  0  0  0  0  0  0  0  0  0
    9.8741  -20.1897   15.0758 C   0  0  0  0  0  0  0  0  0  0  0  0
    8.7594  -21.0046   16.2414 S   0  0  0  0  0  0  0  0  0  0  0  0
    9.9246  -18.2772   16.5450 C   0  0  0  0  0  0  0  0  0  0  0  0
   11.1446  -18.1071   16.8519 O   0  0  0  0  0  0  0  0  0  0  0  0
    7.1419  -18.3086   19.6119 O   0  0  0  0  0  0  0  0  0  0  0  0
    7.9925  -17.2141   19.5497 C   0  0  0  0  0  0  0  0  0  0  0  0
    9.3224  -17.6214   18.8997 C   0  0  2  0  0  0  0  0  0  0  0  0
    8.9773  -18.0702   17.5631 N   0  0  0  0  0  0  0  0  0  0  0  0
    9.8932  -18.7071   19.7359 C   0  0  0  0  0  0  0  0  0  0  0  0
    9.4174  -19.8708   19.5310 O   0  0  0  0  0  0  0  0  0  0  0  0
   10.8853  -18.5153   20.6953 N   0  0  0  0  0  0  0  0  0  0  0  0
   11.2975  -19.6216   21.5556 C   0  0  1  0  0  0  0  0  0  0  0  0
   12.6539  -20.0364   21.0517 C   0  0  0  0  0  0  0  0  0  0  0  0
   13.5268  -18.9368   20.5567 C   0  0  0  0  0  0  0  0  0  0  0  0
   14.8486  -19.3544   20.0599 C   0  0  0  0  0  0  0  0  0  0  0  0
   15.2659  -20.5611   20.1507 O   0  0  0  0  0  0  0  0  0  0  0  0
   11.1721  -19.3257   22.9634 C   0  0  0  0  0  0  0  0  0  0  0  0
   11.4152  -20.1879   23.8793 O   0  0  0  0  0  0  0  0  0  0  0  0
   15.7170  -18.4488   19.4620 O   0  0  0  0  0  0  0  0  0  0  0  0
   10.7859  -18.0751   23.4700 O   0  0  0  0  0  0  0  0  0  0  0  0
  2  5  1  0
  2  1  1  6
  2  3  1  0
  3  4  1  0
  5 10  1  0
  6  5  2  0
  8  7  1  0
  9  8  1  1
 10  9  1  0
 11 12  2  0
 11  9  1  0
 13 11  1  0
 14 15  1  1
 14 13  1  0
 15 16  1  0
 16 17  1  0
 17 18  2  0
 19 14  1  0
 20 19  2  0
 21 17  1  0
 22 19  1  0
M  END
$$$$
