CSE.pdb
     RDKit          3D

 22 21  0  0  1  0  0  0  0  0999 V2000
   -3.8114  -23.9515   28.3517 N   0  0  0  0  0  0  0  0  0  0  0  0
   -5.0128  -23.2512   28.6681 C   0  0  1  0  0  0  0  0  0  0  0  0
   -5.2853  -22.2592   27.5279 C   0  0  0  0  0  0  0  0  0  0  0  0
   -4.0858  -20.9111   27.6225 S   0  0  0  0  0  0  0  0  0  0  0  0
   -6.2174  -24.0846   28.7999 C   0  0  0  0  0  0  0  0  0  0  0  0
   -6.5495  -24.7533   27.7731 O   0  0  0  0  0  0  0  0  0  0  0  0
   -7.0983  -25.4374   32.2078 O   0  0  0  0  0  0  0  0  0  0  0  0
   -7.6640  -26.1533   31.1624 C   0  0  0  0  0  0  0  0  0  0  0  0
   -8.1020  -25.1932   30.0474 C   0  0  2  0  0  0  0  0  0  0  0  0
   -7.0336  -24.2168   29.9369 N   0  0  0  0  0  0  0  0  0  0  0  0
   -9.3851  -24.5873   30.4835 C   0  0  0  0  0  0  0  0  0  0  0  0
   -9.2858  -23.5543   31.2221 O   0  0  0  0  0  0  0  0  0  0  0  0
  -10.6408  -25.0800   30.1342 N   0  0  0  0  0  0  0  0  0  0  0  0
  -11.8488  -24.4485   30.6595 C   0  0  1  0  0  0  0  0  0  0  0  0
  -12.7769  -24.3185   29.4815 C   0  0  0  0  0  0  0  0  0  0  0  0
  -12.4210  -23.2695   28.4871 C   0  0  0  0  0  0  0  0  0  0  0  0
  -13.2593  -23.2354   27.2771 C   0  0  0  0  0  0  0  0  0  0  0  0
  -13.0351  -22.4280   26.3094 O   0  0  0  0  0  0  0  0  0  0  0  0
  -12.3621  -25.0971   31.8431 C   0  0  0  0  0  0  0  0  0  0  0  0
  -11.9999  -26.2715   32.2046 O   0  0  0  0  0  0  0  0  0  0  0  0
  -14.3470  -24.0873   27.1251 O   0  0  0  0  0  0  0  0  0  0  0  0
  -13.2921  -24.5121   32.7165 O   0  0  0  0  0  0  0  0  0  0  0  0
  2  5  1  0
  2  1  1  6
  2  3  1  0
  3  4  1  0
  5 10  1  0
  6  5  2  0
  8  7  1  0
  9  8  1  1
 10  9  1  0
 11 12  2  0
 11  9  1  0
 13 11  1  0
 14 15  1  6
 14 13  1  0
 15 16  1  0
 16 17  1  0
 17 18  2  0
 19 14  1  0
 20 19  2  0
 21 17  1  0
 22 19  1  0
M  END
$$$$
