CSE.pdb
     RDKit          3D

 22 21  0  0  1  0  0  0  0  0999 V2000
    8.7737  -15.1992   13.8012 N   0  0  0  0  0  0  0  0  0  0  0  0
    8.0620  -15.0686   15.0301 C   0  0  1  0  0  0  0  0  0  0  0  0
    7.6344  -16.4765   15.4701 C   0  0  0  0  0  0  0  0  0  0  0  0
    8.9877  -17.2405   16.3921 S   0  0  0  0  0  0  0  0  0  0  0  0
    8.8245  -14.4904   16.1469 C   0  0  0  0  0  0  0  0  0  0  0  0
   10.0844  -14.4439   15.9987 O   0  0  0  0  0  0  0  0  0  0  0  0
    7.3295  -13.7771   19.8995 O   0  0  0  0  0  0  0  0  0  0  0  0
    8.1256  -12.7646   19.3834 C   0  0  0  0  0  0  0  0  0  0  0  0
    9.1209  -13.3466   18.3698 C   0  0  2  0  0  0  0  0  0  0  0  0
    8.3065  -13.9871   17.3531 N   0  0  0  0  0  0  0  0  0  0  0  0
    9.9714  -14.3120   19.1105 C   0  0  0  0  0  0  0  0  0  0  0  0
    9.5460  -15.5122   19.1423 O   0  0  0  0  0  0  0  0  0  0  0  0
   11.1647  -13.9750   19.7459 N   0  0  0  0  0  0  0  0  0  0  0  0
   11.9706  -15.0095   20.3896 C   0  0  1  0  0  0  0  0  0  0  0  0
   13.3759  -14.4701   20.4051 C   0  0  0  0  0  0  0  0  0  0  0  0
   14.4407  -15.4428   20.7737 C   0  0  0  0  0  0  0  0  0  0  0  0
   15.8103  -14.9024   20.7948 C   0  0  0  0  0  0  0  0  0  0  0  0
   16.2229  -14.1143   21.7153 O   0  0  0  0  0  0  0  0  0  0  0  0
   11.4181  -15.4640   21.6440 C   0  0  0  0  0  0  0  0  0  0  0  0
   11.8289  -16.5193   22.2429 O   0  0  0  0  0  0  0  0  0  0  0  0
   16.7317  -15.2249   19.8055 O   0  0  0  0  0  0  0  0  0  0  0  0
   10.3930  -14.7997   22.3352 O   0  0  0  0  0  0  0  0  0  0  0  0
  2  5  1  0
  2  1  1  6
  2  3  1  0
  3  4  1  0
  5 10  1  0
  6  5  2  0
  8  7  1  0
  9  8  1  1
 10  9  1  0
 11 12  2  0
 11  9  1  0
 13 11  1  0
 14 15  1  1
 14 13  1  0
 15 16  1  0
 16 17  1  0
 17 18  2  0
 19 14  1  0
 20 19  2  0
 21 17  1  0
 22 19  1  0
M  END
$$$$
