CSE.pdb
     RDKit          3D

 22 21  0  0  1  0  0  0  0  0999 V2000
    7.9922  -16.8079   17.0960 N   0  0  0  0  0  0  0  0  0  0  0  0
    7.6146  -16.9699   18.4617 C   0  0  1  0  0  0  0  0  0  0  0  0
    7.7377  -18.4622   18.8029 C   0  0  0  0  0  0  0  0  0  0  0  0
    6.2599  -19.3225   18.2190 S   0  0  0  0  0  0  0  0  0  0  0  0
    8.4396  -16.2437   19.4389 C   0  0  0  0  0  0  0  0  0  0  0  0
    9.6539  -16.0592   19.1178 O   0  0  0  0  0  0  0  0  0  0  0  0
    7.2997  -15.4307   23.3198 O   0  0  0  0  0  0  0  0  0  0  0  0
    7.9879  -14.4210   22.6625 C   0  0  0  0  0  0  0  0  0  0  0  0
    8.9070  -15.0255   21.5917 C   0  0  2  0  0  0  0  0  0  0  0  0
    8.0259  -15.7360   20.6830 N   0  0  0  0  0  0  0  0  0  0  0  0
    9.8487  -15.9309   22.2970 C   0  0  0  0  0  0  0  0  0  0  0  0
    9.5505  -17.1689   22.2692 O   0  0  0  0  0  0  0  0  0  0  0  0
   10.9964  -15.5020   22.9604 N   0  0  0  0  0  0  0  0  0  0  0  0
   11.9298  -16.4779   23.5176 C   0  0  1  0  0  0  0  0  0  0  0  0
   13.2902  -16.0514   23.0348 C   0  0  0  0  0  0  0  0  0  0  0  0
   14.4313  -16.8988   23.4771 C   0  0  0  0  0  0  0  0  0  0  0  0
   15.7538  -16.4898   22.9753 C   0  0  0  0  0  0  0  0  0  0  0  0
   16.3201  -15.4016   23.3409 O   0  0  0  0  0  0  0  0  0  0  0  0
   11.7608  -16.6818   24.9371 C   0  0  0  0  0  0  0  0  0  0  0  0
   12.1804  -17.7292   25.5437 O   0  0  0  0  0  0  0  0  0  0  0  0
   16.4593  -17.2737   22.0700 O   0  0  0  0  0  0  0  0  0  0  0  0
   11.1363  -15.7607   25.7923 O   0  0  0  0  0  0  0  0  0  0  0  0
  2  5  1  0
  2  1  1  6
  2  3  1  0
  3  4  1  0
  5 10  1  0
  6  5  2  0
  8  7  1  0
  9  8  1  1
 10  9  1  0
 11 12  2  0
 11  9  1  0
 13 11  1  0
 14 15  1  1
 14 13  1  0
 15 16  1  0
 16 17  1  0
 17 18  2  0
 19 14  1  0
 20 19  2  0
 21 17  1  0
 22 19  1  0
M  END
$$$$
