CSE.pdb
     RDKit          3D

 22 21  0  0  1  0  0  0  0  0999 V2000
   -3.0061  -21.1162   22.6802 N   0  0  0  0  0  0  0  0  0  0  0  0
   -3.5719  -20.0751   23.4738 C   0  0  1  0  0  0  0  0  0  0  0  0
   -3.5810  -18.7964   22.6232 C   0  0  0  0  0  0  0  0  0  0  0  0
   -1.8830  -18.3860   22.1609 S   0  0  0  0  0  0  0  0  0  0  0  0
   -4.9562  -20.2966   23.9182 C   0  0  0  0  0  0  0  0  0  0  0  0
   -5.4630  -19.3859   24.6431 O   0  0  0  0  0  0  0  0  0  0  0  0
   -7.3753  -23.0411   22.3330 O   0  0  0  0  0  0  0  0  0  0  0  0
   -7.9933  -22.0670   23.1040 C   0  0  0  0  0  0  0  0  0  0  0  0
   -7.0627  -21.6353   24.2462 C   0  0  2  0  0  0  0  0  0  0  0  0
   -5.7711  -21.4042   23.6255 N   0  0  0  0  0  0  0  0  0  0  0  0
   -7.0344  -22.7541   25.2216 C   0  0  0  0  0  0  0  0  0  0  0  0
   -6.0437  -23.5486   25.1227 O   0  0  0  0  0  0  0  0  0  0  0  0
   -8.0047  -22.9634   26.1993 N   0  0  0  0  0  0  0  0  0  0  0  0
   -7.8642  -24.0649   27.1486 C   0  0  1  0  0  0  0  0  0  0  0  0
   -6.5593  -23.8183   27.8572 C   0  0  0  0  0  0  0  0  0  0  0  0
   -6.2469  -24.7414   28.9825 C   0  0  0  0  0  0  0  0  0  0  0  0
   -4.9867  -24.4676   29.6932 C   0  0  0  0  0  0  0  0  0  0  0  0
   -4.8862  -24.5462   30.9669 O   0  0  0  0  0  0  0  0  0  0  0  0
   -9.0378  -24.2662   27.9654 C   0  0  0  0  0  0  0  0  0  0  0  0
   -9.9492  -23.3767   28.1040 O   0  0  0  0  0  0  0  0  0  0  0  0
   -3.8325  -24.1062   29.0084 O   0  0  0  0  0  0  0  0  0  0  0  0
   -9.3050  -25.4468   28.6759 O   0  0  0  0  0  0  0  0  0  0  0  0
  2  5  1  0
  2  1  1  6
  2  3  1  0
  3  4  1  0
  5 10  1  0
  6  5  2  0
  8  7  1  0
  9  8  1  6
 10  9  1  0
 11 12  2  0
 11  9  1  0
 13 11  1  0
 14 15  1  1
 14 13  1  0
 15 16  1  0
 16 17  1  0
 17 18  2  0
 19 14  1  0
 20 19  2  0
 21 17  1  0
 22 19  1  0
M  END
$$$$
