CSE.pdb
     RDKit          3D

 22 21  0  0  1  0  0  0  0  0999 V2000
    9.4723  -18.7163   18.1331 N   0  0  0  0  0  0  0  0  0  0  0  0
    8.9278  -18.4977   19.4329 C   0  0  1  0  0  0  0  0  0  0  0  0
    8.1722  -19.7715   19.8394 C   0  0  0  0  0  0  0  0  0  0  0  0
    7.4622  -19.5342   21.4840 S   0  0  0  0  0  0  0  0  0  0  0  0
    9.9089  -18.2313   20.4956 C   0  0  0  0  0  0  0  0  0  0  0  0
   10.9405  -18.9711   20.5023 O   0  0  0  0  0  0  0  0  0  0  0  0
    9.3823  -15.4162   23.4822 O   0  0  0  0  0  0  0  0  0  0  0  0
   10.6666  -15.6036   22.9917 C   0  0  0  0  0  0  0  0  0  0  0  0
   10.8390  -17.0533   22.5166 C   0  0  2  0  0  0  0  0  0  0  0  0
    9.8236  -17.2491   21.4979 N   0  0  0  0  0  0  0  0  0  0  0  0
   10.6305  -17.9206   23.7033 C   0  0  0  0  0  0  0  0  0  0  0  0
    9.4445  -18.3545   23.8692 O   0  0  0  0  0  0  0  0  0  0  0  0
   11.6347  -18.2653   24.6056 N   0  0  0  0  0  0  0  0  0  0  0  0
   11.3198  -19.0765   25.7790 C   0  0  1  0  0  0  0  0  0  0  0  0
   11.3824  -20.5044   25.3069 C   0  0  0  0  0  0  0  0  0  0  0  0
   11.1425  -21.5430   26.3459 C   0  0  0  0  0  0  0  0  0  0  0  0
   11.2753  -22.9364   25.8890 C   0  0  0  0  0  0  0  0  0  0  0  0
   11.6755  -23.2370   24.7108 O   0  0  0  0  0  0  0  0  0  0  0  0
   12.1014  -18.7246   26.9412 C   0  0  0  0  0  0  0  0  0  0  0  0
   11.7394  -19.0132   28.1357 O   0  0  0  0  0  0  0  0  0  0  0  0
   10.9691  -24.0048   26.7235 O   0  0  0  0  0  0  0  0  0  0  0  0
   13.3294  -18.0474   26.8841 O   0  0  0  0  0  0  0  0  0  0  0  0
  2  5  1  0
  2  1  1  6
  2  3  1  0
  3  4  1  0
  5 10  1  0
  6  5  2  0
  8  7  1  0
  9  8  1  1
 10  9  1  0
 11 12  2  0
 11  9  1  0
 13 11  1  0
 14 15  1  6
 14 13  1  0
 15 16  1  0
 16 17  1  0
 17 18  2  0
 19 14  1  0
 20 19  2  0
 21 17  1  0
 22 19  1  0
M  END
$$$$
