EHD.pdb
     RDKit          3D

 28 28  0  0  1  0  0  0  0  0999 V2000
   12.8340  -10.1298  -11.1205 N   0  0  0  0  0  0  0  0  0  0  0  0
   14.2574  -10.2410  -10.7632 C   0  0  1  0  0  0  0  0  0  0  0  0
   14.8918  -11.1167  -11.7890 C   0  0  0  0  0  0  0  0  0  0  0  0
   14.5380  -12.5602  -11.7013 C   0  0  0  0  0  0  0  0  0  0  0  0
   15.2597  -13.3164  -10.6802 C   0  0  0  0  0  0  0  0  0  0  0  0
   16.3724  -12.9320  -10.2464 O   0  0  0  0  0  0  0  0  0  0  0  0
   14.8374   -8.8744  -10.7283 C   0  0  0  0  0  0  0  0  0  0  0  0
   14.4465   -7.9967  -11.5315 O   0  0  0  0  0  0  0  0  0  0  0  0
   14.7257  -14.4848  -10.1645 O   0  0  0  0  0  0  0  0  0  0  0  0
   15.8578   -8.5030   -9.7857 N   0  0  0  0  0  0  0  0  0  0  0  0
   16.3881   -7.1821   -9.8029 C   0  0  1  0  0  0  0  0  0  0  0  0
   16.2522   -6.4278   -8.5341 C   0  0  0  0  0  0  0  0  0  0  0  0
   14.9195   -5.9888   -8.1466 C   0  0  0  0  0  0  0  0  0  0  0  0
   13.7149   -6.1205   -8.7759 C   0  0  0  0  0  0  0  0  0  0  0  0
   12.7050   -5.5790   -8.0255 N   0  0  0  0  0  0  0  0  0  0  0  0
   13.3233   -5.1190   -6.9318 C   0  0  0  0  0  0  0  0  0  0  0  0
   14.6260   -5.3441   -6.9714 N   0  0  0  0  0  0  0  0  0  0  0  0
   17.7906   -7.1399  -10.2994 C   0  0  0  0  0  0  0  0  0  0  0  0
   18.6063   -7.9444   -9.8164 O   0  0  0  0  0  0  0  0  0  0  0  0
   18.1960   -6.2221  -11.2859 N   0  0  0  0  0  0  0  0  0  0  0  0
   19.5280   -6.3444  -11.8982 C   0  0  1  0  0  0  0  0  0  0  0  0
   19.6531   -7.6527  -12.6111 C   0  0  0  0  0  0  0  0  0  0  0  0
   20.8976   -7.7933  -13.3960 C   0  0  0  0  0  0  0  0  0  0  0  0
   20.9267   -8.2095  -14.5781 O   0  0  0  0  0  0  0  0  0  0  0  0
   19.7462   -5.2194  -12.8291 C   0  0  0  0  0  0  0  0  0  0  0  0
   18.7616   -4.3518  -13.2298 O   0  0  0  0  0  0  0  0  0  0  0  0
   22.1163   -7.4545  -12.8214 O   0  0  0  0  0  0  0  0  0  0  0  0
   20.9115   -5.0392  -13.2903 O   0  0  0  0  0  0  0  0  0  0  0  0
  2  1  1  6
  2  3  1  0
  4  3  1  0
  5  4  1  0
  6  5  2  0
  7  2  1  0
  7  8  2  0
  9  5  1  0
 10  7  1  0
 11 10  1  0
 11 12  1  1
 12 13  1  0
 13 17  1  0
 14 13  2  0
 14 15  1  0
 15 16  1  0
 17 16  2  0
 18 11  1  0
 19 18  2  0
 20 18  1  0
 21 20  1  0
 21 22  1  6
 23 22  1  0
 24 23  2  0
 25 21  1  0
 26 25  1  0
 27 23  1  0
 28 25  2  0
M  END
$$$$
