EHD.pdb
     RDKit          3D

 28 28  0  0  1  0  0  0  0  0999 V2000
   18.7121  -31.9836  -12.8162 N   0  0  0  0  0  0  0  0  0  0  0  0
   19.4755  -31.0830  -11.9373 C   0  0  1  0  0  0  0  0  0  0  0  0
   18.4790  -30.3020  -11.1507 C   0  0  0  0  0  0  0  0  0  0  0  0
   17.6228  -31.1027  -10.2330 C   0  0  0  0  0  0  0  0  0  0  0  0
   16.5432  -30.3614   -9.5847 C   0  0  0  0  0  0  0  0  0  0  0  0
   16.3684  -30.4128   -8.3434 O   0  0  0  0  0  0  0  0  0  0  0  0
   20.3682  -31.9092  -11.0854 C   0  0  0  0  0  0  0  0  0  0  0  0
   20.0820  -33.1022  -10.8335 O   0  0  0  0  0  0  0  0  0  0  0  0
   15.6816  -29.5786  -10.3339 O   0  0  0  0  0  0  0  0  0  0  0  0
   21.5821  -31.3853  -10.5201 N   0  0  0  0  0  0  0  0  0  0  0  0
   22.4371  -32.2395   -9.7681 C   0  0  1  0  0  0  0  0  0  0  0  0
   23.8074  -31.7228   -9.5391 C   0  0  0  0  0  0  0  0  0  0  0  0
   24.7868  -32.6327   -8.9630 C   0  0  0  0  0  0  0  0  0  0  0  0
   24.6675  -33.9247   -8.5379 C   0  0  0  0  0  0  0  0  0  0  0  0
   25.8679  -34.4092   -8.0902 N   0  0  0  0  0  0  0  0  0  0  0  0
   26.7133  -33.3852   -8.2541 C   0  0  0  0  0  0  0  0  0  0  0  0
   26.1094  -32.3254   -8.7655 N   0  0  0  0  0  0  0  0  0  0  0  0
   21.8153  -32.6831   -8.4906 C   0  0  0  0  0  0  0  0  0  0  0  0
   21.1380  -31.8584   -7.8527 O   0  0  0  0  0  0  0  0  0  0  0  0
   21.9805  -33.9939   -8.0066 N   0  0  0  0  0  0  0  0  0  0  0  0
   21.3286  -34.3999   -6.7518 C   0  0  1  0  0  0  0  0  0  0  0  0
   21.2177  -35.8893   -6.6832 C   0  0  0  0  0  0  0  0  0  0  0  0
   19.8736  -36.3756   -6.3067 C   0  0  0  0  0  0  0  0  0  0  0  0
   19.1996  -35.8892   -5.3685 O   0  0  0  0  0  0  0  0  0  0  0  0
   22.1013  -33.8803   -5.6060 C   0  0  0  0  0  0  0  0  0  0  0  0
   23.2978  -33.2187   -5.7230 O   0  0  0  0  0  0  0  0  0  0  0  0
   19.2992  -37.4265   -7.0110 O   0  0  0  0  0  0  0  0  0  0  0  0
   21.6370  -34.0532   -4.4409 O   0  0  0  0  0  0  0  0  0  0  0  0
  2  1  1  6
  2  3  1  0
  4  3  1  0
  5  4  1  0
  6  5  2  0
  7  2  1  0
  7  8  2  0
  9  5  1  0
 10  7  1  0
 11 10  1  0
 11 12  1  1
 12 13  1  0
 13 17  1  0
 14 13  2  0
 14 15  1  0
 15 16  1  0
 17 16  2  0
 18 11  1  0
 19 18  2  0
 20 18  1  0
 21 20  1  0
 21 22  1  1
 23 22  1  0
 24 23  2  0
 25 21  1  0
 26 25  1  0
 27 23  1  0
 28 25  2  0
M  END
$$$$
