EHD.pdb
     RDKit          3D

 28 28  0  0  1  0  0  0  0  0999 V2000
   26.3639  -21.6420  -16.9764 N   0  0  0  0  0  0  0  0  0  0  0  0
   25.6042  -20.4104  -16.7079 C   0  0  1  0  0  0  0  0  0  0  0  0
   25.1074  -19.9154  -18.0230 C   0  0  0  0  0  0  0  0  0  0  0  0
   26.1360  -19.2880  -18.8976 C   0  0  0  0  0  0  0  0  0  0  0  0
   26.8468  -18.1556  -18.3078 C   0  0  0  0  0  0  0  0  0  0  0  0
   27.9679  -18.2992  -17.7633 O   0  0  0  0  0  0  0  0  0  0  0  0
   24.5089  -20.7357  -15.7592 C   0  0  0  0  0  0  0  0  0  0  0  0
   23.6773  -21.6319  -16.0308 O   0  0  0  0  0  0  0  0  0  0  0  0
   26.2927  -16.8874  -18.3376 O   0  0  0  0  0  0  0  0  0  0  0  0
   24.3561  -20.0476  -14.5059 N   0  0  0  0  0  0  0  0  0  0  0  0
   23.2842  -20.3944  -13.6360 C   0  0  1  0  0  0  0  0  0  0  0  0
   23.3870  -19.8578  -12.2581 C   0  0  0  0  0  0  0  0  0  0  0  0
   22.3749  -20.2663  -11.2948 C   0  0  0  0  0  0  0  0  0  0  0  0
   21.3035  -21.1031  -11.4222 C   0  0  0  0  0  0  0  0  0  0  0  0
   20.6297  -21.2252  -10.2359 N   0  0  0  0  0  0  0  0  0  0  0  0
   21.3154  -20.4468   -9.3909 C   0  0  0  0  0  0  0  0  0  0  0  0
   22.3477  -19.8686   -9.9819 N   0  0  0  0  0  0  0  0  0  0  0  0
   21.9524  -20.0909  -14.2271 C   0  0  0  0  0  0  0  0  0  0  0  0
   21.8299  -19.0432  -14.8853 O   0  0  0  0  0  0  0  0  0  0  0  0
   20.8552  -20.9547  -14.0546 N   0  0  0  0  0  0  0  0  0  0  0  0
   19.5724  -20.6501  -14.7071 C   0  0  1  0  0  0  0  0  0  0  0  0
   19.1622  -21.7791  -15.5974 C   0  0  0  0  0  0  0  0  0  0  0  0
   17.8605  -21.5746  -16.2670 C   0  0  0  0  0  0  0  0  0  0  0  0
   17.6575  -20.6869  -17.1285 O   0  0  0  0  0  0  0  0  0  0  0  0
   18.5450  -20.3973  -13.6773 C   0  0  0  0  0  0  0  0  0  0  0  0
   17.3391  -19.7921  -13.9275 O   0  0  0  0  0  0  0  0  0  0  0  0
   16.7849  -22.3935  -15.9465 O   0  0  0  0  0  0  0  0  0  0  0  0
   18.7857  -20.7582  -12.4879 O   0  0  0  0  0  0  0  0  0  0  0  0
  2  1  1  6
  2  3  1  0
  4  3  1  0
  5  4  1  0
  6  5  2  0
  7  2  1  0
  7  8  2  0
  9  5  1  0
 10  7  1  0
 11 10  1  0
 11 12  1  1
 12 13  1  0
 13 17  1  0
 14 13  2  0
 14 15  1  0
 15 16  1  0
 17 16  2  0
 18 11  1  0
 19 18  2  0
 20 18  1  0
 21 20  1  0
 21 22  1  1
 23 22  1  0
 24 23  2  0
 25 21  1  0
 26 25  1  0
 27 23  1  0
 28 25  2  0
M  END
$$$$
