EHD.pdb
     RDKit          3D

 28 28  0  0  1  0  0  0  0  0999 V2000
   27.4711  -19.3498  -13.8630 N   0  0  0  0  0  0  0  0  0  0  0  0
   27.2890  -18.9604  -15.2706 C   0  0  1  0  0  0  0  0  0  0  0  0
   28.2501  -19.7722  -16.0698 C   0  0  0  0  0  0  0  0  0  0  0  0
   28.2687  -21.2277  -15.7575 C   0  0  0  0  0  0  0  0  0  0  0  0
   29.1997  -22.0230  -16.5551 C   0  0  0  0  0  0  0  0  0  0  0  0
   29.3877  -23.2408  -16.3192 O   0  0  0  0  0  0  0  0  0  0  0  0
   25.8725  -19.2060  -15.6428 C   0  0  0  0  0  0  0  0  0  0  0  0
   25.4428  -18.8672  -16.7693 O   0  0  0  0  0  0  0  0  0  0  0  0
   29.9013  -21.4438  -17.5985 O   0  0  0  0  0  0  0  0  0  0  0  0
   24.9450  -19.8339  -14.7411 N   0  0  0  0  0  0  0  0  0  0  0  0
   23.5979  -20.0467  -15.1488 C   0  0  1  0  0  0  0  0  0  0  0  0
   23.0942  -21.4301  -14.9761 C   0  0  0  0  0  0  0  0  0  0  0  0
   23.4809  -22.4207  -15.9703 C   0  0  0  0  0  0  0  0  0  0  0  0
   24.1861  -22.2948  -17.1327 C   0  0  0  0  0  0  0  0  0  0  0  0
   24.3447  -23.5088  -17.7469 N   0  0  0  0  0  0  0  0  0  0  0  0
   23.7225  -24.3689  -16.9325 C   0  0  0  0  0  0  0  0  0  0  0  0
   23.2038  -23.7613  -15.8784 N   0  0  0  0  0  0  0  0  0  0  0  0
   22.6600  -19.0600  -14.5469 C   0  0  0  0  0  0  0  0  0  0  0  0
   23.1426  -18.1122  -13.9028 O   0  0  0  0  0  0  0  0  0  0  0  0
   21.2661  -19.1832  -14.6941 N   0  0  0  0  0  0  0  0  0  0  0  0
   20.4366  -17.9791  -14.8560 C   0  0  1  0  0  0  0  0  0  0  0  0
   20.9060  -17.1798  -16.0291 C   0  0  0  0  0  0  0  0  0  0  0  0
   20.0877  -15.9804  -16.3058 C   0  0  0  0  0  0  0  0  0  0  0  0
   20.0040  -15.0044  -15.5237 O   0  0  0  0  0  0  0  0  0  0  0  0
   19.0241  -18.3745  -15.0250 C   0  0  0  0  0  0  0  0  0  0  0  0
   18.6190  -19.5375  -15.6301 O   0  0  0  0  0  0  0  0  0  0  0  0
   19.3607  -15.9001  -17.4871 O   0  0  0  0  0  0  0  0  0  0  0  0
   18.1264  -17.5963  -14.5873 O   0  0  0  0  0  0  0  0  0  0  0  0
  2  1  1  1
  2  3  1  0
  4  3  1  0
  5  4  1  0
  6  5  2  0
  7  2  1  0
  7  8  2  0
  9  5  1  0
 10  7  1  0
 11 10  1  0
 11 12  1  1
 12 13  1  0
 13 17  1  0
 14 13  2  0
 14 15  1  0
 15 16  1  0
 17 16  2  0
 18 11  1  0
 19 18  2  0
 20 18  1  0
 21 20  1  0
 21 22  1  6
 23 22  1  0
 24 23  2  0
 25 21  1  0
 26 25  1  0
 27 23  1  0
 28 25  2  0
M  END
$$$$
