EHD.pdb
     RDKit          3D

 28 28  0  0  1  0  0  0  0  0999 V2000
   20.5895  -13.5860  -16.8008 N   0  0  0  0  0  0  0  0  0  0  0  0
   21.1487  -12.5919  -15.8707 C   0  0  1  0  0  0  0  0  0  0  0  0
   22.5878  -12.4327  -16.2244 C   0  0  0  0  0  0  0  0  0  0  0  0
   23.4740  -13.5546  -15.8090 C   0  0  0  0  0  0  0  0  0  0  0  0
   24.8904  -13.3766  -16.1213 C   0  0  0  0  0  0  0  0  0  0  0  0
   25.5812  -12.5004  -15.5477 O   0  0  0  0  0  0  0  0  0  0  0  0
   20.3738  -11.3331  -16.0124 C   0  0  0  0  0  0  0  0  0  0  0  0
   20.1112  -10.8720  -17.1468 O   0  0  0  0  0  0  0  0  0  0  0  0
   25.5064  -14.1790  -17.0663 O   0  0  0  0  0  0  0  0  0  0  0  0
   19.8975  -10.5983  -14.8718 N   0  0  0  0  0  0  0  0  0  0  0  0
   19.1639   -9.3937  -15.0639 C   0  0  1  0  0  0  0  0  0  0  0  0
   17.7457   -9.4399  -14.6355 C   0  0  0  0  0  0  0  0  0  0  0  0
   16.8388  -10.2961  -15.3863 C   0  0  0  0  0  0  0  0  0  0  0  0
   17.0297  -11.0186  -16.5290 C   0  0  0  0  0  0  0  0  0  0  0  0
   15.8987  -11.7132  -16.8677 N   0  0  0  0  0  0  0  0  0  0  0  0
   15.0228  -11.3964  -15.9072 C   0  0  0  0  0  0  0  0  0  0  0  0
   15.5441  -10.5651  -15.0204 N   0  0  0  0  0  0  0  0  0  0  0  0
   19.8560   -8.2094  -14.4861 C   0  0  0  0  0  0  0  0  0  0  0  0
   20.4786   -8.3584  -13.4202 O   0  0  0  0  0  0  0  0  0  0  0  0
   19.8155   -6.9520  -15.1162 N   0  0  0  0  0  0  0  0  0  0  0  0
   20.5186   -5.8078  -14.5156 C   0  0  1  0  0  0  0  0  0  0  0  0
   21.6643   -5.3907  -15.3808 C   0  0  0  0  0  0  0  0  0  0  0  0
   22.3461   -4.1611  -14.9245 C   0  0  0  0  0  0  0  0  0  0  0  0
   22.5461   -3.1669  -15.6613 O   0  0  0  0  0  0  0  0  0  0  0  0
   19.5708   -4.6910  -14.3297 C   0  0  0  0  0  0  0  0  0  0  0  0
   19.7618   -3.6607  -13.4438 O   0  0  0  0  0  0  0  0  0  0  0  0
   22.8012   -4.0714  -13.6149 O   0  0  0  0  0  0  0  0  0  0  0  0
   18.5144   -4.6778  -15.0274 O   0  0  0  0  0  0  0  0  0  0  0  0
  2  1  1  6
  2  3  1  0
  4  3  1  0
  5  4  1  0
  6  5  2  0
  7  2  1  0
  7  8  2  0
  9  5  1  0
 10  7  1  0
 11 10  1  0
 11 12  1  1
 12 13  1  0
 13 17  1  0
 14 13  2  0
 14 15  1  0
 15 16  1  0
 17 16  2  0
 18 11  1  0
 19 18  2  0
 20 18  1  0
 21 20  1  0
 21 22  1  6
 23 22  1  0
 24 23  2  0
 25 21  1  0
 26 25  1  0
 27 23  1  0
 28 25  2  0
M  END
$$$$
