EHD.pdb
     RDKit          3D

 28 28  0  0  1  0  0  0  0  0999 V2000
   23.3755  -12.4483  -18.4704 N   0  0  0  0  0  0  0  0  0  0  0  0
   22.3995  -11.8365  -19.3864 C   0  0  1  0  0  0  0  0  0  0  0  0
   21.6121  -12.9517  -19.9845 C   0  0  0  0  0  0  0  0  0  0  0  0
   21.2943  -14.0747  -19.0602 C   0  0  0  0  0  0  0  0  0  0  0  0
   20.4606  -15.1315  -19.6291 C   0  0  0  0  0  0  0  0  0  0  0  0
   19.2488  -15.2436  -19.3240 O   0  0  0  0  0  0  0  0  0  0  0  0
   21.5626  -10.8870  -18.6096 C   0  0  0  0  0  0  0  0  0  0  0  0
   20.6188  -10.2741  -19.1593 O   0  0  0  0  0  0  0  0  0  0  0  0
   20.9954  -16.0404  -20.5257 O   0  0  0  0  0  0  0  0  0  0  0  0
   21.7943  -10.6324  -17.2135 N   0  0  0  0  0  0  0  0  0  0  0  0
   20.8891   -9.8092  -16.4861 C   0  0  1  0  0  0  0  0  0  0  0  0
   20.1651  -10.4840  -15.3827 C   0  0  0  0  0  0  0  0  0  0  0  0
   19.2112  -11.5255  -15.7356 C   0  0  0  0  0  0  0  0  0  0  0  0
   19.3149  -12.8863  -15.6936 C   0  0  0  0  0  0  0  0  0  0  0  0
   18.1476  -13.4820  -16.0923 N   0  0  0  0  0  0  0  0  0  0  0  0
   17.3383  -12.4548  -16.3747 C   0  0  0  0  0  0  0  0  0  0  0  0
   17.9330  -11.2903  -16.1754 N   0  0  0  0  0  0  0  0  0  0  0  0
   21.5229   -8.5480  -16.0137 C   0  0  0  0  0  0  0  0  0  0  0  0
   22.6458   -8.6205  -15.4846 O   0  0  0  0  0  0  0  0  0  0  0  0
   20.8824   -7.3032  -16.1549 N   0  0  0  0  0  0  0  0  0  0  0  0
   21.5392   -6.0810  -15.6660 C   0  0  1  0  0  0  0  0  0  0  0  0
   21.0181   -4.8847  -16.3960 C   0  0  0  0  0  0  0  0  0  0  0  0
   21.5594   -3.5991  -15.9074 C   0  0  0  0  0  0  0  0  0  0  0  0
   22.6873   -3.4816  -15.3731 O   0  0  0  0  0  0  0  0  0  0  0  0
   21.3100   -5.9472  -14.2136 C   0  0  0  0  0  0  0  0  0  0  0  0
   21.9821   -5.0627  -13.4081 O   0  0  0  0  0  0  0  0  0  0  0  0
   20.8022   -2.4409  -16.0323 O   0  0  0  0  0  0  0  0  0  0  0  0
   20.4415   -6.6923  -13.6717 O   0  0  0  0  0  0  0  0  0  0  0  0
  2  1  1  1
  2  3  1  0
  4  3  1  0
  5  4  1  0
  6  5  2  0
  7  2  1  0
  7  8  2  0
  9  5  1  0
 10  7  1  0
 11 10  1  0
 11 12  1  1
 12 13  1  0
 13 17  1  0
 14 13  2  0
 14 15  1  0
 15 16  1  0
 17 16  2  0
 18 11  1  0
 19 18  2  0
 20 18  1  0
 21 20  1  0
 21 22  1  6
 23 22  1  0
 24 23  2  0
 25 21  1  0
 26 25  1  0
 27 23  1  0
 28 25  2  0
M  END
$$$$
