EHD.pdb
     RDKit          3D

 28 28  0  0  1  0  0  0  0  0999 V2000
   27.7826  -21.7345  -17.7738 N   0  0  0  0  0  0  0  0  0  0  0  0
   27.4443  -20.5201  -17.0143 C   0  0  1  0  0  0  0  0  0  0  0  0
   26.8514  -19.5564  -17.9846 C   0  0  0  0  0  0  0  0  0  0  0  0
   25.5989  -20.0106  -18.6491 C   0  0  0  0  0  0  0  0  0  0  0  0
   25.7686  -20.5391  -20.0009 C   0  0  0  0  0  0  0  0  0  0  0  0
   25.8270  -21.7735  -20.2176 O   0  0  0  0  0  0  0  0  0  0  0  0
   26.5078  -20.8970  -15.9252 C   0  0  0  0  0  0  0  0  0  0  0  0
   25.7896  -21.9178  -16.0286 O   0  0  0  0  0  0  0  0  0  0  0  0
   25.8696  -19.6805  -21.0820 O   0  0  0  0  0  0  0  0  0  0  0  0
   26.3851  -20.1195  -14.7219 N   0  0  0  0  0  0  0  0  0  0  0  0
   25.4675  -20.5226  -13.7111 C   0  0  1  0  0  0  0  0  0  0  0  0
   25.8246  -20.1148  -12.3315 C   0  0  0  0  0  0  0  0  0  0  0  0
   24.9414  -20.5316  -11.2520 C   0  0  0  0  0  0  0  0  0  0  0  0
   23.8003  -21.2812  -11.2675 C   0  0  0  0  0  0  0  0  0  0  0  0
   23.3070  -21.4542  -10.0014 N   0  0  0  0  0  0  0  0  0  0  0  0
   24.1726  -20.7955   -9.2224 C   0  0  0  0  0  0  0  0  0  0  0  0
   25.1456  -20.2417   -9.9265 N   0  0  0  0  0  0  0  0  0  0  0  0
   24.0652  -20.1411  -14.0326 C   0  0  0  0  0  0  0  0  0  0  0  0
   23.8615  -19.0113  -14.5103 O   0  0  0  0  0  0  0  0  0  0  0  0
   22.9916  -21.0224  -13.8080 N   0  0  0  0  0  0  0  0  0  0  0  0
   21.6207  -20.6090  -14.1454 C   0  0  1  0  0  0  0  0  0  0  0  0
   21.0064  -21.5807  -15.1013 C   0  0  0  0  0  0  0  0  0  0  0  0
   19.6613  -21.1907  -15.5741 C   0  0  0  0  0  0  0  0  0  0  0  0
   19.1284  -20.0871  -15.3104 O   0  0  0  0  0  0  0  0  0  0  0  0
   20.8180  -20.5134  -12.9099 C   0  0  0  0  0  0  0  0  0  0  0  0
   19.8170  -19.5957  -12.7132 O   0  0  0  0  0  0  0  0  0  0  0  0
   18.9230  -22.0720  -16.3542 O   0  0  0  0  0  0  0  0  0  0  0  0
   21.0641  -21.3251  -11.9699 O   0  0  0  0  0  0  0  0  0  0  0  0
  2  1  1  6
  2  3  1  0
  4  3  1  0
  5  4  1  0
  6  5  2  0
  7  2  1  0
  7  8  2  0
  9  5  1  0
 10  7  1  0
 11 10  1  0
 11 12  1  1
 12 13  1  0
 13 17  1  0
 14 13  2  0
 14 15  1  0
 15 16  1  0
 17 16  2  0
 18 11  1  0
 19 18  2  0
 20 18  1  0
 21 20  1  0
 21 22  1  6
 23 22  1  0
 24 23  2  0
 25 21  1  0
 26 25  1  0
 27 23  1  0
 28 25  2  0
M  END
$$$$
