EHD.pdb
     RDKit          3D

 28 28  0  0  1  0  0  0  0  0999 V2000
   22.3995  -14.1608  -16.7233 N   0  0  0  0  0  0  0  0  0  0  0  0
   21.2472  -13.2465  -16.7691 C   0  0  1  0  0  0  0  0  0  0  0  0
   20.1075  -13.9571  -16.1228 C   0  0  0  0  0  0  0  0  0  0  0  0
   19.5117  -15.0638  -16.9207 C   0  0  0  0  0  0  0  0  0  0  0  0
   18.9406  -14.6664  -18.2057 C   0  0  0  0  0  0  0  0  0  0  0  0
   19.6277  -14.6692  -19.2554 O   0  0  0  0  0  0  0  0  0  0  0  0
   21.6200  -11.9910  -16.0690 C   0  0  0  0  0  0  0  0  0  0  0  0
   21.6770  -11.9528  -14.8185 O   0  0  0  0  0  0  0  0  0  0  0  0
   17.6159  -14.2742  -18.2931 O   0  0  0  0  0  0  0  0  0  0  0  0
   21.9277  -10.7818  -16.7837 N   0  0  0  0  0  0  0  0  0  0  0  0
   22.2302   -9.5926  -16.0623 C   0  0  1  0  0  0  0  0  0  0  0  0
   23.6074   -9.0749  -16.2424 C   0  0  0  0  0  0  0  0  0  0  0  0
   24.7095   -9.9069  -15.7817 C   0  0  0  0  0  0  0  0  0  0  0  0
   24.7225  -11.1717  -15.2677 C   0  0  0  0  0  0  0  0  0  0  0  0
   26.0012  -11.5796  -14.9945 N   0  0  0  0  0  0  0  0  0  0  0  0
   26.7588  -10.5372  -15.3541 C   0  0  0  0  0  0  0  0  0  0  0  0
   26.0302   -9.5371  -15.8213 N   0  0  0  0  0  0  0  0  0  0  0  0
   21.2243   -8.5194  -16.2896 C   0  0  0  0  0  0  0  0  0  0  0  0
   20.7502   -8.3949  -17.4323 O   0  0  0  0  0  0  0  0  0  0  0  0
   20.8124   -7.6633  -15.2517 N   0  0  0  0  0  0  0  0  0  0  0  0
   19.7498   -6.6753  -15.4942 C   0  0  1  0  0  0  0  0  0  0  0  0
   18.6482   -6.8431  -14.4973 C   0  0  0  0  0  0  0  0  0  0  0  0
   17.5432   -5.8738  -14.6533 C   0  0  0  0  0  0  0  0  0  0  0  0
   17.7163   -4.6353  -14.7396 O   0  0  0  0  0  0  0  0  0  0  0  0
   20.3179   -5.3144  -15.4206 C   0  0  0  0  0  0  0  0  0  0  0  0
   19.8635   -4.2513  -16.1596 O   0  0  0  0  0  0  0  0  0  0  0  0
   16.2315   -6.3281  -14.7107 O   0  0  0  0  0  0  0  0  0  0  0  0
   21.2847   -5.1095  -14.6292 O   0  0  0  0  0  0  0  0  0  0  0  0
  2  1  1  1
  2  3  1  0
  4  3  1  0
  5  4  1  0
  6  5  2  0
  7  2  1  0
  7  8  2  0
  9  5  1  0
 10  7  1  0
 11 10  1  0
 11 12  1  6
 12 13  1  0
 13 17  1  0
 14 13  2  0
 14 15  1  0
 15 16  1  0
 17 16  2  0
 18 11  1  0
 19 18  2  0
 20 18  1  0
 21 20  1  0
 21 22  1  1
 23 22  1  0
 24 23  2  0
 25 21  1  0
 26 25  1  0
 27 23  1  0
 28 25  2  0
M  END
$$$$
