EHD.pdb
     RDKit          3D

 28 28  0  0  1  0  0  0  0  0999 V2000
   20.3792  -13.8749  -15.7866 N   0  0  0  0  0  0  0  0  0  0  0  0
   19.5165  -12.7790  -16.2565 C   0  0  1  0  0  0  0  0  0  0  0  0
   18.1584  -13.0291  -15.6957 C   0  0  0  0  0  0  0  0  0  0  0  0
   17.1105  -12.0542  -16.1052 C   0  0  0  0  0  0  0  0  0  0  0  0
   15.7588  -12.3639  -15.6442 C   0  0  0  0  0  0  0  0  0  0  0  0
   15.4980  -13.4444  -15.0625 O   0  0  0  0  0  0  0  0  0  0  0  0
   20.1049  -11.4941  -15.8004 C   0  0  0  0  0  0  0  0  0  0  0  0
   20.4201  -11.3295  -14.5996 O   0  0  0  0  0  0  0  0  0  0  0  0
   14.7268  -11.4625  -15.8415 O   0  0  0  0  0  0  0  0  0  0  0  0
   20.3358  -10.3983  -16.7024 N   0  0  0  0  0  0  0  0  0  0  0  0
   20.9688   -9.2148  -16.2284 C   0  0  1  0  0  0  0  0  0  0  0  0
   22.3869   -9.0509  -16.6276 C   0  0  0  0  0  0  0  0  0  0  0  0
   23.3552   -9.9959  -16.0905 C   0  0  0  0  0  0  0  0  0  0  0  0
   24.1693   -9.9197  -14.9971 C   0  0  0  0  0  0  0  0  0  0  0  0
   24.9038  -11.0663  -14.8485 N   0  0  0  0  0  0  0  0  0  0  0  0
   24.5166  -11.8354  -15.8725 C   0  0  0  0  0  0  0  0  0  0  0  0
   23.6067  -11.2356  -16.6220 N   0  0  0  0  0  0  0  0  0  0  0  0
   20.1839   -7.9885  -16.5374 C   0  0  0  0  0  0  0  0  0  0  0  0
   19.6827   -7.8852  -17.6706 O   0  0  0  0  0  0  0  0  0  0  0  0
   20.0059   -6.9679  -15.5854 N   0  0  0  0  0  0  0  0  0  0  0  0
   19.2298   -5.7676  -15.9335 C   0  0  1  0  0  0  0  0  0  0  0  0
   18.6634   -5.1403  -14.7002 C   0  0  0  0  0  0  0  0  0  0  0  0
   17.9500   -3.8692  -14.9452 C   0  0  0  0  0  0  0  0  0  0  0  0
   17.1957   -3.6775  -15.9279 O   0  0  0  0  0  0  0  0  0  0  0  0
   20.0966   -4.8136  -16.6538 C   0  0  0  0  0  0  0  0  0  0  0  0
   19.6594   -3.9832  -17.6548 O   0  0  0  0  0  0  0  0  0  0  0  0
   18.1027   -2.8114  -14.0575 O   0  0  0  0  0  0  0  0  0  0  0  0
   21.3199   -4.7539  -16.3330 O   0  0  0  0  0  0  0  0  0  0  0  0
  2  1  1  1
  2  3  1  0
  4  3  1  0
  5  4  1  0
  6  5  2  0
  7  2  1  0
  7  8  2  0
  9  5  1  0
 10  7  1  0
 11 10  1  0
 11 12  1  6
 12 13  1  0
 13 17  1  0
 14 13  2  0
 14 15  1  0
 15 16  1  0
 17 16  2  0
 18 11  1  0
 19 18  2  0
 20 18  1  0
 21 20  1  0
 21 22  1  1
 23 22  1  0
 24 23  2  0
 25 21  1  0
 26 25  1  0
 27 23  1  0
 28 25  2  0
M  END
$$$$
