EHD.pdb
     RDKit          3D

 28 28  0  0  1  0  0  0  0  0999 V2000
   19.5321   -9.2714  -15.2022 N   0  0  0  0  0  0  0  0  0  0  0  0
   19.0377   -7.9069  -15.4464 C   0  0  1  0  0  0  0  0  0  0  0  0
   18.4238   -7.9078  -16.8046 C   0  0  0  0  0  0  0  0  0  0  0  0
   19.3266   -8.3271  -17.9117 C   0  0  0  0  0  0  0  0  0  0  0  0
   20.4548   -7.4340  -18.1662 C   0  0  0  0  0  0  0  0  0  0  0  0
   20.6882   -6.4483  -17.4259 O   0  0  0  0  0  0  0  0  0  0  0  0
   18.0710   -7.5622  -14.3731 C   0  0  0  0  0  0  0  0  0  0  0  0
   17.1213   -6.7780  -14.6002 O   0  0  0  0  0  0  0  0  0  0  0  0
   21.2987   -7.6586  -19.2403 O   0  0  0  0  0  0  0  0  0  0  0  0
   18.1799   -8.1044  -13.0458 N   0  0  0  0  0  0  0  0  0  0  0  0
   17.2246   -7.7425  -12.0546 C   0  0  1  0  0  0  0  0  0  0  0  0
   17.2830   -8.5303  -10.8003 C   0  0  0  0  0  0  0  0  0  0  0  0
   16.2580   -8.2827   -9.7967 C   0  0  0  0  0  0  0  0  0  0  0  0
   14.9552   -8.6858   -9.7289 C   0  0  0  0  0  0  0  0  0  0  0  0
   14.3615   -8.2428   -8.5767 N   0  0  0  0  0  0  0  0  0  0  0  0
   15.3311   -7.5658   -7.9509 C   0  0  0  0  0  0  0  0  0  0  0  0
   16.4591   -7.5701   -8.6415 N   0  0  0  0  0  0  0  0  0  0  0  0
   17.2309   -6.2822  -11.7665 C   0  0  0  0  0  0  0  0  0  0  0  0
   18.3054   -5.6678  -11.8840 O   0  0  0  0  0  0  0  0  0  0  0  0
   16.0631   -5.6037  -11.3719 N   0  0  0  0  0  0  0  0  0  0  0  0
   16.0950   -4.1473  -11.1673 C   0  0  1  0  0  0  0  0  0  0  0  0
   16.1558   -3.4399  -12.4830 C   0  0  0  0  0  0  0  0  0  0  0  0
   15.9933   -1.9740  -12.3858 C   0  0  0  0  0  0  0  0  0  0  0  0
   14.9284   -1.3757  -12.6677 O   0  0  0  0  0  0  0  0  0  0  0  0
   14.9004   -3.7317  -10.4056 C   0  0  0  0  0  0  0  0  0  0  0  0
   14.8024   -2.5503   -9.7147 O   0  0  0  0  0  0  0  0  0  0  0  0
   17.0589   -1.1894  -11.9625 O   0  0  0  0  0  0  0  0  0  0  0  0
   13.9015   -4.5094  -10.3843 O   0  0  0  0  0  0  0  0  0  0  0  0
  2  1  1  1
  2  3  1  0
  4  3  1  0
  5  4  1  0
  6  5  2  0
  7  2  1  0
  7  8  2  0
  9  5  1  0
 10  7  1  0
 11 10  1  0
 11 12  1  1
 12 13  1  0
 13 17  1  0
 14 13  2  0
 14 15  1  0
 15 16  1  0
 17 16  2  0
 18 11  1  0
 19 18  2  0
 20 18  1  0
 21 20  1  0
 21 22  1  6
 23 22  1  0
 24 23  2  0
 25 21  1  0
 26 25  1  0
 27 23  1  0
 28 25  2  0
M  END
$$$$
