EHD.pdb
     RDKit          3D

 28 28  0  0  1  0  0  0  0  0999 V2000
   28.5877  -21.4962  -16.1915 N   0  0  0  0  0  0  0  0  0  0  0  0
   27.9597  -20.3481  -15.5180 C   0  0  1  0  0  0  0  0  0  0  0  0
   27.3772  -19.4877  -16.5865 C   0  0  0  0  0  0  0  0  0  0  0  0
   25.9252  -19.6897  -16.8465 C   0  0  0  0  0  0  0  0  0  0  0  0
   25.1056  -18.4825  -16.7677 C   0  0  0  0  0  0  0  0  0  0  0  0
   25.6103  -17.3405  -16.8905 O   0  0  0  0  0  0  0  0  0  0  0  0
   26.9408  -20.8645  -14.5690 C   0  0  0  0  0  0  0  0  0  0  0  0
   26.5721  -22.0603  -14.6200 O   0  0  0  0  0  0  0  0  0  0  0  0
   23.7410  -18.5741  -16.5539 O   0  0  0  0  0  0  0  0  0  0  0  0
   26.3409  -20.0283  -13.5648 N   0  0  0  0  0  0  0  0  0  0  0  0
   25.5285  -20.6125  -12.5525 C   0  0  1  0  0  0  0  0  0  0  0  0
   25.8233  -20.1697  -11.1689 C   0  0  0  0  0  0  0  0  0  0  0  0
   27.0987  -20.5645  -10.5886 C   0  0  0  0  0  0  0  0  0  0  0  0
   28.1191  -21.3162  -11.0965 C   0  0  0  0  0  0  0  0  0  0  0  0
   29.1545  -21.4085  -10.2045 N   0  0  0  0  0  0  0  0  0  0  0  0
   28.7393  -20.6978   -9.1497 C   0  0  0  0  0  0  0  0  0  0  0  0
   27.5344  -20.1878   -9.3433 N   0  0  0  0  0  0  0  0  0  0  0  0
   24.0753  -20.4925  -12.8512 C   0  0  0  0  0  0  0  0  0  0  0  0
   23.6355  -19.3760  -13.1766 O   0  0  0  0  0  0  0  0  0  0  0  0
   23.2126  -21.6012  -12.7720 N   0  0  0  0  0  0  0  0  0  0  0  0
   21.7949  -21.4546  -13.1366 C   0  0  1  0  0  0  0  0  0  0  0  0
   21.2634  -22.7420  -13.6802 C   0  0  0  0  0  0  0  0  0  0  0  0
   20.4422  -22.5866  -14.8994 C   0  0  0  0  0  0  0  0  0  0  0  0
   20.0471  -21.4779  -15.3307 O   0  0  0  0  0  0  0  0  0  0  0  0
   21.0238  -21.0303  -11.9511 C   0  0  0  0  0  0  0  0  0  0  0  0
   21.5684  -20.8504  -10.7045 O   0  0  0  0  0  0  0  0  0  0  0  0
   20.0721  -23.7099  -15.6284 O   0  0  0  0  0  0  0  0  0  0  0  0
   19.7829  -20.8184  -12.0864 O   0  0  0  0  0  0  0  0  0  0  0  0
  2  1  1  6
  2  3  1  0
  4  3  1  0
  5  4  1  0
  6  5  2  0
  7  2  1  0
  7  8  2  0
  9  5  1  0
 10  7  1  0
 11 10  1  0
 11 12  1  1
 12 13  1  0
 13 17  1  0
 14 13  2  0
 14 15  1  0
 15 16  1  0
 17 16  2  0
 18 11  1  0
 19 18  2  0
 20 18  1  0
 21 20  1  0
 21 22  1  1
 23 22  1  0
 24 23  2  0
 25 21  1  0
 26 25  1  0
 27 23  1  0
 28 25  2  0
M  END
$$$$
