EHD.pdb
     RDKit          3D

 28 28  0  0  1  0  0  0  0  0999 V2000
   21.0467   -7.6713  -16.6186 N   0  0  0  0  0  0  0  0  0  0  0  0
   21.1395   -8.0651  -15.2036 C   0  0  1  0  0  0  0  0  0  0  0  0
   22.1235   -7.1461  -14.5643 C   0  0  0  0  0  0  0  0  0  0  0  0
   21.7670   -5.7013  -14.6068 C   0  0  0  0  0  0  0  0  0  0  0  0
   21.8955   -4.9915  -13.3359 C   0  0  0  0  0  0  0  0  0  0  0  0
   22.2739   -5.5793  -12.2941 O   0  0  0  0  0  0  0  0  0  0  0  0
   19.7842   -7.9719  -14.6038 C   0  0  0  0  0  0  0  0  0  0  0  0
   18.9448   -7.1576  -15.0520 O   0  0  0  0  0  0  0  0  0  0  0  0
   21.5996   -3.6417  -13.2535 O   0  0  0  0  0  0  0  0  0  0  0  0
   19.3806   -8.7990  -13.4990 N   0  0  0  0  0  0  0  0  0  0  0  0
   18.0610   -8.6862  -12.9774 C   0  0  1  0  0  0  0  0  0  0  0  0
   17.4124   -9.9677  -12.6109 C   0  0  0  0  0  0  0  0  0  0  0  0
   17.0434  -10.8728  -13.6896 C   0  0  0  0  0  0  0  0  0  0  0  0
   15.8717  -11.0180  -14.3754 C   0  0  0  0  0  0  0  0  0  0  0  0
   15.9823  -11.9826  -15.3415 N   0  0  0  0  0  0  0  0  0  0  0  0
   17.2429  -12.4157  -15.2258 C   0  0  0  0  0  0  0  0  0  0  0  0
   17.8941  -11.7834  -14.2638 N   0  0  0  0  0  0  0  0  0  0  0  0
   17.9742   -7.7071  -11.8596 C   0  0  0  0  0  0  0  0  0  0  0  0
   18.8915   -7.6952  -11.0203 O   0  0  0  0  0  0  0  0  0  0  0  0
   16.8921   -6.8154  -11.7432 N   0  0  0  0  0  0  0  0  0  0  0  0
   16.8984   -5.7882  -10.6901 C   0  0  1  0  0  0  0  0  0  0  0  0
   16.3469   -4.5021  -11.2166 C   0  0  0  0  0  0  0  0  0  0  0  0
   16.2689   -3.4238  -10.2087 C   0  0  0  0  0  0  0  0  0  0  0  0
   16.7710   -3.5097   -9.0633 O   0  0  0  0  0  0  0  0  0  0  0  0
   16.1080   -6.2621   -9.5366 C   0  0  0  0  0  0  0  0  0  0  0  0
   16.1911   -5.7263   -8.2761 O   0  0  0  0  0  0  0  0  0  0  0  0
   15.6109   -2.2395  -10.5165 O   0  0  0  0  0  0  0  0  0  0  0  0
   15.3023   -7.2225   -9.7148 O   0  0  0  0  0  0  0  0  0  0  0  0
  2  1  1  6
  2  3  1  0
  4  3  1  0
  5  4  1  0
  6  5  2  0
  7  2  1  0
  7  8  2  0
  9  5  1  0
 10  7  1  0
 11 10  1  0
 11 12  1  1
 12 13  1  0
 13 17  1  0
 14 13  2  0
 14 15  1  0
 15 16  1  0
 17 16  2  0
 18 11  1  0
 19 18  2  0
 20 18  1  0
 21 20  1  0
 21 22  1  6
 23 22  1  0
 24 23  2  0
 25 21  1  0
 26 25  1  0
 27 23  1  0
 28 25  2  0
M  END
$$$$
