EHD.pdb
     RDKit          3D

 28 28  0  0  1  0  0  0  0  0999 V2000
   20.1984  -13.1873  -16.6144 N   0  0  0  0  0  0  0  0  0  0  0  0
   19.7176  -11.8808  -17.0918 C   0  0  1  0  0  0  0  0  0  0  0  0
   18.2464  -11.8504  -16.8546 C   0  0  0  0  0  0  0  0  0  0  0  0
   17.7732  -12.6395  -15.6841 C   0  0  0  0  0  0  0  0  0  0  0  0
   16.3347  -12.5794  -15.4342 C   0  0  0  0  0  0  0  0  0  0  0  0
   15.5770  -11.8736  -16.1426 O   0  0  0  0  0  0  0  0  0  0  0  0
   20.4462  -10.8178  -16.3540 C   0  0  0  0  0  0  0  0  0  0  0  0
   20.6868  -10.9426  -15.1312 O   0  0  0  0  0  0  0  0  0  0  0  0
   15.7716  -13.3072  -14.4000 O   0  0  0  0  0  0  0  0  0  0  0  0
   20.9013   -9.6162  -16.9996 N   0  0  0  0  0  0  0  0  0  0  0  0
   21.6251   -8.6441  -16.2531 C   0  0  1  0  0  0  0  0  0  0  0  0
   23.0820   -8.5943  -16.5218 C   0  0  0  0  0  0  0  0  0  0  0  0
   23.8683   -9.7802  -16.2148 C   0  0  0  0  0  0  0  0  0  0  0  0
   24.4655  -10.6954  -17.0334 C   0  0  0  0  0  0  0  0  0  0  0  0
   25.1371  -11.6426  -16.3068 N   0  0  0  0  0  0  0  0  0  0  0  0
   24.9341  -11.2808  -15.0348 C   0  0  0  0  0  0  0  0  0  0  0  0
   24.1921  -10.1895  -14.9458 N   0  0  0  0  0  0  0  0  0  0  0  0
   21.0195   -7.2879  -16.3496 C   0  0  0  0  0  0  0  0  0  0  0  0
   20.2695   -7.0496  -17.3123 O   0  0  0  0  0  0  0  0  0  0  0  0
   21.2790   -6.2946  -15.3874 N   0  0  0  0  0  0  0  0  0  0  0  0
   20.7536   -4.9338  -15.5782 C   0  0  1  0  0  0  0  0  0  0  0  0
   20.7624   -4.1881  -14.2824 C   0  0  0  0  0  0  0  0  0  0  0  0
   20.2320   -2.8117  -14.3770 C   0  0  0  0  0  0  0  0  0  0  0  0
   19.1132   -2.5337  -14.8692 O   0  0  0  0  0  0  0  0  0  0  0  0
   21.5659   -4.2308  -16.5910 C   0  0  0  0  0  0  0  0  0  0  0  0
   21.0999   -3.2024  -17.3708 O   0  0  0  0  0  0  0  0  0  0  0  0
   20.9896   -1.7475  -13.9040 O   0  0  0  0  0  0  0  0  0  0  0  0
   22.7673   -4.5950  -16.7553 O   0  0  0  0  0  0  0  0  0  0  0  0
  2  1  1  1
  2  3  1  0
  4  3  1  0
  5  4  1  0
  6  5  2  0
  7  2  1  0
  7  8  2  0
  9  5  1  0
 10  7  1  0
 11 10  1  0
 11 12  1  6
 12 13  1  0
 13 17  1  0
 14 13  2  0
 14 15  1  0
 15 16  1  0
 17 16  2  0
 18 11  1  0
 19 18  2  0
 20 18  1  0
 21 20  1  0
 21 22  1  1
 23 22  1  0
 24 23  2  0
 25 21  1  0
 26 25  1  0
 27 23  1  0
 28 25  2  0
M  END
$$$$
