EHD.pdb
     RDKit          3D

 28 28  0  0  1  0  0  0  0  0999 V2000
   19.3618  -13.0965  -16.9780 N   0  0  0  0  0  0  0  0  0  0  0  0
   20.0353  -12.2137  -16.0119 C   0  0  1  0  0  0  0  0  0  0  0  0
   21.4648  -12.1331  -16.4261 C   0  0  0  0  0  0  0  0  0  0  0  0
   21.7321  -12.4438  -17.8573 C   0  0  0  0  0  0  0  0  0  0  0  0
   22.7388  -11.6010  -18.4991 C   0  0  0  0  0  0  0  0  0  0  0  0
   23.9570  -11.8994  -18.4686 O   0  0  0  0  0  0  0  0  0  0  0  0
   19.3512  -10.8958  -16.0289 C   0  0  0  0  0  0  0  0  0  0  0  0
   18.7788  -10.4895  -17.0661 O   0  0  0  0  0  0  0  0  0  0  0  0
   22.3660  -10.4438  -19.1611 O   0  0  0  0  0  0  0  0  0  0  0  0
   19.3154  -10.0402  -14.8738 N   0  0  0  0  0  0  0  0  0  0  0  0
   18.6996   -8.7600  -14.9621 C   0  0  1  0  0  0  0  0  0  0  0  0
   17.4235   -8.6178  -14.2214 C   0  0  0  0  0  0  0  0  0  0  0  0
   16.2696   -9.3575  -14.7120 C   0  0  0  0  0  0  0  0  0  0  0  0
   16.1370  -10.2125  -15.7682 C   0  0  0  0  0  0  0  0  0  0  0  0
   14.8633  -10.7111  -15.8418 N   0  0  0  0  0  0  0  0  0  0  0  0
   14.2309  -10.1411  -14.8097 C   0  0  0  0  0  0  0  0  0  0  0  0
   15.0296   -9.3396  -14.1249 N   0  0  0  0  0  0  0  0  0  0  0  0
   19.6371   -7.6545  -14.6238 C   0  0  0  0  0  0  0  0  0  0  0  0
   20.5026   -7.8667  -13.7567 O   0  0  0  0  0  0  0  0  0  0  0  0
   19.5582   -6.4010  -15.2581 N   0  0  0  0  0  0  0  0  0  0  0  0
   20.5328   -5.3496  -14.9281 C   0  0  1  0  0  0  0  0  0  0  0  0
   21.4940   -5.1603  -16.0576 C   0  0  0  0  0  0  0  0  0  0  0  0
   22.4852   -4.0877  -15.8304 C   0  0  0  0  0  0  0  0  0  0  0  0
   22.8042   -3.6702  -14.6923 O   0  0  0  0  0  0  0  0  0  0  0  0
   19.8180   -4.0916  -14.6342 C   0  0  0  0  0  0  0  0  0  0  0  0
   20.3459   -3.0627  -13.8956 O   0  0  0  0  0  0  0  0  0  0  0  0
   23.1146   -3.4903  -16.9154 O   0  0  0  0  0  0  0  0  0  0  0  0
   18.6449   -3.9475  -15.0882 O   0  0  0  0  0  0  0  0  0  0  0  0
  2  1  1  6
  2  3  1  0
  4  3  1  0
  5  4  1  0
  6  5  2  0
  7  2  1  0
  7  8  2  0
  9  5  1  0
 10  7  1  0
 11 10  1  0
 11 12  1  1
 12 13  1  0
 13 17  1  0
 14 13  2  0
 14 15  1  0
 15 16  1  0
 17 16  2  0
 18 11  1  0
 19 18  2  0
 20 18  1  0
 21 20  1  0
 21 22  1  6
 23 22  1  0
 24 23  2  0
 25 21  1  0
 26 25  1  0
 27 23  1  0
 28 25  2  0
M  END
$$$$
