EHD.pdb
     RDKit          3D

 28 28  0  0  1  0  0  0  0  0999 V2000
   27.2334  -15.0387  -18.4589 N   0  0  0  0  0  0  0  0  0  0  0  0
   26.5710  -16.3488  -18.3537 C   0  0  1  0  0  0  0  0  0  0  0  0
   27.4801  -17.2291  -17.5661 C   0  0  0  0  0  0  0  0  0  0  0  0
   28.7316  -17.6375  -18.2613 C   0  0  0  0  0  0  0  0  0  0  0  0
   28.5443  -18.5150  -19.4147 C   0  0  0  0  0  0  0  0  0  0  0  0
   27.5337  -19.2511  -19.5188 O   0  0  0  0  0  0  0  0  0  0  0  0
   25.2492  -16.1522  -17.7061 C   0  0  0  0  0  0  0  0  0  0  0  0
   25.1440  -15.4482  -16.6756 O   0  0  0  0  0  0  0  0  0  0  0  0
   29.4874  -18.5533  -20.4273 O   0  0  0  0  0  0  0  0  0  0  0  0
   24.0494  -16.7517  -18.2244 N   0  0  0  0  0  0  0  0  0  0  0  0
   22.8158  -16.5703  -17.5379 C   0  0  1  0  0  0  0  0  0  0  0  0
   21.7692  -15.8439  -18.2957 C   0  0  0  0  0  0  0  0  0  0  0  0
   20.4683  -15.6772  -17.6641 C   0  0  0  0  0  0  0  0  0  0  0  0
   20.0766  -14.9000  -16.6121 C   0  0  0  0  0  0  0  0  0  0  0  0
   18.7343  -15.0329  -16.3739 N   0  0  0  0  0  0  0  0  0  0  0  0
   18.3241  -15.9042  -17.3027 C   0  0  0  0  0  0  0  0  0  0  0  0
   19.3191  -16.3024  -18.0777 N   0  0  0  0  0  0  0  0  0  0  0  0
   22.2828  -17.8440  -16.9820 C   0  0  0  0  0  0  0  0  0  0  0  0
   22.2776  -18.8462  -17.7180 O   0  0  0  0  0  0  0  0  0  0  0  0
   21.7958  -17.9267  -15.6645 N   0  0  0  0  0  0  0  0  0  0  0  0
   21.3006  -19.2109  -15.1450 C   0  0  1  0  0  0  0  0  0  0  0  0
   21.8856  -19.4852  -13.7967 C   0  0  0  0  0  0  0  0  0  0  0  0
   21.4408  -20.7605  -13.1963 C   0  0  0  0  0  0  0  0  0  0  0  0
   20.5929  -21.5163  -13.7266 O   0  0  0  0  0  0  0  0  0  0  0  0
   19.8260  -19.1781  -15.0777 C   0  0  0  0  0  0  0  0  0  0  0  0
   19.0198  -20.2497  -15.3683 O   0  0  0  0  0  0  0  0  0  0  0  0
   21.9720  -21.1715  -11.9801 O   0  0  0  0  0  0  0  0  0  0  0  0
   19.2648  -18.0972  -14.7318 O   0  0  0  0  0  0  0  0  0  0  0  0
  2  1  1  1
  2  3  1  0
  4  3  1  0
  5  4  1  0
  6  5  2  0
  7  2  1  0
  7  8  2  0
  9  5  1  0
 10  7  1  0
 11 10  1  0
 11 12  1  6
 12 13  1  0
 13 17  1  0
 14 13  2  0
 14 15  1  0
 15 16  1  0
 17 16  2  0
 18 11  1  0
 19 18  2  0
 20 18  1  0
 21 20  1  0
 21 22  1  1
 23 22  1  0
 24 23  2  0
 25 21  1  0
 26 25  1  0
 27 23  1  0
 28 25  2  0
M  END
$$$$
