EHD.pdb
     RDKit          3D

 28 28  0  0  1  0  0  0  0  0999 V2000
   31.8140   -7.2193  -16.5146 N   0  0  0  0  0  0  0  0  0  0  0  0
   33.1808   -7.7502  -16.6411 C   0  0  1  0  0  0  0  0  0  0  0  0
   33.8842   -7.4377  -15.3647 C   0  0  0  0  0  0  0  0  0  0  0  0
   34.0393   -5.9885  -15.0610 C   0  0  0  0  0  0  0  0  0  0  0  0
   34.9624   -5.2656  -15.9331 C   0  0  0  0  0  0  0  0  0  0  0  0
   34.6071   -4.2307  -16.5469 O   0  0  0  0  0  0  0  0  0  0  0  0
   33.0917   -9.2075  -16.9126 C   0  0  0  0  0  0  0  0  0  0  0  0
   34.0825   -9.9509  -16.7274 O   0  0  0  0  0  0  0  0  0  0  0  0
   36.2618   -5.7119  -16.1025 O   0  0  0  0  0  0  0  0  0  0  0  0
   31.8832   -9.8213  -17.3925 N   0  0  0  0  0  0  0  0  0  0  0  0
   31.8942  -11.1889  -17.7871 C   0  0  1  0  0  0  0  0  0  0  0  0
   30.5594  -11.8111  -17.9549 C   0  0  0  0  0  0  0  0  0  0  0  0
   30.5088  -13.2326  -18.2648 C   0  0  0  0  0  0  0  0  0  0  0  0
   31.2920  -14.2691  -17.8446 C   0  0  0  0  0  0  0  0  0  0  0  0
   30.8592  -15.4581  -18.3694 N   0  0  0  0  0  0  0  0  0  0  0  0
   29.8001  -15.1189  -19.1131 C   0  0  0  0  0  0  0  0  0  0  0  0
   29.5669  -13.8176  -19.0731 N   0  0  0  0  0  0  0  0  0  0  0  0
   32.7467  -11.4276  -18.9837 C   0  0  0  0  0  0  0  0  0  0  0  0
   32.8940  -10.4945  -19.7921 O   0  0  0  0  0  0  0  0  0  0  0  0
   33.3737  -12.6673  -19.2066 N   0  0  0  0  0  0  0  0  0  0  0  0
   34.3003  -12.8275  -20.3380 C   0  0  1  0  0  0  0  0  0  0  0  0
   35.4962  -11.9486  -20.1574 C   0  0  0  0  0  0  0  0  0  0  0  0
   36.5622  -12.1706  -21.1570 C   0  0  0  0  0  0  0  0  0  0  0  0
   36.4867  -11.7829  -22.3466 O   0  0  0  0  0  0  0  0  0  0  0  0
   34.7042  -14.2436  -20.4457 C   0  0  0  0  0  0  0  0  0  0  0  0
   35.0331  -15.0324  -19.3722 O   0  0  0  0  0  0  0  0  0  0  0  0
   37.7220  -12.8417  -20.7896 O   0  0  0  0  0  0  0  0  0  0  0  0
   34.7527  -14.7680  -21.5971 O   0  0  0  0  0  0  0  0  0  0  0  0
  2  1  1  1
  2  3  1  0
  4  3  1  0
  5  4  1  0
  6  5  2  0
  7  2  1  0
  7  8  2  0
  9  5  1  0
 10  7  1  0
 11 10  1  0
 11 12  1  6
 12 13  1  0
 13 17  1  0
 14 13  2  0
 14 15  1  0
 15 16  1  0
 17 16  2  0
 18 11  1  0
 19 18  2  0
 20 18  1  0
 21 20  1  0
 21 22  1  1
 23 22  1  0
 24 23  2  0
 25 21  1  0
 26 25  1  0
 27 23  1  0
 28 25  2  0
M  END
$$$$
