RAQ.pdb
     RDKit          3D

 26 25  0  0  1  0  0  0  0  0999 V2000
    6.8160  -18.9975   11.8007 N   0  0  0  0  0  0  0  0  0  0  0  0
    5.8916  -17.9616   12.1197 C   0  0  0  0  0  0  0  0  0  0  0  0
    5.1864  -17.4695   11.1735 N   0  0  0  0  0  0  0  0  0  0  0  0
    5.7883  -17.5177   13.4614 N   0  0  0  0  0  0  0  0  0  0  0  0
    6.9265  -16.7930   14.0507 C   0  0  0  0  0  0  0  0  0  0  0  0
    7.6474  -17.7093   14.9728 C   0  0  0  0  0  0  0  0  0  0  0  0
    8.8007  -17.1195   15.6798 C   0  0  0  0  0  0  0  0  0  0  0  0
    8.8601  -15.6375   15.5911 C   0  0  2  0  0  0  0  0  0  0  0  0
    9.7258  -15.1117   14.5690 N   0  0  0  0  0  0  0  0  0  0  0  0
    9.2886  -15.0721   16.9014 C   0  0  0  0  0  0  0  0  0  0  0  0
   10.4771  -15.1267   17.3018 O   0  0  0  0  0  0  0  0  0  0  0  0
    4.4931  -16.7050   11.2960 C   0  0  0  0  0  0  0  0  0  0  0  0
    7.5433  -13.0838   19.6078 C   0  0  1  0  0  0  0  0  0  0  0  0
    8.6860  -13.8821   19.0149 N   0  0  0  0  0  0  0  0  0  0  0  0
    8.3259  -14.4492   17.7309 C   0  0  0  0  0  0  0  0  0  0  0  0
    9.1648  -14.9399   19.9043 O   0  0  0  0  0  0  0  0  0  0  0  0
    9.1180  -16.1576   19.5159 N   0  0  0  0  0  0  0  0  0  0  0  0
   14.2699  -14.1392   18.9748 C   0  0  0  0  0  0  0  0  0  0  0  0
   14.4866  -14.9645   20.1385 O   0  0  0  0  0  0  0  0  0  0  0  0
   15.6677  -15.2830   20.3881 C   0  0  0  0  0  0  0  0  0  0  0  0
   13.3906  -15.4101   20.9800 C   0  0  0  0  0  0  0  0  0  0  0  0
   12.0314  -14.9150   20.7741 C   0  0  2  0  0  0  0  0  0  0  0  0
   10.9332  -15.4026   21.6669 N   0  0  0  0  0  0  0  0  0  0  0  0
    9.6936  -14.7423   21.1981 C   0  0  0  0  0  0  0  0  0  0  0  0
   11.1039  -15.1543   23.1031 O   0  0  0  0  0  0  0  0  0  0  0  0
   12.0381  -15.6661   23.7786 O   0  0  0  0  0  0  0  0  0  0  0  0
  2  1  1  0
  3  2  2  0
  4  2  1  0
  5  6  1  0
  5  4  1  0
  6  7  1  0
  7  8  1  0
  8  9  1  6
 10  8  1  0
 11 10  2  0
 13 12  1  6
 13 15  1  0
 13 14  1  0
 14 10  1  0
 15 23  1  0
 16 15  2  0
 18 19  2  0
 18 17  1  0
 20 18  1  0
 22 21  1  6
 21 20  1  0
 22 24  1  0
 23 22  1  0
 24 25  2  0
 24 26  1  0
M  END
$$$$
