RAQ.pdb
     RDKit          3D

 26 25  0  0  1  0  0  0  0  0999 V2000
    4.7830  -17.0928   18.9936 N   0  0  0  0  0  0  0  0  0  0  0  0
    5.7789  -17.3515   18.0084 C   0  0  0  0  0  0  0  0  0  0  0  0
    5.8384  -18.5249   17.5040 N   0  0  0  0  0  0  0  0  0  0  0  0
    6.6595  -16.3090   17.6267 N   0  0  0  0  0  0  0  0  0  0  0  0
    7.0999  -15.3507   18.6541 C   0  0  0  0  0  0  0  0  0  0  0  0
    7.6803  -16.1088   19.7935 C   0  0  0  0  0  0  0  0  0  0  0  0
    8.1539  -15.2889   20.9254 C   0  0  0  0  0  0  0  0  0  0  0  0
    7.5109  -15.6319   22.2203 C   0  0  2  0  0  0  0  0  0  0  0  0
    6.0721  -15.6539   22.2115 N   0  0  0  0  0  0  0  0  0  0  0  0
    7.9564  -14.6749   23.2719 C   0  0  0  0  0  0  0  0  0  0  0  0
    9.1500  -14.3016   23.3804 O   0  0  0  0  0  0  0  0  0  0  0  0
    6.5733  -18.8410   16.8405 C   0  0  0  0  0  0  0  0  0  0  0  0
    6.2369  -12.6273   25.9323 C   0  0  2  0  0  0  0  0  0  0  0  0
    7.4060  -13.3894   25.3432 N   0  0  0  0  0  0  0  0  0  0  0  0
    7.0046  -14.1636   24.1859 C   0  0  0  0  0  0  0  0  0  0  0  0
    8.0665  -14.2609   26.3145 O   0  0  0  0  0  0  0  0  0  0  0  0
    7.5143  -15.3661   26.6458 N   0  0  0  0  0  0  0  0  0  0  0  0
   13.7458  -16.1945   25.6734 C   0  0  0  0  0  0  0  0  0  0  0  0
   13.4508  -16.6218   27.0198 O   0  0  0  0  0  0  0  0  0  0  0  0
   14.2987  -17.3506   27.5753 C   0  0  0  0  0  0  0  0  0  0  0  0
   12.2290  -16.2315   27.7002 C   0  0  0  0  0  0  0  0  0  0  0  0
   11.2844  -15.3037   27.0822 C   0  0  1  0  0  0  0  0  0  0  0  0
   10.0025  -14.9883   27.7878 N   0  0  0  0  0  0  0  0  0  0  0  0
    9.2999  -13.9929   26.9465 C   0  0  0  0  0  0  0  0  0  0  0  0
   10.1232  -14.4711   29.1558 O   0  0  0  0  0  0  0  0  0  0  0  0
   10.0070  -13.2468   29.4360 O   0  0  0  0  0  0  0  0  0  0  0  0
  2  1  1  0
  3  2  2  0
  4  2  1  0
  5  6  1  0
  5  4  1  0
  6  7  1  0
  7  8  1  0
  8  9  1  6
 10  8  1  0
 11 10  2  0
 13 12  1  6
 13 15  1  0
 13 14  1  0
 14 10  1  0
 15 23  1  0
 16 15  2  0
 18 19  2  0
 18 17  1  0
 20 18  1  0
 22 21  1  6
 21 20  1  0
 22 24  1  0
 23 22  1  0
 24 25  2  0
 24 26  1  0
M  END
$$$$
