RAQ.pdb
     RDKit          3D

 26 25  0  0  1  0  0  0  0  0999 V2000
    9.5211  -14.4547   14.3474 N   0  0  0  0  0  0  0  0  0  0  0  0
    8.4365  -13.6709   14.8360 C   0  0  0  0  0  0  0  0  0  0  0  0
    8.2344  -12.5242   14.3077 N   0  0  0  0  0  0  0  0  0  0  0  0
    7.6286  -14.1854   15.8802 N   0  0  0  0  0  0  0  0  0  0  0  0
    8.2816  -14.9224   16.9749 C   0  0  0  0  0  0  0  0  0  0  0  0
    8.7703  -13.9439   17.9815 C   0  0  0  0  0  0  0  0  0  0  0  0
    8.1406  -14.0354   19.3129 C   0  0  0  0  0  0  0  0  0  0  0  0
    8.4730  -15.2849   20.0451 C   0  0  2  0  0  0  0  0  0  0  0  0
    7.6607  -16.4278   19.7219 N   0  0  0  0  0  0  0  0  0  0  0  0
    8.3804  -15.0471   21.5132 C   0  0  0  0  0  0  0  0  0  0  0  0
    9.0215  -14.1342   22.0890 O   0  0  0  0  0  0  0  0  0  0  0  0
    7.4237  -11.9124   14.5276 C   0  0  0  0  0  0  0  0  0  0  0  0
    6.0173  -16.2388   24.1772 C   0  0  2  0  0  0  0  0  0  0  0  0
    7.3119  -15.6132   23.7003 N   0  0  0  0  0  0  0  0  0  0  0  0
    7.5410  -15.8769   22.2939 C   0  0  0  0  0  0  0  0  0  0  0  0
    8.4736  -16.0429   24.4782 O   0  0  0  0  0  0  0  0  0  0  0  0
    9.1899  -17.0143   24.0549 N   0  0  0  0  0  0  0  0  0  0  0  0
   10.1158  -13.7393   30.3592 C   0  0  0  0  0  0  0  0  0  0  0  0
   10.7834  -15.0095   30.2060 O   0  0  0  0  0  0  0  0  0  0  0  0
   11.4028  -15.4410   31.2005 C   0  0  0  0  0  0  0  0  0  0  0  0
   10.7450  -15.7530   28.9596 C   0  0  0  0  0  0  0  0  0  0  0  0
    9.9473  -15.2874   27.8273 C   0  0  1  0  0  0  0  0  0  0  0  0
    9.8950  -16.1150   26.5812 N   0  0  0  0  0  0  0  0  0  0  0  0
    8.8986  -15.4697   25.6962 C   0  0  0  0  0  0  0  0  0  0  0  0
    9.5482  -17.5303   26.7543 O   0  0  0  0  0  0  0  0  0  0  0  0
   10.4145  -18.4284   26.9391 O   0  0  0  0  0  0  0  0  0  0  0  0
  2  1  1  0
  3  2  2  0
  4  2  1  0
  5  6  1  0
  5  4  1  0
  6  7  1  0
  7  8  1  0
  8  9  1  6
 10  8  1  0
 11 10  2  0
 13 12  1  6
 13 15  1  0
 13 14  1  0
 14 10  1  0
 15 23  1  0
 16 15  2  0
 18 19  2  0
 18 17  1  0
 20 18  1  0
 22 21  1  6
 21 20  1  0
 22 24  1  0
 23 22  1  0
 24 25  2  0
 24 26  1  0
M  END
$$$$
