RAQ.pdb
     RDKit          3D

 26 25  0  0  1  0  0  0  0  0999 V2000
    9.7718  -13.7321   14.7419 N   0  0  0  0  0  0  0  0  0  0  0  0
    8.4345  -14.1954   14.5799 C   0  0  0  0  0  0  0  0  0  0  0  0
    7.9673  -14.2878   13.3933 N   0  0  0  0  0  0  0  0  0  0  0  0
    7.6772  -14.5337   15.7288 N   0  0  0  0  0  0  0  0  0  0  0  0
    8.1195  -14.0220   17.0367 C   0  0  0  0  0  0  0  0  0  0  0  0
    7.1742  -14.5014   18.0790 C   0  0  0  0  0  0  0  0  0  0  0  0
    7.4389  -14.0159   19.4471 C   0  0  0  0  0  0  0  0  0  0  0  0
    8.7725  -14.4088   19.9717 C   0  0  2  0  0  0  0  0  0  0  0  0
    9.5497  -15.2625   19.1127 N   0  0  0  0  0  0  0  0  0  0  0  0
    8.6144  -15.0903   21.2873 C   0  0  0  0  0  0  0  0  0  0  0  0
    7.7928  -14.7006   22.1528 O   0  0  0  0  0  0  0  0  0  0  0  0
    7.0240  -14.6577   13.1621 C   0  0  0  0  0  0  0  0  0  0  0  0
   10.2024  -18.1396   22.8804 C   0  0  2  0  0  0  0  0  0  0  0  0
    9.3146  -16.9127   22.8475 N   0  0  0  0  0  0  0  0  0  0  0  0
    9.4164  -16.2191   21.5792 C   0  0  0  0  0  0  0  0  0  0  0  0
    9.5875  -15.9816   23.9419 O   0  0  0  0  0  0  0  0  0  0  0  0
   10.5935  -15.1957   23.8634 N   0  0  0  0  0  0  0  0  0  0  0  0
    5.4883  -12.0955   26.0946 C   0  0  0  0  0  0  0  0  0  0  0  0
    6.5635  -11.9422   27.0449 O   0  0  0  0  0  0  0  0  0  0  0  0
    6.4521  -11.0146   27.8730 C   0  0  0  0  0  0  0  0  0  0  0  0
    7.7226  -12.8165   27.0421 C   0  0  0  0  0  0  0  0  0  0  0  0
    7.8203  -13.9373   26.1097 C   0  0  1  0  0  0  0  0  0  0  0  0
    9.0502  -14.7904   26.1192 N   0  0  0  0  0  0  0  0  0  0  0  0
    8.8211  -15.8598   25.1211 C   0  0  0  0  0  0  0  0  0  0  0  0
    9.4125  -15.3952   27.4063 O   0  0  0  0  0  0  0  0  0  0  0  0
    9.1255  -16.5863   27.7063 O   0  0  0  0  0  0  0  0  0  0  0  0
  2  1  1  0
  3  2  2  0
  4  2  1  0
  5  6  1  0
  5  4  1  0
  6  7  1  0
  7  8  1  0
  8  9  1  6
 10  8  1  0
 11 10  2  0
 13 12  1  6
 13 15  1  0
 13 14  1  0
 14 10  1  0
 15 23  1  0
 16 15  2  0
 18 19  2  0
 18 17  1  0
 20 18  1  0
 22 21  1  6
 21 20  1  0
 22 24  1  0
 23 22  1  0
 24 25  2  0
 24 26  1  0
M  END
$$$$
