RAQ.pdb
     RDKit          3D

 26 25  0  0  1  0  0  0  0  0999 V2000
    8.2851  -13.8923   17.7918 N   0  0  0  0  0  0  0  0  0  0  0  0
    8.0717  -12.9240   18.8146 C   0  0  0  0  0  0  0  0  0  0  0  0
    8.2315  -11.6900   18.5204 N   0  0  0  0  0  0  0  0  0  0  0  0
    7.6940  -13.3593   20.1091 N   0  0  0  0  0  0  0  0  0  0  0  0
    6.4116  -14.0655   20.2658 C   0  0  0  0  0  0  0  0  0  0  0  0
    6.6700  -15.5293   20.2491 C   0  0  0  0  0  0  0  0  0  0  0  0
    7.6154  -16.0182   21.2714 C   0  0  0  0  0  0  0  0  0  0  0  0
    7.7843  -17.4944   21.2699 C   0  0  2  0  0  0  0  0  0  0  0  0
    6.5837  -18.2561   21.4910 N   0  0  0  0  0  0  0  0  0  0  0  0
    8.7829  -17.8872   22.3038 C   0  0  0  0  0  0  0  0  0  0  0  0
    8.4749  -18.0487   23.5100 O   0  0  0  0  0  0  0  0  0  0  0  0
    8.1819  -10.9124   19.2081 C   0  0  0  0  0  0  0  0  0  0  0  0
   12.3597  -19.0471   22.2471 C   0  0  1  0  0  0  0  0  0  0  0  0
   11.1589  -18.3888   22.8946 N   0  0  0  0  0  0  0  0  0  0  0  0
   10.1301  -18.0874   21.9195 C   0  0  0  0  0  0  0  0  0  0  0  0
   11.5041  -17.1772   23.6376 O   0  0  0  0  0  0  0  0  0  0  0  0
   11.5002  -16.0480   23.0367 N   0  0  0  0  0  0  0  0  0  0  0  0
   10.8844  -15.6517   30.2744 C   0  0  0  0  0  0  0  0  0  0  0  0
   10.6050  -14.7979   29.1450 O   0  0  0  0  0  0  0  0  0  0  0  0
    9.6221  -14.0350   29.2484 C   0  0  0  0  0  0  0  0  0  0  0  0
   11.4189  -14.8218   27.9430 C   0  0  0  0  0  0  0  0  0  0  0  0
   11.2913  -15.9011   26.9664 C   0  0  1  0  0  0  0  0  0  0  0  0
   12.1186  -15.8597   25.7196 N   0  0  0  0  0  0  0  0  0  0  0  0
   11.8544  -17.1289   25.0042 C   0  0  0  0  0  0  0  0  0  0  0  0
   13.5653  -15.6967   25.9039 O   0  0  0  0  0  0  0  0  0  0  0  0
   14.0874  -14.6147   26.2882 O   0  0  0  0  0  0  0  0  0  0  0  0
  2  1  1  0
  3  2  2  0
  4  2  1  0
  5  6  1  0
  5  4  1  0
  6  7  1  0
  7  8  1  0
  8  9  1  1
 10  8  1  0
 11 10  2  0
 13 12  1  1
 13 15  1  0
 13 14  1  0
 14 10  1  0
 15 23  1  0
 16 15  2  0
 18 19  2  0
 18 17  1  0
 20 18  1  0
 22 21  1  6
 21 20  1  0
 22 24  1  0
 23 22  1  0
 24 25  2  0
 24 26  1  0
M  END
$$$$
