RAQ.pdb
     RDKit          3D

 26 25  0  0  1  0  0  0  0  0999 V2000
    8.1160  -15.7653   16.7302 N   0  0  0  0  0  0  0  0  0  0  0  0
    8.0551  -14.7350   15.7483 C   0  0  0  0  0  0  0  0  0  0  0  0
    8.2595  -15.0526   14.5267 N   0  0  0  0  0  0  0  0  0  0  0  0
    7.7733  -13.4078   16.1569 N   0  0  0  0  0  0  0  0  0  0  0  0
    7.5157  -13.1524   17.5839 C   0  0  0  0  0  0  0  0  0  0  0  0
    8.7207  -13.5432   18.3617 C   0  0  0  0  0  0  0  0  0  0  0  0
    8.6258  -13.3444   19.8209 C   0  0  0  0  0  0  0  0  0  0  0  0
    9.8815  -13.6623   20.5489 C   0  0  2  0  0  0  0  0  0  0  0  0
   10.9624  -14.1532   19.7357 N   0  0  0  0  0  0  0  0  0  0  0  0
    9.6048  -14.6677   21.6133 C   0  0  0  0  0  0  0  0  0  0  0  0
    8.6755  -14.5282   22.4458 O   0  0  0  0  0  0  0  0  0  0  0  0
    8.3266  -14.3690   13.7468 C   0  0  0  0  0  0  0  0  0  0  0  0
   11.1533  -17.9951   22.5586 C   0  0  2  0  0  0  0  0  0  0  0  0
   10.2050  -16.8252   22.7227 N   0  0  0  0  0  0  0  0  0  0  0  0
   10.4152  -15.8249   21.6955 C   0  0  0  0  0  0  0  0  0  0  0  0
   10.2913  -16.2017   24.0429 O   0  0  0  0  0  0  0  0  0  0  0  0
   11.1732  -15.3004   24.2568 N   0  0  0  0  0  0  0  0  0  0  0  0
    5.8841  -12.9230   25.8703 C   0  0  0  0  0  0  0  0  0  0  0  0
    6.6690  -12.9638   27.0806 O   0  0  0  0  0  0  0  0  0  0  0  0
    6.3049  -12.2148   28.0107 C   0  0  0  0  0  0  0  0  0  0  0  0
    7.8284  -13.8271   27.2164 C   0  0  0  0  0  0  0  0  0  0  0  0
    8.2170  -14.7429   26.1463 C   0  0  1  0  0  0  0  0  0  0  0  0
    9.3887  -15.6514   26.3518 N   0  0  0  0  0  0  0  0  0  0  0  0
    9.4660  -16.5080   25.1465 C   0  0  0  0  0  0  0  0  0  0  0  0
    9.3529  -16.4985   27.5495 O   0  0  0  0  0  0  0  0  0  0  0  0
    9.5586  -16.0496   28.7102 O   0  0  0  0  0  0  0  0  0  0  0  0
  2  1  1  0
  3  2  2  0
  4  2  1  0
  5  6  1  0
  5  4  1  0
  6  7  1  0
  7  8  1  0
  8  9  1  6
 10  8  1  0
 11 10  2  0
 13 12  1  6
 13 15  1  0
 13 14  1  0
 14 10  1  0
 15 23  1  0
 16 15  2  0
 18 19  2  0
 18 17  1  0
 20 18  1  0
 22 21  1  6
 21 20  1  0
 22 24  1  0
 23 22  1  0
 24 25  2  0
 24 26  1  0
M  END
$$$$
