RAQ.pdb
     RDKit          3D

 26 25  0  0  1  0  0  0  0  0999 V2000
    8.3562  -11.9451   19.5220 N   0  0  0  0  0  0  0  0  0  0  0  0
    9.2558  -13.0035   19.2063 C   0  0  0  0  0  0  0  0  0  0  0  0
   10.4688  -12.7039   18.9347 N   0  0  0  0  0  0  0  0  0  0  0  0
    8.7784  -14.3377   19.2045 N   0  0  0  0  0  0  0  0  0  0  0  0
    7.3328  -14.5661   19.3655 C   0  0  0  0  0  0  0  0  0  0  0  0
    7.1322  -15.8477   20.0914 C   0  0  0  0  0  0  0  0  0  0  0  0
    8.1930  -16.2047   21.0532 C   0  0  0  0  0  0  0  0  0  0  0  0
    7.6795  -16.5711   22.3985 C   0  0  2  0  0  0  0  0  0  0  0  0
    6.2467  -16.6024   22.5279 N   0  0  0  0  0  0  0  0  0  0  0  0
    8.2192  -15.6268   23.4170 C   0  0  0  0  0  0  0  0  0  0  0  0
    9.4468  -15.3909   23.5326 O   0  0  0  0  0  0  0  0  0  0  0  0
   11.1930  -13.3929   18.6504 C   0  0  0  0  0  0  0  0  0  0  0  0
    6.6876  -13.1638   25.8208 C   0  0  2  0  0  0  0  0  0  0  0  0
    7.7932  -14.0752   25.3293 N   0  0  0  0  0  0  0  0  0  0  0  0
    7.3212  -14.9677   24.2898 C   0  0  0  0  0  0  0  0  0  0  0  0
    8.4116  -14.8523   26.4030 O   0  0  0  0  0  0  0  0  0  0  0  0
    7.7404  -15.7774   26.9772 N   0  0  0  0  0  0  0  0  0  0  0  0
   13.0779  -14.8496   25.1519 C   0  0  0  0  0  0  0  0  0  0  0  0
   12.3189  -16.0655   24.9843 O   0  0  0  0  0  0  0  0  0  0  0  0
   12.3147  -16.5711   23.8428 C   0  0  0  0  0  0  0  0  0  0  0  0
   11.5902  -16.6746   26.0825 C   0  0  0  0  0  0  0  0  0  0  0  0
   11.5849  -16.0695   27.4124 C   0  0  2  0  0  0  0  0  0  0  0  0
   10.3055  -15.5169   27.9585 N   0  0  0  0  0  0  0  0  0  0  0  0
    9.7260  -14.6757   26.8867 C   0  0  0  0  0  0  0  0  0  0  0  0
   10.4112  -14.7292   29.1922 O   0  0  0  0  0  0  0  0  0  0  0  0
   10.8747  -15.2008   30.2663 O   0  0  0  0  0  0  0  0  0  0  0  0
  2  1  1  0
  3  2  2  0
  4  2  1  0
  5  6  1  0
  5  4  1  0
  6  7  1  0
  7  8  1  0
  8  9  1  6
 10  8  1  0
 11 10  2  0
 13 12  1  6
 13 15  1  0
 13 14  1  0
 14 10  1  0
 15 23  1  0
 16 15  2  0
 18 19  2  0
 18 17  1  0
 20 18  1  0
 22 21  1  6
 21 20  1  0
 22 24  1  0
 23 22  1  0
 24 25  2  0
 24 26  1  0
M  END
$$$$
