RAQ.pdb
     RDKit          3D

 26 25  0  0  1  0  0  0  0  0999 V2000
    8.2545  -12.6100   17.6116 N   0  0  0  0  0  0  0  0  0  0  0  0
    8.6653  -13.7172   16.8150 C   0  0  0  0  0  0  0  0  0  0  0  0
    8.7536  -13.5511   15.5503 N   0  0  0  0  0  0  0  0  0  0  0  0
    8.9583  -14.9512   17.4469 N   0  0  0  0  0  0  0  0  0  0  0  0
    7.8765  -15.6474   18.1630 C   0  0  0  0  0  0  0  0  0  0  0  0
    7.6433  -14.9573   19.4588 C   0  0  0  0  0  0  0  0  0  0  0  0
    8.6017  -15.2834   20.5326 C   0  0  0  0  0  0  0  0  0  0  0  0
    8.0057  -16.0659   21.6463 C   0  0  2  0  0  0  0  0  0  0  0  0
    6.5678  -16.1166   21.6684 N   0  0  0  0  0  0  0  0  0  0  0  0
    8.4732  -15.5193   22.9513 C   0  0  0  0  0  0  0  0  0  0  0  0
    9.6811  -15.5326   23.2928 O   0  0  0  0  0  0  0  0  0  0  0  0
    9.0329  -14.2944   14.8797 C   0  0  0  0  0  0  0  0  0  0  0  0
    6.9377  -13.4182   25.6514 C   0  0  2  0  0  0  0  0  0  0  0  0
    7.9185  -14.4548   25.1433 N   0  0  0  0  0  0  0  0  0  0  0  0
    7.5266  -14.9630   23.8441 C   0  0  0  0  0  0  0  0  0  0  0  0
    8.1040  -15.5686   26.0730 O   0  0  0  0  0  0  0  0  0  0  0  0
    7.4224  -16.6394   25.9160 N   0  0  0  0  0  0  0  0  0  0  0  0
   12.1073  -18.0062   23.9079 C   0  0  0  0  0  0  0  0  0  0  0  0
   12.2721  -18.6557   25.1861 O   0  0  0  0  0  0  0  0  0  0  0  0
   13.1083  -19.5811   25.2412 C   0  0  0  0  0  0  0  0  0  0  0  0
   11.5044  -18.2613   26.3536 C   0  0  0  0  0  0  0  0  0  0  0  0
   10.5540  -17.1531   26.2930 C   0  0  1  0  0  0  0  0  0  0  0  0
    9.8065  -16.7634   27.5298 N   0  0  0  0  0  0  0  0  0  0  0  0
    8.9948  -15.5790   27.1680 C   0  0  0  0  0  0  0  0  0  0  0  0
   10.6200  -16.4536   28.7112 O   0  0  0  0  0  0  0  0  0  0  0  0
   10.9691  -15.2792   29.0115 O   0  0  0  0  0  0  0  0  0  0  0  0
  2  1  1  0
  3  2  2  0
  4  2  1  0
  5  6  1  0
  5  4  1  0
  6  7  1  0
  7  8  1  0
  8  9  1  1
 10  8  1  0
 11 10  2  0
 13 12  1  6
 13 15  1  0
 13 14  1  0
 14 10  1  0
 15 23  1  0
 16 15  2  0
 18 19  2  0
 18 17  1  0
 20 18  1  0
 22 21  1  6
 21 20  1  0
 22 24  1  0
 23 22  1  0
 24 25  2  0
 24 26  1  0
M  END
$$$$
