RAQ.pdb
     RDKit          3D

 26 25  0  0  1  0  0  0  0  0999 V2000
   10.3608  -12.4045   19.4883 N   0  0  0  0  0  0  0  0  0  0  0  0
    9.0318  -12.5509   18.9966 C   0  0  0  0  0  0  0  0  0  0  0  0
    8.1487  -11.7117   19.3848 N   0  0  0  0  0  0  0  0  0  0  0  0
    8.7392  -13.6115   18.1036 N   0  0  0  0  0  0  0  0  0  0  0  0
    8.5997  -14.9714   18.6506 C   0  0  0  0  0  0  0  0  0  0  0  0
    7.4087  -15.0063   19.5394 C   0  0  0  0  0  0  0  0  0  0  0  0
    7.6627  -15.4521   20.9231 C   0  0  0  0  0  0  0  0  0  0  0  0
    9.0834  -15.7983   21.1867 C   0  0  2  0  0  0  0  0  0  0  0  0
    9.7682  -16.4673   20.1124 N   0  0  0  0  0  0  0  0  0  0  0  0
    9.1750  -16.6543   22.4029 C   0  0  0  0  0  0  0  0  0  0  0  0
    8.5467  -16.3940   23.4581 O   0  0  0  0  0  0  0  0  0  0  0  0
    7.1730  -11.6808   19.0284 C   0  0  0  0  0  0  0  0  0  0  0  0
   10.9273  -19.9157   23.2003 C   0  0  2  0  0  0  0  0  0  0  0  0
   10.1253  -18.6732   23.5283 N   0  0  0  0  0  0  0  0  0  0  0  0
    9.9986  -17.8047   22.3753 C   0  0  0  0  0  0  0  0  0  0  0  0
   10.6756  -17.9199   24.6548 O   0  0  0  0  0  0  0  0  0  0  0  0
   11.5884  -17.0492   24.4436 N   0  0  0  0  0  0  0  0  0  0  0  0
    8.6678  -13.4957   27.6607 C   0  0  0  0  0  0  0  0  0  0  0  0
    9.7059  -13.9166   28.5704 O   0  0  0  0  0  0  0  0  0  0  0  0
    9.9359  -13.1689   29.5435 C   0  0  0  0  0  0  0  0  0  0  0  0
   10.4532  -15.1450   28.3690 C   0  0  0  0  0  0  0  0  0  0  0  0
   10.1334  -16.0512   27.2683 C   0  0  1  0  0  0  0  0  0  0  0  0
   10.9224  -17.3131   27.1082 N   0  0  0  0  0  0  0  0  0  0  0  0
   10.2839  -18.0641   26.0033 C   0  0  0  0  0  0  0  0  0  0  0  0
   11.0176  -18.1754   28.2918 O   0  0  0  0  0  0  0  0  0  0  0  0
   11.7989  -17.9337   29.2521 O   0  0  0  0  0  0  0  0  0  0  0  0
  2  1  1  0
  3  2  2  0
  4  2  1  0
  5  6  1  0
  5  4  1  0
  6  7  1  0
  7  8  1  0
  8  9  1  6
 10  8  1  0
 11 10  2  0
 13 12  1  6
 13 15  1  0
 13 14  1  0
 14 10  1  0
 15 23  1  0
 16 15  2  0
 18 19  2  0
 18 17  1  0
 20 18  1  0
 22 21  1  6
 21 20  1  0
 22 24  1  0
 23 22  1  0
 24 25  2  0
 24 26  1  0
M  END
$$$$
