RAQ.pdb
     RDKit          3D

 26 25  0  0  1  0  0  0  0  0999 V2000
    5.1518  -21.1522   21.5055 N   0  0  0  0  0  0  0  0  0  0  0  0
    5.2223  -20.6345   20.1802 C   0  0  0  0  0  0  0  0  0  0  0  0
    4.8806  -21.3995   19.2144 N   0  0  0  0  0  0  0  0  0  0  0  0
    5.6646  -19.3030   19.9819 N   0  0  0  0  0  0  0  0  0  0  0  0
    6.1319  -18.5373   21.1496 C   0  0  0  0  0  0  0  0  0  0  0  0
    7.5297  -18.0968   20.9006 C   0  0  0  0  0  0  0  0  0  0  0  0
    8.1527  -17.3183   21.9886 C   0  0  0  0  0  0  0  0  0  0  0  0
    8.1657  -15.8532   21.7415 C   0  0  2  0  0  0  0  0  0  0  0  0
    8.9257  -15.4241   20.5974 N   0  0  0  0  0  0  0  0  0  0  0  0
    8.6915  -15.1454   22.9427 C   0  0  0  0  0  0  0  0  0  0  0  0
    9.9178  -15.0808   23.2029 O   0  0  0  0  0  0  0  0  0  0  0  0
    4.9472  -21.1407   18.2101 C   0  0  0  0  0  0  0  0  0  0  0  0
    7.1700  -12.9731   25.6253 C   0  0  1  0  0  0  0  0  0  0  0  0
    8.2268  -13.8983   25.0580 N   0  0  0  0  0  0  0  0  0  0  0  0
    7.7809  -14.5207   23.8277 C   0  0  0  0  0  0  0  0  0  0  0  0
    8.6516  -14.9282   26.0058 O   0  0  0  0  0  0  0  0  0  0  0  0
    7.9027  -15.9453   26.2072 N   0  0  0  0  0  0  0  0  0  0  0  0
   14.3789  -16.5701   25.8546 C   0  0  0  0  0  0  0  0  0  0  0  0
   13.1766  -17.2218   25.3938 O   0  0  0  0  0  0  0  0  0  0  0  0
   13.3224  -18.1568   24.5795 C   0  0  0  0  0  0  0  0  0  0  0  0
   11.8589  -16.8136   25.8466 C   0  0  0  0  0  0  0  0  0  0  0  0
   11.6250  -16.4248   27.2355 C   0  0  2  0  0  0  0  0  0  0  0  0
   10.2497  -16.0100   27.6562 N   0  0  0  0  0  0  0  0  0  0  0  0
    9.8521  -14.9101   26.7482 C   0  0  0  0  0  0  0  0  0  0  0  0
   10.1001  -15.5702   29.0483 O   0  0  0  0  0  0  0  0  0  0  0  0
    9.8631  -14.3724   29.3646 O   0  0  0  0  0  0  0  0  0  0  0  0
  2  1  1  0
  3  2  2  0
  4  2  1  0
  5  6  1  0
  5  4  1  0
  6  7  1  0
  7  8  1  0
  8  9  1  6
 10  8  1  0
 11 10  2  0
 13 12  1  6
 13 15  1  0
 13 14  1  0
 14 10  1  0
 15 23  1  0
 16 15  2  0
 18 19  2  0
 18 17  1  0
 20 18  1  0
 22 21  1  6
 21 20  1  0
 22 24  1  0
 23 22  1  0
 24 25  2  0
 24 26  1  0
M  END
$$$$
