RAQ.pdb
     RDKit          3D

 26 25  0  0  1  0  0  0  0  0999 V2000
   11.0022  -19.8887   14.8270 N   0  0  0  0  0  0  0  0  0  0  0  0
    9.7389  -19.6628   14.2089 C   0  0  0  0  0  0  0  0  0  0  0  0
    9.3470  -20.4904   13.3165 N   0  0  0  0  0  0  0  0  0  0  0  0
    8.9695  -18.5394   14.6012 N   0  0  0  0  0  0  0  0  0  0  0  0
    9.5307  -17.6202   15.6052 C   0  0  0  0  0  0  0  0  0  0  0  0
    9.3742  -18.2329   16.9505 C   0  0  0  0  0  0  0  0  0  0  0  0
    9.9900  -17.4850   18.0637 C   0  0  0  0  0  0  0  0  0  0  0  0
    9.0702  -17.2534   19.2074 C   0  0  2  0  0  0  0  0  0  0  0  0
    7.6686  -17.3970   18.9148 N   0  0  0  0  0  0  0  0  0  0  0  0
    9.2931  -15.8891   19.7636 C   0  0  0  0  0  0  0  0  0  0  0  0
   10.4352  -15.4624   20.0627 O   0  0  0  0  0  0  0  0  0  0  0  0
    8.4536  -20.4071   12.7920 C   0  0  0  0  0  0  0  0  0  0  0  0
    7.0704  -12.8681   20.2118 C   0  0  2  0  0  0  0  0  0  0  0  0
    8.3483  -13.6618   20.3899 N   0  0  0  0  0  0  0  0  0  0  0  0
    8.1812  -15.0371   19.9650 C   0  0  0  0  0  0  0  0  0  0  0  0
    8.8545  -13.6276   21.7617 O   0  0  0  0  0  0  0  0  0  0  0  0
    9.1236  -12.5015   22.3052 N   0  0  0  0  0  0  0  0  0  0  0  0
    6.1577  -11.9367   26.6879 C   0  0  0  0  0  0  0  0  0  0  0  0
    6.4146  -13.3359   26.4453 O   0  0  0  0  0  0  0  0  0  0  0  0
    5.4828  -14.1286   26.6947 C   0  0  0  0  0  0  0  0  0  0  0  0
    7.6918  -13.8069   25.9405 C   0  0  0  0  0  0  0  0  0  0  0  0
    7.9057  -14.0215   24.5111 C   0  0  1  0  0  0  0  0  0  0  0  0
    9.1704  -14.6775   24.0521 N   0  0  0  0  0  0  0  0  0  0  0  0
    9.0842  -14.7575   22.5761 C   0  0  0  0  0  0  0  0  0  0  0  0
    9.4457  -16.0121   24.5967 O   0  0  0  0  0  0  0  0  0  0  0  0
    9.1997  -17.0735   23.9611 O   0  0  0  0  0  0  0  0  0  0  0  0
  2  1  1  0
  3  2  2  0
  4  2  1  0
  5  6  1  0
  5  4  1  0
  6  7  1  0
  7  8  1  0
  8  9  1  6
 10  8  1  0
 11 10  2  0
 13 12  1  6
 13 15  1  0
 13 14  1  0
 14 10  1  0
 15 23  1  0
 16 15  2  0
 18 19  2  0
 18 17  1  0
 20 18  1  0
 22 21  1  6
 21 20  1  0
 22 24  1  0
 23 22  1  0
 24 25  2  0
 24 26  1  0
M  END
$$$$
