RAQ.pdb
     RDKit          3D

 26 25  0  0  1  0  0  0  0  0999 V2000
   16.1483  -13.5437   18.9826 N   0  0  0  0  0  0  0  0  0  0  0  0
   16.1965  -14.6057   18.0343 C   0  0  0  0  0  0  0  0  0  0  0  0
   17.1348  -14.5973   17.1658 N   0  0  0  0  0  0  0  0  0  0  0  0
   15.2118  -15.6233   18.0871 N   0  0  0  0  0  0  0  0  0  0  0  0
   14.0582  -15.4381   18.9832 C   0  0  0  0  0  0  0  0  0  0  0  0
   13.2230  -14.3259   18.4588 C   0  0  0  0  0  0  0  0  0  0  0  0
   12.0341  -13.9904   19.2662 C   0  0  0  0  0  0  0  0  0  0  0  0
   11.1998  -15.1687   19.6173 C   0  0  2  0  0  0  0  0  0  0  0  0
   10.2651  -15.5896   18.6075 N   0  0  0  0  0  0  0  0  0  0  0  0
   10.4407  -14.8922   20.8694 C   0  0  0  0  0  0  0  0  0  0  0  0
   11.0041  -14.5384   21.9339 O   0  0  0  0  0  0  0  0  0  0  0  0
   17.2092  -15.2698   16.3770 C   0  0  0  0  0  0  0  0  0  0  0  0
    6.7662  -14.9842   21.7941 C   0  0  2  0  0  0  0  0  0  0  0  0
    8.2399  -14.7383   22.0434 N   0  0  0  0  0  0  0  0  0  0  0  0
    9.0325  -15.0313   20.8662 C   0  0  0  0  0  0  0  0  0  0  0  0
    8.7583  -15.4896   23.1863 O   0  0  0  0  0  0  0  0  0  0  0  0
    9.2816  -16.6413   22.9971 N   0  0  0  0  0  0  0  0  0  0  0  0
    9.9829  -13.2129   29.1296 C   0  0  0  0  0  0  0  0  0  0  0  0
   10.1464  -14.6443   29.2119 O   0  0  0  0  0  0  0  0  0  0  0  0
   10.4936  -15.1064   30.3185 C   0  0  0  0  0  0  0  0  0  0  0  0
    9.9243  -15.5106   28.0682 C   0  0  0  0  0  0  0  0  0  0  0  0
    9.5417  -14.9622   26.7690 C   0  0  1  0  0  0  0  0  0  0  0  0
    9.1952  -15.8990   25.6540 N   0  0  0  0  0  0  0  0  0  0  0  0
    8.7375  -15.0528   24.5285 C   0  0  0  0  0  0  0  0  0  0  0  0
    8.1746  -16.9114   25.9484 O   0  0  0  0  0  0  0  0  0  0  0  0
    6.9514  -16.7437   25.6900 O   0  0  0  0  0  0  0  0  0  0  0  0
  2  1  1  0
  3  2  2  0
  4  2  1  0
  5  6  1  0
  5  4  1  0
  6  7  1  0
  7  8  1  0
  8  9  1  6
 10  8  1  0
 11 10  2  0
 13 12  1  6
 13 15  1  0
 13 14  1  0
 14 10  1  0
 15 23  1  0
 16 15  2  0
 18 19  2  0
 18 17  1  0
 20 18  1  0
 22 21  1  6
 21 20  1  0
 22 24  1  0
 23 22  1  0
 24 25  2  0
 24 26  1  0
M  END
$$$$
