CCH.pdb
     RDKit          3D

 23 23  0  0  1  0  0  0  0  0999 V2000
   25.6163  -21.1972   -8.1263 N   0  0  0  0  0  0  0  0  0  0  0  0
   26.1276  -19.8819   -8.4691 C   0  0  1  0  0  0  0  0  0  0  0  0
   27.3585  -19.5640   -7.6491 C   0  0  0  0  0  0  0  0  0  0  0  0
   27.1388  -20.2305   -5.9874 S   0  0  0  0  0  0  0  0  0  0  0  0
   26.3979  -19.8353   -9.9240 C   0  0  0  0  0  0  0  0  0  0  0  0
   26.8765  -18.7730  -10.4014 O   0  0  0  0  0  0  0  0  0  0  0  0
   26.1370  -20.9410  -10.7911 N   0  0  0  0  0  0  0  0  0  0  0  0
   26.4373  -20.9084  -12.1987 C   0  0  1  0  0  0  0  0  0  0  0  0
   27.5858  -21.8262  -12.5408 C   0  0  0  0  0  0  0  0  0  0  0  0
   29.0866  -21.3778  -11.6239 S   0  0  0  0  0  0  0  0  0  0  0  0
   25.2513  -21.3750  -13.0000 C   0  0  0  0  0  0  0  0  0  0  0  0
   24.5508  -22.3403  -12.6146 O   0  0  0  0  0  0  0  0  0  0  0  0
   24.8893  -20.7384  -14.2144 N   0  0  0  0  0  0  0  0  0  0  0  0
   23.4631  -20.6237  -14.6373 C   0  0  1  0  0  0  0  0  0  0  0  0
   22.8682  -19.4245  -13.9395 C   0  0  0  0  0  0  0  0  0  0  0  0
   21.4495  -19.6017  -13.5895 C   0  0  0  0  0  0  0  0  0  0  0  0
   20.6934  -20.7639  -13.8385 C   0  0  0  0  0  0  0  0  0  0  0  0
   19.4743  -20.5146  -13.3738 N   0  0  0  0  0  0  0  0  0  0  0  0
   19.3827  -19.2899  -12.8470 C   0  0  0  0  0  0  0  0  0  0  0  0
   20.6070  -18.7557  -12.9936 N   0  0  0  0  0  0  0  0  0  0  0  0
   23.4066  -20.5697  -16.1004 C   0  0  0  0  0  0  0  0  0  0  0  0
   22.3406  -20.9042  -16.8901 O   0  0  0  0  0  0  0  0  0  0  0  0
   24.4495  -20.1729  -16.7271 O   0  0  0  0  0  0  0  0  0  0  0  0
  2  1  1  1
  3  2  1  0
  4  3  1  0
  5  2  1  0
  5  7  1  0
  6  5  2  0
  8  7  1  0
  8 11  1  0
  8  9  1  1
 10  9  1  0
 11 13  1  0
 11 12  2  0
 13 14  1  0
 14 15  1  1
 15 16  1  0
 16 17  2  0
 18 17  1  0
 19 18  1  0
 20 19  2  0
 20 16  1  0
 21 14  1  0
 21 22  1  0
 23 21  2  0
M  END
$$$$
