CCH.pdb
     RDKit          3D

 23 23  0  0  1  0  0  0  0  0999 V2000
   13.8495  -11.7914  -10.5702 N   0  0  0  0  0  0  0  0  0  0  0  0
   15.1248  -11.2073  -10.1940 C   0  0  1  0  0  0  0  0  0  0  0  0
   16.2339  -11.7564  -11.0641 C   0  0  0  0  0  0  0  0  0  0  0  0
   16.5378  -13.4740  -10.6046 S   0  0  0  0  0  0  0  0  0  0  0  0
   15.0230   -9.7329  -10.2824 C   0  0  0  0  0  0  0  0  0  0  0  0
   14.5198   -9.2378  -11.3251 O   0  0  0  0  0  0  0  0  0  0  0  0
   15.4710   -8.8664   -9.2379 N   0  0  0  0  0  0  0  0  0  0  0  0
   15.3524   -7.4339   -9.3165 C   0  0  1  0  0  0  0  0  0  0  0  0
   15.0779   -6.8263   -7.9622 C   0  0  0  0  0  0  0  0  0  0  0  0
   13.4778   -7.3744   -7.3035 S   0  0  0  0  0  0  0  0  0  0  0  0
   16.6364   -6.8268   -9.8156 C   0  0  0  0  0  0  0  0  0  0  0  0
   17.6925   -6.9080   -9.1456 O   0  0  0  0  0  0  0  0  0  0  0  0
   16.6920   -6.1448  -11.0578 N   0  0  0  0  0  0  0  0  0  0  0  0
   17.9394   -5.4681  -11.5182 C   0  0  1  0  0  0  0  0  0  0  0  0
   18.6083   -6.3680  -12.5291 C   0  0  0  0  0  0  0  0  0  0  0  0
   19.8122   -5.7713  -13.1300 C   0  0  0  0  0  0  0  0  0  0  0  0
   21.1376   -6.1007  -12.7845 C   0  0  0  0  0  0  0  0  0  0  0  0
   21.9150   -5.3446  -13.5514 N   0  0  0  0  0  0  0  0  0  0  0  0
   21.2013   -4.5565  -14.3610 C   0  0  0  0  0  0  0  0  0  0  0  0
   19.9181   -4.8402  -14.0800 N   0  0  0  0  0  0  0  0  0  0  0  0
   17.5966   -4.1347  -12.0194 C   0  0  0  0  0  0  0  0  0  0  0  0
   18.4624   -3.1007  -12.2501 O   0  0  0  0  0  0  0  0  0  0  0  0
   16.3671   -3.8870  -12.2742 O   0  0  0  0  0  0  0  0  0  0  0  0
  2  1  1  6
  3  2  1  0
  4  3  1  0
  5  2  1  0
  5  7  1  0
  6  5  2  0
  8  7  1  0
  8 11  1  0
  8  9  1  1
 10  9  1  0
 11 13  1  0
 11 12  2  0
 13 14  1  0
 14 15  1  6
 15 16  1  0
 16 17  2  0
 18 17  1  0
 19 18  1  0
 20 19  2  0
 20 16  1  0
 21 14  1  0
 21 22  1  0
 23 21  2  0
M  END
$$$$
