CCH.pdb
     RDKit          3D

 23 23  0  0  1  0  0  0  0  0999 V2000
   26.5426  -20.1191  -15.7396 N   0  0  0  0  0  0  0  0  0  0  0  0
   25.7938  -21.2500  -15.2205 C   0  0  1  0  0  0  0  0  0  0  0  0
   26.6783  -22.1125  -14.3473 C   0  0  0  0  0  0  0  0  0  0  0  0
   27.8087  -23.0417  -15.4020 S   0  0  0  0  0  0  0  0  0  0  0  0
   24.6079  -20.7470  -14.4907 C   0  0  0  0  0  0  0  0  0  0  0  0
   24.7569  -19.7458  -13.7417 O   0  0  0  0  0  0  0  0  0  0  0  0
   23.3185  -21.3522  -14.6073 N   0  0  0  0  0  0  0  0  0  0  0  0
   22.1681  -20.8670  -13.8906 C   0  0  1  0  0  0  0  0  0  0  0  0
   21.7827  -19.4779  -14.3382 C   0  0  0  0  0  0  0  0  0  0  0  0
   21.8882  -19.3114  -16.1425 S   0  0  0  0  0  0  0  0  0  0  0  0
   20.9783  -21.7538  -14.1445 C   0  0  0  0  0  0  0  0  0  0  0  0
   20.6975  -22.1419  -15.3027 O   0  0  0  0  0  0  0  0  0  0  0  0
   20.1386  -22.1776  -13.0831 N   0  0  0  0  0  0  0  0  0  0  0  0
   18.9255  -23.0086  -13.3357 C   0  0  1  0  0  0  0  0  0  0  0  0
   18.9217  -24.1387  -12.3348 C   0  0  0  0  0  0  0  0  0  0  0  0
   20.0030  -25.1128  -12.5555 C   0  0  0  0  0  0  0  0  0  0  0  0
   20.9079  -25.0868  -13.6348 C   0  0  0  0  0  0  0  0  0  0  0  0
   21.7136  -26.1287  -13.4627 N   0  0  0  0  0  0  0  0  0  0  0  0
   21.4031  -26.8225  -12.3636 C   0  0  0  0  0  0  0  0  0  0  0  0
   20.3524  -26.1766  -11.8298 N   0  0  0  0  0  0  0  0  0  0  0  0
   17.7426  -22.1454  -13.2872 C   0  0  0  0  0  0  0  0  0  0  0  0
   17.7108  -20.8209  -12.9456 O   0  0  0  0  0  0  0  0  0  0  0  0
   16.6109  -22.6602  -13.5905 O   0  0  0  0  0  0  0  0  0  0  0  0
  2  1  1  1
  3  2  1  0
  4  3  1  0
  5  2  1  0
  5  7  1  0
  6  5  2  0
  8  7  1  0
  8 11  1  0
  8  9  1  6
 10  9  1  0
 11 13  1  0
 11 12  2  0
 13 14  1  0
 14 15  1  1
 15 16  1  0
 16 17  2  0
 18 17  1  0
 19 18  1  0
 20 19  2  0
 20 16  1  0
 21 14  1  0
 21 22  1  0
 23 21  2  0
M  END
$$$$
