CCH.pdb
     RDKit          3D

 23 23  0  0  1  0  0  0  0  0999 V2000
   29.3677  -17.4834  -18.4273 N   0  0  0  0  0  0  0  0  0  0  0  0
   27.9339  -17.6242  -18.6102 C   0  0  1  0  0  0  0  0  0  0  0  0
   27.6086  -18.9733  -19.2125 C   0  0  0  0  0  0  0  0  0  0  0  0
   28.0538  -18.9529  -20.9604 S   0  0  0  0  0  0  0  0  0  0  0  0
   27.2605  -17.4165  -17.3081 C   0  0  0  0  0  0  0  0  0  0  0  0
   27.9443  -17.5609  -16.2606 O   0  0  0  0  0  0  0  0  0  0  0  0
   25.8799  -17.0625  -17.2034 N   0  0  0  0  0  0  0  0  0  0  0  0
   25.2284  -16.8534  -15.9367 C   0  0  1  0  0  0  0  0  0  0  0  0
   24.6301  -15.4707  -15.8438 C   0  0  0  0  0  0  0  0  0  0  0  0
   25.9105  -14.2126  -15.5753 S   0  0  0  0  0  0  0  0  0  0  0  0
   24.0979  -17.8316  -15.7595 C   0  0  0  0  0  0  0  0  0  0  0  0
   23.3848  -18.1774  -16.7305 O   0  0  0  0  0  0  0  0  0  0  0  0
   23.8041  -18.3921  -14.4904 N   0  0  0  0  0  0  0  0  0  0  0  0
   22.6669  -19.3397  -14.3032 C   0  0  1  0  0  0  0  0  0  0  0  0
   22.7679  -19.9150  -12.9111 C   0  0  0  0  0  0  0  0  0  0  0  0
   24.0291  -20.6348  -12.6709 C   0  0  0  0  0  0  0  0  0  0  0  0
   25.0511  -20.8169  -13.6231 C   0  0  0  0  0  0  0  0  0  0  0  0
   26.0035  -21.5111  -13.0104 N   0  0  0  0  0  0  0  0  0  0  0  0
   25.6800  -21.7908  -11.7443 C   0  0  0  0  0  0  0  0  0  0  0  0
   24.4665  -21.2416  -11.5659 N   0  0  0  0  0  0  0  0  0  0  0  0
   21.4133  -18.6352  -14.5839 C   0  0  0  0  0  0  0  0  0  0  0  0
   20.2952  -19.1596  -15.1727 O   0  0  0  0  0  0  0  0  0  0  0  0
   21.3315  -17.4012  -14.2545 O   0  0  0  0  0  0  0  0  0  0  0  0
  2  1  1  1
  3  2  1  0
  4  3  1  0
  5  2  1  0
  5  7  1  0
  6  5  2  0
  8  7  1  0
  8 11  1  0
  8  9  1  6
 10  9  1  0
 11 13  1  0
 11 12  2  0
 13 14  1  0
 14 15  1  1
 15 16  1  0
 16 17  2  0
 18 17  1  0
 19 18  1  0
 20 19  2  0
 20 16  1  0
 21 14  1  0
 21 22  1  0
 23 21  2  0
M  END
$$$$
