CCH.pdb
     RDKit          3D

 23 23  0  0  1  0  0  0  0  0999 V2000
   26.8737  -34.1932   -4.5199 N   0  0  0  0  0  0  0  0  0  0  0  0
   26.5766  -33.2219   -3.4819 C   0  0  1  0  0  0  0  0  0  0  0  0
   25.3796  -32.3828   -3.8713 C   0  0  0  0  0  0  0  0  0  0  0  0
   25.0135  -31.2336   -2.5300 S   0  0  0  0  0  0  0  0  0  0  0  0
   26.3663  -33.9355   -2.2018 C   0  0  0  0  0  0  0  0  0  0  0  0
   25.5960  -34.9317   -2.2013 O   0  0  0  0  0  0  0  0  0  0  0  0
   27.0000  -33.5361   -0.9847 N   0  0  0  0  0  0  0  0  0  0  0  0
   26.8244  -34.2535    0.2510 C   0  0  1  0  0  0  0  0  0  0  0  0
   27.7749  -35.4217    0.3524 C   0  0  0  0  0  0  0  0  0  0  0  0
   29.4618  -34.9446   -0.1177 S   0  0  0  0  0  0  0  0  0  0  0  0
   27.1092  -33.3553    1.4251 C   0  0  0  0  0  0  0  0  0  0  0  0
   27.9878  -32.4639    1.3583 O   0  0  0  0  0  0  0  0  0  0  0  0
   26.3936  -33.4887    2.6422 N   0  0  0  0  0  0  0  0  0  0  0  0
   26.6737  -32.6034    3.8100 C   0  0  1  0  0  0  0  0  0  0  0  0
   25.4030  -32.4847    4.6164 C   0  0  0  0  0  0  0  0  0  0  0  0
   24.4312  -31.5457    4.0328 C   0  0  0  0  0  0  0  0  0  0  0  0
   24.6310  -30.8039    2.8520 C   0  0  0  0  0  0  0  0  0  0  0  0
   23.5259  -30.0879    2.6776 N   0  0  0  0  0  0  0  0  0  0  0  0
   22.6322  -30.3066    3.6469 C   0  0  0  0  0  0  0  0  0  0  0  0
   23.2147  -31.2031    4.4611 N   0  0  0  0  0  0  0  0  0  0  0  0
   27.8181  -33.1430    4.5488 C   0  0  0  0  0  0  0  0  0  0  0  0
   28.7933  -32.4240    5.1842 O   0  0  0  0  0  0  0  0  0  0  0  0
   27.9405  -34.4150    4.6206 O   0  0  0  0  0  0  0  0  0  0  0  0
  2  1  1  6
  3  2  1  0
  4  3  1  0
  5  2  1  0
  5  7  1  0
  6  5  2  0
  8  7  1  0
  8 11  1  0
  8  9  1  6
 10  9  1  0
 11 13  1  0
 11 12  2  0
 13 14  1  0
 14 15  1  1
 15 16  1  0
 16 17  2  0
 18 17  1  0
 19 18  1  0
 20 19  2  0
 20 16  1  0
 21 14  1  0
 21 22  1  0
 23 21  2  0
M  END
$$$$
