CCH.pdb
     RDKit          3D

 23 23  0  0  1  0  0  0  0  0999 V2000
   23.8682  -22.1242  -15.1549 N   0  0  0  0  0  0  0  0  0  0  0  0
   23.9514  -23.5692  -15.2738 C   0  0  1  0  0  0  0  0  0  0  0  0
   22.5847  -24.1555  -15.5512 C   0  0  0  0  0  0  0  0  0  0  0  0
   21.7777  -24.5192  -13.9795 S   0  0  0  0  0  0  0  0  0  0  0  0
   24.9305  -23.9089  -16.3312 C   0  0  0  0  0  0  0  0  0  0  0  0
   24.6232  -23.6507  -17.5247 O   0  0  0  0  0  0  0  0  0  0  0  0
   26.1944  -24.5115  -16.0451 N   0  0  0  0  0  0  0  0  0  0  0  0
   27.0969  -24.9451  -17.0795 C   0  0  1  0  0  0  0  0  0  0  0  0
   28.2423  -23.9779  -17.2557 C   0  0  0  0  0  0  0  0  0  0  0  0
   27.8265  -22.3349  -16.6060 S   0  0  0  0  0  0  0  0  0  0  0  0
   27.7009  -26.2778  -16.7251 C   0  0  0  0  0  0  0  0  0  0  0  0
   28.1197  -26.5096  -15.5668 O   0  0  0  0  0  0  0  0  0  0  0  0
   27.8151  -27.3118  -17.6890 N   0  0  0  0  0  0  0  0  0  0  0  0
   28.2402  -28.6894  -17.3049 C   0  0  1  0  0  0  0  0  0  0  0  0
   27.2873  -29.1899  -16.2465 C   0  0  0  0  0  0  0  0  0  0  0  0
   27.4995  -30.6039  -15.8966 C   0  0  0  0  0  0  0  0  0  0  0  0
   28.5121  -31.0831  -15.0425 C   0  0  0  0  0  0  0  0  0  0  0  0
   28.3562  -32.4013  -14.9927 N   0  0  0  0  0  0  0  0  0  0  0  0
   27.3286  -32.8101  -15.7430 C   0  0  0  0  0  0  0  0  0  0  0  0
   26.8243  -31.6878  -16.2834 N   0  0  0  0  0  0  0  0  0  0  0  0
   28.3037  -29.5182  -18.5114 C   0  0  0  0  0  0  0  0  0  0  0  0
   29.0878  -30.6227  -18.7040 O   0  0  0  0  0  0  0  0  0  0  0  0
   27.5589  -29.1958  -19.5011 O   0  0  0  0  0  0  0  0  0  0  0  0
  2  1  1  6
  3  2  1  0
  4  3  1  0
  5  2  1  0
  5  7  1  0
  6  5  2  0
  8  7  1  0
  8 11  1  0
  8  9  1  1
 10  9  1  0
 11 13  1  0
 11 12  2  0
 13 14  1  0
 14 15  1  1
 15 16  1  0
 16 17  2  0
 18 17  1  0
 19 18  1  0
 20 19  2  0
 20 16  1  0
 21 14  1  0
 21 22  1  0
 23 21  2  0
M  END
$$$$
