CCH.pdb
     RDKit          3D

 23 23  0  0  1  0  0  0  0  0999 V2000
   18.2703  -10.5761  -15.2289 N   0  0  0  0  0  0  0  0  0  0  0  0
   19.1093   -9.7201  -16.0490 C   0  0  1  0  0  0  0  0  0  0  0  0
   18.4303   -9.4225  -17.3677 C   0  0  0  0  0  0  0  0  0  0  0  0
   18.3578  -10.9400  -18.3403 S   0  0  0  0  0  0  0  0  0  0  0  0
   19.4238   -8.4874  -15.2916 C   0  0  0  0  0  0  0  0  0  0  0  0
   18.5056   -7.9657  -14.6059 O   0  0  0  0  0  0  0  0  0  0  0  0
   20.7171   -7.8795  -15.3134 N   0  0  0  0  0  0  0  0  0  0  0  0
   21.0312   -6.7008  -14.5490 C   0  0  1  0  0  0  0  0  0  0  0  0
   22.4404   -6.7499  -14.0102 C   0  0  0  0  0  0  0  0  0  0  0  0
   22.8889   -5.1949  -13.1885 S   0  0  0  0  0  0  0  0  0  0  0  0
   20.9369   -5.4726  -15.4146 C   0  0  0  0  0  0  0  0  0  0  0  0
   21.5776   -5.3885  -16.4885 O   0  0  0  0  0  0  0  0  0  0  0  0
   20.1216   -4.3733  -15.0431 N   0  0  0  0  0  0  0  0  0  0  0  0
   20.0379   -3.1466  -15.8881 C   0  0  1  0  0  0  0  0  0  0  0  0
   18.5858   -2.7433  -15.9767 C   0  0  0  0  0  0  0  0  0  0  0  0
   18.3679   -1.5342  -16.7872 C   0  0  0  0  0  0  0  0  0  0  0  0
   18.8142   -1.3561  -18.1115 C   0  0  0  0  0  0  0  0  0  0  0  0
   18.4153   -0.1417  -18.4725 N   0  0  0  0  0  0  0  0  0  0  0  0
   17.7501    0.4763  -17.4920 C   0  0  0  0  0  0  0  0  0  0  0  0
   17.7374   -0.4007  -16.4738 N   0  0  0  0  0  0  0  0  0  0  0  0
   20.9230   -2.1235  -15.3253 C   0  0  0  0  0  0  0  0  0  0  0  0
   21.5475   -1.1168  -16.0096 O   0  0  0  0  0  0  0  0  0  0  0  0
   21.1517   -2.1542  -14.0664 O   0  0  0  0  0  0  0  0  0  0  0  0
  2  1  1  1
  3  2  1  0
  4  3  1  0
  5  2  1  0
  5  7  1  0
  6  5  2  0
  8  7  1  0
  8 11  1  0
  8  9  1  6
 10  9  1  0
 11 13  1  0
 11 12  2  0
 13 14  1  0
 14 15  1  1
 15 16  1  0
 16 17  2  0
 18 17  1  0
 19 18  1  0
 20 19  2  0
 20 16  1  0
 21 14  1  0
 21 22  1  0
 23 21  2  0
M  END
$$$$
