CCH.pdb
     RDKit          3D

 23 23  0  0  1  0  0  0  0  0999 V2000
   25.4909  -34.3728  -14.7385 N   0  0  0  0  0  0  0  0  0  0  0  0
   25.2162  -34.8849  -13.4076 C   0  0  1  0  0  0  0  0  0  0  0  0
   26.0321  -36.1310  -13.1428 C   0  0  0  0  0  0  0  0  0  0  0  0
   25.5207  -36.8366  -11.5634 S   0  0  0  0  0  0  0  0  0  0  0  0
   25.4870  -33.8185  -12.4169 C   0  0  0  0  0  0  0  0  0  0  0  0
   25.7783  -32.6722  -12.8488 O   0  0  0  0  0  0  0  0  0  0  0  0
   25.4292  -34.0451  -11.0070 N   0  0  0  0  0  0  0  0  0  0  0  0
   25.4868  -32.9730  -10.0479 C   0  0  1  0  0  0  0  0  0  0  0  0
   24.3880  -31.9643  -10.2789 C   0  0  0  0  0  0  0  0  0  0  0  0
   24.3278  -30.7347   -8.9452 S   0  0  0  0  0  0  0  0  0  0  0  0
   25.3039  -33.5064   -8.6520 C   0  0  0  0  0  0  0  0  0  0  0  0
   24.2936  -34.1821   -8.3460 O   0  0  0  0  0  0  0  0  0  0  0  0
   26.2672  -33.2618   -7.6404 N   0  0  0  0  0  0  0  0  0  0  0  0
   26.1439  -33.8732   -6.2850 C   0  0  1  0  0  0  0  0  0  0  0  0
   27.4147  -33.5768   -5.5259 C   0  0  0  0  0  0  0  0  0  0  0  0
   28.3359  -34.7234   -5.4665 C   0  0  0  0  0  0  0  0  0  0  0  0
   28.1859  -35.9206   -6.1936 C   0  0  0  0  0  0  0  0  0  0  0  0
   29.2186  -36.6854   -5.8573 N   0  0  0  0  0  0  0  0  0  0  0  0
   30.0200  -36.0808   -4.9752 C   0  0  0  0  0  0  0  0  0  0  0  0
   29.4538  -34.8820   -4.7555 N   0  0  0  0  0  0  0  0  0  0  0  0
   24.9220  -33.3729   -5.6500 C   0  0  0  0  0  0  0  0  0  0  0  0
   24.1105  -34.0571   -4.7867 O   0  0  0  0  0  0  0  0  0  0  0  0
   24.5546  -32.1759   -5.9150 O   0  0  0  0  0  0  0  0  0  0  0  0
  2  1  1  6
  3  2  1  0
  4  3  1  0
  5  2  1  0
  5  7  1  0
  6  5  2  0
  8  7  1  0
  8 11  1  0
  8  9  1  6
 10  9  1  0
 11 13  1  0
 11 12  2  0
 13 14  1  0
 14 15  1  1
 15 16  1  0
 16 17  2  0
 18 17  1  0
 19 18  1  0
 20 19  2  0
 20 16  1  0
 21 14  1  0
 21 22  1  0
 23 21  2  0
M  END
$$$$
