CCH.pdb
     RDKit          3D

 23 23  0  0  1  0  0  0  0  0999 V2000
   29.2359  -12.7670  -17.7470 N   0  0  0  0  0  0  0  0  0  0  0  0
   28.1135  -12.2197  -17.0055 C   0  0  1  0  0  0  0  0  0  0  0  0
   28.2921  -12.4616  -15.5229 C   0  0  0  0  0  0  0  0  0  0  0  0
   28.1668  -14.2324  -15.2030 S   0  0  0  0  0  0  0  0  0  0  0  0
   27.9824  -10.7800  -17.3251 C   0  0  0  0  0  0  0  0  0  0  0  0
   29.0114  -10.1652  -17.7108 O   0  0  0  0  0  0  0  0  0  0  0  0
   26.7438  -10.0760  -17.2117 N   0  0  0  0  0  0  0  0  0  0  0  0
   26.5726   -8.7290  -17.6900 C   0  0  1  0  0  0  0  0  0  0  0  0
   26.6849   -8.6573  -19.1936 C   0  0  0  0  0  0  0  0  0  0  0  0
   25.7533   -9.9956  -19.9909 S   0  0  0  0  0  0  0  0  0  0  0  0
   25.2052   -8.2130  -17.3288 C   0  0  0  0  0  0  0  0  0  0  0  0
   24.1782   -8.8976  -17.5467 O   0  0  0  0  0  0  0  0  0  0  0  0
   25.0357   -6.9380  -16.7315 N   0  0  0  0  0  0  0  0  0  0  0  0
   23.6813   -6.4120  -16.3924 C   0  0  1  0  0  0  0  0  0  0  0  0
   23.8593   -5.2539  -15.4404 C   0  0  0  0  0  0  0  0  0  0  0  0
   22.5901   -4.6068  -15.0704 C   0  0  0  0  0  0  0  0  0  0  0  0
   21.4384   -5.2819  -14.6206 C   0  0  0  0  0  0  0  0  0  0  0  0
   20.5264   -4.3423  -14.3974 N   0  0  0  0  0  0  0  0  0  0  0  0
   20.9947   -3.1197  -14.6658 C   0  0  0  0  0  0  0  0  0  0  0  0
   22.2598   -3.3140  -15.0755 N   0  0  0  0  0  0  0  0  0  0  0  0
   22.9786   -6.0797  -17.6343 C   0  0  0  0  0  0  0  0  0  0  0  0
   21.6389   -6.2150  -17.8768 O   0  0  0  0  0  0  0  0  0  0  0  0
   23.6672   -5.6140  -18.6075 O   0  0  0  0  0  0  0  0  0  0  0  0
  2  1  1  6
  3  2  1  0
  4  3  1  0
  5  2  1  0
  5  7  1  0
  6  5  2  0
  8  7  1  0
  8 11  1  0
  8  9  1  6
 10  9  1  0
 11 13  1  0
 11 12  2  0
 13 14  1  0
 14 15  1  1
 15 16  1  0
 16 17  2  0
 18 17  1  0
 19 18  1  0
 20 19  2  0
 20 16  1  0
 21 14  1  0
 21 22  1  0
 23 21  2  0
M  END
$$$$
