CCH.pdb
     RDKit          3D

 23 23  0  0  1  0  0  0  0  0999 V2000
   16.4292  -15.7630  -13.6876 N   0  0  0  0  0  0  0  0  0  0  0  0
   16.5139  -15.6465  -15.1327 C   0  0  1  0  0  0  0  0  0  0  0  0
   15.5874  -16.6406  -15.7976 C   0  0  0  0  0  0  0  0  0  0  0  0
   16.4112  -18.2435  -15.8729 S   0  0  0  0  0  0  0  0  0  0  0  0
   16.2079  -14.2510  -15.5212 C   0  0  0  0  0  0  0  0  0  0  0  0
   16.4062  -13.9149  -16.7184 O   0  0  0  0  0  0  0  0  0  0  0  0
   15.7023  -13.2873  -14.5948 N   0  0  0  0  0  0  0  0  0  0  0  0
   15.4878  -11.9092  -14.9515 C   0  0  1  0  0  0  0  0  0  0  0  0
   14.2134  -11.3729  -14.3459 C   0  0  0  0  0  0  0  0  0  0  0  0
   12.8120  -12.4815  -14.6644 S   0  0  0  0  0  0  0  0  0  0  0  0
   16.6119  -11.0516  -14.4345 C   0  0  0  0  0  0  0  0  0  0  0  0
   17.5125  -11.5353  -13.7093 O   0  0  0  0  0  0  0  0  0  0  0  0
   16.6878   -9.6713  -14.7511 N   0  0  0  0  0  0  0  0  0  0  0  0
   17.9295   -8.8831  -14.5004 C   0  0  1  0  0  0  0  0  0  0  0  0
   19.0695   -9.5784  -15.2047 C   0  0  0  0  0  0  0  0  0  0  0  0
   20.3417   -8.8436  -15.1144 C   0  0  0  0  0  0  0  0  0  0  0  0
   20.5349   -7.6444  -14.4009 C   0  0  0  0  0  0  0  0  0  0  0  0
   21.8105   -7.3167  -14.5734 N   0  0  0  0  0  0  0  0  0  0  0  0
   22.4540   -8.2043  -15.3377 C   0  0  0  0  0  0  0  0  0  0  0  0
   21.5291   -9.1268  -15.6532 N   0  0  0  0  0  0  0  0  0  0  0  0
   17.7039   -7.4984  -14.9227 C   0  0  0  0  0  0  0  0  0  0  0  0
   18.1194   -6.3679  -14.2737 O   0  0  0  0  0  0  0  0  0  0  0  0
   17.0529   -7.2998  -16.0065 O   0  0  0  0  0  0  0  0  0  0  0  0
  2  1  1  1
  3  2  1  0
  4  3  1  0
  5  2  1  0
  5  7  1  0
  6  5  2  0
  8  7  1  0
  8 11  1  0
  8  9  1  1
 10  9  1  0
 11 13  1  0
 11 12  2  0
 13 14  1  0
 14 15  1  6
 15 16  1  0
 16 17  2  0
 18 17  1  0
 19 18  1  0
 20 19  2  0
 20 16  1  0
 21 14  1  0
 21 22  1  0
 23 21  2  0
M  END
$$$$
