CCH.pdb
     RDKit          3D

 23 23  0  0  1  0  0  0  0  0999 V2000
   15.4643   -8.9198  -20.9576 N   0  0  0  0  0  0  0  0  0  0  0  0
   16.3830   -9.2379  -19.8789 C   0  0  1  0  0  0  0  0  0  0  0  0
   16.4585  -10.7349  -19.6741 C   0  0  0  0  0  0  0  0  0  0  0  0
   14.8426  -11.3312  -19.1383 S   0  0  0  0  0  0  0  0  0  0  0  0
   17.7062   -8.6483  -20.1847 C   0  0  0  0  0  0  0  0  0  0  0  0
   17.8859   -8.1663  -21.3340 O   0  0  0  0  0  0  0  0  0  0  0  0
   18.7704   -8.6091  -19.2316 N   0  0  0  0  0  0  0  0  0  0  0  0
   19.9650   -7.8325  -19.4368 C   0  0  1  0  0  0  0  0  0  0  0  0
   19.6586   -6.3566  -19.5166 C   0  0  0  0  0  0  0  0  0  0  0  0
   21.1791   -5.3690  -19.6009 S   0  0  0  0  0  0  0  0  0  0  0  0
   20.9175   -8.0194  -18.2860 C   0  0  0  0  0  0  0  0  0  0  0  0
   20.5510   -7.8163  -17.1047 O   0  0  0  0  0  0  0  0  0  0  0  0
   22.2575   -8.4305  -18.5013 N   0  0  0  0  0  0  0  0  0  0  0  0
   23.1950   -8.6537  -17.3623 C   0  0  1  0  0  0  0  0  0  0  0  0
   24.2153   -9.6783  -17.7962 C   0  0  0  0  0  0  0  0  0  0  0  0
   25.2503   -9.9324  -16.7809 C   0  0  0  0  0  0  0  0  0  0  0  0
   25.0884  -10.7537  -15.6480 C   0  0  0  0  0  0  0  0  0  0  0  0
   26.2462  -10.7142  -14.9981 N   0  0  0  0  0  0  0  0  0  0  0  0
   27.1391   -9.9366  -15.6178 C   0  0  0  0  0  0  0  0  0  0  0  0
   26.5006   -9.4723  -16.7054 N   0  0  0  0  0  0  0  0  0  0  0  0
   23.7590   -7.3644  -16.9546 C   0  0  0  0  0  0  0  0  0  0  0  0
   24.1175   -6.9931  -15.6875 O   0  0  0  0  0  0  0  0  0  0  0  0
   23.9439   -6.4772  -17.8583 O   0  0  0  0  0  0  0  0  0  0  0  0
  2  1  1  6
  3  2  1  0
  4  3  1  0
  5  2  1  0
  5  7  1  0
  6  5  2  0
  8  7  1  0
  8 11  1  0
  8  9  1  1
 10  9  1  0
 11 13  1  0
 11 12  2  0
 13 14  1  0
 14 15  1  6
 15 16  1  0
 16 17  2  0
 18 17  1  0
 19 18  1  0
 20 19  2  0
 20 16  1  0
 21 14  1  0
 21 22  1  0
 23 21  2  0
M  END
$$$$
