CCH.pdb
     RDKit          3D

 23 23  0  0  1  0  0  0  0  0999 V2000
   24.3837  -10.0519  -18.1299 N   0  0  0  0  0  0  0  0  0  0  0  0
   23.7524  -10.8055  -17.0609 C   0  0  1  0  0  0  0  0  0  0  0  0
   24.7836  -11.6143  -16.3051 C   0  0  0  0  0  0  0  0  0  0  0  0
   25.4303  -12.8973  -17.3958 S   0  0  0  0  0  0  0  0  0  0  0  0
   23.0213   -9.8678  -16.1787 C   0  0  0  0  0  0  0  0  0  0  0  0
   22.3652  -10.3512  -15.2187 O   0  0  0  0  0  0  0  0  0  0  0  0
   23.0359   -8.4528  -16.3786 N   0  0  0  0  0  0  0  0  0  0  0  0
   22.2978   -7.5450  -15.5399 C   0  0  1  0  0  0  0  0  0  0  0  0
   22.8470   -6.1416  -15.6258 C   0  0  0  0  0  0  0  0  0  0  0  0
   21.9131   -5.0000  -14.5680 S   0  0  0  0  0  0  0  0  0  0  0  0
   20.8586   -7.4785  -15.9766 C   0  0  0  0  0  0  0  0  0  0  0  0
   20.5552   -7.2063  -17.1619 O   0  0  0  0  0  0  0  0  0  0  0  0
   19.8019   -7.7211  -15.0625 N   0  0  0  0  0  0  0  0  0  0  0  0
   18.3762   -7.7137  -15.5022 C   0  0  1  0  0  0  0  0  0  0  0  0
   17.7455   -9.0087  -15.0502 C   0  0  0  0  0  0  0  0  0  0  0  0
   16.3244   -9.1209  -15.4171 C   0  0  0  0  0  0  0  0  0  0  0  0
   15.6286   -8.2184  -16.2452 C   0  0  0  0  0  0  0  0  0  0  0  0
   14.3843   -8.6768  -16.3228 N   0  0  0  0  0  0  0  0  0  0  0  0
   14.2214   -9.7982  -15.6143 C   0  0  0  0  0  0  0  0  0  0  0  0
   15.4258  -10.0448  -15.0716 N   0  0  0  0  0  0  0  0  0  0  0  0
   17.7283   -6.5054  -14.9855 C   0  0  0  0  0  0  0  0  0  0  0  0
   16.6538   -5.8574  -15.5307 O   0  0  0  0  0  0  0  0  0  0  0  0
   18.1982   -5.9830  -13.9158 O   0  0  0  0  0  0  0  0  0  0  0  0
  2  1  1  6
  3  2  1  0
  4  3  1  0
  5  2  1  0
  5  7  1  0
  6  5  2  0
  8  7  1  0
  8 11  1  0
  8  9  1  6
 10  9  1  0
 11 13  1  0
 11 12  2  0
 13 14  1  0
 14 15  1  1
 15 16  1  0
 16 17  2  0
 18 17  1  0
 19 18  1  0
 20 19  2  0
 20 16  1  0
 21 14  1  0
 21 22  1  0
 23 21  2  0
M  END
$$$$
