CCH.pdb
     RDKit          3D

 23 23  0  0  1  0  0  0  0  0999 V2000
   14.2531  -19.4574    2.1763 N   0  0  0  0  0  0  0  0  0  0  0  0
   15.5618  -19.0111    2.6202 C   0  0  1  0  0  0  0  0  0  0  0  0
   16.2394  -18.2025    1.5360 C   0  0  0  0  0  0  0  0  0  0  0  0
   17.7619  -19.0396    1.0512 S   0  0  0  0  0  0  0  0  0  0  0  0
   15.4072  -18.2429    3.8764 C   0  0  0  0  0  0  0  0  0  0  0  0
   14.4035  -17.4909    3.9883 O   0  0  0  0  0  0  0  0  0  0  0  0
   16.3466  -18.3262    4.9502 N   0  0  0  0  0  0  0  0  0  0  0  0
   16.2006  -17.5704    6.1667 C   0  0  1  0  0  0  0  0  0  0  0  0
   16.0861  -18.4749    7.3697 C   0  0  0  0  0  0  0  0  0  0  0  0
   14.7046  -19.6388    7.1929 S   0  0  0  0  0  0  0  0  0  0  0  0
   17.4059  -16.6964    6.3902 C   0  0  0  0  0  0  0  0  0  0  0  0
   18.5323  -17.0244    5.9491 O   0  0  0  0  0  0  0  0  0  0  0  0
   17.3055  -15.4762    7.1058 N   0  0  0  0  0  0  0  0  0  0  0  0
   18.5088  -14.6425    7.3940 C   0  0  1  0  0  0  0  0  0  0  0  0
   18.5732  -13.5481    6.3561 C   0  0  0  0  0  0  0  0  0  0  0  0
   19.7390  -12.6639    6.5169 C   0  0  0  0  0  0  0  0  0  0  0  0
   20.7383  -12.8127    7.4986 C   0  0  0  0  0  0  0  0  0  0  0  0
   21.5981  -11.8198    7.2998 N   0  0  0  0  0  0  0  0  0  0  0  0
   21.2357  -11.0451    6.2729 C   0  0  0  0  0  0  0  0  0  0  0  0
   20.0946  -11.5868    5.8143 N   0  0  0  0  0  0  0  0  0  0  0  0
   18.4349  -14.1682    8.7783 C   0  0  0  0  0  0  0  0  0  0  0  0
   19.4852  -13.7948    9.5715 O   0  0  0  0  0  0  0  0  0  0  0  0
   17.2802  -14.0869    9.3242 O   0  0  0  0  0  0  0  0  0  0  0  0
  2  1  1  6
  3  2  1  0
  4  3  1  0
  5  2  1  0
  5  7  1  0
  6  5  2  0
  8  7  1  0
  8 11  1  0
  8  9  1  1
 10  9  1  0
 11 13  1  0
 11 12  2  0
 13 14  1  0
 14 15  1  6
 15 16  1  0
 16 17  2  0
 18 17  1  0
 19 18  1  0
 20 19  2  0
 20 16  1  0
 21 14  1  0
 21 22  1  0
 23 21  2  0
M  END
$$$$
