GAC.pdb
     RDKit          3D

 16 15  0  0  1  0  0  0  0  0999 V2000
   19.9708  -12.3359  -17.8466 N   0  0  0  0  0  0  0  0  0  0  0  0
   19.8948  -11.9059  -16.4840 C   0  0  0  0  0  0  0  0  0  0  0  0
   19.8444  -10.4083  -16.3766 C   0  0  0  0  0  0  0  0  0  0  0  0
   20.5234   -9.6729  -17.1336 O   0  0  0  0  0  0  0  0  0  0  0  0
   17.8437   -7.8157  -14.4665 C   0  0  0  0  0  0  0  0  0  0  0  0
   18.9759   -8.3264  -15.3245 C   0  0  2  0  0  0  0  0  0  0  0  0
   19.0269   -9.7470  -15.4138 N   0  0  0  0  0  0  0  0  0  0  0  0
   20.2424   -7.7284  -14.8121 C   0  0  0  0  0  0  0  0  0  0  0  0
   20.9566   -8.2760  -13.9393 O   0  0  0  0  0  0  0  0  0  0  0  0
   20.6676   -6.4751  -15.3346 N   0  0  0  0  0  0  0  0  0  0  0  0
   21.8613   -5.7974  -14.8645 C   0  0  1  0  0  0  0  0  0  0  0  0
   22.2670   -4.6846  -15.8213 C   0  0  0  0  0  0  0  0  0  0  0  0
   23.6673   -3.7384  -15.1249 S   0  0  0  0  0  0  0  0  0  0  0  0
   21.5819   -5.2664  -13.5046 C   0  0  0  0  0  0  0  0  0  0  0  0
   22.5229   -5.2931  -12.4838 O   0  0  0  0  0  0  0  0  0  0  0  0
   20.4585   -4.7585  -13.2097 O   0  0  0  0  0  0  0  0  0  0  0  0
  2  1  1  0
  3  2  1  0
  4  3  2  0
  6  5  1  1
  6  8  1  0
  6  7  1  0
  7  3  1  0
  8  9  2  0
 10 11  1  0
 10  8  1  0
 11 12  1  6
 12 13  1  0
 14 15  1  0
 14 11  1  0
 16 14  2  0
M  END
$$$$
