GAC.pdb
     RDKit          3D

 16 15  0  0  1  0  0  0  0  0999 V2000
   19.1483  -13.2305  -16.3089 N   0  0  0  0  0  0  0  0  0  0  0  0
   19.9148  -12.2262  -16.9806 C   0  0  0  0  0  0  0  0  0  0  0  0
   20.4727  -11.2172  -16.0176 C   0  0  0  0  0  0  0  0  0  0  0  0
   19.7292  -10.5717  -15.2393 O   0  0  0  0  0  0  0  0  0  0  0  0
   23.8704   -9.9985  -14.8727 C   0  0  0  0  0  0  0  0  0  0  0  0
   22.3810   -9.9078  -15.1012 C   0  0  2  0  0  0  0  0  0  0  0  0
   21.8691  -10.9411  -15.9374 N   0  0  0  0  0  0  0  0  0  0  0  0
   22.0804   -8.5400  -15.6138 C   0  0  0  0  0  0  0  0  0  0  0  0
   22.0352   -8.2586  -16.8347 O   0  0  0  0  0  0  0  0  0  0  0  0
   21.8316   -7.4979  -14.6775 N   0  0  0  0  0  0  0  0  0  0  0  0
   21.5268   -6.1389  -15.0841 C   0  0  1  0  0  0  0  0  0  0  0  0
   20.0270   -5.8807  -15.0368 C   0  0  0  0  0  0  0  0  0  0  0  0
   19.6919   -4.0942  -15.2293 S   0  0  0  0  0  0  0  0  0  0  0  0
   22.2635   -5.2143  -14.1832 C   0  0  0  0  0  0  0  0  0  0  0  0
   22.7429   -3.9818  -14.6067 O   0  0  0  0  0  0  0  0  0  0  0  0
   22.4913   -5.5111  -12.9720 O   0  0  0  0  0  0  0  0  0  0  0  0
  2  1  1  0
  3  2  1  0
  4  3  2  0
  6  5  1  6
  6  8  1  0
  6  7  1  0
  7  3  1  0
  8  9  2  0
 10 11  1  0
 10  8  1  0
 11 12  1  1
 12 13  1  0
 14 15  1  0
 14 11  1  0
 16 14  2  0
M  END
$$$$
