GAC.pdb
     RDKit          3D

 16 15  0  0  1  0  0  0  0  0999 V2000
   17.4814  -12.3147  -15.2996 N   0  0  0  0  0  0  0  0  0  0  0  0
   17.0298  -10.9931  -15.6103 C   0  0  0  0  0  0  0  0  0  0  0  0
   18.1774  -10.0685  -15.9017 C   0  0  0  0  0  0  0  0  0  0  0  0
   19.2820  -10.1895  -15.3184 O   0  0  0  0  0  0  0  0  0  0  0  0
   19.0319   -7.3756  -18.4119 C   0  0  0  0  0  0  0  0  0  0  0  0
   19.1579   -8.1237  -17.1067 C   0  0  2  0  0  0  0  0  0  0  0  0
   18.0727   -9.0104  -16.8514 N   0  0  0  0  0  0  0  0  0  0  0  0
   19.3580   -7.1195  -16.0226 C   0  0  0  0  0  0  0  0  0  0  0  0
   18.4316   -6.7159  -15.2805 O   0  0  0  0  0  0  0  0  0  0  0  0
   20.6616   -6.5885  -15.8140 N   0  0  0  0  0  0  0  0  0  0  0  0
   20.9682   -5.6738  -14.7302 C   0  0  1  0  0  0  0  0  0  0  0  0
   22.3982   -5.8666  -14.2443 C   0  0  0  0  0  0  0  0  0  0  0  0
   22.7681   -4.6851  -12.8996 S   0  0  0  0  0  0  0  0  0  0  0  0
   20.7461   -4.2889  -15.2221 C   0  0  0  0  0  0  0  0  0  0  0  0
   20.1861   -3.2951  -14.4302 O   0  0  0  0  0  0  0  0  0  0  0  0
   21.0612   -3.9462  -16.4012 O   0  0  0  0  0  0  0  0  0  0  0  0
  2  1  1  0
  3  2  1  0
  4  3  2  0
  6  5  1  6
  6  8  1  0
  6  7  1  0
  7  3  1  0
  8  9  2  0
 10 11  1  0
 10  8  1  0
 11 12  1  6
 12 13  1  0
 14 15  1  0
 14 11  1  0
 16 14  2  0
M  END
$$$$
