GAC.pdb
     RDKit          3D

 16 15  0  0  1  0  0  0  0  0999 V2000
   12.5680  -10.9857   -9.7373 N   0  0  0  0  0  0  0  0  0  0  0  0
   13.4784  -10.3343   -8.8462 C   0  0  0  0  0  0  0  0  0  0  0  0
   14.1109   -9.1291   -9.4821 C   0  0  0  0  0  0  0  0  0  0  0  0
   13.8763   -8.8174  -10.6750 O   0  0  0  0  0  0  0  0  0  0  0  0
   16.1123   -6.1224   -8.3839 C   0  0  0  0  0  0  0  0  0  0  0  0
   15.6013   -7.1384   -9.3766 C   0  0  2  0  0  0  0  0  0  0  0  0
   15.0064   -8.2804   -8.7678 N   0  0  0  0  0  0  0  0  0  0  0  0
   16.7247   -7.4852  -10.2939 C   0  0  0  0  0  0  0  0  0  0  0  0
   17.7738   -8.0547   -9.9105 O   0  0  0  0  0  0  0  0  0  0  0  0
   16.6079   -7.1568  -11.6735 N   0  0  0  0  0  0  0  0  0  0  0  0
   17.6257   -7.5032  -12.6478 C   0  0  1  0  0  0  0  0  0  0  0  0
   17.0864   -8.4971  -13.6674 C   0  0  0  0  0  0  0  0  0  0  0  0
   16.5992  -10.0489  -12.8334 S   0  0  0  0  0  0  0  0  0  0  0  0
   18.0794   -6.2485  -13.3030 C   0  0  0  0  0  0  0  0  0  0  0  0
   19.3537   -6.1015  -13.8349 O   0  0  0  0  0  0  0  0  0  0  0  0
   17.3155   -5.2424  -13.4081 O   0  0  0  0  0  0  0  0  0  0  0  0
  2  1  1  0
  3  2  1  0
  4  3  2  0
  6  5  1  1
  6  8  1  0
  6  7  1  0
  7  3  1  0
  8  9  2  0
 10 11  1  0
 10  8  1  0
 11 12  1  6
 12 13  1  0
 14 15  1  0
 14 11  1  0
 16 14  2  0
M  END
$$$$
