GAC.pdb
     RDKit          3D

 16 15  0  0  1  0  0  0  0  0999 V2000
   10.7320   -9.7737   -9.2901 N   0  0  0  0  0  0  0  0  0  0  0  0
   11.2883   -9.7627  -10.6083 C   0  0  0  0  0  0  0  0  0  0  0  0
   12.6970   -9.2409  -10.6118 C   0  0  0  0  0  0  0  0  0  0  0  0
   13.2832   -8.9268   -9.5475 O   0  0  0  0  0  0  0  0  0  0  0  0
   15.4771   -8.7281  -13.1414 C   0  0  0  0  0  0  0  0  0  0  0  0
   14.7730   -8.5779  -11.8145 C   0  0  2  0  0  0  0  0  0  0  0  0
   13.4385   -9.0759  -11.8183 N   0  0  0  0  0  0  0  0  0  0  0  0
   14.8596   -7.1447  -11.4116 C   0  0  0  0  0  0  0  0  0  0  0  0
   13.9706   -6.3015  -11.6775 O   0  0  0  0  0  0  0  0  0  0  0  0
   16.0042   -6.7048  -10.6899 N   0  0  0  0  0  0  0  0  0  0  0  0
   16.1302   -5.3553  -10.1722 C   0  0  1  0  0  0  0  0  0  0  0  0
   16.9585   -5.3381   -8.8948 C   0  0  0  0  0  0  0  0  0  0  0  0
   16.1385   -6.3371   -7.6023 S   0  0  0  0  0  0  0  0  0  0  0  0
   16.7495   -4.5142  -11.2298 C   0  0  0  0  0  0  0  0  0  0  0  0
   17.3041   -5.0522  -12.3836 O   0  0  0  0  0  0  0  0  0  0  0  0
   16.8008   -3.2518  -11.1268 O   0  0  0  0  0  0  0  0  0  0  0  0
  2  1  1  0
  3  2  1  0
  4  3  2  0
  6  5  1  6
  6  8  1  0
  6  7  1  0
  7  3  1  0
  8  9  2  0
 10 11  1  0
 10  8  1  0
 11 12  1  1
 12 13  1  0
 14 15  1  0
 14 11  1  0
 16 14  2  0
M  END
$$$$
