GAC.pdb
     RDKit          3D

 16 15  0  0  1  0  0  0  0  0999 V2000
   11.1443  -11.0180   -9.3060 N   0  0  0  0  0  0  0  0  0  0  0  0
   11.7804   -9.7364   -9.3269 C   0  0  0  0  0  0  0  0  0  0  0  0
   12.4264   -9.4591  -10.6545 C   0  0  0  0  0  0  0  0  0  0  0  0
   12.7882  -10.3893  -11.4154 O   0  0  0  0  0  0  0  0  0  0  0  0
   13.0795   -6.4545  -12.8614 C   0  0  0  0  0  0  0  0  0  0  0  0
   13.2594   -7.8756  -12.3849 C   0  0  2  0  0  0  0  0  0  0  0  0
   12.6615   -8.1314  -11.1177 N   0  0  0  0  0  0  0  0  0  0  0  0
   14.7177   -8.1860  -12.4152 C   0  0  0  0  0  0  0  0  0  0  0  0
   15.4883   -7.9594  -11.4525 O   0  0  0  0  0  0  0  0  0  0  0  0
   15.2692   -8.7678  -13.5907 N   0  0  0  0  0  0  0  0  0  0  0  0
   16.6867   -9.0410  -13.7360 C   0  0  1  0  0  0  0  0  0  0  0  0
   16.9303  -10.0934  -14.8090 C   0  0  0  0  0  0  0  0  0  0  0  0
   16.2280  -11.6975  -14.2849 S   0  0  0  0  0  0  0  0  0  0  0  0
   17.3687   -7.7625  -14.0675 C   0  0  0  0  0  0  0  0  0  0  0  0
   16.6934   -6.6701  -14.5955 O   0  0  0  0  0  0  0  0  0  0  0  0
   18.6130   -7.6080  -13.8814 O   0  0  0  0  0  0  0  0  0  0  0  0
  2  1  1  0
  3  2  1  0
  4  3  2  0
  6  5  1  1
  6  8  1  0
  6  7  1  0
  7  3  1  0
  8  9  2  0
 10 11  1  0
 10  8  1  0
 11 12  1  6
 12 13  1  0
 14 15  1  0
 14 11  1  0
 16 14  2  0
M  END
$$$$
