GAC.pdb
     RDKit          3D

 16 15  0  0  1  0  0  0  0  0999 V2000
   26.7460  -32.8285   -8.9636 N   0  0  0  0  0  0  0  0  0  0  0  0
   25.5982  -32.8179   -8.1094 C   0  0  0  0  0  0  0  0  0  0  0  0
   25.9848  -32.8883   -6.6594 C   0  0  0  0  0  0  0  0  0  0  0  0
   27.1874  -32.8970   -6.3006 O   0  0  0  0  0  0  0  0  0  0  0  0
   24.2441  -32.8066   -3.2921 C   0  0  0  0  0  0  0  0  0  0  0  0
   25.3845  -33.0546   -4.2495 C   0  0  2  0  0  0  0  0  0  0  0  0
   25.0109  -32.9486   -5.6199 N   0  0  0  0  0  0  0  0  0  0  0  0
   25.9866  -34.3759   -3.9096 C   0  0  0  0  0  0  0  0  0  0  0  0
   25.7470  -35.4256   -4.5520 O   0  0  0  0  0  0  0  0  0  0  0  0
   26.8777  -34.4575   -2.8033 N   0  0  0  0  0  0  0  0  0  0  0  0
   27.5090  -35.6996   -2.3988 C   0  0  1  0  0  0  0  0  0  0  0  0
   28.8945  -35.4426   -1.8221 C   0  0  0  0  0  0  0  0  0  0  0  0
   29.9079  -34.5044   -3.0195 S   0  0  0  0  0  0  0  0  0  0  0  0
   26.6238  -36.3618   -1.4051 C   0  0  0  0  0  0  0  0  0  0  0  0
   26.8857  -37.6272   -0.8967 O   0  0  0  0  0  0  0  0  0  0  0  0
   25.5763  -35.7957   -0.9702 O   0  0  0  0  0  0  0  0  0  0  0  0
  2  1  1  0
  3  2  1  0
  4  3  2  0
  6  5  1  1
  6  8  1  0
  6  7  1  0
  7  3  1  0
  8  9  2  0
 10 11  1  0
 10  8  1  0
 11 12  1  1
 12 13  1  0
 14 15  1  0
 14 11  1  0
 16 14  2  0
M  END
$$$$
