GAC.pdb
     RDKit          3D

 16 15  0  0  1  0  0  0  0  0999 V2000
   12.8640   -9.7165   -9.7038 N   0  0  0  0  0  0  0  0  0  0  0  0
   13.1619   -8.4984  -10.3928 C   0  0  0  0  0  0  0  0  0  0  0  0
   14.2297   -8.6949  -11.4311 C   0  0  0  0  0  0  0  0  0  0  0  0
   15.0990   -9.5928  -11.3166 O   0  0  0  0  0  0  0  0  0  0  0  0
   14.8914   -7.5857  -14.9630 C   0  0  0  0  0  0  0  0  0  0  0  0
   15.2923   -8.1029  -13.6027 C   0  0  2  0  0  0  0  0  0  0  0  0
   14.3113   -7.8760  -12.5952 N   0  0  0  0  0  0  0  0  0  0  0  0
   16.6214   -7.5167  -13.2651 C   0  0  0  0  0  0  0  0  0  0  0  0
   16.7613   -6.5058  -12.5367 O   0  0  0  0  0  0  0  0  0  0  0  0
   17.7929   -8.1289  -13.7918 N   0  0  0  0  0  0  0  0  0  0  0  0
   19.1268   -7.6296  -13.5154 C   0  0  1  0  0  0  0  0  0  0  0  0
   20.1701   -8.7173  -13.7318 C   0  0  0  0  0  0  0  0  0  0  0  0
   21.8267   -8.0979  -13.2702 S   0  0  0  0  0  0  0  0  0  0  0  0
   19.3719   -6.4611  -14.4009 C   0  0  0  0  0  0  0  0  0  0  0  0
   20.0953   -5.3497  -13.9889 O   0  0  0  0  0  0  0  0  0  0  0  0
   18.9269   -6.4242  -15.5872 O   0  0  0  0  0  0  0  0  0  0  0  0
  2  1  1  0
  3  2  1  0
  4  3  2  0
  6  5  1  6
  6  8  1  0
  6  7  1  0
  7  3  1  0
  8  9  2  0
 10 11  1  0
 10  8  1  0
 11 12  1  6
 12 13  1  0
 14 15  1  0
 14 11  1  0
 16 14  2  0
M  END
$$$$
