GAC.pdb
     RDKit          3D

 16 15  0  0  1  0  0  0  0  0999 V2000
   26.9477  -12.9773  -20.2808 N   0  0  0  0  0  0  0  0  0  0  0  0
   27.1813  -11.6782  -19.7285 C   0  0  0  0  0  0  0  0  0  0  0  0
   26.2737  -11.3986  -18.5645 C   0  0  0  0  0  0  0  0  0  0  0  0
   25.0384  -11.6101  -18.6299 O   0  0  0  0  0  0  0  0  0  0  0  0
   26.6039  -10.2889  -14.9533 C   0  0  0  0  0  0  0  0  0  0  0  0
   25.8901  -10.5417  -16.2592 C   0  0  2  0  0  0  0  0  0  0  0  0
   26.7654  -10.8810  -17.3304 N   0  0  0  0  0  0  0  0  0  0  0  0
   25.0422   -9.3508  -16.5537 C   0  0  0  0  0  0  0  0  0  0  0  0
   25.4630   -8.3435  -17.1704 O   0  0  0  0  0  0  0  0  0  0  0  0
   23.6881   -9.3501  -16.1167 N   0  0  0  0  0  0  0  0  0  0  0  0
   22.7670   -8.2735  -16.4293 C   0  0  1  0  0  0  0  0  0  0  0  0
   21.6217   -8.7733  -17.2993 C   0  0  0  0  0  0  0  0  0  0  0  0
   20.7987  -10.1944  -16.4968 S   0  0  0  0  0  0  0  0  0  0  0  0
   22.2670   -7.7109  -15.1476 C   0  0  0  0  0  0  0  0  0  0  0  0
   21.4932   -6.5594  -15.0880 O   0  0  0  0  0  0  0  0  0  0  0  0
   22.5266   -8.2623  -14.0361 O   0  0  0  0  0  0  0  0  0  0  0  0
  2  1  1  0
  3  2  1  0
  4  3  2  0
  6  5  1  1
  6  8  1  0
  6  7  1  0
  7  3  1  0
  8  9  2  0
 10 11  1  0
 10  8  1  0
 11 12  1  6
 12 13  1  0
 14 15  1  0
 14 11  1  0
 16 14  2  0
M  END
$$$$
