GAC.pdb
     RDKit          3D

 16 15  0  0  1  0  0  0  0  0999 V2000
   18.9885  -13.6239  -15.8479 N   0  0  0  0  0  0  0  0  0  0  0  0
   18.5534  -12.4205  -16.4882 C   0  0  0  0  0  0  0  0  0  0  0  0
   19.1439  -11.2015  -15.8385 C   0  0  0  0  0  0  0  0  0  0  0  0
   18.5193  -10.5584  -14.9602 O   0  0  0  0  0  0  0  0  0  0  0  0
   22.4863   -9.4284  -15.7582 C   0  0  0  0  0  0  0  0  0  0  0  0
   20.9965   -9.5634  -15.5555 C   0  0  2  0  0  0  0  0  0  0  0  0
   20.4381  -10.7134  -16.1837 N   0  0  0  0  0  0  0  0  0  0  0  0
   20.3586   -8.2899  -15.9972 C   0  0  0  0  0  0  0  0  0  0  0  0
   19.9659   -8.0893  -17.1709 O   0  0  0  0  0  0  0  0  0  0  0  0
   20.1835   -7.2464  -15.0458 N   0  0  0  0  0  0  0  0  0  0  0  0
   19.5391   -5.9889  -15.3753 C   0  0  1  0  0  0  0  0  0  0  0  0
   18.7846   -5.4338  -14.1750 C   0  0  0  0  0  0  0  0  0  0  0  0
   17.4853   -6.6085  -13.6529 S   0  0  0  0  0  0  0  0  0  0  0  0
   20.5882   -5.0436  -15.8393 C   0  0  0  0  0  0  0  0  0  0  0  0
   20.2934   -3.7673  -16.3002 O   0  0  0  0  0  0  0  0  0  0  0  0
   21.8152   -5.3621  -15.8360 O   0  0  0  0  0  0  0  0  0  0  0  0
  2  1  1  0
  3  2  1  0
  4  3  2  0
  6  5  1  6
  6  8  1  0
  6  7  1  0
  7  3  1  0
  8  9  2  0
 10 11  1  0
 10  8  1  0
 11 12  1  1
 12 13  1  0
 14 15  1  0
 14 11  1  0
 16 14  2  0
M  END
$$$$
