GAC.pdb
     RDKit          3D

 16 15  0  0  1  0  0  0  0  0999 V2000
   16.8019  -14.3606  -16.3898 N   0  0  0  0  0  0  0  0  0  0  0  0
   16.6404  -13.0452  -15.8506 C   0  0  0  0  0  0  0  0  0  0  0  0
   17.7228  -12.1158  -16.3212 C   0  0  0  0  0  0  0  0  0  0  0  0
   18.9295  -12.4607  -16.3219 O   0  0  0  0  0  0  0  0  0  0  0  0
   17.9930   -8.6993  -17.9327 C   0  0  0  0  0  0  0  0  0  0  0  0
   18.4753   -9.8875  -17.1362 C   0  0  2  0  0  0  0  0  0  0  0  0
   17.4378  -10.7997  -16.7893 N   0  0  0  0  0  0  0  0  0  0  0  0
   19.2184   -9.3711  -15.9509 C   0  0  0  0  0  0  0  0  0  0  0  0
   18.6840   -9.1875  -14.8317 O   0  0  0  0  0  0  0  0  0  0  0  0
   20.6021   -9.0698  -16.0888 N   0  0  0  0  0  0  0  0  0  0  0  0
   21.4075   -8.5756  -14.9878 C   0  0  1  0  0  0  0  0  0  0  0  0
   22.8906   -8.7821  -15.2636 C   0  0  0  0  0  0  0  0  0  0  0  0
   23.3009  -10.5616  -15.1865 S   0  0  0  0  0  0  0  0  0  0  0  0
   21.0883   -7.1367  -14.7956 C   0  0  0  0  0  0  0  0  0  0  0  0
   21.1830   -6.5084  -13.5609 O   0  0  0  0  0  0  0  0  0  0  0  0
   20.7102   -6.4073  -15.7610 O   0  0  0  0  0  0  0  0  0  0  0  0
  2  1  1  0
  3  2  1  0
  4  3  2  0
  6  5  1  1
  6  8  1  0
  6  7  1  0
  7  3  1  0
  8  9  2  0
 10 11  1  0
 10  8  1  0
 11 12  1  6
 12 13  1  0
 14 15  1  0
 14 11  1  0
 16 14  2  0
M  END
$$$$
