GAC.pdb
     RDKit          3D

 16 15  0  0  1  0  0  0  0  0999 V2000
   26.0160  -14.7334  -19.2807 N   0  0  0  0  0  0  0  0  0  0  0  0
   25.8090  -13.3271  -19.4443 C   0  0  0  0  0  0  0  0  0  0  0  0
   25.2350  -12.7026  -18.2045 C   0  0  0  0  0  0  0  0  0  0  0  0
   24.0756  -12.9754  -17.8087 O   0  0  0  0  0  0  0  0  0  0  0  0
   26.3927  -10.4368  -15.3990 C   0  0  0  0  0  0  0  0  0  0  0  0
   25.3847  -11.0971  -16.3083 C   0  0  2  0  0  0  0  0  0  0  0  0
   25.9731  -11.7720  -17.4161 N   0  0  0  0  0  0  0  0  0  0  0  0
   24.3915  -10.0623  -16.7163 C   0  0  0  0  0  0  0  0  0  0  0  0
   24.5408   -9.3245  -17.7189 O   0  0  0  0  0  0  0  0  0  0  0  0
   23.2141   -9.8981  -15.9344 N   0  0  0  0  0  0  0  0  0  0  0  0
   22.1816   -8.9355  -16.2698 C   0  0  1  0  0  0  0  0  0  0  0  0
   20.8086   -9.4425  -15.8502 C   0  0  0  0  0  0  0  0  0  0  0  0
   20.4572  -11.0435  -16.6590 S   0  0  0  0  0  0  0  0  0  0  0  0
   22.5138   -7.6529  -15.5961 C   0  0  0  0  0  0  0  0  0  0  0  0
   21.8355   -6.4708  -15.8626 O   0  0  0  0  0  0  0  0  0  0  0  0
   23.4426   -7.5772  -14.7367 O   0  0  0  0  0  0  0  0  0  0  0  0
  2  1  1  0
  3  2  1  0
  4  3  2  0
  6  5  1  6
  6  8  1  0
  6  7  1  0
  7  3  1  0
  8  9  2  0
 10 11  1  0
 10  8  1  0
 11 12  1  1
 12 13  1  0
 14 15  1  0
 14 11  1  0
 16 14  2  0
M  END
$$$$
