GAC.pdb
     RDKit          3D

 16 15  0  0  1  0  0  0  0  0999 V2000
   28.2288  -20.3691  -16.6275 N   0  0  0  0  0  0  0  0  0  0  0  0
   27.5426  -21.3140  -15.8007 C   0  0  0  0  0  0  0  0  0  0  0  0
   26.9425  -20.6586  -14.5894 C   0  0  0  0  0  0  0  0  0  0  0  0
   27.5135  -19.7033  -14.0095 O   0  0  0  0  0  0  0  0  0  0  0  0
   23.5971  -20.5324  -12.8960 C   0  0  0  0  0  0  0  0  0  0  0  0
   25.1018  -20.4153  -12.9317 C   0  0  2  0  0  0  0  0  0  0  0  0
   25.6991  -21.0853  -14.0377 N   0  0  0  0  0  0  0  0  0  0  0  0
   25.6270  -20.8797  -11.6155 C   0  0  0  0  0  0  0  0  0  0  0  0
   25.9428  -22.0706  -11.3834 O   0  0  0  0  0  0  0  0  0  0  0  0
   25.7800  -19.9306  -10.5665 N   0  0  0  0  0  0  0  0  0  0  0  0
   26.1761  -20.3085   -9.2228 C   0  0  1  0  0  0  0  0  0  0  0  0
   26.7043  -19.1055   -8.4532 C   0  0  0  0  0  0  0  0  0  0  0  0
   27.3895  -19.6413   -6.8456 S   0  0  0  0  0  0  0  0  0  0  0  0
   24.9948  -20.9067   -8.5475 C   0  0  0  0  0  0  0  0  0  0  0  0
   25.1097  -21.8763   -7.5601 O   0  0  0  0  0  0  0  0  0  0  0  0
   23.8136  -20.5555   -8.8446 O   0  0  0  0  0  0  0  0  0  0  0  0
  2  1  1  0
  3  2  1  0
  4  3  2  0
  6  5  1  1
  6  8  1  0
  6  7  1  0
  7  3  1  0
  8  9  2  0
 10 11  1  0
 10  8  1  0
 11 12  1  1
 12 13  1  0
 14 15  1  0
 14 11  1  0
 16 14  2  0
M  END
$$$$
