GAC.pdb
     RDKit          3D

 16 15  0  0  1  0  0  0  0  0999 V2000
   18.1561  -16.2793  -17.8675 N   0  0  0  0  0  0  0  0  0  0  0  0
   17.6979  -14.9446  -18.1042 C   0  0  0  0  0  0  0  0  0  0  0  0
   18.3246  -13.9657  -17.1525 C   0  0  0  0  0  0  0  0  0  0  0  0
   18.0788  -13.9975  -15.9221 O   0  0  0  0  0  0  0  0  0  0  0  0
   20.9136  -11.1977  -17.2836 C   0  0  0  0  0  0  0  0  0  0  0  0
   19.7754  -11.9956  -16.6949 C   0  0  2  0  0  0  0  0  0  0  0  0
   19.2268  -12.9542  -17.5944 N   0  0  0  0  0  0  0  0  0  0  0  0
   18.7608  -11.0316  -16.1799 C   0  0  0  0  0  0  0  0  0  0  0  0
   17.7600  -10.6684  -16.8421 O   0  0  0  0  0  0  0  0  0  0  0  0
   18.9299  -10.4931  -14.8737 N   0  0  0  0  0  0  0  0  0  0  0  0
   18.0607   -9.4641  -14.3345 C   0  0  1  0  0  0  0  0  0  0  0  0
   18.0386   -9.5136  -12.8128 C   0  0  0  0  0  0  0  0  0  0  0  0
   17.1366   -8.0680  -12.1515 S   0  0  0  0  0  0  0  0  0  0  0  0
   18.5477   -8.1485  -14.8259 C   0  0  0  0  0  0  0  0  0  0  0  0
   19.8981   -7.8533  -14.9587 O   0  0  0  0  0  0  0  0  0  0  0  0
   17.7437   -7.2237  -15.1504 O   0  0  0  0  0  0  0  0  0  0  0  0
  2  1  1  0
  3  2  1  0
  4  3  2  0
  6  5  1  6
  6  8  1  0
  6  7  1  0
  7  3  1  0
  8  9  2  0
 10 11  1  0
 10  8  1  0
 11 12  1  1
 12 13  1  0
 14 15  1  0
 14 11  1  0
 16 14  2  0
M  END
$$$$
