IMH.pdb
     RDKit          3D

 27 27  0  0  1  0  0  0  0  0999 V2000
   14.4361  -13.8497  -11.3414 C   0  0  0  0  0  0  0  0  0  0  0  0
   14.2638  -12.8342  -10.2635 C   0  0  0  0  0  0  0  0  0  0  0  0
   14.5598  -11.4107  -10.7544 C   0  0  2  0  0  0  0  0  0  0  0  0
   16.0284  -11.4416  -11.1310 C   0  0  0  0  0  0  0  0  0  0  0  0
   14.2988  -10.5007   -9.6094 C   0  0  2  0  0  0  0  0  0  0  0  0
   12.9103  -10.6600   -9.1563 N   0  0  0  0  0  0  0  0  0  0  0  0
   14.5564   -9.0797   -9.7871 C   0  0  0  0  0  0  0  0  0  0  0  0
   13.8070   -8.3986  -10.5910 O   0  0  0  0  0  0  0  0  0  0  0  0
   12.1106   -4.4269   -6.6415 C   0  0  0  0  0  0  0  0  0  0  0  0
   13.9227   -4.5490   -6.8751 S   0  0  0  0  0  0  0  0  0  0  0  0
   14.1934   -5.8039   -8.1739 C   0  0  0  0  0  0  0  0  0  0  0  0
   15.6438   -5.9772   -8.4667 C   0  0  0  0  0  0  0  0  0  0  0  0
   15.8864   -6.9196   -9.5993 C   0  0  2  0  0  0  0  0  0  0  0  0
   15.5637   -8.2975   -9.1694 N   0  0  0  0  0  0  0  0  0  0  0  0
   17.2618   -6.8949  -10.1627 C   0  0  0  0  0  0  0  0  0  0  0  0
   18.1931   -7.5838   -9.6753 O   0  0  0  0  0  0  0  0  0  0  0  0
   17.5687   -6.0786  -11.2865 N   0  0  0  0  0  0  0  0  0  0  0  0
   18.7865   -6.2798  -12.1010 C   0  0  1  0  0  0  0  0  0  0  0  0
   18.7621   -7.6680  -12.6506 C   0  0  0  0  0  0  0  0  0  0  0  0
   19.8607   -7.9766  -13.5657 C   0  0  0  0  0  0  0  0  0  0  0  0
   19.9169   -7.9581  -14.9256 C   0  0  0  0  0  0  0  0  0  0  0  0
   21.1980   -8.2513  -15.2860 N   0  0  0  0  0  0  0  0  0  0  0  0
   21.9247   -8.4463  -14.1957 C   0  0  0  0  0  0  0  0  0  0  0  0
   21.1229   -8.2814  -13.1564 N   0  0  0  0  0  0  0  0  0  0  0  0
   18.7312   -5.2393  -13.1950 C   0  0  0  0  0  0  0  0  0  0  0  0
   17.6150   -4.7747  -13.5045 O   0  0  0  0  0  0  0  0  0  0  0  0
   19.8298   -4.7912  -13.8551 O   0  0  0  0  0  0  0  0  0  0  0  0
  2  1  1  0
  3  2  1  0
  3  4  1  1
  5  3  1  0
  5  7  1  0
  5  6  1  6
  7  8  2  0
  9 10  1  0
 10 11  1  0
 11 12  1  0
 13 12  1  1
 13 15  1  0
 14 13  1  0
 14  7  1  0
 15 17  1  0
 15 16  2  0
 17 18  1  0
 18 25  1  0
 18 19  1  6
 20 24  1  0
 20 19  1  0
 21 20  2  0
 22 21  1  0
 22 23  1  0
 23 24  2  0
 25 26  2  0
 25 27  1  0
M  END
$$$$
