IMH.pdb
     RDKit          3D

 27 27  0  0  1  0  0  0  0  0999 V2000
   22.6840  -16.6498  -18.1044 C   0  0  0  0  0  0  0  0  0  0  0  0
   23.9892  -15.9862  -17.8233 C   0  0  0  0  0  0  0  0  0  0  0  0
   23.8108  -14.5684  -17.2638 C   0  0  2  0  0  0  0  0  0  0  0  0
   23.0412  -13.8330  -18.3438 C   0  0  0  0  0  0  0  0  0  0  0  0
   25.1741  -14.0090  -17.0742 C   0  0  2  0  0  0  0  0  0  0  0  0
   25.8914  -14.7866  -16.0547 N   0  0  0  0  0  0  0  0  0  0  0  0
   25.2987  -12.5988  -16.7381 C   0  0  0  0  0  0  0  0  0  0  0  0
   25.1167  -12.2237  -15.5142 O   0  0  0  0  0  0  0  0  0  0  0  0
   29.6632   -7.7617  -17.5963 C   0  0  0  0  0  0  0  0  0  0  0  0
   29.7493   -9.5730  -17.8507 S   0  0  0  0  0  0  0  0  0  0  0  0
   28.2109  -10.2671  -17.1534 C   0  0  0  0  0  0  0  0  0  0  0  0
   27.0110   -9.5454  -17.6617 C   0  0  0  0  0  0  0  0  0  0  0  0
   25.7364  -10.1262  -17.1438 C   0  0  2  0  0  0  0  0  0  0  0  0
   25.6094  -11.5245  -17.6085 N   0  0  0  0  0  0  0  0  0  0  0  0
   24.5040   -9.3787  -17.5070 C   0  0  0  0  0  0  0  0  0  0  0  0
   23.9228   -9.5485  -18.6082 O   0  0  0  0  0  0  0  0  0  0  0  0
   23.9381   -8.4350  -16.6053 N   0  0  0  0  0  0  0  0  0  0  0  0
   22.7055   -7.6811  -16.9205 C   0  0  1  0  0  0  0  0  0  0  0  0
   21.5897   -8.6565  -17.1026 C   0  0  0  0  0  0  0  0  0  0  0  0
   20.3009   -8.0480  -17.4319 C   0  0  0  0  0  0  0  0  0  0  0  0
   19.9678   -6.7526  -17.6839 C   0  0  0  0  0  0  0  0  0  0  0  0
   18.6468   -6.7274  -18.0174 N   0  0  0  0  0  0  0  0  0  0  0  0
   18.1631   -7.9601  -17.9792 C   0  0  0  0  0  0  0  0  0  0  0  0
   19.1566   -8.7595  -17.6271 N   0  0  0  0  0  0  0  0  0  0  0  0
   22.4667   -6.7646  -15.7433 C   0  0  0  0  0  0  0  0  0  0  0  0
   23.0278   -7.0412  -14.6634 O   0  0  0  0  0  0  0  0  0  0  0  0
   21.6737   -5.6642  -15.8030 O   0  0  0  0  0  0  0  0  0  0  0  0
  2  1  1  0
  3  2  1  0
  3  4  1  6
  5  3  1  0
  5  7  1  0
  5  6  1  1
  7  8  2  0
  9 10  1  0
 10 11  1  0
 11 12  1  0
 13 12  1  6
 13 15  1  0
 14 13  1  0
 14  7  1  0
 15 17  1  0
 15 16  2  0
 17 18  1  0
 18 25  1  0
 18 19  1  1
 20 24  1  0
 20 19  1  0
 21 20  2  0
 22 21  1  0
 22 23  1  0
 23 24  2  0
 25 26  2  0
 25 27  1  0
M  END
$$$$
