IMH.pdb
     RDKit          3D

 27 27  0  0  1  0  0  0  0  0999 V2000
   28.3020  -17.7739  -17.6866 C   0  0  0  0  0  0  0  0  0  0  0  0
   28.5383  -18.7534  -16.5878 C   0  0  0  0  0  0  0  0  0  0  0  0
   27.2364  -19.1656  -15.8877 C   0  0  2  0  0  0  0  0  0  0  0  0
   26.7179  -17.8801  -15.2729 C   0  0  0  0  0  0  0  0  0  0  0  0
   27.6054  -20.1666  -14.8537 C   0  0  2  0  0  0  0  0  0  0  0  0
   28.2327  -21.3312  -15.4930 N   0  0  0  0  0  0  0  0  0  0  0  0
   26.5637  -20.6482  -13.9592 C   0  0  0  0  0  0  0  0  0  0  0  0
   25.7491  -21.5625  -14.3744 O   0  0  0  0  0  0  0  0  0  0  0  0
   26.6314  -18.9770   -7.8778 C   0  0  0  0  0  0  0  0  0  0  0  0
   26.8041  -20.7849   -8.1121 S   0  0  0  0  0  0  0  0  0  0  0  0
   26.5720  -21.0999   -9.8958 C   0  0  0  0  0  0  0  0  0  0  0  0
   25.3444  -20.4303  -10.4095 C   0  0  0  0  0  0  0  0  0  0  0  0
   25.1225  -20.6879  -11.8636 C   0  0  2  0  0  0  0  0  0  0  0  0
   26.3050  -20.2358  -12.6284 N   0  0  0  0  0  0  0  0  0  0  0  0
   23.9024  -20.0647  -12.4402 C   0  0  0  0  0  0  0  0  0  0  0  0
   23.9441  -18.9772  -13.0688 O   0  0  0  0  0  0  0  0  0  0  0  0
   22.6330  -20.6901  -12.2951 N   0  0  0  0  0  0  0  0  0  0  0  0
   21.6802  -20.8155  -13.4191 C   0  0  1  0  0  0  0  0  0  0  0  0
   22.3664  -21.5202  -14.5425 C   0  0  0  0  0  0  0  0  0  0  0  0
   21.5679  -21.6361  -15.7627 C   0  0  0  0  0  0  0  0  0  0  0  0
   20.3368  -21.1434  -16.0697 C   0  0  0  0  0  0  0  0  0  0  0  0
   20.0783  -21.4682  -17.3676 N   0  0  0  0  0  0  0  0  0  0  0  0
   21.1073  -22.1395  -17.8631 C   0  0  0  0  0  0  0  0  0  0  0  0
   22.0078  -22.2427  -16.8994 N   0  0  0  0  0  0  0  0  0  0  0  0
   20.5109  -21.6098  -12.8857 C   0  0  0  0  0  0  0  0  0  0  0  0
   20.7537  -22.5715  -12.1283 O   0  0  0  0  0  0  0  0  0  0  0  0
   19.2177  -21.3312  -13.1917 O   0  0  0  0  0  0  0  0  0  0  0  0
  2  1  1  0
  3  2  1  0
  3  4  1  1
  5  3  1  0
  5  7  1  0
  5  6  1  6
  7  8  2  0
  9 10  1  0
 10 11  1  0
 11 12  1  0
 13 12  1  1
 13 15  1  0
 14 13  1  0
 14  7  1  0
 15 17  1  0
 15 16  2  0
 17 18  1  0
 18 25  1  0
 18 19  1  6
 20 24  1  0
 20 19  1  0
 21 20  2  0
 22 21  1  0
 22 23  1  0
 23 24  2  0
 25 26  2  0
 25 27  1  0
M  END
$$$$
