IMH.pdb
     RDKit          3D

 27 27  0  0  1  0  0  0  0  0999 V2000
   12.4431  -11.4217  -11.1337 C   0  0  0  0  0  0  0  0  0  0  0  0
   13.8876  -11.5306  -10.7811 C   0  0  0  0  0  0  0  0  0  0  0  0
   14.7704  -11.7624  -12.0148 C   0  0  2  0  0  0  0  0  0  0  0  0
   14.2870  -13.0844  -12.5789 C   0  0  0  0  0  0  0  0  0  0  0  0
   16.1717  -11.8451  -11.5283 C   0  0  2  0  0  0  0  0  0  0  0  0
   16.2985  -12.9501  -10.5683 N   0  0  0  0  0  0  0  0  0  0  0  0
   16.7645  -10.6576  -10.9318 C   0  0  0  0  0  0  0  0  0  0  0  0
   16.7355  -10.5157   -9.6469 O   0  0  0  0  0  0  0  0  0  0  0  0
   21.9544   -7.4865  -12.5398 C   0  0  0  0  0  0  0  0  0  0  0  0
   21.1241   -6.0113  -11.8418 S   0  0  0  0  0  0  0  0  0  0  0  0
   19.6437   -6.6186  -10.9619 C   0  0  0  0  0  0  0  0  0  0  0  0
   19.0615   -7.8111  -11.6390 C   0  0  0  0  0  0  0  0  0  0  0  0
   17.9075   -8.3857  -10.8853 C   0  0  2  0  0  0  0  0  0  0  0  0
   17.4032   -9.5809  -11.5957 N   0  0  0  0  0  0  0  0  0  0  0  0
   16.7777   -7.4504  -10.6434 C   0  0  0  0  0  0  0  0  0  0  0  0
   15.9529   -7.1559  -11.5447 O   0  0  0  0  0  0  0  0  0  0  0  0
   16.5946   -6.8524   -9.3657 N   0  0  0  0  0  0  0  0  0  0  0  0
   15.4391   -5.9821   -9.0584 C   0  0  1  0  0  0  0  0  0  0  0  0
   15.1076   -6.1324   -7.6102 C   0  0  0  0  0  0  0  0  0  0  0  0
   14.0664   -5.2243   -7.1297 C   0  0  0  0  0  0  0  0  0  0  0  0
   14.1568   -4.0439   -6.4581 C   0  0  0  0  0  0  0  0  0  0  0  0
   12.8923   -3.5560   -6.3165 N   0  0  0  0  0  0  0  0  0  0  0  0
   12.0350   -4.3951   -6.8784 C   0  0  0  0  0  0  0  0  0  0  0  0
   12.7382   -5.4020   -7.3702 N   0  0  0  0  0  0  0  0  0  0  0  0
   15.8776   -4.5757   -9.3934 C   0  0  0  0  0  0  0  0  0  0  0  0
   17.0967   -4.3143   -9.3383 O   0  0  0  0  0  0  0  0  0  0  0  0
   15.0145   -3.5887   -9.7458 O   0  0  0  0  0  0  0  0  0  0  0  0
  2  1  1  0
  3  2  1  0
  3  4  1  1
  5  3  1  0
  5  7  1  0
  5  6  1  1
  7  8  2  0
  9 10  1  0
 10 11  1  0
 11 12  1  0
 13 12  1  6
 13 15  1  0
 14 13  1  0
 14  7  1  0
 15 17  1  0
 15 16  2  0
 17 18  1  0
 18 25  1  0
 18 19  1  1
 20 24  1  0
 20 19  1  0
 21 20  2  0
 22 21  1  0
 22 23  1  0
 23 24  2  0
 25 26  2  0
 25 27  1  0
M  END
$$$$
