IMH.pdb
     RDKit          3D

 27 27  0  0  1  0  0  0  0  0999 V2000
   29.1225  -17.8447  -14.7567 C   0  0  0  0  0  0  0  0  0  0  0  0
   28.3083  -18.8710  -15.4685 C   0  0  0  0  0  0  0  0  0  0  0  0
   27.1210  -19.3566  -14.6263 C   0  0  2  0  0  0  0  0  0  0  0  0
   26.5868  -18.0980  -13.9703 C   0  0  0  0  0  0  0  0  0  0  0  0
   27.6669  -20.3137  -13.6296 C   0  0  2  0  0  0  0  0  0  0  0  0
   28.2477  -21.4722  -14.3217 N   0  0  0  0  0  0  0  0  0  0  0  0
   26.7764  -20.8075  -12.5902 C   0  0  0  0  0  0  0  0  0  0  0  0
   25.6953  -21.4305  -12.9295 O   0  0  0  0  0  0  0  0  0  0  0  0
   27.4042  -20.3441   -5.6403 C   0  0  0  0  0  0  0  0  0  0  0  0
   26.9281  -19.1887   -6.9787 S   0  0  0  0  0  0  0  0  0  0  0  0
   27.3695  -20.0072   -8.5503 C   0  0  0  0  0  0  0  0  0  0  0  0
   26.4452  -21.1359   -8.8522 C   0  0  0  0  0  0  0  0  0  0  0  0
   25.8677  -21.0458  -10.2264 C   0  0  2  0  0  0  0  0  0  0  0  0
   26.9373  -20.6974  -11.1866 N   0  0  0  0  0  0  0  0  0  0  0  0
   24.7431  -20.0861  -10.3811 C   0  0  0  0  0  0  0  0  0  0  0  0
   24.9338  -18.8788  -10.6734 O   0  0  0  0  0  0  0  0  0  0  0  0
   23.3981  -20.5125  -10.1999 N   0  0  0  0  0  0  0  0  0  0  0  0
   22.3265  -20.1795  -11.1631 C   0  0  1  0  0  0  0  0  0  0  0  0
   22.7275  -20.6873  -12.5088 C   0  0  0  0  0  0  0  0  0  0  0  0
   21.7272  -20.4828  -13.5563 C   0  0  0  0  0  0  0  0  0  0  0  0
   20.5442  -19.8099  -13.5367 C   0  0  0  0  0  0  0  0  0  0  0  0
   20.0280  -19.8533  -14.7971 N   0  0  0  0  0  0  0  0  0  0  0  0
   20.8538  -20.5268  -15.5842 C   0  0  0  0  0  0  0  0  0  0  0  0
   21.8796  -20.9077  -14.8407 N   0  0  0  0  0  0  0  0  0  0  0  0
   21.0804  -20.8631  -10.6509 C   0  0  0  0  0  0  0  0  0  0  0  0
   21.1988  -21.6534   -9.6921 O   0  0  0  0  0  0  0  0  0  0  0  0
   19.8472  -20.6629  -11.1822 O   0  0  0  0  0  0  0  0  0  0  0  0
  2  1  1  0
  3  2  1  0
  3  4  1  1
  5  3  1  0
  5  7  1  0
  5  6  1  6
  7  8  2  0
  9 10  1  0
 10 11  1  0
 11 12  1  0
 13 12  1  1
 13 15  1  0
 14 13  1  0
 14  7  1  0
 15 17  1  0
 15 16  2  0
 17 18  1  0
 18 25  1  0
 18 19  1  6
 20 24  1  0
 20 19  1  0
 21 20  2  0
 22 21  1  0
 22 23  1  0
 23 24  2  0
 25 26  2  0
 25 27  1  0
M  END
$$$$
