IMH.pdb
     RDKit          3D

 27 27  0  0  1  0  0  0  0  0999 V2000
   17.7421  -16.1654  -19.4036 C   0  0  0  0  0  0  0  0  0  0  0  0
   19.0964  -16.3184  -18.7994 C   0  0  0  0  0  0  0  0  0  0  0  0
   19.4532  -15.1497  -17.8712 C   0  0  2  0  0  0  0  0  0  0  0  0
   19.5261  -13.9475  -18.7926 C   0  0  0  0  0  0  0  0  0  0  0  0
   20.7735  -15.4692  -17.2695 C   0  0  2  0  0  0  0  0  0  0  0  0
   20.6818  -16.7243  -16.5112 N   0  0  0  0  0  0  0  0  0  0  0  0
   21.4013  -14.4708  -16.4173 C   0  0  0  0  0  0  0  0  0  0  0  0
   21.0286  -14.3707  -15.1832 O   0  0  0  0  0  0  0  0  0  0  0  0
   26.9634  -15.6827  -14.3130 C   0  0  0  0  0  0  0  0  0  0  0  0
   26.6017  -14.0671  -15.0955 S   0  0  0  0  0  0  0  0  0  0  0  0
   24.7848  -13.8844  -15.0891 C   0  0  0  0  0  0  0  0  0  0  0  0
   24.3680  -12.5874  -15.6920 C   0  0  0  0  0  0  0  0  0  0  0  0
   22.8868  -12.4849  -15.8521 C   0  0  2  0  0  0  0  0  0  0  0  0
   22.4171  -13.5471  -16.7679 N   0  0  0  0  0  0  0  0  0  0  0  0
   22.3897  -11.1702  -16.3359 C   0  0  0  0  0  0  0  0  0  0  0  0
   22.1520  -10.9547  -17.5510 O   0  0  0  0  0  0  0  0  0  0  0  0
   22.1655  -10.1015  -15.4242 N   0  0  0  0  0  0  0  0  0  0  0  0
   21.5559   -8.8205  -15.8419 C   0  0  1  0  0  0  0  0  0  0  0  0
   20.1619   -9.0902  -16.3041 C   0  0  0  0  0  0  0  0  0  0  0  0
   19.4038   -7.8947  -16.6724 C   0  0  0  0  0  0  0  0  0  0  0  0
   19.7790   -6.5877  -16.7330 C   0  0  0  0  0  0  0  0  0  0  0  0
   18.7174   -5.8792  -17.2106 N   0  0  0  0  0  0  0  0  0  0  0  0
   17.7097   -6.7066  -17.4444 C   0  0  0  0  0  0  0  0  0  0  0  0
   18.1190   -7.9227  -17.1218 N   0  0  0  0  0  0  0  0  0  0  0  0
   21.5830   -7.9302  -14.6217 C   0  0  0  0  0  0  0  0  0  0  0  0
   21.1291   -6.7728  -14.7318 O   0  0  0  0  0  0  0  0  0  0  0  0
   22.0773   -8.3251  -13.4203 O   0  0  0  0  0  0  0  0  0  0  0  0
  2  1  1  0
  3  2  1  0
  3  4  1  6
  5  3  1  0
  5  7  1  0
  5  6  1  1
  7  8  2  0
  9 10  1  0
 10 11  1  0
 11 12  1  0
 13 12  1  6
 13 15  1  0
 14 13  1  0
 14  7  1  0
 15 17  1  0
 15 16  2  0
 17 18  1  0
 18 25  1  0
 18 19  1  1
 20 24  1  0
 20 19  1  0
 21 20  2  0
 22 21  1  0
 22 23  1  0
 23 24  2  0
 25 26  2  0
 25 27  1  0
M  END
$$$$
