IMH.pdb
     RDKit          3D

 27 27  0  0  1  0  0  0  0  0999 V2000
   26.2885  -25.3114  -17.1115 C   0  0  0  0  0  0  0  0  0  0  0  0
   27.3139  -26.2106  -17.7138 C   0  0  0  0  0  0  0  0  0  0  0  0
   26.9674  -27.6937  -17.5261 C   0  0  2  0  0  0  0  0  0  0  0  0
   26.9659  -27.8912  -16.0225 C   0  0  0  0  0  0  0  0  0  0  0  0
   28.0464  -28.4719  -18.1875 C   0  0  2  0  0  0  0  0  0  0  0  0
   27.9444  -28.3201  -19.6453 N   0  0  0  0  0  0  0  0  0  0  0  0
   28.1545  -29.8915  -17.8871 C   0  0  0  0  0  0  0  0  0  0  0  0
   27.2087  -30.6893  -18.2622 O   0  0  0  0  0  0  0  0  0  0  0  0
   32.1165  -33.7216  -21.0755 C   0  0  0  0  0  0  0  0  0  0  0  0
   32.1026  -33.6473  -19.2459 S   0  0  0  0  0  0  0  0  0  0  0  0
   30.6038  -32.7154  -18.7773 C   0  0  0  0  0  0  0  0  0  0  0  0
   30.4577  -32.6319  -17.2971 C   0  0  0  0  0  0  0  0  0  0  0  0
   29.1682  -31.9996  -16.8879 C   0  0  2  0  0  0  0  0  0  0  0  0
   29.2058  -30.5561  -17.2080 N   0  0  0  0  0  0  0  0  0  0  0  0
   28.8021  -32.1716  -15.4575 C   0  0  0  0  0  0  0  0  0  0  0  0
   29.3073  -31.4624  -14.5513 O   0  0  0  0  0  0  0  0  0  0  0  0
   27.8554  -33.1589  -15.0668 N   0  0  0  0  0  0  0  0  0  0  0  0
   27.4997  -33.3968  -13.6512 C   0  0  1  0  0  0  0  0  0  0  0  0
   26.4246  -32.4343  -13.2670 C   0  0  0  0  0  0  0  0  0  0  0  0
   25.8232  -32.6887  -11.9581 C   0  0  0  0  0  0  0  0  0  0  0  0
   26.1298  -33.6081  -11.0024 C   0  0  0  0  0  0  0  0  0  0  0  0
   25.3174  -33.3736   -9.9337 N   0  0  0  0  0  0  0  0  0  0  0  0
   24.5281  -32.3442  -10.2027 C   0  0  0  0  0  0  0  0  0  0  0  0
   24.8298  -31.9278  -11.4217 N   0  0  0  0  0  0  0  0  0  0  0  0
   27.0265  -34.8297  -13.5769 C   0  0  0  0  0  0  0  0  0  0  0  0
   26.7478  -35.2962  -12.4535 O   0  0  0  0  0  0  0  0  0  0  0  0
   26.8942  -35.6294  -14.6661 O   0  0  0  0  0  0  0  0  0  0  0  0
  2  1  1  0
  3  2  1  0
  3  4  1  1
  5  3  1  0
  5  7  1  0
  5  6  1  6
  7  8  2  0
  9 10  1  0
 10 11  1  0
 11 12  1  0
 13 12  1  1
 13 15  1  0
 14 13  1  0
 14  7  1  0
 15 17  1  0
 15 16  2  0
 17 18  1  0
 18 25  1  0
 18 19  1  6
 20 24  1  0
 20 19  1  0
 21 20  2  0
 22 21  1  0
 22 23  1  0
 23 24  2  0
 25 26  2  0
 25 27  1  0
M  END
$$$$
