IMH.pdb
     RDKit          3D

 27 27  0  0  1  0  0  0  0  0999 V2000
   27.9938  -19.8897   -3.5890 C   0  0  0  0  0  0  0  0  0  0  0  0
   26.9853  -19.9258   -4.6864 C   0  0  0  0  0  0  0  0  0  0  0  0
   27.6375  -19.9001   -6.0752 C   0  0  2  0  0  0  0  0  0  0  0  0
   28.4422  -18.6149   -6.0880 C   0  0  0  0  0  0  0  0  0  0  0  0
   26.5314  -19.8729   -7.0666 C   0  0  2  0  0  0  0  0  0  0  0  0
   25.5791  -20.9534   -6.7763 N   0  0  0  0  0  0  0  0  0  0  0  0
   26.8720  -19.9379   -8.4798 C   0  0  0  0  0  0  0  0  0  0  0  0
   26.9207  -18.8442   -9.1677 O   0  0  0  0  0  0  0  0  0  0  0  0
   32.0407  -22.2241   -9.3060 C   0  0  0  0  0  0  0  0  0  0  0  0
   31.8457  -22.2073  -11.1266 S   0  0  0  0  0  0  0  0  0  0  0  0
   30.1912  -21.5117  -11.4633 C   0  0  0  0  0  0  0  0  0  0  0  0
   29.3639  -21.4567  -10.2257 C   0  0  0  0  0  0  0  0  0  0  0  0
   27.9571  -21.0377  -10.5005 C   0  0  2  0  0  0  0  0  0  0  0  0
   27.1751  -21.0907   -9.2462 N   0  0  0  0  0  0  0  0  0  0  0  0
   27.2529  -21.8243  -11.5468 C   0  0  0  0  0  0  0  0  0  0  0  0
   27.0996  -23.0682  -11.4540 O   0  0  0  0  0  0  0  0  0  0  0  0
   26.7242  -21.1827  -12.7011 N   0  0  0  0  0  0  0  0  0  0  0  0
   25.2885  -21.2415  -13.0506 C   0  0  1  0  0  0  0  0  0  0  0  0
   24.5058  -20.6352  -11.9328 C   0  0  0  0  0  0  0  0  0  0  0  0
   23.0654  -20.5565  -12.1748 C   0  0  0  0  0  0  0  0  0  0  0  0
   22.3020  -21.0768  -13.1744 C   0  0  0  0  0  0  0  0  0  0  0  0
   21.0020  -20.7811  -12.8925 N   0  0  0  0  0  0  0  0  0  0  0  0
   20.9451  -20.1008  -11.7572 C   0  0  0  0  0  0  0  0  0  0  0  0
   22.1864  -19.9634  -11.3207 N   0  0  0  0  0  0  0  0  0  0  0  0
   25.1406  -20.4565  -14.3330 C   0  0  0  0  0  0  0  0  0  0  0  0
   24.4682  -20.9626  -15.2545 O   0  0  0  0  0  0  0  0  0  0  0  0
   25.7033  -19.2367  -14.5305 O   0  0  0  0  0  0  0  0  0  0  0  0
  2  1  1  0
  3  2  1  0
  3  4  1  1
  5  3  1  0
  5  7  1  0
  5  6  1  1
  7  8  2  0
  9 10  1  0
 10 11  1  0
 11 12  1  0
 13 12  1  1
 13 15  1  0
 14 13  1  0
 14  7  1  0
 15 17  1  0
 15 16  2  0
 17 18  1  0
 18 25  1  0
 18 19  1  1
 20 24  1  0
 20 19  1  0
 21 20  2  0
 22 21  1  0
 22 23  1  0
 23 24  2  0
 25 26  2  0
 25 27  1  0
M  END
$$$$
