IMH.pdb
     RDKit          3D

 27 27  0  0  1  0  0  0  0  0999 V2000
   30.2984  -13.2760  -16.5341 C   0  0  0  0  0  0  0  0  0  0  0  0
   29.0442  -12.8977  -17.2458 C   0  0  0  0  0  0  0  0  0  0  0  0
   28.2392  -11.8390  -16.4802 C   0  0  2  0  0  0  0  0  0  0  0  0
   27.7436  -12.5654  -15.2448 C   0  0  0  0  0  0  0  0  0  0  0  0
   27.1216  -11.4270  -17.3682 C   0  0  2  0  0  0  0  0  0  0  0  0
   27.5803  -11.4039  -18.7638 N   0  0  0  0  0  0  0  0  0  0  0  0
   26.4518  -10.1652  -17.0914 C   0  0  0  0  0  0  0  0  0  0  0  0
   25.7113  -10.0624  -16.0364 O   0  0  0  0  0  0  0  0  0  0  0  0
   25.0860   -5.5538  -22.3752 C   0  0  0  0  0  0  0  0  0  0  0  0
   26.0821   -5.4008  -20.8463 S   0  0  0  0  0  0  0  0  0  0  0  0
   25.6057   -6.8017  -19.7761 C   0  0  0  0  0  0  0  0  0  0  0  0
   26.1393   -6.6353  -18.3952 C   0  0  0  0  0  0  0  0  0  0  0  0
   25.7407   -7.7562  -17.4928 C   0  0  2  0  0  0  0  0  0  0  0  0
   26.5017   -8.9719  -17.8540 N   0  0  0  0  0  0  0  0  0  0  0  0
   24.2891   -8.0763  -17.4805 C   0  0  0  0  0  0  0  0  0  0  0  0
   23.7362   -8.6960  -18.4238 O   0  0  0  0  0  0  0  0  0  0  0  0
   23.4711   -7.6846  -16.3846 N   0  0  0  0  0  0  0  0  0  0  0  0
   22.0203   -7.9676  -16.3399 C   0  0  1  0  0  0  0  0  0  0  0  0
   21.8095   -9.2284  -15.5682 C   0  0  0  0  0  0  0  0  0  0  0  0
   20.4120   -9.5132  -15.2431 C   0  0  0  0  0  0  0  0  0  0  0  0
   19.2610   -8.9378  -15.6866 C   0  0  0  0  0  0  0  0  0  0  0  0
   18.2213   -9.6252  -15.1356 N   0  0  0  0  0  0  0  0  0  0  0  0
   18.6966  -10.5992  -14.3739 C   0  0  0  0  0  0  0  0  0  0  0  0
   20.0166  -10.5358  -14.4359 N   0  0  0  0  0  0  0  0  0  0  0  0
   21.3856   -6.7773  -15.6595 C   0  0  0  0  0  0  0  0  0  0  0  0
   22.0426   -6.1894  -14.7762 O   0  0  0  0  0  0  0  0  0  0  0  0
   20.1420   -6.3220  -15.9588 O   0  0  0  0  0  0  0  0  0  0  0  0
  2  1  1  0
  3  2  1  0
  3  4  1  1
  5  3  1  0
  5  7  1  0
  5  6  1  6
  7  8  2  0
  9 10  1  0
 10 11  1  0
 11 12  1  0
 13 12  1  6
 13 15  1  0
 14 13  1  0
 14  7  1  0
 15 17  1  0
 15 16  2  0
 17 18  1  0
 18 25  1  0
 18 19  1  1
 20 24  1  0
 20 19  1  0
 21 20  2  0
 22 21  1  0
 22 23  1  0
 23 24  2  0
 25 26  2  0
 25 27  1  0
M  END
$$$$
