IMH.pdb
     RDKit          3D

 27 27  0  0  1  0  0  0  0  0999 V2000
   26.6205  -17.3688  -18.4771 C   0  0  0  0  0  0  0  0  0  0  0  0
   27.5970  -18.3437  -17.9126 C   0  0  0  0  0  0  0  0  0  0  0  0
   27.1341  -18.9153  -16.5658 C   0  0  2  0  0  0  0  0  0  0  0  0
   27.1680  -17.7281  -15.6229 C   0  0  0  0  0  0  0  0  0  0  0  0
   28.1206  -19.9579  -16.1821 C   0  0  2  0  0  0  0  0  0  0  0  0
   28.0871  -21.0550  -17.1586 N   0  0  0  0  0  0  0  0  0  0  0  0
   28.0285  -20.5354  -14.8497 C   0  0  0  0  0  0  0  0  0  0  0  0
   27.0996  -21.3993  -14.5996 O   0  0  0  0  0  0  0  0  0  0  0  0
   32.3970  -22.3867  -10.5258 C   0  0  0  0  0  0  0  0  0  0  0  0
   31.2378  -21.6009   -9.3461 S   0  0  0  0  0  0  0  0  0  0  0  0
   29.6504  -21.4118  -10.2287 C   0  0  0  0  0  0  0  0  0  0  0  0
   29.8562  -20.8915  -11.6094 C   0  0  0  0  0  0  0  0  0  0  0  0
   28.5809  -20.8098  -12.3820 C   0  0  2  0  0  0  0  0  0  0  0  0
   28.8579  -20.2715  -13.7314 N   0  0  0  0  0  0  0  0  0  0  0  0
   27.5046  -20.0040  -11.7479 C   0  0  0  0  0  0  0  0  0  0  0  0
   27.3090  -18.7999  -12.0499 O   0  0  0  0  0  0  0  0  0  0  0  0
   26.6520  -20.5809  -10.7661 N   0  0  0  0  0  0  0  0  0  0  0  0
   25.2038  -20.2875  -10.7058 C   0  0  1  0  0  0  0  0  0  0  0  0
   24.5758  -20.7483  -11.9798 C   0  0  0  0  0  0  0  0  0  0  0  0
   23.1207  -20.6060  -12.0240 C   0  0  0  0  0  0  0  0  0  0  0  0
   22.2510  -20.0789  -11.1193 C   0  0  0  0  0  0  0  0  0  0  0  0
   21.0085  -20.1140  -11.6779 N   0  0  0  0  0  0  0  0  0  0  0  0
   21.0895  -20.6418  -12.8903 C   0  0  0  0  0  0  0  0  0  0  0  0
   22.3608  -20.9395  -13.1034 N   0  0  0  0  0  0  0  0  0  0  0  0
   24.6758  -21.0458   -9.5105 C   0  0  0  0  0  0  0  0  0  0  0  0
   23.6764  -20.5862   -8.9209 O   0  0  0  0  0  0  0  0  0  0  0  0
   25.2348  -22.1936   -9.0483 O   0  0  0  0  0  0  0  0  0  0  0  0
  2  1  1  0
  3  2  1  0
  3  4  1  1
  5  3  1  0
  5  7  1  0
  5  6  1  6
  7  8  2  0
  9 10  1  0
 10 11  1  0
 11 12  1  0
 13 12  1  1
 13 15  1  0
 14 13  1  0
 14  7  1  0
 15 17  1  0
 15 16  2  0
 17 18  1  0
 18 25  1  0
 18 19  1  6
 20 24  1  0
 20 19  1  0
 21 20  2  0
 22 21  1  0
 22 23  1  0
 23 24  2  0
 25 26  2  0
 25 27  1  0
M  END
$$$$
