IMH.pdb
     RDKit          3D

 27 27  0  0  1  0  0  0  0  0999 V2000
   19.3602  -22.2369  -16.1155 C   0  0  0  0  0  0  0  0  0  0  0  0
   19.8525  -22.3273  -14.7111 C   0  0  0  0  0  0  0  0  0  0  0  0
   21.0573  -21.4111  -14.4582 C   0  0  2  0  0  0  0  0  0  0  0  0
   22.1195  -21.9152  -15.4158 C   0  0  0  0  0  0  0  0  0  0  0  0
   21.4515  -21.6051  -13.0389 C   0  0  2  0  0  0  0  0  0  0  0  0
   20.3364  -21.2296  -12.1592 N   0  0  0  0  0  0  0  0  0  0  0  0
   22.6509  -20.9349  -12.5600 C   0  0  0  0  0  0  0  0  0  0  0  0
   22.6853  -19.6425  -12.5386 O   0  0  0  0  0  0  0  0  0  0  0  0
   26.4530  -19.6973   -7.5216 C   0  0  0  0  0  0  0  0  0  0  0  0
   27.5089  -20.7684   -8.5661 S   0  0  0  0  0  0  0  0  0  0  0  0
   26.9884  -20.4821  -10.2928 C   0  0  0  0  0  0  0  0  0  0  0  0
   25.7649  -21.2634  -10.6271 C   0  0  0  0  0  0  0  0  0  0  0  0
   25.0910  -20.7635  -11.8625 C   0  0  2  0  0  0  0  0  0  0  0  0
   23.8468  -21.5307  -12.0878 N   0  0  0  0  0  0  0  0  0  0  0  0
   25.9177  -20.8031  -13.0972 C   0  0  0  0  0  0  0  0  0  0  0  0
   26.1420  -21.8749  -13.7139 O   0  0  0  0  0  0  0  0  0  0  0  0
   26.4878  -19.6113  -13.6247 N   0  0  0  0  0  0  0  0  0  0  0  0
   26.9426  -19.5060  -15.0279 C   0  0  1  0  0  0  0  0  0  0  0  0
   26.4894  -20.7241  -15.7630 C   0  0  0  0  0  0  0  0  0  0  0  0
   27.4904  -21.7874  -15.8487 C   0  0  0  0  0  0  0  0  0  0  0  0
   28.8479  -21.7395  -15.7617 C   0  0  0  0  0  0  0  0  0  0  0  0
   29.3073  -23.0208  -15.8268 N   0  0  0  0  0  0  0  0  0  0  0  0
   28.2795  -23.8476  -15.9489 C   0  0  0  0  0  0  0  0  0  0  0  0
   27.1822  -23.1086  -15.9621 N   0  0  0  0  0  0  0  0  0  0  0  0
   26.3098  -18.2485  -15.5764 C   0  0  0  0  0  0  0  0  0  0  0  0
   26.5350  -17.9519  -16.7676 O   0  0  0  0  0  0  0  0  0  0  0  0
   25.5162  -17.4297  -14.8395 O   0  0  0  0  0  0  0  0  0  0  0  0
  2  1  1  0
  3  2  1  0
  3  4  1  6
  5  3  1  0
  5  7  1  0
  5  6  1  1
  7  8  2  0
  9 10  1  0
 10 11  1  0
 11 12  1  0
 13 12  1  1
 13 15  1  0
 14 13  1  0
 14  7  1  0
 15 17  1  0
 15 16  2  0
 17 18  1  0
 18 25  1  0
 18 19  1  6
 20 24  1  0
 20 19  1  0
 21 20  2  0
 22 21  1  0
 22 23  1  0
 23 24  2  0
 25 26  2  0
 25 27  1  0
M  END
$$$$
