IMH.pdb
     RDKit          3D

 27 27  0  0  1  0  0  0  0  0999 V2000
   18.3240  -13.6983    1.2631 C   0  0  0  0  0  0  0  0  0  0  0  0
   17.2116  -14.5592    1.7573 C   0  0  0  0  0  0  0  0  0  0  0  0
   17.3243  -14.8470    3.2605 C   0  0  2  0  0  0  0  0  0  0  0  0
   18.6274  -15.6100    3.3997 C   0  0  0  0  0  0  0  0  0  0  0  0
   16.1503  -15.6814    3.6251 C   0  0  2  0  0  0  0  0  0  0  0  0
   14.9159  -14.9051    3.4460 N   0  0  0  0  0  0  0  0  0  0  0  0
   16.1182  -16.2828    4.9497 C   0  0  0  0  0  0  0  0  0  0  0  0
   15.5992  -15.6198    5.9310 O   0  0  0  0  0  0  0  0  0  0  0  0
   17.1281  -22.0530   10.1389 C   0  0  0  0  0  0  0  0  0  0  0  0
   17.2347  -21.6590    8.3538 S   0  0  0  0  0  0  0  0  0  0  0  0
   17.3580  -19.8411    8.2317 C   0  0  0  0  0  0  0  0  0  0  0  0
   17.1878  -19.3792    6.8257 C   0  0  0  0  0  0  0  0  0  0  0  0
   16.8846  -17.9195    6.7396 C   0  0  2  0  0  0  0  0  0  0  0  0
   16.5988  -17.5593    5.3339 N   0  0  0  0  0  0  0  0  0  0  0  0
   17.9429  -17.0188    7.2674 C   0  0  0  0  0  0  0  0  0  0  0  0
   18.8217  -16.5164    6.5226 O   0  0  0  0  0  0  0  0  0  0  0  0
   17.9927  -16.6945    8.6516 N   0  0  0  0  0  0  0  0  0  0  0  0
   18.8364  -15.5996    9.1773 C   0  0  1  0  0  0  0  0  0  0  0  0
   18.3295  -14.3077    8.6262 C   0  0  0  0  0  0  0  0  0  0  0  0
   19.3723  -13.4105    8.1290 C   0  0  0  0  0  0  0  0  0  0  0  0
   20.7191  -13.5811    8.0301 C   0  0  0  0  0  0  0  0  0  0  0  0
   21.2285  -12.4719    7.4243 N   0  0  0  0  0  0  0  0  0  0  0  0
   20.2415  -11.6323    7.1492 C   0  0  0  0  0  0  0  0  0  0  0  0
   19.1207  -12.1940    7.5718 N   0  0  0  0  0  0  0  0  0  0  0  0
   18.7066  -15.6606   10.6813 C   0  0  0  0  0  0  0  0  0  0  0  0
   17.6497  -16.1214   11.1590 O   0  0  0  0  0  0  0  0  0  0  0  0
   19.6767  -15.2379   11.5319 O   0  0  0  0  0  0  0  0  0  0  0  0
  2  1  1  0
  3  2  1  0
  3  4  1  6
  5  3  1  0
  5  7  1  0
  5  6  1  1
  7  8  2  0
  9 10  1  0
 10 11  1  0
 11 12  1  0
 13 12  1  6
 13 15  1  0
 14 13  1  0
 14  7  1  0
 15 17  1  0
 15 16  2  0
 17 18  1  0
 18 25  1  0
 18 19  1  6
 20 24  1  0
 20 19  1  0
 21 20  2  0
 22 21  1  0
 22 23  1  0
 23 24  2  0
 25 26  2  0
 25 27  1  0
M  END
$$$$
