IMH.pdb
     RDKit          3D

 27 27  0  0  1  0  0  0  0  0999 V2000
   28.3850  -18.0388  -18.0577 C   0  0  0  0  0  0  0  0  0  0  0  0
   28.5393  -18.8168  -16.7953 C   0  0  0  0  0  0  0  0  0  0  0  0
   27.2137  -19.4320  -16.3269 C   0  0  2  0  0  0  0  0  0  0  0  0
   26.3467  -18.2367  -15.9817 C   0  0  0  0  0  0  0  0  0  0  0  0
   27.5243  -20.2570  -15.1310 C   0  0  2  0  0  0  0  0  0  0  0  0
   28.3691  -21.3945  -15.5195 N   0  0  0  0  0  0  0  0  0  0  0  0
   26.4147  -20.7672  -14.3398 C   0  0  0  0  0  0  0  0  0  0  0  0
   25.7572  -21.7959  -14.7655 O   0  0  0  0  0  0  0  0  0  0  0  0
   26.3347  -19.8813   -7.7433 C   0  0  0  0  0  0  0  0  0  0  0  0
   27.0933  -20.4293   -9.3172 S   0  0  0  0  0  0  0  0  0  0  0  0
   25.8231  -21.4083  -10.1905 C   0  0  0  0  0  0  0  0  0  0  0  0
   24.8776  -20.5297  -10.9344 C   0  0  0  0  0  0  0  0  0  0  0  0
   24.7937  -20.8826  -12.3830 C   0  0  2  0  0  0  0  0  0  0  0  0
   25.9306  -20.2702  -13.1042 N   0  0  0  0  0  0  0  0  0  0  0  0
   23.5259  -20.4993  -13.0578 C   0  0  0  0  0  0  0  0  0  0  0  0
   23.2044  -19.2977  -13.2375 O   0  0  0  0  0  0  0  0  0  0  0  0
   22.6259  -21.4962  -13.5267 N   0  0  0  0  0  0  0  0  0  0  0  0
   21.3189  -21.1601  -14.1314 C   0  0  1  0  0  0  0  0  0  0  0  0
   20.9690  -22.2237  -15.1194 C   0  0  0  0  0  0  0  0  0  0  0  0
   19.6862  -22.0256  -15.7939 C   0  0  0  0  0  0  0  0  0  0  0  0
   18.9071  -20.9161  -15.9143 C   0  0  0  0  0  0  0  0  0  0  0  0
   17.8502  -21.2429  -16.7102 N   0  0  0  0  0  0  0  0  0  0  0  0
   17.9576  -22.5103  -17.0801 C   0  0  0  0  0  0  0  0  0  0  0  0
   19.0630  -22.9861  -16.5306 N   0  0  0  0  0  0  0  0  0  0  0  0
   20.3333  -21.1069  -12.9875 C   0  0  0  0  0  0  0  0  0  0  0  0
   19.2981  -20.4263  -13.1384 O   0  0  0  0  0  0  0  0  0  0  0  0
   20.5204  -21.7569  -11.8103 O   0  0  0  0  0  0  0  0  0  0  0  0
  2  1  1  0
  3  2  1  0
  3  4  1  1
  5  3  1  0
  5  7  1  0
  5  6  1  6
  7  8  2  0
  9 10  1  0
 10 11  1  0
 11 12  1  0
 13 12  1  1
 13 15  1  0
 14 13  1  0
 14  7  1  0
 15 17  1  0
 15 16  2  0
 17 18  1  0
 18 25  1  0
 18 19  1  6
 20 24  1  0
 20 19  1  0
 21 20  2  0
 22 21  1  0
 22 23  1  0
 23 24  2  0
 25 26  2  0
 25 27  1  0
M  END
$$$$
