IMH.pdb
     RDKit          3D

 27 27  0  0  1  0  0  0  0  0999 V2000
   30.1041  -17.9514  -15.4986 C   0  0  0  0  0  0  0  0  0  0  0  0
   28.6958  -18.3216  -15.1782 C   0  0  0  0  0  0  0  0  0  0  0  0
   28.0000  -19.0266  -16.3502 C   0  0  2  0  0  0  0  0  0  0  0  0
   27.9997  -17.9951  -17.4617 C   0  0  0  0  0  0  0  0  0  0  0  0
   26.6239  -19.3542  -15.8959 C   0  0  2  0  0  0  0  0  0  0  0  0
   25.8494  -18.1169  -15.7295 N   0  0  0  0  0  0  0  0  0  0  0  0
   26.4692  -20.1505  -14.6879 C   0  0  0  0  0  0  0  0  0  0  0  0
   26.6753  -21.4258  -14.7425 O   0  0  0  0  0  0  0  0  0  0  0  0
   27.4369  -20.5546   -8.5237 C   0  0  0  0  0  0  0  0  0  0  0  0
   25.6246  -20.7613   -8.3627 S   0  0  0  0  0  0  0  0  0  0  0  0
   24.9820  -21.0257  -10.0514 C   0  0  0  0  0  0  0  0  0  0  0  0
   25.7876  -20.2831  -11.0608 C   0  0  0  0  0  0  0  0  0  0  0  0
   25.3068  -20.5165  -12.4552 C   0  0  2  0  0  0  0  0  0  0  0  0
   26.1077  -19.7007  -13.3937 N   0  0  0  0  0  0  0  0  0  0  0  0
   23.8634  -20.2444  -12.6833 C   0  0  0  0  0  0  0  0  0  0  0  0
   23.4204  -19.0769  -12.8246 O   0  0  0  0  0  0  0  0  0  0  0  0
   22.9273  -21.3136  -12.7490 N   0  0  0  0  0  0  0  0  0  0  0  0
   21.5349  -21.1183  -13.2072 C   0  0  1  0  0  0  0  0  0  0  0  0
   21.4535  -21.5062  -14.6468 C   0  0  0  0  0  0  0  0  0  0  0  0
   21.5294  -20.3838  -15.5818 C   0  0  0  0  0  0  0  0  0  0  0  0
   21.7014  -19.0519  -15.3599 C   0  0  0  0  0  0  0  0  0  0  0  0
   21.7814  -18.4417  -16.5758 N   0  0  0  0  0  0  0  0  0  0  0  0
   21.6658  -19.3530  -17.5302 C   0  0  0  0  0  0  0  0  0  0  0  0
   21.5142  -20.5252  -16.9358 N   0  0  0  0  0  0  0  0  0  0  0  0
   20.6816  -22.0087  -12.3344 C   0  0  0  0  0  0  0  0  0  0  0  0
   21.0500  -23.1891  -12.1658 O   0  0  0  0  0  0  0  0  0  0  0  0
   19.5395  -21.5897  -11.7316 O   0  0  0  0  0  0  0  0  0  0  0  0
  2  1  1  0
  3  2  1  0
  3  4  1  6
  5  3  1  0
  5  7  1  0
  5  6  1  1
  7  8  2  0
  9 10  1  0
 10 11  1  0
 11 12  1  0
 13 12  1  1
 13 15  1  0
 14 13  1  0
 14  7  1  0
 15 17  1  0
 15 16  2  0
 17 18  1  0
 18 25  1  0
 18 19  1  6
 20 24  1  0
 20 19  1  0
 21 20  2  0
 22 21  1  0
 22 23  1  0
 23 24  2  0
 25 26  2  0
 25 27  1  0
M  END
$$$$
