LVK.pdb
     RDKit          3D

 25 24  0  0  1  0  0  0  0  0999 V2000
   29.5248  -20.8909  -18.1584 C   0  0  0  0  0  0  0  0  0  0  0  0
   28.9757  -20.0856  -16.9921 C   0  0  1  0  0  0  0  0  0  0  0  0
   28.4696  -18.7406  -17.4238 C   0  0  0  0  0  0  0  0  0  0  0  0
   27.9785  -20.8641  -16.1920 C   0  0  0  0  0  0  0  0  0  0  0  0
   27.4159  -20.0671  -15.0346 C   0  0  2  0  0  0  0  0  0  0  0  0
   28.4398  -19.7160  -14.0761 N   0  0  0  0  0  0  0  0  0  0  0  0
   26.3494  -20.8124  -14.3285 C   0  0  0  0  0  0  0  0  0  0  0  0
   25.6577  -21.7109  -14.9186 O   0  0  0  0  0  0  0  0  0  0  0  0
   24.6345  -19.7645  -10.3304 C   0  0  0  0  0  0  0  0  0  0  0  0
   25.1015  -21.0924  -10.8252 C   0  0  2  0  0  0  0  0  0  0  0  0
   26.5997  -21.2780  -10.5680 C   0  0  0  0  0  0  0  0  0  0  0  0
   24.9139  -21.2643  -12.3261 C   0  0  2  0  0  0  0  0  0  0  0  0
   26.0253  -20.5823  -12.9611 N   0  0  0  0  0  0  0  0  0  0  0  0
   23.6118  -20.7244  -12.7751 C   0  0  0  0  0  0  0  0  0  0  0  0
   23.4651  -19.4779  -12.8223 O   0  0  0  0  0  0  0  0  0  0  0  0
   22.5671  -21.6078  -13.1391 N   0  0  0  0  0  0  0  0  0  0  0  0
   21.2575  -21.1068  -13.5900 C   0  0  1  0  0  0  0  0  0  0  0  0
   20.6988  -21.9305  -14.6776 C   0  0  0  0  0  0  0  0  0  0  0  0
   19.3481  -21.6314  -15.1845 C   0  0  0  0  0  0  0  0  0  0  0  0
   18.8429  -22.5031  -16.3013 C   0  0  0  0  0  0  0  0  0  0  0  0
   17.4677  -22.0753  -16.7730 C   0  0  0  0  0  0  0  0  0  0  0  0
   17.0780  -22.9109  -17.8849 N   0  0  0  0  0  0  0  0  0  0  0  0
   20.4556  -20.8117  -12.4216 C   0  0  0  0  0  0  0  0  0  0  0  0
   19.5171  -19.7929  -12.4780 O   0  0  0  0  0  0  0  0  0  0  0  0
   20.5273  -21.4085  -11.3118 O   0  0  0  0  0  0  0  0  0  0  0  0
  2  1  1  6
  2  3  1  0
  4  2  1  0
  5  6  1  1
  5  4  1  0
  7  5  1  0
  8  7  2  0
 10  9  1  6
 10 11  1  0
 12 13  1  6
 12 10  1  0
 13  7  1  0
 14 12  1  0
 15 14  2  0
 16 14  1  0
 17 18  1  6
 17 16  1  0
 19 18  1  0
 20 21  1  0
 20 19  1  0
 22 21  1  0
 23 24  1  0
 23 17  1  0
 25 23  2  0
M  END
$$$$
