LVK.pdb
     RDKit          3D

 25 24  0  0  1  0  0  0  0  0999 V2000
   23.7353  -25.1914  -16.8001 C   0  0  0  0  0  0  0  0  0  0  0  0
   23.3624  -23.7307  -16.6058 C   0  0  1  0  0  0  0  0  0  0  0  0
   22.1670  -23.3399  -17.4243 C   0  0  0  0  0  0  0  0  0  0  0  0
   23.2313  -23.3721  -15.1585 C   0  0  0  0  0  0  0  0  0  0  0  0
   22.8640  -21.9181  -14.9533 C   0  0  2  0  0  0  0  0  0  0  0  0
   23.9605  -21.0352  -15.2826 N   0  0  0  0  0  0  0  0  0  0  0  0
   22.4529  -21.6530  -13.5560 C   0  0  0  0  0  0  0  0  0  0  0  0
   23.2848  -21.7260  -12.5884 O   0  0  0  0  0  0  0  0  0  0  0  0
   19.7608  -19.2760  -10.3681 C   0  0  0  0  0  0  0  0  0  0  0  0
   20.2162  -19.6519  -11.7384 C   0  0  2  0  0  0  0  0  0  0  0  0
   19.0597  -19.5810  -12.7397 C   0  0  0  0  0  0  0  0  0  0  0  0
   20.7453  -21.0772  -11.8161 C   0  0  2  0  0  0  0  0  0  0  0  0
   21.1194  -21.3031  -13.1990 N   0  0  0  0  0  0  0  0  0  0  0  0
   19.7363  -22.0560  -11.3552 C   0  0  0  0  0  0  0  0  0  0  0  0
   18.8848  -22.4709  -12.1800 O   0  0  0  0  0  0  0  0  0  0  0  0
   19.7462  -22.5031  -10.0120 N   0  0  0  0  0  0  0  0  0  0  0  0
   18.6916  -23.3874   -9.4873 C   0  0  1  0  0  0  0  0  0  0  0  0
   19.0285  -23.9117   -8.1512 C   0  0  0  0  0  0  0  0  0  0  0  0
   18.0865  -24.8232   -7.4784 C   0  0  0  0  0  0  0  0  0  0  0  0
   18.5295  -25.3895   -6.1572 C   0  0  0  0  0  0  0  0  0  0  0  0
   17.4971  -26.3327   -5.5730 C   0  0  0  0  0  0  0  0  0  0  0  0
   18.0320  -26.9145   -4.3640 N   0  0  0  0  0  0  0  0  0  0  0  0
   17.4105  -22.7524   -9.7129 C   0  0  0  0  0  0  0  0  0  0  0  0
   16.3396  -23.5146  -10.1532 O   0  0  0  0  0  0  0  0  0  0  0  0
   17.1586  -21.5270   -9.5456 O   0  0  0  0  0  0  0  0  0  0  0  0
  2  1  1  1
  2  3  1  0
  4  2  1  0
  5  6  1  1
  5  4  1  0
  7  5  1  0
  8  7  2  0
 10  9  1  1
 10 11  1  0
 12 13  1  6
 12 10  1  0
 13  7  1  0
 14 12  1  0
 15 14  2  0
 16 14  1  0
 17 18  1  1
 17 16  1  0
 19 18  1  0
 20 21  1  0
 20 19  1  0
 22 21  1  0
 23 24  1  0
 23 17  1  0
 25 23  2  0
M  END
$$$$
