LVK.pdb
     RDKit          3D

 25 24  0  0  1  0  0  0  0  0999 V2000
   22.4929  -38.1252  -13.1326 C   0  0  0  0  0  0  0  0  0  0  0  0
   22.7908  -36.6383  -13.0288 C   0  0  1  0  0  0  0  0  0  0  0  0
   21.6293  -35.8676  -12.4735 C   0  0  0  0  0  0  0  0  0  0  0  0
   24.0760  -36.3718  -12.3092 C   0  0  0  0  0  0  0  0  0  0  0  0
   24.3170  -34.8948  -12.0823 C   0  0  2  0  0  0  0  0  0  0  0  0
   24.9061  -34.2623  -13.2412 N   0  0  0  0  0  0  0  0  0  0  0  0
   25.2033  -34.6607  -10.9198 C   0  0  0  0  0  0  0  0  0  0  0  0
   26.4655  -34.8489  -10.9921 O   0  0  0  0  0  0  0  0  0  0  0  0
   23.8982  -32.2918   -7.7488 C   0  0  0  0  0  0  0  0  0  0  0  0
   25.3282  -32.5028   -8.1189 C   0  0  2  0  0  0  0  0  0  0  0  0
   25.7271  -31.6110   -9.2981 C   0  0  0  0  0  0  0  0  0  0  0  0
   25.6208  -33.9300   -8.5605 C   0  0  2  0  0  0  0  0  0  0  0  0
   24.7164  -34.2154   -9.6578 N   0  0  0  0  0  0  0  0  0  0  0  0
   25.4495  -34.8882   -7.4466 C   0  0  0  0  0  0  0  0  0  0  0  0
   24.2999  -35.3386   -7.2162 O   0  0  0  0  0  0  0  0  0  0  0  0
   26.5671  -35.2768   -6.6693 N   0  0  0  0  0  0  0  0  0  0  0  0
   26.4319  -36.2157   -5.5425 C   0  0  1  0  0  0  0  0  0  0  0  0
   27.7306  -36.7915   -5.1483 C   0  0  0  0  0  0  0  0  0  0  0  0
   27.7737  -37.7986   -4.0736 C   0  0  0  0  0  0  0  0  0  0  0  0
   29.1316  -38.3346   -3.7112 C   0  0  0  0  0  0  0  0  0  0  0  0
   29.0383  -39.5127   -2.7624 C   0  0  0  0  0  0  0  0  0  0  0  0
   30.3437  -40.1199   -2.6471 N   0  0  0  0  0  0  0  0  0  0  0  0
   25.5770  -35.6094   -4.5442 C   0  0  0  0  0  0  0  0  0  0  0  0
   25.7376  -34.2682   -4.2324 O   0  0  0  0  0  0  0  0  0  0  0  0
   24.6657  -36.2000   -3.9009 O   0  0  0  0  0  0  0  0  0  0  0  0
  2  1  1  1
  2  3  1  0
  4  2  1  0
  5  6  1  6
  5  4  1  0
  7  5  1  0
  8  7  2  0
 10  9  1  6
 10 11  1  0
 12 13  1  6
 12 10  1  0
 13  7  1  0
 14 12  1  0
 15 14  2  0
 16 14  1  0
 17 18  1  1
 17 16  1  0
 19 18  1  0
 20 21  1  0
 20 19  1  0
 22 21  1  0
 23 24  1  0
 23 17  1  0
 25 23  2  0
M  END
$$$$
