LVK.pdb
     RDKit          3D

 25 24  0  0  1  0  0  0  0  0999 V2000
   18.0400  -16.4187  -15.0110 C   0  0  0  0  0  0  0  0  0  0  0  0
   18.2456  -15.2857  -16.0032 C   0  0  1  0  0  0  0  0  0  0  0  0
   17.0483  -15.0836  -16.8848 C   0  0  0  0  0  0  0  0  0  0  0  0
   18.7058  -14.0288  -15.3331 C   0  0  0  0  0  0  0  0  0  0  0  0
   18.9235  -12.8963  -16.3136 C   0  0  2  0  0  0  0  0  0  0  0  0
   19.9665  -13.2037  -17.2665 N   0  0  0  0  0  0  0  0  0  0  0  0
   19.2788  -11.6375  -15.6204 C   0  0  0  0  0  0  0  0  0  0  0  0
   18.6350  -11.2350  -14.5921 O   0  0  0  0  0  0  0  0  0  0  0  0
   22.5574   -7.9973  -14.9440 C   0  0  0  0  0  0  0  0  0  0  0  0
   22.1300   -9.3345  -15.4496 C   0  0  2  0  0  0  0  0  0  0  0  0
   22.5162   -9.5141  -16.9205 C   0  0  0  0  0  0  0  0  0  0  0  0
   20.6223   -9.5360  -15.3890 C   0  0  2  0  0  0  0  0  0  0  0  0
   20.3487  -10.7996  -16.0462 N   0  0  0  0  0  0  0  0  0  0  0  0
   19.8994   -8.4168  -16.0319 C   0  0  0  0  0  0  0  0  0  0  0  0
   19.8266   -8.3931  -17.2855 O   0  0  0  0  0  0  0  0  0  0  0  0
   19.3097   -7.4052  -15.2360 N   0  0  0  0  0  0  0  0  0  0  0  0
   18.5382   -6.3043  -15.8378 C   0  0  1  0  0  0  0  0  0  0  0  0
   17.1195   -6.6625  -16.0189 C   0  0  0  0  0  0  0  0  0  0  0  0
   16.1344   -6.2270  -15.0136 C   0  0  0  0  0  0  0  0  0  0  0  0
   14.7049   -6.6255  -15.2591 C   0  0  0  0  0  0  0  0  0  0  0  0
   13.7962   -6.1939  -14.1257 C   0  0  0  0  0  0  0  0  0  0  0  0
   12.4950   -6.7894  -14.3220 N   0  0  0  0  0  0  0  0  0  0  0  0
   18.8927   -5.0756  -15.1599 C   0  0  0  0  0  0  0  0  0  0  0  0
   18.5121   -3.8602  -15.7075 O   0  0  0  0  0  0  0  0  0  0  0  0
   19.5406   -4.9932  -14.0799 O   0  0  0  0  0  0  0  0  0  0  0  0
  2  1  1  1
  2  3  1  0
  4  2  1  0
  5  6  1  6
  5  4  1  0
  7  5  1  0
  8  7  2  0
 10  9  1  6
 10 11  1  0
 12 13  1  6
 12 10  1  0
 13  7  1  0
 14 12  1  0
 15 14  2  0
 16 14  1  0
 17 18  1  1
 17 16  1  0
 19 18  1  0
 20 21  1  0
 20 19  1  0
 22 21  1  0
 23 24  1  0
 23 17  1  0
 25 23  2  0
M  END
$$$$
