LVK.pdb
     RDKit          3D

 25 24  0  0  1  0  0  0  0  0999 V2000
   27.7698  -17.9271  -17.9817 C   0  0  0  0  0  0  0  0  0  0  0  0
   28.3358  -18.8351  -16.9021 C   0  0  1  0  0  0  0  0  0  0  0  0
   29.1139  -18.0699  -15.8722 C   0  0  0  0  0  0  0  0  0  0  0  0
   27.2882  -19.7257  -16.3109 C   0  0  0  0  0  0  0  0  0  0  0  0
   27.8163  -20.5571  -15.1616 C   0  0  2  0  0  0  0  0  0  0  0  0
   28.6129  -21.6709  -15.6256 N   0  0  0  0  0  0  0  0  0  0  0  0
   26.7172  -21.0853  -14.3222 C   0  0  0  0  0  0  0  0  0  0  0  0
   25.9026  -21.9662  -14.7629 O   0  0  0  0  0  0  0  0  0  0  0  0
   24.5466  -21.2276   -9.8462 C   0  0  0  0  0  0  0  0  0  0  0  0
   25.6537  -20.8231  -10.7611 C   0  0  2  0  0  0  0  0  0  0  0  0
   25.9079  -19.3151  -10.6819 C   0  0  0  0  0  0  0  0  0  0  0  0
   25.3496  -21.1162  -12.2237 C   0  0  2  0  0  0  0  0  0  0  0  0
   26.4951  -20.6534  -12.9835 N   0  0  0  0  0  0  0  0  0  0  0  0
   24.1000  -20.4561  -12.6607 C   0  0  0  0  0  0  0  0  0  0  0  0
   24.0789  -19.2023  -12.7318 O   0  0  0  0  0  0  0  0  0  0  0  0
   22.9644  -21.2360  -12.9871 N   0  0  0  0  0  0  0  0  0  0  0  0
   21.7086  -20.6146  -13.4412 C   0  0  1  0  0  0  0  0  0  0  0  0
   21.3793  -20.9913  -14.8280 C   0  0  0  0  0  0  0  0  0  0  0  0
   21.9396  -20.2026  -15.9393 C   0  0  0  0  0  0  0  0  0  0  0  0
   21.5027  -20.5920  -17.3249 C   0  0  0  0  0  0  0  0  0  0  0  0
   22.2102  -19.7776  -18.3893 C   0  0  0  0  0  0  0  0  0  0  0  0
   21.6471  -20.1091  -19.6775 N   0  0  0  0  0  0  0  0  0  0  0  0
   20.7195  -20.7694  -12.3958 C   0  0  0  0  0  0  0  0  0  0  0  0
   19.6087  -19.9401  -12.3796 O   0  0  0  0  0  0  0  0  0  0  0  0
   20.7672  -21.6135  -11.4587 O   0  0  0  0  0  0  0  0  0  0  0  0
  2  1  1  6
  2  3  1  0
  4  2  1  0
  5  6  1  6
  5  4  1  0
  7  5  1  0
  8  7  2  0
 10  9  1  1
 10 11  1  0
 12 13  1  6
 12 10  1  0
 13  7  1  0
 14 12  1  0
 15 14  2  0
 16 14  1  0
 17 18  1  6
 17 16  1  0
 19 18  1  0
 20 21  1  0
 20 19  1  0
 22 21  1  0
 23 24  1  0
 23 17  1  0
 25 23  2  0
M  END
$$$$
