LVK.pdb
     RDKit          3D

 25 24  0  0  1  0  0  0  0  0999 V2000
   17.2255  -16.6666  -16.3957 C   0  0  0  0  0  0  0  0  0  0  0  0
   17.1718  -15.7571  -15.1791 C   0  0  1  0  0  0  0  0  0  0  0  0
   17.2370  -16.5292  -13.8941 C   0  0  0  0  0  0  0  0  0  0  0  0
   18.1799  -14.6535  -15.2579 C   0  0  0  0  0  0  0  0  0  0  0  0
   17.7933  -13.5866  -16.2596 C   0  0  2  0  0  0  0  0  0  0  0  0
   18.1062  -13.9828  -17.6144 N   0  0  0  0  0  0  0  0  0  0  0  0
   18.4752  -12.3032  -15.9778 C   0  0  0  0  0  0  0  0  0  0  0  0
   18.7955  -11.9627  -14.7882 O   0  0  0  0  0  0  0  0  0  0  0  0
   19.8754   -9.7351  -19.1118 C   0  0  0  0  0  0  0  0  0  0  0  0
   20.4163   -9.7609  -17.7214 C   0  0  2  0  0  0  0  0  0  0  0  0
   21.4756  -10.8556  -17.5649 C   0  0  0  0  0  0  0  0  0  0  0  0
   19.3505  -10.0628  -16.6772 C   0  0  2  0  0  0  0  0  0  0  0  0
   18.8166  -11.3721  -16.9998 N   0  0  0  0  0  0  0  0  0  0  0  0
   18.2933   -9.0280  -16.6666 C   0  0  0  0  0  0  0  0  0  0  0  0
   17.2265   -9.2563  -17.2890 O   0  0  0  0  0  0  0  0  0  0  0  0
   18.4974   -7.8150  -15.9657 N   0  0  0  0  0  0  0  0  0  0  0  0
   17.4358   -6.7995  -15.8595 C   0  0  1  0  0  0  0  0  0  0  0  0
   16.1623   -7.3820  -15.3987 C   0  0  0  0  0  0  0  0  0  0  0  0
   15.0415   -6.4860  -15.0644 C   0  0  0  0  0  0  0  0  0  0  0  0
   13.7842   -7.1429  -14.5641 C   0  0  0  0  0  0  0  0  0  0  0  0
   12.7051   -6.1275  -14.2462 C   0  0  0  0  0  0  0  0  0  0  0  0
   11.4660   -6.8284  -14.0024 N   0  0  0  0  0  0  0  0  0  0  0  0
   17.9824   -5.6370  -15.1924 C   0  0  0  0  0  0  0  0  0  0  0  0
   17.3762   -4.4026  -15.3671 O   0  0  0  0  0  0  0  0  0  0  0  0
   18.9958   -5.6307  -14.4400 O   0  0  0  0  0  0  0  0  0  0  0  0
  2  1  1  6
  2  3  1  0
  4  2  1  0
  5  6  1  6
  5  4  1  0
  7  5  1  0
  8  7  2  0
 10  9  1  6
 10 11  1  0
 12 13  1  6
 12 10  1  0
 13  7  1  0
 14 12  1  0
 15 14  2  0
 16 14  1  0
 17 18  1  1
 17 16  1  0
 19 18  1  0
 20 21  1  0
 20 19  1  0
 22 21  1  0
 23 24  1  0
 23 17  1  0
 25 23  2  0
M  END
$$$$
