LVK.pdb
     RDKit          3D

 25 24  0  0  1  0  0  0  0  0999 V2000
   20.8064  -15.8322  -18.8736 C   0  0  0  0  0  0  0  0  0  0  0  0
   19.5835  -15.4457  -18.0578 C   0  0  1  0  0  0  0  0  0  0  0  0
   18.8303  -16.6470  -17.5667 C   0  0  0  0  0  0  0  0  0  0  0  0
   19.9178  -14.4721  -16.9712 C   0  0  0  0  0  0  0  0  0  0  0  0
   20.4159  -13.1491  -17.5123 C   0  0  2  0  0  0  0  0  0  0  0  0
   21.7786  -13.2412  -17.9864 N   0  0  0  0  0  0  0  0  0  0  0  0
   20.3477  -12.0823  -16.4881 C   0  0  0  0  0  0  0  0  0  0  0  0
   19.3396  -11.9639  -15.7113 O   0  0  0  0  0  0  0  0  0  0  0  0
   23.6498   -9.4348  -15.8364 C   0  0  0  0  0  0  0  0  0  0  0  0
   22.7104   -9.8764  -14.7645 C   0  0  2  0  0  0  0  0  0  0  0  0
   23.1567  -11.2103  -14.1590 C   0  0  0  0  0  0  0  0  0  0  0  0
   21.2949  -10.1057  -15.2755 C   0  0  2  0  0  0  0  0  0  0  0  0
   21.3874  -11.1273  -16.3008 N   0  0  0  0  0  0  0  0  0  0  0  0
   20.6985   -8.8572  -15.7991 C   0  0  0  0  0  0  0  0  0  0  0  0
   21.0735   -8.4405  -16.9231 O   0  0  0  0  0  0  0  0  0  0  0  0
   19.7291   -8.1621  -15.0367 N   0  0  0  0  0  0  0  0  0  0  0  0
   19.0746   -6.9459  -15.5486 C   0  0  1  0  0  0  0  0  0  0  0  0
   17.6064   -7.0791  -15.5686 C   0  0  0  0  0  0  0  0  0  0  0  0
   16.9909   -8.1226  -16.4071 C   0  0  0  0  0  0  0  0  0  0  0  0
   15.4882   -8.1897  -16.3985 C   0  0  0  0  0  0  0  0  0  0  0  0
   14.9679   -9.2999  -17.2892 C   0  0  0  0  0  0  0  0  0  0  0  0
   13.5299   -9.1930  -17.3716 N   0  0  0  0  0  0  0  0  0  0  0  0
   19.6878   -5.7976  -14.9157 C   0  0  0  0  0  0  0  0  0  0  0  0
   19.4559   -4.5310  -15.4292 O   0  0  0  0  0  0  0  0  0  0  0  0
   20.4439   -5.8322  -13.9057 O   0  0  0  0  0  0  0  0  0  0  0  0
  2  1  1  1
  2  3  1  0
  4  2  1  0
  5  6  1  1
  5  4  1  0
  7  5  1  0
  8  7  2  0
 10  9  1  6
 10 11  1  0
 12 13  1  6
 12 10  1  0
 13  7  1  0
 14 12  1  0
 15 14  2  0
 16 14  1  0
 17 18  1  1
 17 16  1  0
 19 18  1  0
 20 21  1  0
 20 19  1  0
 22 21  1  0
 23 24  1  0
 23 17  1  0
 25 23  2  0
M  END
$$$$
