LVK.pdb
     RDKit          3D

 25 24  0  0  1  0  0  0  0  0999 V2000
   25.4668  -18.4054  -20.2772 C   0  0  0  0  0  0  0  0  0  0  0  0
   26.6855  -18.2025  -19.3917 C   0  0  1  0  0  0  0  0  0  0  0  0
   27.9177  -18.8287  -19.9757 C   0  0  0  0  0  0  0  0  0  0  0  0
   26.8734  -16.7661  -19.0152 C   0  0  0  0  0  0  0  0  0  0  0  0
   28.1205  -16.5431  -18.1868 C   0  0  2  0  0  0  0  0  0  0  0  0
   28.0270  -17.1806  -16.8926 N   0  0  0  0  0  0  0  0  0  0  0  0
   28.3857  -15.1013  -17.9804 C   0  0  0  0  0  0  0  0  0  0  0  0
   27.7526  -14.4236  -17.1008 O   0  0  0  0  0  0  0  0  0  0  0  0
   31.5266  -12.8507  -20.0973 C   0  0  0  0  0  0  0  0  0  0  0  0
   31.0707  -12.7312  -18.6816 C   0  0  2  0  0  0  0  0  0  0  0  0
   31.7537  -13.7764  -17.7950 C   0  0  0  0  0  0  0  0  0  0  0  0
   29.5749  -12.9636  -18.5199 C   0  0  2  0  0  0  0  0  0  0  0  0
   29.3521  -14.3801  -18.7381 N   0  0  0  0  0  0  0  0  0  0  0  0
   28.7923  -12.1348  -19.4627 C   0  0  0  0  0  0  0  0  0  0  0  0
   28.6814  -12.5241  -20.6517 O   0  0  0  0  0  0  0  0  0  0  0  0
   28.1895  -10.9339  -19.0169 N   0  0  0  0  0  0  0  0  0  0  0  0
   27.3947  -10.0887  -19.9242 C   0  0  1  0  0  0  0  0  0  0  0  0
   26.3903   -9.2929  -19.1950 C   0  0  0  0  0  0  0  0  0  0  0  0
   25.5144   -8.3776  -19.9473 C   0  0  0  0  0  0  0  0  0  0  0  0
   24.4989   -7.6109  -19.1451 C   0  0  0  0  0  0  0  0  0  0  0  0
   23.5569   -6.8229  -20.0330 C   0  0  0  0  0  0  0  0  0  0  0  0
   22.4513   -6.3506  -19.2324 N   0  0  0  0  0  0  0  0  0  0  0  0
   28.2979   -9.4394  -20.8504 C   0  0  0  0  0  0  0  0  0  0  0  0
   27.8899   -9.2138  -22.1559 O   0  0  0  0  0  0  0  0  0  0  0  0
   29.4660   -9.0439  -20.5818 O   0  0  0  0  0  0  0  0  0  0  0  0
  2  1  1  6
  2  3  1  0
  4  2  1  0
  5  6  1  1
  5  4  1  0
  7  5  1  0
  8  7  2  0
 10  9  1  6
 10 11  1  0
 12 13  1  6
 12 10  1  0
 13  7  1  0
 14 12  1  0
 15 14  2  0
 16 14  1  0
 17 18  1  1
 17 16  1  0
 19 18  1  0
 20 21  1  0
 20 19  1  0
 22 21  1  0
 23 24  1  0
 23 17  1  0
 25 23  2  0
M  END
$$$$
