LVK.pdb
     RDKit          3D

 25 24  0  0  1  0  0  0  0  0999 V2000
   24.7759  -19.5668  -18.6596 C   0  0  0  0  0  0  0  0  0  0  0  0
   23.5676  -19.0861  -17.8726 C   0  0  1  0  0  0  0  0  0  0  0  0
   22.3486  -18.9508  -18.7371 C   0  0  0  0  0  0  0  0  0  0  0  0
   23.3335  -19.9090  -16.6444 C   0  0  0  0  0  0  0  0  0  0  0  0
   22.0613  -19.5214  -15.9216 C   0  0  2  0  0  0  0  0  0  0  0  0
   22.0747  -18.1335  -15.5171 N   0  0  0  0  0  0  0  0  0  0  0  0
   21.8426  -20.3573  -14.7195 C   0  0  0  0  0  0  0  0  0  0  0  0
   21.9437  -21.6308  -14.7624 O   0  0  0  0  0  0  0  0  0  0  0  0
   21.3017  -20.5130   -9.7850 C   0  0  0  0  0  0  0  0  0  0  0  0
   21.4600  -19.7674  -11.0677 C   0  0  2  0  0  0  0  0  0  0  0  0
   20.3964  -18.6739  -11.2017 C   0  0  0  0  0  0  0  0  0  0  0  0
   21.2976  -20.6563  -12.2929 C   0  0  2  0  0  0  0  0  0  0  0  0
   21.5087  -19.8068  -13.4493 N   0  0  0  0  0  0  0  0  0  0  0  0
   19.9663  -21.3006  -12.3228 C   0  0  0  0  0  0  0  0  0  0  0  0
   19.0216  -20.6960  -12.8881 O   0  0  0  0  0  0  0  0  0  0  0  0
   19.7806  -22.5694  -11.7228 N   0  0  0  0  0  0  0  0  0  0  0  0
   18.4752  -23.2511  -11.7523 C   0  0  1  0  0  0  0  0  0  0  0  0
   18.5965  -24.6845  -11.4296 C   0  0  0  0  0  0  0  0  0  0  0  0
   17.3856  -25.5237  -11.4189 C   0  0  0  0  0  0  0  0  0  0  0  0
   17.5608  -26.9479  -10.9677 C   0  0  0  0  0  0  0  0  0  0  0  0
   16.2561  -27.7178  -11.0103 C   0  0  0  0  0  0  0  0  0  0  0  0
   16.5276  -29.1068  -10.7218 N   0  0  0  0  0  0  0  0  0  0  0  0
   17.5160  -22.4294  -11.0453 C   0  0  0  0  0  0  0  0  0  0  0  0
   16.2400  -22.2716  -11.5636 O   0  0  0  0  0  0  0  0  0  0  0  0
   17.7308  -21.8155   -9.9636 O   0  0  0  0  0  0  0  0  0  0  0  0
  2  1  1  6
  2  3  1  0
  4  2  1  0
  5  6  1  1
  5  4  1  0
  7  5  1  0
  8  7  2  0
 10  9  1  1
 10 11  1  0
 12 13  1  6
 12 10  1  0
 13  7  1  0
 14 12  1  0
 15 14  2  0
 16 14  1  0
 17 18  1  1
 17 16  1  0
 19 18  1  0
 20 21  1  0
 20 19  1  0
 22 21  1  0
 23 24  1  0
 23 17  1  0
 25 23  2  0
M  END
$$$$
