LVK.pdb
     RDKit          3D

 25 24  0  0  1  0  0  0  0  0999 V2000
   17.5784  -11.5904  -13.8175 C   0  0  0  0  0  0  0  0  0  0  0  0
   18.0141  -10.4103  -12.9644 C   0  0  1  0  0  0  0  0  0  0  0  0
   18.7134   -9.3573  -13.7729 C   0  0  0  0  0  0  0  0  0  0  0  0
   16.8902   -9.8708  -12.1358 C   0  0  0  0  0  0  0  0  0  0  0  0
   17.3101   -8.6869  -11.2912 C   0  0  2  0  0  0  0  0  0  0  0  0
   17.8344   -9.1006  -10.0090 N   0  0  0  0  0  0  0  0  0  0  0  0
   16.1815   -7.7577  -11.0578 C   0  0  0  0  0  0  0  0  0  0  0  0
   15.4888   -7.2899  -12.0249 O   0  0  0  0  0  0  0  0  0  0  0  0
   13.0040   -5.8445   -7.7663 C   0  0  0  0  0  0  0  0  0  0  0  0
   14.1079   -6.7626   -8.1723 C   0  0  2  0  0  0  0  0  0  0  0  0
   15.3009   -6.6411   -7.2200 C   0  0  0  0  0  0  0  0  0  0  0  0
   14.6523   -6.4561   -9.5605 C   0  0  2  0  0  0  0  0  0  0  0  0
   15.7952   -7.3272   -9.7565 N   0  0  0  0  0  0  0  0  0  0  0  0
   15.0215   -5.0299   -9.6955 C   0  0  0  0  0  0  0  0  0  0  0  0
   16.1344   -4.6553   -9.2499 O   0  0  0  0  0  0  0  0  0  0  0  0
   14.1282   -4.1234  -10.3154 N   0  0  0  0  0  0  0  0  0  0  0  0
   14.5218   -2.7349  -10.6098 C   0  0  1  0  0  0  0  0  0  0  0  0
   14.0337   -2.2934  -11.9291 C   0  0  0  0  0  0  0  0  0  0  0  0
   14.3267   -0.9222  -12.3817 C   0  0  0  0  0  0  0  0  0  0  0  0
   13.8328   -0.5487  -13.7525 C   0  0  0  0  0  0  0  0  0  0  0  0
   14.2454    0.8578  -14.1371 C   0  0  0  0  0  0  0  0  0  0  0  0
   13.8032    1.1181  -15.4872 N   0  0  0  0  0  0  0  0  0  0  0  0
   14.2618   -1.9289   -9.4360 C   0  0  0  0  0  0  0  0  0  0  0  0
   15.1486   -0.9208   -9.0907 O   0  0  0  0  0  0  0  0  0  0  0  0
   13.2728   -2.0559   -8.6621 O   0  0  0  0  0  0  0  0  0  0  0  0
  2  1  1  6
  2  3  1  0
  4  2  1  0
  5  6  1  1
  5  4  1  0
  7  5  1  0
  8  7  2  0
 10  9  1  1
 10 11  1  0
 12 13  1  1
 12 10  1  0
 13  7  1  0
 14 12  1  0
 15 14  2  0
 16 14  1  0
 17 18  1  6
 17 16  1  0
 19 18  1  0
 20 21  1  0
 20 19  1  0
 22 21  1  0
 23 24  1  0
 23 17  1  0
 25 23  2  0
M  END
$$$$
