LVK.pdb
     RDKit          3D

 25 24  0  0  1  0  0  0  0  0999 V2000
   29.7431  -19.5484  -12.0504 C   0  0  0  0  0  0  0  0  0  0  0  0
   28.7386  -20.6117  -12.4636 C   0  0  1  0  0  0  0  0  0  0  0  0
   28.9793  -21.9173  -11.7643 C   0  0  0  0  0  0  0  0  0  0  0  0
   27.3272  -20.1279  -12.3439 C   0  0  0  0  0  0  0  0  0  0  0  0
   26.3196  -21.1653  -12.7909 C   0  0  2  0  0  0  0  0  0  0  0  0
   26.5577  -21.5945  -14.1508 N   0  0  0  0  0  0  0  0  0  0  0  0
   24.9338  -20.6531  -12.6975 C   0  0  0  0  0  0  0  0  0  0  0  0
   24.4687  -20.1761  -11.6067 O   0  0  0  0  0  0  0  0  0  0  0  0
   20.9101  -19.0712  -15.0835 C   0  0  0  0  0  0  0  0  0  0  0  0
   22.3484  -19.4542  -14.9786 C   0  0  2  0  0  0  0  0  0  0  0  0
   22.7386  -20.4314  -16.0912 C   0  0  0  0  0  0  0  0  0  0  0  0
   22.6790  -20.1607  -13.6713 C   0  0  2  0  0  0  0  0  0  0  0  0
   24.0355  -20.6568  -13.8026 N   0  0  0  0  0  0  0  0  0  0  0  0
   21.7219  -21.2525  -13.3879 C   0  0  0  0  0  0  0  0  0  0  0  0
   21.8625  -22.3437  -13.9938 O   0  0  0  0  0  0  0  0  0  0  0  0
   20.6783  -21.0535  -12.4522 N   0  0  0  0  0  0  0  0  0  0  0  0
   19.7867  -22.1541  -12.0480 C   0  0  1  0  0  0  0  0  0  0  0  0
   19.7931  -22.3584  -10.5879 C   0  0  0  0  0  0  0  0  0  0  0  0
   18.9675  -23.4327  -10.0090 C   0  0  0  0  0  0  0  0  0  0  0  0
   18.9916  -23.5633   -8.5107 C   0  0  0  0  0  0  0  0  0  0  0  0
   18.0532  -24.6492   -8.0239 C   0  0  0  0  0  0  0  0  0  0  0  0
   18.1926  -24.7748   -6.5918 N   0  0  0  0  0  0  0  0  0  0  0  0
   18.5306  -22.0048  -12.7517 C   0  0  0  0  0  0  0  0  0  0  0  0
   17.9026  -23.1260  -13.2715 O   0  0  0  0  0  0  0  0  0  0  0  0
   17.9253  -20.9153  -12.9507 O   0  0  0  0  0  0  0  0  0  0  0  0
  2  1  1  1
  2  3  1  0
  4  2  1  0
  5  6  1  6
  5  4  1  0
  7  5  1  0
  8  7  2  0
 10  9  1  1
 10 11  1  0
 12 13  1  6
 12 10  1  0
 13  7  1  0
 14 12  1  0
 15 14  2  0
 16 14  1  0
 17 18  1  1
 17 16  1  0
 19 18  1  0
 20 21  1  0
 20 19  1  0
 22 21  1  0
 23 24  1  0
 23 17  1  0
 25 23  2  0
M  END
$$$$
