LVK.pdb
     RDKit          3D

 25 24  0  0  1  0  0  0  0  0999 V2000
   27.9540  -19.0070   -6.9459 C   0  0  0  0  0  0  0  0  0  0  0  0
   27.2680  -20.1129   -7.7311 C   0  0  1  0  0  0  0  0  0  0  0  0
   26.2551  -20.8478   -6.9031 C   0  0  0  0  0  0  0  0  0  0  0  0
   26.7215  -19.6206   -9.0347 C   0  0  0  0  0  0  0  0  0  0  0  0
   26.1143  -20.7314   -9.8645 C   0  0  2  0  0  0  0  0  0  0  0  0
   27.0980  -21.7234  -10.2366 N   0  0  0  0  0  0  0  0  0  0  0  0
   25.4875  -20.2075  -11.0992 C   0  0  0  0  0  0  0  0  0  0  0  0
   24.5834  -19.3049  -11.0596 O   0  0  0  0  0  0  0  0  0  0  0  0
   25.7049  -19.6620  -15.9958 C   0  0  0  0  0  0  0  0  0  0  0  0
   26.2310  -20.1761  -14.6976 C   0  0  2  0  0  0  0  0  0  0  0  0
   26.6709  -21.6374  -14.8238 C   0  0  0  0  0  0  0  0  0  0  0  0
   25.1913  -20.1504  -13.5859 C   0  0  2  0  0  0  0  0  0  0  0  0
   25.8446  -20.6676  -12.3987 N   0  0  0  0  0  0  0  0  0  0  0  0
   23.9958  -20.9452  -13.9429 C   0  0  0  0  0  0  0  0  0  0  0  0
   24.1256  -22.1850  -14.0967 O   0  0  0  0  0  0  0  0  0  0  0  0
   22.7430  -20.3058  -14.1033 N   0  0  0  0  0  0  0  0  0  0  0  0
   21.4998  -21.0785  -14.2671 C   0  0  1  0  0  0  0  0  0  0  0  0
   20.4014  -20.5320  -13.4494 C   0  0  0  0  0  0  0  0  0  0  0  0
   19.0687  -21.1556  -13.5271 C   0  0  0  0  0  0  0  0  0  0  0  0
   18.7557  -22.1998  -12.4907 C   0  0  0  0  0  0  0  0  0  0  0  0
   17.4070  -22.8474  -12.7317 C   0  0  0  0  0  0  0  0  0  0  0  0
   17.1865  -23.8514  -11.7170 N   0  0  0  0  0  0  0  0  0  0  0  0
   21.2975  -21.3223  -15.6794 C   0  0  0  0  0  0  0  0  0  0  0  0
   21.5620  -20.3118  -16.5908 O   0  0  0  0  0  0  0  0  0  0  0  0
   20.8863  -22.4024  -16.1868 O   0  0  0  0  0  0  0  0  0  0  0  0
  2  1  1  1
  2  3  1  0
  4  2  1  0
  5  6  1  6
  5  4  1  0
  7  5  1  0
  8  7  2  0
 10  9  1  6
 10 11  1  0
 12 13  1  1
 12 10  1  0
 13  7  1  0
 14 12  1  0
 15 14  2  0
 16 14  1  0
 17 18  1  6
 17 16  1  0
 19 18  1  0
 20 21  1  0
 20 19  1  0
 22 21  1  0
 23 24  1  0
 23 17  1  0
 25 23  2  0
M  END
$$$$
