LVK.pdb
     RDKit          3D

 25 24  0  0  1  0  0  0  0  0999 V2000
   13.7944  -12.9735  -16.6848 C   0  0  0  0  0  0  0  0  0  0  0  0
   15.2828  -12.7117  -16.8473 C   0  0  1  0  0  0  0  0  0  0  0  0
   15.5914  -11.9814  -18.1213 C   0  0  0  0  0  0  0  0  0  0  0  0
   15.8746  -12.0629  -15.6352 C   0  0  0  0  0  0  0  0  0  0  0  0
   17.3420  -11.7358  -15.8118 C   0  0  2  0  0  0  0  0  0  0  0  0
   18.1682  -12.9204  -15.7466 N   0  0  0  0  0  0  0  0  0  0  0  0
   17.8134  -10.7792  -14.7850 C   0  0  0  0  0  0  0  0  0  0  0  0
   17.6913  -11.0237  -13.5363 O   0  0  0  0  0  0  0  0  0  0  0  0
   20.1777   -7.5289  -15.9383 C   0  0  0  0  0  0  0  0  0  0  0  0
   20.2350   -8.0891  -14.5565 C   0  0  2  0  0  0  0  0  0  0  0  0
   21.2115   -9.2663  -14.4817 C   0  0  0  0  0  0  0  0  0  0  0  0
   18.8942   -8.6316  -14.0818 C   0  0  2  0  0  0  0  0  0  0  0  0
   18.4271   -9.5370  -15.1141 N   0  0  0  0  0  0  0  0  0  0  0  0
   17.9262   -7.5414  -13.8310 C   0  0  0  0  0  0  0  0  0  0  0  0
   17.2977   -7.0630  -14.8075 O   0  0  0  0  0  0  0  0  0  0  0  0
   17.7264   -7.0616  -12.5141 N   0  0  0  0  0  0  0  0  0  0  0  0
   16.7210   -6.0273  -12.2161 C   0  0  1  0  0  0  0  0  0  0  0  0
   16.3073   -6.0546  -10.8013 C   0  0  0  0  0  0  0  0  0  0  0  0
   15.3168   -5.0742  -10.3231 C   0  0  0  0  0  0  0  0  0  0  0  0
   14.9898   -5.1129   -8.8554 C   0  0  0  0  0  0  0  0  0  0  0  0
   13.8408   -4.1875   -8.5088 C   0  0  0  0  0  0  0  0  0  0  0  0
   13.4371   -4.4399   -7.1452 N   0  0  0  0  0  0  0  0  0  0  0  0
   17.1533   -4.7844  -12.8190 C   0  0  0  0  0  0  0  0  0  0  0  0
   18.4911   -4.4259  -12.7583 O   0  0  0  0  0  0  0  0  0  0  0  0
   16.4078   -3.9593  -13.4161 O   0  0  0  0  0  0  0  0  0  0  0  0
  2  1  1  1
  2  3  1  0
  4  2  1  0
  5  6  1  1
  5  4  1  0
  7  5  1  0
  8  7  2  0
 10  9  1  6
 10 11  1  0
 12 13  1  6
 12 10  1  0
 13  7  1  0
 14 12  1  0
 15 14  2  0
 16 14  1  0
 17 18  1  1
 17 16  1  0
 19 18  1  0
 20 21  1  0
 20 19  1  0
 22 21  1  0
 23 24  1  0
 23 17  1  0
 25 23  2  0
M  END
$$$$
