LTP.pdb
     RDKit          3D

 23 23  0  0  1  0  0  0  0  0999 V2000
    9.5047  -12.6572   19.2724 C   0  0  0  0  0  0  0  0  0  0  0  0
    8.4672  -13.7109   18.9593 C   0  0  2  0  0  0  0  0  0  0  0  0
    7.5010  -13.1656   17.9307 C   0  0  0  0  0  0  0  0  0  0  0  0
    7.7760  -14.0896   20.2328 C   0  0  0  0  0  0  0  0  0  0  0  0
    8.8088  -14.6145   21.2025 C   0  0  2  0  0  0  0  0  0  0  0  0
    9.4273  -15.8193   20.7326 N   0  0  0  0  0  0  0  0  0  0  0  0
    8.1816  -14.8091   22.5559 C   0  0  0  0  0  0  0  0  0  0  0  0
    7.3099  -13.9910   22.9344 O   0  0  0  0  0  0  0  0  0  0  0  0
    6.3583  -17.6752   23.9360 C   0  0  0  0  0  0  0  0  0  0  0  0
    7.5551  -17.4800   24.8411 C   0  0  1  0  0  0  0  0  0  0  0  0
    8.5851  -18.2928   24.3134 O   0  0  0  0  0  0  0  0  0  0  0  0
    8.0137  -16.0076   24.7831 C   0  0  2  0  0  0  0  0  0  0  0  0
    8.5285  -15.8616   23.4088 N   0  0  0  0  0  0  0  0  0  0  0  0
    9.1001  -15.7747   25.7653 C   0  0  0  0  0  0  0  0  0  0  0  0
   10.0754  -16.6054   25.6964 O   0  0  0  0  0  0  0  0  0  0  0  0
    9.1101  -14.7277   26.7275 N   0  0  0  0  0  0  0  0  0  0  0  0
    8.1877  -13.6428   26.7719 C   0  0  0  0  0  0  0  0  0  0  0  0
    8.0759  -13.4114   28.2922 C   0  0  0  0  0  0  0  0  0  0  0  0
    9.5634  -13.5169   28.6780 C   0  0  0  0  0  0  0  0  0  0  0  0
   10.0914  -14.5912   27.7531 C   0  0  1  0  0  0  0  0  0  0  0  0
   10.3144  -15.8575   28.5043 C   0  0  0  0  0  0  0  0  0  0  0  0
    9.5116  -16.7861   28.3817 O   0  0  0  0  0  0  0  0  0  0  0  0
   11.4090  -15.9694   29.3198 O   0  0  0  0  0  0  0  0  0  0  0  0
  2  3  1  6
  2  1  1  0
  4  2  1  0
  5  7  1  0
  5  4  1  0
  5  6  1  6
  7 13  1  0
  8  7  2  0
 10  9  1  6
 10 12  1  0
 11 10  1  0
 12 13  1  6
 12 14  1  0
 14 16  1  0
 15 14  2  0
 16 20  1  0
 16 17  1  0
 17 18  1  0
 19 18  1  0
 20 19  1  0
 20 21  1  1
 21 23  1  0
 22 21  2  0
M  END
$$$$
