LTP.pdb
     RDKit          3D

 23 23  0  0  1  0  0  0  0  0999 V2000
    9.7835  -13.2509   19.7502 C   0  0  0  0  0  0  0  0  0  0  0  0
    8.3695  -13.4595   19.2586 C   0  0  2  0  0  0  0  0  0  0  0  0
    7.8921  -12.1990   18.5714 C   0  0  0  0  0  0  0  0  0  0  0  0
    7.5082  -13.8205   20.4295 C   0  0  0  0  0  0  0  0  0  0  0  0
    8.0114  -15.1196   21.0138 C   0  0  2  0  0  0  0  0  0  0  0  0
    7.6193  -16.2527   20.2281 N   0  0  0  0  0  0  0  0  0  0  0  0
    7.5456  -15.2495   22.4383 C   0  0  0  0  0  0  0  0  0  0  0  0
    6.3758  -14.8963   22.7197 O   0  0  0  0  0  0  0  0  0  0  0  0
    6.1778  -17.4314   24.1351 C   0  0  0  0  0  0  0  0  0  0  0  0
    7.4037  -17.2673   25.0068 C   0  0  1  0  0  0  0  0  0  0  0  0
    8.3730  -18.1616   24.4962 O   0  0  0  0  0  0  0  0  0  0  0  0
    7.9453  -15.8284   24.8735 C   0  0  2  0  0  0  0  0  0  0  0  0
    8.3601  -15.7465   23.4606 N   0  0  0  0  0  0  0  0  0  0  0  0
    9.1165  -15.6417   25.7637 C   0  0  0  0  0  0  0  0  0  0  0  0
   10.0499  -16.5093   25.6145 O   0  0  0  0  0  0  0  0  0  0  0  0
    9.2459  -14.5998   26.7228 N   0  0  0  0  0  0  0  0  0  0  0  0
    8.3896  -13.4658   26.8257 C   0  0  0  0  0  0  0  0  0  0  0  0
    8.3882  -13.2333   28.3499 C   0  0  0  0  0  0  0  0  0  0  0  0
    9.8893  -13.4219   28.6397 C   0  0  0  0  0  0  0  0  0  0  0  0
   10.2968  -14.5209   27.6834 C   0  0  1  0  0  0  0  0  0  0  0  0
   10.4971  -15.7998   28.4194 C   0  0  0  0  0  0  0  0  0  0  0  0
    9.6435  -16.6868   28.3397 O   0  0  0  0  0  0  0  0  0  0  0  0
   11.6279  -15.9695   29.1734 O   0  0  0  0  0  0  0  0  0  0  0  0
  2  3  1  1
  2  1  1  0
  4  2  1  0
  5  7  1  0
  5  4  1  0
  5  6  1  6
  7 13  1  0
  8  7  2  0
 10  9  1  6
 10 12  1  0
 11 10  1  0
 12 13  1  6
 12 14  1  0
 14 16  1  0
 15 14  2  0
 16 20  1  0
 16 17  1  0
 17 18  1  0
 19 18  1  0
 20 19  1  0
 20 21  1  1
 21 23  1  0
 22 21  2  0
M  END
$$$$
