LTP.pdb
     RDKit          3D

 23 23  0  0  1  0  0  0  0  0999 V2000
    5.7159  -11.4184   25.4338 C   0  0  0  0  0  0  0  0  0  0  0  0
    6.1944  -12.0813   26.7052 C   0  0  2  0  0  0  0  0  0  0  0  0
    6.9955  -11.0843   27.5133 C   0  0  0  0  0  0  0  0  0  0  0  0
    7.0052  -13.2853   26.3367 C   0  0  0  0  0  0  0  0  0  0  0  0
    6.1191  -14.2492   25.5829 C   0  0  2  0  0  0  0  0  0  0  0  0
    5.1037  -14.8169   26.4205 N   0  0  0  0  0  0  0  0  0  0  0  0
    6.9620  -15.3159   24.9391 C   0  0  0  0  0  0  0  0  0  0  0  0
    7.1414  -16.3915   25.5583 O   0  0  0  0  0  0  0  0  0  0  0  0
    8.7088  -14.4735   21.2519 C   0  0  0  0  0  0  0  0  0  0  0  0
    8.1856  -15.8697   21.5102 C   0  0  1  0  0  0  0  0  0  0  0  0
    9.0095  -16.7438   20.7638 O   0  0  0  0  0  0  0  0  0  0  0  0
    8.3377  -16.2112   23.0074 C   0  0  2  0  0  0  0  0  0  0  0  0
    7.5532  -15.1598   23.6814 N   0  0  0  0  0  0  0  0  0  0  0  0
    9.7632  -16.1229   23.4066 C   0  0  0  0  0  0  0  0  0  0  0  0
   10.3076  -14.9779   23.2096 O   0  0  0  0  0  0  0  0  0  0  0  0
   10.5136  -17.1919   23.9689 N   0  0  0  0  0  0  0  0  0  0  0  0
    9.9779  -18.4477   24.3762 C   0  0  0  0  0  0  0  0  0  0  0  0
   11.1517  -19.3913   24.0460 C   0  0  0  0  0  0  0  0  0  0  0  0
   12.3207  -18.5452   24.5848 C   0  0  0  0  0  0  0  0  0  0  0  0
   11.9087  -17.1270   24.2570 C   0  0  1  0  0  0  0  0  0  0  0  0
   12.7063  -16.6075   23.1119 C   0  0  0  0  0  0  0  0  0  0  0  0
   12.2246  -16.6291   21.9765 O   0  0  0  0  0  0  0  0  0  0  0  0
   13.9634  -16.1136   23.3397 O   0  0  0  0  0  0  0  0  0  0  0  0
  2  3  1  6
  2  1  1  0
  4  2  1  0
  5  7  1  0
  5  4  1  0
  5  6  1  1
  7 13  1  0
  8  7  2  0
 10  9  1  1
 10 12  1  0
 11 10  1  0
 12 13  1  1
 12 14  1  0
 14 16  1  0
 15 14  2  0
 16 20  1  0
 16 17  1  0
 17 18  1  0
 19 18  1  0
 20 19  1  0
 20 21  1  6
 21 23  1  0
 22 21  2  0
M  END
$$$$
