LTP.pdb
     RDKit          3D

 23 23  0  0  1  0  0  0  0  0999 V2000
   10.0582  -13.5113   19.5021 C   0  0  0  0  0  0  0  0  0  0  0  0
    8.5886  -13.4921   19.1489 C   0  0  2  0  0  0  0  0  0  0  0  0
    8.2446  -12.1554   18.5295 C   0  0  0  0  0  0  0  0  0  0  0  0
    7.7979  -13.7536   20.3936 C   0  0  0  0  0  0  0  0  0  0  0  0
    8.1520  -15.1294   20.9078 C   0  0  2  0  0  0  0  0  0  0  0  0
    7.6557  -16.1689   20.0546 N   0  0  0  0  0  0  0  0  0  0  0  0
    7.6521  -15.2884   22.3177 C   0  0  0  0  0  0  0  0  0  0  0  0
    6.4138  -15.3137   22.5140 O   0  0  0  0  0  0  0  0  0  0  0  0
    6.2742  -17.1013   23.8164 C   0  0  0  0  0  0  0  0  0  0  0  0
    7.4622  -17.0646   24.7529 C   0  0  1  0  0  0  0  0  0  0  0  0
    8.4331  -17.9262   24.1920 O   0  0  0  0  0  0  0  0  0  0  0  0
    8.0422  -15.6352   24.7982 C   0  0  2  0  0  0  0  0  0  0  0  0
    8.5078  -15.4091   23.4171 N   0  0  0  0  0  0  0  0  0  0  0  0
    9.1859  -15.5805   25.7405 C   0  0  0  0  0  0  0  0  0  0  0  0
   10.1277  -16.4160   25.4933 O   0  0  0  0  0  0  0  0  0  0  0  0
    9.2819  -14.6908   26.8456 N   0  0  0  0  0  0  0  0  0  0  0  0
    8.3682  -13.6363   27.1342 C   0  0  0  0  0  0  0  0  0  0  0  0
    8.3909  -13.6386   28.6759 C   0  0  0  0  0  0  0  0  0  0  0  0
    9.9066  -13.7829   28.9100 C   0  0  0  0  0  0  0  0  0  0  0  0
   10.3498  -14.6988   27.7906 C   0  0  1  0  0  0  0  0  0  0  0  0
   10.6366  -16.0611   28.3189 C   0  0  0  0  0  0  0  0  0  0  0  0
    9.7920  -16.9514   28.1941 O   0  0  0  0  0  0  0  0  0  0  0  0
   11.8356  -16.3024   28.9355 O   0  0  0  0  0  0  0  0  0  0  0  0
  2  3  1  1
  2  1  1  0
  4  2  1  0
  5  7  1  0
  5  4  1  0
  5  6  1  6
  7 13  1  0
  8  7  2  0
 10  9  1  6
 10 12  1  0
 11 10  1  0
 12 13  1  6
 12 14  1  0
 14 16  1  0
 15 14  2  0
 16 20  1  0
 16 17  1  0
 17 18  1  0
 19 18  1  0
 20 19  1  0
 20 21  1  1
 21 23  1  0
 22 21  2  0
M  END
$$$$
