LTP.pdb
     RDKit          3D

 23 23  0  0  1  0  0  0  0  0999 V2000
    9.8556  -13.3944   19.4967 C   0  0  0  0  0  0  0  0  0  0  0  0
    8.3650  -13.2258   19.3117 C   0  0  2  0  0  0  0  0  0  0  0  0
    8.0792  -11.8146   18.8470 C   0  0  0  0  0  0  0  0  0  0  0  0
    7.6873  -13.5367   20.6105 C   0  0  0  0  0  0  0  0  0  0  0  0
    8.0495  -14.9462   21.0163 C   0  0  2  0  0  0  0  0  0  0  0  0
    7.5369  -15.9208   20.0984 N   0  0  0  0  0  0  0  0  0  0  0  0
    7.5750  -15.2081   22.4195 C   0  0  0  0  0  0  0  0  0  0  0  0
    6.3416  -15.1987   22.6455 O   0  0  0  0  0  0  0  0  0  0  0  0
    8.3661  -18.1230   24.3485 C   0  0  0  0  0  0  0  0  0  0  0  0
    7.3455  -17.0981   24.7932 C   0  0  1  0  0  0  0  0  0  0  0  0
    6.9486  -17.4769   26.0966 O   0  0  0  0  0  0  0  0  0  0  0  0
    8.0075  -15.7061   24.8670 C   0  0  2  0  0  0  0  0  0  0  0  0
    8.4491  -15.4613   23.4813 N   0  0  0  0  0  0  0  0  0  0  0  0
    9.1767  -15.7470   25.7783 C   0  0  0  0  0  0  0  0  0  0  0  0
    9.9826  -16.7247   25.5765 O   0  0  0  0  0  0  0  0  0  0  0  0
    9.4323  -14.8018   26.8095 N   0  0  0  0  0  0  0  0  0  0  0  0
    8.6912  -13.6051   27.0302 C   0  0  0  0  0  0  0  0  0  0  0  0
    8.7558  -13.4963   28.5669 C   0  0  0  0  0  0  0  0  0  0  0  0
   10.2397  -13.8458   28.7869 C   0  0  0  0  0  0  0  0  0  0  0  0
   10.5130  -14.8978   27.7348 C   0  0  1  0  0  0  0  0  0  0  0  0
   10.6116  -16.2446   28.3623 C   0  0  0  0  0  0  0  0  0  0  0  0
   11.6425  -16.5621   28.9606 O   0  0  0  0  0  0  0  0  0  0  0  0
    9.5538  -17.1091   28.2641 O   0  0  0  0  0  0  0  0  0  0  0  0
  2  3  1  1
  2  1  1  0
  4  2  1  0
  5  7  1  0
  5  4  1  0
  5  6  1  6
  7 13  1  0
  8  7  2  0
 10  9  1  1
 10 12  1  0
 11 10  1  0
 12 13  1  6
 12 14  1  0
 14 16  1  0
 15 14  2  0
 16 20  1  0
 16 17  1  0
 17 18  1  0
 19 18  1  0
 20 19  1  0
 20 21  1  1
 21 23  1  0
 22 21  2  0
M  END
$$$$
