LTP.pdb
     RDKit          3D

 23 23  0  0  1  0  0  0  0  0999 V2000
   10.0871  -13.3328   19.6589 C   0  0  0  0  0  0  0  0  0  0  0  0
    8.8166  -13.5888   18.8811 C   0  0  2  0  0  0  0  0  0  0  0  0
    8.4501  -12.3426   18.1055 C   0  0  0  0  0  0  0  0  0  0  0  0
    7.7415  -13.9859   19.8452 C   0  0  0  0  0  0  0  0  0  0  0  0
    8.2058  -15.2050   20.6072 C   0  0  2  0  0  0  0  0  0  0  0  0
    8.0848  -16.4047   19.8319 N   0  0  0  0  0  0  0  0  0  0  0  0
    7.4522  -15.3097   21.9050 C   0  0  0  0  0  0  0  0  0  0  0  0
    6.2001  -15.2483   21.8763 O   0  0  0  0  0  0  0  0  0  0  0  0
    6.2823  -17.6144   23.7638 C   0  0  0  0  0  0  0  0  0  0  0  0
    7.2241  -16.9727   24.7593 C   0  0  1  0  0  0  0  0  0  0  0  0
    8.4771  -17.6031   24.5795 O   0  0  0  0  0  0  0  0  0  0  0  0
    7.3784  -15.4722   24.4335 C   0  0  2  0  0  0  0  0  0  0  0  0
    8.0873  -15.4722   23.1402 N   0  0  0  0  0  0  0  0  0  0  0  0
    8.2045  -14.8092   25.4713 C   0  0  0  0  0  0  0  0  0  0  0  0
    9.3901  -15.2826   25.5994 O   0  0  0  0  0  0  0  0  0  0  0  0
    7.7664  -13.7294   26.2863 N   0  0  0  0  0  0  0  0  0  0  0  0
    6.5351  -13.0295   26.1318 C   0  0  0  0  0  0  0  0  0  0  0  0
    6.1986  -12.6953   27.5989 C   0  0  0  0  0  0  0  0  0  0  0  0
    7.5885  -12.2424   28.0844 C   0  0  0  0  0  0  0  0  0  0  0  0
    8.5361  -13.1589   27.3425 C   0  0  1  0  0  0  0  0  0  0  0  0
    9.0918  -14.1866   28.2657 C   0  0  0  0  0  0  0  0  0  0  0  0
    8.6514  -15.3383   28.2287 O   0  0  0  0  0  0  0  0  0  0  0  0
   10.0841  -13.8346   29.1417 O   0  0  0  0  0  0  0  0  0  0  0  0
  2  3  1  1
  2  1  1  0
  4  2  1  0
  5  7  1  0
  5  4  1  0
  5  6  1  6
  7 13  1  0
  8  7  2  0
 10  9  1  6
 10 12  1  0
 11 10  1  0
 12 13  1  6
 12 14  1  0
 14 16  1  0
 15 14  2  0
 16 20  1  0
 16 17  1  0
 17 18  1  0
 19 18  1  0
 20 19  1  0
 20 21  1  1
 21 23  1  0
 22 21  2  0
M  END
$$$$
