LTP.pdb
     RDKit          3D

 23 23  0  0  1  0  0  0  0  0999 V2000
    6.0026  -12.1060   25.6883 C   0  0  0  0  0  0  0  0  0  0  0  0
    6.6875  -12.7882   26.8503 C   0  0  2  0  0  0  0  0  0  0  0  0
    7.5460  -11.7798   27.5817 C   0  0  0  0  0  0  0  0  0  0  0  0
    7.4951  -13.9325   26.3200 C   0  0  0  0  0  0  0  0  0  0  0  0
    6.5860  -14.8286   25.5119 C   0  0  2  0  0  0  0  0  0  0  0  0
    5.6355  -15.5169   26.3351 N   0  0  0  0  0  0  0  0  0  0  0  0
    7.4111  -15.7904   24.7013 C   0  0  0  0  0  0  0  0  0  0  0  0
    7.6053  -16.9427   25.1561 O   0  0  0  0  0  0  0  0  0  0  0  0
    7.2061  -15.6791   20.8850 C   0  0  0  0  0  0  0  0  0  0  0  0
    8.6716  -15.8278   21.2310 C   0  0  1  0  0  0  0  0  0  0  0  0
    9.2217  -14.5259   21.1845 O   0  0  0  0  0  0  0  0  0  0  0  0
    8.8120  -16.3687   22.6695 C   0  0  2  0  0  0  0  0  0  0  0  0
    7.9701  -15.4549   23.4642 N   0  0  0  0  0  0  0  0  0  0  0  0
   10.2249  -16.2787   23.1107 C   0  0  0  0  0  0  0  0  0  0  0  0
   10.6969  -15.0869   23.1653 O   0  0  0  0  0  0  0  0  0  0  0  0
   11.0364  -17.3933   23.4588 N   0  0  0  0  0  0  0  0  0  0  0  0
   10.5820  -18.7392   23.5678 C   0  0  0  0  0  0  0  0  0  0  0  0
   11.8268  -19.5117   23.0871 C   0  0  0  0  0  0  0  0  0  0  0  0
   12.9205  -18.7284   23.8374 C   0  0  0  0  0  0  0  0  0  0  0  0
   12.4165  -17.3025   23.8057 C   0  0  1  0  0  0  0  0  0  0  0  0
   13.2008  -16.4977   22.8286 C   0  0  0  0  0  0  0  0  0  0  0  0
   12.7950  -16.3859   21.6691 O   0  0  0  0  0  0  0  0  0  0  0  0
   14.3612  -15.8943   23.2352 O   0  0  0  0  0  0  0  0  0  0  0  0
  2  3  1  6
  2  1  1  0
  4  2  1  0
  5  7  1  0
  5  4  1  0
  5  6  1  1
  7 13  1  0
  8  7  2  0
 10  9  1  1
 10 12  1  0
 11 10  1  0
 12 13  1  1
 12 14  1  0
 14 16  1  0
 15 14  2  0
 16 20  1  0
 16 17  1  0
 17 18  1  0
 19 18  1  0
 20 19  1  0
 20 21  1  6
 21 23  1  0
 22 21  2  0
M  END
$$$$
