LTP.pdb
     RDKit          3D

 23 23  0  0  1  0  0  0  0  0999 V2000
    7.9856  -13.2467   20.9486 C   0  0  0  0  0  0  0  0  0  0  0  0
    8.6024  -13.6537   19.6301 C   0  0  2  0  0  0  0  0  0  0  0  0
    8.2636  -12.6160   18.5825 C   0  0  0  0  0  0  0  0  0  0  0  0
    8.0856  -15.0106   19.2630 C   0  0  0  0  0  0  0  0  0  0  0  0
    8.4513  -15.9782   20.3642 C   0  0  2  0  0  0  0  0  0  0  0  0
    8.3690  -17.3429   19.9332 N   0  0  0  0  0  0  0  0  0  0  0  0
    7.5849  -15.7277   21.5682 C   0  0  0  0  0  0  0  0  0  0  0  0
    6.3501  -15.9214   21.4674 O   0  0  0  0  0  0  0  0  0  0  0  0
    6.1287  -17.2350   23.0579 C   0  0  0  0  0  0  0  0  0  0  0  0
    6.9364  -16.7591   24.2457 C   0  0  1  0  0  0  0  0  0  0  0  0
    8.1184  -17.5354   24.2552 O   0  0  0  0  0  0  0  0  0  0  0  0
    7.3235  -15.2783   24.0491 C   0  0  2  0  0  0  0  0  0  0  0  0
    8.0968  -15.2887   22.7933 N   0  0  0  0  0  0  0  0  0  0  0  0
    8.1768  -14.8224   25.1731 C   0  0  0  0  0  0  0  0  0  0  0  0
    9.2786  -15.4658   25.3079 O   0  0  0  0  0  0  0  0  0  0  0  0
    7.8475  -13.7608   26.0600 N   0  0  0  0  0  0  0  0  0  0  0  0
    6.6698  -12.9624   25.9856 C   0  0  0  0  0  0  0  0  0  0  0  0
    6.4036  -12.6877   27.4792 C   0  0  0  0  0  0  0  0  0  0  0  0
    7.8381  -12.3692   27.9413 C   0  0  0  0  0  0  0  0  0  0  0  0
    8.6898  -13.3108   27.1190 C   0  0  1  0  0  0  0  0  0  0  0  0
    9.1916  -14.4283   27.9657 C   0  0  0  0  0  0  0  0  0  0  0  0
    8.6299  -15.5255   27.9189 O   0  0  0  0  0  0  0  0  0  0  0  0
   10.2702  -14.2180   28.7832 O   0  0  0  0  0  0  0  0  0  0  0  0
  2  3  1  6
  2  1  1  0
  4  2  1  0
  5  7  1  0
  5  4  1  0
  5  6  1  6
  7 13  1  0
  8  7  2  0
 10  9  1  6
 10 12  1  0
 11 10  1  0
 12 13  1  6
 12 14  1  0
 14 16  1  0
 15 14  2  0
 16 20  1  0
 16 17  1  0
 17 18  1  0
 19 18  1  0
 20 19  1  0
 20 21  1  1
 21 23  1  0
 22 21  2  0
M  END
$$$$
