LTP.pdb
     RDKit          3D

 23 23  0  0  1  0  0  0  0  0999 V2000
   10.0403  -13.4196   19.3488 C   0  0  0  0  0  0  0  0  0  0  0  0
    8.6127  -13.5478   18.8692 C   0  0  2  0  0  0  0  0  0  0  0  0
    8.2107  -12.2726   18.1614 C   0  0  0  0  0  0  0  0  0  0  0  0
    7.7385  -13.8325   20.0515 C   0  0  0  0  0  0  0  0  0  0  0  0
    8.1951  -15.1250   20.6866 C   0  0  2  0  0  0  0  0  0  0  0  0
    7.9783  -16.2537   19.8299 N   0  0  0  0  0  0  0  0  0  0  0  0
    7.5156  -15.3046   22.0167 C   0  0  0  0  0  0  0  0  0  0  0  0
    6.3147  -15.6652   22.0311 O   0  0  0  0  0  0  0  0  0  0  0  0
    6.2261  -17.1472   23.4577 C   0  0  0  0  0  0  0  0  0  0  0  0
    7.2432  -16.8417   24.5357 C   0  0  1  0  0  0  0  0  0  0  0  0
    8.4234  -17.5299   24.1704 O   0  0  0  0  0  0  0  0  0  0  0  0
    7.5428  -15.3280   24.5513 C   0  0  2  0  0  0  0  0  0  0  0  0
    8.1649  -15.0869   23.2360 N   0  0  0  0  0  0  0  0  0  0  0  0
    8.5009  -15.0106   25.6378 C   0  0  0  0  0  0  0  0  0  0  0  0
    9.5597  -15.7351   25.6505 O   0  0  0  0  0  0  0  0  0  0  0  0
    8.3103  -13.9935   26.6131 N   0  0  0  0  0  0  0  0  0  0  0  0
    7.1667  -13.1490   26.7079 C   0  0  0  0  0  0  0  0  0  0  0  0
    7.0670  -12.9562   28.2344 C   0  0  0  0  0  0  0  0  0  0  0  0
    8.5536  -12.7197   28.5609 C   0  0  0  0  0  0  0  0  0  0  0  0
    9.2752  -13.6404   27.6018 C   0  0  1  0  0  0  0  0  0  0  0  0
    9.8124  -14.8252   28.3265 C   0  0  0  0  0  0  0  0  0  0  0  0
   10.8405  -14.7115   28.9986 O   0  0  0  0  0  0  0  0  0  0  0  0
    9.1544  -16.0228   28.2339 O   0  0  0  0  0  0  0  0  0  0  0  0
  2  3  1  1
  2  1  1  0
  4  2  1  0
  5  7  1  0
  5  4  1  0
  5  6  1  6
  7 13  1  0
  8  7  2  0
 10  9  1  6
 10 12  1  0
 11 10  1  0
 12 13  1  6
 12 14  1  0
 14 16  1  0
 15 14  2  0
 16 20  1  0
 16 17  1  0
 17 18  1  0
 19 18  1  0
 20 19  1  0
 20 21  1  1
 21 23  1  0
 22 21  2  0
M  END
$$$$
