LTP.pdb
     RDKit          3D

 23 23  0  0  1  0  0  0  0  0999 V2000
    7.7811  -12.3434   19.0429 C   0  0  0  0  0  0  0  0  0  0  0  0
    8.4919  -13.3855   19.8757 C   0  0  2  0  0  0  0  0  0  0  0  0
    9.9689  -13.0613   19.9211 C   0  0  0  0  0  0  0  0  0  0  0  0
    8.2314  -14.7322   19.2745 C   0  0  0  0  0  0  0  0  0  0  0  0
    8.5831  -15.7899   20.2942 C   0  0  2  0  0  0  0  0  0  0  0  0
    8.5302  -17.1115   19.7415 N   0  0  0  0  0  0  0  0  0  0  0  0
    7.6840  -15.6580   21.4930 C   0  0  0  0  0  0  0  0  0  0  0  0
    6.4796  -15.9871   21.3766 O   0  0  0  0  0  0  0  0  0  0  0  0
    6.2954  -17.2513   22.9907 C   0  0  0  0  0  0  0  0  0  0  0  0
    7.0169  -16.6798   24.1918 C   0  0  1  0  0  0  0  0  0  0  0  0
    8.2467  -17.3724   24.2792 O   0  0  0  0  0  0  0  0  0  0  0  0
    7.3122  -15.1837   23.9552 C   0  0  2  0  0  0  0  0  0  0  0  0
    8.1331  -15.1846   22.7299 N   0  0  0  0  0  0  0  0  0  0  0  0
    8.0884  -14.6328   25.0923 C   0  0  0  0  0  0  0  0  0  0  0  0
    9.2534  -15.1472   25.2484 O   0  0  0  0  0  0  0  0  0  0  0  0
    7.6257  -13.6139   25.9697 N   0  0  0  0  0  0  0  0  0  0  0  0
    6.4313  -12.8574   25.7941 C   0  0  0  0  0  0  0  0  0  0  0  0
    5.9991  -12.6424   27.2584 C   0  0  0  0  0  0  0  0  0  0  0  0
    7.3632  -12.2868   27.8791 C   0  0  0  0  0  0  0  0  0  0  0  0
    8.3335  -13.1687   27.1248 C   0  0  1  0  0  0  0  0  0  0  0  0
    8.7881  -14.2945   27.9871 C   0  0  0  0  0  0  0  0  0  0  0  0
    8.2752  -15.4082   27.8526 O   0  0  0  0  0  0  0  0  0  0  0  0
    9.7698  -14.0732   28.9162 O   0  0  0  0  0  0  0  0  0  0  0  0
  2  3  1  6
  2  1  1  0
  4  2  1  0
  5  7  1  0
  5  4  1  0
  5  6  1  6
  7 13  1  0
  8  7  2  0
 10  9  1  6
 10 12  1  0
 11 10  1  0
 12 13  1  6
 12 14  1  0
 14 16  1  0
 15 14  2  0
 16 20  1  0
 16 17  1  0
 17 18  1  0
 19 18  1  0
 20 19  1  0
 20 21  1  1
 21 23  1  0
 22 21  2  0
M  END
$$$$
