LTP.pdb
     RDKit          3D

 23 23  0  0  1  0  0  0  0  0999 V2000
    8.4482  -12.8518   27.5304 C   0  0  0  0  0  0  0  0  0  0  0  0
    7.4517  -12.6098   26.4199 C   0  0  2  0  0  0  0  0  0  0  0  0
    6.7065  -11.3220   26.6941 C   0  0  0  0  0  0  0  0  0  0  0  0
    6.5288  -13.7869   26.3454 C   0  0  0  0  0  0  0  0  0  0  0  0
    7.2826  -14.9514   25.7470 C   0  0  2  0  0  0  0  0  0  0  0  0
    8.6962  -14.8462   25.9600 N   0  0  0  0  0  0  0  0  0  0  0  0
    6.9535  -15.0711   24.2840 C   0  0  0  0  0  0  0  0  0  0  0  0
    6.1588  -14.2423   23.7799 O   0  0  0  0  0  0  0  0  0  0  0  0
    7.0899  -13.6842   22.2067 C   0  0  0  0  0  0  0  0  0  0  0  0
    7.7395  -14.8269   21.4572 C   0  0  1  0  0  0  0  0  0  0  0  0
    9.1263  -14.7308   21.7168 O   0  0  0  0  0  0  0  0  0  0  0  0
    7.2275  -16.1709   22.0167 C   0  0  2  0  0  0  0  0  0  0  0  0
    7.4950  -16.0654   23.4633 N   0  0  0  0  0  0  0  0  0  0  0  0
    8.0017  -17.2927   21.4324 C   0  0  0  0  0  0  0  0  0  0  0  0
    9.2356  -17.3346   21.7814 O   0  0  0  0  0  0  0  0  0  0  0  0
    7.4670  -18.2722   20.5512 N   0  0  0  0  0  0  0  0  0  0  0  0
    6.1111  -18.3366   20.1185 C   0  0  0  0  0  0  0  0  0  0  0  0
    6.2830  -18.8816   18.6864 C   0  0  0  0  0  0  0  0  0  0  0  0
    7.3337  -19.9761   18.9527 C   0  0  0  0  0  0  0  0  0  0  0  0
    8.2123  -19.3673   20.0231 C   0  0  1  0  0  0  0  0  0  0  0  0
    9.5175  -18.9452   19.4436 C   0  0  0  0  0  0  0  0  0  0  0  0
    9.6919  -17.7634   19.1360 O   0  0  0  0  0  0  0  0  0  0  0  0
   10.5035  -19.8782   19.2619 O   0  0  0  0  0  0  0  0  0  0  0  0
  2  3  1  1
  2  1  1  0
  4  2  1  0
  5  7  1  0
  5  4  1  0
  5  6  1  6
  7 13  1  0
  8  7  2  0
 10  9  1  1
 10 12  1  0
 11 10  1  0
 12 13  1  1
 12 14  1  0
 14 16  1  0
 15 14  2  0
 16 20  1  0
 16 17  1  0
 17 18  1  0
 19 18  1  0
 20 19  1  0
 20 21  1  6
 21 23  1  0
 22 21  2  0
M  END
$$$$
