LTP.pdb
     RDKit          3D

 23 23  0  0  1  0  0  0  0  0999 V2000
    8.7815  -13.7678   28.2433 C   0  0  0  0  0  0  0  0  0  0  0  0
    9.8051  -14.8312   28.5690 C   0  0  2  0  0  0  0  0  0  0  0  0
   10.7942  -14.2775   29.5709 C   0  0  0  0  0  0  0  0  0  0  0  0
   10.4726  -15.2533   27.2965 C   0  0  0  0  0  0  0  0  0  0  0  0
    9.4060  -15.6559   26.3050 C   0  0  2  0  0  0  0  0  0  0  0  0
    9.1500  -17.0661   26.3305 N   0  0  0  0  0  0  0  0  0  0  0  0
    9.7923  -15.1911   24.9274 C   0  0  0  0  0  0  0  0  0  0  0  0
   10.1288  -13.9931   24.7728 O   0  0  0  0  0  0  0  0  0  0  0  0
   11.5185  -16.3394   20.5210 C   0  0  0  0  0  0  0  0  0  0  0  0
   11.1173  -16.6503   21.9465 C   0  0  1  0  0  0  0  0  0  0  0  0
   12.2974  -16.5494   22.7191 O   0  0  0  0  0  0  0  0  0  0  0  0
   10.1125  -15.5903   22.4448 C   0  0  2  0  0  0  0  0  0  0  0  0
    9.7922  -16.0366   23.8135 N   0  0  0  0  0  0  0  0  0  0  0  0
    8.8934  -15.6092   21.6006 C   0  0  0  0  0  0  0  0  0  0  0  0
    8.3013  -16.7455   21.5353 O   0  0  0  0  0  0  0  0  0  0  0  0
    8.3777  -14.4850   20.8990 N   0  0  0  0  0  0  0  0  0  0  0  0
    8.7706  -13.1320   21.1114 C   0  0  0  0  0  0  0  0  0  0  0  0
    8.6518  -12.5618   19.6838 C   0  0  0  0  0  0  0  0  0  0  0  0
    7.3101  -13.1927   19.2661 C   0  0  0  0  0  0  0  0  0  0  0  0
    7.3447  -14.5570   19.9187 C   0  0  1  0  0  0  0  0  0  0  0  0
    7.5958  -15.6127   18.8989 C   0  0  0  0  0  0  0  0  0  0  0  0
    8.7459  -16.0194   18.7160 O   0  0  0  0  0  0  0  0  0  0  0  0
    6.5433  -16.1146   18.1803 O   0  0  0  0  0  0  0  0  0  0  0  0
  2  3  1  1
  2  1  1  0
  4  2  1  0
  5  7  1  0
  5  4  1  0
  5  6  1  6
  7 13  1  0
  8  7  2  0
 10  9  1  6
 10 12  1  0
 11 10  1  0
 12 13  1  1
 12 14  1  0
 14 16  1  0
 15 14  2  0
 16 20  1  0
 16 17  1  0
 17 18  1  0
 19 18  1  0
 20 19  1  0
 20 21  1  6
 21 23  1  0
 22 21  2  0
M  END
$$$$
