LTP.pdb
     RDKit          3D

 23 23  0  0  1  0  0  0  0  0999 V2000
    6.9303  -11.7161   25.2178 C   0  0  0  0  0  0  0  0  0  0  0  0
    6.7372  -12.4912   26.5010 C   0  0  2  0  0  0  0  0  0  0  0  0
    7.3172  -11.6983   27.6516 C   0  0  0  0  0  0  0  0  0  0  0  0
    7.3967  -13.8276   26.3521 C   0  0  0  0  0  0  0  0  0  0  0  0
    6.6429  -14.6222   25.3114 C   0  0  2  0  0  0  0  0  0  0  0  0
    5.2863  -14.8723   25.7012 N   0  0  0  0  0  0  0  0  0  0  0  0
    7.3772  -15.9024   25.0202 C   0  0  0  0  0  0  0  0  0  0  0  0
    7.1216  -16.9111   25.7199 O   0  0  0  0  0  0  0  0  0  0  0  0
    7.6841  -17.6139   21.7515 C   0  0  0  0  0  0  0  0  0  0  0  0
    9.1026  -17.3709   22.2190 C   0  0  1  0  0  0  0  0  0  0  0  0
    9.4988  -16.1376   21.6517 O   0  0  0  0  0  0  0  0  0  0  0  0
    9.1250  -17.2336   23.7560 C   0  0  2  0  0  0  0  0  0  0  0  0
    8.3314  -16.0155   24.0042 N   0  0  0  0  0  0  0  0  0  0  0  0
   10.5177  -17.0437   24.2290 C   0  0  0  0  0  0  0  0  0  0  0  0
   11.1686  -16.1158   23.6279 O   0  0  0  0  0  0  0  0  0  0  0  0
   11.1311  -17.8019   25.2639 N   0  0  0  0  0  0  0  0  0  0  0  0
   10.4527  -18.6980   26.1395 C   0  0  0  0  0  0  0  0  0  0  0  0
   11.5338  -19.7758   26.3555 C   0  0  0  0  0  0  0  0  0  0  0  0
   12.7631  -18.8697   26.5570 C   0  0  0  0  0  0  0  0  0  0  0  0
   12.5134  -17.7213   25.6047 C   0  0  1  0  0  0  0  0  0  0  0  0
   13.4036  -17.8312   24.4160 C   0  0  0  0  0  0  0  0  0  0  0  0
   14.5905  -17.5100   24.5141 O   0  0  0  0  0  0  0  0  0  0  0  0
   12.8879  -18.2880   23.2322 O   0  0  0  0  0  0  0  0  0  0  0  0
  2  3  1  1
  2  1  1  0
  4  2  1  0
  5  7  1  0
  5  4  1  0
  5  6  1  1
  7 13  1  0
  8  7  2  0
 10  9  1  6
 10 12  1  0
 11 10  1  0
 12 13  1  6
 12 14  1  0
 14 16  1  0
 15 14  2  0
 16 20  1  0
 16 17  1  0
 17 18  1  0
 19 18  1  0
 20 19  1  0
 20 21  1  6
 21 23  1  0
 22 21  2  0
M  END
$$$$
