LTP.pdb
     RDKit          3D

 23 23  0  0  1  0  0  0  0  0999 V2000
    9.3986  -12.7868   19.4011 C   0  0  0  0  0  0  0  0  0  0  0  0
    8.2340  -13.7351   19.2305 C   0  0  2  0  0  0  0  0  0  0  0  0
    7.2096  -13.1029   18.3141 C   0  0  0  0  0  0  0  0  0  0  0  0
    7.6659  -14.0375   20.5828 C   0  0  0  0  0  0  0  0  0  0  0  0
    8.7591  -14.6283   21.4421 C   0  0  2  0  0  0  0  0  0  0  0  0
    9.1717  -15.9203   20.9781 N   0  0  0  0  0  0  0  0  0  0  0  0
    8.3072  -14.6766   22.8761 C   0  0  0  0  0  0  0  0  0  0  0  0
    7.6325  -13.7188   23.3233 O   0  0  0  0  0  0  0  0  0  0  0  0
    6.0787  -16.8996   24.3939 C   0  0  0  0  0  0  0  0  0  0  0  0
    7.3359  -17.0829   25.2158 C   0  0  1  0  0  0  0  0  0  0  0  0
    8.0544  -18.1380   24.6072 O   0  0  0  0  0  0  0  0  0  0  0  0
    8.1925  -15.8012   25.1449 C   0  0  2  0  0  0  0  0  0  0  0  0
    8.6069  -15.7422   23.7307 N   0  0  0  0  0  0  0  0  0  0  0  0
    9.3806  -15.9347   26.0223 C   0  0  0  0  0  0  0  0  0  0  0  0
   10.1011  -16.9725   25.7987 O   0  0  0  0  0  0  0  0  0  0  0  0
    9.7390  -15.0135   27.0445 N   0  0  0  0  0  0  0  0  0  0  0  0
    9.1569  -13.7269   27.2332 C   0  0  0  0  0  0  0  0  0  0  0  0
    9.2078  -13.6013   28.7691 C   0  0  0  0  0  0  0  0  0  0  0  0
   10.6292  -14.1376   29.0235 C   0  0  0  0  0  0  0  0  0  0  0  0
   10.7813  -15.2339   27.9924 C   0  0  1  0  0  0  0  0  0  0  0  0
   10.6918  -16.5713   28.6413 C   0  0  0  0  0  0  0  0  0  0  0  0
    9.6786  -17.2568   28.4829 O   0  0  0  0  0  0  0  0  0  0  0  0
   11.7381  -17.0177   29.4041 O   0  0  0  0  0  0  0  0  0  0  0  0
  2  3  1  6
  2  1  1  0
  4  2  1  0
  5  7  1  0
  5  4  1  0
  5  6  1  6
  7 13  1  0
  8  7  2  0
 10  9  1  6
 10 12  1  0
 11 10  1  0
 12 13  1  6
 12 14  1  0
 14 16  1  0
 15 14  2  0
 16 20  1  0
 16 17  1  0
 17 18  1  0
 19 18  1  0
 20 19  1  0
 20 21  1  1
 21 23  1  0
 22 21  2  0
M  END
$$$$
