ECW.pdb
     RDKit          3D

 30 31  0  0  1  0  0  0  0  0999 V2000
    9.8504  -16.5905   19.0235 N   0  0  0  0  0  0  0  0  0  0  0  0
    8.5800  -15.9079   18.8861 C   0  0  1  0  0  0  0  0  0  0  0  0
    7.8490  -16.5491   17.7295 C   0  0  0  0  0  0  0  0  0  0  0  0
    7.8841  -15.6024   16.5502 C   0  0  0  0  0  0  0  0  0  0  0  0
    8.8162  -16.0285   15.5065 C   0  0  0  0  0  0  0  0  0  0  0  0
    8.5797  -17.0474   14.8112 O   0  0  0  0  0  0  0  0  0  0  0  0
    7.8520  -15.9863   20.1480 C   0  0  0  0  0  0  0  0  0  0  0  0
    6.6325  -15.6814   20.1859 O   0  0  0  0  0  0  0  0  0  0  0  0
    9.9849  -15.3136   15.2625 O   0  0  0  0  0  0  0  0  0  0  0  0
    8.5288  -16.4102   21.3381 N   0  0  0  0  0  0  0  0  0  0  0  0
    7.8511  -16.5924   22.5808 C   0  0  1  0  0  0  0  0  0  0  0  0
    6.7069  -17.5792   22.4450 C   0  0  0  0  0  0  0  0  0  0  0  0
    6.3970  -18.4128   24.0421 S   0  0  0  0  0  0  0  0  0  0  0  0
    8.7796  -17.0459   23.6765 C   0  0  0  0  0  0  0  0  0  0  0  0
    9.4707  -18.0685   23.4719 O   0  0  0  0  0  0  0  0  0  0  0  0
    8.8344  -16.3148   24.8706 N   0  0  0  0  0  0  0  0  0  0  0  0
   10.0228  -16.1482   25.6756 C   0  0  1  0  0  0  0  0  0  0  0  0
   10.0245  -14.8317   26.3972 C   0  0  0  0  0  0  0  0  0  0  0  0
    8.6801  -14.3464   26.7199 C   0  0  0  0  0  0  0  0  0  0  0  0
    7.8604  -14.7909   27.7280 C   0  0  0  0  0  0  0  0  0  0  0  0
    6.7160  -14.1140   27.7094 N   0  0  0  0  0  0  0  0  0  0  0  0
    6.7841  -13.2290   26.6936 C   0  0  0  0  0  0  0  0  0  0  0  0
    5.8863  -12.2782   26.2187 C   0  0  0  0  0  0  0  0  0  0  0  0
    6.2084  -11.4822   25.1402 C   0  0  0  0  0  0  0  0  0  0  0  0
    7.4464  -11.6319   24.5199 C   0  0  0  0  0  0  0  0  0  0  0  0
    8.3403  -12.5532   24.9652 C   0  0  0  0  0  0  0  0  0  0  0  0
    8.0041  -13.3435   26.0462 C   0  0  0  0  0  0  0  0  0  0  0  0
   10.1392  -17.3041   26.5992 C   0  0  0  0  0  0  0  0  0  0  0  0
   11.1761  -17.4569   27.2732 O   0  0  0  0  0  0  0  0  0  0  0  0
    9.1242  -18.2440   26.7505 O   0  0  0  0  0  0  0  0  0  0  0  0
  2  1  1  1
  2  7  1  0
  3  2  1  0
  3  4  1  0
  4  5  1  0
  5  6  2  0
  5  9  1  0
  7  8  2  0
 10 11  1  0
 10  7  1  0
 11 14  1  0
 12 13  1  0
 11 12  1  6
 14 15  2  0
 16 17  1  0
 16 14  1  0
 17 28  1  0
 17 18  1  1
 19 27  1  0
 19 18  1  0
 20 19  2  0
 21 20  1  0
 21 22  1  0
 22 27  2  0
 23 22  1  0
 23 24  2  0
 24 25  1  0
 25 26  2  0
 27 26  1  0
 28 29  2  0
 28 30  1  0
M  END
$$$$
