ECW.pdb
     RDKit          3D

 30 31  0  0  1  0  0  0  0  0999 V2000
   10.9527  -17.4782   18.0315 N   0  0  0  0  0  0  0  0  0  0  0  0
   10.5891  -17.9308   19.3588 C   0  0  1  0  0  0  0  0  0  0  0  0
   11.6390  -18.9252   19.7970 C   0  0  0  0  0  0  0  0  0  0  0  0
   12.4058  -19.3882   18.5779 C   0  0  0  0  0  0  0  0  0  0  0  0
   12.0188  -20.7283   18.1378 C   0  0  0  0  0  0  0  0  0  0  0  0
   11.8846  -21.6627   18.9664 O   0  0  0  0  0  0  0  0  0  0  0  0
   10.4748  -16.7784   20.2462 C   0  0  0  0  0  0  0  0  0  0  0  0
   11.4568  -16.0078   20.3992 O   0  0  0  0  0  0  0  0  0  0  0  0
   11.7915  -20.9961   16.7912 O   0  0  0  0  0  0  0  0  0  0  0  0
    9.2453  -16.5295   20.9391 N   0  0  0  0  0  0  0  0  0  0  0  0
    9.1039  -15.4792   21.8950 C   0  0  1  0  0  0  0  0  0  0  0  0
    7.8274  -14.6925   21.6647 C   0  0  0  0  0  0  0  0  0  0  0  0
    6.3698  -15.7752   21.8763 S   0  0  0  0  0  0  0  0  0  0  0  0
    9.1325  -15.9889   23.3119 C   0  0  0  0  0  0  0  0  0  0  0  0
    8.4157  -16.9748   23.5936 O   0  0  0  0  0  0  0  0  0  0  0  0
    9.9507  -15.3476   24.2514 N   0  0  0  0  0  0  0  0  0  0  0  0
   10.0703  -15.7397   25.6370 C   0  0  1  0  0  0  0  0  0  0  0  0
    8.7923  -16.3294   26.1594 C   0  0  0  0  0  0  0  0  0  0  0  0
    7.6561  -15.4072   26.0851 C   0  0  0  0  0  0  0  0  0  0  0  0
    6.4013  -15.6786   25.5977 C   0  0  0  0  0  0  0  0  0  0  0  0
    5.6376  -14.5940   25.6909 N   0  0  0  0  0  0  0  0  0  0  0  0
    6.3877  -13.6149   26.2372 C   0  0  0  0  0  0  0  0  0  0  0  0
    6.1073  -12.2912   26.5609 C   0  0  0  0  0  0  0  0  0  0  0  0
    7.0731  -11.4839   27.1231 C   0  0  0  0  0  0  0  0  0  0  0  0
    8.3431  -12.0000   27.3696 C   0  0  0  0  0  0  0  0  0  0  0  0
    8.6412  -13.2895   27.0625 C   0  0  0  0  0  0  0  0  0  0  0  0
    7.6642  -14.0863   26.4999 C   0  0  0  0  0  0  0  0  0  0  0  0
   11.2221  -16.6657   25.7730 C   0  0  0  0  0  0  0  0  0  0  0  0
   11.5166  -17.1286   26.8920 O   0  0  0  0  0  0  0  0  0  0  0  0
   12.0044  -17.0487   24.6877 O   0  0  0  0  0  0  0  0  0  0  0  0
  2  1  1  6
  2  7  1  0
  3  2  1  0
  3  4  1  0
  4  5  1  0
  5  6  2  0
  5  9  1  0
  7  8  2  0
 10 11  1  0
 10  7  1  0
 11 14  1  0
 12 13  1  0
 11 12  1  6
 14 15  2  0
 16 17  1  0
 16 14  1  0
 17 28  1  0
 17 18  1  6
 19 27  1  0
 19 18  1  0
 20 19  2  0
 21 20  1  0
 21 22  1  0
 22 27  2  0
 23 22  1  0
 23 24  2  0
 24 25  1  0
 25 26  2  0
 27 26  1  0
 28 29  2  0
 28 30  1  0
M  END
$$$$
