ECW.pdb
     RDKit          3D

 30 31  0  0  1  0  0  0  0  0999 V2000
   10.6340  -18.0187   18.1020 N   0  0  0  0  0  0  0  0  0  0  0  0
   10.7146  -18.8412   19.2918 C   0  0  1  0  0  0  0  0  0  0  0  0
   12.1798  -19.0819   19.5724 C   0  0  0  0  0  0  0  0  0  0  0  0
   12.8009  -17.7865   20.0462 C   0  0  0  0  0  0  0  0  0  0  0  0
   14.2196  -17.9231   20.3753 C   0  0  0  0  0  0  0  0  0  0  0  0
   15.1039  -17.4780   19.6025 O   0  0  0  0  0  0  0  0  0  0  0  0
   10.0159  -18.1755   20.3859 C   0  0  0  0  0  0  0  0  0  0  0  0
    9.9437  -16.9202   20.4093 O   0  0  0  0  0  0  0  0  0  0  0  0
   14.6189  -18.5496   21.5520 O   0  0  0  0  0  0  0  0  0  0  0  0
    9.4150  -18.9540   21.4284 N   0  0  0  0  0  0  0  0  0  0  0  0
    8.6425  -18.3664   22.4748 C   0  0  1  0  0  0  0  0  0  0  0  0
    7.5339  -19.2964   22.9302 C   0  0  0  0  0  0  0  0  0  0  0  0
    6.6574  -18.5809   24.3660 S   0  0  0  0  0  0  0  0  0  0  0  0
    9.4881  -17.9739   23.6576 C   0  0  0  0  0  0  0  0  0  0  0  0
   10.4080  -18.7487   24.0021 O   0  0  0  0  0  0  0  0  0  0  0  0
    9.2165  -16.7700   24.3211 N   0  0  0  0  0  0  0  0  0  0  0  0
    9.9413  -16.2886   25.4748 C   0  0  1  0  0  0  0  0  0  0  0  0
    9.6232  -14.8514   25.7704 C   0  0  0  0  0  0  0  0  0  0  0  0
    8.1854  -14.5825   25.8571 C   0  0  0  0  0  0  0  0  0  0  0  0
    7.1681  -15.5043   25.8214 C   0  0  0  0  0  0  0  0  0  0  0  0
    5.9957  -14.8854   25.9244 N   0  0  0  0  0  0  0  0  0  0  0  0
    6.2422  -13.5631   26.0272 C   0  0  0  0  0  0  0  0  0  0  0  0
    5.4022  -12.4619   26.1580 C   0  0  0  0  0  0  0  0  0  0  0  0
    5.9203  -11.1873   26.2455 C   0  0  0  0  0  0  0  0  0  0  0  0
    7.2999  -11.0010   26.2026 C   0  0  0  0  0  0  0  0  0  0  0  0
    8.1410  -12.0605   26.0756 C   0  0  0  0  0  0  0  0  0  0  0  0
    7.6080  -13.3312   25.9890 C   0  0  0  0  0  0  0  0  0  0  0  0
    9.6564  -17.1829   26.6244 C   0  0  0  0  0  0  0  0  0  0  0  0
   10.2217  -16.9866   27.7175 O   0  0  0  0  0  0  0  0  0  0  0  0
    8.7697  -18.2520   26.5369 O   0  0  0  0  0  0  0  0  0  0  0  0
  2  1  1  6
  2  7  1  0
  3  2  1  0
  3  4  1  0
  4  5  1  0
  5  6  2  0
  5  9  1  0
  7  8  2  0
 10 11  1  0
 10  7  1  0
 11 14  1  0
 12 13  1  0
 11 12  1  1
 14 15  2  0
 16 17  1  0
 16 14  1  0
 17 28  1  0
 17 18  1  1
 19 27  1  0
 19 18  1  0
 20 19  2  0
 21 20  1  0
 21 22  1  0
 22 27  2  0
 23 22  1  0
 23 24  2  0
 24 25  1  0
 25 26  2  0
 27 26  1  0
 28 29  2  0
 28 30  1  0
M  END
$$$$
