ECW.pdb
     RDKit          3D

 30 31  0  0  1  0  0  0  0  0999 V2000
    9.9335  -16.5791   18.1059 N   0  0  0  0  0  0  0  0  0  0  0  0
    9.4868  -15.5001   18.9631 C   0  0  1  0  0  0  0  0  0  0  0  0
    8.6178  -14.5916   18.1248 C   0  0  0  0  0  0  0  0  0  0  0  0
    7.6261  -15.4406   17.3605 C   0  0  0  0  0  0  0  0  0  0  0  0
    8.1297  -15.8668   16.0551 C   0  0  0  0  0  0  0  0  0  0  0  0
    9.3343  -15.6946   15.7439 O   0  0  0  0  0  0  0  0  0  0  0  0
    8.7958  -16.0586   20.1203 C   0  0  0  0  0  0  0  0  0  0  0  0
    7.7268  -16.7013   19.9596 O   0  0  0  0  0  0  0  0  0  0  0  0
    7.2842  -16.4721   15.1302 O   0  0  0  0  0  0  0  0  0  0  0  0
    9.3376  -15.8731   21.4341 N   0  0  0  0  0  0  0  0  0  0  0  0
    9.3687  -16.9191   22.4045 C   0  0  1  0  0  0  0  0  0  0  0  0
   10.1440  -18.1198   21.8958 C   0  0  0  0  0  0  0  0  0  0  0  0
   11.8988  -17.6771   21.6381 S   0  0  0  0  0  0  0  0  0  0  0  0
    9.9501  -16.4635   23.7169 C   0  0  0  0  0  0  0  0  0  0  0  0
   10.9598  -15.7254   23.6848 O   0  0  0  0  0  0  0  0  0  0  0  0
    9.3464  -16.8783   24.9114 N   0  0  0  0  0  0  0  0  0  0  0  0
    9.7671  -16.4623   26.2297 C   0  0  1  0  0  0  0  0  0  0  0  0
    8.5947  -16.2128   27.1337 C   0  0  0  0  0  0  0  0  0  0  0  0
    7.5400  -15.4120   26.5065 C   0  0  0  0  0  0  0  0  0  0  0  0
    6.4069  -15.8774   25.8857 C   0  0  0  0  0  0  0  0  0  0  0  0
    5.6872  -14.8539   25.4357 N   0  0  0  0  0  0  0  0  0  0  0  0
    6.3448  -13.7215   25.7597 C   0  0  0  0  0  0  0  0  0  0  0  0
    6.0581  -12.3777   25.5417 C   0  0  0  0  0  0  0  0  0  0  0  0
    6.9157  -11.3937   25.9852 C   0  0  0  0  0  0  0  0  0  0  0  0
    8.0815  -11.7495   26.6591 C   0  0  0  0  0  0  0  0  0  0  0  0
    8.3834  -13.0549   26.8844 C   0  0  0  0  0  0  0  0  0  0  0  0
    7.5154  -14.0297   26.4344 C   0  0  0  0  0  0  0  0  0  0  0  0
   10.7008  -17.4787   26.7754 C   0  0  0  0  0  0  0  0  0  0  0  0
   10.8224  -18.5791   26.2034 O   0  0  0  0  0  0  0  0  0  0  0  0
   11.4618  -17.2558   27.9189 O   0  0  0  0  0  0  0  0  0  0  0  0
  2  1  1  6
  2  7  1  0
  3  2  1  0
  3  4  1  0
  4  5  1  0
  5  6  2  0
  5  9  1  0
  7  8  2  0
 10 11  1  0
 10  7  1  0
 11 14  1  0
 12 13  1  0
 11 12  1  6
 14 15  2  0
 16 17  1  0
 16 14  1  0
 17 28  1  0
 17 18  1  1
 19 27  1  0
 19 18  1  0
 20 19  2  0
 21 20  1  0
 21 22  1  0
 22 27  2  0
 23 22  1  0
 23 24  2  0
 24 25  1  0
 25 26  2  0
 27 26  1  0
 28 29  2  0
 28 30  1  0
M  END
$$$$
