ECW.pdb
     RDKit          3D

 30 31  0  0  1  0  0  0  0  0999 V2000
    9.8791  -17.8416   17.7648 N   0  0  0  0  0  0  0  0  0  0  0  0
    9.3336  -16.6049   18.2861 C   0  0  1  0  0  0  0  0  0  0  0  0
    8.4555  -16.0124   17.2085 C   0  0  0  0  0  0  0  0  0  0  0  0
    9.1982  -16.0719   15.8920 C   0  0  0  0  0  0  0  0  0  0  0  0
    8.4867  -15.3969   14.8067 C   0  0  0  0  0  0  0  0  0  0  0  0
    9.0893  -14.6092   14.0360 O   0  0  0  0  0  0  0  0  0  0  0  0
    8.6215  -16.8788   19.5296 C   0  0  0  0  0  0  0  0  0  0  0  0
    7.4608  -17.3615   19.4917 O   0  0  0  0  0  0  0  0  0  0  0  0
    7.1268  -15.6135   14.6057 O   0  0  0  0  0  0  0  0  0  0  0  0
    9.2469  -16.5972   20.7879 N   0  0  0  0  0  0  0  0  0  0  0  0
    8.9758  -17.3574   21.9650 C   0  0  1  0  0  0  0  0  0  0  0  0
    9.2443  -18.8337   21.7416 C   0  0  0  0  0  0  0  0  0  0  0  0
    8.5580  -19.8176   23.1209 S   0  0  0  0  0  0  0  0  0  0  0  0
    9.7686  -16.8754   23.1514 C   0  0  0  0  0  0  0  0  0  0  0  0
   10.8417  -16.2710   22.9314 O   0  0  0  0  0  0  0  0  0  0  0  0
    9.2813  -17.1190   24.4423 N   0  0  0  0  0  0  0  0  0  0  0  0
    9.6546  -16.3623   25.6154 C   0  0  1  0  0  0  0  0  0  0  0  0
    8.5194  -16.2564   26.5922 C   0  0  0  0  0  0  0  0  0  0  0  0
    7.4643  -15.3377   26.1565 C   0  0  0  0  0  0  0  0  0  0  0  0
    6.1684  -15.6593   25.8356 C   0  0  0  0  0  0  0  0  0  0  0  0
    5.5061  -14.5616   25.4825 N   0  0  0  0  0  0  0  0  0  0  0  0
    6.3635  -13.5239   25.5713 C   0  0  0  0  0  0  0  0  0  0  0  0
    6.2141  -12.1628   25.3255 C   0  0  0  0  0  0  0  0  0  0  0  0
    7.2721  -11.2958   25.4973 C   0  0  0  0  0  0  0  0  0  0  0  0
    8.5035  -11.7887   25.9219 C   0  0  0  0  0  0  0  0  0  0  0  0
    8.6744  -13.1139   26.1686 C   0  0  0  0  0  0  0  0  0  0  0  0
    7.6061  -13.9704   25.9922 C   0  0  0  0  0  0  0  0  0  0  0  0
   10.8655  -16.9769   26.2140 C   0  0  0  0  0  0  0  0  0  0  0  0
   11.3888  -16.4618   27.2209 O   0  0  0  0  0  0  0  0  0  0  0  0
   11.4558  -18.1243   25.6929 O   0  0  0  0  0  0  0  0  0  0  0  0
  2  1  1  6
  2  7  1  0
  3  2  1  0
  3  4  1  0
  4  5  1  0
  5  6  2  0
  5  9  1  0
  7  8  2  0
 10 11  1  0
 10  7  1  0
 11 14  1  0
 12 13  1  0
 11 12  1  6
 14 15  2  0
 16 17  1  0
 16 14  1  0
 17 28  1  0
 17 18  1  1
 19 27  1  0
 19 18  1  0
 20 19  2  0
 21 20  1  0
 21 22  1  0
 22 27  2  0
 23 22  1  0
 23 24  2  0
 24 25  1  0
 25 26  2  0
 27 26  1  0
 28 29  2  0
 28 30  1  0
M  END
$$$$
