ECW.pdb
     RDKit          3D

 30 31  0  0  1  0  0  0  0  0999 V2000
    8.7989  -19.4863   21.0684 N   0  0  0  0  0  0  0  0  0  0  0  0
    9.8313  -18.9000   20.2382 C   0  0  1  0  0  0  0  0  0  0  0  0
    9.4513  -19.1604   18.7990 C   0  0  0  0  0  0  0  0  0  0  0  0
   10.7164  -19.3445   17.9903 C   0  0  0  0  0  0  0  0  0  0  0  0
   10.6211  -18.7728   16.6473 C   0  0  0  0  0  0  0  0  0  0  0  0
   10.4695  -19.5125   15.6436 O   0  0  0  0  0  0  0  0  0  0  0  0
    9.9589  -17.4822   20.5573 C   0  0  0  0  0  0  0  0  0  0  0  0
   11.0691  -16.9079   20.4189 O   0  0  0  0  0  0  0  0  0  0  0  0
   10.6966  -17.3967   16.4538 O   0  0  0  0  0  0  0  0  0  0  0  0
    8.8196  -16.7502   21.0266 N   0  0  0  0  0  0  0  0  0  0  0  0
    8.8782  -15.3584   21.3369 C   0  0  1  0  0  0  0  0  0  0  0  0
    7.5576  -14.6721   21.0430 C   0  0  0  0  0  0  0  0  0  0  0  0
    6.2054  -15.4766   21.9735 S   0  0  0  0  0  0  0  0  0  0  0  0
    9.2673  -15.1087   22.7703 C   0  0  0  0  0  0  0  0  0  0  0  0
    9.3873  -13.9213   23.1457 O   0  0  0  0  0  0  0  0  0  0  0  0
    9.4783  -16.2023   23.6205 N   0  0  0  0  0  0  0  0  0  0  0  0
    9.9334  -16.1011   24.9882 C   0  0  1  0  0  0  0  0  0  0  0  0
    8.8828  -16.5587   25.9582 C   0  0  0  0  0  0  0  0  0  0  0  0
    7.6869  -15.7121   25.9587 C   0  0  0  0  0  0  0  0  0  0  0  0
    6.4074  -16.0881   25.6310 C   0  0  0  0  0  0  0  0  0  0  0  0
    5.5884  -15.0469   25.7468 N   0  0  0  0  0  0  0  0  0  0  0  0
    6.3269  -13.9920   26.1486 C   0  0  0  0  0  0  0  0  0  0  0  0
    5.9965  -12.6692   26.4252 C   0  0  0  0  0  0  0  0  0  0  0  0
    6.9621  -11.7717   26.8286 C   0  0  0  0  0  0  0  0  0  0  0  0
    8.2825  -12.1947   26.9607 C   0  0  0  0  0  0  0  0  0  0  0  0
    8.6301  -13.4814   26.6967 C   0  0  0  0  0  0  0  0  0  0  0  0
    7.6526  -14.3691   26.2935 C   0  0  0  0  0  0  0  0  0  0  0  0
   11.2032  -16.8569   25.1256 C   0  0  0  0  0  0  0  0  0  0  0  0
   11.6498  -17.5000   24.1561 O   0  0  0  0  0  0  0  0  0  0  0  0
   11.9330  -16.8815   26.3102 O   0  0  0  0  0  0  0  0  0  0  0  0
  2  1  1  1
  2  7  1  0
  3  2  1  0
  3  4  1  0
  4  5  1  0
  5  6  2  0
  5  9  1  0
  7  8  2  0
 10 11  1  0
 10  7  1  0
 11 14  1  0
 12 13  1  0
 11 12  1  1
 14 15  2  0
 16 17  1  0
 16 14  1  0
 17 28  1  0
 17 18  1  1
 19 27  1  0
 19 18  1  0
 20 19  2  0
 21 20  1  0
 21 22  1  0
 22 27  2  0
 23 22  1  0
 23 24  2  0
 24 25  1  0
 25 26  2  0
 27 26  1  0
 28 29  2  0
 28 30  1  0
M  END
$$$$
