ECW.pdb
     RDKit          3D

 30 31  0  0  1  0  0  0  0  0999 V2000
    9.3299  -20.9147   18.2429 N   0  0  0  0  0  0  0  0  0  0  0  0
   10.0906  -19.7684   18.6968 C   0  0  1  0  0  0  0  0  0  0  0  0
   10.4204  -18.9378   17.4784 C   0  0  0  0  0  0  0  0  0  0  0  0
   11.2300  -17.7372   17.9160 C   0  0  0  0  0  0  0  0  0  0  0  0
   12.3419  -17.4413   17.0128 C   0  0  0  0  0  0  0  0  0  0  0  0
   12.1366  -17.2113   15.7952 O   0  0  0  0  0  0  0  0  0  0  0  0
    9.3183  -19.0447   19.7010 C   0  0  0  0  0  0  0  0  0  0  0  0
    8.1968  -18.5624   19.3987 O   0  0  0  0  0  0  0  0  0  0  0  0
   13.6509  -17.4089   17.4841 O   0  0  0  0  0  0  0  0  0  0  0  0
    9.8400  -18.8867   21.0264 N   0  0  0  0  0  0  0  0  0  0  0  0
    9.0717  -18.3254   22.0901 C   0  0  1  0  0  0  0  0  0  0  0  0
    8.2360  -19.3841   22.7844 C   0  0  0  0  0  0  0  0  0  0  0  0
    9.3181  -20.6413   23.5527 S   0  0  0  0  0  0  0  0  0  0  0  0
    9.9315  -17.6177   23.1040 C   0  0  0  0  0  0  0  0  0  0  0  0
   11.0928  -17.2983   22.7654 O   0  0  0  0  0  0  0  0  0  0  0  0
    9.4057  -17.3465   24.3742 N   0  0  0  0  0  0  0  0  0  0  0  0
   10.0258  -16.4793   25.3496 C   0  0  1  0  0  0  0  0  0  0  0  0
    9.6247  -15.0460   25.1528 C   0  0  0  0  0  0  0  0  0  0  0  0
    8.2224  -14.7857   25.4886 C   0  0  0  0  0  0  0  0  0  0  0  0
    7.1979  -15.6994   25.5270 C   0  0  0  0  0  0  0  0  0  0  0  0
    6.0656  -15.0923   25.8699 N   0  0  0  0  0  0  0  0  0  0  0  0
    6.3455  -13.7859   26.0559 C   0  0  0  0  0  0  0  0  0  0  0  0
    5.5532  -12.7015   26.4191 C   0  0  0  0  0  0  0  0  0  0  0  0
    6.0982  -11.4412   26.5429 C   0  0  0  0  0  0  0  0  0  0  0  0
    7.4569  -11.2525   26.3018 C   0  0  0  0  0  0  0  0  0  0  0  0
    8.2514  -12.2957   25.9460 C   0  0  0  0  0  0  0  0  0  0  0  0
    7.6920  -13.5521   25.8258 C   0  0  0  0  0  0  0  0  0  0  0  0
    9.7006  -16.9802   26.7083 C   0  0  0  0  0  0  0  0  0  0  0  0
    8.7833  -17.8100   26.8599 O   0  0  0  0  0  0  0  0  0  0  0  0
   10.3857  -16.5578   27.8435 O   0  0  0  0  0  0  0  0  0  0  0  0
  2  1  1  6
  2  7  1  0
  3  2  1  0
  3  4  1  0
  4  5  1  0
  5  6  2  0
  5  9  1  0
  7  8  2  0
 10 11  1  0
 10  7  1  0
 11 14  1  0
 12 13  1  0
 11 12  1  1
 14 15  2  0
 16 17  1  0
 16 14  1  0
 17 28  1  0
 17 18  1  1
 19 27  1  0
 19 18  1  0
 20 19  2  0
 21 20  1  0
 21 22  1  0
 22 27  2  0
 23 22  1  0
 23 24  2  0
 24 25  1  0
 25 26  2  0
 27 26  1  0
 28 29  2  0
 28 30  1  0
M  END
$$$$
