ECW.pdb
     RDKit          3D

 30 31  0  0  1  0  0  0  0  0999 V2000
    9.9546  -18.5483   16.7889 N   0  0  0  0  0  0  0  0  0  0  0  0
   10.6176  -18.6704   18.0711 C   0  0  1  0  0  0  0  0  0  0  0  0
   11.9271  -17.9228   17.9722 C   0  0  0  0  0  0  0  0  0  0  0  0
   12.8699  -18.7128   17.0916 C   0  0  0  0  0  0  0  0  0  0  0  0
   14.2064  -18.1232   17.0168 C   0  0  0  0  0  0  0  0  0  0  0  0
   15.2140  -18.7646   17.4054 O   0  0  0  0  0  0  0  0  0  0  0  0
    9.7377  -18.1634   19.1187 C   0  0  0  0  0  0  0  0  0  0  0  0
    8.8820  -17.2836   18.8444 O   0  0  0  0  0  0  0  0  0  0  0  0
   14.3894  -16.8387   16.5137 O   0  0  0  0  0  0  0  0  0  0  0  0
    9.8517  -18.6698   20.4545 N   0  0  0  0  0  0  0  0  0  0  0  0
    9.0505  -18.1812   21.5298 C   0  0  1  0  0  0  0  0  0  0  0  0
    8.0787  -19.2390   22.0178 C   0  0  0  0  0  0  0  0  0  0  0  0
    8.9888  -20.7080   22.6137 S   0  0  0  0  0  0  0  0  0  0  0  0
    9.8829  -17.6909   22.6852 C   0  0  0  0  0  0  0  0  0  0  0  0
   11.0227  -18.1840   22.8360 O   0  0  0  0  0  0  0  0  0  0  0  0
    9.3563  -16.7124   23.5388 N   0  0  0  0  0  0  0  0  0  0  0  0
   10.0155  -16.2206   24.7269 C   0  0  1  0  0  0  0  0  0  0  0  0
    9.6933  -14.7769   24.9833 C   0  0  0  0  0  0  0  0  0  0  0  0
    8.2710  -14.5382   25.2427 C   0  0  0  0  0  0  0  0  0  0  0  0
    7.2519  -15.4559   25.1709 C   0  0  0  0  0  0  0  0  0  0  0  0
    6.0965  -14.8704   25.4716 N   0  0  0  0  0  0  0  0  0  0  0  0
    6.3559  -13.5740   25.7396 C   0  0  0  0  0  0  0  0  0  0  0  0
    5.5356  -12.5116   26.1056 C   0  0  0  0  0  0  0  0  0  0  0  0
    6.0637  -11.2574   26.3260 C   0  0  0  0  0  0  0  0  0  0  0  0
    7.4337  -11.0525   26.1807 C   0  0  0  0  0  0  0  0  0  0  0  0
    8.2555  -12.0741   25.8242 C   0  0  0  0  0  0  0  0  0  0  0  0
    7.7127  -13.3247   25.6067 C   0  0  0  0  0  0  0  0  0  0  0  0
    9.6549  -17.0963   25.8696 C   0  0  0  0  0  0  0  0  0  0  0  0
    8.6694  -17.8542   25.7829 O   0  0  0  0  0  0  0  0  0  0  0  0
   10.3802  -17.1106   27.0571 O   0  0  0  0  0  0  0  0  0  0  0  0
  2  1  1  6
  2  7  1  0
  3  2  1  0
  3  4  1  0
  4  5  1  0
  5  6  2  0
  5  9  1  0
  7  8  2  0
 10 11  1  0
 10  7  1  0
 11 14  1  0
 12 13  1  0
 11 12  1  1
 14 15  2  0
 16 17  1  0
 16 14  1  0
 17 28  1  0
 17 18  1  1
 19 27  1  0
 19 18  1  0
 20 19  2  0
 21 20  1  0
 21 22  1  0
 22 27  2  0
 23 22  1  0
 23 24  2  0
 24 25  1  0
 25 26  2  0
 27 26  1  0
 28 29  2  0
 28 30  1  0
M  END
$$$$
