ECW.pdb
     RDKit          3D

 30 31  0  0  1  0  0  0  0  0999 V2000
    7.8414  -18.4494   17.0031 N   0  0  0  0  0  0  0  0  0  0  0  0
    8.8875  -18.2422   17.9837 C   0  0  1  0  0  0  0  0  0  0  0  0
    9.9442  -17.3774   17.3365 C   0  0  0  0  0  0  0  0  0  0  0  0
   10.3701  -18.0246   16.0373 C   0  0  0  0  0  0  0  0  0  0  0  0
   11.2809  -17.1875   15.2567 C   0  0  0  0  0  0  0  0  0  0  0  0
   12.4045  -16.8616   15.7137 O   0  0  0  0  0  0  0  0  0  0  0  0
    8.3104  -17.6511   19.1862 C   0  0  0  0  0  0  0  0  0  0  0  0
    7.6417  -16.5894   19.1016 O   0  0  0  0  0  0  0  0  0  0  0  0
   10.9210  -16.7342   13.9912 O   0  0  0  0  0  0  0  0  0  0  0  0
    8.5074  -18.2823   20.4577 N   0  0  0  0  0  0  0  0  0  0  0  0
    7.9482  -17.7648   21.6645 C   0  0  1  0  0  0  0  0  0  0  0  0
    6.8393  -18.6590   22.1859 C   0  0  0  0  0  0  0  0  0  0  0  0
    6.3137  -18.1115   23.8489 S   0  0  0  0  0  0  0  0  0  0  0  0
    8.9865  -17.5721   22.7384 C   0  0  0  0  0  0  0  0  0  0  0  0
    9.8122  -18.4931   22.9259 O   0  0  0  0  0  0  0  0  0  0  0  0
    8.9892  -16.3828   23.4794 N   0  0  0  0  0  0  0  0  0  0  0  0
    9.9740  -16.0437   24.4809 C   0  0  1  0  0  0  0  0  0  0  0  0
    9.7221  -14.6858   25.0698 C   0  0  0  0  0  0  0  0  0  0  0  0
    8.3788  -14.5406   25.6367 C   0  0  0  0  0  0  0  0  0  0  0  0
    7.4839  -15.5455   25.9111 C   0  0  0  0  0  0  0  0  0  0  0  0
    6.3676  -15.0290   26.4164 N   0  0  0  0  0  0  0  0  0  0  0  0
    6.5289  -13.6909   26.4735 C   0  0  0  0  0  0  0  0  0  0  0  0
    5.6961  -12.6656   26.9101 C   0  0  0  0  0  0  0  0  0  0  0  0
    6.1113  -11.3519   26.8611 C   0  0  0  0  0  0  0  0  0  0  0  0
    7.3785  -11.0487   26.3693 C   0  0  0  0  0  0  0  0  0  0  0  0
    8.2103  -12.0323   25.9372 C   0  0  0  0  0  0  0  0  0  0  0  0
    7.7812  -13.3434   25.9921 C   0  0  0  0  0  0  0  0  0  0  0  0
    9.9979  -17.1144   25.5083 C   0  0  0  0  0  0  0  0  0  0  0  0
   10.8477  -17.0807   26.4191 O   0  0  0  0  0  0  0  0  0  0  0  0
    9.0977  -18.1757   25.5016 O   0  0  0  0  0  0  0  0  0  0  0  0
  2  1  1  6
  2  7  1  0
  3  2  1  0
  3  4  1  0
  4  5  1  0
  5  6  2  0
  5  9  1  0
  7  8  2  0
 10 11  1  0
 10  7  1  0
 11 14  1  0
 12 13  1  0
 11 12  1  1
 14 15  2  0
 16 17  1  0
 16 14  1  0
 17 28  1  0
 17 18  1  1
 19 27  1  0
 19 18  1  0
 20 19  2  0
 21 20  1  0
 21 22  1  0
 22 27  2  0
 23 22  1  0
 23 24  2  0
 24 25  1  0
 25 26  2  0
 27 26  1  0
 28 29  2  0
 28 30  1  0
M  END
$$$$
