ECW.pdb
     RDKit          3D

 30 31  0  0  1  0  0  0  0  0999 V2000
    9.3272  -18.6964   19.9438 N   0  0  0  0  0  0  0  0  0  0  0  0
   10.5500  -17.9232   19.8687 C   0  0  1  0  0  0  0  0  0  0  0  0
   10.9748  -17.8953   18.4188 C   0  0  0  0  0  0  0  0  0  0  0  0
   10.5968  -19.2126   17.7784 C   0  0  0  0  0  0  0  0  0  0  0  0
   11.7049  -19.8291   17.0493 C   0  0  0  0  0  0  0  0  0  0  0  0
   12.1130  -19.3394   15.9670 O   0  0  0  0  0  0  0  0  0  0  0  0
   10.3170  -16.5972   20.4308 C   0  0  0  0  0  0  0  0  0  0  0  0
   11.1936  -15.7038   20.3087 O   0  0  0  0  0  0  0  0  0  0  0  0
   12.3300  -20.9716   17.5397 O   0  0  0  0  0  0  0  0  0  0  0  0
    9.0912  -16.3184   21.1190 N   0  0  0  0  0  0  0  0  0  0  0  0
    8.8052  -15.0407   21.6869 C   0  0  1  0  0  0  0  0  0  0  0  0
    7.4429  -14.5360   21.2503 C   0  0  0  0  0  0  0  0  0  0  0  0
    6.1512  -15.7612   21.6651 S   0  0  0  0  0  0  0  0  0  0  0  0
    8.8785  -15.0549   23.1911 C   0  0  0  0  0  0  0  0  0  0  0  0
    8.1776  -14.2303   23.8189 O   0  0  0  0  0  0  0  0  0  0  0  0
    9.7190  -15.9798   23.8247 N   0  0  0  0  0  0  0  0  0  0  0  0
    9.9993  -15.9956   25.2421 C   0  0  1  0  0  0  0  0  0  0  0  0
    8.8041  -16.4310   26.0395 C   0  0  0  0  0  0  0  0  0  0  0  0
    7.6668  -15.5141   25.9259 C   0  0  0  0  0  0  0  0  0  0  0  0
    6.4283  -15.7936   25.4024 C   0  0  0  0  0  0  0  0  0  0  0  0
    5.6577  -14.7119   25.4665 N   0  0  0  0  0  0  0  0  0  0  0  0
    6.3869  -13.7265   26.0296 C   0  0  0  0  0  0  0  0  0  0  0  0
    6.0915  -12.4023   26.3372 C   0  0  0  0  0  0  0  0  0  0  0  0
    7.0366  -11.5877   26.9236 C   0  0  0  0  0  0  0  0  0  0  0  0
    8.3006  -12.0969   27.2111 C   0  0  0  0  0  0  0  0  0  0  0  0
    8.6132  -13.3868   26.9204 C   0  0  0  0  0  0  0  0  0  0  0  0
    7.6569  -14.1909   26.3332 C   0  0  0  0  0  0  0  0  0  0  0  0
   11.1876  -16.8511   25.4839 C   0  0  0  0  0  0  0  0  0  0  0  0
   11.7040  -17.4765   24.5378 O   0  0  0  0  0  0  0  0  0  0  0  0
   11.7635  -16.9904   26.7431 O   0  0  0  0  0  0  0  0  0  0  0  0
  2  1  1  6
  2  7  1  0
  3  2  1  0
  3  4  1  0
  4  5  1  0
  5  6  2  0
  5  9  1  0
  7  8  2  0
 10 11  1  0
 10  7  1  0
 11 14  1  0
 12 13  1  0
 11 12  1  1
 14 15  2  0
 16 17  1  0
 16 14  1  0
 17 28  1  0
 17 18  1  1
 19 27  1  0
 19 18  1  0
 20 19  2  0
 21 20  1  0
 21 22  1  0
 22 27  2  0
 23 22  1  0
 23 24  2  0
 24 25  1  0
 25 26  2  0
 27 26  1  0
 28 29  2  0
 28 30  1  0
M  END
$$$$
