ECW.pdb
     RDKit          3D

 30 31  0  0  1  0  0  0  0  0999 V2000
    5.1854  -20.9560   22.6320 N   0  0  0  0  0  0  0  0  0  0  0  0
    5.6997  -19.7092   23.1609 C   0  0  1  0  0  0  0  0  0  0  0  0
    6.3310  -20.0160   24.4990 C   0  0  0  0  0  0  0  0  0  0  0  0
    7.3983  -21.0694   24.3004 C   0  0  0  0  0  0  0  0  0  0  0  0
    8.4574  -21.0026   25.3071 C   0  0  0  0  0  0  0  0  0  0  0  0
    8.4255  -21.7408   26.3229 O   0  0  0  0  0  0  0  0  0  0  0  0
    6.6300  -19.1257   22.2003 C   0  0  0  0  0  0  0  0  0  0  0  0
    6.6191  -19.5145   21.0044 O   0  0  0  0  0  0  0  0  0  0  0  0
    9.5227  -20.1193   25.1605 O   0  0  0  0  0  0  0  0  0  0  0  0
    7.5513  -18.1126   22.6230 N   0  0  0  0  0  0  0  0  0  0  0  0
    7.8113  -16.9424   21.8485 C   0  0  1  0  0  0  0  0  0  0  0  0
    6.5225  -16.2528   21.4423 C   0  0  0  0  0  0  0  0  0  0  0  0
    6.8876  -14.7683   20.4401 S   0  0  0  0  0  0  0  0  0  0  0  0
    8.6993  -15.9643   22.5717 C   0  0  0  0  0  0  0  0  0  0  0  0
    9.0716  -14.9433   21.9521 O   0  0  0  0  0  0  0  0  0  0  0  0
    9.0715  -16.2309   23.8960 N   0  0  0  0  0  0  0  0  0  0  0  0
   10.2354  -15.6753   24.5477 C   0  0  1  0  0  0  0  0  0  0  0  0
    9.8559  -14.7522   25.6693 C   0  0  0  0  0  0  0  0  0  0  0  0
    8.4075  -14.6299   25.8538 C   0  0  0  0  0  0  0  0  0  0  0  0
    7.4616  -15.6023   25.6399 C   0  0  0  0  0  0  0  0  0  0  0  0
    6.2519  -15.1215   25.9116 N   0  0  0  0  0  0  0  0  0  0  0  0
    6.4030  -13.8391   26.3022 C   0  0  0  0  0  0  0  0  0  0  0  0
    5.4896  -12.8682   26.7002 C   0  0  0  0  0  0  0  0  0  0  0  0
    5.9141  -11.6062   27.0576 C   0  0  0  0  0  0  0  0  0  0  0  0
    7.2725  -11.3008   27.0198 C   0  0  0  0  0  0  0  0  0  0  0  0
    8.1840  -12.2319   26.6347 C   0  0  0  0  0  0  0  0  0  0  0  0
    7.7444  -13.4916   26.2795 C   0  0  0  0  0  0  0  0  0  0  0  0
   11.1077  -16.7887   24.9969 C   0  0  0  0  0  0  0  0  0  0  0  0
   12.2273  -16.5409   25.4849 O   0  0  0  0  0  0  0  0  0  0  0  0
   10.7264  -18.1232   24.8963 O   0  0  0  0  0  0  0  0  0  0  0  0
  2  1  1  6
  2  7  1  0
  3  2  1  0
  3  4  1  0
  4  5  1  0
  5  6  2  0
  5  9  1  0
  7  8  2  0
 10 11  1  0
 10  7  1  0
 11 14  1  0
 12 13  1  0
 11 12  1  1
 14 15  2  0
 16 17  1  0
 16 14  1  0
 17 28  1  0
 17 18  1  1
 19 27  1  0
 19 18  1  0
 20 19  2  0
 21 20  1  0
 21 22  1  0
 22 27  2  0
 23 22  1  0
 23 24  2  0
 24 25  1  0
 25 26  2  0
 27 26  1  0
 28 29  2  0
 28 30  1  0
M  END
$$$$
