ECW.pdb
     RDKit          3D

 30 31  0  0  1  0  0  0  0  0999 V2000
    9.1003  -18.6254   19.6004 N   0  0  0  0  0  0  0  0  0  0  0  0
   10.3592  -17.9157   19.7016 C   0  0  1  0  0  0  0  0  0  0  0  0
   10.9569  -17.8624   18.3148 C   0  0  0  0  0  0  0  0  0  0  0  0
   10.6003  -19.1384   17.5848 C   0  0  0  0  0  0  0  0  0  0  0  0
   11.1790  -19.2066   16.2431 C   0  0  0  0  0  0  0  0  0  0  0  0
   10.4790  -18.9648   15.2287 O   0  0  0  0  0  0  0  0  0  0  0  0
   10.1244  -16.5986   20.2835 C   0  0  0  0  0  0  0  0  0  0  0  0
   11.0210  -15.7190   20.2211 O   0  0  0  0  0  0  0  0  0  0  0  0
   12.5177  -19.5413   16.0628 O   0  0  0  0  0  0  0  0  0  0  0  0
    8.8741  -16.3127   20.9230 N   0  0  0  0  0  0  0  0  0  0  0  0
    8.7186  -15.2462   21.8586 C   0  0  1  0  0  0  0  0  0  0  0  0
    7.3788  -14.5552   21.6888 C   0  0  0  0  0  0  0  0  0  0  0  0
    6.4014  -15.3815   20.3836 S   0  0  0  0  0  0  0  0  0  0  0  0
    8.8689  -15.7100   23.2835 C   0  0  0  0  0  0  0  0  0  0  0  0
    8.0202  -16.5134   23.7300 O   0  0  0  0  0  0  0  0  0  0  0  0
    9.9408  -15.2300   24.0479 N   0  0  0  0  0  0  0  0  0  0  0  0
   10.1582  -15.5431   25.4416 C   0  0  1  0  0  0  0  0  0  0  0  0
    8.9781  -16.2503   26.0425 C   0  0  0  0  0  0  0  0  0  0  0  0
    7.7725  -15.4194   26.0994 C   0  0  0  0  0  0  0  0  0  0  0  0
    6.5009  -15.7807   25.7274 C   0  0  0  0  0  0  0  0  0  0  0  0
    5.6687  -14.7615   25.9195 N   0  0  0  0  0  0  0  0  0  0  0  0
    6.3907  -13.7356   26.4154 C   0  0  0  0  0  0  0  0  0  0  0  0
    6.0422  -12.4438   26.7966 C   0  0  0  0  0  0  0  0  0  0  0  0
    6.9930  -11.5725   27.2836 C   0  0  0  0  0  0  0  0  0  0  0  0
    8.3168  -11.9909   27.3953 C   0  0  0  0  0  0  0  0  0  0  0  0
    8.6820  -13.2475   27.0298 C   0  0  0  0  0  0  0  0  0  0  0  0
    7.7191  -14.1093   26.5436 C   0  0  0  0  0  0  0  0  0  0  0  0
   11.4137  -16.3249   25.5647 C   0  0  0  0  0  0  0  0  0  0  0  0
   11.7706  -16.7531   26.6793 O   0  0  0  0  0  0  0  0  0  0  0  0
   12.2274  -16.6076   24.4717 O   0  0  0  0  0  0  0  0  0  0  0  0
  2  1  1  6
  2  7  1  0
  3  2  1  0
  3  4  1  0
  4  5  1  0
  5  6  2  0
  5  9  1  0
  7  8  2  0
 10 11  1  0
 10  7  1  0
 11 14  1  0
 12 13  1  0
 11 12  1  1
 14 15  2  0
 16 17  1  0
 16 14  1  0
 17 28  1  0
 17 18  1  6
 19 27  1  0
 19 18  1  0
 20 19  2  0
 21 20  1  0
 21 22  1  0
 22 27  2  0
 23 22  1  0
 23 24  2  0
 24 25  1  0
 25 26  2  0
 27 26  1  0
 28 29  2  0
 28 30  1  0
M  END
$$$$
