CNL.pdb
     RDKit          3D

 23 22  0  0  1  0  0  0  0  0999 V2000
    4.4393  -19.0648   20.5790 N   0  0  0  0  0  0  0  0  0  0  0  0
    3.7694  -18.2467   21.5550 C   0  0  1  0  0  0  0  0  0  0  0  0
    2.5515  -19.0513   22.0291 C   0  0  0  0  0  0  0  0  0  0  0  0
    1.7023  -19.6222   20.5322 S   0  0  0  0  0  0  0  0  0  0  0  0
    4.6184  -18.0504   22.7542 C   0  0  0  0  0  0  0  0  0  0  0  0
    4.1426  -17.5486   23.8110 O   0  0  0  0  0  0  0  0  0  0  0  0
    7.5322  -21.4043   24.9607 N   0  0  0  0  0  0  0  0  0  0  0  0
    7.6256  -20.7132   23.7297 C   0  0  0  0  0  0  0  0  0  0  0  0
    7.3577  -21.3711   22.6670 O   0  0  0  0  0  0  0  0  0  0  0  0
    8.0144  -19.2969   23.6491 C   0  0  0  0  0  0  0  0  0  0  0  0
    6.8878  -18.3549   23.8390 C   0  0  2  0  0  0  0  0  0  0  0  0
    5.9772  -18.4406   22.6832 N   0  0  0  0  0  0  0  0  0  0  0  0
    7.3007  -16.9790   24.0671 C   0  0  0  0  0  0  0  0  0  0  0  0
    7.7730  -16.2997   23.0892 O   0  0  0  0  0  0  0  0  0  0  0  0
    7.4022  -11.8451   25.4266 C   0  0  0  0  0  0  0  0  0  0  0  0
    7.1461  -12.7834   26.5555 C   0  0  1  0  0  0  0  0  0  0  0  0
    6.0233  -12.2265   27.4139 C   0  0  0  0  0  0  0  0  0  0  0  0
    6.7211  -14.1542   26.1222 C   0  0  0  0  0  0  0  0  0  0  0  0
    7.8128  -14.9667   25.4718 C   0  0  2  0  0  0  0  0  0  0  0  0
    7.2263  -16.3095   25.2846 N   0  0  0  0  0  0  0  0  0  0  0  0
    9.0192  -15.1223   26.2815 C   0  0  0  0  0  0  0  0  0  0  0  0
    9.1360  -16.0026   27.1514 O   0  0  0  0  0  0  0  0  0  0  0  0
   10.1214  -14.2687   26.1098 O   0  0  0  0  0  0  0  0  0  0  0  0
  2  1  1  6
  2  3  1  0
  2  5  1  0
  4  3  1  0
  5  6  2  0
  7  8  1  0
  8  9  2  0
  8 10  1  0
 11 10  1  6
 11 13  1  0
 12  5  1  0
 12 11  1  0
 13 20  1  0
 13 14  2  0
 16 17  1  1
 16 15  1  0
 18 16  1  0
 19 18  1  1
 19 21  1  0
 20 19  1  0
 21 23  1  0
 22 21  2  0
M  END
$$$$
