CNL.pdb
     RDKit          3D

 23 22  0  0  1  0  0  0  0  0999 V2000
    7.4469  -15.0653   18.1918 N   0  0  0  0  0  0  0  0  0  0  0  0
    8.4634  -14.6182   19.1070 C   0  0  1  0  0  0  0  0  0  0  0  0
    8.1879  -13.1305   19.3643 C   0  0  0  0  0  0  0  0  0  0  0  0
    8.7100  -12.2483   17.8687 S   0  0  0  0  0  0  0  0  0  0  0  0
    8.3256  -15.2902   20.4212 C   0  0  0  0  0  0  0  0  0  0  0  0
    7.1981  -15.3969   20.9802 O   0  0  0  0  0  0  0  0  0  0  0  0
    9.7748  -19.8940   21.8528 N   0  0  0  0  0  0  0  0  0  0  0  0
   10.3623  -18.6804   21.4242 C   0  0  0  0  0  0  0  0  0  0  0  0
   10.7243  -18.6051   20.2006 O   0  0  0  0  0  0  0  0  0  0  0  0
   10.5610  -17.5385   22.3299 C   0  0  0  0  0  0  0  0  0  0  0  0
    9.4551  -16.5542   22.3042 C   0  0  2  0  0  0  0  0  0  0  0  0
    9.4916  -15.8091   21.0330 N   0  0  0  0  0  0  0  0  0  0  0  0
    9.4518  -15.6403   23.4357 C   0  0  0  0  0  0  0  0  0  0  0  0
   10.4971  -14.9394   23.6739 O   0  0  0  0  0  0  0  0  0  0  0  0
    7.8854  -11.8130   26.7832 C   0  0  0  0  0  0  0  0  0  0  0  0
    6.9642  -12.9838   26.7530 C   0  0  1  0  0  0  0  0  0  0  0  0
    5.5305  -12.4821   26.7219 C   0  0  0  0  0  0  0  0  0  0  0  0
    7.1406  -13.8655   25.5534 C   0  0  0  0  0  0  0  0  0  0  0  0
    8.4863  -14.5418   25.4719 C   0  0  2  0  0  0  0  0  0  0  0  0
    8.3861  -15.4476   24.3093 N   0  0  0  0  0  0  0  0  0  0  0  0
    8.8290  -15.3559   26.6359 C   0  0  0  0  0  0  0  0  0  0  0  0
    9.5320  -14.9318   27.5693 O   0  0  0  0  0  0  0  0  0  0  0  0
    8.3709  -16.6784   26.7546 O   0  0  0  0  0  0  0  0  0  0  0  0
  2  1  1  6
  2  3  1  0
  2  5  1  0
  4  3  1  0
  5  6  2  0
  7  8  1  0
  8  9  2  0
  8 10  1  0
 11 10  1  1
 11 13  1  0
 12  5  1  0
 12 11  1  0
 13 20  1  0
 13 14  2  0
 16 17  1  6
 16 15  1  0
 18 16  1  0
 19 18  1  1
 19 21  1  0
 20 19  1  0
 21 23  1  0
 22 21  2  0
M  END
$$$$
