CNL.pdb
     RDKit          3D

 23 22  0  0  1  0  0  0  0  0999 V2000
    9.3563  -13.5781   19.5215 N   0  0  0  0  0  0  0  0  0  0  0  0
    8.0293  -13.5944   20.0779 C   0  0  1  0  0  0  0  0  0  0  0  0
    7.1068  -14.1352   18.9771 C   0  0  0  0  0  0  0  0  0  0  0  0
    7.3655  -13.0765   17.5280 S   0  0  0  0  0  0  0  0  0  0  0  0
    7.9362  -14.5615   21.1975 C   0  0  0  0  0  0  0  0  0  0  0  0
    6.8291  -14.8045   21.7545 O   0  0  0  0  0  0  0  0  0  0  0  0
   10.6478  -19.4067   23.6378 N   0  0  0  0  0  0  0  0  0  0  0  0
    9.7454  -18.5549   22.9583 C   0  0  0  0  0  0  0  0  0  0  0  0
    8.5545  -18.9845   22.7820 O   0  0  0  0  0  0  0  0  0  0  0  0
   10.1371  -17.2261   22.4638 C   0  0  0  0  0  0  0  0  0  0  0  0
    9.1424  -16.1657   22.7439 C   0  0  2  0  0  0  0  0  0  0  0  0
    9.1216  -15.2055   21.6258 N   0  0  0  0  0  0  0  0  0  0  0  0
    9.3528  -15.4779   24.0081 C   0  0  0  0  0  0  0  0  0  0  0  0
   10.5142  -15.0095   24.2771 O   0  0  0  0  0  0  0  0  0  0  0  0
    5.7726  -12.1628   26.4485 C   0  0  0  0  0  0  0  0  0  0  0  0
    7.0757  -12.7553   26.0346 C   0  0  1  0  0  0  0  0  0  0  0  0
    8.1864  -11.7647   26.3394 C   0  0  0  0  0  0  0  0  0  0  0  0
    7.4205  -14.0265   26.7508 C   0  0  0  0  0  0  0  0  0  0  0  0
    8.7050  -14.6698   26.2912 C   0  0  2  0  0  0  0  0  0  0  0  0
    8.3805  -15.2722   24.9819 N   0  0  0  0  0  0  0  0  0  0  0  0
    9.1936  -15.7392   27.1587 C   0  0  0  0  0  0  0  0  0  0  0  0
    8.8989  -16.9341   26.9839 O   0  0  0  0  0  0  0  0  0  0  0  0
   10.0339  -15.4599   28.2491 O   0  0  0  0  0  0  0  0  0  0  0  0
  2  1  1  6
  2  3  1  0
  2  5  1  0
  4  3  1  0
  5  6  2  0
  7  8  1  0
  8  9  2  0
  8 10  1  0
 11 10  1  6
 11 13  1  0
 12  5  1  0
 12 11  1  0
 13 20  1  0
 13 14  2  0
 16 17  1  1
 16 15  1  0
 18 16  1  0
 19 18  1  1
 19 21  1  0
 20 19  1  0
 21 23  1  0
 22 21  2  0
M  END
$$$$
