CNL.pdb
     RDKit          3D

 23 22  0  0  1  0  0  0  0  0999 V2000
    4.9131  -14.3577   25.8112 N   0  0  0  0  0  0  0  0  0  0  0  0
    5.8823  -13.6698   24.9998 C   0  0  1  0  0  0  0  0  0  0  0  0
    6.6414  -12.7258   25.9422 C   0  0  0  0  0  0  0  0  0  0  0  0
    5.4719  -11.4212   26.4092 S   0  0  0  0  0  0  0  0  0  0  0  0
    6.8943  -14.6139   24.4687 C   0  0  0  0  0  0  0  0  0  0  0  0
    7.1700  -15.6825   25.0827 O   0  0  0  0  0  0  0  0  0  0  0  0
    7.8608  -12.7564   20.0551 N   0  0  0  0  0  0  0  0  0  0  0  0
    7.9868  -14.0899   20.5106 C   0  0  0  0  0  0  0  0  0  0  0  0
    7.1081  -14.9295   20.1143 O   0  0  0  0  0  0  0  0  0  0  0  0
    9.0735  -14.5176   21.4048 C   0  0  0  0  0  0  0  0  0  0  0  0
    8.6034  -15.1266   22.6700 C   0  0  2  0  0  0  0  0  0  0  0  0
    7.5434  -14.2856   23.2545 N   0  0  0  0  0  0  0  0  0  0  0  0
    9.6616  -15.3667   23.6385 C   0  0  0  0  0  0  0  0  0  0  0  0
   10.8608  -15.5373   23.2221 O   0  0  0  0  0  0  0  0  0  0  0  0
   10.8531  -13.7236   29.3712 C   0  0  0  0  0  0  0  0  0  0  0  0
   11.1809  -14.6841   28.2802 C   0  0  1  0  0  0  0  0  0  0  0  0
   11.1479  -16.0959   28.8402 C   0  0  0  0  0  0  0  0  0  0  0  0
   10.2181  -14.6511   27.1314 C   0  0  0  0  0  0  0  0  0  0  0  0
   10.6381  -15.4819   25.9447 C   0  0  2  0  0  0  0  0  0  0  0  0
    9.4890  -15.4279   25.0179 N   0  0  0  0  0  0  0  0  0  0  0  0
   10.8940  -16.8883   26.2472 C   0  0  0  0  0  0  0  0  0  0  0  0
   12.0361  -17.3351   26.4505 O   0  0  0  0  0  0  0  0  0  0  0  0
    9.8417  -17.8155   26.3233 O   0  0  0  0  0  0  0  0  0  0  0  0
  2  1  1  1
  2  3  1  0
  2  5  1  0
  4  3  1  0
  5  6  2  0
  7  8  1  0
  8  9  2  0
  8 10  1  0
 11 10  1  6
 11 13  1  0
 12  5  1  0
 12 11  1  0
 13 20  1  0
 13 14  2  0
 16 17  1  1
 16 15  1  0
 18 16  1  0
 19 18  1  1
 19 21  1  0
 20 19  1  0
 21 23  1  0
 22 21  2  0
M  END
$$$$
