CNL.pdb
     RDKit          3D

 23 22  0  0  1  0  0  0  0  0999 V2000
    7.4683  -13.5858   18.2670 N   0  0  0  0  0  0  0  0  0  0  0  0
    8.6148  -14.2524   18.8254 C   0  0  1  0  0  0  0  0  0  0  0  0
    9.6554  -13.1595   19.1048 C   0  0  0  0  0  0  0  0  0  0  0  0
    8.7976  -11.8648   20.0406 S   0  0  0  0  0  0  0  0  0  0  0  0
    8.2903  -14.8506   20.1424 C   0  0  0  0  0  0  0  0  0  0  0  0
    7.2441  -14.5171   20.7664 O   0  0  0  0  0  0  0  0  0  0  0  0
    8.1928  -19.7481   21.2844 N   0  0  0  0  0  0  0  0  0  0  0  0
    9.2267  -18.8348   20.9703 C   0  0  0  0  0  0  0  0  0  0  0  0
    9.7581  -18.9278   19.8114 O   0  0  0  0  0  0  0  0  0  0  0  0
    9.6903  -17.8124   21.9208 C   0  0  0  0  0  0  0  0  0  0  0  0
    8.8836  -16.5708   21.9055 C   0  0  2  0  0  0  0  0  0  0  0  0
    9.1845  -15.8059   20.6820 N   0  0  0  0  0  0  0  0  0  0  0  0
    9.0565  -15.7399   23.0866 C   0  0  0  0  0  0  0  0  0  0  0  0
   10.1944  -15.1931   23.3030 O   0  0  0  0  0  0  0  0  0  0  0  0
    7.9420  -11.8661   26.5918 C   0  0  0  0  0  0  0  0  0  0  0  0
    7.0574  -13.0584   26.7195 C   0  0  1  0  0  0  0  0  0  0  0  0
    5.6303  -12.5908   26.9488 C   0  0  0  0  0  0  0  0  0  0  0  0
    7.0363  -13.9331   25.5021 C   0  0  0  0  0  0  0  0  0  0  0  0
    8.3391  -14.6398   25.2221 C   0  0  2  0  0  0  0  0  0  0  0  0
    8.0709  -15.4725   24.0317 N   0  0  0  0  0  0  0  0  0  0  0  0
    8.7895  -15.5300   26.2897 C   0  0  0  0  0  0  0  0  0  0  0  0
    8.3532  -16.6855   26.4301 O   0  0  0  0  0  0  0  0  0  0  0  0
    9.7534  -15.1125   27.2221 O   0  0  0  0  0  0  0  0  0  0  0  0
  2  1  1  1
  2  3  1  0
  2  5  1  0
  4  3  1  0
  5  6  2  0
  7  8  1  0
  8  9  2  0
  8 10  1  0
 11 10  1  1
 11 13  1  0
 12  5  1  0
 12 11  1  0
 13 20  1  0
 13 14  2  0
 16 17  1  6
 16 15  1  0
 18 16  1  0
 19 18  1  1
 19 21  1  0
 20 19  1  0
 21 23  1  0
 22 21  2  0
M  END
$$$$
