CNL.pdb
     RDKit          3D

 23 22  0  0  1  0  0  0  0  0999 V2000
    7.7926  -13.5301   18.1620 N   0  0  0  0  0  0  0  0  0  0  0  0
    8.8784  -13.9935   18.9848 C   0  0  1  0  0  0  0  0  0  0  0  0
    9.5611  -12.7383   19.5450 C   0  0  0  0  0  0  0  0  0  0  0  0
    8.2589  -11.7627   20.3452 S   0  0  0  0  0  0  0  0  0  0  0  0
    8.3707  -14.7391   20.1612 C   0  0  0  0  0  0  0  0  0  0  0  0
    7.1470  -14.7057   20.4718 O   0  0  0  0  0  0  0  0  0  0  0  0
   10.0901  -19.5119   23.5108 N   0  0  0  0  0  0  0  0  0  0  0  0
    9.1387  -18.7201   22.8256 C   0  0  0  0  0  0  0  0  0  0  0  0
    7.9068  -18.9068   23.1113 O   0  0  0  0  0  0  0  0  0  0  0  0
    9.5251  -17.7180   21.8205 C   0  0  0  0  0  0  0  0  0  0  0  0
    8.8732  -16.4015   22.0061 C   0  0  2  0  0  0  0  0  0  0  0  0
    9.2944  -15.4897   20.9273 N   0  0  0  0  0  0  0  0  0  0  0  0
    9.1141  -15.8019   23.3091 C   0  0  0  0  0  0  0  0  0  0  0  0
   10.2638  -15.2960   23.5595 O   0  0  0  0  0  0  0  0  0  0  0  0
    5.5298  -12.6772   26.0393 C   0  0  0  0  0  0  0  0  0  0  0  0
    6.8296  -13.2144   25.5470 C   0  0  1  0  0  0  0  0  0  0  0  0
    7.9359  -12.2396   25.9127 C   0  0  0  0  0  0  0  0  0  0  0  0
    7.2048  -14.5384   26.1418 C   0  0  0  0  0  0  0  0  0  0  0  0
    8.5121  -15.0975   25.6386 C   0  0  2  0  0  0  0  0  0  0  0  0
    8.1835  -15.7212   24.3404 N   0  0  0  0  0  0  0  0  0  0  0  0
    9.0980  -16.1320   26.4881 C   0  0  0  0  0  0  0  0  0  0  0  0
    8.8567  -17.3421   26.3371 O   0  0  0  0  0  0  0  0  0  0  0  0
    9.9763  -15.7994   27.5326 O   0  0  0  0  0  0  0  0  0  0  0  0
  2  1  1  6
  2  3  1  0
  2  5  1  0
  4  3  1  0
  5  6  2  0
  7  8  1  0
  8  9  2  0
  8 10  1  0
 11 10  1  1
 11 13  1  0
 12  5  1  0
 12 11  1  0
 13 20  1  0
 13 14  2  0
 16 17  1  1
 16 15  1  0
 18 16  1  0
 19 18  1  1
 19 21  1  0
 20 19  1  0
 21 23  1  0
 22 21  2  0
M  END
$$$$
