CNL.pdb
     RDKit          3D

 23 22  0  0  1  0  0  0  0  0999 V2000
    7.3349  -15.1794   18.4628 N   0  0  0  0  0  0  0  0  0  0  0  0
    8.4224  -14.7630   19.3082 C   0  0  1  0  0  0  0  0  0  0  0  0
    8.1301  -13.3087   19.7019 C   0  0  0  0  0  0  0  0  0  0  0  0
    8.3799  -12.3147   18.2061 S   0  0  0  0  0  0  0  0  0  0  0  0
    8.4329  -15.5326   20.5752 C   0  0  0  0  0  0  0  0  0  0  0  0
    7.3606  -15.9759   21.0740 O   0  0  0  0  0  0  0  0  0  0  0  0
   11.7733  -18.3448   20.2247 N   0  0  0  0  0  0  0  0  0  0  0  0
   10.8743  -18.3749   21.3167 C   0  0  0  0  0  0  0  0  0  0  0  0
    9.9762  -19.2845   21.3109 O   0  0  0  0  0  0  0  0  0  0  0  0
   10.9478  -17.4098   22.4243 C   0  0  0  0  0  0  0  0  0  0  0  0
    9.7946  -16.4832   22.4887 C   0  0  2  0  0  0  0  0  0  0  0  0
    9.6772  -15.7574   21.2113 N   0  0  0  0  0  0  0  0  0  0  0  0
    9.8466  -15.5528   23.6055 C   0  0  0  0  0  0  0  0  0  0  0  0
   10.8922  -15.5238   24.3446 O   0  0  0  0  0  0  0  0  0  0  0  0
    7.9530  -11.8279   27.1304 C   0  0  0  0  0  0  0  0  0  0  0  0
    6.9859  -12.8701   26.6845 C   0  0  1  0  0  0  0  0  0  0  0  0
    5.6175  -12.2324   26.5152 C   0  0  0  0  0  0  0  0  0  0  0  0
    7.3351  -13.5014   25.3703 C   0  0  0  0  0  0  0  0  0  0  0  0
    8.6999  -14.1424   25.3321 C   0  0  2  0  0  0  0  0  0  0  0  0
    8.8370  -14.6616   23.9559 N   0  0  0  0  0  0  0  0  0  0  0  0
    8.8679  -15.2696   26.2466 C   0  0  0  0  0  0  0  0  0  0  0  0
    9.7463  -15.2968   27.1258 O   0  0  0  0  0  0  0  0  0  0  0  0
    8.0288  -16.3936   26.1721 O   0  0  0  0  0  0  0  0  0  0  0  0
  2  1  1  6
  2  3  1  0
  2  5  1  0
  4  3  1  0
  5  6  2  0
  7  8  1  0
  8  9  2  0
  8 10  1  0
 11 10  1  6
 11 13  1  0
 12  5  1  0
 12 11  1  0
 13 20  1  0
 13 14  2  0
 16 17  1  6
 16 15  1  0
 18 16  1  0
 19 18  1  6
 19 21  1  0
 20 19  1  0
 21 23  1  0
 22 21  2  0
M  END
$$$$
