CNL.pdb
     RDKit          3D

 23 22  0  0  1  0  0  0  0  0999 V2000
    7.0183  -16.1005   18.1136 N   0  0  0  0  0  0  0  0  0  0  0  0
    7.8769  -15.6004   19.1544 C   0  0  1  0  0  0  0  0  0  0  0  0
    7.8946  -14.0733   19.0022 C   0  0  0  0  0  0  0  0  0  0  0  0
    8.9433  -13.7153   17.5669 S   0  0  0  0  0  0  0  0  0  0  0  0
    7.2985  -15.8685   20.4928 C   0  0  0  0  0  0  0  0  0  0  0  0
    6.1145  -15.5261   20.7683 O   0  0  0  0  0  0  0  0  0  0  0  0
    8.5699  -19.3574   25.3179 N   0  0  0  0  0  0  0  0  0  0  0  0
    7.6609  -18.6181   24.5248 C   0  0  0  0  0  0  0  0  0  0  0  0
    6.5528  -18.2802   25.0652 O   0  0  0  0  0  0  0  0  0  0  0  0
    7.9542  -18.2429   23.1332 C   0  0  0  0  0  0  0  0  0  0  0  0
    7.6298  -16.8344   22.8116 C   0  0  2  0  0  0  0  0  0  0  0  0
    8.1089  -16.5188   21.4539 N   0  0  0  0  0  0  0  0  0  0  0  0
    8.1464  -15.8749   23.7749 C   0  0  0  0  0  0  0  0  0  0  0  0
    9.3896  -15.5682   23.7438 O   0  0  0  0  0  0  0  0  0  0  0  0
    5.9650  -11.1294   26.9465 C   0  0  0  0  0  0  0  0  0  0  0  0
    7.0953  -12.0834   26.7663 C   0  0  1  0  0  0  0  0  0  0  0  0
    7.4680  -12.6670   28.1185 C   0  0  0  0  0  0  0  0  0  0  0  0
    6.7769  -13.2407   25.8680 C   0  0  0  0  0  0  0  0  0  0  0  0
    7.9506  -14.1416   25.5757 C   0  0  2  0  0  0  0  0  0  0  0  0
    7.3934  -15.2369   24.7558 N   0  0  0  0  0  0  0  0  0  0  0  0
    8.5636  -14.7443   26.7573 C   0  0  0  0  0  0  0  0  0  0  0  0
    9.6294  -14.3316   27.2461 O   0  0  0  0  0  0  0  0  0  0  0  0
    7.9648  -15.8369   27.4059 O   0  0  0  0  0  0  0  0  0  0  0  0
  2  1  1  6
  2  3  1  0
  2  5  1  0
  4  3  1  0
  5  6  2  0
  7  8  1  0
  8  9  2  0
  8 10  1  0
 11 10  1  1
 11 13  1  0
 12  5  1  0
 12 11  1  0
 13 20  1  0
 13 14  2  0
 16 17  1  1
 16 15  1  0
 18 16  1  0
 19 18  1  1
 19 21  1  0
 20 19  1  0
 21 23  1  0
 22 21  2  0
M  END
$$$$
