CNL.pdb
     RDKit          3D

 23 22  0  0  1  0  0  0  0  0999 V2000
    8.0394  -14.6073   17.6317 N   0  0  0  0  0  0  0  0  0  0  0  0
    9.0764  -14.6670   18.6275 C   0  0  1  0  0  0  0  0  0  0  0  0
    9.4047  -13.2138   18.9959 C   0  0  0  0  0  0  0  0  0  0  0  0
    7.8687  -12.4882   19.6302 S   0  0  0  0  0  0  0  0  0  0  0  0
    8.5792  -15.2994   19.8727 C   0  0  0  0  0  0  0  0  0  0  0  0
    7.3408  -15.4168   20.0910 O   0  0  0  0  0  0  0  0  0  0  0  0
    8.2823  -19.5991   21.8137 N   0  0  0  0  0  0  0  0  0  0  0  0
    9.4032  -18.8483   21.3874 C   0  0  0  0  0  0  0  0  0  0  0  0
    9.9493  -19.1875   20.2826 O   0  0  0  0  0  0  0  0  0  0  0  0
    9.9384  -17.7209   22.1660 C   0  0  0  0  0  0  0  0  0  0  0  0
    9.1434  -16.4777   22.0436 C   0  0  2  0  0  0  0  0  0  0  0  0
    9.5298  -15.7682   20.8108 N   0  0  0  0  0  0  0  0  0  0  0  0
    9.2440  -15.5968   23.1966 C   0  0  0  0  0  0  0  0  0  0  0  0
   10.3647  -15.0325   23.4540 O   0  0  0  0  0  0  0  0  0  0  0  0
    7.8447  -11.5180   26.3482 C   0  0  0  0  0  0  0  0  0  0  0  0
    7.0279  -12.7463   26.5594 C   0  0  1  0  0  0  0  0  0  0  0  0
    5.5740  -12.3459   26.7423 C   0  0  0  0  0  0  0  0  0  0  0  0
    7.0708  -13.7097   25.4115 C   0  0  0  0  0  0  0  0  0  0  0  0
    8.3971  -14.4055   25.2334 C   0  0  2  0  0  0  0  0  0  0  0  0
    8.2046  -15.2979   24.0720 N   0  0  0  0  0  0  0  0  0  0  0  0
    8.8044  -15.2364   26.3643 C   0  0  0  0  0  0  0  0  0  0  0  0
    8.3916  -16.3974   26.5283 O   0  0  0  0  0  0  0  0  0  0  0  0
    9.6971  -14.7517   27.3344 O   0  0  0  0  0  0  0  0  0  0  0  0
  2  1  1  6
  2  3  1  0
  2  5  1  0
  4  3  1  0
  5  6  2  0
  7  8  1  0
  8  9  2  0
  8 10  1  0
 11 10  1  1
 11 13  1  0
 12  5  1  0
 12 11  1  0
 13 20  1  0
 13 14  2  0
 16 17  1  6
 16 15  1  0
 18 16  1  0
 19 18  1  1
 19 21  1  0
 20 19  1  0
 21 23  1  0
 22 21  2  0
M  END
$$$$
