CNL.pdb
     RDKit          3D

 23 22  0  0  1  0  0  0  0  0999 V2000
    7.4125  -14.7925   18.5082 N   0  0  0  0  0  0  0  0  0  0  0  0
    8.3618  -14.4314   19.5275 C   0  0  1  0  0  0  0  0  0  0  0  0
    8.0502  -12.9786   19.9117 C   0  0  0  0  0  0  0  0  0  0  0  0
    8.6817  -11.9464   18.5613 S   0  0  0  0  0  0  0  0  0  0  0  0
    8.1488  -15.2315   20.7572 C   0  0  0  0  0  0  0  0  0  0  0  0
    6.9875  -15.5787   21.1122 O   0  0  0  0  0  0  0  0  0  0  0  0
   11.3121  -19.0588   24.2609 N   0  0  0  0  0  0  0  0  0  0  0  0
   10.1263  -18.5351   23.6941 C   0  0  0  0  0  0  0  0  0  0  0  0
    9.0169  -18.9132   24.2041 O   0  0  0  0  0  0  0  0  0  0  0  0
   10.1425  -17.5943   22.5635 C   0  0  0  0  0  0  0  0  0  0  0  0
    9.1908  -16.4691   22.7070 C   0  0  2  0  0  0  0  0  0  0  0  0
    9.2819  -15.5960   21.5230 N   0  0  0  0  0  0  0  0  0  0  0  0
    9.3671  -15.6989   23.9282 C   0  0  0  0  0  0  0  0  0  0  0  0
   10.4873  -15.1154   24.1409 O   0  0  0  0  0  0  0  0  0  0  0  0
    5.5298  -12.5825   26.1520 C   0  0  0  0  0  0  0  0  0  0  0  0
    6.8838  -13.0768   25.7745 C   0  0  1  0  0  0  0  0  0  0  0  0
    7.8893  -11.9543   25.9665 C   0  0  0  0  0  0  0  0  0  0  0  0
    7.3617  -14.2325   26.6013 C   0  0  0  0  0  0  0  0  0  0  0  0
    8.6908  -14.7988   26.1682 C   0  0  2  0  0  0  0  0  0  0  0  0
    8.4026  -15.5288   24.9167 N   0  0  0  0  0  0  0  0  0  0  0  0
    9.2810  -15.7504   27.1069 C   0  0  0  0  0  0  0  0  0  0  0  0
    9.1172  -16.9789   27.0109 O   0  0  0  0  0  0  0  0  0  0  0  0
   10.0748  -15.3117   28.1795 O   0  0  0  0  0  0  0  0  0  0  0  0
  2  1  1  6
  2  3  1  0
  2  5  1  0
  4  3  1  0
  5  6  2  0
  7  8  1  0
  8  9  2  0
  8 10  1  0
 11 10  1  6
 11 13  1  0
 12  5  1  0
 12 11  1  0
 13 20  1  0
 13 14  2  0
 16 17  1  1
 16 15  1  0
 18 16  1  0
 19 18  1  1
 19 21  1  0
 20 19  1  0
 21 23  1  0
 22 21  2  0
M  END
$$$$
