CNL.pdb
     RDKit          3D

 23 22  0  0  1  0  0  0  0  0999 V2000
    7.8999  -14.6551   17.7940 N   0  0  0  0  0  0  0  0  0  0  0  0
    8.4435  -14.1504   19.0271 C   0  0  1  0  0  0  0  0  0  0  0  0
    7.7586  -12.8004   19.2797 C   0  0  0  0  0  0  0  0  0  0  0  0
    8.4464  -12.1610   20.8308 S   0  0  0  0  0  0  0  0  0  0  0  0
    8.0642  -15.0181   20.1676 C   0  0  0  0  0  0  0  0  0  0  0  0
    6.9384  -15.5897   20.2016 O   0  0  0  0  0  0  0  0  0  0  0  0
   10.3799  -19.0801   23.7501 N   0  0  0  0  0  0  0  0  0  0  0  0
    9.3102  -18.4105   23.1106 C   0  0  0  0  0  0  0  0  0  0  0  0
    8.1240  -18.7412   23.4532 O   0  0  0  0  0  0  0  0  0  0  0  0
    9.5275  -17.3744   22.0894 C   0  0  0  0  0  0  0  0  0  0  0  0
    8.7721  -16.1246   22.3341 C   0  0  2  0  0  0  0  0  0  0  0  0
    8.9976  -15.1891   21.2178 N   0  0  0  0  0  0  0  0  0  0  0  0
    9.0776  -15.4896   23.6065 C   0  0  0  0  0  0  0  0  0  0  0  0
   10.2651  -15.0591   23.8190 O   0  0  0  0  0  0  0  0  0  0  0  0
    5.4587  -12.4412   26.1558 C   0  0  0  0  0  0  0  0  0  0  0  0
    6.7664  -12.9610   25.6658 C   0  0  1  0  0  0  0  0  0  0  0  0
    7.7889  -11.8381   25.7052 C   0  0  0  0  0  0  0  0  0  0  0  0
    7.3226  -14.0825   26.4907 C   0  0  0  0  0  0  0  0  0  0  0  0
    8.5813  -14.6988   25.9332 C   0  0  2  0  0  0  0  0  0  0  0  0
    8.1728  -15.2975   24.6460 N   0  0  0  0  0  0  0  0  0  0  0  0
    9.1509  -15.7654   26.7536 C   0  0  0  0  0  0  0  0  0  0  0  0
    9.6820  -15.5536   27.8574 O   0  0  0  0  0  0  0  0  0  0  0  0
    9.1231  -17.1024   26.3241 O   0  0  0  0  0  0  0  0  0  0  0  0
  2  1  1  6
  2  3  1  0
  2  5  1  0
  4  3  1  0
  5  6  2  0
  7  8  1  0
  8  9  2  0
  8 10  1  0
 11 10  1  6
 11 13  1  0
 12  5  1  0
 12 11  1  0
 13 20  1  0
 13 14  2  0
 16 17  1  1
 16 15  1  0
 18 16  1  0
 19 18  1  1
 19 21  1  0
 20 19  1  0
 21 23  1  0
 22 21  2  0
M  END
$$$$
