PTS.pdb
     RDKit          3D

 21 21  0  0  1  0  0  0  0  0999 V2000
    7.2130  -18.4378   16.7804 N   0  0  0  0  0  0  0  0  0  0  0  0
    6.9980  -19.8481   16.9650 C   0  0  0  0  0  0  0  0  0  0  0  0
    5.7353  -19.9923   17.7846 C   0  0  0  0  0  0  0  0  0  0  0  0
    5.7763  -18.7490   18.6463 C   0  0  0  0  0  0  0  0  0  0  0  0
    6.5194  -17.7349   17.8081 C   0  0  1  0  0  0  0  0  0  0  0  0
    7.4187  -16.8795   18.6288 C   0  0  0  0  0  0  0  0  0  0  0  0
    8.6360  -17.1037   18.7703 O   0  0  0  0  0  0  0  0  0  0  0  0
    8.1426  -12.5046   20.6982 C   0  0  0  0  0  0  0  0  0  0  0  0
    7.1973  -13.3768   19.9089 C   0  0  1  0  0  0  0  0  0  0  0  0
    7.1527  -12.9505   18.5867 O   0  0  0  0  0  0  0  0  0  0  0  0
    7.6705  -14.8046   20.0325 C   0  0  2  0  0  0  0  0  0  0  0  0
    6.8867  -15.7461   19.2929 N   0  0  0  0  0  0  0  0  0  0  0  0
    7.8752  -15.2086   21.4466 C   0  0  0  0  0  0  0  0  0  0  0  0
    6.9088  -15.6057   22.1473 O   0  0  0  0  0  0  0  0  0  0  0  0
    9.4681  -18.2533   24.0555 O   0  0  0  0  0  0  0  0  0  0  0  0
    9.2216  -17.4717   22.9295 C   0  0  0  0  0  0  0  0  0  0  0  0
    9.3957  -16.0009   23.2449 C   0  0  2  0  0  0  0  0  0  0  0  0
    9.1416  -15.1740   22.0829 N   0  0  0  0  0  0  0  0  0  0  0  0
   10.7268  -15.7275   23.8439 C   0  0  0  0  0  0  0  0  0  0  0  0
   10.9803  -16.2403   25.1074 O   0  0  0  0  0  0  0  0  0  0  0  0
   11.5566  -15.0604   23.2064 O   0  0  0  0  0  0  0  0  0  0  0  0
  1  5  1  0
  2  1  1  0
  3  2  1  0
  3  4  1  0
  4  5  1  0
  5  6  1  1
  6  7  2  0
  9  8  1  1
  9 10  1  0
  9 11  1  0
 11 13  1  0
 12  6  1  0
 11 12  1  1
 13 14  2  0
 13 18  1  0
 17 16  1  6
 16 15  1  0
 17 19  1  0
 18 17  1  0
 19 21  2  0
 19 20  1  0
M  END
$$$$
