PTS.pdb
     RDKit          3D

 21 21  0  0  1  0  0  0  0  0999 V2000
    7.6815  -15.3162   19.3730 N   0  0  0  0  0  0  0  0  0  0  0  0
    6.7512  -14.4140   18.7487 C   0  0  0  0  0  0  0  0  0  0  0  0
    7.5711  -13.3091   18.1208 C   0  0  0  0  0  0  0  0  0  0  0  0
    8.7499  -13.2171   19.0652 C   0  0  0  0  0  0  0  0  0  0  0  0
    8.8974  -14.6148   19.6198 C   0  0  1  0  0  0  0  0  0  0  0  0
    9.2781  -14.6104   21.0582 C   0  0  0  0  0  0  0  0  0  0  0  0
   10.3104  -14.0641   21.4918 O   0  0  0  0  0  0  0  0  0  0  0  0
    8.0183  -15.1552   25.7235 C   0  0  0  0  0  0  0  0  0  0  0  0
    7.5309  -15.1906   24.2958 C   0  0  1  0  0  0  0  0  0  0  0  0
    6.8210  -14.0306   24.0093 O   0  0  0  0  0  0  0  0  0  0  0  0
    8.7329  -15.3603   23.3991 C   0  0  2  0  0  0  0  0  0  0  0  0
    8.4397  -15.2539   22.0024 N   0  0  0  0  0  0  0  0  0  0  0  0
    9.5165  -16.5765   23.7333 C   0  0  0  0  0  0  0  0  0  0  0  0
    9.1759  -17.7024   23.2875 O   0  0  0  0  0  0  0  0  0  0  0  0
   13.5207  -18.8590   24.6513 O   0  0  0  0  0  0  0  0  0  0  0  0
   12.8572  -17.6494   24.4607 C   0  0  0  0  0  0  0  0  0  0  0  0
   11.3953  -17.7707   24.8366 C   0  0  2  0  0  0  0  0  0  0  0  0
   10.6707  -16.5482   24.5560 N   0  0  0  0  0  0  0  0  0  0  0  0
   11.2312  -18.2054   26.2471 C   0  0  0  0  0  0  0  0  0  0  0  0
   11.7097  -19.4606   26.5924 O   0  0  0  0  0  0  0  0  0  0  0  0
   10.6808  -17.4452   27.0589 O   0  0  0  0  0  0  0  0  0  0  0  0
  1  5  1  0
  2  1  1  0
  3  2  1  0
  3  4  1  0
  4  5  1  0
  5  6  1  1
  6  7  2  0
  9  8  1  1
  9 10  1  0
  9 11  1  0
 11 13  1  0
 12  6  1  0
 11 12  1  6
 13 14  2  0
 13 18  1  0
 17 16  1  1
 16 15  1  0
 17 19  1  0
 18 17  1  0
 19 21  2  0
 19 20  1  0
M  END
$$$$
