PTS.pdb
     RDKit          3D

 21 21  0  0  1  0  0  0  0  0999 V2000
    8.1198  -14.5554   20.1248 N   0  0  0  0  0  0  0  0  0  0  0  0
    7.8989  -15.7266   19.3192 C   0  0  0  0  0  0  0  0  0  0  0  0
    6.5596  -16.2937   19.7336 C   0  0  0  0  0  0  0  0  0  0  0  0
    6.5009  -15.9218   21.1992 C   0  0  0  0  0  0  0  0  0  0  0  0
    7.3178  -14.6546   21.2987 C   0  0  1  0  0  0  0  0  0  0  0  0
    8.1202  -14.6012   22.5507 C   0  0  0  0  0  0  0  0  0  0  0  0
    9.3000  -14.9945   22.6253 O   0  0  0  0  0  0  0  0  0  0  0  0
    6.1412  -13.4554   26.1829 C   0  0  0  0  0  0  0  0  0  0  0  0
    7.5740  -13.0343   25.9661 C   0  0  1  0  0  0  0  0  0  0  0  0
    8.2459  -12.9989   27.1822 O   0  0  0  0  0  0  0  0  0  0  0  0
    8.2012  -14.0051   24.9955 C   0  0  2  0  0  0  0  0  0  0  0  0
    7.5345  -14.0804   23.7315 N   0  0  0  0  0  0  0  0  0  0  0  0
    8.4341  -15.3386   25.6056 C   0  0  0  0  0  0  0  0  0  0  0  0
    7.5775  -16.2533   25.4961 O   0  0  0  0  0  0  0  0  0  0  0  0
   11.2087  -18.9623   26.3892 O   0  0  0  0  0  0  0  0  0  0  0  0
   10.9362  -17.6775   25.9260 C   0  0  0  0  0  0  0  0  0  0  0  0
    9.8524  -17.0230   26.7565 C   0  0  2  0  0  0  0  0  0  0  0  0
    9.6079  -15.6595   26.3328 N   0  0  0  0  0  0  0  0  0  0  0  0
   10.1527  -17.1108   28.2082 C   0  0  0  0  0  0  0  0  0  0  0  0
   10.3070  -18.3752   28.7571 O   0  0  0  0  0  0  0  0  0  0  0  0
   10.2547  -16.0683   28.8736 O   0  0  0  0  0  0  0  0  0  0  0  0
  1  5  1  0
  2  1  1  0
  3  2  1  0
  3  4  1  0
  4  5  1  0
  5  6  1  1
  6  7  2  0
  9  8  1  1
  9 10  1  0
  9 11  1  0
 11 13  1  0
 12  6  1  0
 11 12  1  6
 13 14  2  0
 13 18  1  0
 17 16  1  6
 16 15  1  0
 17 19  1  0
 18 17  1  0
 19 21  2  0
 19 20  1  0
M  END
$$$$
