PTS.pdb
     RDKit          3D

 21 21  0  0  1  0  0  0  0  0999 V2000
    7.8212  -17.2518   16.2956 N   0  0  0  0  0  0  0  0  0  0  0  0
    8.0544  -18.5629   15.7516 C   0  0  0  0  0  0  0  0  0  0  0  0
    7.2763  -19.5350   16.6099 C   0  0  0  0  0  0  0  0  0  0  0  0
    7.3263  -18.8661   17.9663 C   0  0  0  0  0  0  0  0  0  0  0  0
    7.4157  -17.3903   17.6548 C   0  0  1  0  0  0  0  0  0  0  0  0
    8.3123  -16.6707   18.5996 C   0  0  0  0  0  0  0  0  0  0  0  0
    9.5486  -16.6092   18.4583 O   0  0  0  0  0  0  0  0  0  0  0  0
    7.1602  -13.2385   20.2181 C   0  0  0  0  0  0  0  0  0  0  0  0
    7.7159  -14.1216   21.3083 C   0  0  1  0  0  0  0  0  0  0  0  0
    6.6795  -14.6129   22.0934 O   0  0  0  0  0  0  0  0  0  0  0  0
    8.5081  -15.2260   20.6523 C   0  0  2  0  0  0  0  0  0  0  0  0
    7.7549  -16.0139   19.7250 N   0  0  0  0  0  0  0  0  0  0  0  0
    9.2493  -16.0497   21.6407 C   0  0  0  0  0  0  0  0  0  0  0  0
    8.8569  -17.2082   21.9342 O   0  0  0  0  0  0  0  0  0  0  0  0
   13.1780  -16.9298   24.3216 O   0  0  0  0  0  0  0  0  0  0  0  0
   12.5599  -16.1274   23.3659 C   0  0  0  0  0  0  0  0  0  0  0  0
   11.0812  -16.4401   23.2733 C   0  0  2  0  0  0  0  0  0  0  0  0
   10.4185  -15.5951   22.3011 N   0  0  0  0  0  0  0  0  0  0  0  0
   10.4279  -16.3764   24.6054 C   0  0  0  0  0  0  0  0  0  0  0  0
   10.7537  -17.3589   25.5285 O   0  0  0  0  0  0  0  0  0  0  0  0
    9.6248  -15.4617   24.8472 O   0  0  0  0  0  0  0  0  0  0  0  0
  1  5  1  0
  2  1  1  0
  3  2  1  0
  3  4  1  0
  4  5  1  0
  5  6  1  1
  6  7  2  0
  9  8  1  6
  9 10  1  0
  9 11  1  0
 11 13  1  0
 12  6  1  0
 11 12  1  1
 13 14  2  0
 13 18  1  0
 17 16  1  1
 16 15  1  0
 17 19  1  0
 18 17  1  0
 19 21  2  0
 19 20  1  0
M  END
$$$$
