PTS.pdb
     RDKit          3D

 21 21  0  0  1  0  0  0  0  0999 V2000
    7.8271  -17.3278   19.9814 N   0  0  0  0  0  0  0  0  0  0  0  0
    6.8878  -16.6750   19.1090 C   0  0  0  0  0  0  0  0  0  0  0  0
    7.6999  -15.9502   18.0592 C   0  0  0  0  0  0  0  0  0  0  0  0
    8.9493  -15.5803   18.8285 C   0  0  0  0  0  0  0  0  0  0  0  0
    9.0843  -16.6657   19.8710 C   0  0  1  0  0  0  0  0  0  0  0  0
    9.5725  -16.1357   21.1728 C   0  0  0  0  0  0  0  0  0  0  0  0
   10.6741  -15.5709   21.3126 O   0  0  0  0  0  0  0  0  0  0  0  0
    7.9247  -13.7332   23.4962 C   0  0  0  0  0  0  0  0  0  0  0  0
    8.1232  -14.9753   24.3298 C   0  0  1  0  0  0  0  0  0  0  0  0
    6.9093  -15.6307   24.4989 O   0  0  0  0  0  0  0  0  0  0  0  0
    9.1473  -15.8406   23.6369 C   0  0  2  0  0  0  0  0  0  0  0  0
    8.7608  -16.2682   22.3270 N   0  0  0  0  0  0  0  0  0  0  0  0
    9.6119  -16.9593   24.4956 C   0  0  0  0  0  0  0  0  0  0  0  0
    9.0377  -18.0779   24.4592 O   0  0  0  0  0  0  0  0  0  0  0  0
   13.4435  -17.3172   26.1270 O   0  0  0  0  0  0  0  0  0  0  0  0
   12.5748  -18.3639   25.8283 C   0  0  0  0  0  0  0  0  0  0  0  0
   11.1451  -17.9893   26.1575 C   0  0  2  0  0  0  0  0  0  0  0  0
   10.7056  -16.8420   25.3900 N   0  0  0  0  0  0  0  0  0  0  0  0
   10.9581  -17.7889   27.6170 C   0  0  0  0  0  0  0  0  0  0  0  0
   11.2857  -18.8427   28.4573 O   0  0  0  0  0  0  0  0  0  0  0  0
   10.5224  -16.7038   28.0323 O   0  0  0  0  0  0  0  0  0  0  0  0
  1  5  1  0
  2  1  1  0
  3  2  1  0
  3  4  1  0
  4  5  1  0
  5  6  1  1
  6  7  2  0
  9  8  1  6
  9 10  1  0
  9 11  1  0
 11 13  1  0
 12  6  1  0
 11 12  1  6
 13 14  2  0
 13 18  1  0
 17 16  1  1
 16 15  1  0
 17 19  1  0
 18 17  1  0
 19 21  2  0
 19 20  1  0
M  END
$$$$
