PTS.pdb
     RDKit          3D

 21 21  0  0  1  0  0  0  0  0999 V2000
    9.0058  -14.5562   19.1221 N   0  0  0  0  0  0  0  0  0  0  0  0
    8.1643  -14.1942   18.0130 C   0  0  0  0  0  0  0  0  0  0  0  0
    7.9063  -12.7086   18.1291 C   0  0  0  0  0  0  0  0  0  0  0  0
    7.9242  -12.5028   19.6281 C   0  0  0  0  0  0  0  0  0  0  0  0
    8.8575  -13.5735   20.1436 C   0  0  1  0  0  0  0  0  0  0  0  0
    8.3921  -14.1497   21.4341 C   0  0  0  0  0  0  0  0  0  0  0  0
    8.0358  -13.4555   22.4053 O   0  0  0  0  0  0  0  0  0  0  0  0
    5.9436  -17.1813   21.7191 C   0  0  0  0  0  0  0  0  0  0  0  0
    7.1659  -17.5065   22.5422 C   0  0  1  0  0  0  0  0  0  0  0  0
    7.9422  -18.4524   21.8830 O   0  0  0  0  0  0  0  0  0  0  0  0
    7.9173  -16.2205   22.7853 C   0  0  2  0  0  0  0  0  0  0  0  0
    8.3426  -15.5574   21.5906 N   0  0  0  0  0  0  0  0  0  0  0  0
    9.0126  -16.3875   23.7738 C   0  0  0  0  0  0  0  0  0  0  0  0
   10.2157  -16.3790   23.4067 O   0  0  0  0  0  0  0  0  0  0  0  0
   10.6059  -16.7411   28.3404 O   0  0  0  0  0  0  0  0  0  0  0  0
    9.5525  -16.4353   27.4824 C   0  0  0  0  0  0  0  0  0  0  0  0
    9.8853  -16.8277   26.0582 C   0  0  2  0  0  0  0  0  0  0  0  0
    8.7791  -16.5628   25.1612 N   0  0  0  0  0  0  0  0  0  0  0  0
   10.3448  -18.2375   25.9762 C   0  0  0  0  0  0  0  0  0  0  0  0
   11.6963  -18.4847   26.1654 O   0  0  0  0  0  0  0  0  0  0  0  0
    9.5195  -19.1350   25.7452 O   0  0  0  0  0  0  0  0  0  0  0  0
  1  5  1  0
  2  1  1  0
  3  2  1  0
  3  4  1  0
  4  5  1  0
  5  6  1  1
  6  7  2  0
  9  8  1  6
  9 10  1  0
  9 11  1  0
 11 13  1  0
 12  6  1  0
 11 12  1  6
 13 14  2  0
 13 18  1  0
 17 16  1  1
 16 15  1  0
 17 19  1  0
 18 17  1  0
 19 21  2  0
 19 20  1  0
M  END
$$$$
