PTS.pdb
     RDKit          3D

 21 21  0  0  1  0  0  0  0  0999 V2000
    9.3530  -14.1085   18.5237 N   0  0  0  0  0  0  0  0  0  0  0  0
    8.3361  -13.7509   17.5712 C   0  0  0  0  0  0  0  0  0  0  0  0
    7.5946  -12.5668   18.1500 C   0  0  0  0  0  0  0  0  0  0  0  0
    7.6842  -12.8360   19.6364 C   0  0  0  0  0  0  0  0  0  0  0  0
    8.9740  -13.6053   19.8022 C   0  0  1  0  0  0  0  0  0  0  0  0
    8.8616  -14.6739   20.8315 C   0  0  0  0  0  0  0  0  0  0  0  0
    8.2200  -14.5396   21.8910 O   0  0  0  0  0  0  0  0  0  0  0  0
    8.0565  -18.3602   20.0394 C   0  0  0  0  0  0  0  0  0  0  0  0
    9.3257  -18.3661   20.8557 C   0  0  1  0  0  0  0  0  0  0  0  0
   10.4131  -18.6490   20.0377 O   0  0  0  0  0  0  0  0  0  0  0  0
    9.4516  -17.0205   21.5276 C   0  0  2  0  0  0  0  0  0  0  0  0
    9.5088  -15.9167   20.6186 N   0  0  0  0  0  0  0  0  0  0  0  0
   10.5416  -16.9952   22.5356 C   0  0  0  0  0  0  0  0  0  0  0  0
   11.5770  -16.3068   22.3445 O   0  0  0  0  0  0  0  0  0  0  0  0
   10.0899  -18.0695   26.4859 O   0  0  0  0  0  0  0  0  0  0  0  0
   11.1665  -17.2942   26.0624 C   0  0  0  0  0  0  0  0  0  0  0  0
   11.6050  -17.6946   24.6695 C   0  0  2  0  0  0  0  0  0  0  0  0
   10.4872  -17.7269   23.7486 N   0  0  0  0  0  0  0  0  0  0  0  0
   12.3539  -18.9769   24.6831 C   0  0  0  0  0  0  0  0  0  0  0  0
   13.5635  -19.0073   25.3609 O   0  0  0  0  0  0  0  0  0  0  0  0
   11.8822  -19.9644   24.0979 O   0  0  0  0  0  0  0  0  0  0  0  0
  1  5  1  0
  2  1  1  0
  3  2  1  0
  3  4  1  0
  4  5  1  0
  5  6  1  1
  6  7  2  0
  9  8  1  6
  9 10  1  0
  9 11  1  0
 11 13  1  0
 12  6  1  0
 11 12  1  6
 13 14  2  0
 13 18  1  0
 17 16  1  1
 16 15  1  0
 17 19  1  0
 18 17  1  0
 19 21  2  0
 19 20  1  0
M  END
$$$$
