PTS.pdb
     RDKit          3D

 21 21  0  0  1  0  0  0  0  0999 V2000
    9.2763  -14.2261   18.7726 N   0  0  0  0  0  0  0  0  0  0  0  0
    8.3704  -13.8719   17.7128 C   0  0  0  0  0  0  0  0  0  0  0  0
    7.6311  -12.6335   18.1677 C   0  0  0  0  0  0  0  0  0  0  0  0
    7.5684  -12.8377   19.6658 C   0  0  0  0  0  0  0  0  0  0  0  0
    8.8014  -13.6500   19.9866 C   0  0  1  0  0  0  0  0  0  0  0  0
    8.5453  -14.6648   21.0443 C   0  0  0  0  0  0  0  0  0  0  0  0
    7.8592  -14.4382   22.0592 O   0  0  0  0  0  0  0  0  0  0  0  0
    7.7424  -18.4815   20.4216 C   0  0  0  0  0  0  0  0  0  0  0  0
    8.9406  -18.3889   21.3343 C   0  0  1  0  0  0  0  0  0  0  0  0
   10.0965  -18.7081   20.6316 O   0  0  0  0  0  0  0  0  0  0  0  0
    8.9851  -16.9910   21.9014 C   0  0  2  0  0  0  0  0  0  0  0  0
    9.0992  -15.9627   20.9127 N   0  0  0  0  0  0  0  0  0  0  0  0
    9.9852  -16.8577   22.9908 C   0  0  0  0  0  0  0  0  0  0  0  0
   11.0434  -16.2009   22.8142 O   0  0  0  0  0  0  0  0  0  0  0  0
    9.3012  -17.9631   26.9740 O   0  0  0  0  0  0  0  0  0  0  0  0
   10.2855  -17.0368   26.6383 C   0  0  0  0  0  0  0  0  0  0  0  0
   10.8588  -17.3314   25.2681 C   0  0  2  0  0  0  0  0  0  0  0  0
    9.8164  -17.4474   24.2690 N   0  0  0  0  0  0  0  0  0  0  0  0
   11.7423  -18.5248   25.2938 C   0  0  0  0  0  0  0  0  0  0  0  0
   12.8561  -18.4819   26.1191 O   0  0  0  0  0  0  0  0  0  0  0  0
   11.4613  -19.5064   24.5886 O   0  0  0  0  0  0  0  0  0  0  0  0
  1  5  1  0
  2  1  1  0
  3  2  1  0
  3  4  1  0
  4  5  1  0
  5  6  1  1
  6  7  2  0
  9  8  1  6
  9 10  1  0
  9 11  1  0
 11 13  1  0
 12  6  1  0
 11 12  1  6
 13 14  2  0
 13 18  1  0
 17 16  1  1
 16 15  1  0
 17 19  1  0
 18 17  1  0
 19 21  2  0
 19 20  1  0
M  END
$$$$
