PTS.pdb
     RDKit          3D

 21 21  0  0  1  0  0  0  0  0999 V2000
    7.9605  -15.3822   17.8709 N   0  0  0  0  0  0  0  0  0  0  0  0
    6.9889  -14.5569   17.2044 C   0  0  0  0  0  0  0  0  0  0  0  0
    7.7608  -13.4909   16.4596 C   0  0  0  0  0  0  0  0  0  0  0  0
    8.9657  -13.2932   17.3534 C   0  0  0  0  0  0  0  0  0  0  0  0
    9.1655  -14.6355   18.0177 C   0  0  1  0  0  0  0  0  0  0  0  0
    9.5906  -14.5013   19.4373 C   0  0  0  0  0  0  0  0  0  0  0  0
   10.6184  -13.8916   19.7898 O   0  0  0  0  0  0  0  0  0  0  0  0
    7.3027  -13.3605   22.2809 C   0  0  0  0  0  0  0  0  0  0  0  0
    7.8690  -14.6924   22.7083 C   0  0  1  0  0  0  0  0  0  0  0  0
    6.8991  -15.6803   22.5852 O   0  0  0  0  0  0  0  0  0  0  0  0
    9.0830  -14.9752   21.8574 C   0  0  2  0  0  0  0  0  0  0  0  0
    8.8026  -15.0882   20.4587 N   0  0  0  0  0  0  0  0  0  0  0  0
    9.8831  -16.1119   22.3794 C   0  0  0  0  0  0  0  0  0  0  0  0
    9.7991  -17.2514   21.8532 O   0  0  0  0  0  0  0  0  0  0  0  0
   13.8115  -17.8535   24.3510 O   0  0  0  0  0  0  0  0  0  0  0  0
   13.0508  -16.7652   23.9312 C   0  0  0  0  0  0  0  0  0  0  0  0
   11.5791  -17.1192   23.8902 C   0  0  2  0  0  0  0  0  0  0  0  0
   10.7716  -15.9896   23.4773 N   0  0  0  0  0  0  0  0  0  0  0  0
   11.1212  -17.6896   25.1826 C   0  0  0  0  0  0  0  0  0  0  0  0
   11.6783  -18.8938   25.5867 O   0  0  0  0  0  0  0  0  0  0  0  0
   10.2693  -17.0817   25.8494 O   0  0  0  0  0  0  0  0  0  0  0  0
  1  5  1  0
  2  1  1  0
  3  2  1  0
  3  4  1  0
  4  5  1  0
  5  6  1  1
  6  7  2  0
  9  8  1  6
  9 10  1  0
  9 11  1  0
 11 13  1  0
 12  6  1  0
 11 12  1  6
 13 14  2  0
 13 18  1  0
 17 16  1  1
 16 15  1  0
 17 19  1  0
 18 17  1  0
 19 21  2  0
 19 20  1  0
M  END
$$$$
