PTS.pdb
     RDKit          3D

 21 21  0  0  1  0  0  0  0  0999 V2000
    9.0179  -14.2577   17.2793 N   0  0  0  0  0  0  0  0  0  0  0  0
    8.0091  -14.1057   16.2652 C   0  0  0  0  0  0  0  0  0  0  0  0
    7.1501  -12.9315   16.6781 C   0  0  0  0  0  0  0  0  0  0  0  0
    7.2090  -13.0149   18.1879 C   0  0  0  0  0  0  0  0  0  0  0  0
    8.5523  -13.6429   18.4778 C   0  0  1  0  0  0  0  0  0  0  0  0
    8.4937  -14.5885   19.6252 C   0  0  0  0  0  0  0  0  0  0  0  0
    7.7989  -14.3915   20.6404 O   0  0  0  0  0  0  0  0  0  0  0  0
    8.1699  -18.4717   19.3866 C   0  0  0  0  0  0  0  0  0  0  0  0
    9.4091  -18.1679   20.1926 C   0  0  1  0  0  0  0  0  0  0  0  0
   10.5430  -18.4083   19.4257 O   0  0  0  0  0  0  0  0  0  0  0  0
    9.3240  -16.7326   20.6513 C   0  0  2  0  0  0  0  0  0  0  0  0
    9.2583  -15.7811   19.5843 N   0  0  0  0  0  0  0  0  0  0  0  0
   10.3649  -16.4011   21.6569 C   0  0  0  0  0  0  0  0  0  0  0  0
   11.4255  -15.8176   21.3149 O   0  0  0  0  0  0  0  0  0  0  0  0
    9.7475  -16.7292   25.7531 O   0  0  0  0  0  0  0  0  0  0  0  0
   10.7470  -15.8821   25.2807 C   0  0  0  0  0  0  0  0  0  0  0  0
   11.2964  -16.3795   23.9603 C   0  0  2  0  0  0  0  0  0  0  0  0
   10.2340  -16.7128   23.0337 N   0  0  0  0  0  0  0  0  0  0  0  0
   12.2411  -17.5086   24.1555 C   0  0  0  0  0  0  0  0  0  0  0  0
   13.3785  -17.2710   24.9128 O   0  0  0  0  0  0  0  0  0  0  0  0
   11.9877  -18.6105   23.6441 O   0  0  0  0  0  0  0  0  0  0  0  0
  1  5  1  0
  2  1  1  0
  3  2  1  0
  3  4  1  0
  4  5  1  0
  5  6  1  1
  6  7  2  0
  9  8  1  6
  9 10  1  0
  9 11  1  0
 11 13  1  0
 12  6  1  0
 11 12  1  6
 13 14  2  0
 13 18  1  0
 17 16  1  1
 16 15  1  0
 17 19  1  0
 18 17  1  0
 19 21  2  0
 19 20  1  0
M  END
$$$$
