PTS.pdb
     RDKit          3D

 21 21  0  0  1  0  0  0  0  0999 V2000
    8.7322  -16.8175   14.9568 N   0  0  0  0  0  0  0  0  0  0  0  0
    9.1666  -18.0844   14.4320 C   0  0  0  0  0  0  0  0  0  0  0  0
    8.2754  -19.1394   15.0483 C   0  0  0  0  0  0  0  0  0  0  0  0
    7.9702  -18.5402   16.4039 C   0  0  0  0  0  0  0  0  0  0  0  0
    8.0351  -17.0475   16.1785 C   0  0  1  0  0  0  0  0  0  0  0  0
    8.6434  -16.3317   17.3324 C   0  0  0  0  0  0  0  0  0  0  0  0
    9.8714  -16.2811   17.5369 O   0  0  0  0  0  0  0  0  0  0  0  0
    8.0408  -13.1358   21.0159 C   0  0  0  0  0  0  0  0  0  0  0  0
    7.3696  -13.8404   19.8625 C   0  0  1  0  0  0  0  0  0  0  0  0
    7.1059  -12.9334   18.8429 O   0  0  0  0  0  0  0  0  0  0  0  0
    8.2765  -14.9590   19.4110 C   0  0  2  0  0  0  0  0  0  0  0  0
    7.8038  -15.6658   18.2599 N   0  0  0  0  0  0  0  0  0  0  0  0
    8.6547  -15.8618   20.5276 C   0  0  0  0  0  0  0  0  0  0  0  0
    7.9706  -16.8855   20.7855 O   0  0  0  0  0  0  0  0  0  0  0  0
   12.4288  -16.6856   21.5035 O   0  0  0  0  0  0  0  0  0  0  0  0
   11.3284  -17.4765   21.8244 C   0  0  0  0  0  0  0  0  0  0  0  0
   10.1824  -16.6265   22.3316 C   0  0  2  0  0  0  0  0  0  0  0  0
    9.7833  -15.6341   21.3547 N   0  0  0  0  0  0  0  0  0  0  0  0
   10.4990  -16.0173   23.6484 C   0  0  0  0  0  0  0  0  0  0  0  0
   10.7895  -16.8743   24.6996 O   0  0  0  0  0  0  0  0  0  0  0  0
   10.4942  -14.7819   23.7654 O   0  0  0  0  0  0  0  0  0  0  0  0
  1  5  1  0
  2  1  1  0
  3  2  1  0
  3  4  1  0
  4  5  1  0
  5  6  1  1
  6  7  2  0
  9  8  1  1
  9 10  1  0
  9 11  1  0
 11 13  1  0
 12  6  1  0
 11 12  1  6
 13 14  2  0
 13 18  1  0
 17 16  1  6
 16 15  1  0
 17 19  1  0
 18 17  1  0
 19 21  2  0
 19 20  1  0
M  END
$$$$
