PTS.pdb
     RDKit          3D

 21 21  0  0  1  0  0  0  0  0999 V2000
    9.1843  -14.2103   18.3416 N   0  0  0  0  0  0  0  0  0  0  0  0
    8.0951  -13.8369   17.4793 C   0  0  0  0  0  0  0  0  0  0  0  0
    7.3791  -12.6888   18.1547 C   0  0  0  0  0  0  0  0  0  0  0  0
    7.5811  -13.0106   19.6194 C   0  0  0  0  0  0  0  0  0  0  0  0
    8.8916  -13.7615   19.6623 C   0  0  1  0  0  0  0  0  0  0  0  0
    8.8715  -14.8690   20.6558 C   0  0  0  0  0  0  0  0  0  0  0  0
    8.2953  -14.7903   21.7576 O   0  0  0  0  0  0  0  0  0  0  0  0
    8.2747  -18.6336   19.7109 C   0  0  0  0  0  0  0  0  0  0  0  0
    9.5536  -18.5482   20.5073 C   0  0  1  0  0  0  0  0  0  0  0  0
   10.6476  -18.6982   19.6632 O   0  0  0  0  0  0  0  0  0  0  0  0
    9.5650  -17.2212   21.2261 C   0  0  2  0  0  0  0  0  0  0  0  0
    9.5345  -16.0853   20.3563 N   0  0  0  0  0  0  0  0  0  0  0  0
   10.6448  -17.1414   22.2421 C   0  0  0  0  0  0  0  0  0  0  0  0
   11.7183  -16.5352   21.9919 O   0  0  0  0  0  0  0  0  0  0  0  0
   10.0974  -18.6287   26.0053 O   0  0  0  0  0  0  0  0  0  0  0  0
   11.1556  -17.7295   25.8991 C   0  0  0  0  0  0  0  0  0  0  0  0
   11.6372  -17.6296   24.4670 C   0  0  2  0  0  0  0  0  0  0  0  0
   10.5385  -17.7284   23.5282 N   0  0  0  0  0  0  0  0  0  0  0  0
   12.7053  -18.6213   24.1825 C   0  0  0  0  0  0  0  0  0  0  0  0
   13.9174  -18.4663   24.8386 O   0  0  0  0  0  0  0  0  0  0  0  0
   12.4839  -19.5422   23.3807 O   0  0  0  0  0  0  0  0  0  0  0  0
  1  5  1  0
  2  1  1  0
  3  2  1  0
  3  4  1  0
  4  5  1  0
  5  6  1  1
  6  7  2  0
  9  8  1  6
  9 10  1  0
  9 11  1  0
 11 13  1  0
 12  6  1  0
 11 12  1  6
 13 14  2  0
 13 18  1  0
 17 16  1  1
 16 15  1  0
 17 19  1  0
 18 17  1  0
 19 21  2  0
 19 20  1  0
M  END
$$$$
