PTS.pdb
     RDKit          3D

 21 21  0  0  1  0  0  0  0  0999 V2000
    8.1892  -14.7711   19.2158 N   0  0  0  0  0  0  0  0  0  0  0  0
    7.2401  -13.8835   18.5988 C   0  0  0  0  0  0  0  0  0  0  0  0
    7.5808  -12.4870   19.0686 C   0  0  0  0  0  0  0  0  0  0  0  0
    8.1251  -12.7465   20.4565 C   0  0  0  0  0  0  0  0  0  0  0  0
    8.7208  -14.1326   20.3738 C   0  0  1  0  0  0  0  0  0  0  0  0
    8.4944  -14.9158   21.6185 C   0  0  0  0  0  0  0  0  0  0  0  0
    7.3721  -15.3181   21.9800 O   0  0  0  0  0  0  0  0  0  0  0  0
    9.1148  -18.0613   22.5531 C   0  0  0  0  0  0  0  0  0  0  0  0
    9.9303  -17.3787   23.6238 C   0  0  1  0  0  0  0  0  0  0  0  0
   11.2848  -17.5020   23.3376 O   0  0  0  0  0  0  0  0  0  0  0  0
    9.4905  -15.9366   23.6934 C   0  0  2  0  0  0  0  0  0  0  0  0
    9.5962  -15.2330   22.4517 N   0  0  0  0  0  0  0  0  0  0  0  0
   10.1220  -15.2102   24.8240 C   0  0  0  0  0  0  0  0  0  0  0  0
   11.1909  -14.5680   24.6577 O   0  0  0  0  0  0  0  0  0  0  0  0
    8.1664  -13.4040   27.6895 O   0  0  0  0  0  0  0  0  0  0  0  0
    9.5337  -13.1875   27.5375 C   0  0  0  0  0  0  0  0  0  0  0  0
   10.2495  -14.4771   27.1946 C   0  0  2  0  0  0  0  0  0  0  0  0
    9.5747  -15.1935   26.1317 N   0  0  0  0  0  0  0  0  0  0  0  0
   10.4503  -15.3236   28.3980 C   0  0  0  0  0  0  0  0  0  0  0  0
   11.0574  -14.7400   29.5001 O   0  0  0  0  0  0  0  0  0  0  0  0
   10.0751  -16.5064   28.3807 O   0  0  0  0  0  0  0  0  0  0  0  0
  1  5  1  0
  2  1  1  0
  3  2  1  0
  3  4  1  0
  4  5  1  0
  5  6  1  1
  6  7  2  0
  9  8  1  6
  9 10  1  0
  9 11  1  0
 11 13  1  0
 12  6  1  0
 11 12  1  6
 13 14  2  0
 13 18  1  0
 17 16  1  1
 16 15  1  0
 17 19  1  0
 18 17  1  0
 19 21  2  0
 19 20  1  0
M  END
$$$$
