KLT.pdb
     RDKit          3D

 25 24  0  0  1  0  0  0  0  0999 V2000
   18.0711  -11.7856  -15.4784 N   0  0  0  0  0  0  0  0  0  0  0  0
   17.9219  -10.3745  -15.7911 C   0  0  1  0  0  0  0  0  0  0  0  0
   16.5817  -10.0143  -16.3273 C   0  0  0  0  0  0  0  0  0  0  0  0
   15.8719  -11.1839  -16.9592 C   0  0  0  0  0  0  0  0  0  0  0  0
   14.4176  -11.2561  -16.5788 C   0  0  0  0  0  0  0  0  0  0  0  0
   13.7493  -12.4380  -17.2404 C   0  0  0  0  0  0  0  0  0  0  0  0
   12.3177  -12.4479  -16.9492 N   0  0  0  0  0  0  0  0  0  0  0  0
   18.3604   -9.5961  -14.6176 C   0  0  0  0  0  0  0  0  0  0  0  0
   18.3332  -10.0315  -13.4406 O   0  0  0  0  0  0  0  0  0  0  0  0
   21.4168   -6.4132  -11.7356 C   0  0  0  0  0  0  0  0  0  0  0  0
   20.8049   -5.5842  -12.8888 C   0  0  1  0  0  0  0  0  0  0  0  0
   21.8641   -4.6155  -13.2897 C   0  0  0  0  0  0  0  0  0  0  0  0
   20.3924   -6.5689  -13.9176 C   0  0  0  0  0  0  0  0  0  0  0  0
   19.1970   -7.4053  -13.6720 C   0  0  2  0  0  0  0  0  0  0  0  0
   18.8621   -8.2413  -14.7833 N   0  0  0  0  0  0  0  0  0  0  0  0
   18.0479   -6.6732  -13.0820 C   0  0  0  0  0  0  0  0  0  0  0  0
   17.1768   -6.2242  -13.8390 O   0  0  0  0  0  0  0  0  0  0  0  0
   15.5373   -5.1730   -8.9803 C   0  0  0  0  0  0  0  0  0  0  0  0
   16.6924   -5.9291   -9.5986 C   0  0  1  0  0  0  0  0  0  0  0  0
   16.6535   -7.2895   -9.1818 O   0  0  0  0  0  0  0  0  0  0  0  0
   16.8209   -5.7989  -11.0595 C   0  0  2  0  0  0  0  0  0  0  0  0
   17.9145   -6.4680  -11.6969 N   0  0  0  0  0  0  0  0  0  0  0  0
   16.8730   -4.3091  -11.3547 C   0  0  0  0  0  0  0  0  0  0  0  0
   17.8792   -3.8164  -11.8593 O   0  0  0  0  0  0  0  0  0  0  0  0
   15.7731   -3.5655  -11.0377 O   0  0  0  0  0  0  0  0  0  0  0  0
  2  1  1  1
  2  8  1  0
  3  2  1  0
  4  5  1  0
  4  3  1  0
  6  7  1  0
  6  5  1  0
  8  9  2  0
 11 10  1  1
 11 13  1  0
 12 11  1  0
 14 13  1  6
 15  8  1  0
 15 14  1  0
 16 17  2  0
 16 14  1  0
 19 18  1  6
 19 21  1  0
 20 19  1  0
 21 22  1  1
 22 16  1  0
 23 25  1  0
 23 21  1  0
 24 23  2  0
M  END
$$$$
