KLT.pdb
     RDKit          3D

 25 24  0  0  1  0  0  0  0  0999 V2000
   19.7075  -12.2545  -16.7549 N   0  0  0  0  0  0  0  0  0  0  0  0
   20.2354  -11.0710  -17.4122 C   0  0  1  0  0  0  0  0  0  0  0  0
   19.2111  -10.2840  -18.1503 C   0  0  0  0  0  0  0  0  0  0  0  0
   18.3491  -11.1390  -19.0429 C   0  0  0  0  0  0  0  0  0  0  0  0
   18.3875  -10.7003  -20.4820 C   0  0  0  0  0  0  0  0  0  0  0  0
   17.5171  -11.5911  -21.3366 C   0  0  0  0  0  0  0  0  0  0  0  0
   17.6166  -11.2097  -22.7433 N   0  0  0  0  0  0  0  0  0  0  0  0
   21.0219  -10.3101  -16.4235 C   0  0  0  0  0  0  0  0  0  0  0  0
   20.6604  -10.1256  -15.2357 O   0  0  0  0  0  0  0  0  0  0  0  0
   26.4840  -10.4526  -15.6767 C   0  0  0  0  0  0  0  0  0  0  0  0
   24.9575  -10.4419  -15.4295 C   0  0  1  0  0  0  0  0  0  0  0  0
   24.7874  -10.7045  -13.9724 C   0  0  0  0  0  0  0  0  0  0  0  0
   24.4795   -9.1268  -15.9197 C   0  0  0  0  0  0  0  0  0  0  0  0
   23.0263   -8.8497  -15.9299 C   0  0  2  0  0  0  0  0  0  0  0  0
   22.2974   -9.7212  -16.7991 N   0  0  0  0  0  0  0  0  0  0  0  0
   22.6777   -7.4125  -16.0629 C   0  0  0  0  0  0  0  0  0  0  0  0
   22.9884   -6.8190  -17.1042 O   0  0  0  0  0  0  0  0  0  0  0  0
   19.6654   -5.4743  -16.7664 C   0  0  0  0  0  0  0  0  0  0  0  0
   20.1595   -5.0763  -15.3931 C   0  0  1  0  0  0  0  0  0  0  0  0
   19.3209   -5.6505  -14.3965 O   0  0  0  0  0  0  0  0  0  0  0  0
   21.5857   -5.3364  -15.1367 C   0  0  2  0  0  0  0  0  0  0  0  0
   22.0115   -6.7005  -15.0490 N   0  0  0  0  0  0  0  0  0  0  0  0
   21.9340   -4.5944  -13.8569 C   0  0  0  0  0  0  0  0  0  0  0  0
   22.2696   -5.2205  -12.8544 O   0  0  0  0  0  0  0  0  0  0  0  0
   21.8558   -3.2318  -13.8779 O   0  0  0  0  0  0  0  0  0  0  0  0
  2  1  1  1
  2  8  1  0
  3  2  1  0
  4  5  1  0
  4  3  1  0
  6  7  1  0
  6  5  1  0
  8  9  2  0
 11 10  1  1
 11 13  1  0
 12 11  1  0
 14 13  1  6
 15  8  1  0
 15 14  1  0
 16 17  2  0
 16 14  1  0
 19 18  1  6
 19 21  1  0
 20 19  1  0
 21 22  1  1
 22 16  1  0
 23 25  1  0
 23 21  1  0
 24 23  2  0
M  END
$$$$
