KLT.pdb
     RDKit          3D

 25 24  0  0  1  0  0  0  0  0999 V2000
   20.9493  -11.1124  -19.9632 N   0  0  0  0  0  0  0  0  0  0  0  0
   20.0132  -10.3818  -19.1257 C   0  0  1  0  0  0  0  0  0  0  0  0
   18.7443  -11.1121  -18.8611 C   0  0  0  0  0  0  0  0  0  0  0  0
   18.1694  -11.7515  -20.0986 C   0  0  0  0  0  0  0  0  0  0  0  0
   17.3392  -10.7972  -20.9141 C   0  0  0  0  0  0  0  0  0  0  0  0
   16.6533  -11.5198  -22.0493 C   0  0  0  0  0  0  0  0  0  0  0  0
   16.5938  -12.9550  -21.7833 N   0  0  0  0  0  0  0  0  0  0  0  0
   20.7357   -9.9199  -17.9258 C   0  0  0  0  0  0  0  0  0  0  0  0
   20.1819   -9.3559  -16.9508 O   0  0  0  0  0  0  0  0  0  0  0  0
   24.4451  -10.2948  -14.1333 C   0  0  0  0  0  0  0  0  0  0  0  0
   25.1292   -9.8484  -15.4464 C   0  0  1  0  0  0  0  0  0  0  0  0
   26.4841  -10.4684  -15.4213 C   0  0  0  0  0  0  0  0  0  0  0  0
   24.2273  -10.2856  -16.5389 C   0  0  0  0  0  0  0  0  0  0  0  0
   22.9374   -9.5861  -16.7279 C   0  0  2  0  0  0  0  0  0  0  0  0
   22.1738  -10.1073  -17.8195 N   0  0  0  0  0  0  0  0  0  0  0  0
   23.0330   -8.1048  -16.6933 C   0  0  0  0  0  0  0  0  0  0  0  0
   23.7401   -7.5346  -17.5347 O   0  0  0  0  0  0  0  0  0  0  0  0
   20.7279   -5.3285  -17.5524 C   0  0  0  0  0  0  0  0  0  0  0  0
   21.0962   -5.2097  -16.0900 C   0  0  1  0  0  0  0  0  0  0  0  0
   19.9887   -5.5956  -15.2834 O   0  0  0  0  0  0  0  0  0  0  0  0
   22.3374   -5.8958  -15.6949 C   0  0  2  0  0  0  0  0  0  0  0  0
   22.3535   -7.3268  -15.7386 N   0  0  0  0  0  0  0  0  0  0  0  0
   22.6693   -5.4096  -14.2938 C   0  0  0  0  0  0  0  0  0  0  0  0
   22.9519   -4.2292  -14.1029 O   0  0  0  0  0  0  0  0  0  0  0  0
   22.6389   -6.3283  -13.2847 O   0  0  0  0  0  0  0  0  0  0  0  0
  2  1  1  1
  2  8  1  0
  3  2  1  0
  4  5  1  0
  4  3  1  0
  6  7  1  0
  6  5  1  0
  8  9  2  0
 11 10  1  1
 11 13  1  0
 12 11  1  0
 14 13  1  6
 15  8  1  0
 15 14  1  0
 16 17  2  0
 16 14  1  0
 19 18  1  6
 19 21  1  0
 20 19  1  0
 21 22  1  1
 22 16  1  0
 23 25  1  0
 23 21  1  0
 24 23  2  0
M  END
$$$$
