KLT.pdb
     RDKit          3D

 25 24  0  0  1  0  0  0  0  0999 V2000
   28.6238  -19.6147  -14.2759 N   0  0  0  0  0  0  0  0  0  0  0  0
   27.7713  -20.7135  -14.6965 C   0  0  1  0  0  0  0  0  0  0  0  0
   28.4944  -21.7957  -15.4172 C   0  0  0  0  0  0  0  0  0  0  0  0
   29.1058  -21.3274  -16.7125 C   0  0  0  0  0  0  0  0  0  0  0  0
   28.1117  -20.6416  -17.6104 C   0  0  0  0  0  0  0  0  0  0  0  0
   28.7576  -20.2382  -18.9148 C   0  0  0  0  0  0  0  0  0  0  0  0
   27.8409  -19.4278  -19.7129 N   0  0  0  0  0  0  0  0  0  0  0  0
   26.9808  -21.1524  -13.5313 C   0  0  0  0  0  0  0  0  0  0  0  0
   26.2493  -22.1724  -13.5274 O   0  0  0  0  0  0  0  0  0  0  0  0
   25.7776  -21.6325   -8.1407 C   0  0  0  0  0  0  0  0  0  0  0  0
   25.7257  -20.2042   -8.7312 C   0  0  1  0  0  0  0  0  0  0  0  0
   26.1059  -19.2959   -7.6126 C   0  0  0  0  0  0  0  0  0  0  0  0
   26.6348  -20.2196   -9.9023 C   0  0  0  0  0  0  0  0  0  0  0  0
   26.0993  -20.6229  -11.2212 C   0  0  2  0  0  0  0  0  0  0  0  0
   27.0194  -20.3925  -12.2920 N   0  0  0  0  0  0  0  0  0  0  0  0
   24.7140  -20.1597  -11.4875 C   0  0  0  0  0  0  0  0  0  0  0  0
   24.4672  -18.9485  -11.4136 O   0  0  0  0  0  0  0  0  0  0  0  0
   22.7963  -20.7394  -14.8136 C   0  0  0  0  0  0  0  0  0  0  0  0
   21.9779  -21.2072  -13.6305 C   0  0  1  0  0  0  0  0  0  0  0  0
   21.9127  -22.6291  -13.6244 O   0  0  0  0  0  0  0  0  0  0  0  0
   22.3893  -20.6641  -12.3254 C   0  0  2  0  0  0  0  0  0  0  0  0
   23.6721  -21.0456  -11.8167 N   0  0  0  0  0  0  0  0  0  0  0  0
   21.2985  -21.0458  -11.3385 C   0  0  0  0  0  0  0  0  0  0  0  0
   21.5615  -21.7668  -10.3790 O   0  0  0  0  0  0  0  0  0  0  0  0
   20.0438  -20.5596  -11.5676 O   0  0  0  0  0  0  0  0  0  0  0  0
  2  1  1  1
  2  8  1  0
  3  2  1  0
  4  5  1  0
  4  3  1  0
  6  7  1  0
  6  5  1  0
  8  9  2  0
 11 10  1  1
 11 13  1  0
 12 11  1  0
 14 13  1  1
 15  8  1  0
 15 14  1  0
 16 17  2  0
 16 14  1  0
 19 18  1  6
 19 21  1  0
 20 19  1  0
 21 22  1  1
 22 16  1  0
 23 25  1  0
 23 21  1  0
 24 23  2  0
M  END
$$$$
