KLT.pdb
     RDKit          3D

 25 24  0  0  1  0  0  0  0  0999 V2000
   28.1033  -22.3798  -15.6584 N   0  0  0  0  0  0  0  0  0  0  0  0
   26.7695  -22.7076  -16.1322 C   0  0  1  0  0  0  0  0  0  0  0  0
   26.6743  -24.0373  -16.7927 C   0  0  0  0  0  0  0  0  0  0  0  0
   27.7480  -24.2536  -17.8277 C   0  0  0  0  0  0  0  0  0  0  0  0
   27.7233  -23.2154  -18.9170 C   0  0  0  0  0  0  0  0  0  0  0  0
   28.7204  -23.5522  -20.0003 C   0  0  0  0  0  0  0  0  0  0  0  0
   28.7300  -22.5159  -21.0299 N   0  0  0  0  0  0  0  0  0  0  0  0
   25.8219  -22.4858  -15.0241 C   0  0  0  0  0  0  0  0  0  0  0  0
   24.6488  -22.9322  -15.0080 O   0  0  0  0  0  0  0  0  0  0  0  0
   24.3949  -21.7580   -9.9285 C   0  0  0  0  0  0  0  0  0  0  0  0
   25.1245  -20.4920  -10.4347 C   0  0  1  0  0  0  0  0  0  0  0  0
   25.8554  -19.9532   -9.2530 C   0  0  0  0  0  0  0  0  0  0  0  0
   25.9596  -20.9379  -11.5758 C   0  0  0  0  0  0  0  0  0  0  0  0
   25.2986  -21.3163  -12.8442 C   0  0  2  0  0  0  0  0  0  0  0  0
   26.2243  -21.7125  -13.8602 N   0  0  0  0  0  0  0  0  0  0  0  0
   24.2540  -20.3638  -13.2984 C   0  0  0  0  0  0  0  0  0  0  0  0
   24.4711  -19.1491  -13.1950 O   0  0  0  0  0  0  0  0  0  0  0  0
   20.2774  -19.1580  -15.9555 C   0  0  0  0  0  0  0  0  0  0  0  0
   21.4288  -20.0741  -15.6041 C   0  0  1  0  0  0  0  0  0  0  0  0
   22.4521  -19.9570  -16.5865 O   0  0  0  0  0  0  0  0  0  0  0  0
   21.9530  -19.9311  -14.2358 C   0  0  2  0  0  0  0  0  0  0  0  0
   23.0269  -20.7902  -13.8379 N   0  0  0  0  0  0  0  0  0  0  0  0
   20.7672  -20.1056  -13.3015 C   0  0  0  0  0  0  0  0  0  0  0  0
   19.9465  -19.2003  -13.1729 O   0  0  0  0  0  0  0  0  0  0  0  0
   20.6642  -21.2890  -12.6291 O   0  0  0  0  0  0  0  0  0  0  0  0
  2  1  1  1
  2  8  1  0
  3  2  1  0
  4  5  1  0
  4  3  1  0
  6  7  1  0
  6  5  1  0
  8  9  2  0
 11 10  1  1
 11 13  1  0
 12 11  1  0
 14 13  1  1
 15  8  1  0
 15 14  1  0
 16 17  2  0
 16 14  1  0
 19 18  1  6
 19 21  1  0
 20 19  1  0
 21 22  1  1
 22 16  1  0
 23 25  1  0
 23 21  1  0
 24 23  2  0
M  END
$$$$
