KLT.pdb
     RDKit          3D

 25 24  0  0  1  0  0  0  0  0999 V2000
   26.8007  -19.3426  -15.2748 N   0  0  0  0  0  0  0  0  0  0  0  0
   26.2961  -20.6138  -15.7653 C   0  0  1  0  0  0  0  0  0  0  0  0
   27.3616  -21.5977  -16.0972 C   0  0  0  0  0  0  0  0  0  0  0  0
   27.7729  -21.5467  -17.5460 C   0  0  0  0  0  0  0  0  0  0  0  0
   29.2489  -21.3125  -17.7236 C   0  0  0  0  0  0  0  0  0  0  0  0
   29.5969  -21.1758  -19.1870 C   0  0  0  0  0  0  0  0  0  0  0  0
   31.0310  -20.9542  -19.3554 N   0  0  0  0  0  0  0  0  0  0  0  0
   25.2680  -21.0932  -14.8228 C   0  0  0  0  0  0  0  0  0  0  0  0
   24.5724  -22.1210  -15.0111 O   0  0  0  0  0  0  0  0  0  0  0  0
   25.9165  -20.4732   -9.3316 C   0  0  0  0  0  0  0  0  0  0  0  0
   25.7605  -21.0106  -10.7733 C   0  0  1  0  0  0  0  0  0  0  0  0
   25.9348  -22.4870  -10.6699 C   0  0  0  0  0  0  0  0  0  0  0  0
   24.4347  -20.5370  -11.2381 C   0  0  0  0  0  0  0  0  0  0  0  0
   24.0308  -20.7947  -12.6379 C   0  0  2  0  0  0  0  0  0  0  0  0
   25.0095  -20.3674  -13.5895 N   0  0  0  0  0  0  0  0  0  0  0  0
   22.6393  -20.3879  -12.9587 C   0  0  0  0  0  0  0  0  0  0  0  0
   22.2627  -19.2525  -12.6386 O   0  0  0  0  0  0  0  0  0  0  0  0
   20.7584  -19.9100  -16.3060 C   0  0  0  0  0  0  0  0  0  0  0  0
   20.0825  -20.9555  -15.4467 C   0  0  1  0  0  0  0  0  0  0  0  0
   20.3116  -22.2487  -15.9953 O   0  0  0  0  0  0  0  0  0  0  0  0
   20.4044  -20.8956  -14.0113 C   0  0  2  0  0  0  0  0  0  0  0  0
   21.7332  -21.2452  -13.6088 N   0  0  0  0  0  0  0  0  0  0  0  0
   19.3919  -21.7835  -13.3070 C   0  0  0  0  0  0  0  0  0  0  0  0
   19.7609  -22.8118  -12.7448 O   0  0  0  0  0  0  0  0  0  0  0  0
   18.0850  -21.3901  -13.3312 O   0  0  0  0  0  0  0  0  0  0  0  0
  2  1  1  1
  2  8  1  0
  3  2  1  0
  4  5  1  0
  4  3  1  0
  6  7  1  0
  6  5  1  0
  8  9  2  0
 11 10  1  1
 11 13  1  0
 12 11  1  0
 14 13  1  1
 15  8  1  0
 15 14  1  0
 16 17  2  0
 16 14  1  0
 19 18  1  6
 19 21  1  0
 20 19  1  0
 21 22  1  6
 22 16  1  0
 23 25  1  0
 23 21  1  0
 24 23  2  0
M  END
$$$$
