KLT.pdb
     RDKit          3D

 25 24  0  0  1  0  0  0  0  0999 V2000
   18.2612  -12.4224  -16.6523 N   0  0  0  0  0  0  0  0  0  0  0  0
   18.7242  -11.1390  -17.1521 C   0  0  1  0  0  0  0  0  0  0  0  0
   17.6269  -10.2062  -17.5253 C   0  0  0  0  0  0  0  0  0  0  0  0
   16.6885  -10.7886  -18.5505 C   0  0  0  0  0  0  0  0  0  0  0  0
   15.5496   -9.8644  -18.8878 C   0  0  0  0  0  0  0  0  0  0  0  0
   14.6365  -10.4924  -19.9140 C   0  0  0  0  0  0  0  0  0  0  0  0
   13.5456   -9.5830  -20.2559 N   0  0  0  0  0  0  0  0  0  0  0  0
   19.7085  -10.6020  -16.1942 C   0  0  0  0  0  0  0  0  0  0  0  0
   19.4413  -10.3245  -14.9996 O   0  0  0  0  0  0  0  0  0  0  0  0
   24.0779   -9.9733  -13.4809 C   0  0  0  0  0  0  0  0  0  0  0  0
   24.4775   -9.9151  -14.9737 C   0  0  1  0  0  0  0  0  0  0  0  0
   25.7696  -10.6513  -15.0700 C   0  0  0  0  0  0  0  0  0  0  0  0
   23.3345  -10.4947  -15.7193 C   0  0  0  0  0  0  0  0  0  0  0  0
   22.0510   -9.7596  -15.7502 C   0  0  2  0  0  0  0  0  0  0  0  0
   21.0814  -10.3643  -16.6107 N   0  0  0  0  0  0  0  0  0  0  0  0
   22.1903   -8.2904  -15.9137 C   0  0  0  0  0  0  0  0  0  0  0  0
   22.6564   -7.8514  -16.9736 O   0  0  0  0  0  0  0  0  0  0  0  0
   20.2391   -5.3063  -16.7343 C   0  0  0  0  0  0  0  0  0  0  0  0
   20.7351   -5.1767  -15.3110 C   0  0  1  0  0  0  0  0  0  0  0  0
   19.6690   -5.4404  -14.4056 O   0  0  0  0  0  0  0  0  0  0  0  0
   21.9421   -5.9565  -14.9908 C   0  0  2  0  0  0  0  0  0  0  0  0
   21.8161   -7.3803  -14.9086 N   0  0  0  0  0  0  0  0  0  0  0  0
   22.4777   -5.4004  -13.6819 C   0  0  0  0  0  0  0  0  0  0  0  0
   22.5495   -6.1221  -12.6901 O   0  0  0  0  0  0  0  0  0  0  0  0
   22.8639   -4.0913  -13.6650 O   0  0  0  0  0  0  0  0  0  0  0  0
  2  1  1  1
  2  8  1  0
  3  2  1  0
  4  5  1  0
  4  3  1  0
  6  7  1  0
  6  5  1  0
  8  9  2  0
 11 10  1  1
 11 13  1  0
 12 11  1  0
 14 13  1  6
 15  8  1  0
 15 14  1  0
 16 17  2  0
 16 14  1  0
 19 18  1  6
 19 21  1  0
 20 19  1  0
 21 22  1  1
 22 16  1  0
 23 25  1  0
 23 21  1  0
 24 23  2  0
M  END
$$$$
