KLT.pdb
     RDKit          3D

 25 24  0  0  1  0  0  0  0  0999 V2000
   19.5431  -11.8855  -18.2503 N   0  0  0  0  0  0  0  0  0  0  0  0
   18.7929  -11.0658  -17.3142 C   0  0  1  0  0  0  0  0  0  0  0  0
   17.7097  -11.7987  -16.6049 C   0  0  0  0  0  0  0  0  0  0  0  0
   17.1859  -12.9720  -17.3922 C   0  0  0  0  0  0  0  0  0  0  0  0
   17.8078  -14.2772  -16.9740 C   0  0  0  0  0  0  0  0  0  0  0  0
   17.2472  -15.4214  -17.7850 C   0  0  0  0  0  0  0  0  0  0  0  0
   17.8204  -16.6914  -17.3460 N   0  0  0  0  0  0  0  0  0  0  0  0
   19.7559  -10.3675  -16.4423 C   0  0  0  0  0  0  0  0  0  0  0  0
   19.4299   -9.7287  -15.4121 O   0  0  0  0  0  0  0  0  0  0  0  0
   24.2438  -10.2111  -13.6582 C   0  0  0  0  0  0  0  0  0  0  0  0
   24.5932   -9.9783  -15.1466 C   0  0  1  0  0  0  0  0  0  0  0  0
   25.9100  -10.6437  -15.3561 C   0  0  0  0  0  0  0  0  0  0  0  0
   23.4513  -10.5249  -15.9183 C   0  0  0  0  0  0  0  0  0  0  0  0
   22.1596   -9.8037  -15.8965 C   0  0  2  0  0  0  0  0  0  0  0  0
   21.1764  -10.3926  -16.7524 N   0  0  0  0  0  0  0  0  0  0  0  0
   22.2795   -8.3287  -16.0177 C   0  0  0  0  0  0  0  0  0  0  0  0
   22.7731   -7.8549  -17.0496 O   0  0  0  0  0  0  0  0  0  0  0  0
   19.9422   -5.5170  -16.6259 C   0  0  0  0  0  0  0  0  0  0  0  0
   20.5874   -5.3291  -15.2706 C   0  0  1  0  0  0  0  0  0  0  0  0
   19.6518   -5.6457  -14.2457 O   0  0  0  0  0  0  0  0  0  0  0  0
   21.8728   -6.0219  -15.0830 C   0  0  2  0  0  0  0  0  0  0  0  0
   21.8567   -7.4513  -15.0028 N   0  0  0  0  0  0  0  0  0  0  0  0
   22.4991   -5.4328  -13.8299 C   0  0  0  0  0  0  0  0  0  0  0  0
   22.6442   -6.1297  -12.8285 O   0  0  0  0  0  0  0  0  0  0  0  0
   22.8814   -4.1231  -13.8730 O   0  0  0  0  0  0  0  0  0  0  0  0
  2  1  1  1
  2  8  1  0
  3  2  1  0
  4  5  1  0
  4  3  1  0
  6  7  1  0
  6  5  1  0
  8  9  2  0
 11 10  1  1
 11 13  1  0
 12 11  1  0
 14 13  1  6
 15  8  1  0
 15 14  1  0
 16 17  2  0
 16 14  1  0
 19 18  1  6
 19 21  1  0
 20 19  1  0
 21 22  1  1
 22 16  1  0
 23 25  1  0
 23 21  1  0
 24 23  2  0
M  END
$$$$
