KLT.pdb
     RDKit          3D

 25 24  0  0  1  0  0  0  0  0999 V2000
   28.5517  -21.8016  -18.6890 N   0  0  0  0  0  0  0  0  0  0  0  0
   27.6952  -21.1162  -17.7363 C   0  0  1  0  0  0  0  0  0  0  0  0
   27.7713  -21.6634  -16.3549 C   0  0  0  0  0  0  0  0  0  0  0  0
   27.8979  -23.1648  -16.3277 C   0  0  0  0  0  0  0  0  0  0  0  0
   26.5650  -23.8619  -16.3776 C   0  0  0  0  0  0  0  0  0  0  0  0
   26.7435  -25.3613  -16.3443 C   0  0  0  0  0  0  0  0  0  0  0  0
   25.4629  -26.0355  -16.5435 N   0  0  0  0  0  0  0  0  0  0  0  0
   27.9457  -19.6676  -17.8542 C   0  0  0  0  0  0  0  0  0  0  0  0
   27.4577  -18.8089  -17.0795 O   0  0  0  0  0  0  0  0  0  0  0  0
   32.8660  -17.5131  -19.0542 C   0  0  0  0  0  0  0  0  0  0  0  0
   31.5031  -17.7310  -18.3567 C   0  0  1  0  0  0  0  0  0  0  0  0
   31.5069  -16.8178  -17.1791 C   0  0  0  0  0  0  0  0  0  0  0  0
   30.4746  -17.4646  -19.3908 C   0  0  0  0  0  0  0  0  0  0  0  0
   29.0572  -17.7594  -19.0859 C   0  0  2  0  0  0  0  0  0  0  0  0
   28.8018  -19.1561  -18.9126 N   0  0  0  0  0  0  0  0  0  0  0  0
   28.0838  -17.0580  -19.9607 C   0  0  0  0  0  0  0  0  0  0  0  0
   27.8544  -17.5206  -21.0860 O   0  0  0  0  0  0  0  0  0  0  0  0
   24.6337  -15.3044  -18.5534 C   0  0  0  0  0  0  0  0  0  0  0  0
   25.0097  -15.4497  -20.0115 C   0  0  1  0  0  0  0  0  0  0  0  0
   24.1312  -14.6684  -20.8137 O   0  0  0  0  0  0  0  0  0  0  0  0
   26.4250  -15.1937  -20.3259 C   0  0  2  0  0  0  0  0  0  0  0  0
   27.4163  -15.8865  -19.5596 N   0  0  0  0  0  0  0  0  0  0  0  0
   26.6258  -13.6918  -20.2086 C   0  0  0  0  0  0  0  0  0  0  0  0
   27.4099  -13.2388  -19.3782 O   0  0  0  0  0  0  0  0  0  0  0  0
   25.9080  -12.8928  -21.0510 O   0  0  0  0  0  0  0  0  0  0  0  0
  2  1  1  6
  2  8  1  0
  3  2  1  0
  4  5  1  0
  4  3  1  0
  6  7  1  0
  6  5  1  0
  8  9  2  0
 11 10  1  6
 11 13  1  0
 12 11  1  0
 14 13  1  6
 15  8  1  0
 15 14  1  0
 16 17  2  0
 16 14  1  0
 19 18  1  1
 19 21  1  0
 20 19  1  0
 21 22  1  1
 22 16  1  0
 23 25  1  0
 23 21  1  0
 24 23  2  0
M  END
$$$$
