KLT.pdb
     RDKit          3D

 25 24  0  0  1  0  0  0  0  0999 V2000
   27.5845  -22.5509  -16.9503 N   0  0  0  0  0  0  0  0  0  0  0  0
   27.4149  -21.3067  -16.2191 C   0  0  1  0  0  0  0  0  0  0  0  0
   27.0993  -20.1378  -17.0836 C   0  0  0  0  0  0  0  0  0  0  0  0
   28.3042  -19.6160  -17.8231 C   0  0  0  0  0  0  0  0  0  0  0  0
   29.0528  -20.6989  -18.5524 C   0  0  0  0  0  0  0  0  0  0  0  0
   30.2384  -20.1254  -19.2917 C   0  0  0  0  0  0  0  0  0  0  0  0
   31.0907  -21.1954  -19.8044 N   0  0  0  0  0  0  0  0  0  0  0  0
   26.4658  -21.5488  -15.1165 C   0  0  0  0  0  0  0  0  0  0  0  0
   25.4199  -22.2331  -15.2325 O   0  0  0  0  0  0  0  0  0  0  0  0
   24.8457  -21.9025  -10.0047 C   0  0  0  0  0  0  0  0  0  0  0  0
   25.3454  -20.4679  -10.2944 C   0  0  1  0  0  0  0  0  0  0  0  0
   25.9430  -19.9879   -9.0163 C   0  0  0  0  0  0  0  0  0  0  0  0
   26.2702  -20.5889  -11.4469 C   0  0  0  0  0  0  0  0  0  0  0  0
   25.7278  -20.9917  -12.7631 C   0  0  2  0  0  0  0  0  0  0  0  0
   26.7133  -20.9835  -13.7998 N   0  0  0  0  0  0  0  0  0  0  0  0
   24.4463  -20.3348  -13.1245 C   0  0  0  0  0  0  0  0  0  0  0  0
   24.4125  -19.0995  -13.2028 O   0  0  0  0  0  0  0  0  0  0  0  0
   22.4150  -19.6445  -16.0682 C   0  0  0  0  0  0  0  0  0  0  0  0
   21.6050  -20.5296  -15.1467 C   0  0  1  0  0  0  0  0  0  0  0  0
   21.5695  -21.8553  -15.6636 O   0  0  0  0  0  0  0  0  0  0  0  0
   22.0033  -20.4960  -13.7298 C   0  0  2  0  0  0  0  0  0  0  0  0
   23.2698  -21.0631  -13.3775 N   0  0  0  0  0  0  0  0  0  0  0  0
   20.8885  -21.1783  -12.9543 C   0  0  0  0  0  0  0  0  0  0  0  0
   21.1081  -22.2297  -12.3576 O   0  0  0  0  0  0  0  0  0  0  0  0
   19.6622  -20.5788  -12.9556 O   0  0  0  0  0  0  0  0  0  0  0  0
  2  1  1  6
  2  8  1  0
  3  2  1  0
  4  5  1  0
  4  3  1  0
  6  7  1  0
  6  5  1  0
  8  9  2  0
 11 10  1  1
 11 13  1  0
 12 11  1  0
 14 13  1  1
 15  8  1  0
 15 14  1  0
 16 17  2  0
 16 14  1  0
 19 18  1  6
 19 21  1  0
 20 19  1  0
 21 22  1  6
 22 16  1  0
 23 25  1  0
 23 21  1  0
 24 23  2  0
M  END
$$$$
