KLT.pdb
     RDKit          3D

 25 24  0  0  1  0  0  0  0  0999 V2000
   15.7899  -10.6003  -16.3039 N   0  0  0  0  0  0  0  0  0  0  0  0
   16.8973   -9.9437  -16.9775 C   0  0  1  0  0  0  0  0  0  0  0  0
   16.4797   -8.8622  -17.9100 C   0  0  0  0  0  0  0  0  0  0  0  0
   15.6927   -9.3776  -19.0873 C   0  0  0  0  0  0  0  0  0  0  0  0
   14.2274   -9.5361  -18.7828 C   0  0  0  0  0  0  0  0  0  0  0  0
   13.4565   -9.8919  -20.0320 C   0  0  0  0  0  0  0  0  0  0  0  0
   12.0298  -10.0067  -19.7398 N   0  0  0  0  0  0  0  0  0  0  0  0
   17.8852   -9.5480  -15.9566 C   0  0  0  0  0  0  0  0  0  0  0  0
   17.5789   -9.1098  -14.8209 O   0  0  0  0  0  0  0  0  0  0  0  0
   23.0739  -11.3522  -13.7460 C   0  0  0  0  0  0  0  0  0  0  0  0
   22.3217  -10.0164  -13.9500 C   0  0  1  0  0  0  0  0  0  0  0  0
   23.3627   -9.0303  -14.3561 C   0  0  0  0  0  0  0  0  0  0  0  0
   21.2613  -10.2997  -14.9466 C   0  0  0  0  0  0  0  0  0  0  0  0
   20.3069   -9.2271  -15.3036 C   0  0  2  0  0  0  0  0  0  0  0  0
   19.3086   -9.6545  -16.2346 N   0  0  0  0  0  0  0  0  0  0  0  0
   20.9426   -7.9266  -15.6341 C   0  0  0  0  0  0  0  0  0  0  0  0
   21.5938   -7.8324  -16.6831 O   0  0  0  0  0  0  0  0  0  0  0  0
   19.4239   -4.4078  -16.3137 C   0  0  0  0  0  0  0  0  0  0  0  0
   20.3892   -4.3784  -15.1493 C   0  0  1  0  0  0  0  0  0  0  0  0
   19.6676   -4.2300  -13.9315 O   0  0  0  0  0  0  0  0  0  0  0  0
   21.3461   -5.4960  -15.0957 C   0  0  2  0  0  0  0  0  0  0  0  0
   20.8353   -6.8001  -14.7986 N   0  0  0  0  0  0  0  0  0  0  0  0
   22.4073   -5.1041  -14.0808 C   0  0  0  0  0  0  0  0  0  0  0  0
   22.5947   -5.8007  -13.0862 O   0  0  0  0  0  0  0  0  0  0  0  0
   23.1223   -3.9672  -14.3245 O   0  0  0  0  0  0  0  0  0  0  0  0
  2  1  1  1
  2  8  1  0
  3  2  1  0
  4  5  1  0
  4  3  1  0
  6  7  1  0
  6  5  1  0
  8  9  2  0
 11 10  1  6
 11 13  1  0
 12 11  1  0
 14 13  1  6
 15  8  1  0
 15 14  1  0
 16 17  2  0
 16 14  1  0
 19 18  1  6
 19 21  1  0
 20 19  1  0
 21 22  1  1
 22 16  1  0
 23 25  1  0
 23 21  1  0
 24 23  2  0
M  END
$$$$
