KLT.pdb
     RDKit          3D

 25 24  0  0  1  0  0  0  0  0999 V2000
   16.1069  -24.5502   -4.8480 N   0  0  0  0  0  0  0  0  0  0  0  0
   15.0212  -23.9999   -4.0545 C   0  0  1  0  0  0  0  0  0  0  0  0
   13.7313  -24.7240   -4.2136 C   0  0  0  0  0  0  0  0  0  0  0  0
   13.9170  -26.1892   -4.5125 C   0  0  0  0  0  0  0  0  0  0  0  0
   12.6115  -26.9166   -4.6901 C   0  0  0  0  0  0  0  0  0  0  0  0
   12.8497  -28.3659   -5.0425 C   0  0  0  0  0  0  0  0  0  0  0  0
   11.5813  -29.0811   -5.1601 N   0  0  0  0  0  0  0  0  0  0  0  0
   15.4955  -23.8566   -2.6655 C   0  0  0  0  0  0  0  0  0  0  0  0
   16.5415  -24.3932   -2.2256 O   0  0  0  0  0  0  0  0  0  0  0  0
   16.9830  -20.9513    1.4087 C   0  0  0  0  0  0  0  0  0  0  0  0
   15.4546  -21.1673    1.5043 C   0  0  1  0  0  0  0  0  0  0  0  0
   14.9096  -19.9088    2.0875 C   0  0  0  0  0  0  0  0  0  0  0  0
   15.0086  -21.5012    0.1304 C   0  0  0  0  0  0  0  0  0  0  0  0
   15.1540  -22.8918   -0.3533 C   0  0  2  0  0  0  0  0  0  0  0  0
   14.7422  -23.0563   -1.7132 N   0  0  0  0  0  0  0  0  0  0  0  0
   14.6311  -23.9224    0.5789 C   0  0  0  0  0  0  0  0  0  0  0  0
   13.5014  -24.3880    0.3779 O   0  0  0  0  0  0  0  0  0  0  0  0
   15.5045  -27.3793    4.0733 C   0  0  0  0  0  0  0  0  0  0  0  0
   15.9682  -26.3936    3.0236 C   0  0  1  0  0  0  0  0  0  0  0  0
   16.5523  -27.0951    1.9315 O   0  0  0  0  0  0  0  0  0  0  0  0
   14.9554  -25.4208    2.5815 C   0  0  2  0  0  0  0  0  0  0  0  0
   15.3695  -24.3861    1.6827 N   0  0  0  0  0  0  0  0  0  0  0  0
   14.3630  -24.8146    3.8429 C   0  0  0  0  0  0  0  0  0  0  0  0
   14.9262  -23.8732    4.3964 O   0  0  0  0  0  0  0  0  0  0  0  0
   13.2036  -25.3565    4.3175 O   0  0  0  0  0  0  0  0  0  0  0  0
  2  1  1  6
  2  8  1  0
  3  2  1  0
  4  5  1  0
  4  3  1  0
  6  7  1  0
  6  5  1  0
  8  9  2  0
 11 10  1  6
 11 13  1  0
 12 11  1  0
 14 13  1  1
 15  8  1  0
 15 14  1  0
 16 17  2  0
 16 14  1  0
 19 18  1  1
 19 21  1  0
 20 19  1  0
 21 22  1  6
 22 16  1  0
 23 25  1  0
 23 21  1  0
 24 23  2  0
M  END
$$$$
