KLT.pdb
     RDKit          3D

 25 24  0  0  1  0  0  0  0  0999 V2000
   19.3231  -24.2383  -10.6003 N   0  0  0  0  0  0  0  0  0  0  0  0
   18.8084  -22.8861  -10.4672 C   0  0  1  0  0  0  0  0  0  0  0  0
   18.2546  -22.5817   -9.1204 C   0  0  0  0  0  0  0  0  0  0  0  0
   17.2594  -23.6117   -8.6516 C   0  0  0  0  0  0  0  0  0  0  0  0
   17.9097  -24.7657   -7.9371 C   0  0  0  0  0  0  0  0  0  0  0  0
   18.3414  -24.3603   -6.5477 C   0  0  0  0  0  0  0  0  0  0  0  0
   17.7602  -25.2533   -5.5482 N   0  0  0  0  0  0  0  0  0  0  0  0
   19.8436  -21.9521  -10.9480 C   0  0  0  0  0  0  0  0  0  0  0  0
   19.6822  -20.7097  -11.0251 O   0  0  0  0  0  0  0  0  0  0  0  0
   24.5216  -19.7473  -11.2314 C   0  0  0  0  0  0  0  0  0  0  0  0
   24.6921  -21.1716  -11.8090 C   0  0  1  0  0  0  0  0  0  0  0  0
   26.0223  -21.6407  -11.3280 C   0  0  0  0  0  0  0  0  0  0  0  0
   23.5152  -21.9405  -11.3381 C   0  0  0  0  0  0  0  0  0  0  0  0
   22.1749  -21.5915  -11.8584 C   0  0  2  0  0  0  0  0  0  0  0  0
   21.1433  -22.4520  -11.3670 N   0  0  0  0  0  0  0  0  0  0  0  0
   22.1304  -21.3483  -13.3224 C   0  0  0  0  0  0  0  0  0  0  0  0
   22.5682  -22.2211  -14.0839 O   0  0  0  0  0  0  0  0  0  0  0  0
   19.4557  -21.1148  -16.0734 C   0  0  0  0  0  0  0  0  0  0  0  0
   20.1544  -19.7909  -15.8550 C   0  0  1  0  0  0  0  0  0  0  0  0
   19.3075  -18.9176  -15.1160 O   0  0  0  0  0  0  0  0  0  0  0  0
   21.5044  -19.8791  -15.2743 C   0  0  2  0  0  0  0  0  0  0  0  0
   21.6133  -20.1627  -13.8752 N   0  0  0  0  0  0  0  0  0  0  0  0
   22.1980  -18.5666  -15.5995 C   0  0  0  0  0  0  0  0  0  0  0  0
   22.6350  -17.8605  -14.6938 O   0  0  0  0  0  0  0  0  0  0  0  0
   22.3068  -18.2210  -16.9155 O   0  0  0  0  0  0  0  0  0  0  0  0
  2  1  1  1
  2  8  1  0
  3  2  1  0
  4  5  1  0
  4  3  1  0
  6  7  1  0
  6  5  1  0
  8  9  2  0
 11 10  1  1
 11 13  1  0
 12 11  1  0
 14 13  1  6
 15  8  1  0
 15 14  1  0
 16 17  2  0
 16 14  1  0
 19 18  1  1
 19 21  1  0
 20 19  1  0
 21 22  1  1
 22 16  1  0
 23 25  1  0
 23 21  1  0
 24 23  2  0
M  END
$$$$
