VEV.pdb
     RDKit          3D

 24 23  0  0  1  0  0  0  0  0999 V2000
    6.8845  -12.9471   19.3791 C   0  0  0  0  0  0  0  0  0  0  0  0
    8.3341  -13.2548   19.0850 C   0  0  1  0  0  0  0  0  0  0  0  0
    9.2437  -12.5545   20.0704 C   0  0  0  0  0  0  0  0  0  0  0  0
    8.5395  -14.7542   19.1347 C   0  0  2  0  0  0  0  0  0  0  0  0
    7.7107  -15.3497   18.1278 N   0  0  0  0  0  0  0  0  0  0  0  0
    8.2734  -15.2970   20.4868 C   0  0  0  0  0  0  0  0  0  0  0  0
    7.1042  -15.5957   20.8193 O   0  0  0  0  0  0  0  0  0  0  0  0
    9.3027  -15.4983   21.4422 N   0  0  0  0  0  0  0  0  0  0  0  0
    9.0632  -16.1274   22.7390 C   0  0  1  0  0  0  0  0  0  0  0  0
   10.0189  -17.2592   22.8573 C   0  0  0  0  0  0  0  0  0  0  0  0
   10.0089  -18.0056   24.1448 C   0  0  0  0  0  0  0  0  0  0  0  0
   10.9435  -19.1388   24.2215 C   0  0  0  0  0  0  0  0  0  0  0  0
   10.5523  -20.3170   24.0451 O   0  0  0  0  0  0  0  0  0  0  0  0
    9.1462  -15.1424   23.8400 C   0  0  0  0  0  0  0  0  0  0  0  0
   10.1735  -14.4176   23.8893 O   0  0  0  0  0  0  0  0  0  0  0  0
   12.2945  -18.9706   24.4902 O   0  0  0  0  0  0  0  0  0  0  0  0
    6.5964  -12.4568   25.1014 C   0  0  0  0  0  0  0  0  0  0  0  0
    7.1485  -13.2357   26.2527 C   0  0  2  0  0  0  0  0  0  0  0  0
    7.4004  -12.3218   27.4332 C   0  0  0  0  0  0  0  0  0  0  0  0
    8.3792  -14.0285   25.8972 C   0  0  2  0  0  0  0  0  0  0  0  0
    8.1602  -14.9633   24.8286 N   0  0  0  0  0  0  0  0  0  0  0  0
    8.8983  -14.7156   27.0970 C   0  0  0  0  0  0  0  0  0  0  0  0
    8.6738  -15.9220   27.3569 O   0  0  0  0  0  0  0  0  0  0  0  0
    9.6759  -13.9932   27.9867 O   0  0  0  0  0  0  0  0  0  0  0  0
  2  1  1  1
  2  4  1  0
  3  2  1  0
  4  5  1  6
  6  8  1  0
  6  4  1  0
  7  6  2  0
  9  8  1  0
 10 11  1  0
  9 10  1  1
 12 16  1  0
 12 11  1  0
 13 12  2  0
 14 21  1  0
 14  9  1  0
 15 14  2  0
 18 17  1  6
 18 20  1  0
 19 18  1  0
 20 21  1  6
 20 22  1  0
 22 24  1  0
 23 22  2  0
M  END
$$$$
