VEV.pdb
     RDKit          3D

 24 23  0  0  1  0  0  0  0  0999 V2000
    8.1982  -12.6828   20.7212 C   0  0  0  0  0  0  0  0  0  0  0  0
    7.5737  -13.4827   19.6019 C   0  0  1  0  0  0  0  0  0  0  0  0
    7.8809  -12.8589   18.2582 C   0  0  0  0  0  0  0  0  0  0  0  0
    8.0891  -14.9050   19.6656 C   0  0  2  0  0  0  0  0  0  0  0  0
    7.4453  -15.6575   18.6289 N   0  0  0  0  0  0  0  0  0  0  0  0
    7.8903  -15.4980   21.0082 C   0  0  0  0  0  0  0  0  0  0  0  0
    6.7309  -15.6878   21.4401 O   0  0  0  0  0  0  0  0  0  0  0  0
    8.9747  -15.8684   21.8446 N   0  0  0  0  0  0  0  0  0  0  0  0
    8.7859  -16.3900   23.1963 C   0  0  1  0  0  0  0  0  0  0  0  0
    9.7327  -17.5234   23.3621 C   0  0  0  0  0  0  0  0  0  0  0  0
    9.7370  -18.1971   24.6891 C   0  0  0  0  0  0  0  0  0  0  0  0
   10.6972  -19.3023   24.8297 C   0  0  0  0  0  0  0  0  0  0  0  0
   11.5032  -19.5839   23.9113 O   0  0  0  0  0  0  0  0  0  0  0  0
    8.9292  -15.3230   24.2114 C   0  0  0  0  0  0  0  0  0  0  0  0
    9.8827  -14.5146   24.0677 O   0  0  0  0  0  0  0  0  0  0  0  0
   10.7651  -20.0866   25.9725 O   0  0  0  0  0  0  0  0  0  0  0  0
    6.4920  -12.6672   25.2538 C   0  0  0  0  0  0  0  0  0  0  0  0
    7.0855  -13.2412   26.5009 C   0  0  2  0  0  0  0  0  0  0  0  0
    7.3669  -12.1420   27.5033 C   0  0  0  0  0  0  0  0  0  0  0  0
    8.3105  -14.0795   26.2440 C   0  0  2  0  0  0  0  0  0  0  0  0
    8.0768  -15.1532   25.3186 N   0  0  0  0  0  0  0  0  0  0  0  0
    8.8438  -14.5948   27.5212 C   0  0  0  0  0  0  0  0  0  0  0  0
    8.7918  -15.8020   27.8578 O   0  0  0  0  0  0  0  0  0  0  0  0
    9.4343  -13.7006   28.3986 O   0  0  0  0  0  0  0  0  0  0  0  0
  2  1  1  1
  2  4  1  0
  3  2  1  0
  4  5  1  6
  6  8  1  0
  6  4  1  0
  7  6  2  0
  9  8  1  0
 10 11  1  0
  9 10  1  1
 12 16  1  0
 12 11  1  0
 13 12  2  0
 14 21  1  0
 14  9  1  0
 15 14  2  0
 18 17  1  6
 18 20  1  0
 19 18  1  0
 20 21  1  6
 20 22  1  0
 22 24  1  0
 23 22  2  0
M  END
$$$$
