VEV.pdb
     RDKit          3D

 24 23  0  0  1  0  0  0  0  0999 V2000
    7.9904  -12.6663   18.1002 C   0  0  0  0  0  0  0  0  0  0  0  0
    7.6163  -13.4772   19.3188 C   0  0  1  0  0  0  0  0  0  0  0  0
    6.9982  -14.7985   18.9171 C   0  0  0  0  0  0  0  0  0  0  0  0
    8.8536  -13.6966   20.1636 C   0  0  2  0  0  0  0  0  0  0  0  0
    9.8248  -14.3794   19.3601 N   0  0  0  0  0  0  0  0  0  0  0  0
    8.5379  -14.4218   21.4159 C   0  0  0  0  0  0  0  0  0  0  0  0
    7.6387  -13.9936   22.1741 O   0  0  0  0  0  0  0  0  0  0  0  0
    9.2208  -15.6032   21.8039 N   0  0  0  0  0  0  0  0  0  0  0  0
    8.9169  -16.3200   23.0403 C   0  0  1  0  0  0  0  0  0  0  0  0
    9.7728  -17.5346   23.0614 C   0  0  0  0  0  0  0  0  0  0  0  0
    9.6214  -18.4340   24.2374 C   0  0  0  0  0  0  0  0  0  0  0  0
   10.4902  -19.6208   24.2370 C   0  0  0  0  0  0  0  0  0  0  0  0
   10.9753  -20.0716   25.3018 O   0  0  0  0  0  0  0  0  0  0  0  0
    9.0720  -15.4449   24.2234 C   0  0  0  0  0  0  0  0  0  0  0  0
   10.2181  -14.9767   24.4482 O   0  0  0  0  0  0  0  0  0  0  0  0
   10.8185  -20.3007   23.0726 O   0  0  0  0  0  0  0  0  0  0  0  0
    6.6834  -12.5206   25.3370 C   0  0  0  0  0  0  0  0  0  0  0  0
    7.1438  -13.3039   26.5250 C   0  0  2  0  0  0  0  0  0  0  0  0
    7.4751  -12.3731   27.6722 C   0  0  0  0  0  0  0  0  0  0  0  0
    8.2919  -14.2294   26.2171 C   0  0  2  0  0  0  0  0  0  0  0  0
    8.0311  -15.1038   25.1075 N   0  0  0  0  0  0  0  0  0  0  0  0
    8.6501  -15.0041   27.4223 C   0  0  0  0  0  0  0  0  0  0  0  0
    8.3736  -16.2182   27.5740 O   0  0  0  0  0  0  0  0  0  0  0  0
    9.3281  -14.3598   28.4437 O   0  0  0  0  0  0  0  0  0  0  0  0
  2  1  1  6
  2  4  1  0
  3  2  1  0
  4  5  1  6
  6  8  1  0
  6  4  1  0
  7  6  2  0
  9  8  1  0
 10 11  1  0
  9 10  1  1
 12 16  1  0
 12 11  1  0
 13 12  2  0
 14 21  1  0
 14  9  1  0
 15 14  2  0
 18 17  1  6
 18 20  1  0
 19 18  1  0
 20 21  1  6
 20 22  1  0
 22 24  1  0
 23 22  2  0
M  END
$$$$
