VEV.pdb
     RDKit          3D

 24 23  0  0  1  0  0  0  0  0999 V2000
    8.2563  -12.5252   20.8170 C   0  0  0  0  0  0  0  0  0  0  0  0
    7.6285  -13.3318   19.7044 C   0  0  1  0  0  0  0  0  0  0  0  0
    7.9279  -12.7137   18.3564 C   0  0  0  0  0  0  0  0  0  0  0  0
    8.1478  -14.7526   19.7724 C   0  0  2  0  0  0  0  0  0  0  0  0
    7.4705  -15.5214   18.7697 N   0  0  0  0  0  0  0  0  0  0  0  0
    7.9953  -15.3251   21.1299 C   0  0  0  0  0  0  0  0  0  0  0  0
    6.8579  -15.6331   21.5520 O   0  0  0  0  0  0  0  0  0  0  0  0
    9.1007  -15.5451   21.9915 N   0  0  0  0  0  0  0  0  0  0  0  0
    8.9556  -16.1047   23.3334 C   0  0  1  0  0  0  0  0  0  0  0  0
    9.8886  -17.2575   23.4279 C   0  0  0  0  0  0  0  0  0  0  0  0
    9.9737  -17.9371   24.7491 C   0  0  0  0  0  0  0  0  0  0  0  0
   10.9761  -19.0095   24.8409 C   0  0  0  0  0  0  0  0  0  0  0  0
   12.1691  -18.8143   24.5077 O   0  0  0  0  0  0  0  0  0  0  0  0
    9.1567  -15.0716   24.3735 C   0  0  0  0  0  0  0  0  0  0  0  0
   10.2077  -14.3830   24.3069 O   0  0  0  0  0  0  0  0  0  0  0  0
   10.6626  -20.2825   25.2958 O   0  0  0  0  0  0  0  0  0  0  0  0
    6.1551  -13.3739   26.8988 C   0  0  0  0  0  0  0  0  0  0  0  0
    7.4865  -12.7774   26.5698 C   0  0  2  0  0  0  0  0  0  0  0  0
    7.3766  -11.8865   25.3506 C   0  0  0  0  0  0  0  0  0  0  0  0
    8.5735  -13.8071   26.4037 C   0  0  2  0  0  0  0  0  0  0  0  0
    8.2576  -14.8095   25.4244 N   0  0  0  0  0  0  0  0  0  0  0  0
    8.8821  -14.4271   27.7081 C   0  0  0  0  0  0  0  0  0  0  0  0
    8.6563  -15.6319   27.9741 O   0  0  0  0  0  0  0  0  0  0  0  0
    9.4518  -13.6397   28.6948 O   0  0  0  0  0  0  0  0  0  0  0  0
  2  1  1  1
  2  4  1  0
  3  2  1  0
  4  5  1  6
  6  8  1  0
  6  4  1  0
  7  6  2  0
  9  8  1  0
 10 11  1  0
  9 10  1  1
 12 16  1  0
 12 11  1  0
 13 12  2  0
 14 21  1  0
 14  9  1  0
 15 14  2  0
 18 17  1  6
 18 20  1  0
 19 18  1  0
 20 21  1  6
 20 22  1  0
 22 24  1  0
 23 22  2  0
M  END
$$$$
