VEV.pdb
     RDKit          3D

 24 23  0  0  1  0  0  0  0  0999 V2000
    8.6335  -12.7751   18.2215 C   0  0  0  0  0  0  0  0  0  0  0  0
    8.4421  -13.2177   19.6534 C   0  0  1  0  0  0  0  0  0  0  0  0
    7.2089  -12.5794   20.2538 C   0  0  0  0  0  0  0  0  0  0  0  0
    8.3400  -14.7280   19.6929 C   0  0  2  0  0  0  0  0  0  0  0  0
    7.3116  -15.1277   18.7775 N   0  0  0  0  0  0  0  0  0  0  0  0
    8.1031  -15.2231   21.0686 C   0  0  0  0  0  0  0  0  0  0  0  0
    6.9347  -15.2987   21.5109 O   0  0  0  0  0  0  0  0  0  0  0  0
    9.1602  -15.6240   21.9256 N   0  0  0  0  0  0  0  0  0  0  0  0
    8.9295  -16.1602   23.2650 C   0  0  1  0  0  0  0  0  0  0  0  0
    9.8581  -17.3070   23.4411 C   0  0  0  0  0  0  0  0  0  0  0  0
    9.8202  -17.9964   24.7595 C   0  0  0  0  0  0  0  0  0  0  0  0
   10.7768  -19.1024   24.9180 C   0  0  0  0  0  0  0  0  0  0  0  0
   10.3973  -20.2447   25.2693 O   0  0  0  0  0  0  0  0  0  0  0  0
    9.0585  -15.1078   24.2972 C   0  0  0  0  0  0  0  0  0  0  0  0
   10.0763  -14.3699   24.2444 O   0  0  0  0  0  0  0  0  0  0  0  0
   12.1369  -18.9465   24.6907 O   0  0  0  0  0  0  0  0  0  0  0  0
    6.0049  -13.6170   26.9940 C   0  0  0  0  0  0  0  0  0  0  0  0
    7.2732  -12.9433   26.5767 C   0  0  2  0  0  0  0  0  0  0  0  0
    7.0306  -12.0712   25.3630 C   0  0  0  0  0  0  0  0  0  0  0  0
    8.4085  -13.9062   26.3451 C   0  0  2  0  0  0  0  0  0  0  0  0
    8.1259  -14.8787   25.3263 N   0  0  0  0  0  0  0  0  0  0  0  0
    8.7735  -14.5673   27.6144 C   0  0  0  0  0  0  0  0  0  0  0  0
    9.2105  -13.9519   28.6162 O   0  0  0  0  0  0  0  0  0  0  0  0
    8.6272  -15.9412   27.7088 O   0  0  0  0  0  0  0  0  0  0  0  0
  2  1  1  6
  2  4  1  0
  3  2  1  0
  4  5  1  6
  6  8  1  0
  6  4  1  0
  7  6  2  0
  9  8  1  0
 10 11  1  0
  9 10  1  1
 12 16  1  0
 12 11  1  0
 13 12  2  0
 14 21  1  0
 14  9  1  0
 15 14  2  0
 18 17  1  6
 18 20  1  0
 19 18  1  0
 20 21  1  6
 20 22  1  0
 22 24  1  0
 23 22  2  0
M  END
$$$$
