VEV.pdb
     RDKit          3D

 24 23  0  0  1  0  0  0  0  0999 V2000
    7.8243  -12.6205   18.0937 C   0  0  0  0  0  0  0  0  0  0  0  0
    7.5775  -13.4895   19.3046 C   0  0  1  0  0  0  0  0  0  0  0  0
    7.1182  -14.8705   18.8914 C   0  0  0  0  0  0  0  0  0  0  0  0
    8.8493  -13.5676   20.1227 C   0  0  2  0  0  0  0  0  0  0  0  0
    9.8718  -14.1447   19.3000 N   0  0  0  0  0  0  0  0  0  0  0  0
    8.6419  -14.3161   21.3839 C   0  0  0  0  0  0  0  0  0  0  0  0
    7.7210  -13.9815   22.1627 O   0  0  0  0  0  0  0  0  0  0  0  0
    9.4549  -15.4169   21.7579 N   0  0  0  0  0  0  0  0  0  0  0  0
    9.2192  -16.1950   22.9719 C   0  0  1  0  0  0  0  0  0  0  0  0
   10.2185  -17.2947   22.9855 C   0  0  0  0  0  0  0  0  0  0  0  0
   10.2419  -18.1566   24.1985 C   0  0  0  0  0  0  0  0  0  0  0  0
   10.0946  -19.5984   23.9480 C   0  0  0  0  0  0  0  0  0  0  0  0
   10.8599  -20.2026   23.1595 O   0  0  0  0  0  0  0  0  0  0  0  0
    9.2425  -15.3358   24.1764 C   0  0  0  0  0  0  0  0  0  0  0  0
   10.2917  -14.6763   24.3943 O   0  0  0  0  0  0  0  0  0  0  0  0
    9.1127  -20.3627   24.5623 O   0  0  0  0  0  0  0  0  0  0  0  0
    6.3541  -12.9328   25.1558 C   0  0  0  0  0  0  0  0  0  0  0  0
    6.9453  -13.5301   26.3929 C   0  0  2  0  0  0  0  0  0  0  0  0
    7.0821  -12.4768   27.4718 C   0  0  0  0  0  0  0  0  0  0  0  0
    8.2521  -14.2374   26.1445 C   0  0  2  0  0  0  0  0  0  0  0  0
    8.1775  -15.2080   25.0880 N   0  0  0  0  0  0  0  0  0  0  0  0
    8.7326  -14.8593   27.3949 C   0  0  0  0  0  0  0  0  0  0  0  0
    9.0930  -14.2036   28.4016 O   0  0  0  0  0  0  0  0  0  0  0  0
    8.7903  -16.2412   27.4650 O   0  0  0  0  0  0  0  0  0  0  0  0
  2  1  1  6
  2  4  1  0
  3  2  1  0
  4  5  1  6
  6  8  1  0
  6  4  1  0
  7  6  2  0
  9  8  1  0
 10 11  1  0
  9 10  1  1
 12 16  1  0
 12 11  1  0
 13 12  2  0
 14 21  1  0
 14  9  1  0
 15 14  2  0
 18 17  1  6
 18 20  1  0
 19 18  1  0
 20 21  1  6
 20 22  1  0
 22 24  1  0
 23 22  2  0
M  END
$$$$
