VEV.pdb
     RDKit          3D

 24 23  0  0  1  0  0  0  0  0999 V2000
    8.3068  -12.5123   18.5619 C   0  0  0  0  0  0  0  0  0  0  0  0
    8.1893  -13.1938   19.9052 C   0  0  1  0  0  0  0  0  0  0  0  0
    6.8123  -12.9850   20.4961 C   0  0  0  0  0  0  0  0  0  0  0  0
    8.4846  -14.6693   19.7367 C   0  0  2  0  0  0  0  0  0  0  0  0
    7.5981  -15.1884   18.7368 N   0  0  0  0  0  0  0  0  0  0  0  0
    8.3822  -15.3968   21.0229 C   0  0  0  0  0  0  0  0  0  0  0  0
    7.3120  -15.9672   21.3325 O   0  0  0  0  0  0  0  0  0  0  0  0
    9.4625  -15.4788   21.9388 N   0  0  0  0  0  0  0  0  0  0  0  0
    9.3546  -16.1603   23.2267 C   0  0  1  0  0  0  0  0  0  0  0  0
   10.3885  -17.2277   23.2428 C   0  0  0  0  0  0  0  0  0  0  0  0
   10.2211  -18.3300   22.2571 C   0  0  0  0  0  0  0  0  0  0  0  0
   11.4320  -19.1196   21.9857 C   0  0  0  0  0  0  0  0  0  0  0  0
   12.5058  -18.8921   22.5919 O   0  0  0  0  0  0  0  0  0  0  0  0
    9.4483  -15.2045   24.3524 C   0  0  0  0  0  0  0  0  0  0  0  0
   10.5029  -14.5245   24.4454 O   0  0  0  0  0  0  0  0  0  0  0  0
   11.4546  -20.1487   21.0550 O   0  0  0  0  0  0  0  0  0  0  0  0
    6.2320  -13.5483   26.6697 C   0  0  0  0  0  0  0  0  0  0  0  0
    7.6163  -13.0115   26.4895 C   0  0  2  0  0  0  0  0  0  0  0  0
    7.6704  -12.0891   25.2901 C   0  0  0  0  0  0  0  0  0  0  0  0
    8.6645  -14.0901   26.4029 C   0  0  2  0  0  0  0  0  0  0  0  0
    8.4442  -15.0066   25.3188 N   0  0  0  0  0  0  0  0  0  0  0  0
    8.7518  -14.8104   27.6892 C   0  0  0  0  0  0  0  0  0  0  0  0
    8.4251  -16.0127   27.8344 O   0  0  0  0  0  0  0  0  0  0  0  0
    9.2193  -14.1258   28.7986 O   0  0  0  0  0  0  0  0  0  0  0  0
  2  1  1  6
  2  4  1  0
  3  2  1  0
  4  5  1  6
  6  8  1  0
  6  4  1  0
  7  6  2  0
  9  8  1  0
 10 11  1  0
  9 10  1  1
 12 16  1  0
 12 11  1  0
 13 12  2  0
 14 21  1  0
 14  9  1  0
 15 14  2  0
 18 17  1  6
 18 20  1  0
 19 18  1  0
 20 21  1  6
 20 22  1  0
 22 24  1  0
 23 22  2  0
M  END
$$$$
