VEV.pdb
     RDKit          3D

 24 23  0  0  1  0  0  0  0  0999 V2000
    6.7594  -12.9094   19.6447 C   0  0  0  0  0  0  0  0  0  0  0  0
    8.1842  -13.1350   19.1955 C   0  0  1  0  0  0  0  0  0  0  0  0
    9.1532  -12.3830   20.0812 C   0  0  0  0  0  0  0  0  0  0  0  0
    8.4780  -14.6202   19.2157 C   0  0  2  0  0  0  0  0  0  0  0  0
    7.6370  -15.2526   18.2419 N   0  0  0  0  0  0  0  0  0  0  0  0
    8.3096  -15.1915   20.5718 C   0  0  0  0  0  0  0  0  0  0  0  0
    7.1667  -15.4929   20.9835 O   0  0  0  0  0  0  0  0  0  0  0  0
    9.4057  -15.4177   21.4438 N   0  0  0  0  0  0  0  0  0  0  0  0
    9.2606  -16.0809   22.7375 C   0  0  1  0  0  0  0  0  0  0  0  0
   10.3525  -17.0839   22.8379 C   0  0  0  0  0  0  0  0  0  0  0  0
   10.4594  -17.8235   24.1248 C   0  0  0  0  0  0  0  0  0  0  0  0
   11.6221  -18.7166   24.2418 C   0  0  0  0  0  0  0  0  0  0  0  0
   11.5248  -19.9445   24.0068 O   0  0  0  0  0  0  0  0  0  0  0  0
    9.2299  -15.1009   23.8458 C   0  0  0  0  0  0  0  0  0  0  0  0
   10.1092  -14.2009   23.8444 O   0  0  0  0  0  0  0  0  0  0  0  0
   12.8774  -18.2570   24.6141 O   0  0  0  0  0  0  0  0  0  0  0  0
    6.6863  -12.6158   24.8041 C   0  0  0  0  0  0  0  0  0  0  0  0
    7.0869  -13.3143   26.0645 C   0  0  2  0  0  0  0  0  0  0  0  0
    7.1753  -12.3259   27.2080 C   0  0  0  0  0  0  0  0  0  0  0  0
    8.3587  -14.1095   25.9239 C   0  0  2  0  0  0  0  0  0  0  0  0
    8.2900  -15.1081   24.8936 N   0  0  0  0  0  0  0  0  0  0  0  0
    8.7169  -14.7180   27.2211 C   0  0  0  0  0  0  0  0  0  0  0  0
    8.6322  -15.9469   27.4576 O   0  0  0  0  0  0  0  0  0  0  0  0
    9.1715  -13.8912   28.2348 O   0  0  0  0  0  0  0  0  0  0  0  0
  2  1  1  1
  2  4  1  0
  3  2  1  0
  4  5  1  6
  6  8  1  0
  6  4  1  0
  7  6  2  0
  9  8  1  0
 10 11  1  0
  9 10  1  1
 12 16  1  0
 12 11  1  0
 13 12  2  0
 14 21  1  0
 14  9  1  0
 15 14  2  0
 18 17  1  6
 18 20  1  0
 19 18  1  0
 20 21  1  6
 20 22  1  0
 22 24  1  0
 23 22  2  0
M  END
$$$$
