VEV.pdb
     RDKit          3D

 24 23  0  0  1  0  0  0  0  0999 V2000
    8.4270  -12.6761   20.8585 C   0  0  0  0  0  0  0  0  0  0  0  0
    7.5441  -13.4627   19.9180 C   0  0  1  0  0  0  0  0  0  0  0  0
    7.5466  -12.8469   18.5361 C   0  0  0  0  0  0  0  0  0  0  0  0
    8.0296  -14.8961   19.8694 C   0  0  2  0  0  0  0  0  0  0  0  0
    7.1710  -15.6261   18.9833 N   0  0  0  0  0  0  0  0  0  0  0  0
    8.0961  -15.4960   21.2221 C   0  0  0  0  0  0  0  0  0  0  0  0
    7.0397  -15.7495   21.8438 O   0  0  0  0  0  0  0  0  0  0  0  0
    9.3261  -15.8028   21.8588 N   0  0  0  0  0  0  0  0  0  0  0  0
    9.3985  -16.3650   23.2055 C   0  0  1  0  0  0  0  0  0  0  0  0
   10.6180  -17.2126   23.2589 C   0  0  0  0  0  0  0  0  0  0  0  0
   10.9685  -17.7901   24.5850 C   0  0  0  0  0  0  0  0  0  0  0  0
   11.0977  -19.2548   24.6182 C   0  0  0  0  0  0  0  0  0  0  0  0
   10.5486  -19.9355   25.5168 O   0  0  0  0  0  0  0  0  0  0  0  0
    9.3480  -15.3046   24.2363 C   0  0  0  0  0  0  0  0  0  0  0  0
   10.1476  -14.3410   24.1121 O   0  0  0  0  0  0  0  0  0  0  0  0
   11.8256  -19.9581   23.6688 O   0  0  0  0  0  0  0  0  0  0  0  0
    6.6260  -13.0211   25.0529 C   0  0  0  0  0  0  0  0  0  0  0  0
    7.1483  -13.5063   26.3677 C   0  0  2  0  0  0  0  0  0  0  0  0
    7.1948  -12.3696   27.3667 C   0  0  0  0  0  0  0  0  0  0  0  0
    8.4819  -14.1982   26.2578 C   0  0  2  0  0  0  0  0  0  0  0  0
    8.4720  -15.3018   25.3381 N   0  0  0  0  0  0  0  0  0  0  0  0
    8.9339  -14.6336   27.5947 C   0  0  0  0  0  0  0  0  0  0  0  0
    8.9833  -15.8347   27.9529 O   0  0  0  0  0  0  0  0  0  0  0  0
    9.3255  -13.6672   28.5061 O   0  0  0  0  0  0  0  0  0  0  0  0
  2  1  1  1
  2  4  1  0
  3  2  1  0
  4  5  1  6
  6  8  1  0
  6  4  1  0
  7  6  2  0
  9  8  1  0
 10 11  1  0
  9 10  1  6
 12 16  1  0
 12 11  1  0
 13 12  2  0
 14 21  1  0
 14  9  1  0
 15 14  2  0
 18 17  1  6
 18 20  1  0
 19 18  1  0
 20 21  1  6
 20 22  1  0
 22 24  1  0
 23 22  2  0
M  END
$$$$
