VEV.pdb
     RDKit          3D

 24 23  0  0  1  0  0  0  0  0999 V2000
    8.1975  -12.6463   18.6683 C   0  0  0  0  0  0  0  0  0  0  0  0
    8.1973  -13.2547   20.0512 C   0  0  1  0  0  0  0  0  0  0  0  0
    6.9227  -12.9110   20.7903 C   0  0  0  0  0  0  0  0  0  0  0  0
    8.3612  -14.7550   19.9295 C   0  0  2  0  0  0  0  0  0  0  0  0
    7.3785  -15.2354   19.0028 N   0  0  0  0  0  0  0  0  0  0  0  0
    8.2750  -15.4222   21.2491 C   0  0  0  0  0  0  0  0  0  0  0  0
    7.1809  -15.8854   21.6428 O   0  0  0  0  0  0  0  0  0  0  0  0
    9.3975  -15.5637   22.1050 N   0  0  0  0  0  0  0  0  0  0  0  0
    9.3044  -16.1588   23.4362 C   0  0  1  0  0  0  0  0  0  0  0  0
   10.3649  -17.1961   23.5249 C   0  0  0  0  0  0  0  0  0  0  0  0
   10.2002  -18.3912   22.6536 C   0  0  0  0  0  0  0  0  0  0  0  0
   11.2704  -19.3950   22.7547 C   0  0  0  0  0  0  0  0  0  0  0  0
   11.1315  -20.4246   23.4569 O   0  0  0  0  0  0  0  0  0  0  0  0
    9.3717  -15.1268   24.4944 C   0  0  0  0  0  0  0  0  0  0  0  0
   10.4533  -14.4957   24.6167 O   0  0  0  0  0  0  0  0  0  0  0  0
   12.4796  -19.2616   22.0871 O   0  0  0  0  0  0  0  0  0  0  0  0
    6.0672  -13.5452   26.9097 C   0  0  0  0  0  0  0  0  0  0  0  0
    7.3384  -12.8646   26.5128 C   0  0  2  0  0  0  0  0  0  0  0  0
    7.1328  -12.0653   25.2435 C   0  0  0  0  0  0  0  0  0  0  0  0
    8.5036  -13.8109   26.3854 C   0  0  2  0  0  0  0  0  0  0  0  0
    8.3146  -14.8063   25.3669 N   0  0  0  0  0  0  0  0  0  0  0  0
    8.7831  -14.4427   27.6908 C   0  0  0  0  0  0  0  0  0  0  0  0
    8.5955  -15.6603   27.9262 O   0  0  0  0  0  0  0  0  0  0  0  0
    9.2793  -13.6521   28.7139 O   0  0  0  0  0  0  0  0  0  0  0  0
  2  1  1  6
  2  4  1  0
  3  2  1  0
  4  5  1  6
  6  8  1  0
  6  4  1  0
  7  6  2  0
  9  8  1  0
 10 11  1  0
  9 10  1  1
 12 16  1  0
 12 11  1  0
 13 12  2  0
 14 21  1  0
 14  9  1  0
 15 14  2  0
 18 17  1  6
 18 20  1  0
 19 18  1  0
 20 21  1  6
 20 22  1  0
 22 24  1  0
 23 22  2  0
M  END
$$$$
