VEV.pdb
     RDKit          3D

 24 23  0  0  1  0  0  0  0  0999 V2000
    8.3934  -12.8226   18.2824 C   0  0  0  0  0  0  0  0  0  0  0  0
    8.3649  -13.3418   19.7009 C   0  0  1  0  0  0  0  0  0  0  0  0
    7.2038  -12.7483   20.4681 C   0  0  0  0  0  0  0  0  0  0  0  0
    8.2738  -14.8530   19.6708 C   0  0  2  0  0  0  0  0  0  0  0  0
    7.1662  -15.2146   18.8355 N   0  0  0  0  0  0  0  0  0  0  0  0
    8.1688  -15.4208   21.0347 C   0  0  0  0  0  0  0  0  0  0  0  0
    7.0449  -15.5553   21.5688 O   0  0  0  0  0  0  0  0  0  0  0  0
    9.3059  -15.8275   21.7793 N   0  0  0  0  0  0  0  0  0  0  0  0
    9.2048  -16.4421   23.1009 C   0  0  1  0  0  0  0  0  0  0  0  0
   10.2848  -17.4588   23.1925 C   0  0  0  0  0  0  0  0  0  0  0  0
   10.3913  -18.2014   24.4778 C   0  0  0  0  0  0  0  0  0  0  0  0
   11.5085  -19.1543   24.5623 C   0  0  0  0  0  0  0  0  0  0  0  0
   12.4225  -19.0108   25.4087 O   0  0  0  0  0  0  0  0  0  0  0  0
    9.2350  -15.4232   24.1735 C   0  0  0  0  0  0  0  0  0  0  0  0
   10.1362  -14.5473   24.1117 O   0  0  0  0  0  0  0  0  0  0  0  0
   11.6133  -20.2528   23.7208 O   0  0  0  0  0  0  0  0  0  0  0  0
    6.7200  -12.8865   25.0399 C   0  0  0  0  0  0  0  0  0  0  0  0
    7.1536  -13.5026   26.3319 C   0  0  2  0  0  0  0  0  0  0  0  0
    7.2685  -12.4429   27.4072 C   0  0  0  0  0  0  0  0  0  0  0  0
    8.4231  -14.3045   26.2107 C   0  0  2  0  0  0  0  0  0  0  0  0
    8.3298  -15.3687   25.2501 N   0  0  0  0  0  0  0  0  0  0  0  0
    8.8162  -14.8265   27.5351 C   0  0  0  0  0  0  0  0  0  0  0  0
    8.6599  -16.0211   27.8841 O   0  0  0  0  0  0  0  0  0  0  0  0
    9.3891  -13.9536   28.4450 O   0  0  0  0  0  0  0  0  0  0  0  0
  2  1  1  6
  2  4  1  0
  3  2  1  0
  4  5  1  6
  6  8  1  0
  6  4  1  0
  7  6  2  0
  9  8  1  0
 10 11  1  0
  9 10  1  1
 12 16  1  0
 12 11  1  0
 13 12  2  0
 14 21  1  0
 14  9  1  0
 15 14  2  0
 18 17  1  6
 18 20  1  0
 19 18  1  0
 20 21  1  6
 20 22  1  0
 22 24  1  0
 23 22  2  0
M  END
$$$$
