FCH.pdb
     RDKit          3D

 28 29  0  0  1  0  0  0  0  0999 V2000
   27.8027  -22.1700  -12.0734 N   0  0  0  0  0  0  0  0  0  0  0  0
   26.5330  -21.4940  -11.6773 C   0  0  1  0  0  0  0  0  0  0  0  0
   26.9653  -20.2377  -11.0331 C   0  0  0  0  0  0  0  0  0  0  0  0
   27.4706  -20.2863   -9.6753 C   0  0  0  0  0  0  0  0  0  0  0  0
   26.6242  -20.0953   -8.6074 C   0  0  0  0  0  0  0  0  0  0  0  0
   27.0489  -20.1246   -7.2916 C   0  0  0  0  0  0  0  0  0  0  0  0
   28.3848  -20.3573   -7.0565 C   0  0  0  0  0  0  0  0  0  0  0  0
   29.2518  -20.5515   -8.1034 C   0  0  0  0  0  0  0  0  0  0  0  0
   28.7918  -20.5148   -9.3951 C   0  0  0  0  0  0  0  0  0  0  0  0
   25.7293  -21.4223  -12.8830 C   0  0  0  0  0  0  0  0  0  0  0  0
   26.2395  -21.2159  -14.0407 O   0  0  0  0  0  0  0  0  0  0  0  0
   24.3199  -21.5823  -12.8531 N   0  0  0  0  0  0  0  0  0  0  0  0
   23.5350  -21.7384  -14.0656 C   0  0  1  0  0  0  0  0  0  0  0  0
   24.0217  -22.9751  -14.8300 C   0  0  0  0  0  0  0  0  0  0  0  0
   24.6857  -24.2124  -13.6798 S   0  0  0  0  0  0  0  0  0  0  0  0
   22.0928  -21.8346  -13.7744 C   0  0  0  0  0  0  0  0  0  0  0  0
   21.5700  -22.3443  -12.7713 O   0  0  0  0  0  0  0  0  0  0  0  0
   21.1694  -21.2838  -14.7455 N   0  0  0  0  0  0  0  0  0  0  0  0
   20.1937  -20.2757  -14.3677 C   0  0  1  0  0  0  0  0  0  0  0  0
   20.9742  -19.0093  -14.0696 C   0  0  0  0  0  0  0  0  0  0  0  0
   20.0725  -17.9000  -13.6872 C   0  0  0  0  0  0  0  0  0  0  0  0
   19.4767  -17.7387  -12.4618 C   0  0  0  0  0  0  0  0  0  0  0  0
   18.7364  -16.6133  -12.5134 N   0  0  0  0  0  0  0  0  0  0  0  0
   18.8539  -16.0694  -13.7347 C   0  0  0  0  0  0  0  0  0  0  0  0
   19.6811  -16.8696  -14.4555 N   0  0  0  0  0  0  0  0  0  0  0  0
   19.3449  -19.9816  -15.5551 C   0  0  0  0  0  0  0  0  0  0  0  0
   19.9626  -19.8605  -16.7797 O   0  0  0  0  0  0  0  0  0  0  0  0
   18.0987  -19.8461  -15.4526 O   0  0  0  0  0  0  0  0  0  0  0  0
  2  1  1  6
  2 10  1  0
  3  2  1  0
  4  3  1  0
  4  9  1  0
  5  4  2  0
  6  5  1  0
  6  7  2  0
  7  8  1  0
  8  9  2  0
 10 11  2  0
 12 13  1  0
 12 10  1  0
 13 16  1  0
 14 15  1  0
 13 14  1  1
 16 17  2  0
 18 16  1  0
 18 19  1  0
 19 26  1  0
 19 20  1  6
 21 25  1  0
 21 20  1  0
 22 21  2  0
 23 22  1  0
 23 24  1  0
 24 25  2  0
 26 28  2  0
 26 27  1  0
M  END
$$$$
