FCH.pdb
     RDKit          3D

 28 29  0  0  1  0  0  0  0  0999 V2000
   28.3502  -21.8238   -9.1700 N   0  0  0  0  0  0  0  0  0  0  0  0
   27.2074  -20.8873   -9.3774 C   0  0  1  0  0  0  0  0  0  0  0  0
   27.6271  -19.6355   -8.7163 C   0  0  0  0  0  0  0  0  0  0  0  0
   27.7157  -19.6047   -7.2698 C   0  0  0  0  0  0  0  0  0  0  0  0
   26.6478  -19.9967   -6.4956 C   0  0  0  0  0  0  0  0  0  0  0  0
   26.6713  -19.9836   -5.1130 C   0  0  0  0  0  0  0  0  0  0  0  0
   27.8255  -19.5555   -4.4977 C   0  0  0  0  0  0  0  0  0  0  0  0
   28.9064  -19.1588   -5.2456 C   0  0  0  0  0  0  0  0  0  0  0  0
   28.8440  -19.1862   -6.6156 C   0  0  0  0  0  0  0  0  0  0  0  0
   26.9592  -20.8753  -10.8067 C   0  0  0  0  0  0  0  0  0  0  0  0
   27.8393  -21.2440  -11.6627 O   0  0  0  0  0  0  0  0  0  0  0  0
   25.7159  -20.4560  -11.3466 N   0  0  0  0  0  0  0  0  0  0  0  0
   25.4523  -20.4660  -12.7752 C   0  0  1  0  0  0  0  0  0  0  0  0
   25.5398  -21.9047  -13.2979 C   0  0  0  0  0  0  0  0  0  0  0  0
   24.7300  -23.0496  -12.1456 S   0  0  0  0  0  0  0  0  0  0  0  0
   24.1415  -19.8703  -13.0931 C   0  0  0  0  0  0  0  0  0  0  0  0
   23.1288  -19.8779  -12.3764 O   0  0  0  0  0  0  0  0  0  0  0  0
   23.9955  -19.2008  -14.3696 N   0  0  0  0  0  0  0  0  0  0  0  0
   22.7829  -18.4730  -14.7026 C   0  0  1  0  0  0  0  0  0  0  0  0
   23.0739  -17.7107  -15.9816 C   0  0  0  0  0  0  0  0  0  0  0  0
   24.0585  -16.6303  -15.7508 C   0  0  0  0  0  0  0  0  0  0  0  0
   24.4958  -16.1939  -14.5258 C   0  0  0  0  0  0  0  0  0  0  0  0
   25.3841  -15.2028  -14.7394 N   0  0  0  0  0  0  0  0  0  0  0  0
   25.5127  -15.0095  -16.0612 C   0  0  0  0  0  0  0  0  0  0  0  0
   24.6906  -15.8950  -16.6809 N   0  0  0  0  0  0  0  0  0  0  0  0
   21.7210  -19.4637  -15.0311 C   0  0  0  0  0  0  0  0  0  0  0  0
   20.4158  -19.0266  -15.0690 O   0  0  0  0  0  0  0  0  0  0  0  0
   21.9983  -20.6673  -15.2687 O   0  0  0  0  0  0  0  0  0  0  0  0
  2  1  1  6
  2 10  1  0
  3  2  1  0
  4  3  1  0
  4  9  1  0
  5  4  2  0
  6  5  1  0
  6  7  2  0
  7  8  1  0
  8  9  2  0
 10 11  2  0
 12 13  1  0
 12 10  1  0
 13 16  1  0
 14 15  1  0
 13 14  1  1
 16 17  2  0
 18 16  1  0
 18 19  1  0
 19 26  1  0
 19 20  1  6
 21 25  1  0
 21 20  1  0
 22 21  2  0
 23 22  1  0
 23 24  1  0
 24 25  2  0
 26 28  2  0
 26 27  1  0
M  END
$$$$
