FCH.pdb
     RDKit          3D

 28 29  0  0  1  0  0  0  0  0999 V2000
   30.9835  -31.3660  -20.9086 N   0  0  0  0  0  0  0  0  0  0  0  0
   30.1702  -30.1676  -20.5502 C   0  0  1  0  0  0  0  0  0  0  0  0
   29.9903  -29.4448  -21.8251 C   0  0  0  0  0  0  0  0  0  0  0  0
   31.1114  -28.7091  -22.3757 C   0  0  0  0  0  0  0  0  0  0  0  0
   31.8348  -29.2216  -23.4280 C   0  0  0  0  0  0  0  0  0  0  0  0
   32.9164  -28.5691  -23.9907 C   0  0  0  0  0  0  0  0  0  0  0  0
   33.2730  -27.3499  -23.4614 C   0  0  0  0  0  0  0  0  0  0  0  0
   32.5687  -26.8146  -22.4114 C   0  0  0  0  0  0  0  0  0  0  0  0
   31.5013  -27.4930  -21.8804 C   0  0  0  0  0  0  0  0  0  0  0  0
   28.9986  -30.6753  -19.8615 C   0  0  0  0  0  0  0  0  0  0  0  0
   28.2932  -31.6419  -20.3212 O   0  0  0  0  0  0  0  0  0  0  0  0
   28.5627  -30.1309  -18.6260 N   0  0  0  0  0  0  0  0  0  0  0  0
   27.3528  -30.5890  -17.9649 C   0  0  1  0  0  0  0  0  0  0  0  0
   27.7253  -31.2927  -16.6546 C   0  0  0  0  0  0  0  0  0  0  0  0
   29.4872  -31.7290  -16.6463 S   0  0  0  0  0  0  0  0  0  0  0  0
   26.4125  -29.4806  -17.7171 C   0  0  0  0  0  0  0  0  0  0  0  0
   26.6563  -28.2670  -17.8006 O   0  0  0  0  0  0  0  0  0  0  0  0
   25.0563  -29.8180  -17.3348 N   0  0  0  0  0  0  0  0  0  0  0  0
   24.0631  -28.7847  -17.0968 C   0  0  1  0  0  0  0  0  0  0  0  0
   23.9297  -28.0069  -18.3926 C   0  0  0  0  0  0  0  0  0  0  0  0
   22.9265  -26.9260  -18.2695 C   0  0  0  0  0  0  0  0  0  0  0  0
   23.0658  -25.7861  -17.5188 C   0  0  0  0  0  0  0  0  0  0  0  0
   21.9409  -25.0588  -17.6693 N   0  0  0  0  0  0  0  0  0  0  0  0
   21.1055  -25.7124  -18.4914 C   0  0  0  0  0  0  0  0  0  0  0  0
   21.7206  -26.8659  -18.8590 N   0  0  0  0  0  0  0  0  0  0  0  0
   22.7502  -29.4466  -16.8619 C   0  0  0  0  0  0  0  0  0  0  0  0
   21.7035  -28.6708  -16.4163 O   0  0  0  0  0  0  0  0  0  0  0  0
   22.5920  -30.6782  -17.0620 O   0  0  0  0  0  0  0  0  0  0  0  0
  2  1  1  6
  2 10  1  0
  3  2  1  0
  4  3  1  0
  4  9  1  0
  5  4  2  0
  6  5  1  0
  6  7  2  0
  7  8  1  0
  8  9  2  0
 10 11  2  0
 12 13  1  0
 12 10  1  0
 13 16  1  0
 14 15  1  0
 13 14  1  1
 16 17  2  0
 18 16  1  0
 18 19  1  0
 19 26  1  0
 19 20  1  6
 21 25  1  0
 21 20  1  0
 22 21  2  0
 23 22  1  0
 23 24  1  0
 24 25  2  0
 26 28  2  0
 26 27  1  0
M  END
$$$$
