FCH.pdb
     RDKit          3D

 28 29  0  0  1  0  0  0  0  0999 V2000
   28.3389  -19.6203   11.8538 N   0  0  0  0  0  0  0  0  0  0  0  0
   27.4030  -18.8768   10.9608 C   0  0  1  0  0  0  0  0  0  0  0  0
   27.7281  -19.3530    9.6015 C   0  0  0  0  0  0  0  0  0  0  0  0
   28.9931  -18.9656    9.0091 C   0  0  0  0  0  0  0  0  0  0  0  0
   29.1870  -17.6825    8.5517 C   0  0  0  0  0  0  0  0  0  0  0  0
   30.3685  -17.2567    7.9729 C   0  0  0  0  0  0  0  0  0  0  0  0
   31.3892  -18.1724    7.8566 C   0  0  0  0  0  0  0  0  0  0  0  0
   31.2234  -19.4596    8.3047 C   0  0  0  0  0  0  0  0  0  0  0  0
   30.0356  -19.8437    8.8733 C   0  0  0  0  0  0  0  0  0  0  0  0
   26.0739  -19.1202   11.4889 C   0  0  0  0  0  0  0  0  0  0  0  0
   25.8639  -19.8620   12.5131 O   0  0  0  0  0  0  0  0  0  0  0  0
   24.9184  -18.5434   10.9016 N   0  0  0  0  0  0  0  0  0  0  0  0
   23.6071  -18.6434   11.5190 C   0  0  1  0  0  0  0  0  0  0  0  0
   23.6702  -18.0727   12.9407 C   0  0  0  0  0  0  0  0  0  0  0  0
   22.0019  -17.9238   13.6401 S   0  0  0  0  0  0  0  0  0  0  0  0
   22.5742  -17.9562   10.7223 C   0  0  0  0  0  0  0  0  0  0  0  0
   22.4040  -16.7310   10.6252 O   0  0  0  0  0  0  0  0  0  0  0  0
   21.6494  -18.7749    9.9649 N   0  0  0  0  0  0  0  0  0  0  0  0
   20.2156  -18.5511   10.0354 C   0  0  1  0  0  0  0  0  0  0  0  0
   19.8067  -18.8182   11.4719 C   0  0  0  0  0  0  0  0  0  0  0  0
   18.8529  -19.9464   11.5579 C   0  0  0  0  0  0  0  0  0  0  0  0
   18.5332  -20.8042   10.5359 C   0  0  0  0  0  0  0  0  0  0  0  0
   17.6335  -21.6880   11.0119 N   0  0  0  0  0  0  0  0  0  0  0  0
   17.3838  -21.4056   12.2999 C   0  0  0  0  0  0  0  0  0  0  0  0
   18.1407  -20.3279   12.6313 N   0  0  0  0  0  0  0  0  0  0  0  0
   19.9571  -17.1068    9.7821 C   0  0  0  0  0  0  0  0  0  0  0  0
   19.0346  -16.7730    8.8159 O   0  0  0  0  0  0  0  0  0  0  0  0
   20.5590  -16.2102   10.4270 O   0  0  0  0  0  0  0  0  0  0  0  0
  2  1  1  1
  2 10  1  0
  3  2  1  0
  4  3  1  0
  4  9  1  0
  5  4  2  0
  6  5  1  0
  6  7  2  0
  7  8  1  0
  8  9  2  0
 10 11  2  0
 12 13  1  0
 12 10  1  0
 13 16  1  0
 14 15  1  0
 13 14  1  1
 16 17  2  0
 18 16  1  0
 18 19  1  0
 19 26  1  0
 19 20  1  1
 21 25  1  0
 21 20  1  0
 22 21  2  0
 23 22  1  0
 23 24  1  0
 24 25  2  0
 26 28  2  0
 26 27  1  0
M  END
$$$$
