FCH.pdb
     RDKit          3D

 28 29  0  0  1  0  0  0  0  0999 V2000
   28.0182  -10.1574  -16.0889 N   0  0  0  0  0  0  0  0  0  0  0  0
   26.9803   -9.9494  -17.1403 C   0  0  1  0  0  0  0  0  0  0  0  0
   26.0560  -11.0899  -16.9818 C   0  0  0  0  0  0  0  0  0  0  0  0
   26.5085  -12.4141  -17.3600 C   0  0  0  0  0  0  0  0  0  0  0  0
   26.7996  -12.7048  -18.6730 C   0  0  0  0  0  0  0  0  0  0  0  0
   27.2293  -13.9498  -19.0943 C   0  0  0  0  0  0  0  0  0  0  0  0
   27.3674  -14.9339  -18.1422 C   0  0  0  0  0  0  0  0  0  0  0  0
   27.0841  -14.6715  -16.8246 C   0  0  0  0  0  0  0  0  0  0  0  0
   26.6600  -13.4231  -16.4461 C   0  0  0  0  0  0  0  0  0  0  0  0
   26.4746   -8.6048  -16.9376 C   0  0  0  0  0  0  0  0  0  0  0  0
   26.4016   -8.0629  -15.7782 O   0  0  0  0  0  0  0  0  0  0  0  0
   26.0317   -7.8011  -18.0197 N   0  0  0  0  0  0  0  0  0  0  0  0
   25.5066   -6.4611  -17.8214 C   0  0  1  0  0  0  0  0  0  0  0  0
   26.3181   -5.4681  -18.6618 C   0  0  0  0  0  0  0  0  0  0  0  0
   28.0033   -5.3096  -18.0064 S   0  0  0  0  0  0  0  0  0  0  0  0
   24.0723   -6.3816  -18.1538 C   0  0  0  0  0  0  0  0  0  0  0  0
   23.5324   -6.7529  -19.2074 O   0  0  0  0  0  0  0  0  0  0  0  0
   23.1798   -5.8146  -17.1634 N   0  0  0  0  0  0  0  0  0  0  0  0
   21.7458   -5.7555  -17.3896 C   0  0  1  0  0  0  0  0  0  0  0  0
   21.0869   -6.2626  -16.1205 C   0  0  0  0  0  0  0  0  0  0  0  0
   21.0709   -7.7417  -16.0776 C   0  0  0  0  0  0  0  0  0  0  0  0
   21.5390   -8.5763  -17.0609 C   0  0  0  0  0  0  0  0  0  0  0  0
   21.3460   -9.8441  -16.6455 N   0  0  0  0  0  0  0  0  0  0  0  0
   20.7717   -9.8232  -15.4328 C   0  0  0  0  0  0  0  0  0  0  0  0
   20.6043   -8.5206  -15.0873 N   0  0  0  0  0  0  0  0  0  0  0  0
   21.3553   -4.3255  -17.5285 C   0  0  0  0  0  0  0  0  0  0  0  0
   22.3414   -3.3705  -17.4205 O   0  0  0  0  0  0  0  0  0  0  0  0
   20.1616   -3.9894  -17.7385 O   0  0  0  0  0  0  0  0  0  0  0  0
  2  1  1  1
  2 10  1  0
  3  2  1  0
  4  3  1  0
  4  9  1  0
  5  4  2  0
  6  5  1  0
  6  7  2  0
  7  8  1  0
  8  9  2  0
 10 11  2  0
 12 13  1  0
 12 10  1  0
 13 16  1  0
 14 15  1  0
 13 14  1  6
 16 17  2  0
 18 16  1  0
 18 19  1  0
 19 26  1  0
 19 20  1  1
 21 25  1  0
 21 20  1  0
 22 21  2  0
 23 22  1  0
 23 24  1  0
 24 25  2  0
 26 28  2  0
 26 27  1  0
M  END
$$$$
