FCH.pdb
     RDKit          3D

 28 29  0  0  1  0  0  0  0  0999 V2000
   26.8041  -22.3279  -10.9154 N   0  0  0  0  0  0  0  0  0  0  0  0
   26.1175  -21.0034  -10.9015 C   0  0  1  0  0  0  0  0  0  0  0  0
   27.1691  -20.0429  -10.5120 C   0  0  0  0  0  0  0  0  0  0  0  0
   27.6042  -20.0053   -9.1298 C   0  0  0  0  0  0  0  0  0  0  0  0
   26.7027  -19.7595   -8.1197 C   0  0  0  0  0  0  0  0  0  0  0  0
   27.0593  -19.7060   -6.7847 C   0  0  0  0  0  0  0  0  0  0  0  0
   28.3829  -19.9108   -6.4683 C   0  0  0  0  0  0  0  0  0  0  0  0
   29.3040  -20.1583   -7.4560 C   0  0  0  0  0  0  0  0  0  0  0  0
   28.9108  -20.2034   -8.7694 C   0  0  0  0  0  0  0  0  0  0  0  0
   25.4923  -20.8674  -12.2036 C   0  0  0  0  0  0  0  0  0  0  0  0
   26.0756  -21.2207  -13.2891 O   0  0  0  0  0  0  0  0  0  0  0  0
   24.1857  -20.3354  -12.3542 N   0  0  0  0  0  0  0  0  0  0  0  0
   23.5368  -20.2379  -13.6503 C   0  0  1  0  0  0  0  0  0  0  0  0
   22.0713  -20.6689  -13.5184 C   0  0  0  0  0  0  0  0  0  0  0  0
   21.8948  -21.9342  -12.2290 S   0  0  0  0  0  0  0  0  0  0  0  0
   23.6360  -18.8775  -14.2101 C   0  0  0  0  0  0  0  0  0  0  0  0
   23.6101  -17.8104  -13.5776 O   0  0  0  0  0  0  0  0  0  0  0  0
   23.7792  -18.7465  -15.6458 N   0  0  0  0  0  0  0  0  0  0  0  0
   24.7799  -17.8664  -16.2245 C   0  0  1  0  0  0  0  0  0  0  0  0
   26.1317  -18.4258  -15.8225 C   0  0  0  0  0  0  0  0  0  0  0  0
   27.2322  -17.7258  -16.5216 C   0  0  0  0  0  0  0  0  0  0  0  0
   27.1815  -16.4466  -17.0152 C   0  0  0  0  0  0  0  0  0  0  0  0
   28.3771  -16.1788  -17.5771 N   0  0  0  0  0  0  0  0  0  0  0  0
   29.1705  -17.2535  -17.4479 C   0  0  0  0  0  0  0  0  0  0  0  0
   28.4568  -18.2063  -16.7946 N   0  0  0  0  0  0  0  0  0  0  0  0
   24.6976  -17.9792  -17.7068 C   0  0  0  0  0  0  0  0  0  0  0  0
   24.7995  -16.8255  -18.4516 O   0  0  0  0  0  0  0  0  0  0  0  0
   24.5395  -19.0918  -18.2717 O   0  0  0  0  0  0  0  0  0  0  0  0
  2  1  1  6
  2 10  1  0
  3  2  1  0
  4  3  1  0
  4  9  1  0
  5  4  2  0
  6  5  1  0
  6  7  2  0
  7  8  1  0
  8  9  2  0
 10 11  2  0
 12 13  1  0
 12 10  1  0
 13 16  1  0
 14 15  1  0
 13 14  1  1
 16 17  2  0
 18 16  1  0
 18 19  1  0
 19 26  1  0
 19 20  1  1
 21 25  1  0
 21 20  1  0
 22 21  2  0
 23 22  1  0
 23 24  1  0
 24 25  2  0
 26 28  2  0
 26 27  1  0
M  END
$$$$
