FCH.pdb
     RDKit          3D

 28 29  0  0  1  0  0  0  0  0999 V2000
   27.8294  -20.2712  -12.4363 N   0  0  0  0  0  0  0  0  0  0  0  0
   26.9276  -21.4367  -12.2031 C   0  0  1  0  0  0  0  0  0  0  0  0
   26.1887  -21.0950  -10.9712 C   0  0  0  0  0  0  0  0  0  0  0  0
   26.9363  -20.8375   -9.7564 C   0  0  0  0  0  0  0  0  0  0  0  0
   26.5479  -19.8369   -8.8954 C   0  0  0  0  0  0  0  0  0  0  0  0
   27.2240  -19.5412   -7.7259 C   0  0  0  0  0  0  0  0  0  0  0  0
   28.3362  -20.2931   -7.4233 C   0  0  0  0  0  0  0  0  0  0  0  0
   28.7463  -21.2979   -8.2644 C   0  0  0  0  0  0  0  0  0  0  0  0
   28.0487  -21.5607   -9.4158 C   0  0  0  0  0  0  0  0  0  0  0  0
   26.1863  -21.6175  -13.4370 C   0  0  0  0  0  0  0  0  0  0  0  0
   26.1775  -20.7398  -14.3712 O   0  0  0  0  0  0  0  0  0  0  0  0
   25.4247  -22.7880  -13.6874 N   0  0  0  0  0  0  0  0  0  0  0  0
   24.7166  -22.9949  -14.9390 C   0  0  1  0  0  0  0  0  0  0  0  0
   24.5395  -24.4987  -15.1799 C   0  0  0  0  0  0  0  0  0  0  0  0
   23.7888  -25.2904  -13.7293 S   0  0  0  0  0  0  0  0  0  0  0  0
   23.4141  -22.3040  -14.9505 C   0  0  0  0  0  0  0  0  0  0  0  0
   22.5782  -22.3100  -15.8674 O   0  0  0  0  0  0  0  0  0  0  0  0
   23.0491  -21.5311  -13.7807 N   0  0  0  0  0  0  0  0  0  0  0  0
   21.7509  -20.8863  -13.6806 C   0  0  1  0  0  0  0  0  0  0  0  0
   21.9823  -19.5536  -12.9934 C   0  0  0  0  0  0  0  0  0  0  0  0
   20.7301  -18.7699  -12.9058 C   0  0  0  0  0  0  0  0  0  0  0  0
   19.4945  -19.1844  -13.3346 C   0  0  0  0  0  0  0  0  0  0  0  0
   18.6200  -18.1907  -13.0797 N   0  0  0  0  0  0  0  0  0  0  0  0
   19.2748  -17.1700  -12.5049 C   0  0  0  0  0  0  0  0  0  0  0  0
   20.5788  -17.5343  -12.4002 N   0  0  0  0  0  0  0  0  0  0  0  0
   21.2774  -20.5772  -15.0579 C   0  0  0  0  0  0  0  0  0  0  0  0
   19.9991  -20.9542  -15.4040 O   0  0  0  0  0  0  0  0  0  0  0  0
   22.0164  -19.9890  -15.8885 O   0  0  0  0  0  0  0  0  0  0  0  0
  2  1  1  6
  2 10  1  0
  3  2  1  0
  4  3  1  0
  4  9  1  0
  5  4  2  0
  6  5  1  0
  6  7  2  0
  7  8  1  0
  8  9  2  0
 10 11  2  0
 12 13  1  0
 12 10  1  0
 13 16  1  0
 14 15  1  0
 13 14  1  1
 16 17  2  0
 18 16  1  0
 18 19  1  0
 19 26  1  0
 19 20  1  1
 21 25  1  0
 21 20  1  0
 22 21  2  0
 23 22  1  0
 23 24  1  0
 24 25  2  0
 26 28  2  0
 26 27  1  0
M  END
$$$$
