FCH.pdb
     RDKit          3D

 28 29  0  0  1  0  0  0  0  0999 V2000
   32.5470  -28.6088  -17.9099 N   0  0  0  0  0  0  0  0  0  0  0  0
   31.7106  -29.7198  -18.4505 C   0  0  1  0  0  0  0  0  0  0  0  0
   32.5502  -30.3451  -19.4919 C   0  0  0  0  0  0  0  0  0  0  0  0
   32.7498  -29.6425  -20.7439 C   0  0  0  0  0  0  0  0  0  0  0  0
   33.9171  -28.9534  -20.9804 C   0  0  0  0  0  0  0  0  0  0  0  0
   34.1618  -28.2605  -22.1519 C   0  0  0  0  0  0  0  0  0  0  0  0
   33.1809  -28.2709  -23.1170 C   0  0  0  0  0  0  0  0  0  0  0  0
   32.0063  -28.9505  -22.9078 C   0  0  0  0  0  0  0  0  0  0  0  0
   31.8010  -29.6260  -21.7318 C   0  0  0  0  0  0  0  0  0  0  0  0
   31.3136  -30.5121  -17.3019 C   0  0  0  0  0  0  0  0  0  0  0  0
   31.4727  -30.1068  -16.0962 O   0  0  0  0  0  0  0  0  0  0  0  0
   30.7164  -31.7910  -17.4457 N   0  0  0  0  0  0  0  0  0  0  0  0
   30.1952  -32.5315  -16.3096 C   0  0  1  0  0  0  0  0  0  0  0  0
   29.0494  -31.7391  -15.6693 C   0  0  0  0  0  0  0  0  0  0  0  0
   27.9451  -31.0740  -16.9471 S   0  0  0  0  0  0  0  0  0  0  0  0
   29.7480  -33.8822  -16.6963 C   0  0  0  0  0  0  0  0  0  0  0  0
   29.1147  -34.1908  -17.7177 O   0  0  0  0  0  0  0  0  0  0  0  0
   30.0693  -34.9804  -15.8077 N   0  0  0  0  0  0  0  0  0  0  0  0
   29.7357  -36.3511  -16.1552 C   0  0  1  0  0  0  0  0  0  0  0  0
   30.5294  -37.2403  -15.2164 C   0  0  0  0  0  0  0  0  0  0  0  0
   31.9577  -37.2875  -15.6007 C   0  0  0  0  0  0  0  0  0  0  0  0
   32.4756  -36.8909  -16.8077 C   0  0  0  0  0  0  0  0  0  0  0  0
   33.8080  -37.0905  -16.7650 N   0  0  0  0  0  0  0  0  0  0  0  0
   34.1347  -37.5997  -15.5671 C   0  0  0  0  0  0  0  0  0  0  0  0
   32.9865  -37.7191  -14.8520 N   0  0  0  0  0  0  0  0  0  0  0  0
   28.2983  -36.5749  -15.8378 C   0  0  0  0  0  0  0  0  0  0  0  0
   27.7451  -37.7937  -16.1609 O   0  0  0  0  0  0  0  0  0  0  0  0
   27.6012  -35.6824  -15.2906 O   0  0  0  0  0  0  0  0  0  0  0  0
  2  1  1  1
  2 10  1  0
  3  2  1  0
  4  3  1  0
  4  9  1  0
  5  4  2  0
  6  5  1  0
  6  7  2  0
  7  8  1  0
  8  9  2  0
 10 11  2  0
 12 13  1  0
 12 10  1  0
 13 16  1  0
 14 15  1  0
 13 14  1  6
 16 17  2  0
 18 16  1  0
 18 19  1  0
 19 26  1  0
 19 20  1  1
 21 25  1  0
 21 20  1  0
 22 21  2  0
 23 22  1  0
 23 24  1  0
 24 25  2  0
 26 28  2  0
 26 27  1  0
M  END
$$$$
