FCH.pdb
     RDKit          3D

 28 29  0  0  1  0  0  0  0  0999 V2000
   27.7242  -17.1666  -17.4138 N   0  0  0  0  0  0  0  0  0  0  0  0
   26.7802  -16.9948  -16.2712 C   0  0  1  0  0  0  0  0  0  0  0  0
   26.0270  -15.7660  -16.5920 C   0  0  0  0  0  0  0  0  0  0  0  0
   26.7340  -14.5010  -16.6234 C   0  0  0  0  0  0  0  0  0  0  0  0
   26.9651  -13.8588  -17.8182 C   0  0  0  0  0  0  0  0  0  0  0  0
   27.6380  -12.6543  -17.9113 C   0  0  0  0  0  0  0  0  0  0  0  0
   28.0914  -12.0840  -16.7438 C   0  0  0  0  0  0  0  0  0  0  0  0
   27.8747  -12.7028  -15.5374 C   0  0  0  0  0  0  0  0  0  0  0  0
   27.2027  -13.8975  -15.4865 C   0  0  0  0  0  0  0  0  0  0  0  0
   26.0596  -18.2491  -16.1604 C   0  0  0  0  0  0  0  0  0  0  0  0
   26.2773  -19.2410  -16.9427 O   0  0  0  0  0  0  0  0  0  0  0  0
   25.0664  -18.4561  -15.1686 N   0  0  0  0  0  0  0  0  0  0  0  0
   24.5226  -19.7729  -14.8841 C   0  0  1  0  0  0  0  0  0  0  0  0
   25.6511  -20.6975  -14.4123 C   0  0  0  0  0  0  0  0  0  0  0  0
   26.3943  -20.0633  -12.8826 S   0  0  0  0  0  0  0  0  0  0  0  0
   23.4403  -19.7128  -13.8847 C   0  0  0  0  0  0  0  0  0  0  0  0
   23.5004  -19.2049  -12.7543 O   0  0  0  0  0  0  0  0  0  0  0  0
   22.1636  -20.3014  -14.2353 N   0  0  0  0  0  0  0  0  0  0  0  0
   20.9301  -19.8437  -13.6190 C   0  0  1  0  0  0  0  0  0  0  0  0
   20.8333  -18.3557  -13.8991 C   0  0  0  0  0  0  0  0  0  0  0  0
   19.5752  -17.7892  -13.3642 C   0  0  0  0  0  0  0  0  0  0  0  0
   18.6210  -18.4805  -12.6613 C   0  0  0  0  0  0  0  0  0  0  0  0
   17.6344  -17.6150  -12.3536 N   0  0  0  0  0  0  0  0  0  0  0  0
   17.9463  -16.4055  -12.8443 C   0  0  0  0  0  0  0  0  0  0  0  0
   19.1472  -16.5199  -13.4679 N   0  0  0  0  0  0  0  0  0  0  0  0
   19.7893  -20.4845  -14.3295 C   0  0  0  0  0  0  0  0  0  0  0  0
   20.0510  -21.1563  -15.5026 O   0  0  0  0  0  0  0  0  0  0  0  0
   18.6168  -20.4195  -13.8791 O   0  0  0  0  0  0  0  0  0  0  0  0
  2  1  1  6
  2 10  1  0
  3  2  1  0
  4  3  1  0
  4  9  1  0
  5  4  2  0
  6  5  1  0
  6  7  2  0
  7  8  1  0
  8  9  2  0
 10 11  2  0
 12 13  1  0
 12 10  1  0
 13 16  1  0
 14 15  1  0
 13 14  1  1
 16 17  2  0
 18 16  1  0
 18 19  1  0
 19 26  1  0
 19 20  1  6
 21 25  1  0
 21 20  1  0
 22 21  2  0
 23 22  1  0
 23 24  1  0
 24 25  2  0
 26 28  2  0
 26 27  1  0
M  END
$$$$
