FCH.pdb
     RDKit          3D

 28 29  0  0  1  0  0  0  0  0999 V2000
   23.2479   -0.2404    6.7450 N   0  0  0  0  0  0  0  0  0  0  0  0
   23.7418   -1.0025    5.5612 C   0  0  1  0  0  0  0  0  0  0  0  0
   22.6805   -0.8435    4.5469 C   0  0  0  0  0  0  0  0  0  0  0  0
   22.9572   -1.2339    3.1787 C   0  0  0  0  0  0  0  0  0  0  0  0
   23.1117   -2.5605    2.8478 C   0  0  0  0  0  0  0  0  0  0  0  0
   23.3822   -2.9925    1.5623 C   0  0  0  0  0  0  0  0  0  0  0  0
   23.4991   -2.0372    0.5787 C   0  0  0  0  0  0  0  0  0  0  0  0
   23.3496   -0.7061    0.8805 C   0  0  0  0  0  0  0  0  0  0  0  0
   23.0818   -0.3173    2.1684 C   0  0  0  0  0  0  0  0  0  0  0  0
   25.0653   -0.4804    5.2777 C   0  0  0  0  0  0  0  0  0  0  0  0
   25.3736    0.7510    5.4556 O   0  0  0  0  0  0  0  0  0  0  0  0
   26.1071   -1.3092    4.7871 N   0  0  0  0  0  0  0  0  0  0  0  0
   27.4068   -0.7768    4.4159 C   0  0  1  0  0  0  0  0  0  0  0  0
   28.5058   -1.5894    5.1107 C   0  0  0  0  0  0  0  0  0  0  0  0
   28.3958   -1.3967    6.9122 S   0  0  0  0  0  0  0  0  0  0  0  0
   27.5994   -0.7749    2.9541 C   0  0  0  0  0  0  0  0  0  0  0  0
   27.6621   -1.7673    2.2119 O   0  0  0  0  0  0  0  0  0  0  0  0
   27.7318    0.5068    2.2918 N   0  0  0  0  0  0  0  0  0  0  0  0
   27.7499    0.6059    0.8424 C   0  0  1  0  0  0  0  0  0  0  0  0
   26.3031    0.5599    0.3881 C   0  0  0  0  0  0  0  0  0  0  0  0
   26.1998    0.6465   -1.0856 C   0  0  0  0  0  0  0  0  0  0  0  0
   27.2521    0.7841   -1.9552 C   0  0  0  0  0  0  0  0  0  0  0  0
   26.7463    0.8250   -3.2040 N   0  0  0  0  0  0  0  0  0  0  0  0
   25.4103    0.7168   -3.1374 C   0  0  0  0  0  0  0  0  0  0  0  0
   25.0788    0.6068   -1.8251 N   0  0  0  0  0  0  0  0  0  0  0  0
   28.2677    1.9526    0.4746 C   0  0  0  0  0  0  0  0  0  0  0  0
   28.5393    2.2027   -0.8520 O   0  0  0  0  0  0  0  0  0  0  0  0
   28.4550    2.8426    1.3433 O   0  0  0  0  0  0  0  0  0  0  0  0
  2  1  1  1
  2 10  1  0
  3  2  1  0
  4  3  1  0
  4  9  1  0
  5  4  2  0
  6  5  1  0
  6  7  2  0
  7  8  1  0
  8  9  2  0
 10 11  2  0
 12 13  1  0
 12 10  1  0
 13 16  1  0
 14 15  1  0
 13 14  1  1
 16 17  2  0
 18 16  1  0
 18 19  1  0
 19 26  1  0
 19 20  1  1
 21 25  1  0
 21 20  1  0
 22 21  2  0
 23 22  1  0
 23 24  1  0
 24 25  2  0
 26 28  2  0
 26 27  1  0
M  END
$$$$
