FCH.pdb
     RDKit          3D

 28 29  0  0  1  0  0  0  0  0999 V2000
   18.0542  -12.8591  -18.8247 N   0  0  0  0  0  0  0  0  0  0  0  0
   19.3323  -12.3356  -18.2602 C   0  0  1  0  0  0  0  0  0  0  0  0
   20.2630  -12.3110  -19.4062 C   0  0  0  0  0  0  0  0  0  0  0  0
   20.7203  -13.5690  -19.9625 C   0  0  0  0  0  0  0  0  0  0  0  0
   21.7338  -14.2744  -19.3555 C   0  0  0  0  0  0  0  0  0  0  0  0
   22.2155  -15.4758  -19.8423 C   0  0  0  0  0  0  0  0  0  0  0  0
   21.6428  -15.9759  -20.9894 C   0  0  0  0  0  0  0  0  0  0  0  0
   20.6297  -15.2930  -21.6158 C   0  0  0  0  0  0  0  0  0  0  0  0
   20.1793  -14.1038  -21.1017 C   0  0  0  0  0  0  0  0  0  0  0  0
   18.9940  -11.0859  -17.6057 C   0  0  0  0  0  0  0  0  0  0  0  0
   17.8814  -10.4814  -17.8061 O   0  0  0  0  0  0  0  0  0  0  0  0
   19.8794  -10.4554  -16.6938 N   0  0  0  0  0  0  0  0  0  0  0  0
   19.5559   -9.1928  -16.0521 C   0  0  1  0  0  0  0  0  0  0  0  0
   18.3006   -9.3683  -15.1895 C   0  0  0  0  0  0  0  0  0  0  0  0
   18.5091  -10.7570  -14.0394 S   0  0  0  0  0  0  0  0  0  0  0  0
   20.6811   -8.6859  -15.2452 C   0  0  0  0  0  0  0  0  0  0  0  0
   21.6532   -9.3381  -14.8338 O   0  0  0  0  0  0  0  0  0  0  0  0
   20.6740   -7.2834  -14.8819 N   0  0  0  0  0  0  0  0  0  0  0  0
   21.8790   -6.4768  -14.9738 C   0  0  1  0  0  0  0  0  0  0  0  0
   22.3262   -6.5316  -16.4226 C   0  0  0  0  0  0  0  0  0  0  0  0
   23.5557   -5.7362  -16.6356 C   0  0  0  0  0  0  0  0  0  0  0  0
   24.6733   -5.7611  -15.8402 C   0  0  0  0  0  0  0  0  0  0  0  0
   25.5679   -4.9012  -16.3669 N   0  0  0  0  0  0  0  0  0  0  0  0
   25.0401   -4.3419  -17.4668 C   0  0  0  0  0  0  0  0  0  0  0  0
   23.7961   -4.8622  -17.6274 N   0  0  0  0  0  0  0  0  0  0  0  0
   21.5131   -5.0606  -14.6958 C   0  0  0  0  0  0  0  0  0  0  0  0
   20.3700   -4.5600  -15.2776 O   0  0  0  0  0  0  0  0  0  0  0  0
   22.2216   -4.3344  -13.9523 O   0  0  0  0  0  0  0  0  0  0  0  0
  2  1  1  6
  2 10  1  0
  3  2  1  0
  4  3  1  0
  4  9  1  0
  5  4  2  0
  6  5  1  0
  6  7  2  0
  7  8  1  0
  8  9  2  0
 10 11  2  0
 12 13  1  0
 12 10  1  0
 13 16  1  0
 14 15  1  0
 13 14  1  1
 16 17  2  0
 18 16  1  0
 18 19  1  0
 19 26  1  0
 19 20  1  6
 21 25  1  0
 21 20  1  0
 22 21  2  0
 23 22  1  0
 23 24  1  0
 24 25  2  0
 26 28  2  0
 26 27  1  0
M  END
$$$$
