FCH.pdb
     RDKit          3D

 28 29  0  0  1  0  0  0  0  0999 V2000
   18.9726  -15.7463  -21.6225 N   0  0  0  0  0  0  0  0  0  0  0  0
   17.9576  -15.0075  -20.8163 C   0  0  1  0  0  0  0  0  0  0  0  0
   18.2313  -15.4031  -19.4202 C   0  0  0  0  0  0  0  0  0  0  0  0
   17.9543  -16.7664  -19.0130 C   0  0  0  0  0  0  0  0  0  0  0  0
   16.6881  -17.1350  -18.6203 C   0  0  0  0  0  0  0  0  0  0  0  0
   16.3653  -18.4176  -18.2163 C   0  0  0  0  0  0  0  0  0  0  0  0
   17.3699  -19.3581  -18.2129 C   0  0  0  0  0  0  0  0  0  0  0  0
   18.6425  -19.0180  -18.6001 C   0  0  0  0  0  0  0  0  0  0  0  0
   18.9232  -17.7345  -18.9943 C   0  0  0  0  0  0  0  0  0  0  0  0
   18.0951  -13.6121  -21.1885 C   0  0  0  0  0  0  0  0  0  0  0  0
   19.1400  -13.1538  -21.7728 O   0  0  0  0  0  0  0  0  0  0  0  0
   17.0710  -12.6646  -20.9303 N   0  0  0  0  0  0  0  0  0  0  0  0
   17.1630  -11.2867  -21.3814 C   0  0  1  0  0  0  0  0  0  0  0  0
   16.7342  -11.2037  -22.8512 C   0  0  0  0  0  0  0  0  0  0  0  0
   16.5794   -9.4715  -23.3709 S   0  0  0  0  0  0  0  0  0  0  0  0
   16.3515  -10.3829  -20.5456 C   0  0  0  0  0  0  0  0  0  0  0  0
   15.1401  -10.4871  -20.2988 O   0  0  0  0  0  0  0  0  0  0  0  0
   17.0149   -9.2472  -19.9381 N   0  0  0  0  0  0  0  0  0  0  0  0
   16.2693   -8.2599  -19.1763 C   0  0  1  0  0  0  0  0  0  0  0  0
   17.2957   -7.3852  -18.4811 C   0  0  0  0  0  0  0  0  0  0  0  0
   16.6458   -6.2904  -17.7269 C   0  0  0  0  0  0  0  0  0  0  0  0
   15.9228   -6.4346  -16.5698 C   0  0  0  0  0  0  0  0  0  0  0  0
   15.4997   -5.2098  -16.1982 N   0  0  0  0  0  0  0  0  0  0  0  0
   15.9380   -4.3077  -17.0898 C   0  0  0  0  0  0  0  0  0  0  0  0
   16.6458   -4.9820  -18.0323 N   0  0  0  0  0  0  0  0  0  0  0  0
   15.5440   -7.3824  -20.1360 C   0  0  0  0  0  0  0  0  0  0  0  0
   14.2668   -6.9832  -19.8117 O   0  0  0  0  0  0  0  0  0  0  0  0
   16.0744   -7.0113  -21.2144 O   0  0  0  0  0  0  0  0  0  0  0  0
  2  1  1  6
  2 10  1  0
  3  2  1  0
  4  3  1  0
  4  9  1  0
  5  4  2  0
  6  5  1  0
  6  7  2  0
  7  8  1  0
  8  9  2  0
 10 11  2  0
 12 13  1  0
 12 10  1  0
 13 16  1  0
 14 15  1  0
 13 14  1  6
 16 17  2  0
 18 16  1  0
 18 19  1  0
 19 26  1  0
 19 20  1  6
 21 25  1  0
 21 20  1  0
 22 21  2  0
 23 22  1  0
 23 24  1  0
 24 25  2  0
 26 28  2  0
 26 27  1  0
M  END
$$$$
