FCH.pdb
     RDKit          3D

 28 29  0  0  1  0  0  0  0  0999 V2000
   24.0582  -15.5481  -17.3414 N   0  0  0  0  0  0  0  0  0  0  0  0
   24.2669  -14.2810  -16.5817 C   0  0  1  0  0  0  0  0  0  0  0  0
   25.7043  -13.9834  -16.7416 C   0  0  0  0  0  0  0  0  0  0  0  0
   26.1642  -12.6247  -16.5332 C   0  0  0  0  0  0  0  0  0  0  0  0
   26.2379  -11.7424  -17.5865 C   0  0  0  0  0  0  0  0  0  0  0  0
   26.6736  -10.4371  -17.4502 C   0  0  0  0  0  0  0  0  0  0  0  0
   27.0475  -10.0162  -16.1944 C   0  0  0  0  0  0  0  0  0  0  0  0
   26.9839  -10.8754  -15.1253 C   0  0  0  0  0  0  0  0  0  0  0  0
   26.5460  -12.1634  -15.3013 C   0  0  0  0  0  0  0  0  0  0  0  0
   23.2945  -13.3403  -17.1052 C   0  0  0  0  0  0  0  0  0  0  0  0
   22.6506  -13.5481  -18.1939 O   0  0  0  0  0  0  0  0  0  0  0  0
   22.9922  -12.1265  -16.4356 N   0  0  0  0  0  0  0  0  0  0  0  0
   22.0041  -11.1904  -16.9434 C   0  0  1  0  0  0  0  0  0  0  0  0
   20.6319  -11.8731  -16.9852 C   0  0  0  0  0  0  0  0  0  0  0  0
   20.1149  -12.3629  -15.3156 S   0  0  0  0  0  0  0  0  0  0  0  0
   21.9533   -9.9579  -16.1357 C   0  0  0  0  0  0  0  0  0  0  0  0
   22.1332   -9.8641  -14.9116 O   0  0  0  0  0  0  0  0  0  0  0  0
   21.6651   -8.7135  -16.8194 N   0  0  0  0  0  0  0  0  0  0  0  0
   21.5149   -7.4691  -16.0847 C   0  0  1  0  0  0  0  0  0  0  0  0
   22.6193   -6.5470  -16.5662 C   0  0  0  0  0  0  0  0  0  0  0  0
   22.5277   -5.2175  -15.9228 C   0  0  0  0  0  0  0  0  0  0  0  0
   22.2820   -4.9870  -14.5928 C   0  0  0  0  0  0  0  0  0  0  0  0
   22.2764   -3.6522  -14.4047 N   0  0  0  0  0  0  0  0  0  0  0  0
   22.5113   -3.0452  -15.5783 C   0  0  0  0  0  0  0  0  0  0  0  0
   22.6658   -4.0183  -16.5127 N   0  0  0  0  0  0  0  0  0  0  0  0
   20.2286   -6.8402  -16.4928 C   0  0  0  0  0  0  0  0  0  0  0  0
   19.5100   -7.4328  -17.5070 O   0  0  0  0  0  0  0  0  0  0  0  0
   19.8022   -5.7974  -15.9334 O   0  0  0  0  0  0  0  0  0  0  0  0
  2  1  1  6
  2 10  1  0
  3  2  1  0
  4  3  1  0
  4  9  1  0
  5  4  2  0
  6  5  1  0
  6  7  2  0
  7  8  1  0
  8  9  2  0
 10 11  2  0
 12 13  1  0
 12 10  1  0
 13 16  1  0
 14 15  1  0
 13 14  1  1
 16 17  2  0
 18 16  1  0
 18 19  1  0
 19 26  1  0
 19 20  1  6
 21 25  1  0
 21 20  1  0
 22 21  2  0
 23 22  1  0
 23 24  1  0
 24 25  2  0
 26 28  2  0
 26 27  1  0
M  END
$$$$
