FCH.pdb
     RDKit          3D

 28 29  0  0  1  0  0  0  0  0999 V2000
   29.1668  -35.2396  -12.8619 N   0  0  0  0  0  0  0  0  0  0  0  0
   27.8028  -34.6404  -12.7810 C   0  0  1  0  0  0  0  0  0  0  0  0
   26.9368  -35.5855  -13.5138 C   0  0  0  0  0  0  0  0  0  0  0  0
   27.0653  -35.6780  -14.9546 C   0  0  0  0  0  0  0  0  0  0  0  0
   27.0119  -36.9003  -15.5841 C   0  0  0  0  0  0  0  0  0  0  0  0
   27.1339  -37.0515  -16.9533 C   0  0  0  0  0  0  0  0  0  0  0  0
   27.3167  -35.9152  -17.7077 C   0  0  0  0  0  0  0  0  0  0  0  0
   27.3737  -34.6824  -17.1059 C   0  0  0  0  0  0  0  0  0  0  0  0
   27.2485  -34.5738  -15.7442 C   0  0  0  0  0  0  0  0  0  0  0  0
   27.5535  -34.4116  -11.3702 C   0  0  0  0  0  0  0  0  0  0  0  0
   28.0982  -35.1186  -10.4500 O   0  0  0  0  0  0  0  0  0  0  0  0
   26.6886  -33.3805  -10.9210 N   0  0  0  0  0  0  0  0  0  0  0  0
   26.3960  -33.1777   -9.5125 C   0  0  1  0  0  0  0  0  0  0  0  0
   25.7226  -31.8131   -9.3250 C   0  0  0  0  0  0  0  0  0  0  0  0
   25.3212  -31.5376   -7.5764 S   0  0  0  0  0  0  0  0  0  0  0  0
   25.5537  -34.2585   -8.9682 C   0  0  0  0  0  0  0  0  0  0  0  0
   24.5166  -34.7170   -9.4717 O   0  0  0  0  0  0  0  0  0  0  0  0
   25.9580  -34.8645   -7.7159 N   0  0  0  0  0  0  0  0  0  0  0  0
   25.1403  -35.8786   -7.0727 C   0  0  1  0  0  0  0  0  0  0  0  0
   25.8910  -37.1899   -7.2098 C   0  0  0  0  0  0  0  0  0  0  0  0
   24.9599  -38.3389   -7.2635 C   0  0  0  0  0  0  0  0  0  0  0  0
   23.5903  -38.2612   -7.2407 C   0  0  0  0  0  0  0  0  0  0  0  0
   23.1094  -39.5188   -7.3066 N   0  0  0  0  0  0  0  0  0  0  0  0
   24.1393  -40.3769   -7.3698 C   0  0  0  0  0  0  0  0  0  0  0  0
   25.2805  -39.6412   -7.3427 N   0  0  0  0  0  0  0  0  0  0  0  0
   25.0808  -35.5738   -5.6166 C   0  0  0  0  0  0  0  0  0  0  0  0
   24.4156  -36.4569   -4.7959 O   0  0  0  0  0  0  0  0  0  0  0  0
   25.6196  -34.5418   -5.1404 O   0  0  0  0  0  0  0  0  0  0  0  0
  2  1  1  1
  2 10  1  0
  3  2  1  0
  4  3  1  0
  4  9  1  0
  5  4  2  0
  6  5  1  0
  6  7  2  0
  7  8  1  0
  8  9  2  0
 10 11  2  0
 12 13  1  0
 12 10  1  0
 13 16  1  0
 14 15  1  0
 13 14  1  6
 16 17  2  0
 18 16  1  0
 18 19  1  0
 19 26  1  0
 19 20  1  1
 21 25  1  0
 21 20  1  0
 22 21  2  0
 23 22  1  0
 23 24  1  0
 24 25  2  0
 26 28  2  0
 26 27  1  0
M  END
$$$$
