FNT.pdb
     RDKit          3D

 27 27  0  0  1  0  0  0  0  0999 V2000
   28.0000  -21.2082   -9.2656 N   0  0  0  0  0  0  0  0  0  0  0  0
   26.6958  -20.6278   -9.0583 C   0  0  1  0  0  0  0  0  0  0  0  0
   26.7331  -19.3934   -8.2186 C   0  0  0  0  0  0  0  0  0  0  0  0
   27.3865  -19.7133   -6.9283 C   0  0  0  0  0  0  0  0  0  0  0  0
   26.8371  -20.5935   -6.0257 C   0  0  0  0  0  0  0  0  0  0  0  0
   27.4764  -20.8638   -4.8367 C   0  0  0  0  0  0  0  0  0  0  0  0
   28.6649  -20.2712   -4.5203 C   0  0  0  0  0  0  0  0  0  0  0  0
   29.2248  -19.3865   -5.4190 C   0  0  0  0  0  0  0  0  0  0  0  0
   28.5814  -19.1146   -6.6155 C   0  0  0  0  0  0  0  0  0  0  0  0
   26.0047  -20.4804  -10.3424 C   0  0  0  0  0  0  0  0  0  0  0  0
   26.3839  -19.6013  -11.1880 O   0  0  0  0  0  0  0  0  0  0  0  0
   26.4862  -23.2891  -13.1321 N   0  0  0  0  0  0  0  0  0  0  0  0
   25.6644  -22.1650  -13.3845 C   0  0  0  0  0  0  0  0  0  0  0  0
   26.1727  -21.2149  -14.0468 O   0  0  0  0  0  0  0  0  0  0  0  0
   24.2876  -22.0830  -12.9112 C   0  0  0  0  0  0  0  0  0  0  0  0
   24.0809  -20.9715  -11.8944 C   0  0  2  0  0  0  0  0  0  0  0  0
   24.8917  -21.2807  -10.7340 N   0  0  0  0  0  0  0  0  0  0  0  0
   22.6605  -20.7813  -11.5490 C   0  0  0  0  0  0  0  0  0  0  0  0
   22.3148  -20.6106  -10.3331 O   0  0  0  0  0  0  0  0  0  0  0  0
   21.3997  -18.2311  -12.6303 C   0  0  0  0  0  0  0  0  0  0  0  0
   20.2947  -18.9142  -11.8272 C   0  0  1  0  0  0  0  0  0  0  0  0
   19.0900  -18.3607  -12.3160 O   0  0  0  0  0  0  0  0  0  0  0  0
   20.2434  -20.3823  -12.1993 C   0  0  2  0  0  0  0  0  0  0  0  0
   21.6118  -20.7728  -12.4977 N   0  0  0  0  0  0  0  0  0  0  0  0
   19.3759  -20.5162  -13.4025 C   0  0  0  0  0  0  0  0  0  0  0  0
   19.9231  -20.6732  -14.5242 O   0  0  0  0  0  0  0  0  0  0  0  0
   18.0015  -20.4683  -13.2835 O   0  0  0  0  0  0  0  0  0  0  0  0
  2  1  1  6
  3  2  1  0
  4  5  2  0
  4  3  1  0
  6  5  1  0
  7  6  2  0
  8  7  1  0
  8  9  2  0
  9  4  1  0
 10  2  1  0
 11 10  2  0
 13 12  1  0
 14 13  2  0
 15 13  1  0
 16 15  1  6
 16 17  1  0
 17 10  1  0
 18 19  2  0
 18 16  1  0
 21 20  1  6
 21 23  1  0
 22 21  1  0
 23 24  1  6
 24 18  1  0
 25 23  1  0
 26 25  2  0
 27 25  1  0
M  END
$$$$
