FNT.pdb
     RDKit          3D

 27 27  0  0  1  0  0  0  0  0999 V2000
   28.3341  -21.7028   -9.1218 N   0  0  0  0  0  0  0  0  0  0  0  0
   27.1263  -20.9204   -9.0235 C   0  0  1  0  0  0  0  0  0  0  0  0
   27.3795  -19.5033   -8.6264 C   0  0  0  0  0  0  0  0  0  0  0  0
   27.5494  -19.4426   -7.1562 C   0  0  0  0  0  0  0  0  0  0  0  0
   26.8927  -20.3006   -6.3054 C   0  0  0  0  0  0  0  0  0  0  0  0
   27.0779  -20.2113   -4.9440 C   0  0  0  0  0  0  0  0  0  0  0  0
   27.9117  -19.2760   -4.4021 C   0  0  0  0  0  0  0  0  0  0  0  0
   28.5755  -18.4102   -5.2469 C   0  0  0  0  0  0  0  0  0  0  0  0
   28.3892  -18.5003   -6.6167 C   0  0  0  0  0  0  0  0  0  0  0  0
   26.3227  -21.0871  -10.2380 C   0  0  0  0  0  0  0  0  0  0  0  0
   26.8047  -21.6824  -11.2602 O   0  0  0  0  0  0  0  0  0  0  0  0
   22.0184  -22.3778  -13.1337 N   0  0  0  0  0  0  0  0  0  0  0  0
   21.8853  -21.2276  -12.3200 C   0  0  0  0  0  0  0  0  0  0  0  0
   20.9676  -20.4106  -12.6202 O   0  0  0  0  0  0  0  0  0  0  0  0
   22.7573  -20.9738  -11.1792 C   0  0  0  0  0  0  0  0  0  0  0  0
   24.2117  -20.7867  -11.5813 C   0  0  2  0  0  0  0  0  0  0  0  0
   24.9846  -20.6127  -10.3680 N   0  0  0  0  0  0  0  0  0  0  0  0
   24.3956  -19.6700  -12.5259 C   0  0  0  0  0  0  0  0  0  0  0  0
   23.9050  -18.5223  -12.2633 O   0  0  0  0  0  0  0  0  0  0  0  0
   27.5116  -18.2118  -13.7163 C   0  0  0  0  0  0  0  0  0  0  0  0
   26.7627  -18.6167  -14.9843 C   0  0  1  0  0  0  0  0  0  0  0  0
   27.1551  -19.9514  -15.2318 O   0  0  0  0  0  0  0  0  0  0  0  0
   25.2783  -18.6819  -14.6866 C   0  0  2  0  0  0  0  0  0  0  0  0
   25.1011  -19.7771  -13.7468 N   0  0  0  0  0  0  0  0  0  0  0  0
   24.5697  -18.9580  -15.9672 C   0  0  0  0  0  0  0  0  0  0  0  0
   23.9385  -20.0397  -16.0845 O   0  0  0  0  0  0  0  0  0  0  0  0
   24.6081  -18.0428  -17.0000 O   0  0  0  0  0  0  0  0  0  0  0  0
  2  1  1  6
  3  2  1  0
  4  5  2  0
  4  3  1  0
  6  5  1  0
  7  6  2  0
  8  7  1  0
  8  9  2  0
  9  4  1  0
 10  2  1  0
 11 10  2  0
 13 12  1  0
 14 13  2  0
 15 13  1  0
 16 15  1  1
 16 17  1  0
 17 10  1  0
 18 19  2  0
 18 16  1  0
 21 20  1  1
 21 23  1  0
 22 21  1  0
 23 24  1  1
 24 18  1  0
 25 23  1  0
 26 25  2  0
 27 25  1  0
M  END
$$$$
