FNT.pdb
     RDKit          3D

 27 27  0  0  1  0  0  0  0  0999 V2000
   25.5081  -21.1124   -7.1024 N   0  0  0  0  0  0  0  0  0  0  0  0
   26.3429  -20.4582   -8.0799 C   0  0  1  0  0  0  0  0  0  0  0  0
   27.7937  -20.4966   -7.7280 C   0  0  0  0  0  0  0  0  0  0  0  0
   27.9703  -19.9344   -6.3690 C   0  0  0  0  0  0  0  0  0  0  0  0
   28.3384  -20.7112   -5.2955 C   0  0  0  0  0  0  0  0  0  0  0  0
   28.4920  -20.1497   -4.0477 C   0  0  0  0  0  0  0  0  0  0  0  0
   28.2849  -18.8164   -3.8402 C   0  0  0  0  0  0  0  0  0  0  0  0
   27.9154  -18.0280   -4.9106 C   0  0  0  0  0  0  0  0  0  0  0  0
   27.7610  -18.5931   -6.1661 C   0  0  0  0  0  0  0  0  0  0  0  0
   26.0200  -20.9502   -9.4223 C   0  0  0  0  0  0  0  0  0  0  0  0
   25.6942  -22.1715   -9.6065 O   0  0  0  0  0  0  0  0  0  0  0  0
   23.6620  -22.8123  -13.4558 N   0  0  0  0  0  0  0  0  0  0  0  0
   23.5212  -21.5004  -12.9441 C   0  0  0  0  0  0  0  0  0  0  0  0
   22.8282  -20.6875  -13.6212 O   0  0  0  0  0  0  0  0  0  0  0  0
   24.1395  -21.0810  -11.6919 C   0  0  0  0  0  0  0  0  0  0  0  0
   25.5682  -20.5943  -11.8760 C   0  0  2  0  0  0  0  0  0  0  0  0
   26.0441  -20.1303  -10.5884 N   0  0  0  0  0  0  0  0  0  0  0  0
   25.6805  -19.5591  -12.9194 C   0  0  0  0  0  0  0  0  0  0  0  0
   25.0030  -18.4823  -12.8281 O   0  0  0  0  0  0  0  0  0  0  0  0
   28.9961  -18.2883  -14.1960 C   0  0  0  0  0  0  0  0  0  0  0  0
   28.1583  -18.6402  -15.4235 C   0  0  1  0  0  0  0  0  0  0  0  0
   28.4589  -19.9934  -15.6974 O   0  0  0  0  0  0  0  0  0  0  0  0
   26.6907  -18.6219  -15.0467 C   0  0  2  0  0  0  0  0  0  0  0  0
   26.5133  -19.6719  -14.0568 N   0  0  0  0  0  0  0  0  0  0  0  0
   25.9020  -18.9097  -16.2769 C   0  0  0  0  0  0  0  0  0  0  0  0
   25.9034  -18.0606  -17.2049 O   0  0  0  0  0  0  0  0  0  0  0  0
   25.1866  -20.0848  -16.3909 O   0  0  0  0  0  0  0  0  0  0  0  0
  2  1  1  1
  3  2  1  0
  4  5  2  0
  4  3  1  0
  6  5  1  0
  7  6  2  0
  8  7  1  0
  8  9  2  0
  9  4  1  0
 10  2  1  0
 11 10  2  0
 13 12  1  0
 14 13  2  0
 15 13  1  0
 16 15  1  1
 16 17  1  0
 17 10  1  0
 18 19  2  0
 18 16  1  0
 21 20  1  1
 21 23  1  0
 22 21  1  0
 23 24  1  1
 24 18  1  0
 25 23  1  0
 26 25  2  0
 27 25  1  0
M  END
$$$$
