FNT.pdb
     RDKit          3D

 27 27  0  0  1  0  0  0  0  0999 V2000
   26.7681  -11.4930  -17.5791 N   0  0  0  0  0  0  0  0  0  0  0  0
   28.1812  -11.7068  -17.7743 C   0  0  1  0  0  0  0  0  0  0  0  0
   28.4782  -12.7010  -18.8483 C   0  0  0  0  0  0  0  0  0  0  0  0
   27.9103  -12.2088  -20.1247 C   0  0  0  0  0  0  0  0  0  0  0  0
   28.5859  -11.3293  -20.9380 C   0  0  0  0  0  0  0  0  0  0  0  0
   28.0227  -10.8955  -22.1171 C   0  0  0  0  0  0  0  0  0  0  0  0
   26.7870  -11.3213  -22.5111 C   0  0  0  0  0  0  0  0  0  0  0  0
   26.1006  -12.2039  -21.7024 C   0  0  0  0  0  0  0  0  0  0  0  0
   26.6674  -12.6404  -20.5161 C   0  0  0  0  0  0  0  0  0  0  0  0
   28.8662  -10.4191  -17.9184 C   0  0  0  0  0  0  0  0  0  0  0  0
   28.2125   -9.3652  -18.2242 O   0  0  0  0  0  0  0  0  0  0  0  0
   32.3092   -6.5242  -17.8709 N   0  0  0  0  0  0  0  0  0  0  0  0
   32.1770   -7.2477  -16.6618 C   0  0  0  0  0  0  0  0  0  0  0  0
   32.6500   -6.7164  -15.6160 O   0  0  0  0  0  0  0  0  0  0  0  0
   31.5274   -8.5517  -16.6000 C   0  0  0  0  0  0  0  0  0  0  0  0
   30.9318   -8.9754  -17.9334 C   0  0  2  0  0  0  0  0  0  0  0  0
   30.2697  -10.2489  -17.7345 N   0  0  0  0  0  0  0  0  0  0  0  0
   31.9395   -9.0314  -19.0079 C   0  0  0  0  0  0  0  0  0  0  0  0
   32.8635   -9.9100  -18.9737 O   0  0  0  0  0  0  0  0  0  0  0  0
   31.0396   -8.4692  -22.8487 C   0  0  0  0  0  0  0  0  0  0  0  0
   32.2223   -7.6071  -22.4121 C   0  0  1  0  0  0  0  0  0  0  0  0
   31.6451   -6.4178  -21.9131 O   0  0  0  0  0  0  0  0  0  0  0  0
   32.8993   -8.2563  -21.2220 C   0  0  2  0  0  0  0  0  0  0  0  0
   31.9613   -8.1529  -20.1159 N   0  0  0  0  0  0  0  0  0  0  0  0
   34.1465   -7.4938  -20.9368 C   0  0  0  0  0  0  0  0  0  0  0  0
   34.1844   -6.7631  -19.9137 O   0  0  0  0  0  0  0  0  0  0  0  0
   35.2347   -7.5907  -21.7807 O   0  0  0  0  0  0  0  0  0  0  0  0
  2  1  1  6
  3  2  1  0
  4  5  2  0
  4  3  1  0
  6  5  1  0
  7  6  2  0
  8  7  1  0
  8  9  2  0
  9  4  1  0
 10  2  1  0
 11 10  2  0
 13 12  1  0
 14 13  2  0
 15 13  1  0
 16 15  1  1
 16 17  1  0
 17 10  1  0
 18 19  2  0
 18 16  1  0
 21 20  1  1
 21 23  1  0
 22 21  1  0
 23 24  1  1
 24 18  1  0
 25 23  1  0
 26 25  2  0
 27 25  1  0
M  END
$$$$
