FNT.pdb
     RDKit          3D

 27 27  0  0  1  0  0  0  0  0999 V2000
   26.1011  -22.6211  -12.9876 N   0  0  0  0  0  0  0  0  0  0  0  0
   25.4591  -21.4346  -12.4771 C   0  0  1  0  0  0  0  0  0  0  0  0
   26.3773  -20.2591  -12.4050 C   0  0  0  0  0  0  0  0  0  0  0  0
   27.4655  -20.5614  -11.4466 C   0  0  0  0  0  0  0  0  0  0  0  0
   27.2491  -20.6377  -10.0906 C   0  0  0  0  0  0  0  0  0  0  0  0
   28.2880  -20.9211   -9.2328 C   0  0  0  0  0  0  0  0  0  0  0  0
   29.5538  -21.1329   -9.6984 C   0  0  0  0  0  0  0  0  0  0  0  0
   29.7818  -21.0588  -11.0572 C   0  0  0  0  0  0  0  0  0  0  0  0
   28.7362  -20.7737  -11.9202 C   0  0  0  0  0  0  0  0  0  0  0  0
   24.2054  -21.1955  -13.1977 C   0  0  0  0  0  0  0  0  0  0  0  0
   24.0510  -21.6192  -14.3928 O   0  0  0  0  0  0  0  0  0  0  0  0
   20.6746  -22.6965  -12.4833 N   0  0  0  0  0  0  0  0  0  0  0  0
   20.2207  -21.4820  -11.9162 C   0  0  0  0  0  0  0  0  0  0  0  0
   19.3332  -21.5597  -11.0184 O   0  0  0  0  0  0  0  0  0  0  0  0
   20.7393  -20.1844  -12.3331 C   0  0  0  0  0  0  0  0  0  0  0  0
   21.8553  -20.2998  -13.3594 C   0  0  2  0  0  0  0  0  0  0  0  0
   23.0972  -20.4939  -12.6386 N   0  0  0  0  0  0  0  0  0  0  0  0
   21.9104  -19.1375  -14.2645 C   0  0  0  0  0  0  0  0  0  0  0  0
   21.9278  -17.9548  -13.7871 O   0  0  0  0  0  0  0  0  0  0  0  0
   24.3864  -17.7721  -16.3483 C   0  0  0  0  0  0  0  0  0  0  0  0
   23.2593  -18.1292  -17.3151 C   0  0  1  0  0  0  0  0  0  0  0  0
   23.4715  -19.4877  -17.6405 O   0  0  0  0  0  0  0  0  0  0  0  0
   21.9379  -18.0941  -16.5742 C   0  0  2  0  0  0  0  0  0  0  0  0
   21.9472  -19.2364  -15.6747 N   0  0  0  0  0  0  0  0  0  0  0  0
   20.8484  -18.2176  -17.5821 C   0  0  0  0  0  0  0  0  0  0  0  0
   20.1376  -19.2554  -17.5758 O   0  0  0  0  0  0  0  0  0  0  0  0
   20.6275  -17.2116  -18.5013 O   0  0  0  0  0  0  0  0  0  0  0  0
  2  1  1  6
  3  2  1  0
  4  5  2  0
  4  3  1  0
  6  5  1  0
  7  6  2  0
  8  7  1  0
  8  9  2  0
  9  4  1  0
 10  2  1  0
 11 10  2  0
 13 12  1  0
 14 13  2  0
 15 13  1  0
 16 15  1  1
 16 17  1  0
 17 10  1  0
 18 19  2  0
 18 16  1  0
 21 20  1  1
 21 23  1  0
 22 21  1  0
 23 24  1  1
 24 18  1  0
 25 23  1  0
 26 25  2  0
 27 25  1  0
M  END
$$$$
