FNT.pdb
     RDKit          3D

 27 27  0  0  1  0  0  0  0  0999 V2000
   30.0355  -25.7601  -16.8006 N   0  0  0  0  0  0  0  0  0  0  0  0
   28.8171  -26.3776  -17.2641 C   0  0  1  0  0  0  0  0  0  0  0  0
   28.9437  -27.8545  -17.4456 C   0  0  0  0  0  0  0  0  0  0  0  0
   29.9156  -28.1205  -18.5313 C   0  0  0  0  0  0  0  0  0  0  0  0
   29.5742  -28.0298  -19.8604 C   0  0  0  0  0  0  0  0  0  0  0  0
   30.5076  -28.2853  -20.8398 C   0  0  0  0  0  0  0  0  0  0  0  0
   31.7892  -28.6338  -20.5237 C   0  0  0  0  0  0  0  0  0  0  0  0
   32.1421  -28.7275  -19.1931 C   0  0  0  0  0  0  0  0  0  0  0  0
   31.2029  -28.4702  -18.2078 C   0  0  0  0  0  0  0  0  0  0  0  0
   27.6917  -25.9526  -16.4268 C   0  0  0  0  0  0  0  0  0  0  0  0
   27.8897  -25.5211  -15.2410 O   0  0  0  0  0  0  0  0  0  0  0  0
   23.8871  -22.1664  -15.2502 N   0  0  0  0  0  0  0  0  0  0  0  0
   24.4427  -23.4299  -14.9376 C   0  0  0  0  0  0  0  0  0  0  0  0
   23.9844  -24.0271  -13.9212 O   0  0  0  0  0  0  0  0  0  0  0  0
   25.4992  -24.0373  -15.7384 C   0  0  0  0  0  0  0  0  0  0  0  0
   25.2429  -25.5069  -16.0322 C   0  0  2  0  0  0  0  0  0  0  0  0
   26.3329  -25.9871  -16.8572 N   0  0  0  0  0  0  0  0  0  0  0  0
   23.9271  -25.7353  -16.6563 C   0  0  0  0  0  0  0  0  0  0  0  0
   23.5918  -25.0827  -17.6997 O   0  0  0  0  0  0  0  0  0  0  0  0
   21.1493  -28.5652  -15.0300 C   0  0  0  0  0  0  0  0  0  0  0  0
   21.5434  -28.5243  -16.5050 C   0  0  1  0  0  0  0  0  0  0  0  0
   20.3800  -28.9127  -17.2067 O   0  0  0  0  0  0  0  0  0  0  0  0
   21.7985  -27.0872  -16.9126 C   0  0  2  0  0  0  0  0  0  0  0  0
   22.9718  -26.6573  -16.1693 N   0  0  0  0  0  0  0  0  0  0  0  0
   20.6019  -26.2871  -16.5303 C   0  0  0  0  0  0  0  0  0  0  0  0
   20.6701  -25.5519  -15.5119 O   0  0  0  0  0  0  0  0  0  0  0  0
   19.4454  -26.3546  -17.2809 O   0  0  0  0  0  0  0  0  0  0  0  0
  2  1  1  1
  3  2  1  0
  4  5  2  0
  4  3  1  0
  6  5  1  0
  7  6  2  0
  8  7  1  0
  8  9  2  0
  9  4  1  0
 10  2  1  0
 11 10  2  0
 13 12  1  0
 14 13  2  0
 15 13  1  0
 16 15  1  6
 16 17  1  0
 17 10  1  0
 18 19  2  0
 18 16  1  0
 21 20  1  1
 21 23  1  0
 22 21  1  0
 23 24  1  1
 24 18  1  0
 25 23  1  0
 26 25  2  0
 27 25  1  0
M  END
$$$$
