FNT.pdb
     RDKit          3D

 27 27  0  0  1  0  0  0  0  0999 V2000
   28.2165  -21.0794   -9.1004 N   0  0  0  0  0  0  0  0  0  0  0  0
   26.9172  -20.4898   -8.8885 C   0  0  1  0  0  0  0  0  0  0  0  0
   26.9757  -19.2065   -8.1271 C   0  0  0  0  0  0  0  0  0  0  0  0
   27.6270  -19.4559   -6.8203 C   0  0  0  0  0  0  0  0  0  0  0  0
   27.1008  -20.3231   -5.8916 C   0  0  0  0  0  0  0  0  0  0  0  0
   27.7373  -20.5272   -4.6879 C   0  0  0  0  0  0  0  0  0  0  0  0
   28.8999  -19.8802   -4.3824 C   0  0  0  0  0  0  0  0  0  0  0  0
   29.4364  -19.0080   -5.3072 C   0  0  0  0  0  0  0  0  0  0  0  0
   28.7960  -18.8028   -6.5184 C   0  0  0  0  0  0  0  0  0  0  0  0
   26.1861  -20.4223  -10.1571 C   0  0  0  0  0  0  0  0  0  0  0  0
   26.1935  -19.3532  -10.8559 O   0  0  0  0  0  0  0  0  0  0  0  0
   24.0614  -21.6656  -14.6993 N   0  0  0  0  0  0  0  0  0  0  0  0
   24.6090  -22.8078  -14.0681 C   0  0  0  0  0  0  0  0  0  0  0  0
   24.7095  -23.8596  -14.7634 O   0  0  0  0  0  0  0  0  0  0  0  0
   25.0455  -22.7964  -12.6769 C   0  0  0  0  0  0  0  0  0  0  0  0
   24.8104  -21.4562  -11.9981 C   0  0  2  0  0  0  0  0  0  0  0  0
   25.4345  -21.5096  -10.6915 N   0  0  0  0  0  0  0  0  0  0  0  0
   23.3802  -21.1076  -11.9204 C   0  0  0  0  0  0  0  0  0  0  0  0
   22.6881  -21.4657  -10.9106 O   0  0  0  0  0  0  0  0  0  0  0  0
   21.4989  -17.6727  -12.9573 C   0  0  0  0  0  0  0  0  0  0  0  0
   21.0299  -18.8957  -13.7428 C   0  0  1  0  0  0  0  0  0  0  0  0
   21.9293  -19.0022  -14.8275 O   0  0  0  0  0  0  0  0  0  0  0  0
   21.2560  -20.1403  -12.9085 C   0  0  2  0  0  0  0  0  0  0  0  0
   22.6902  -20.3788  -12.9168 N   0  0  0  0  0  0  0  0  0  0  0  0
   20.5248  -21.2628  -13.5593 C   0  0  0  0  0  0  0  0  0  0  0  0
   21.1893  -22.1453  -14.1607 O   0  0  0  0  0  0  0  0  0  0  0  0
   19.1471  -21.3283  -13.5006 O   0  0  0  0  0  0  0  0  0  0  0  0
  2  1  1  6
  3  2  1  0
  4  5  2  0
  4  3  1  0
  6  5  1  0
  7  6  2  0
  8  7  1  0
  8  9  2  0
  9  4  1  0
 10  2  1  0
 11 10  2  0
 13 12  1  0
 14 13  2  0
 15 13  1  0
 16 15  1  1
 16 17  1  0
 17 10  1  0
 18 19  2  0
 18 16  1  0
 21 20  1  1
 21 23  1  0
 22 21  1  0
 23 24  1  6
 24 18  1  0
 25 23  1  0
 26 25  2  0
 27 25  1  0
M  END
$$$$
