FNT.pdb
     RDKit          3D

 27 27  0  0  1  0  0  0  0  0999 V2000
   25.4854  -25.8398  -19.8442 N   0  0  0  0  0  0  0  0  0  0  0  0
   26.3965  -25.6101  -18.7498 C   0  0  1  0  0  0  0  0  0  0  0  0
   25.7134  -25.5574  -17.4229 C   0  0  0  0  0  0  0  0  0  0  0  0
   24.7036  -24.4740  -17.4484 C   0  0  0  0  0  0  0  0  0  0  0  0
   23.3526  -24.7289  -17.4168 C   0  0  0  0  0  0  0  0  0  0  0  0
   22.4460  -23.6929  -17.4423 C   0  0  0  0  0  0  0  0  0  0  0  0
   22.8574  -22.3925  -17.4996 C   0  0  0  0  0  0  0  0  0  0  0  0
   24.2108  -22.1257  -17.5317 C   0  0  0  0  0  0  0  0  0  0  0  0
   25.1229  -23.1682  -17.5059 C   0  0  0  0  0  0  0  0  0  0  0  0
   27.5196  -26.5485  -18.8292 C   0  0  0  0  0  0  0  0  0  0  0  0
   27.3586  -27.7154  -19.3230 O   0  0  0  0  0  0  0  0  0  0  0  0
   33.2773  -27.2341  -19.5610 N   0  0  0  0  0  0  0  0  0  0  0  0
   32.4122  -27.2438  -18.4411 C   0  0  0  0  0  0  0  0  0  0  0  0
   32.7042  -28.0273  -17.4922 O   0  0  0  0  0  0  0  0  0  0  0  0
   31.2286  -26.3956  -18.3622 C   0  0  0  0  0  0  0  0  0  0  0  0
   29.9327  -27.1829  -18.4751 C   0  0  2  0  0  0  0  0  0  0  0  0
   28.8360  -26.2413  -18.3759 N   0  0  0  0  0  0  0  0  0  0  0  0
   29.8381  -28.2587  -17.4717 C   0  0  0  0  0  0  0  0  0  0  0  0
   29.4493  -27.9953  -16.2858 O   0  0  0  0  0  0  0  0  0  0  0  0
   27.8195  -29.4646  -16.2852 C   0  0  0  0  0  0  0  0  0  0  0  0
   28.3969  -30.8189  -16.6917 C   0  0  1  0  0  0  0  0  0  0  0  0
   27.9351  -31.0341  -18.0097 O   0  0  0  0  0  0  0  0  0  0  0  0
   29.9035  -30.7037  -16.8067 C   0  0  2  0  0  0  0  0  0  0  0  0
   30.1570  -29.6116  -17.7325 N   0  0  0  0  0  0  0  0  0  0  0  0
   30.4178  -31.9923  -17.3481 C   0  0  0  0  0  0  0  0  0  0  0  0
   30.7133  -32.0567  -18.5691 O   0  0  0  0  0  0  0  0  0  0  0  0
   30.5652  -33.0893  -16.5232 O   0  0  0  0  0  0  0  0  0  0  0  0
  2  1  1  6
  3  2  1  0
  4  5  2  0
  4  3  1  0
  6  5  1  0
  7  6  2  0
  8  7  1  0
  8  9  2  0
  9  4  1  0
 10  2  1  0
 11 10  2  0
 13 12  1  0
 14 13  2  0
 15 13  1  0
 16 15  1  1
 16 17  1  0
 17 10  1  0
 18 19  2  0
 18 16  1  0
 21 20  1  6
 21 23  1  0
 22 21  1  0
 23 24  1  6
 24 18  1  0
 25 23  1  0
 26 25  2  0
 27 25  1  0
M  END
$$$$
