FNT.pdb
     RDKit          3D

 27 27  0  0  1  0  0  0  0  0999 V2000
   25.0965  -10.2607  -17.0510 N   0  0  0  0  0  0  0  0  0  0  0  0
   24.2339   -9.2842  -17.6699 C   0  0  1  0  0  0  0  0  0  0  0  0
   22.7832   -9.5811  -17.4766 C   0  0  0  0  0  0  0  0  0  0  0  0
   22.4455  -10.8166  -18.2205 C   0  0  0  0  0  0  0  0  0  0  0  0
   22.3181  -10.8374  -19.5897 C   0  0  0  0  0  0  0  0  0  0  0  0
   22.0028  -12.0071  -20.2438 C   0  0  0  0  0  0  0  0  0  0  0  0
   21.8083  -13.1719  -19.5587 C   0  0  0  0  0  0  0  0  0  0  0  0
   21.9337  -13.1620  -18.1847 C   0  0  0  0  0  0  0  0  0  0  0  0
   22.2512  -11.9849  -17.5267 C   0  0  0  0  0  0  0  0  0  0  0  0
   24.6455   -7.9335  -17.2768 C   0  0  0  0  0  0  0  0  0  0  0  0
   25.6957   -7.7526  -16.5727 O   0  0  0  0  0  0  0  0  0  0  0  0
   27.7180   -3.8606  -16.9859 N   0  0  0  0  0  0  0  0  0  0  0  0
   26.4277   -4.0089  -17.5481 C   0  0  0  0  0  0  0  0  0  0  0  0
   25.7903   -2.9505  -17.8185 O   0  0  0  0  0  0  0  0  0  0  0  0
   25.8377   -5.3157  -17.8132 C   0  0  0  0  0  0  0  0  0  0  0  0
   24.4047   -5.4252  -17.3168 C   0  0  2  0  0  0  0  0  0  0  0  0
   23.9284   -6.7554  -17.6382 N   0  0  0  0  0  0  0  0  0  0  0  0
   23.5350   -4.3715  -17.8702 C   0  0  0  0  0  0  0  0  0  0  0  0
   23.4705   -4.1916  -19.1314 O   0  0  0  0  0  0  0  0  0  0  0  0
   19.9134   -3.9348  -16.9623 C   0  0  0  0  0  0  0  0  0  0  0  0
   20.5769   -2.5717  -16.7769 C   0  0  1  0  0  0  0  0  0  0  0  0
   21.0256   -2.5613  -15.4370 O   0  0  0  0  0  0  0  0  0  0  0  0
   21.8327   -2.5099  -17.6226 C   0  0  2  0  0  0  0  0  0  0  0  0
   22.7360   -3.5122  -17.0808 N   0  0  0  0  0  0  0  0  0  0  0  0
   22.4074   -1.1430  -17.4837 C   0  0  0  0  0  0  0  0  0  0  0  0
   23.5136   -1.0119  -16.8994 O   0  0  0  0  0  0  0  0  0  0  0  0
   21.7363   -0.0468  -17.9873 O   0  0  0  0  0  0  0  0  0  0  0  0
  2  1  1  1
  3  2  1  0
  4  5  2  0
  4  3  1  0
  6  5  1  0
  7  6  2  0
  8  7  1  0
  8  9  2  0
  9  4  1  0
 10  2  1  0
 11 10  2  0
 13 12  1  0
 14 13  2  0
 15 13  1  0
 16 15  1  6
 16 17  1  0
 17 10  1  0
 18 19  2  0
 18 16  1  0
 21 20  1  6
 21 23  1  0
 22 21  1  0
 23 24  1  1
 24 18  1  0
 25 23  1  0
 26 25  2  0
 27 25  1  0
M  END
$$$$
