FNT.pdb
     RDKit          3D

 27 27  0  0  1  0  0  0  0  0999 V2000
   25.3057  -10.9965  -17.1732 N   0  0  0  0  0  0  0  0  0  0  0  0
   24.4939  -10.0897  -17.9475 C   0  0  1  0  0  0  0  0  0  0  0  0
   23.2898  -10.7449  -18.5399 C   0  0  0  0  0  0  0  0  0  0  0  0
   23.7339  -11.8212  -19.4555 C   0  0  0  0  0  0  0  0  0  0  0  0
   23.6752  -13.1507  -19.1085 C   0  0  0  0  0  0  0  0  0  0  0  0
   24.0982  -14.1211  -19.9888 C   0  0  0  0  0  0  0  0  0  0  0  0
   24.5849  -13.7958  -21.2221 C   0  0  0  0  0  0  0  0  0  0  0  0
   24.6480  -12.4648  -21.5802 C   0  0  0  0  0  0  0  0  0  0  0  0
   24.2222  -11.4884  -20.6944 C   0  0  0  0  0  0  0  0  0  0  0  0
   24.2180   -8.8781  -17.1701 C   0  0  0  0  0  0  0  0  0  0  0  0
   23.8575   -8.9580  -15.9473 O   0  0  0  0  0  0  0  0  0  0  0  0
   23.7989   -3.8771  -15.6449 N   0  0  0  0  0  0  0  0  0  0  0  0
   24.7123   -3.9997  -16.7189 C   0  0  0  0  0  0  0  0  0  0  0  0
   25.4236   -2.9898  -16.9906 O   0  0  0  0  0  0  0  0  0  0  0  0
   24.8453   -5.2280  -17.4935 C   0  0  0  0  0  0  0  0  0  0  0  0
   24.0345   -6.3775  -16.9164 C   0  0  2  0  0  0  0  0  0  0  0  0
   24.3269   -7.5597  -17.7016 N   0  0  0  0  0  0  0  0  0  0  0  0
   22.5913   -6.0809  -16.8692 C   0  0  0  0  0  0  0  0  0  0  0  0
   21.9687   -5.7599  -17.9352 O   0  0  0  0  0  0  0  0  0  0  0  0
   19.8825   -8.2473  -15.9068 C   0  0  0  0  0  0  0  0  0  0  0  0
   19.7372   -7.0378  -14.9855 C   0  0  1  0  0  0  0  0  0  0  0  0
   20.5363   -7.3365  -13.8591 O   0  0  0  0  0  0  0  0  0  0  0  0
   20.3908   -5.8352  -15.6356 C   0  0  2  0  0  0  0  0  0  0  0  0
   21.8143   -6.1268  -15.6885 N   0  0  0  0  0  0  0  0  0  0  0  0
   20.1207   -4.6503  -14.7746 C   0  0  0  0  0  0  0  0  0  0  0  0
   21.0898   -4.0899  -14.2011 O   0  0  0  0  0  0  0  0  0  0  0  0
   18.8324   -4.1814  -14.6131 O   0  0  0  0  0  0  0  0  0  0  0  0
  2  1  1  1
  3  2  1  0
  4  5  2  0
  4  3  1  0
  6  5  1  0
  7  6  2  0
  8  7  1  0
  8  9  2  0
  9  4  1  0
 10  2  1  0
 11 10  2  0
 13 12  1  0
 14 13  2  0
 15 13  1  0
 16 15  1  6
 16 17  1  0
 17 10  1  0
 18 19  2  0
 18 16  1  0
 21 20  1  6
 21 23  1  0
 22 21  1  0
 23 24  1  1
 24 18  1  0
 25 23  1  0
 26 25  2  0
 27 25  1  0
M  END
$$$$
