FNT.pdb
     RDKit          3D

 27 27  0  0  1  0  0  0  0  0999 V2000
   28.0268  -20.3368  -16.5832 N   0  0  0  0  0  0  0  0  0  0  0  0
   27.2898  -19.4790  -15.6879 C   0  0  1  0  0  0  0  0  0  0  0  0
   26.4466  -18.4752  -16.4033 C   0  0  0  0  0  0  0  0  0  0  0  0
   27.2920  -17.3150  -16.7683 C   0  0  0  0  0  0  0  0  0  0  0  0
   27.8778  -17.1944  -18.0068 C   0  0  0  0  0  0  0  0  0  0  0  0
   28.6571  -16.0997  -18.3067 C   0  0  0  0  0  0  0  0  0  0  0  0
   28.8704  -15.1095  -17.3914 C   0  0  0  0  0  0  0  0  0  0  0  0
   28.2873  -15.2207  -16.1459 C   0  0  0  0  0  0  0  0  0  0  0  0
   27.5030  -16.3222  -15.8442 C   0  0  0  0  0  0  0  0  0  0  0  0
   26.5776  -20.2876  -14.6943 C   0  0  0  0  0  0  0  0  0  0  0  0
   25.9847  -21.3658  -15.0372 O   0  0  0  0  0  0  0  0  0  0  0  0
   25.4106  -21.9553   -9.2492 N   0  0  0  0  0  0  0  0  0  0  0  0
   25.0954  -20.7827   -9.9762 C   0  0  0  0  0  0  0  0  0  0  0  0
   23.9925  -20.2208   -9.7162 O   0  0  0  0  0  0  0  0  0  0  0  0
   25.9883  -20.2275  -10.9866 C   0  0  0  0  0  0  0  0  0  0  0  0
   25.5770  -20.5992  -12.4024 C   0  0  2  0  0  0  0  0  0  0  0  0
   26.4942  -19.9443  -13.3131 N   0  0  0  0  0  0  0  0  0  0  0  0
   24.1706  -20.2617  -12.6873 C   0  0  0  0  0  0  0  0  0  0  0  0
   23.8650  -19.0985  -13.1124 O   0  0  0  0  0  0  0  0  0  0  0  0
   22.1751  -22.1470  -15.0165 C   0  0  0  0  0  0  0  0  0  0  0  0
   21.7476  -20.7981  -14.4418 C   0  0  1  0  0  0  0  0  0  0  0  0
   20.3971  -20.6458  -14.8286 O   0  0  0  0  0  0  0  0  0  0  0  0
   21.7259  -20.8855  -12.9292 C   0  0  2  0  0  0  0  0  0  0  0  0
   23.0932  -21.1622  -12.5195 N   0  0  0  0  0  0  0  0  0  0  0  0
   20.8189  -22.0049  -12.5516 C   0  0  0  0  0  0  0  0  0  0  0  0
   21.3262  -23.0658  -12.1050 O   0  0  0  0  0  0  0  0  0  0  0  0
   19.4516  -21.8757  -12.6909 O   0  0  0  0  0  0  0  0  0  0  0  0
  2  1  1  6
  3  2  1  0
  4  5  2  0
  4  3  1  0
  6  5  1  0
  7  6  2  0
  8  7  1  0
  8  9  2  0
  9  4  1  0
 10  2  1  0
 11 10  2  0
 13 12  1  0
 14 13  2  0
 15 13  1  0
 16 15  1  1
 16 17  1  0
 17 10  1  0
 18 19  2  0
 18 16  1  0
 21 20  1  6
 21 23  1  0
 22 21  1  0
 23 24  1  6
 24 18  1  0
 25 23  1  0
 26 25  2  0
 27 25  1  0
M  END
$$$$
