FNT.pdb
     RDKit          3D

 27 27  0  0  1  0  0  0  0  0999 V2000
   19.7956   -9.7612  -15.0962 N   0  0  0  0  0  0  0  0  0  0  0  0
   20.2415   -8.9751  -13.9720 C   0  0  1  0  0  0  0  0  0  0  0  0
   21.5454   -8.2904  -14.2192 C   0  0  0  0  0  0  0  0  0  0  0  0
   22.5667   -9.3122  -14.5463 C   0  0  0  0  0  0  0  0  0  0  0  0
   23.0266   -9.5063  -15.8277 C   0  0  0  0  0  0  0  0  0  0  0  0
   23.9770  -10.4672  -16.0902 C   0  0  0  0  0  0  0  0  0  0  0  0
   24.4871  -11.2500  -15.0947 C   0  0  0  0  0  0  0  0  0  0  0  0
   24.0325  -11.0634  -13.8054 C   0  0  0  0  0  0  0  0  0  0  0  0
   23.0762  -10.0964  -13.5415 C   0  0  0  0  0  0  0  0  0  0  0  0
   19.1600   -8.0973  -13.5157 C   0  0  0  0  0  0  0  0  0  0  0  0
   18.2510   -7.7103  -14.3253 O   0  0  0  0  0  0  0  0  0  0  0  0
   15.9305   -5.2682  -10.4978 N   0  0  0  0  0  0  0  0  0  0  0  0
   16.8475   -5.9683   -9.6782 C   0  0  0  0  0  0  0  0  0  0  0  0
   16.7225   -5.8348   -8.4267 O   0  0  0  0  0  0  0  0  0  0  0  0
   17.8997   -6.8135  -10.2304 C   0  0  0  0  0  0  0  0  0  0  0  0
   17.9617   -6.7584  -11.7487 C   0  0  2  0  0  0  0  0  0  0  0  0
   19.0430   -7.6229  -12.1763 N   0  0  0  0  0  0  0  0  0  0  0  0
   18.1119   -5.3827  -12.2566 C   0  0  0  0  0  0  0  0  0  0  0  0
   19.2076   -4.7528  -12.0840 O   0  0  0  0  0  0  0  0  0  0  0  0
   17.7984   -4.0049  -15.7493 C   0  0  0  0  0  0  0  0  0  0  0  0
   16.7464   -3.3323  -14.8698 C   0  0  1  0  0  0  0  0  0  0  0  0
   15.6404   -4.2116  -14.8829 O   0  0  0  0  0  0  0  0  0  0  0  0
   17.2325   -3.3179  -13.4346 C   0  0  2  0  0  0  0  0  0  0  0  0
   17.0966   -4.6810  -12.9470 N   0  0  0  0  0  0  0  0  0  0  0  0
   16.3581   -2.3875  -12.6679 C   0  0  0  0  0  0  0  0  0  0  0  0
   15.5514   -2.8709  -11.8325 O   0  0  0  0  0  0  0  0  0  0  0  0
   16.4354   -1.0246  -12.8735 O   0  0  0  0  0  0  0  0  0  0  0  0
  2  1  1  6
  3  2  1  0
  4  5  2  0
  4  3  1  0
  6  5  1  0
  7  6  2  0
  8  7  1  0
  8  9  2  0
  9  4  1  0
 10  2  1  0
 11 10  2  0
 13 12  1  0
 14 13  2  0
 15 13  1  0
 16 15  1  1
 16 17  1  0
 17 10  1  0
 18 19  2  0
 18 16  1  0
 21 20  1  6
 21 23  1  0
 22 21  1  0
 23 24  1  1
 24 18  1  0
 25 23  1  0
 26 25  2  0
 27 25  1  0
M  END
$$$$
