FNT.pdb
     RDKit          3D

 27 27  0  0  1  0  0  0  0  0999 V2000
   29.4287  -19.4704  -12.4611 N   0  0  0  0  0  0  0  0  0  0  0  0
   28.4528  -20.5282  -12.3643 C   0  0  1  0  0  0  0  0  0  0  0  0
   28.3184  -21.0735  -10.9806 C   0  0  0  0  0  0  0  0  0  0  0  0
   29.6582  -21.4759  -10.4938 C   0  0  0  0  0  0  0  0  0  0  0  0
   30.1634  -21.0406   -9.2910 C   0  0  0  0  0  0  0  0  0  0  0  0
   31.4141  -21.4379   -8.8744 C   0  0  0  0  0  0  0  0  0  0  0  0
   32.1842  -22.2685   -9.6364 C   0  0  0  0  0  0  0  0  0  0  0  0
   31.6868  -22.7111  -10.8450 C   0  0  0  0  0  0  0  0  0  0  0  0
   30.4282  -22.3114  -11.2640 C   0  0  0  0  0  0  0  0  0  0  0  0
   27.1947  -20.1058  -12.9864 C   0  0  0  0  0  0  0  0  0  0  0  0
   26.7962  -18.8960  -12.8915 O   0  0  0  0  0  0  0  0  0  0  0  0
   22.8816  -19.7716  -15.8573 N   0  0  0  0  0  0  0  0  0  0  0  0
   23.9451  -20.4450  -16.5040 C   0  0  0  0  0  0  0  0  0  0  0  0
   23.8205  -20.6660  -17.7431 O   0  0  0  0  0  0  0  0  0  0  0  0
   25.1432  -20.8754  -15.7928 C   0  0  0  0  0  0  0  0  0  0  0  0
   25.0954  -20.5476  -14.3088 C   0  0  2  0  0  0  0  0  0  0  0  0
   26.3459  -20.9844  -13.7215 N   0  0  0  0  0  0  0  0  0  0  0  0
   23.9252  -21.1423  -13.6381 C   0  0  0  0  0  0  0  0  0  0  0  0
   23.8409  -22.4075  -13.5004 O   0  0  0  0  0  0  0  0  0  0  0  0
   20.8828  -18.6844  -11.9197 C   0  0  0  0  0  0  0  0  0  0  0  0
   21.3504  -20.0057  -11.3131 C   0  0  1  0  0  0  0  0  0  0  0  0
   20.2031  -20.5524  -10.6955 O   0  0  0  0  0  0  0  0  0  0  0  0
   21.7045  -20.9682  -12.4286 C   0  0  2  0  0  0  0  0  0  0  0  0
   22.8480  -20.3896  -13.1154 N   0  0  0  0  0  0  0  0  0  0  0  0
   20.5284  -21.0631  -13.3374 C   0  0  0  0  0  0  0  0  0  0  0  0
   20.5910  -20.5047  -14.4628 O   0  0  0  0  0  0  0  0  0  0  0  0
   19.3964  -21.7505  -12.9480 O   0  0  0  0  0  0  0  0  0  0  0  0
  2  1  1  1
  3  2  1  0
  4  5  2  0
  4  3  1  0
  6  5  1  0
  7  6  2  0
  8  7  1  0
  8  9  2  0
  9  4  1  0
 10  2  1  0
 11 10  2  0
 13 12  1  0
 14 13  2  0
 15 13  1  0
 16 15  1  6
 16 17  1  0
 17 10  1  0
 18 19  2  0
 18 16  1  0
 21 20  1  6
 21 23  1  0
 22 21  1  0
 23 24  1  6
 24 18  1  0
 25 23  1  0
 26 25  2  0
 27 25  1  0
M  END
$$$$
