FNT.pdb
     RDKit          3D

 27 27  0  0  1  0  0  0  0  0999 V2000
   23.6905  -12.9970  -17.9484 N   0  0  0  0  0  0  0  0  0  0  0  0
   23.7273  -12.2822  -16.6961 C   0  0  1  0  0  0  0  0  0  0  0  0
   25.1162  -12.0233  -16.2124 C   0  0  0  0  0  0  0  0  0  0  0  0
   25.7873  -13.3215  -15.9707 C   0  0  0  0  0  0  0  0  0  0  0  0
   26.7102  -13.8448  -16.8458 C   0  0  0  0  0  0  0  0  0  0  0  0
   27.3117  -15.0553  -16.5845 C   0  0  0  0  0  0  0  0  0  0  0  0
   27.0126  -15.7669  -15.4585 C   0  0  0  0  0  0  0  0  0  0  0  0
   26.0880  -15.2508  -14.5738 C   0  0  0  0  0  0  0  0  0  0  0  0
   25.4829  -14.0326  -14.8368 C   0  0  0  0  0  0  0  0  0  0  0  0
   22.8688  -11.0966  -16.7719 C   0  0  0  0  0  0  0  0  0  0  0  0
   22.7438  -10.4532  -17.8682 O   0  0  0  0  0  0  0  0  0  0  0  0
   18.0637   -8.4091  -14.2484 N   0  0  0  0  0  0  0  0  0  0  0  0
   18.9291   -8.7354  -15.3195 C   0  0  0  0  0  0  0  0  0  0  0  0
   18.8315   -8.0421  -16.3729 O   0  0  0  0  0  0  0  0  0  0  0  0
   19.8999   -9.8202  -15.2354 C   0  0  0  0  0  0  0  0  0  0  0  0
   21.2678   -9.4276  -15.7708 C   0  0  2  0  0  0  0  0  0  0  0  0
   22.1312  -10.5864  -15.6637 N   0  0  0  0  0  0  0  0  0  0  0  0
   21.8254   -8.2498  -15.0818 C   0  0  0  0  0  0  0  0  0  0  0  0
   22.3929   -8.3812  -13.9471 O   0  0  0  0  0  0  0  0  0  0  0  0
   24.4974   -6.0730  -16.0858 C   0  0  0  0  0  0  0  0  0  0  0  0
   23.3031   -5.1396  -15.8985 C   0  0  1  0  0  0  0  0  0  0  0  0
   22.6414   -5.1354  -17.1470 O   0  0  0  0  0  0  0  0  0  0  0  0
   22.3259   -5.7699  -14.9269 C   0  0  2  0  0  0  0  0  0  0  0  0
   21.7782   -6.9354  -15.6017 N   0  0  0  0  0  0  0  0  0  0  0  0
   21.2604   -4.7694  -14.6407 C   0  0  0  0  0  0  0  0  0  0  0  0
   20.1018   -4.9813  -15.0822 O   0  0  0  0  0  0  0  0  0  0  0  0
   21.5437   -3.6355  -13.9061 O   0  0  0  0  0  0  0  0  0  0  0  0
  2  1  1  6
  3  2  1  0
  4  5  2  0
  4  3  1  0
  6  5  1  0
  7  6  2  0
  8  7  1  0
  8  9  2  0
  9  4  1  0
 10  2  1  0
 11 10  2  0
 13 12  1  0
 14 13  2  0
 15 13  1  0
 16 15  1  1
 16 17  1  0
 17 10  1  0
 18 19  2  0
 18 16  1  0
 21 20  1  6
 21 23  1  0
 22 21  1  0
 23 24  1  6
 24 18  1  0
 25 23  1  0
 26 25  2  0
 27 25  1  0
M  END
$$$$
