FNT.pdb
     RDKit          3D

 27 27  0  0  1  0  0  0  0  0999 V2000
   24.5362   -9.2751  -18.8719 N   0  0  0  0  0  0  0  0  0  0  0  0
   23.7620   -8.5973  -17.8610 C   0  0  1  0  0  0  0  0  0  0  0  0
   24.6049   -8.0028  -16.7812 C   0  0  0  0  0  0  0  0  0  0  0  0
   25.6911   -8.9525  -16.4460 C   0  0  0  0  0  0  0  0  0  0  0  0
   26.9321   -8.8857  -17.0349 C   0  0  0  0  0  0  0  0  0  0  0  0
   27.9152   -9.7880  -16.6956 C   0  0  0  0  0  0  0  0  0  0  0  0
   27.6896  -10.7681  -15.7725 C   0  0  0  0  0  0  0  0  0  0  0  0
   26.4479  -10.8439  -15.1756 C   0  0  0  0  0  0  0  0  0  0  0  0
   25.4588   -9.9359  -15.5170 C   0  0  0  0  0  0  0  0  0  0  0  0
   22.8209   -7.6676  -18.4922 C   0  0  0  0  0  0  0  0  0  0  0  0
   22.5886   -7.7288  -19.7467 O   0  0  0  0  0  0  0  0  0  0  0  0
   20.2530   -7.7784  -20.4201 N   0  0  0  0  0  0  0  0  0  0  0  0
   19.6940   -8.2527  -19.2096 C   0  0  0  0  0  0  0  0  0  0  0  0
   18.9890   -9.3011  -19.2706 O   0  0  0  0  0  0  0  0  0  0  0  0
   19.9076   -7.5783  -17.9345 C   0  0  0  0  0  0  0  0  0  0  0  0
   20.7384   -6.3122  -18.0713 C   0  0  2  0  0  0  0  0  0  0  0  0
   22.1151   -6.6556  -17.7777 N   0  0  0  0  0  0  0  0  0  0  0  0
   20.2414   -5.2176  -17.2182 C   0  0  0  0  0  0  0  0  0  0  0  0
   19.0589   -4.7672  -17.3790 O   0  0  0  0  0  0  0  0  0  0  0  0
   20.3488   -4.9567  -13.4103 C   0  0  0  0  0  0  0  0  0  0  0  0
   21.0511   -3.7301  -13.9892 C   0  0  1  0  0  0  0  0  0  0  0  0
   22.4014   -4.1179  -14.1409 O   0  0  0  0  0  0  0  0  0  0  0  0
   20.5429   -3.4826  -15.3952 C   0  0  2  0  0  0  0  0  0  0  0  0
   21.0033   -4.6053  -16.1961 N   0  0  0  0  0  0  0  0  0  0  0  0
   21.1386   -2.2048  -15.8754 C   0  0  0  0  0  0  0  0  0  0  0  0
   21.9550   -2.2435  -16.8315 O   0  0  0  0  0  0  0  0  0  0  0  0
   20.7984   -1.0065  -15.2803 O   0  0  0  0  0  0  0  0  0  0  0  0
  2  1  1  6
  3  2  1  0
  4  5  2  0
  4  3  1  0
  6  5  1  0
  7  6  2  0
  8  7  1  0
  8  9  2  0
  9  4  1  0
 10  2  1  0
 11 10  2  0
 13 12  1  0
 14 13  2  0
 15 13  1  0
 16 15  1  1
 16 17  1  0
 17 10  1  0
 18 19  2  0
 18 16  1  0
 21 20  1  6
 21 23  1  0
 22 21  1  0
 23 24  1  6
 24 18  1  0
 25 23  1  0
 26 25  2  0
 27 25  1  0
M  END
$$$$
