FNT.pdb
     RDKit          3D

 27 27  0  0  1  0  0  0  0  0999 V2000
   25.5678  -20.6469   -8.0344 N   0  0  0  0  0  0  0  0  0  0  0  0
   26.8816  -20.4415   -8.5933 C   0  0  1  0  0  0  0  0  0  0  0  0
   27.9635  -21.0918   -7.7954 C   0  0  0  0  0  0  0  0  0  0  0  0
   28.1252  -20.3550   -6.5207 C   0  0  0  0  0  0  0  0  0  0  0  0
   27.7912  -19.0270   -6.3930 C   0  0  0  0  0  0  0  0  0  0  0  0
   27.9568  -18.3781   -5.1900 C   0  0  0  0  0  0  0  0  0  0  0  0
   28.4538  -19.0277   -4.0969 C   0  0  0  0  0  0  0  0  0  0  0  0
   28.7920  -20.3603   -4.2143 C   0  0  0  0  0  0  0  0  0  0  0  0
   28.6252  -21.0131   -5.4248 C   0  0  0  0  0  0  0  0  0  0  0  0
   26.8767  -20.7812  -10.0191 C   0  0  0  0  0  0  0  0  0  0  0  0
   27.9728  -20.9789  -10.6444 O   0  0  0  0  0  0  0  0  0  0  0  0
   25.7544  -21.9950  -14.8949 N   0  0  0  0  0  0  0  0  0  0  0  0
   25.0532  -22.7696  -13.9403 C   0  0  0  0  0  0  0  0  0  0  0  0
   24.5272  -23.8466  -14.3441 O   0  0  0  0  0  0  0  0  0  0  0  0
   24.9292  -22.3636  -12.5453 C   0  0  0  0  0  0  0  0  0  0  0  0
   25.7095  -21.0971  -12.2302 C   0  0  2  0  0  0  0  0  0  0  0  0
   25.6866  -20.9125  -10.7932 N   0  0  0  0  0  0  0  0  0  0  0  0
   25.1907  -19.9216  -12.9528 C   0  0  0  0  0  0  0  0  0  0  0  0
   24.1624  -19.3052  -12.5175 O   0  0  0  0  0  0  0  0  0  0  0  0
   27.3258  -16.9809  -14.0222 C   0  0  0  0  0  0  0  0  0  0  0  0
   26.5621  -17.4657  -15.2528 C   0  0  1  0  0  0  0  0  0  0  0  0
   27.3894  -18.4537  -15.8324 O   0  0  0  0  0  0  0  0  0  0  0  0
   25.3124  -18.1977  -14.8070 C   0  0  2  0  0  0  0  0  0  0  0  0
   25.7674  -19.4049  -14.1362 N   0  0  0  0  0  0  0  0  0  0  0  0
   24.5214  -18.5298  -16.0244 C   0  0  0  0  0  0  0  0  0  0  0  0
   24.4254  -19.7357  -16.3692 O   0  0  0  0  0  0  0  0  0  0  0  0
   23.9088  -17.5316  -16.7552 O   0  0  0  0  0  0  0  0  0  0  0  0
  2  1  1  1
  3  2  1  0
  4  5  2  0
  4  3  1  0
  6  5  1  0
  7  6  2  0
  8  7  1  0
  8  9  2  0
  9  4  1  0
 10  2  1  0
 11 10  2  0
 13 12  1  0
 14 13  2  0
 15 13  1  0
 16 15  1  1
 16 17  1  0
 17 10  1  0
 18 19  2  0
 18 16  1  0
 21 20  1  1
 21 23  1  0
 22 21  1  0
 23 24  1  6
 24 18  1  0
 25 23  1  0
 26 25  2  0
 27 25  1  0
M  END
$$$$
