FNT.pdb
     RDKit          3D

 27 27  0  0  1  0  0  0  0  0999 V2000
   27.8916  -22.4328  -10.6076 N   0  0  0  0  0  0  0  0  0  0  0  0
   26.9707  -21.3752  -10.2696 C   0  0  1  0  0  0  0  0  0  0  0  0
   27.6410  -20.0528  -10.0901 C   0  0  0  0  0  0  0  0  0  0  0  0
   27.9355  -19.8583   -8.6515 C   0  0  0  0  0  0  0  0  0  0  0  0
   27.0338  -19.2795   -7.7894 C   0  0  0  0  0  0  0  0  0  0  0  0
   27.3463  -19.1165   -6.4585 C   0  0  0  0  0  0  0  0  0  0  0  0
   28.5507  -19.5208   -5.9587 C   0  0  0  0  0  0  0  0  0  0  0  0
   29.4626  -20.1028   -6.8151 C   0  0  0  0  0  0  0  0  0  0  0  0
   29.1479  -20.2669   -8.1543 C   0  0  0  0  0  0  0  0  0  0  0  0
   25.8446  -21.3743  -11.2079 C   0  0  0  0  0  0  0  0  0  0  0  0
   25.9672  -21.8866  -12.3715 O   0  0  0  0  0  0  0  0  0  0  0  0
   22.2615  -21.4657   -8.6014 N   0  0  0  0  0  0  0  0  0  0  0  0
   21.9776  -21.7083   -9.9664 C   0  0  0  0  0  0  0  0  0  0  0  0
   21.5391  -22.8550  -10.2704 O   0  0  0  0  0  0  0  0  0  0  0  0
   22.1743  -20.6948  -10.9962 C   0  0  0  0  0  0  0  0  0  0  0  0
   23.4396  -20.9204  -11.8087 C   0  0  2  0  0  0  0  0  0  0  0  0
   24.5670  -20.8193  -10.9041 N   0  0  0  0  0  0  0  0  0  0  0  0
   23.5514  -19.9904  -12.9469 C   0  0  0  0  0  0  0  0  0  0  0  0
   23.3459  -18.7431  -12.7768 O   0  0  0  0  0  0  0  0  0  0  0  0
   26.3951  -19.3009  -15.1241 C   0  0  0  0  0  0  0  0  0  0  0  0
   25.2752  -19.7312  -16.0692 C   0  0  1  0  0  0  0  0  0  0  0  0
   25.3954  -21.1358  -16.1651 O   0  0  0  0  0  0  0  0  0  0  0  0
   23.9376  -19.4861  -15.4007 C   0  0  2  0  0  0  0  0  0  0  0  0
   23.8816  -20.3895  -14.2628 N   0  0  0  0  0  0  0  0  0  0  0  0
   22.8702  -19.8060  -16.3888 C   0  0  0  0  0  0  0  0  0  0  0  0
   22.1221  -20.7928  -16.1681 O   0  0  0  0  0  0  0  0  0  0  0  0
   22.7097  -19.0327  -17.5210 O   0  0  0  0  0  0  0  0  0  0  0  0
  2  1  1  6
  3  2  1  0
  4  5  2  0
  4  3  1  0
  6  5  1  0
  7  6  2  0
  8  7  1  0
  8  9  2  0
  9  4  1  0
 10  2  1  0
 11 10  2  0
 13 12  1  0
 14 13  2  0
 15 13  1  0
 16 15  1  1
 16 17  1  0
 17 10  1  0
 18 19  2  0
 18 16  1  0
 21 20  1  1
 21 23  1  0
 22 21  1  0
 23 24  1  1
 24 18  1  0
 25 23  1  0
 26 25  2  0
 27 25  1  0
M  END
$$$$
