PHH.pdb
     RDKit          3D

 28 30  0  0  1  0  0  0  0  0999 V2000
    7.8079  -14.8907   18.4943 N   0  0  0  0  0  0  0  0  0  0  0  0
    7.4034  -14.3850   17.1857 C   0  0  0  0  0  0  0  0  0  0  0  0
    7.3923  -12.8925   17.2796 C   0  0  0  0  0  0  0  0  0  0  0  0
    7.8729  -12.6043   18.7052 C   0  0  0  0  0  0  0  0  0  0  0  0
    8.6874  -13.8677   18.9723 C   0  0  1  0  0  0  0  0  0  0  0  0
    9.0089  -14.0114   20.4152 C   0  0  0  0  0  0  0  0  0  0  0  0
    9.8395  -13.2685   20.9564 O   0  0  0  0  0  0  0  0  0  0  0  0
    8.3385  -15.0231   21.1568 N   0  0  0  0  0  0  0  0  0  0  0  0
    8.5952  -15.2504   22.5648 C   0  0  1  0  0  0  0  0  0  0  0  0
    7.3319  -15.7071   23.2335 C   0  0  0  0  0  0  0  0  0  0  0  0
    6.4757  -16.5391   22.3757 C   0  0  0  0  0  0  0  0  0  0  0  0
    6.7683  -16.7935   21.0447 C   0  0  0  0  0  0  0  0  0  0  0  0
    5.8039  -17.5794   20.5346 N   0  0  0  0  0  0  0  0  0  0  0  0
    4.9120  -17.8253   21.5123 C   0  0  0  0  0  0  0  0  0  0  0  0
    5.3331  -17.1918   22.6103 N   0  0  0  0  0  0  0  0  0  0  0  0
    9.7047  -16.2165   22.7485 C   0  0  0  0  0  0  0  0  0  0  0  0
    9.7447  -17.2214   21.9988 O   0  0  0  0  0  0  0  0  0  0  0  0
   10.7037  -16.0333   23.7348 N   0  0  0  0  0  0  0  0  0  0  0  0
   11.7231  -17.1021   23.8449 C   0  0  1  0  0  0  0  0  0  0  0  0
   13.0912  -16.4919   23.7025 C   0  0  0  0  0  0  0  0  0  0  0  0
   13.3610  -16.1270   22.3026 C   0  0  0  0  0  0  0  0  0  0  0  0
   12.4934  -16.3428   21.2331 C   0  0  0  0  0  0  0  0  0  0  0  0
   13.0602  -15.8881   20.1065 N   0  0  0  0  0  0  0  0  0  0  0  0
   14.2622  -15.3911   20.4357 C   0  0  0  0  0  0  0  0  0  0  0  0
   14.4341  -15.5390   21.7569 N   0  0  0  0  0  0  0  0  0  0  0  0
   11.5726  -17.6247   25.2144 C   0  0  0  0  0  0  0  0  0  0  0  0
   10.5787  -17.1136   26.0414 O   0  0  0  0  0  0  0  0  0  0  0  0
   12.3070  -18.5192   25.6752 O   0  0  0  0  0  0  0  0  0  0  0  0
  1  5  1  0
  2  3  1  0
  2  1  1  0
  3  4  1  0
  4  5  1  0
  5  6  1  1
  6  7  2  0
  8  9  1  0
  8  6  1  0
  9 16  1  0
  9 10  1  6
 11 10  1  0
 11 15  1  0
 12 13  1  0
 12 11  2  0
 13 14  1  0
 14 15  2  0
 16 18  1  0
 16 17  2  0
 18 19  1  0
 19 26  1  0
 19 20  1  1
 21 20  1  0
 21 22  2  0
 23 22  1  0
 24 25  2  0
 24 23  1  0
 25 21  1  0
 26 28  2  0
 26 27  1  0
M  END
$$$$
