PHH.pdb
     RDKit          3D

 28 30  0  0  1  0  0  0  0  0999 V2000
    8.8853  -14.8585   19.1237 N   0  0  0  0  0  0  0  0  0  0  0  0
    8.9314  -14.0563   17.9046 C   0  0  0  0  0  0  0  0  0  0  0  0
    7.8411  -13.0383   18.0114 C   0  0  0  0  0  0  0  0  0  0  0  0
    7.2277  -13.2911   19.3919 C   0  0  0  0  0  0  0  0  0  0  0  0
    8.4223  -13.9226   20.1026 C   0  0  1  0  0  0  0  0  0  0  0  0
    8.0158  -14.5725   21.3748 C   0  0  0  0  0  0  0  0  0  0  0  0
    7.4997  -13.9121   22.2870 O   0  0  0  0  0  0  0  0  0  0  0  0
    8.2350  -15.9706   21.5166 N   0  0  0  0  0  0  0  0  0  0  0  0
    7.7496  -16.7191   22.6587 C   0  0  1  0  0  0  0  0  0  0  0  0
    7.8338  -18.1878   22.3632 C   0  0  0  0  0  0  0  0  0  0  0  0
    7.3884  -19.0415   23.4740 C   0  0  0  0  0  0  0  0  0  0  0  0
    8.2546  -19.8524   24.1909 C   0  0  0  0  0  0  0  0  0  0  0  0
    7.5525  -20.5043   25.1342 N   0  0  0  0  0  0  0  0  0  0  0  0
    6.2659  -20.1231   25.0281 C   0  0  0  0  0  0  0  0  0  0  0  0
    6.1877  -19.2443   24.0252 N   0  0  0  0  0  0  0  0  0  0  0  0
    8.4978  -16.3526   23.8849 C   0  0  0  0  0  0  0  0  0  0  0  0
    9.7273  -16.1260   23.7827 O   0  0  0  0  0  0  0  0  0  0  0  0
    7.8663  -16.2542   25.1483 N   0  0  0  0  0  0  0  0  0  0  0  0
    8.7059  -15.7682   26.2674 C   0  0  1  0  0  0  0  0  0  0  0  0
    7.8280  -15.0772   27.2753 C   0  0  0  0  0  0  0  0  0  0  0  0
    7.3296  -13.7968   26.7482 C   0  0  0  0  0  0  0  0  0  0  0  0
    7.8578  -13.1177   25.6514 C   0  0  0  0  0  0  0  0  0  0  0  0
    7.1607  -11.9898   25.4533 N   0  0  0  0  0  0  0  0  0  0  0  0
    6.2066  -11.9385   26.3952 C   0  0  0  0  0  0  0  0  0  0  0  0
    6.3159  -13.0280   27.1684 N   0  0  0  0  0  0  0  0  0  0  0  0
    9.2636  -16.9889   26.8759 C   0  0  0  0  0  0  0  0  0  0  0  0
   10.2256  -16.8833   27.8742 O   0  0  0  0  0  0  0  0  0  0  0  0
    8.9079  -18.1322   26.5322 O   0  0  0  0  0  0  0  0  0  0  0  0
  1  5  1  0
  2  3  1  0
  2  1  1  0
  3  4  1  0
  4  5  1  0
  5  6  1  1
  6  7  2  0
  8  9  1  0
  8  6  1  0
  9 16  1  0
  9 10  1  6
 11 10  1  0
 11 15  1  0
 12 13  1  0
 12 11  2  0
 13 14  1  0
 14 15  2  0
 16 18  1  0
 16 17  2  0
 18 19  1  0
 19 26  1  0
 19 20  1  1
 21 20  1  0
 21 22  2  0
 23 22  1  0
 24 25  2  0
 24 23  1  0
 25 21  1  0
 26 28  2  0
 26 27  1  0
M  END
$$$$
