PHH.pdb
     RDKit          3D

 28 30  0  0  1  0  0  0  0  0999 V2000
    9.0984  -14.6289   17.9882 N   0  0  0  0  0  0  0  0  0  0  0  0
    8.9445  -13.7426   16.8382 C   0  0  0  0  0  0  0  0  0  0  0  0
    7.6362  -13.0374   17.0037 C   0  0  0  0  0  0  0  0  0  0  0  0
    7.1045  -13.5465   18.3469 C   0  0  0  0  0  0  0  0  0  0  0  0
    8.4182  -13.9201   19.0290 C   0  0  1  0  0  0  0  0  0  0  0  0
    8.1853  -14.7527   20.2368 C   0  0  0  0  0  0  0  0  0  0  0  0
    7.4923  -14.3311   21.1730 O   0  0  0  0  0  0  0  0  0  0  0  0
    8.7783  -16.0444   20.2887 N   0  0  0  0  0  0  0  0  0  0  0  0
    8.5112  -16.9770   21.3652 C   0  0  1  0  0  0  0  0  0  0  0  0
    8.7859  -18.3744   20.8926 C   0  0  0  0  0  0  0  0  0  0  0  0
   10.0912  -18.5307   20.2347 C   0  0  0  0  0  0  0  0  0  0  0  0
   10.7537  -17.4779   19.6228 C   0  0  0  0  0  0  0  0  0  0  0  0
   11.9127  -17.9345   19.1167 N   0  0  0  0  0  0  0  0  0  0  0  0
   11.9951  -19.2488   19.3954 C   0  0  0  0  0  0  0  0  0  0  0  0
   10.8916  -19.5880   20.0673 N   0  0  0  0  0  0  0  0  0  0  0  0
    9.3013  -16.6299   22.5707 C   0  0  0  0  0  0  0  0  0  0  0  0
   10.3573  -15.9708   22.4167 O   0  0  0  0  0  0  0  0  0  0  0  0
    8.8974  -17.0194   23.8706 N   0  0  0  0  0  0  0  0  0  0  0  0
    9.6677  -16.4461   24.9982 C   0  0  1  0  0  0  0  0  0  0  0  0
    8.7219  -16.1158   26.1209 C   0  0  0  0  0  0  0  0  0  0  0  0
    7.9474  -14.9022   25.8161 C   0  0  0  0  0  0  0  0  0  0  0  0
    8.1439  -14.0791   24.7084 C   0  0  0  0  0  0  0  0  0  0  0  0
    7.2639  -13.0685   24.7480 N   0  0  0  0  0  0  0  0  0  0  0  0
    6.5171  -13.2313   25.8506 C   0  0  0  0  0  0  0  0  0  0  0  0
    6.9349  -14.3353   26.4859 N   0  0  0  0  0  0  0  0  0  0  0  0
   10.5637  -17.5327   25.4315 C   0  0  0  0  0  0  0  0  0  0  0  0
   11.4657  -17.3105   26.4661 O   0  0  0  0  0  0  0  0  0  0  0  0
   10.5516  -18.6618   24.9055 O   0  0  0  0  0  0  0  0  0  0  0  0
  1  5  1  0
  2  3  1  0
  2  1  1  0
  3  4  1  0
  4  5  1  0
  5  6  1  1
  6  7  2  0
  8  9  1  0
  8  6  1  0
  9 16  1  0
  9 10  1  6
 11 10  1  0
 11 15  1  0
 12 13  1  0
 12 11  2  0
 13 14  1  0
 14 15  2  0
 16 18  1  0
 16 17  2  0
 18 19  1  0
 19 26  1  0
 19 20  1  1
 21 20  1  0
 21 22  2  0
 23 22  1  0
 24 25  2  0
 24 23  1  0
 25 21  1  0
 26 28  2  0
 26 27  1  0
M  END
$$$$
