PHH.pdb
     RDKit          3D

 28 30  0  0  1  0  0  0  0  0999 V2000
    9.5168  -14.0035   19.5655 N   0  0  0  0  0  0  0  0  0  0  0  0
    9.2071  -12.9813   18.5701 C   0  0  0  0  0  0  0  0  0  0  0  0
    7.7305  -12.7518   18.6260 C   0  0  0  0  0  0  0  0  0  0  0  0
    7.2523  -13.6692   19.7555 C   0  0  0  0  0  0  0  0  0  0  0  0
    8.5341  -13.7682   20.5790 C   0  0  1  0  0  0  0  0  0  0  0  0
    8.4566  -14.8684   21.5738 C   0  0  0  0  0  0  0  0  0  0  0  0
    7.4988  -14.9500   22.3552 O   0  0  0  0  0  0  0  0  0  0  0  0
    9.5100  -15.8235   21.6046 N   0  0  0  0  0  0  0  0  0  0  0  0
    9.4802  -16.9822   22.4745 C   0  0  1  0  0  0  0  0  0  0  0  0
   10.5063  -17.9760   22.0148 C   0  0  0  0  0  0  0  0  0  0  0  0
   10.1398  -18.6741   20.7741 C   0  0  0  0  0  0  0  0  0  0  0  0
    8.8455  -19.0890   20.5011 C   0  0  0  0  0  0  0  0  0  0  0  0
    8.8312  -19.6919   19.2993 N   0  0  0  0  0  0  0  0  0  0  0  0
   10.0849  -19.6661   18.8100 C   0  0  0  0  0  0  0  0  0  0  0  0
   10.8561  -19.0507   19.7104 N   0  0  0  0  0  0  0  0  0  0  0  0
    9.6825  -16.5844   23.8883 C   0  0  0  0  0  0  0  0  0  0  0  0
   10.6710  -15.8634   24.1647 O   0  0  0  0  0  0  0  0  0  0  0  0
    8.7996  -16.9934   24.9167 N   0  0  0  0  0  0  0  0  0  0  0  0
    9.1288  -16.5367   26.2866 C   0  0  1  0  0  0  0  0  0  0  0  0
    7.8578  -16.1522   26.9943 C   0  0  0  0  0  0  0  0  0  0  0  0
    7.3734  -14.8422   26.5306 C   0  0  0  0  0  0  0  0  0  0  0  0
    8.1616  -13.8558   25.9398 C   0  0  0  0  0  0  0  0  0  0  0  0
    7.3946  -12.7969   25.6436 N   0  0  0  0  0  0  0  0  0  0  0  0
    6.1436  -13.0880   26.0315 C   0  0  0  0  0  0  0  0  0  0  0  0
    6.1406  -14.3185   26.5631 N   0  0  0  0  0  0  0  0  0  0  0  0
    9.7057  -17.7202   26.9484 C   0  0  0  0  0  0  0  0  0  0  0  0
   10.1366  -17.6303   28.2673 O   0  0  0  0  0  0  0  0  0  0  0  0
    9.8281  -18.8177   26.3721 O   0  0  0  0  0  0  0  0  0  0  0  0
  1  5  1  0
  2  3  1  0
  2  1  1  0
  3  4  1  0
  4  5  1  0
  5  6  1  1
  6  7  2  0
  8  9  1  0
  8  6  1  0
  9 16  1  0
  9 10  1  6
 11 10  1  0
 11 15  1  0
 12 13  1  0
 12 11  2  0
 13 14  1  0
 14 15  2  0
 16 18  1  0
 16 17  2  0
 18 19  1  0
 19 26  1  0
 19 20  1  1
 21 20  1  0
 21 22  2  0
 23 22  1  0
 24 25  2  0
 24 23  1  0
 25 21  1  0
 26 28  2  0
 26 27  1  0
M  END
$$$$
