PHH.pdb
     RDKit          3D

 28 30  0  0  1  0  0  0  0  0999 V2000
    9.3546  -14.4039   19.2159 N   0  0  0  0  0  0  0  0  0  0  0  0
    9.3455  -13.3761   18.1790 C   0  0  0  0  0  0  0  0  0  0  0  0
    7.9787  -12.7692   18.1791 C   0  0  0  0  0  0  0  0  0  0  0  0
    7.2516  -13.4861   19.3208 C   0  0  0  0  0  0  0  0  0  0  0  0
    8.4437  -13.8821   20.1887 C   0  0  1  0  0  0  0  0  0  0  0  0
    8.0589  -14.8847   21.2148 C   0  0  0  0  0  0  0  0  0  0  0  0
    7.0880  -14.6893   21.9588 O   0  0  0  0  0  0  0  0  0  0  0  0
    8.8342  -16.0725   21.3193 N   0  0  0  0  0  0  0  0  0  0  0  0
    8.5178  -17.1235   22.2656 C   0  0  1  0  0  0  0  0  0  0  0  0
    9.1467  -18.4079   21.8113 C   0  0  0  0  0  0  0  0  0  0  0  0
    8.4674  -19.0258   20.6633 C   0  0  0  0  0  0  0  0  0  0  0  0
    7.3331  -18.4817   20.0810 C   0  0  0  0  0  0  0  0  0  0  0  0
    6.9517  -19.2712   19.0616 N   0  0  0  0  0  0  0  0  0  0  0  0
    7.8184  -20.2984   18.9888 C   0  0  0  0  0  0  0  0  0  0  0  0
    8.7214  -20.1331   19.9591 N   0  0  0  0  0  0  0  0  0  0  0  0
    8.9454  -16.7460   23.6340 C   0  0  0  0  0  0  0  0  0  0  0  0
   10.0144  -16.1028   23.7639 O   0  0  0  0  0  0  0  0  0  0  0  0
    8.1867  -17.0896   24.7789 N   0  0  0  0  0  0  0  0  0  0  0  0
    8.7723  -16.7256   26.0897 C   0  0  1  0  0  0  0  0  0  0  0  0
    7.7063  -16.0976   26.9460 C   0  0  0  0  0  0  0  0  0  0  0  0
    7.4124  -14.7268   26.4988 C   0  0  0  0  0  0  0  0  0  0  0  0
    8.2132  -13.9696   25.6452 C   0  0  0  0  0  0  0  0  0  0  0  0
    7.6428  -12.7719   25.4520 N   0  0  0  0  0  0  0  0  0  0  0  0
    6.5036  -12.7523   26.1605 C   0  0  0  0  0  0  0  0  0  0  0  0
    6.3736  -13.9308   26.7859 N   0  0  0  0  0  0  0  0  0  0  0  0
    9.1742  -18.0095   26.6909 C   0  0  0  0  0  0  0  0  0  0  0  0
    9.8181  -18.0215   27.9232 O   0  0  0  0  0  0  0  0  0  0  0  0
    8.9609  -19.1049   26.1376 O   0  0  0  0  0  0  0  0  0  0  0  0
  1  5  1  0
  2  3  1  0
  2  1  1  0
  3  4  1  0
  4  5  1  0
  5  6  1  1
  6  7  2  0
  8  9  1  0
  8  6  1  0
  9 16  1  0
  9 10  1  6
 11 10  1  0
 11 15  1  0
 12 13  1  0
 12 11  2  0
 13 14  1  0
 14 15  2  0
 16 18  1  0
 16 17  2  0
 18 19  1  0
 19 26  1  0
 19 20  1  1
 21 20  1  0
 21 22  2  0
 23 22  1  0
 24 25  2  0
 24 23  1  0
 25 21  1  0
 26 28  2  0
 26 27  1  0
M  END
$$$$
