PHH.pdb
     RDKit          3D

 28 30  0  0  1  0  0  0  0  0999 V2000
    9.4067  -14.2326   19.5243 N   0  0  0  0  0  0  0  0  0  0  0  0
    8.9378  -13.2412   18.5604 C   0  0  0  0  0  0  0  0  0  0  0  0
    7.4622  -13.1034   18.7599 C   0  0  0  0  0  0  0  0  0  0  0  0
    7.1550  -14.0379   19.9341 C   0  0  0  0  0  0  0  0  0  0  0  0
    8.5147  -14.0490   20.6284 C   0  0  1  0  0  0  0  0  0  0  0  0
    8.6039  -15.1423   21.6299 C   0  0  0  0  0  0  0  0  0  0  0  0
    7.7295  -15.2808   22.4963 O   0  0  0  0  0  0  0  0  0  0  0  0
    9.7184  -16.0236   21.5668 N   0  0  0  0  0  0  0  0  0  0  0  0
    9.8448  -17.1764   22.4359 C   0  0  1  0  0  0  0  0  0  0  0  0
   10.9814  -18.0341   21.9626 C   0  0  0  0  0  0  0  0  0  0  0  0
   10.6894  -18.7743   20.7266 C   0  0  0  0  0  0  0  0  0  0  0  0
    9.4137  -19.2009   20.3912 C   0  0  0  0  0  0  0  0  0  0  0  0
    9.4710  -19.8439   19.2117 N   0  0  0  0  0  0  0  0  0  0  0  0
   10.7516  -19.8319   18.7972 C   0  0  0  0  0  0  0  0  0  0  0  0
   11.4678  -19.1850   19.7205 N   0  0  0  0  0  0  0  0  0  0  0  0
   10.0132  -16.7556   23.8475 C   0  0  0  0  0  0  0  0  0  0  0  0
   10.8566  -15.8629   24.1025 O   0  0  0  0  0  0  0  0  0  0  0  0
    9.2558  -17.3294   24.8971 N   0  0  0  0  0  0  0  0  0  0  0  0
    9.5342  -16.8245   26.2613 C   0  0  1  0  0  0  0  0  0  0  0  0
    8.2337  -16.4593   26.9243 C   0  0  0  0  0  0  0  0  0  0  0  0
    7.6564  -15.2489   26.3185 C   0  0  0  0  0  0  0  0  0  0  0  0
    8.3638  -14.0886   26.0075 C   0  0  0  0  0  0  0  0  0  0  0  0
    7.5251  -13.1911   25.4704 N   0  0  0  0  0  0  0  0  0  0  0  0
    6.3074  -13.7532   25.4339 C   0  0  0  0  0  0  0  0  0  0  0  0
    6.3960  -14.9891   25.9453 N   0  0  0  0  0  0  0  0  0  0  0  0
   10.1281  -17.9707   26.9719 C   0  0  0  0  0  0  0  0  0  0  0  0
   10.3667  -19.1571   26.2872 O   0  0  0  0  0  0  0  0  0  0  0  0
   10.4323  -17.9267   28.1790 O   0  0  0  0  0  0  0  0  0  0  0  0
  1  5  1  0
  2  3  1  0
  2  1  1  0
  3  4  1  0
  4  5  1  0
  5  6  1  1
  6  7  2  0
  8  9  1  0
  8  6  1  0
  9 16  1  0
  9 10  1  6
 11 10  1  0
 11 15  1  0
 12 13  1  0
 12 11  2  0
 13 14  1  0
 14 15  2  0
 16 18  1  0
 16 17  2  0
 18 19  1  0
 19 26  1  0
 19 20  1  1
 21 20  1  0
 21 22  2  0
 23 22  1  0
 24 25  2  0
 24 23  1  0
 25 21  1  0
 26 28  2  0
 26 27  1  0
M  END
$$$$
