PHH.pdb
     RDKit          3D

 28 30  0  0  1  0  0  0  0  0999 V2000
    9.3657  -14.1301   18.8035 N   0  0  0  0  0  0  0  0  0  0  0  0
    9.0151  -13.1208   17.8085 C   0  0  0  0  0  0  0  0  0  0  0  0
    7.5541  -12.8430   17.9657 C   0  0  0  0  0  0  0  0  0  0  0  0
    7.1324  -13.7193   19.1490 C   0  0  0  0  0  0  0  0  0  0  0  0
    8.4674  -13.8410   19.8796 C   0  0  1  0  0  0  0  0  0  0  0  0
    8.4297  -14.9158   20.9040 C   0  0  0  0  0  0  0  0  0  0  0  0
    7.5599  -14.9203   21.7860 O   0  0  0  0  0  0  0  0  0  0  0  0
    9.4177  -15.9372   20.8447 N   0  0  0  0  0  0  0  0  0  0  0  0
    9.4203  -17.0664   21.7531 C   0  0  1  0  0  0  0  0  0  0  0  0
   10.4480  -18.0635   21.3045 C   0  0  0  0  0  0  0  0  0  0  0  0
   10.0017  -18.9129   20.1908 C   0  0  0  0  0  0  0  0  0  0  0  0
    8.7083  -18.8792   19.6931 C   0  0  0  0  0  0  0  0  0  0  0  0
    8.6116  -19.7639   18.6852 N   0  0  0  0  0  0  0  0  0  0  0  0
    9.8127  -20.3532   18.5370 C   0  0  0  0  0  0  0  0  0  0  0  0
   10.6341  -19.8286   19.4503 N   0  0  0  0  0  0  0  0  0  0  0  0
    9.6481  -16.6192   23.1481 C   0  0  0  0  0  0  0  0  0  0  0  0
   10.4983  -15.7193   23.3499 O   0  0  0  0  0  0  0  0  0  0  0  0
    8.9392  -17.1760   24.2399 N   0  0  0  0  0  0  0  0  0  0  0  0
    9.2210  -16.5943   25.5725 C   0  0  1  0  0  0  0  0  0  0  0  0
    7.9182  -16.3206   26.2739 C   0  0  0  0  0  0  0  0  0  0  0  0
    7.4257  -14.9698   25.9601 C   0  0  0  0  0  0  0  0  0  0  0  0
    8.1132  -14.0166   25.2105 C   0  0  0  0  0  0  0  0  0  0  0  0
    7.3705  -12.9038   25.1241 N   0  0  0  0  0  0  0  0  0  0  0  0
    6.2328  -13.1287   25.7988 C   0  0  0  0  0  0  0  0  0  0  0  0
    6.2750  -14.3722   26.2975 N   0  0  0  0  0  0  0  0  0  0  0  0
    9.9424  -17.6537   26.2996 C   0  0  0  0  0  0  0  0  0  0  0  0
   10.4288  -17.4033   27.5778 O   0  0  0  0  0  0  0  0  0  0  0  0
   10.1411  -18.7838   25.8148 O   0  0  0  0  0  0  0  0  0  0  0  0
  1  5  1  0
  2  3  1  0
  2  1  1  0
  3  4  1  0
  4  5  1  0
  5  6  1  1
  6  7  2  0
  8  9  1  0
  8  6  1  0
  9 16  1  0
  9 10  1  6
 11 10  1  0
 11 15  1  0
 12 13  1  0
 12 11  2  0
 13 14  1  0
 14 15  2  0
 16 18  1  0
 16 17  2  0
 18 19  1  0
 19 26  1  0
 19 20  1  1
 21 20  1  0
 21 22  2  0
 23 22  1  0
 24 25  2  0
 24 23  1  0
 25 21  1  0
 26 28  2  0
 26 27  1  0
M  END
$$$$
