PHH.pdb
     RDKit          3D

 28 30  0  0  1  0  0  0  0  0999 V2000
    9.1149  -14.3825   19.8898 N   0  0  0  0  0  0  0  0  0  0  0  0
    9.2682  -13.9861   18.4930 C   0  0  0  0  0  0  0  0  0  0  0  0
    7.9495  -14.2182   17.8269 C   0  0  0  0  0  0  0  0  0  0  0  0
    7.0418  -14.7125   18.9573 C   0  0  0  0  0  0  0  0  0  0  0  0
    7.7419  -14.0794   20.1572 C   0  0  1  0  0  0  0  0  0  0  0  0
    7.2611  -14.6623   21.4360 C   0  0  0  0  0  0  0  0  0  0  0  0
    6.1074  -15.1019   21.5379 O   0  0  0  0  0  0  0  0  0  0  0  0
    8.1597  -14.7018   22.5377 N   0  0  0  0  0  0  0  0  0  0  0  0
    7.8639  -15.4337   23.7530 C   0  0  1  0  0  0  0  0  0  0  0  0
    7.3935  -16.8143   23.4003 C   0  0  0  0  0  0  0  0  0  0  0  0
    7.1159  -17.6615   24.5692 C   0  0  0  0  0  0  0  0  0  0  0  0
    7.7915  -18.8471   24.8138 C   0  0  0  0  0  0  0  0  0  0  0  0
    7.3157  -19.3873   25.9494 N   0  0  0  0  0  0  0  0  0  0  0  0
    6.3574  -18.5703   26.4249 C   0  0  0  0  0  0  0  0  0  0  0  0
    6.2522  -17.5395   25.5820 N   0  0  0  0  0  0  0  0  0  0  0  0
    9.0419  -15.4582   24.6528 C   0  0  0  0  0  0  0  0  0  0  0  0
    8.9460  -14.8941   25.7690 O   0  0  0  0  0  0  0  0  0  0  0  0
   10.2529  -16.0937   24.2866 N   0  0  0  0  0  0  0  0  0  0  0  0
   11.3682  -15.9925   25.2559 C   0  0  1  0  0  0  0  0  0  0  0  0
   10.9946  -16.7312   26.5125 C   0  0  0  0  0  0  0  0  0  0  0  0
   10.4455  -15.8102   27.5203 C   0  0  0  0  0  0  0  0  0  0  0  0
   10.1057  -14.4776   27.2924 C   0  0  0  0  0  0  0  0  0  0  0  0
    9.6378  -13.9411   28.4284 N   0  0  0  0  0  0  0  0  0  0  0  0
    9.6729  -14.8989   29.3673 C   0  0  0  0  0  0  0  0  0  0  0  0
   10.1594  -16.0180   28.8126 N   0  0  0  0  0  0  0  0  0  0  0  0
   12.4932  -16.6895   24.6078 C   0  0  0  0  0  0  0  0  0  0  0  0
   13.7177  -16.7763   25.2607 O   0  0  0  0  0  0  0  0  0  0  0  0
   12.3979  -17.2142   23.4821 O   0  0  0  0  0  0  0  0  0  0  0  0
  1  5  1  0
  2  3  1  0
  2  1  1  0
  3  4  1  0
  4  5  1  0
  5  6  1  1
  6  7  2  0
  8  9  1  0
  8  6  1  0
  9 16  1  0
  9 10  1  6
 11 10  1  0
 11 15  1  0
 12 13  1  0
 12 11  2  0
 13 14  1  0
 14 15  2  0
 16 18  1  0
 16 17  2  0
 18 19  1  0
 19 26  1  0
 19 20  1  1
 21 20  1  0
 21 22  2  0
 23 22  1  0
 24 25  2  0
 24 23  1  0
 25 21  1  0
 26 28  2  0
 26 27  1  0
M  END
$$$$
