PHH.pdb
     RDKit          3D

 28 30  0  0  1  0  0  0  0  0999 V2000
    8.3131  -14.9686   19.2537 N   0  0  0  0  0  0  0  0  0  0  0  0
    8.4187  -14.1340   18.0604 C   0  0  0  0  0  0  0  0  0  0  0  0
    7.4233  -13.0284   18.2124 C   0  0  0  0  0  0  0  0  0  0  0  0
    6.8025  -13.2716   19.5914 C   0  0  0  0  0  0  0  0  0  0  0  0
    7.9432  -14.0284   20.2674 C   0  0  1  0  0  0  0  0  0  0  0  0
    7.4925  -14.6814   21.5230 C   0  0  0  0  0  0  0  0  0  0  0  0
    7.0138  -14.0120   22.4489 O   0  0  0  0  0  0  0  0  0  0  0  0
    7.6254  -16.0932   21.6327 N   0  0  0  0  0  0  0  0  0  0  0  0
    7.1833  -16.8245   22.8032 C   0  0  1  0  0  0  0  0  0  0  0  0
    6.7739  -18.2103   22.3987 C   0  0  0  0  0  0  0  0  0  0  0  0
    5.5437  -18.2531   21.5951 C   0  0  0  0  0  0  0  0  0  0  0  0
    4.2825  -18.0802   22.1441 C   0  0  0  0  0  0  0  0  0  0  0  0
    3.3690  -18.1729   21.1618 N   0  0  0  0  0  0  0  0  0  0  0  0
    4.0250  -18.3997   20.0085 C   0  0  0  0  0  0  0  0  0  0  0  0
    5.3301  -18.4445   20.2896 N   0  0  0  0  0  0  0  0  0  0  0  0
    8.2370  -16.8357   23.8459 C   0  0  0  0  0  0  0  0  0  0  0  0
    9.4344  -16.8960   23.4770 O   0  0  0  0  0  0  0  0  0  0  0  0
    7.9274  -16.7808   25.2264 N   0  0  0  0  0  0  0  0  0  0  0  0
    9.0035  -16.3001   26.1233 C   0  0  1  0  0  0  0  0  0  0  0  0
    8.5034  -15.1093   26.8953 C   0  0  0  0  0  0  0  0  0  0  0  0
    9.4947  -14.6752   27.8926 C   0  0  0  0  0  0  0  0  0  0  0  0
   10.7185  -15.2973   28.1345 C   0  0  0  0  0  0  0  0  0  0  0  0
   11.3644  -14.6373   29.1064 N   0  0  0  0  0  0  0  0  0  0  0  0
   10.5816  -13.6155   29.4847 C   0  0  0  0  0  0  0  0  0  0  0  0
    9.4607  -13.6462   28.7501 N   0  0  0  0  0  0  0  0  0  0  0  0
    9.2371  -17.4136   27.0597 C   0  0  0  0  0  0  0  0  0  0  0  0
   10.4340  -17.4819   27.7639 O   0  0  0  0  0  0  0  0  0  0  0  0
    8.3980  -18.3134   27.2541 O   0  0  0  0  0  0  0  0  0  0  0  0
  1  5  1  0
  2  3  1  0
  2  1  1  0
  3  4  1  0
  4  5  1  0
  5  6  1  1
  6  7  2  0
  8  9  1  0
  8  6  1  0
  9 16  1  0
  9 10  1  6
 11 10  1  0
 11 15  1  0
 12 13  1  0
 12 11  2  0
 13 14  1  0
 14 15  2  0
 16 18  1  0
 16 17  2  0
 18 19  1  0
 19 26  1  0
 19 20  1  1
 21 20  1  0
 21 22  2  0
 23 22  1  0
 24 25  2  0
 24 23  1  0
 25 21  1  0
 26 28  2  0
 26 27  1  0
M  END
$$$$
