PHH.pdb
     RDKit          3D

 28 30  0  0  1  0  0  0  0  0999 V2000
    8.2555  -18.6427   17.8262 N   0  0  0  0  0  0  0  0  0  0  0  0
    7.9120  -19.0929   16.4804 C   0  0  0  0  0  0  0  0  0  0  0  0
    8.5099  -18.1091   15.5260 C   0  0  0  0  0  0  0  0  0  0  0  0
    9.2548  -17.1196   16.4272 C   0  0  0  0  0  0  0  0  0  0  0  0
    9.5261  -18.0122   17.6357 C   0  0  1  0  0  0  0  0  0  0  0  0
    9.9570  -17.2157   18.8131 C   0  0  0  0  0  0  0  0  0  0  0  0
   11.1376  -16.8637   18.9422 O   0  0  0  0  0  0  0  0  0  0  0  0
    8.9789  -16.8692   19.7858 N   0  0  0  0  0  0  0  0  0  0  0  0
    9.2776  -16.0075   20.9121 C   0  0  1  0  0  0  0  0  0  0  0  0
    8.1770  -15.0005   21.0736 C   0  0  0  0  0  0  0  0  0  0  0  0
    7.9258  -14.1995   19.8668 C   0  0  0  0  0  0  0  0  0  0  0  0
    8.5304  -12.9725   19.6415 C   0  0  0  0  0  0  0  0  0  0  0  0
    8.1019  -12.4917   18.4612 N   0  0  0  0  0  0  0  0  0  0  0  0
    7.2426  -13.3865   17.9388 C   0  0  0  0  0  0  0  0  0  0  0  0
    7.1501  -14.4051   18.7979 N   0  0  0  0  0  0  0  0  0  0  0  0
    9.4896  -16.8052   22.1436 C   0  0  0  0  0  0  0  0  0  0  0  0
    8.6668  -17.7139   22.4092 O   0  0  0  0  0  0  0  0  0  0  0  0
   10.5820  -16.5682   23.0125 N   0  0  0  0  0  0  0  0  0  0  0  0
   10.7527  -17.5245   24.1305 C   0  0  1  0  0  0  0  0  0  0  0  0
   11.9280  -18.4172   23.8374 C   0  0  0  0  0  0  0  0  0  0  0  0
   11.5839  -19.4220   22.8188 C   0  0  0  0  0  0  0  0  0  0  0  0
   12.2873  -19.6420   21.6356 C   0  0  0  0  0  0  0  0  0  0  0  0
   11.6958  -20.6290   20.9476 N   0  0  0  0  0  0  0  0  0  0  0  0
   10.6379  -21.0380   21.6644 C   0  0  0  0  0  0  0  0  0  0  0  0
   10.5787  -20.3073   22.7867 N   0  0  0  0  0  0  0  0  0  0  0  0
   11.0700  -16.6839   25.2984 C   0  0  0  0  0  0  0  0  0  0  0  0
   11.2753  -17.2774   26.5389 O   0  0  0  0  0  0  0  0  0  0  0  0
   11.1647  -15.4440   25.2262 O   0  0  0  0  0  0  0  0  0  0  0  0
  1  5  1  0
  2  3  1  0
  2  1  1  0
  3  4  1  0
  4  5  1  0
  5  6  1  1
  6  7  2  0
  8  9  1  0
  8  6  1  0
  9 16  1  0
  9 10  1  1
 11 10  1  0
 11 15  1  0
 12 13  1  0
 12 11  2  0
 13 14  1  0
 14 15  2  0
 16 18  1  0
 16 17  2  0
 18 19  1  0
 19 26  1  0
 19 20  1  6
 21 20  1  0
 21 22  2  0
 23 22  1  0
 24 25  2  0
 24 23  1  0
 25 21  1  0
 26 28  2  0
 26 27  1  0
M  END
$$$$
