PHH.pdb
     RDKit          3D

 28 30  0  0  1  0  0  0  0  0999 V2000
    8.4141  -13.5304   18.9764 N   0  0  0  0  0  0  0  0  0  0  0  0
    7.9316  -12.8557   17.7748 C   0  0  0  0  0  0  0  0  0  0  0  0
    7.4117  -13.9169   16.8583 C   0  0  0  0  0  0  0  0  0  0  0  0
    7.5836  -15.2146   17.6536 C   0  0  0  0  0  0  0  0  0  0  0  0
    7.5440  -14.6623   19.0764 C   0  0  1  0  0  0  0  0  0  0  0  0
    8.0165  -15.6676   20.0624 C   0  0  0  0  0  0  0  0  0  0  0  0
    7.4003  -16.7291   20.2299 O   0  0  0  0  0  0  0  0  0  0  0  0
    9.1931  -15.3786   20.8072 N   0  0  0  0  0  0  0  0  0  0  0  0
    9.7207  -16.2868   21.8058 C   0  0  1  0  0  0  0  0  0  0  0  0
   11.1846  -16.0192   21.9978 C   0  0  0  0  0  0  0  0  0  0  0  0
   11.7857  -16.7813   23.1018 C   0  0  0  0  0  0  0  0  0  0  0  0
   11.8729  -16.2874   24.3942 C   0  0  0  0  0  0  0  0  0  0  0  0
   12.4678  -17.2114   25.1690 N   0  0  0  0  0  0  0  0  0  0  0  0
   12.7569  -18.2743   24.3952 C   0  0  0  0  0  0  0  0  0  0  0  0
   12.3394  -17.9966   23.1572 N   0  0  0  0  0  0  0  0  0  0  0  0
    8.9614  -16.1735   23.0740 C   0  0  0  0  0  0  0  0  0  0  0  0
    8.5050  -15.0493   23.3923 O   0  0  0  0  0  0  0  0  0  0  0  0
    8.7433  -17.2874   23.9203 N   0  0  0  0  0  0  0  0  0  0  0  0
    8.0243  -17.0202   25.1872 C   0  0  1  0  0  0  0  0  0  0  0  0
    6.5444  -16.9968   24.9160 C   0  0  0  0  0  0  0  0  0  0  0  0
    6.1497  -18.1235   24.0556 C   0  0  0  0  0  0  0  0  0  0  0  0
    7.0116  -19.1054   23.5694 C   0  0  0  0  0  0  0  0  0  0  0  0
    6.3150  -19.9727   22.8212 N   0  0  0  0  0  0  0  0  0  0  0  0
    5.0368  -19.5651   22.8218 C   0  0  0  0  0  0  0  0  0  0  0  0
    4.9471  -18.4536   23.5658 N   0  0  0  0  0  0  0  0  0  0  0  0
    8.3350  -18.1765   26.0462 C   0  0  0  0  0  0  0  0  0  0  0  0
    7.8027  -18.2445   27.3289 O   0  0  0  0  0  0  0  0  0  0  0  0
    9.0654  -19.1133   25.6713 O   0  0  0  0  0  0  0  0  0  0  0  0
  1  5  1  0
  2  3  1  0
  2  1  1  0
  3  4  1  0
  4  5  1  0
  5  6  1  1
  6  7  2  0
  8  9  1  0
  8  6  1  0
  9 16  1  0
  9 10  1  1
 11 10  1  0
 11 15  1  0
 12 13  1  0
 12 11  2  0
 13 14  1  0
 14 15  2  0
 16 18  1  0
 16 17  2  0
 18 19  1  0
 19 26  1  0
 19 20  1  6
 21 20  1  0
 21 22  2  0
 23 22  1  0
 24 25  2  0
 24 23  1  0
 25 21  1  0
 26 28  2  0
 26 27  1  0
M  END
$$$$
