PHH.pdb
     RDKit          3D

 28 30  0  0  1  0  0  0  0  0999 V2000
    9.5899  -14.5368   16.3662 N   0  0  0  0  0  0  0  0  0  0  0  0
    8.9304  -13.7763   15.3087 C   0  0  0  0  0  0  0  0  0  0  0  0
    7.4905  -14.1799   15.3147 C   0  0  0  0  0  0  0  0  0  0  0  0
    7.3842  -15.1677   16.4806 C   0  0  0  0  0  0  0  0  0  0  0  0
    8.5527  -14.6918   17.3402 C   0  0  1  0  0  0  0  0  0  0  0  0
    8.8926  -15.6842   18.3917 C   0  0  0  0  0  0  0  0  0  0  0  0
    8.0496  -16.0339   19.2293 O   0  0  0  0  0  0  0  0  0  0  0  0
   10.2097  -16.2208   18.4105 N   0  0  0  0  0  0  0  0  0  0  0  0
   10.6437  -17.1744   19.4117 C   0  0  1  0  0  0  0  0  0  0  0  0
   11.9348  -17.8017   18.9746 C   0  0  0  0  0  0  0  0  0  0  0  0
   11.7652  -18.8816   17.9917 C   0  0  0  0  0  0  0  0  0  0  0  0
   10.5366  -19.4646   17.7224 C   0  0  0  0  0  0  0  0  0  0  0  0
   10.7067  -20.4137   16.7851 N   0  0  0  0  0  0  0  0  0  0  0  0
   12.0123  -20.4416   16.4586 C   0  0  0  0  0  0  0  0  0  0  0  0
   12.6313  -19.5141   17.1940 N   0  0  0  0  0  0  0  0  0  0  0  0
   10.7594  -16.5269   20.7403 C   0  0  0  0  0  0  0  0  0  0  0  0
   11.5141  -15.5310   20.8498 O   0  0  0  0  0  0  0  0  0  0  0  0
   10.0487  -16.9996   21.8700 N   0  0  0  0  0  0  0  0  0  0  0  0
   10.2057  -16.2199   23.1194 C   0  0  1  0  0  0  0  0  0  0  0  0
    8.8432  -15.8874   23.6647 C   0  0  0  0  0  0  0  0  0  0  0  0
    8.1352  -14.9520   22.7763 C   0  0  0  0  0  0  0  0  0  0  0  0
    7.0402  -15.2745   21.9763 C   0  0  0  0  0  0  0  0  0  0  0  0
    6.6508  -14.1839   21.3007 N   0  0  0  0  0  0  0  0  0  0  0  0
    7.4704  -13.1816   21.6525 C   0  0  0  0  0  0  0  0  0  0  0  0
    8.3587  -13.6523   22.5392 N   0  0  0  0  0  0  0  0  0  0  0  0
   10.8833  -17.1377   24.0520 C   0  0  0  0  0  0  0  0  0  0  0  0
   11.1942  -16.7081   25.3373 O   0  0  0  0  0  0  0  0  0  0  0  0
   11.1968  -18.3017   23.7381 O   0  0  0  0  0  0  0  0  0  0  0  0
  1  5  1  0
  2  3  1  0
  2  1  1  0
  3  4  1  0
  4  5  1  0
  5  6  1  1
  6  7  2  0
  8  9  1  0
  8  6  1  0
  9 16  1  0
  9 10  1  6
 11 10  1  0
 11 15  1  0
 12 13  1  0
 12 11  2  0
 13 14  1  0
 14 15  2  0
 16 18  1  0
 16 17  2  0
 18 19  1  0
 19 26  1  0
 19 20  1  1
 21 20  1  0
 21 22  2  0
 23 22  1  0
 24 25  2  0
 24 23  1  0
 25 21  1  0
 26 28  2  0
 26 27  1  0
M  END
$$$$
