WDD.pdb
     RDKit          3D

 31 32  0  0  1  0  0  0  0  0999 V2000
   28.5196  -20.2570   -9.5605 N   0  0  0  0  0  0  0  0  0  0  0  0
   27.4811  -21.2797   -9.7761 C   0  0  1  0  0  0  0  0  0  0  0  0
   26.7425  -21.5159   -8.4574 C   0  0  0  0  0  0  0  0  0  0  0  0
   27.1274  -20.4042   -7.5442 C   0  0  0  0  0  0  0  0  0  0  0  0
   26.6505  -19.1023   -7.5921 C   0  0  0  0  0  0  0  0  0  0  0  0
   27.2469  -18.4270   -6.6240 N   0  0  0  0  0  0  0  0  0  0  0  0
   28.0950  -19.2368   -5.9452 C   0  0  0  0  0  0  0  0  0  0  0  0
   28.9518  -19.0650   -4.8686 C   0  0  0  0  0  0  0  0  0  0  0  0
   29.6826  -20.1339   -4.4273 C   0  0  0  0  0  0  0  0  0  0  0  0
   29.6122  -21.3886   -5.0040 C   0  0  0  0  0  0  0  0  0  0  0  0
   28.7710  -21.5682   -6.0658 C   0  0  0  0  0  0  0  0  0  0  0  0
   28.0225  -20.4899   -6.5239 C   0  0  0  0  0  0  0  0  0  0  0  0
   26.4644  -20.7366  -10.7065 C   0  0  0  0  0  0  0  0  0  0  0  0
   26.0867  -19.5584  -10.5594 O   0  0  0  0  0  0  0  0  0  0  0  0
   25.9454  -21.5473  -11.7326 N   0  0  0  0  0  0  0  0  0  0  0  0
   25.0976  -21.0207  -12.8076 C   0  0  1  0  0  0  0  0  0  0  0  0
   25.5964  -21.7523  -14.0633 C   0  0  0  0  0  0  0  0  0  0  0  0
   26.8001  -21.1789  -14.6531 C   0  0  0  0  0  0  0  0  0  0  0  0
   26.8706  -19.9069  -14.8134 O   0  0  0  0  0  0  0  0  0  0  0  0
   23.6954  -21.4133  -12.5981 C   0  0  0  0  0  0  0  0  0  0  0  0
   23.4448  -22.5997  -12.1748 O   0  0  0  0  0  0  0  0  0  0  0  0
   27.9035  -21.8905  -15.0680 O   0  0  0  0  0  0  0  0  0  0  0  0
   22.5682  -20.5831  -12.8200 N   0  0  0  0  0  0  0  0  0  0  0  0
   21.2123  -21.0491  -12.4834 C   0  0  1  0  0  0  0  0  0  0  0  0
   20.3017  -19.8205  -12.3852 C   0  0  0  0  0  0  0  0  0  0  0  0
   18.9039  -20.1456  -12.1162 C   0  0  0  0  0  0  0  0  0  0  0  0
   18.5174  -21.3146  -11.9462 O   0  0  0  0  0  0  0  0  0  0  0  0
   20.7907  -21.9777  -13.5367 C   0  0  0  0  0  0  0  0  0  0  0  0
   20.0373  -22.9338  -13.3266 O   0  0  0  0  0  0  0  0  0  0  0  0
   17.9328  -19.1500  -12.0370 O   0  0  0  0  0  0  0  0  0  0  0  0
   21.2390  -21.8054  -14.8471 O   0  0  0  0  0  0  0  0  0  0  0  0
  2  1  1  1
  2 13  1  0
  2  3  1  0
  3  4  1  0
  4  5  2  0
  5  6  1  0
  7  6  1  0
  8  7  2  0
  9  8  1  0
 10 11  1  0
 10  9  2  0
 11 12  2  0
 12  4  1  0
 12  7  1  0
 13 15  1  0
 14 13  2  0
 15 16  1  0
 16 17  1  6
 17 18  1  0
 18 19  2  0
 18 22  1  0
 20 16  1  0
 21 20  2  0
 23 20  1  0
 24 23  1  0
 24 25  1  6
 26 25  1  0
 26 27  2  0
 28 24  1  0
 28 31  1  0
 29 28  2  0
 30 26  1  0
M  END
$$$$
