WDD.pdb
     RDKit          3D

 31 32  0  0  1  0  0  0  0  0999 V2000
   27.3482  -19.7386  -11.2965 N   0  0  0  0  0  0  0  0  0  0  0  0
   26.7495  -20.9671  -11.8470 C   0  0  1  0  0  0  0  0  0  0  0  0
   26.2877  -21.8512  -10.6871 C   0  0  0  0  0  0  0  0  0  0  0  0
   26.4441  -21.0458   -9.4441 C   0  0  0  0  0  0  0  0  0  0  0  0
   25.4559  -20.2943   -8.8251 C   0  0  0  0  0  0  0  0  0  0  0  0
   26.0001  -19.7232   -7.7637 N   0  0  0  0  0  0  0  0  0  0  0  0
   27.3055  -20.0721   -7.6648 C   0  0  0  0  0  0  0  0  0  0  0  0
   28.3273  -19.7756   -6.7757 C   0  0  0  0  0  0  0  0  0  0  0  0
   29.5648  -20.3205   -6.9839 C   0  0  0  0  0  0  0  0  0  0  0  0
   29.8536  -21.1588   -8.0448 C   0  0  0  0  0  0  0  0  0  0  0  0
   28.8536  -21.4571   -8.9269 C   0  0  0  0  0  0  0  0  0  0  0  0
   27.5913  -20.9098   -8.7264 C   0  0  0  0  0  0  0  0  0  0  0  0
   25.5162  -20.6064  -12.5841 C   0  0  0  0  0  0  0  0  0  0  0  0
   24.7333  -19.7822  -12.0741 O   0  0  0  0  0  0  0  0  0  0  0  0
   25.2484  -21.1907  -13.8355 N   0  0  0  0  0  0  0  0  0  0  0  0
   24.0978  -20.8067  -14.6604 C   0  0  1  0  0  0  0  0  0  0  0  0
   24.5192  -21.1956  -16.0860 C   0  0  0  0  0  0  0  0  0  0  0  0
   23.5298  -20.8830  -17.1102 C   0  0  0  0  0  0  0  0  0  0  0  0
   22.4158  -20.3501  -16.7586 O   0  0  0  0  0  0  0  0  0  0  0  0
   22.9206  -21.6178  -14.3135 C   0  0  0  0  0  0  0  0  0  0  0  0
   23.0902  -22.8582  -14.0266 O   0  0  0  0  0  0  0  0  0  0  0  0
   23.6780  -21.1105  -18.4601 O   0  0  0  0  0  0  0  0  0  0  0  0
   21.5850  -21.1460  -14.2597 N   0  0  0  0  0  0  0  0  0  0  0  0
   20.5066  -21.9980  -13.7309 C   0  0  1  0  0  0  0  0  0  0  0  0
   19.4660  -21.0869  -13.0706 C   0  0  0  0  0  0  0  0  0  0  0  0
   18.2924  -21.7995  -12.5741 C   0  0  0  0  0  0  0  0  0  0  0  0
   17.2083  -21.2272  -12.3695 O   0  0  0  0  0  0  0  0  0  0  0  0
   19.9536  -22.7587  -14.8555 C   0  0  0  0  0  0  0  0  0  0  0  0
   19.0991  -23.6396  -14.7146 O   0  0  0  0  0  0  0  0  0  0  0  0
   18.3367  -23.1658  -12.3057 O   0  0  0  0  0  0  0  0  0  0  0  0
   20.3864  -22.5041  -16.1576 O   0  0  0  0  0  0  0  0  0  0  0  0
  2  1  1  1
  2 13  1  0
  2  3  1  0
  3  4  1  0
  4  5  2  0
  5  6  1  0
  7  6  1  0
  8  7  2  0
  9  8  1  0
 10 11  1  0
 10  9  2  0
 11 12  2  0
 12  4  1  0
 12  7  1  0
 13 15  1  0
 14 13  2  0
 15 16  1  0
 16 17  1  6
 17 18  1  0
 18 19  2  0
 18 22  1  0
 20 16  1  0
 21 20  2  0
 23 20  1  0
 24 23  1  0
 24 25  1  6
 26 25  1  0
 26 27  2  0
 28 24  1  0
 28 31  1  0
 29 28  2  0
 30 26  1  0
M  END
$$$$
