WDD.pdb
     RDKit          3D

 31 32  0  0  1  0  0  0  0  0999 V2000
   25.9934  -19.7940  -11.7950 N   0  0  0  0  0  0  0  0  0  0  0  0
   26.0953  -21.2532  -11.9717 C   0  0  1  0  0  0  0  0  0  0  0  0
   25.6429  -21.9374  -10.6805 C   0  0  0  0  0  0  0  0  0  0  0  0
   26.1346  -21.0968   -9.5536 C   0  0  0  0  0  0  0  0  0  0  0  0
   25.3582  -20.2932   -8.7315 C   0  0  0  0  0  0  0  0  0  0  0  0
   26.1719  -19.7055   -7.8705 N   0  0  0  0  0  0  0  0  0  0  0  0
   27.4499  -20.0936   -8.0978 C   0  0  0  0  0  0  0  0  0  0  0  0
   28.6737  -19.8014   -7.5152 C   0  0  0  0  0  0  0  0  0  0  0  0
   29.8021  -20.3933   -8.0134 C   0  0  0  0  0  0  0  0  0  0  0  0
   29.7867  -21.2753   -9.0781 C   0  0  0  0  0  0  0  0  0  0  0  0
   28.5856  -21.5697   -9.6594 C   0  0  0  0  0  0  0  0  0  0  0  0
   27.4314  -20.9749   -9.1624 C   0  0  0  0  0  0  0  0  0  0  0  0
   25.1219  -21.6764  -13.0051 C   0  0  0  0  0  0  0  0  0  0  0  0
   24.2228  -20.8823  -13.3418 O   0  0  0  0  0  0  0  0  0  0  0  0
   25.2243  -22.9533  -13.5869 N   0  0  0  0  0  0  0  0  0  0  0  0
   24.3361  -23.4088  -14.6617 C   0  0  1  0  0  0  0  0  0  0  0  0
   24.9048  -24.7813  -15.0540 C   0  0  0  0  0  0  0  0  0  0  0  0
   26.1270  -24.7199  -15.8464 C   0  0  0  0  0  0  0  0  0  0  0  0
   26.1887  -23.9026  -16.8347 O   0  0  0  0  0  0  0  0  0  0  0  0
   22.9749  -23.6276  -14.1484 C   0  0  0  0  0  0  0  0  0  0  0  0
   22.8100  -23.7734  -12.8831 O   0  0  0  0  0  0  0  0  0  0  0  0
   27.2573  -25.4765  -15.6317 O   0  0  0  0  0  0  0  0  0  0  0  0
   21.7994  -23.6886  -14.9380 N   0  0  0  0  0  0  0  0  0  0  0  0
   20.5135  -23.1999  -14.4124 C   0  0  1  0  0  0  0  0  0  0  0  0
   20.6848  -21.7221  -14.0446 C   0  0  0  0  0  0  0  0  0  0  0  0
   19.4510  -21.0810  -13.5991 C   0  0  0  0  0  0  0  0  0  0  0  0
   18.7201  -20.4418  -14.3749 O   0  0  0  0  0  0  0  0  0  0  0  0
   19.5038  -23.4054  -15.4553 C   0  0  0  0  0  0  0  0  0  0  0  0
   18.3131  -23.6182  -15.2044 O   0  0  0  0  0  0  0  0  0  0  0  0
   19.0346  -21.1590  -12.2721 O   0  0  0  0  0  0  0  0  0  0  0  0
   19.8658  -23.3649  -16.8026 O   0  0  0  0  0  0  0  0  0  0  0  0
  2  1  1  1
  2 13  1  0
  2  3  1  0
  3  4  1  0
  4  5  2  0
  5  6  1  0
  7  6  1  0
  8  7  2  0
  9  8  1  0
 10 11  1  0
 10  9  2  0
 11 12  2  0
 12  4  1  0
 12  7  1  0
 13 15  1  0
 14 13  2  0
 15 16  1  0
 16 17  1  1
 17 18  1  0
 18 19  2  0
 18 22  1  0
 20 16  1  0
 21 20  2  0
 23 20  1  0
 24 23  1  0
 24 25  1  6
 26 25  1  0
 26 27  2  0
 28 24  1  0
 28 31  1  0
 29 28  2  0
 30 26  1  0
M  END
$$$$
