WDD.pdb
     RDKit          3D

 31 32  0  0  1  0  0  0  0  0999 V2000
   26.3947  -19.3406  -17.9124 N   0  0  0  0  0  0  0  0  0  0  0  0
   26.4024  -18.9372  -16.4954 C   0  0  1  0  0  0  0  0  0  0  0  0
   25.8114  -17.5308  -16.3816 C   0  0  0  0  0  0  0  0  0  0  0  0
   26.7042  -16.6254  -17.1570 C   0  0  0  0  0  0  0  0  0  0  0  0
   26.3033  -15.5504  -17.9369 C   0  0  0  0  0  0  0  0  0  0  0  0
   27.3922  -15.0179  -18.4657 N   0  0  0  0  0  0  0  0  0  0  0  0
   28.4891  -15.7029  -18.0619 C   0  0  0  0  0  0  0  0  0  0  0  0
   29.8502  -15.5881  -18.3001 C   0  0  0  0  0  0  0  0  0  0  0  0
   30.7031  -16.4795  -17.7088 C   0  0  0  0  0  0  0  0  0  0  0  0
   30.2755  -17.4994  -16.8789 C   0  0  0  0  0  0  0  0  0  0  0  0
   28.9360  -17.6212  -16.6380 C   0  0  0  0  0  0  0  0  0  0  0  0
   28.0587  -16.7215  -17.2327 C   0  0  0  0  0  0  0  0  0  0  0  0
   25.4761  -19.8168  -15.7452 C   0  0  0  0  0  0  0  0  0  0  0  0
   24.6145  -20.4572  -16.3776 O   0  0  0  0  0  0  0  0  0  0  0  0
   25.5804  -19.9178  -14.3459 N   0  0  0  0  0  0  0  0  0  0  0  0
   24.7294  -20.8081  -13.5491 C   0  0  1  0  0  0  0  0  0  0  0  0
   25.4574  -20.9047  -12.1994 C   0  0  0  0  0  0  0  0  0  0  0  0
   24.8023  -21.7688  -11.2249 C   0  0  0  0  0  0  0  0  0  0  0  0
   23.6820  -22.3162  -11.5312 O   0  0  0  0  0  0  0  0  0  0  0  0
   23.4210  -20.1838  -13.2990 C   0  0  0  0  0  0  0  0  0  0  0  0
   23.3707  -18.9148  -13.1080 O   0  0  0  0  0  0  0  0  0  0  0  0
   25.2827  -22.0646   -9.9689 O   0  0  0  0  0  0  0  0  0  0  0  0
   22.1802  -20.8675  -13.2532 N   0  0  0  0  0  0  0  0  0  0  0  0
   20.9128  -20.1220  -13.1713 C   0  0  1  0  0  0  0  0  0  0  0  0
   20.7585  -19.3098  -14.4617 C   0  0  0  0  0  0  0  0  0  0  0  0
   19.4770  -18.6188  -14.5708 C   0  0  0  0  0  0  0  0  0  0  0  0
   18.9950  -17.9660  -13.6294 O   0  0  0  0  0  0  0  0  0  0  0  0
   19.8361  -21.1008  -12.9919 C   0  0  0  0  0  0  0  0  0  0  0  0
   19.9209  -22.2707  -13.3793 O   0  0  0  0  0  0  0  0  0  0  0  0
   18.7313  -18.6608  -15.7467 O   0  0  0  0  0  0  0  0  0  0  0  0
   18.6481  -20.7317  -12.3593 O   0  0  0  0  0  0  0  0  0  0  0  0
  2  1  1  6
  2 13  1  0
  2  3  1  0
  3  4  1  0
  4  5  2  0
  5  6  1  0
  7  6  1  0
  8  7  2  0
  9  8  1  0
 10 11  1  0
 10  9  2  0
 11 12  2  0
 12  4  1  0
 12  7  1  0
 13 15  1  0
 14 13  2  0
 15 16  1  0
 16 17  1  1
 17 18  1  0
 18 19  2  0
 18 22  1  0
 20 16  1  0
 21 20  2  0
 23 20  1  0
 24 23  1  0
 24 25  1  6
 26 25  1  0
 26 27  2  0
 28 24  1  0
 28 31  1  0
 29 28  2  0
 30 26  1  0
M  END
$$$$
