WDD.pdb
     RDKit          3D

 31 32  0  0  1  0  0  0  0  0999 V2000
   29.3572  -35.9134   -6.8142 N   0  0  0  0  0  0  0  0  0  0  0  0
   28.5392  -35.1873   -5.8271 C   0  0  1  0  0  0  0  0  0  0  0  0
   27.0737  -35.2505   -6.2614 C   0  0  0  0  0  0  0  0  0  0  0  0
   26.8942  -34.2181   -7.3198 C   0  0  0  0  0  0  0  0  0  0  0  0
   27.5080  -34.2050   -8.5638 C   0  0  0  0  0  0  0  0  0  0  0  0
   27.0971  -33.1186   -9.1960 N   0  0  0  0  0  0  0  0  0  0  0  0
   26.2385  -32.4211   -8.4136 C   0  0  0  0  0  0  0  0  0  0  0  0
   25.5239  -31.2423   -8.5637 C   0  0  0  0  0  0  0  0  0  0  0  0
   24.7243  -30.8180   -7.5380 C   0  0  0  0  0  0  0  0  0  0  0  0
   24.5902  -31.5085   -6.3476 C   0  0  0  0  0  0  0  0  0  0  0  0
   25.2904  -32.6712   -6.1897 C   0  0  0  0  0  0  0  0  0  0  0  0
   26.1066  -33.1135   -7.2247 C   0  0  0  0  0  0  0  0  0  0  0  0
   28.5999  -35.9096   -4.5352 C   0  0  0  0  0  0  0  0  0  0  0  0
   28.3832  -37.1365   -4.5245 O   0  0  0  0  0  0  0  0  0  0  0  0
   28.8988  -35.2103   -3.3517 N   0  0  0  0  0  0  0  0  0  0  0  0
   28.9718  -35.8642   -2.0407 C   0  0  1  0  0  0  0  0  0  0  0  0
   30.3327  -35.4208   -1.4819 C   0  0  0  0  0  0  0  0  0  0  0  0
   31.4653  -36.1932   -1.9780 C   0  0  0  0  0  0  0  0  0  0  0  0
   31.2543  -37.3546   -2.4831 O   0  0  0  0  0  0  0  0  0  0  0  0
   27.9342  -35.3354   -1.1418 C   0  0  0  0  0  0  0  0  0  0  0  0
   27.7923  -34.0625   -1.0466 O   0  0  0  0  0  0  0  0  0  0  0  0
   32.7805  -35.7860   -1.9573 O   0  0  0  0  0  0  0  0  0  0  0  0
   27.0517  -36.1182   -0.3559 N   0  0  0  0  0  0  0  0  0  0  0  0
   25.9715  -35.4849    0.4192 C   0  0  1  0  0  0  0  0  0  0  0  0
   24.9307  -36.5615    0.7452 C   0  0  0  0  0  0  0  0  0  0  0  0
   24.0314  -36.8639   -0.3645 C   0  0  0  0  0  0  0  0  0  0  0  0
   24.0560  -36.2237   -1.4295 O   0  0  0  0  0  0  0  0  0  0  0  0
   26.5742  -34.9040    1.6229 C   0  0  0  0  0  0  0  0  0  0  0  0
   27.6960  -35.2210    2.0317 O   0  0  0  0  0  0  0  0  0  0  0  0
   23.0975  -37.8939   -0.2776 O   0  0  0  0  0  0  0  0  0  0  0  0
   25.8807  -33.9471    2.3651 O   0  0  0  0  0  0  0  0  0  0  0  0
  2  1  1  6
  2 13  1  0
  2  3  1  0
  3  4  1  0
  4  5  2  0
  5  6  1  0
  7  6  1  0
  8  7  2  0
  9  8  1  0
 10 11  1  0
 10  9  2  0
 11 12  2  0
 12  4  1  0
 12  7  1  0
 13 15  1  0
 14 13  2  0
 15 16  1  0
 16 17  1  1
 17 18  1  0
 18 19  2  0
 18 22  1  0
 20 16  1  0
 21 20  2  0
 23 20  1  0
 24 23  1  0
 24 25  1  1
 26 25  1  0
 26 27  2  0
 28 24  1  0
 28 31  1  0
 29 28  2  0
 30 26  1  0
M  END
$$$$
