WDD.pdb
     RDKit          3D

 31 32  0  0  1  0  0  0  0  0999 V2000
   24.6882  -20.7975  -17.2972 N   0  0  0  0  0  0  0  0  0  0  0  0
   23.5406  -19.9764  -16.8738 C   0  0  1  0  0  0  0  0  0  0  0  0
   22.5355  -19.9056  -18.0249 C   0  0  0  0  0  0  0  0  0  0  0  0
   23.0907  -18.9488  -19.0220 C   0  0  0  0  0  0  0  0  0  0  0  0
   24.1682  -19.1777  -19.8653 C   0  0  0  0  0  0  0  0  0  0  0  0
   24.3500  -18.0807  -20.5811 N   0  0  0  0  0  0  0  0  0  0  0  0
   23.4333  -17.1437  -20.2386 C   0  0  0  0  0  0  0  0  0  0  0  0
   23.1641  -15.8484  -20.6537 C   0  0  0  0  0  0  0  0  0  0  0  0
   22.1264  -15.1701  -20.0752 C   0  0  0  0  0  0  0  0  0  0  0  0
   21.3245  -15.7128  -19.0881 C   0  0  0  0  0  0  0  0  0  0  0  0
   21.5817  -16.9886  -18.6718 C   0  0  0  0  0  0  0  0  0  0  0  0
   22.6334  -17.6888  -19.2519 C   0  0  0  0  0  0  0  0  0  0  0  0
   22.8346  -20.6758  -15.7752 C   0  0  0  0  0  0  0  0  0  0  0  0
   22.9443  -21.9137  -15.6855 O   0  0  0  0  0  0  0  0  0  0  0  0
   22.0598  -19.9427  -14.8578 N   0  0  0  0  0  0  0  0  0  0  0  0
   21.3886  -20.5645  -13.7113 C   0  0  1  0  0  0  0  0  0  0  0  0
   21.6649  -19.5953  -12.5514 C   0  0  0  0  0  0  0  0  0  0  0  0
   21.1730  -20.0526  -11.2574 C   0  0  0  0  0  0  0  0  0  0  0  0
   20.7748  -21.2672  -11.1359 O   0  0  0  0  0  0  0  0  0  0  0  0
   19.9328  -20.5959  -13.9205 C   0  0  0  0  0  0  0  0  0  0  0  0
   19.1911  -21.1182  -13.0113 O   0  0  0  0  0  0  0  0  0  0  0  0
   21.0913  -19.2853  -10.1171 O   0  0  0  0  0  0  0  0  0  0  0  0
   19.2551  -20.0866  -15.0565 N   0  0  0  0  0  0  0  0  0  0  0  0
   17.8014  -20.2662  -15.2090 C   0  0  1  0  0  0  0  0  0  0  0  0
   17.4074  -21.5596  -14.4876 C   0  0  0  0  0  0  0  0  0  0  0  0
   15.9948  -21.9020  -14.6257 C   0  0  0  0  0  0  0  0  0  0  0  0
   15.5771  -22.6316  -15.5411 O   0  0  0  0  0  0  0  0  0  0  0  0
   17.1485  -19.0840  -14.6385 C   0  0  0  0  0  0  0  0  0  0  0  0
   15.9851  -18.7654  -14.9051 O   0  0  0  0  0  0  0  0  0  0  0  0
   15.0438  -21.4214  -13.7282 O   0  0  0  0  0  0  0  0  0  0  0  0
   17.8396  -18.2585  -13.7505 O   0  0  0  0  0  0  0  0  0  0  0  0
  2  1  1  6
  2 13  1  0
  2  3  1  0
  3  4  1  0
  4  5  2  0
  5  6  1  0
  7  6  1  0
  8  7  2  0
  9  8  1  0
 10 11  1  0
 10  9  2  0
 11 12  2  0
 12  4  1  0
 12  7  1  0
 13 15  1  0
 14 13  2  0
 15 16  1  0
 16 17  1  1
 17 18  1  0
 18 19  2  0
 18 22  1  0
 20 16  1  0
 21 20  2  0
 23 20  1  0
 24 23  1  0
 24 25  1  1
 26 25  1  0
 26 27  2  0
 28 24  1  0
 28 31  1  0
 29 28  2  0
 30 26  1  0
M  END
$$$$
