WDD.pdb
     RDKit          3D

 31 32  0  0  1  0  0  0  0  0999 V2000
   28.1430  -21.8739  -14.5586 N   0  0  0  0  0  0  0  0  0  0  0  0
   26.9854  -21.7909  -13.6510 C   0  0  1  0  0  0  0  0  0  0  0  0
   26.9906  -20.4200  -12.9719 C   0  0  0  0  0  0  0  0  0  0  0  0
   27.9216  -20.5178  -11.8135 C   0  0  0  0  0  0  0  0  0  0  0  0
   29.3075  -20.5209  -11.8744 C   0  0  0  0  0  0  0  0  0  0  0  0
   29.7573  -20.6369  -10.6361 N   0  0  0  0  0  0  0  0  0  0  0  0
   28.7193  -20.7096   -9.7684 C   0  0  0  0  0  0  0  0  0  0  0  0
   28.6088  -20.8342   -8.3919 C   0  0  0  0  0  0  0  0  0  0  0  0
   27.3626  -20.8760   -7.8290 C   0  0  0  0  0  0  0  0  0  0  0  0
   26.1960  -20.8008   -8.5673 C   0  0  0  0  0  0  0  0  0  0  0  0
   26.2941  -20.6781   -9.9247 C   0  0  0  0  0  0  0  0  0  0  0  0
   27.5549  -20.6342  -10.5091 C   0  0  0  0  0  0  0  0  0  0  0  0
   25.7441  -21.8270  -14.4585 C   0  0  0  0  0  0  0  0  0  0  0  0
   25.7326  -21.2543  -15.5649 O   0  0  0  0  0  0  0  0  0  0  0  0
   24.6083  -22.5002  -13.9727 N   0  0  0  0  0  0  0  0  0  0  0  0
   23.4077  -22.7197  -14.7864 C   0  0  1  0  0  0  0  0  0  0  0  0
   23.3441  -24.2466  -14.9465 C   0  0  0  0  0  0  0  0  0  0  0  0
   22.2459  -24.7169  -15.7822 C   0  0  0  0  0  0  0  0  0  0  0  0
   21.8195  -25.9187  -15.6328 O   0  0  0  0  0  0  0  0  0  0  0  0
   22.2030  -22.3044  -14.0512 C   0  0  0  0  0  0  0  0  0  0  0  0
   22.0561  -22.6979  -12.8376 O   0  0  0  0  0  0  0  0  0  0  0  0
   21.6010  -23.9748  -16.7463 O   0  0  0  0  0  0  0  0  0  0  0  0
   21.1669  -21.4866  -14.5677 N   0  0  0  0  0  0  0  0  0  0  0  0
   20.0007  -21.1366  -13.7394 C   0  0  1  0  0  0  0  0  0  0  0  0
   19.4236  -19.8194  -14.2691 C   0  0  0  0  0  0  0  0  0  0  0  0
   19.9412  -18.6359  -13.5886 C   0  0  0  0  0  0  0  0  0  0  0  0
   19.7646  -17.4880  -14.0310 O   0  0  0  0  0  0  0  0  0  0  0  0
   19.0455  -22.2451  -13.8313 C   0  0  0  0  0  0  0  0  0  0  0  0
   18.9317  -22.9513  -14.8384 O   0  0  0  0  0  0  0  0  0  0  0  0
   20.6623  -18.7425  -12.4015 O   0  0  0  0  0  0  0  0  0  0  0  0
   18.2120  -22.5466  -12.7534 O   0  0  0  0  0  0  0  0  0  0  0  0
  2  1  1  6
  2 13  1  0
  2  3  1  0
  3  4  1  0
  4  5  2  0
  5  6  1  0
  7  6  1  0
  8  7  2  0
  9  8  1  0
 10 11  1  0
 10  9  2  0
 11 12  2  0
 12  4  1  0
 12  7  1  0
 13 15  1  0
 14 13  2  0
 15 16  1  0
 16 17  1  1
 17 18  1  0
 18 19  2  0
 18 22  1  0
 20 16  1  0
 21 20  2  0
 23 20  1  0
 24 23  1  0
 24 25  1  6
 26 25  1  0
 26 27  2  0
 28 24  1  0
 28 31  1  0
 29 28  2  0
 30 26  1  0
M  END
$$$$
