WDD.pdb
     RDKit          3D

 31 32  0  0  1  0  0  0  0  0999 V2000
   27.4238  -22.0308  -14.4070 N   0  0  0  0  0  0  0  0  0  0  0  0
   26.3687  -21.8511  -13.3945 C   0  0  1  0  0  0  0  0  0  0  0  0
   26.5020  -20.4528  -12.7885 C   0  0  0  0  0  0  0  0  0  0  0  0
   27.5367  -20.5439  -11.7211 C   0  0  0  0  0  0  0  0  0  0  0  0
   28.9057  -20.6576  -11.9148 C   0  0  0  0  0  0  0  0  0  0  0  0
   29.4696  -20.7244  -10.7205 N   0  0  0  0  0  0  0  0  0  0  0  0
   28.5227  -20.6589   -9.7538 C   0  0  0  0  0  0  0  0  0  0  0  0
   28.5441  -20.6821   -8.3676 C   0  0  0  0  0  0  0  0  0  0  0  0
   27.3617  -20.5902   -7.6857 C   0  0  0  0  0  0  0  0  0  0  0  0
   26.1342  -20.4753   -8.3117 C   0  0  0  0  0  0  0  0  0  0  0  0
   26.1022  -20.4517   -9.6776 C   0  0  0  0  0  0  0  0  0  0  0  0
   27.2971  -20.5441  -10.3824 C   0  0  0  0  0  0  0  0  0  0  0  0
   25.0516  -21.8639  -14.0725 C   0  0  0  0  0  0  0  0  0  0  0  0
   24.9120  -21.2072  -15.1220 O   0  0  0  0  0  0  0  0  0  0  0  0
   23.9886  -22.6091  -13.5302 N   0  0  0  0  0  0  0  0  0  0  0  0
   22.7628  -22.9040  -14.2800 C   0  0  1  0  0  0  0  0  0  0  0  0
   22.8027  -24.4284  -14.4681 C   0  0  0  0  0  0  0  0  0  0  0  0
   23.5994  -24.8718  -15.6058 C   0  0  0  0  0  0  0  0  0  0  0  0
   23.8831  -26.1189  -15.7197 O   0  0  0  0  0  0  0  0  0  0  0  0
   21.5749  -22.5920  -13.4702 C   0  0  0  0  0  0  0  0  0  0  0  0
   21.5817  -22.8991  -12.2232 O   0  0  0  0  0  0  0  0  0  0  0  0
   24.0927  -24.0584  -16.6013 O   0  0  0  0  0  0  0  0  0  0  0  0
   20.3972  -21.9643  -13.9478 N   0  0  0  0  0  0  0  0  0  0  0  0
   19.3022  -21.6180  -13.0260 C   0  0  1  0  0  0  0  0  0  0  0  0
   18.5871  -20.3832  -13.5852 C   0  0  0  0  0  0  0  0  0  0  0  0
   18.2169  -20.5061  -14.9922 C   0  0  0  0  0  0  0  0  0  0  0  0
   18.4688  -21.5262  -15.6560 O   0  0  0  0  0  0  0  0  0  0  0  0
   18.4186  -22.7842  -12.9326 C   0  0  0  0  0  0  0  0  0  0  0  0
   18.4540  -23.7195  -13.7388 O   0  0  0  0  0  0  0  0  0  0  0  0
   17.5581  -19.4753  -15.6586 O   0  0  0  0  0  0  0  0  0  0  0  0
   17.4838  -22.8776  -11.9006 O   0  0  0  0  0  0  0  0  0  0  0  0
  2  1  1  6
  2 13  1  0
  2  3  1  0
  3  4  1  0
  4  5  2  0
  5  6  1  0
  7  6  1  0
  8  7  2  0
  9  8  1  0
 10 11  1  0
 10  9  2  0
 11 12  2  0
 12  4  1  0
 12  7  1  0
 13 15  1  0
 14 13  2  0
 15 16  1  0
 16 17  1  1
 17 18  1  0
 18 19  2  0
 18 22  1  0
 20 16  1  0
 21 20  2  0
 23 20  1  0
 24 23  1  0
 24 25  1  6
 26 25  1  0
 26 27  2  0
 28 24  1  0
 28 31  1  0
 29 28  2  0
 30 26  1  0
M  END
$$$$
