WDD.pdb
     RDKit          3D

 31 32  0  0  1  0  0  0  0  0999 V2000
   25.6348  -19.1764  -18.3230 N   0  0  0  0  0  0  0  0  0  0  0  0
   26.1301  -18.4800  -17.1228 C   0  0  1  0  0  0  0  0  0  0  0  0
   25.1305  -17.3867  -16.7412 C   0  0  0  0  0  0  0  0  0  0  0  0
   25.0766  -16.4352  -17.8857 C   0  0  0  0  0  0  0  0  0  0  0  0
   23.9327  -15.8592  -18.4191 C   0  0  0  0  0  0  0  0  0  0  0  0
   24.3103  -15.0907  -19.4268 N   0  0  0  0  0  0  0  0  0  0  0  0
   25.6562  -15.1418  -19.5730 C   0  0  0  0  0  0  0  0  0  0  0  0
   26.5638  -14.5531  -20.4403 C   0  0  0  0  0  0  0  0  0  0  0  0
   27.8949  -14.8348  -20.2967 C   0  0  0  0  0  0  0  0  0  0  0  0
   28.3878  -15.6843  -19.3236 C   0  0  0  0  0  0  0  0  0  0  0  0
   27.5015  -16.2697  -18.4639 C   0  0  0  0  0  0  0  0  0  0  0  0
   26.1460  -15.9916  -18.5991 C   0  0  0  0  0  0  0  0  0  0  0  0
   26.1289  -19.4305  -15.9866 C   0  0  0  0  0  0  0  0  0  0  0  0
   25.2556  -20.3184  -15.9497 O   0  0  0  0  0  0  0  0  0  0  0  0
   27.1023  -19.3210  -14.9768 N   0  0  0  0  0  0  0  0  0  0  0  0
   27.1843  -20.2556  -13.8492 C   0  0  1  0  0  0  0  0  0  0  0  0
   28.5226  -19.9089  -13.1787 C   0  0  0  0  0  0  0  0  0  0  0  0
   28.8584  -20.7526  -12.0381 C   0  0  0  0  0  0  0  0  0  0  0  0
   28.0295  -21.6613  -11.6696 O   0  0  0  0  0  0  0  0  0  0  0  0
   26.1192  -19.9806  -12.8725 C   0  0  0  0  0  0  0  0  0  0  0  0
   25.9177  -18.7661  -12.5066 O   0  0  0  0  0  0  0  0  0  0  0  0
   30.0139  -20.6675  -11.2941 O   0  0  0  0  0  0  0  0  0  0  0  0
   25.2704  -20.9534  -12.2872 N   0  0  0  0  0  0  0  0  0  0  0  0
   24.2244  -20.5603  -11.3281 C   0  0  1  0  0  0  0  0  0  0  0  0
   22.8725  -21.0084  -11.8940 C   0  0  0  0  0  0  0  0  0  0  0  0
   21.7457  -20.7388  -11.0055 C   0  0  0  0  0  0  0  0  0  0  0  0
   21.2540  -19.6036  -10.8862 O   0  0  0  0  0  0  0  0  0  0  0  0
   24.5370  -21.2013  -10.0471 C   0  0  0  0  0  0  0  0  0  0  0  0
   25.3681  -22.1084   -9.9355 O   0  0  0  0  0  0  0  0  0  0  0  0
   21.1663  -21.7524  -10.2455 O   0  0  0  0  0  0  0  0  0  0  0  0
   23.8879  -20.7949   -8.8804 O   0  0  0  0  0  0  0  0  0  0  0  0
  2  1  1  6
  2 13  1  0
  2  3  1  0
  3  4  1  0
  4  5  2  0
  5  6  1  0
  7  6  1  0
  8  7  2  0
  9  8  1  0
 10 11  1  0
 10  9  2  0
 11 12  2  0
 12  4  1  0
 12  7  1  0
 13 15  1  0
 14 13  2  0
 15 16  1  0
 16 17  1  1
 17 18  1  0
 18 19  2  0
 18 22  1  0
 20 16  1  0
 21 20  2  0
 23 20  1  0
 24 23  1  0
 24 25  1  6
 26 25  1  0
 26 27  2  0
 28 24  1  0
 28 31  1  0
 29 28  2  0
 30 26  1  0
M  END
$$$$
