WDD.pdb
     RDKit          3D

 31 32  0  0  1  0  0  0  0  0999 V2000
   27.6917  -19.9918  -11.9647 N   0  0  0  0  0  0  0  0  0  0  0  0
   26.7313  -21.0222  -12.3969 C   0  0  1  0  0  0  0  0  0  0  0  0
   26.5253  -22.0139  -11.2504 C   0  0  0  0  0  0  0  0  0  0  0  0
   26.5387  -21.2217   -9.9893 C   0  0  0  0  0  0  0  0  0  0  0  0
   25.4568  -20.5616   -9.4250 C   0  0  0  0  0  0  0  0  0  0  0  0
   25.8860  -19.9692   -8.3233 N   0  0  0  0  0  0  0  0  0  0  0  0
   27.2063  -20.2163   -8.1456 C   0  0  0  0  0  0  0  0  0  0  0  0
   28.1433  -19.8568   -7.1888 C   0  0  0  0  0  0  0  0  0  0  0  0
   29.4308  -20.2989   -7.3244 C   0  0  0  0  0  0  0  0  0  0  0  0
   29.8516  -21.0923   -8.3757 C   0  0  0  0  0  0  0  0  0  0  0  0
   28.9359  -21.4519   -9.3241 C   0  0  0  0  0  0  0  0  0  0  0  0
   27.6240  -21.0093   -9.1977 C   0  0  0  0  0  0  0  0  0  0  0  0
   25.4116  -20.3836  -12.6088 C   0  0  0  0  0  0  0  0  0  0  0  0
   24.9401  -19.6687  -11.7038 O   0  0  0  0  0  0  0  0  0  0  0  0
   24.7164  -20.5888  -13.8146 N   0  0  0  0  0  0  0  0  0  0  0  0
   23.4089  -19.9833  -14.0894 C   0  0  1  0  0  0  0  0  0  0  0  0
   23.5180  -19.5154  -15.5489 C   0  0  0  0  0  0  0  0  0  0  0  0
   22.3616  -18.7673  -16.0270 C   0  0  0  0  0  0  0  0  0  0  0  0
   21.3969  -18.5250  -15.2151 O   0  0  0  0  0  0  0  0  0  0  0  0
   22.3471  -20.9999  -14.0319 C   0  0  0  0  0  0  0  0  0  0  0  0
   22.5577  -22.1419  -14.5806 O   0  0  0  0  0  0  0  0  0  0  0  0
   22.1977  -18.2798  -17.3043 O   0  0  0  0  0  0  0  0  0  0  0  0
   21.0851  -20.8350  -13.4081 N   0  0  0  0  0  0  0  0  0  0  0  0
   20.0801  -21.9107  -13.4468 C   0  0  1  0  0  0  0  0  0  0  0  0
   19.2262  -21.8048  -12.1786 C   0  0  0  0  0  0  0  0  0  0  0  0
   18.1267  -22.7642  -12.1293 C   0  0  0  0  0  0  0  0  0  0  0  0
   18.3056  -23.9843  -12.2843 O   0  0  0  0  0  0  0  0  0  0  0  0
   19.2920  -21.7346  -14.6705 C   0  0  0  0  0  0  0  0  0  0  0  0
   18.9350  -20.6271  -15.0853 O   0  0  0  0  0  0  0  0  0  0  0  0
   16.8159  -22.3499  -11.9037 O   0  0  0  0  0  0  0  0  0  0  0  0
   18.9104  -22.8434  -15.4271 O   0  0  0  0  0  0  0  0  0  0  0  0
  2  1  1  1
  2 13  1  0
  2  3  1  0
  3  4  1  0
  4  5  2  0
  5  6  1  0
  7  6  1  0
  8  7  2  0
  9  8  1  0
 10 11  1  0
 10  9  2  0
 11 12  2  0
 12  4  1  0
 12  7  1  0
 13 15  1  0
 14 13  2  0
 15 16  1  0
 16 17  1  6
 17 18  1  0
 18 19  2  0
 18 22  1  0
 20 16  1  0
 21 20  2  0
 23 20  1  0
 24 23  1  0
 24 25  1  1
 26 25  1  0
 26 27  2  0
 28 24  1  0
 28 31  1  0
 29 28  2  0
 30 26  1  0
M  END
$$$$
