WDD.pdb
     RDKit          3D

 31 32  0  0  1  0  0  0  0  0999 V2000
   28.4361  -21.3292  -10.5933 N   0  0  0  0  0  0  0  0  0  0  0  0
   27.0918  -21.0722  -10.0478 C   0  0  1  0  0  0  0  0  0  0  0  0
   27.1486  -19.8208   -9.1697 C   0  0  0  0  0  0  0  0  0  0  0  0
   28.2298  -20.0457   -8.1704 C   0  0  0  0  0  0  0  0  0  0  0  0
   29.4959  -20.5486   -8.4325 C   0  0  0  0  0  0  0  0  0  0  0  0
   30.1442  -20.6068   -7.2813 N   0  0  0  0  0  0  0  0  0  0  0  0
   29.3513  -20.1615   -6.2770 C   0  0  0  0  0  0  0  0  0  0  0  0
   29.5094  -20.0065   -4.9083 C   0  0  0  0  0  0  0  0  0  0  0  0
   28.4674  -19.5103   -4.1736 C   0  0  0  0  0  0  0  0  0  0  0  0
   27.2528  -19.1524   -4.7290 C   0  0  0  0  0  0  0  0  0  0  0  0
   27.0868  -19.3016   -6.0771 C   0  0  0  0  0  0  0  0  0  0  0  0
   28.1381  -19.8047   -6.8351 C   0  0  0  0  0  0  0  0  0  0  0  0
   26.1823  -20.7295  -11.1656 C   0  0  0  0  0  0  0  0  0  0  0  0
   26.3821  -19.6750  -11.7984 O   0  0  0  0  0  0  0  0  0  0  0  0
   25.1182  -21.5887  -11.4954 N   0  0  0  0  0  0  0  0  0  0  0  0
   24.2762  -21.3903  -12.6800 C   0  0  1  0  0  0  0  0  0  0  0  0
   24.2137  -22.7829  -13.3263 C   0  0  0  0  0  0  0  0  0  0  0  0
   25.3196  -23.0749  -14.2304 C   0  0  0  0  0  0  0  0  0  0  0  0
   25.6494  -24.2985  -14.4369 O   0  0  0  0  0  0  0  0  0  0  0  0
   22.9065  -21.0274  -12.2846 C   0  0  0  0  0  0  0  0  0  0  0  0
   22.3890  -21.6018  -11.2590 O   0  0  0  0  0  0  0  0  0  0  0  0
   26.0684  -22.1372  -14.9057 O   0  0  0  0  0  0  0  0  0  0  0  0
   22.0865  -20.0766  -12.9423 N   0  0  0  0  0  0  0  0  0  0  0  0
   20.7126  -19.8188  -12.4788 C   0  0  1  0  0  0  0  0  0  0  0  0
   20.1966  -18.5704  -13.2025 C   0  0  0  0  0  0  0  0  0  0  0  0
   18.8083  -18.2430  -12.8910 C   0  0  0  0  0  0  0  0  0  0  0  0
   18.1850  -18.8064  -11.9752 O   0  0  0  0  0  0  0  0  0  0  0  0
   19.9147  -21.0116  -12.7788 C   0  0  0  0  0  0  0  0  0  0  0  0
   19.0089  -21.4160  -12.0425 O   0  0  0  0  0  0  0  0  0  0  0  0
   18.1147  -17.2747  -13.6136 O   0  0  0  0  0  0  0  0  0  0  0  0
   20.1594  -21.7482  -13.9386 O   0  0  0  0  0  0  0  0  0  0  0  0
  2  1  1  6
  2 13  1  0
  2  3  1  0
  3  4  1  0
  4  5  2  0
  5  6  1  0
  7  6  1  0
  8  7  2  0
  9  8  1  0
 10 11  1  0
 10  9  2  0
 11 12  2  0
 12  4  1  0
 12  7  1  0
 13 15  1  0
 14 13  2  0
 15 16  1  0
 16 17  1  1
 17 18  1  0
 18 19  2  0
 18 22  1  0
 20 16  1  0
 21 20  2  0
 23 20  1  0
 24 23  1  0
 24 25  1  6
 26 25  1  0
 26 27  2  0
 28 24  1  0
 28 31  1  0
 29 28  2  0
 30 26  1  0
M  END
$$$$
