WDD.pdb
     RDKit          3D

 31 32  0  0  1  0  0  0  0  0999 V2000
   19.8930  -12.8665  -16.1457 N   0  0  0  0  0  0  0  0  0  0  0  0
   19.7263  -11.6929  -17.0207 C   0  0  1  0  0  0  0  0  0  0  0  0
   18.4231  -10.9834  -16.6485 C   0  0  0  0  0  0  0  0  0  0  0  0
   17.3125  -11.9082  -17.0082 C   0  0  0  0  0  0  0  0  0  0  0  0
   17.0388  -13.1306  -16.4123 C   0  0  0  0  0  0  0  0  0  0  0  0
   15.9855  -13.6428  -17.0265 N   0  0  0  0  0  0  0  0  0  0  0  0
   15.5601  -12.8027  -18.0006 C   0  0  0  0  0  0  0  0  0  0  0  0
   14.5301  -12.8310  -18.9284 C   0  0  0  0  0  0  0  0  0  0  0  0
   14.3857  -11.7776  -19.7893 C   0  0  0  0  0  0  0  0  0  0  0  0
   15.2212  -10.6759  -19.7838 C   0  0  0  0  0  0  0  0  0  0  0  0
   16.2395  -10.6385  -18.8734 C   0  0  0  0  0  0  0  0  0  0  0  0
   16.3970  -11.7027  -17.9927 C   0  0  0  0  0  0  0  0  0  0  0  0
   20.8041  -10.7210  -16.7235 C   0  0  0  0  0  0  0  0  0  0  0  0
   21.2001  -10.6070  -15.5477 O   0  0  0  0  0  0  0  0  0  0  0  0
   21.3608   -9.9495  -17.7598 N   0  0  0  0  0  0  0  0  0  0  0  0
   22.4275   -8.9684  -17.5333 C   0  0  1  0  0  0  0  0  0  0  0  0
   23.3146   -9.0924  -18.7818 C   0  0  0  0  0  0  0  0  0  0  0  0
   24.4821   -8.2192  -18.7772 C   0  0  0  0  0  0  0  0  0  0  0  0
   24.6901   -7.4621  -17.7614 O   0  0  0  0  0  0  0  0  0  0  0  0
   21.8787   -7.6036  -17.5179 C   0  0  0  0  0  0  0  0  0  0  0  0
   21.2542   -7.1793  -18.5569 O   0  0  0  0  0  0  0  0  0  0  0  0
   25.4128   -8.1243  -19.7876 O   0  0  0  0  0  0  0  0  0  0  0  0
   21.9721   -6.6930  -16.4357 N   0  0  0  0  0  0  0  0  0  0  0  0
   20.9051   -5.7094  -16.1854 C   0  0  1  0  0  0  0  0  0  0  0  0
   19.5720   -6.4632  -16.1291 C   0  0  0  0  0  0  0  0  0  0  0  0
   18.4557   -5.6475  -15.6594 C   0  0  0  0  0  0  0  0  0  0  0  0
   18.4250   -4.4150  -15.8160 O   0  0  0  0  0  0  0  0  0  0  0  0
   21.2189   -5.0290  -14.9253 C   0  0  0  0  0  0  0  0  0  0  0  0
   20.4955   -4.1555  -14.4358 O   0  0  0  0  0  0  0  0  0  0  0  0
   17.3653   -6.2209  -15.0092 O   0  0  0  0  0  0  0  0  0  0  0  0
   22.3769   -5.3564  -14.2185 O   0  0  0  0  0  0  0  0  0  0  0  0
  2  1  1  1
  2 13  1  0
  2  3  1  0
  3  4  1  0
  4  5  2  0
  5  6  1  0
  7  6  1  0
  8  7  2  0
  9  8  1  0
 10 11  1  0
 10  9  2  0
 11 12  2  0
 12  4  1  0
 12  7  1  0
 13 15  1  0
 14 13  2  0
 15 16  1  0
 16 17  1  6
 17 18  1  0
 18 19  2  0
 18 22  1  0
 20 16  1  0
 21 20  2  0
 23 20  1  0
 24 23  1  0
 24 25  1  1
 26 25  1  0
 26 27  2  0
 28 24  1  0
 28 31  1  0
 29 28  2  0
 30 26  1  0
M  END
$$$$
