WDD.pdb
     RDKit          3D

 31 32  0  0  1  0  0  0  0  0999 V2000
   25.8961  -22.6930  -13.1485 N   0  0  0  0  0  0  0  0  0  0  0  0
   25.2503  -21.5885  -12.4180 C   0  0  1  0  0  0  0  0  0  0  0  0
   26.0506  -20.3068  -12.6570 C   0  0  0  0  0  0  0  0  0  0  0  0
   27.3379  -20.4610  -11.9242 C   0  0  0  0  0  0  0  0  0  0  0  0
   28.6066  -20.4495  -12.4854 C   0  0  0  0  0  0  0  0  0  0  0  0
   29.4745  -20.6302  -11.5041 N   0  0  0  0  0  0  0  0  0  0  0  0
   28.8226  -20.7594  -10.3234 C   0  0  0  0  0  0  0  0  0  0  0  0
   29.2190  -20.9611   -9.0101 C   0  0  0  0  0  0  0  0  0  0  0  0
   28.2626  -21.0443   -8.0354 C   0  0  0  0  0  0  0  0  0  0  0  0
   26.9084  -20.9378   -8.2932 C   0  0  0  0  0  0  0  0  0  0  0  0
   26.5074  -20.7392   -9.5843 C   0  0  0  0  0  0  0  0  0  0  0  0
   27.4695  -20.6526  -10.5842 C   0  0  0  0  0  0  0  0  0  0  0  0
   23.9174  -21.3389  -13.0142 C   0  0  0  0  0  0  0  0  0  0  0  0
   23.6907  -21.7513  -14.1678 O   0  0  0  0  0  0  0  0  0  0  0  0
   22.9360  -20.6490  -12.2792 N   0  0  0  0  0  0  0  0  0  0  0  0
   21.5359  -20.5652  -12.7086 C   0  0  1  0  0  0  0  0  0  0  0  0
   20.8115  -19.9685  -11.4920 C   0  0  0  0  0  0  0  0  0  0  0  0
   19.3646  -19.8723  -11.6431 C   0  0  0  0  0  0  0  0  0  0  0  0
   18.8193  -20.3165  -12.7173 O   0  0  0  0  0  0  0  0  0  0  0  0
   21.3926  -19.6095  -13.8177 C   0  0  0  0  0  0  0  0  0  0  0  0
   21.9115  -18.4411  -13.6946 O   0  0  0  0  0  0  0  0  0  0  0  0
   18.4986  -19.3347  -10.7174 O   0  0  0  0  0  0  0  0  0  0  0  0
   20.7241  -19.8653  -15.0411 N   0  0  0  0  0  0  0  0  0  0  0  0
   20.6886  -18.8490  -16.1062 C   0  0  1  0  0  0  0  0  0  0  0  0
   20.9923  -19.5478  -17.4359 C   0  0  0  0  0  0  0  0  0  0  0  0
   20.8915  -18.6690  -18.5975 C   0  0  0  0  0  0  0  0  0  0  0  0
   20.6320  -17.4582  -18.4907 O   0  0  0  0  0  0  0  0  0  0  0  0
   19.3574  -18.2349  -16.0860 C   0  0  0  0  0  0  0  0  0  0  0  0
   18.3267  -18.8743  -15.8516 O   0  0  0  0  0  0  0  0  0  0  0  0
   21.0841  -19.1538  -19.8892 O   0  0  0  0  0  0  0  0  0  0  0  0
   19.2084  -16.8702  -16.3371 O   0  0  0  0  0  0  0  0  0  0  0  0
  2  1  1  6
  2 13  1  0
  2  3  1  0
  3  4  1  0
  4  5  2  0
  5  6  1  0
  7  6  1  0
  8  7  2  0
  9  8  1  0
 10 11  1  0
 10  9  2  0
 11 12  2  0
 12  4  1  0
 12  7  1  0
 13 15  1  0
 14 13  2  0
 15 16  1  0
 16 17  1  1
 17 18  1  0
 18 19  2  0
 18 22  1  0
 20 16  1  0
 21 20  2  0
 23 20  1  0
 24 23  1  0
 24 25  1  6
 26 25  1  0
 26 27  2  0
 28 24  1  0
 28 31  1  0
 29 28  2  0
 30 26  1  0
M  END
$$$$
