LFH.pdb
     RDKit          3D

 30 31  0  0  1  0  0  0  0  0999 V2000
    6.2385  -13.4049   19.9890 C   0  0  0  0  0  0  0  0  0  0  0  0
    7.6566  -13.5217   19.5217 C   0  0  1  0  0  0  0  0  0  0  0  0
    8.0179  -12.2554   18.7754 C   0  0  0  0  0  0  0  0  0  0  0  0
    8.5825  -13.7702   20.6838 C   0  0  0  0  0  0  0  0  0  0  0  0
    8.4939  -15.1617   21.2158 C   0  0  2  0  0  0  0  0  0  0  0  0
    7.0989  -15.5515   21.2720 N   0  0  0  0  0  0  0  0  0  0  0  0
    9.0892  -15.1752   22.5934 C   0  0  0  0  0  0  0  0  0  0  0  0
   10.2865  -14.7869   22.7790 O   0  0  0  0  0  0  0  0  0  0  0  0
    8.3303  -15.6202   23.7106 N   0  0  0  0  0  0  0  0  0  0  0  0
    8.9099  -15.5690   25.0116 C   0  0  1  0  0  0  0  0  0  0  0  0
    7.9257  -15.3025   26.1090 C   0  0  0  0  0  0  0  0  0  0  0  0
    7.4922  -13.9153   26.2065 C   0  0  0  0  0  0  0  0  0  0  0  0
    8.3613  -12.9007   26.5209 C   0  0  0  0  0  0  0  0  0  0  0  0
    7.9455  -11.5769   26.6130 C   0  0  0  0  0  0  0  0  0  0  0  0
    6.6360  -11.2610   26.3867 C   0  0  0  0  0  0  0  0  0  0  0  0
    5.7329  -12.2618   26.0672 C   0  0  0  0  0  0  0  0  0  0  0  0
    6.1762  -13.5819   25.9811 C   0  0  0  0  0  0  0  0  0  0  0  0
    9.6339  -16.8541   25.3230 C   0  0  0  0  0  0  0  0  0  0  0  0
    9.0768  -17.9671   25.1784 O   0  0  0  0  0  0  0  0  0  0  0  0
   10.9779  -16.8393   25.7930 N   0  0  0  0  0  0  0  0  0  0  0  0
   11.7142  -18.0694   26.0862 C   0  0  1  0  0  0  0  0  0  0  0  0
   13.1781  -17.8955   25.9059 C   0  0  0  0  0  0  0  0  0  0  0  0
   13.4772  -17.3617   24.5618 C   0  0  0  0  0  0  0  0  0  0  0  0
   12.7932  -17.4801   23.3684 C   0  0  0  0  0  0  0  0  0  0  0  0
   13.4815  -16.8319   22.4173 N   0  0  0  0  0  0  0  0  0  0  0  0
   14.5838  -16.3001   22.9528 C   0  0  0  0  0  0  0  0  0  0  0  0
   14.5719  -16.6277   24.2565 N   0  0  0  0  0  0  0  0  0  0  0  0
   11.3391  -18.6016   27.4116 C   0  0  0  0  0  0  0  0  0  0  0  0
   11.8839  -19.8091   27.8259 O   0  0  0  0  0  0  0  0  0  0  0  0
   10.5535  -18.0215   28.1861 O   0  0  0  0  0  0  0  0  0  0  0  0
  2  3  1  1
  2  1  1  0
  4  2  1  0
  5  4  1  0
  5  6  1  1
  7  5  1  0
  7  8  2  0
  9  7  1  0
 10  9  1  0
 10 11  1  1
 12 11  1  0
 12 17  1  0
 13 12  2  0
 14 13  1  0
 14 15  2  0
 15 16  1  0
 16 17  2  0
 18 10  1  0
 19 18  2  0
 20 18  1  0
 21 20  1  0
 21 22  1  1
 22 23  1  0
 23 27  1  0
 24 23  2  0
 24 25  1  0
 25 26  1  0
 27 26  2  0
 28 21  1  0
 28 29  1  0
 30 28  2  0
M  END
$$$$
