LFH.pdb
     RDKit          3D

 30 31  0  0  1  0  0  0  0  0999 V2000
    7.4185  -12.5764   17.3803 C   0  0  0  0  0  0  0  0  0  0  0  0
    7.6215  -13.9353   17.9762 C   0  0  1  0  0  0  0  0  0  0  0  0
    8.4067  -14.7747   16.9914 C   0  0  0  0  0  0  0  0  0  0  0  0
    8.3193  -13.8351   19.3076 C   0  0  0  0  0  0  0  0  0  0  0  0
    8.4672  -15.1530   19.9919 C   0  0  2  0  0  0  0  0  0  0  0  0
    7.2286  -15.8929   19.8513 N   0  0  0  0  0  0  0  0  0  0  0  0
    8.7539  -14.8979   21.4428 C   0  0  0  0  0  0  0  0  0  0  0  0
    9.8253  -14.3068   21.7910 O   0  0  0  0  0  0  0  0  0  0  0  0
    7.8382  -15.3102   22.4497 N   0  0  0  0  0  0  0  0  0  0  0  0
    8.0796  -14.9402   23.8047 C   0  0  1  0  0  0  0  0  0  0  0  0
    6.8457  -14.5565   24.5624 C   0  0  0  0  0  0  0  0  0  0  0  0
    7.0996  -13.8436   25.8070 C   0  0  0  0  0  0  0  0  0  0  0  0
    7.3389  -14.5012   26.9876 C   0  0  0  0  0  0  0  0  0  0  0  0
    7.5815  -13.8188   28.1747 C   0  0  0  0  0  0  0  0  0  0  0  0
    7.5850  -12.4529   28.1822 C   0  0  0  0  0  0  0  0  0  0  0  0
    7.3469  -11.7586   27.0071 C   0  0  0  0  0  0  0  0  0  0  0  0
    7.1064  -12.4677   25.8299 C   0  0  0  0  0  0  0  0  0  0  0  0
    8.7665  -16.0577   24.5476 C   0  0  0  0  0  0  0  0  0  0  0  0
    8.2341  -17.1860   24.6644 O   0  0  0  0  0  0  0  0  0  0  0  0
   10.0459  -15.8616   25.1409 N   0  0  0  0  0  0  0  0  0  0  0  0
   10.7270  -16.9176   25.8907 C   0  0  1  0  0  0  0  0  0  0  0  0
   12.2028  -16.8370   25.7453 C   0  0  0  0  0  0  0  0  0  0  0  0
   12.6058  -17.1325   24.3556 C   0  0  0  0  0  0  0  0  0  0  0  0
   11.8856  -17.0995   23.1782 C   0  0  0  0  0  0  0  0  0  0  0  0
   12.6928  -17.4739   22.1749 N   0  0  0  0  0  0  0  0  0  0  0  0
   13.9066  -17.7472   22.6613 C   0  0  0  0  0  0  0  0  0  0  0  0
   13.8434  -17.5366   23.9875 N   0  0  0  0  0  0  0  0  0  0  0  0
   10.2700  -16.9419   27.2947 C   0  0  0  0  0  0  0  0  0  0  0  0
   10.3353  -18.1364   27.9985 O   0  0  0  0  0  0  0  0  0  0  0  0
    9.8249  -15.9404   27.8883 O   0  0  0  0  0  0  0  0  0  0  0  0
  2  3  1  6
  2  1  1  0
  4  2  1  0
  5  4  1  0
  5  6  1  1
  7  5  1  0
  7  8  2  0
  9  7  1  0
 10  9  1  0
 10 11  1  1
 12 11  1  0
 12 17  1  0
 13 12  2  0
 14 13  1  0
 14 15  2  0
 15 16  1  0
 16 17  2  0
 18 10  1  0
 19 18  2  0
 20 18  1  0
 21 20  1  0
 21 22  1  1
 22 23  1  0
 23 27  1  0
 24 23  2  0
 24 25  1  0
 25 26  1  0
 27 26  2  0
 28 21  1  0
 28 29  1  0
 30 28  2  0
M  END
$$$$
