LFH.pdb
     RDKit          3D

 30 31  0  0  1  0  0  0  0  0999 V2000
   12.4122  -17.9397   17.8866 C   0  0  0  0  0  0  0  0  0  0  0  0
   10.9817  -17.7816   18.3006 C   0  0  1  0  0  0  0  0  0  0  0  0
   10.3643  -19.1586   18.4162 C   0  0  0  0  0  0  0  0  0  0  0  0
   10.8823  -17.0131   19.5926 C   0  0  0  0  0  0  0  0  0  0  0  0
    9.4788  -16.8605   20.0766 C   0  0  2  0  0  0  0  0  0  0  0  0
    8.7205  -16.1259   19.0834 N   0  0  0  0  0  0  0  0  0  0  0  0
    9.5095  -16.0989   21.3694 C   0  0  0  0  0  0  0  0  0  0  0  0
   10.6194  -15.7350   21.8738 O   0  0  0  0  0  0  0  0  0  0  0  0
    8.3050  -15.7720   22.0510 N   0  0  0  0  0  0  0  0  0  0  0  0
    8.3726  -15.0500   23.2779 C   0  0  1  0  0  0  0  0  0  0  0  0
    7.1140  -14.3154   23.6249 C   0  0  0  0  0  0  0  0  0  0  0  0
    7.1843  -13.5496   24.8619 C   0  0  0  0  0  0  0  0  0  0  0  0
    6.5282  -13.9437   26.0011 C   0  0  0  0  0  0  0  0  0  0  0  0
    6.5969  -13.2114   27.1813 C   0  0  0  0  0  0  0  0  0  0  0  0
    7.3354  -12.0631   27.2238 C   0  0  0  0  0  0  0  0  0  0  0  0
    8.0100  -11.6374   26.0910 C   0  0  0  0  0  0  0  0  0  0  0  0
    7.9244  -12.3908   24.9199 C   0  0  0  0  0  0  0  0  0  0  0  0
    8.7161  -15.9720   24.4201 C   0  0  0  0  0  0  0  0  0  0  0  0
    7.9277  -16.8731   24.7895 O   0  0  0  0  0  0  0  0  0  0  0  0
    9.9521  -15.8439   25.1152 N   0  0  0  0  0  0  0  0  0  0  0  0
   10.3039  -16.7059   26.2442 C   0  0  1  0  0  0  0  0  0  0  0  0
   11.7417  -17.0779   26.2305 C   0  0  0  0  0  0  0  0  0  0  0  0
   12.0512  -17.9165   25.0549 C   0  0  0  0  0  0  0  0  0  0  0  0
   11.2269  -18.4663   24.0934 C   0  0  0  0  0  0  0  0  0  0  0  0
   11.9820  -19.1707   23.2378 N   0  0  0  0  0  0  0  0  0  0  0  0
   13.2623  -19.0959   23.6117 C   0  0  0  0  0  0  0  0  0  0  0  0
   13.2938  -18.3314   24.7170 N   0  0  0  0  0  0  0  0  0  0  0  0
    9.8582  -16.1082   27.5188 C   0  0  0  0  0  0  0  0  0  0  0  0
    9.9884  -16.8482   28.6859 O   0  0  0  0  0  0  0  0  0  0  0  0
    9.3673  -14.9659   27.6058 O   0  0  0  0  0  0  0  0  0  0  0  0
  2  3  1  1
  2  1  1  0
  4  2  1  0
  5  4  1  0
  5  6  1  6
  7  5  1  0
  7  8  2  0
  9  7  1  0
 10  9  1  0
 10 11  1  1
 12 11  1  0
 12 17  1  0
 13 12  2  0
 14 13  1  0
 14 15  2  0
 15 16  1  0
 16 17  2  0
 18 10  1  0
 19 18  2  0
 20 18  1  0
 21 20  1  0
 21 22  1  1
 22 23  1  0
 23 27  1  0
 24 23  2  0
 24 25  1  0
 25 26  1  0
 27 26  2  0
 28 21  1  0
 28 29  1  0
 30 28  2  0
M  END
$$$$
