LFH.pdb
     RDKit          3D

 30 31  0  0  1  0  0  0  0  0999 V2000
    7.7723  -12.0051   19.1585 C   0  0  0  0  0  0  0  0  0  0  0  0
    7.7697  -13.4705   19.4678 C   0  0  1  0  0  0  0  0  0  0  0  0
    8.3340  -14.2102   18.2739 C   0  0  0  0  0  0  0  0  0  0  0  0
    8.5539  -13.7522   20.7229 C   0  0  0  0  0  0  0  0  0  0  0  0
    8.5632  -15.1972   21.0956 C   0  0  2  0  0  0  0  0  0  0  0  0
    7.2255  -15.7301   20.9295 N   0  0  0  0  0  0  0  0  0  0  0  0
    8.9882  -15.3080   22.5307 C   0  0  0  0  0  0  0  0  0  0  0  0
   10.1567  -14.9490   22.8836 O   0  0  0  0  0  0  0  0  0  0  0  0
    8.0975  -15.8136   23.5173 N   0  0  0  0  0  0  0  0  0  0  0  0
    8.5593  -15.9750   24.8558 C   0  0  1  0  0  0  0  0  0  0  0  0
    7.5136  -15.7207   25.8979 C   0  0  0  0  0  0  0  0  0  0  0  0
    7.2612  -14.3117   26.1676 C   0  0  0  0  0  0  0  0  0  0  0  0
    6.0379  -13.7335   25.9374 C   0  0  0  0  0  0  0  0  0  0  0  0
    5.7988  -12.3882   26.1959 C   0  0  0  0  0  0  0  0  0  0  0  0
    6.8014  -11.6057   26.6939 C   0  0  0  0  0  0  0  0  0  0  0  0
    8.0482  -12.1584   26.9375 C   0  0  0  0  0  0  0  0  0  0  0  0
    8.2615  -13.5109   26.6695 C   0  0  0  0  0  0  0  0  0  0  0  0
    9.1124  -17.3618   25.0648 C   0  0  0  0  0  0  0  0  0  0  0  0
    9.0810  -18.2198   24.1523 O   0  0  0  0  0  0  0  0  0  0  0  0
    9.6886  -17.7376   26.3114 N   0  0  0  0  0  0  0  0  0  0  0  0
   10.9100  -18.5391   26.3950 C   0  0  1  0  0  0  0  0  0  0  0  0
   12.0321  -17.9192   25.6450 C   0  0  0  0  0  0  0  0  0  0  0  0
   12.0585  -18.4064   24.2511 C   0  0  0  0  0  0  0  0  0  0  0  0
   11.2206  -19.2746   23.5800 C   0  0  0  0  0  0  0  0  0  0  0  0
   11.6748  -19.4210   22.3267 N   0  0  0  0  0  0  0  0  0  0  0  0
   12.7744  -18.6798   22.1646 C   0  0  0  0  0  0  0  0  0  0  0  0
   12.9992  -18.0671   23.3398 N   0  0  0  0  0  0  0  0  0  0  0  0
   11.2372  -18.8511   27.8007 C   0  0  0  0  0  0  0  0  0  0  0  0
   10.9189  -17.9236   28.7830 O   0  0  0  0  0  0  0  0  0  0  0  0
   11.7881  -19.9107   28.1575 O   0  0  0  0  0  0  0  0  0  0  0  0
  2  3  1  6
  2  1  1  0
  4  2  1  0
  5  4  1  0
  5  6  1  1
  7  5  1  0
  7  8  2  0
  9  7  1  0
 10  9  1  0
 10 11  1  1
 12 11  1  0
 12 17  1  0
 13 12  2  0
 14 13  1  0
 14 15  2  0
 15 16  1  0
 16 17  2  0
 18 10  1  0
 19 18  2  0
 20 18  1  0
 21 20  1  0
 21 22  1  1
 22 23  1  0
 23 27  1  0
 24 23  2  0
 24 25  1  0
 25 26  1  0
 27 26  2  0
 28 21  1  0
 28 29  1  0
 30 28  2  0
M  END
$$$$
