LFH.pdb
     RDKit          3D

 30 31  0  0  1  0  0  0  0  0999 V2000
    7.1738  -12.7327   17.1704 C   0  0  0  0  0  0  0  0  0  0  0  0
    7.5051  -14.0732   17.7503 C   0  0  1  0  0  0  0  0  0  0  0  0
    8.1904  -14.8980   16.6821 C   0  0  0  0  0  0  0  0  0  0  0  0
    8.3629  -13.9253   18.9799 C   0  0  0  0  0  0  0  0  0  0  0  0
    8.6214  -15.2215   19.6728 C   0  0  2  0  0  0  0  0  0  0  0  0
    7.4610  -16.0754   19.5126 N   0  0  0  0  0  0  0  0  0  0  0  0
    8.8552  -14.9364   21.1276 C   0  0  0  0  0  0  0  0  0  0  0  0
    9.9540  -14.4234   21.5126 O   0  0  0  0  0  0  0  0  0  0  0  0
    7.8584  -15.2329   22.0974 N   0  0  0  0  0  0  0  0  0  0  0  0
    8.0616  -14.8331   23.4502 C   0  0  1  0  0  0  0  0  0  0  0  0
    6.8412  -14.2686   24.1105 C   0  0  0  0  0  0  0  0  0  0  0  0
    7.0776  -13.7031   25.4319 C   0  0  0  0  0  0  0  0  0  0  0  0
    6.7007  -14.3528   26.5806 C   0  0  0  0  0  0  0  0  0  0  0  0
    6.9276  -13.8115   27.8412 C   0  0  0  0  0  0  0  0  0  0  0  0
    7.5429  -12.5975   27.9562 C   0  0  0  0  0  0  0  0  0  0  0  0
    7.9360  -11.9154   26.8161 C   0  0  0  0  0  0  0  0  0  0  0  0
    7.6965  -12.4810   25.5634 C   0  0  0  0  0  0  0  0  0  0  0  0
    8.5589  -15.9904   24.2785 C   0  0  0  0  0  0  0  0  0  0  0  0
    7.9162  -17.0636   24.3505 O   0  0  0  0  0  0  0  0  0  0  0  0
    9.7790  -15.8960   25.0064 N   0  0  0  0  0  0  0  0  0  0  0  0
   10.2936  -17.0043   25.8115 C   0  0  1  0  0  0  0  0  0  0  0  0
   11.7357  -17.2516   25.5566 C   0  0  0  0  0  0  0  0  0  0  0  0
   11.9516  -17.6789   24.1596 C   0  0  0  0  0  0  0  0  0  0  0  0
   11.0632  -18.1294   23.2036 C   0  0  0  0  0  0  0  0  0  0  0  0
   11.7487  -18.4164   22.0872 N   0  0  0  0  0  0  0  0  0  0  0  0
   13.0459  -18.1679   22.2877 C   0  0  0  0  0  0  0  0  0  0  0  0
   13.1588  -17.7202   23.5501 N   0  0  0  0  0  0  0  0  0  0  0  0
    9.9683  -16.8107   27.2388 C   0  0  0  0  0  0  0  0  0  0  0  0
   10.3670  -15.6363   27.8621 O   0  0  0  0  0  0  0  0  0  0  0  0
    9.3501  -17.6507   27.9212 O   0  0  0  0  0  0  0  0  0  0  0  0
  2  3  1  6
  2  1  1  0
  4  2  1  0
  5  4  1  0
  5  6  1  1
  7  5  1  0
  7  8  2  0
  9  7  1  0
 10  9  1  0
 10 11  1  1
 12 11  1  0
 12 17  1  0
 13 12  2  0
 14 13  1  0
 14 15  2  0
 15 16  1  0
 16 17  2  0
 18 10  1  0
 19 18  2  0
 20 18  1  0
 21 20  1  0
 21 22  1  1
 22 23  1  0
 23 27  1  0
 24 23  2  0
 24 25  1  0
 25 26  1  0
 27 26  2  0
 28 21  1  0
 28 29  1  0
 30 28  2  0
M  END
$$$$
