LFH.pdb
     RDKit          3D

 30 31  0  0  1  0  0  0  0  0999 V2000
    8.0088  -12.5413   17.6976 C   0  0  0  0  0  0  0  0  0  0  0  0
    8.1083  -13.9639   18.1550 C   0  0  1  0  0  0  0  0  0  0  0  0
    8.3465  -14.8383   16.9427 C   0  0  0  0  0  0  0  0  0  0  0  0
    9.2008  -14.1192   19.1808 C   0  0  0  0  0  0  0  0  0  0  0  0
    9.1005  -15.3911   19.9549 C   0  0  2  0  0  0  0  0  0  0  0  0
    7.8164  -16.0046   19.6794 N   0  0  0  0  0  0  0  0  0  0  0  0
    9.2120  -15.0610   21.4146 C   0  0  0  0  0  0  0  0  0  0  0  0
   10.3061  -14.6198   21.8912 O   0  0  0  0  0  0  0  0  0  0  0  0
    8.1028  -15.2344   22.2875 N   0  0  0  0  0  0  0  0  0  0  0  0
    8.2029  -14.7906   23.6381 C   0  0  1  0  0  0  0  0  0  0  0  0
    7.0177  -14.0076   24.1135 C   0  0  0  0  0  0  0  0  0  0  0  0
    7.1493  -13.4737   25.4623 C   0  0  0  0  0  0  0  0  0  0  0  0
    6.2411  -13.7592   26.4509 C   0  0  0  0  0  0  0  0  0  0  0  0
    6.3687  -13.2487   27.7381 C   0  0  0  0  0  0  0  0  0  0  0  0
    7.4242  -12.4373   28.0433 C   0  0  0  0  0  0  0  0  0  0  0  0
    8.3590  -12.1295   27.0681 C   0  0  0  0  0  0  0  0  0  0  0  0
    8.2074  -12.6549   25.7846 C   0  0  0  0  0  0  0  0  0  0  0  0
    8.4063  -15.9589   24.5689 C   0  0  0  0  0  0  0  0  0  0  0  0
    7.5722  -16.8916   24.6354 O   0  0  0  0  0  0  0  0  0  0  0  0
    9.5576  -16.0357   25.4031 N   0  0  0  0  0  0  0  0  0  0  0  0
   10.0957  -17.3130   25.8725 C   0  0  1  0  0  0  0  0  0  0  0  0
   11.3291  -17.6976   25.1398 C   0  0  0  0  0  0  0  0  0  0  0  0
   11.8316  -19.0022   25.6156 C   0  0  0  0  0  0  0  0  0  0  0  0
   11.8008  -19.5815   26.8684 C   0  0  0  0  0  0  0  0  0  0  0  0
   12.4085  -20.7750   26.8005 N   0  0  0  0  0  0  0  0  0  0  0  0
   12.8303  -20.9870   25.5508 C   0  0  0  0  0  0  0  0  0  0  0  0
   12.4748  -19.9038   24.8385 N   0  0  0  0  0  0  0  0  0  0  0  0
   10.2557  -17.3068   27.3404 C   0  0  0  0  0  0  0  0  0  0  0  0
   10.3467  -18.5201   28.0082 O   0  0  0  0  0  0  0  0  0  0  0  0
   10.3142  -16.2631   28.0193 O   0  0  0  0  0  0  0  0  0  0  0  0
  2  3  1  6
  2  1  1  0
  4  2  1  0
  5  4  1  0
  5  6  1  1
  7  5  1  0
  7  8  2  0
  9  7  1  0
 10  9  1  0
 10 11  1  1
 12 11  1  0
 12 17  1  0
 13 12  2  0
 14 13  1  0
 14 15  2  0
 15 16  1  0
 16 17  2  0
 18 10  1  0
 19 18  2  0
 20 18  1  0
 21 20  1  0
 21 22  1  6
 22 23  1  0
 23 27  1  0
 24 23  2  0
 24 25  1  0
 25 26  1  0
 27 26  2  0
 28 21  1  0
 28 29  1  0
 30 28  2  0
M  END
$$$$
