LFH.pdb
     RDKit          3D

 30 31  0  0  1  0  0  0  0  0999 V2000
   11.8507  -20.0132   18.9409 C   0  0  0  0  0  0  0  0  0  0  0  0
   10.6489  -19.1200   18.9182 C   0  0  1  0  0  0  0  0  0  0  0  0
    9.4132  -19.9869   18.8073 C   0  0  0  0  0  0  0  0  0  0  0  0
   10.6111  -18.2453   20.1443 C   0  0  0  0  0  0  0  0  0  0  0  0
    9.3577  -17.4426   20.2525 C   0  0  2  0  0  0  0  0  0  0  0  0
    9.2478  -16.5900   19.0854 N   0  0  0  0  0  0  0  0  0  0  0  0
    9.4429  -16.6066   21.4960 C   0  0  0  0  0  0  0  0  0  0  0  0
   10.5402  -16.0515   21.8223 O   0  0  0  0  0  0  0  0  0  0  0  0
    8.3048  -16.4206   22.3281 N   0  0  0  0  0  0  0  0  0  0  0  0
    8.4028  -15.5612   23.4608 C   0  0  1  0  0  0  0  0  0  0  0  0
    7.1405  -14.8186   23.7754 C   0  0  0  0  0  0  0  0  0  0  0  0
    7.2306  -13.9400   24.9337 C   0  0  0  0  0  0  0  0  0  0  0  0
    8.0305  -12.8247   24.9419 C   0  0  0  0  0  0  0  0  0  0  0  0
    8.1148  -11.9870   26.0486 C   0  0  0  0  0  0  0  0  0  0  0  0
    7.3858  -12.2691   27.1687 C   0  0  0  0  0  0  0  0  0  0  0  0
    6.5684  -13.3874   27.1931 C   0  0  0  0  0  0  0  0  0  0  0  0
    6.5020  -14.2114   26.0692 C   0  0  0  0  0  0  0  0  0  0  0  0
    8.8158  -16.3384   24.6848 C   0  0  0  0  0  0  0  0  0  0  0  0
    8.1031  -17.2626   25.1407 O   0  0  0  0  0  0  0  0  0  0  0  0
   10.0334  -16.0424   25.3609 N   0  0  0  0  0  0  0  0  0  0  0  0
   10.4539  -16.7663   26.5610 C   0  0  1  0  0  0  0  0  0  0  0  0
   11.9021  -17.0945   26.5315 C   0  0  0  0  0  0  0  0  0  0  0  0
   12.1815  -18.1253   25.5115 C   0  0  0  0  0  0  0  0  0  0  0  0
   11.3287  -18.8944   24.7451 C   0  0  0  0  0  0  0  0  0  0  0  0
   12.0658  -19.7075   23.9744 N   0  0  0  0  0  0  0  0  0  0  0  0
   13.3619  -19.4917   24.2153 C   0  0  0  0  0  0  0  0  0  0  0  0
   13.4216  -18.5283   25.1509 N   0  0  0  0  0  0  0  0  0  0  0  0
   10.0335  -16.0479   27.7808 C   0  0  0  0  0  0  0  0  0  0  0  0
    9.8803  -14.6695   27.7256 O   0  0  0  0  0  0  0  0  0  0  0  0
    9.8065  -16.6156   28.8669 O   0  0  0  0  0  0  0  0  0  0  0  0
  2  3  1  1
  2  1  1  0
  4  2  1  0
  5  4  1  0
  5  6  1  6
  7  5  1  0
  7  8  2  0
  9  7  1  0
 10  9  1  0
 10 11  1  1
 12 11  1  0
 12 17  1  0
 13 12  2  0
 14 13  1  0
 14 15  2  0
 15 16  1  0
 16 17  2  0
 18 10  1  0
 19 18  2  0
 20 18  1  0
 21 20  1  0
 21 22  1  1
 22 23  1  0
 23 27  1  0
 24 23  2  0
 24 25  1  0
 25 26  1  0
 27 26  2  0
 28 21  1  0
 28 29  1  0
 30 28  2  0
M  END
$$$$
