LFH.pdb
     RDKit          3D

 30 31  0  0  1  0  0  0  0  0999 V2000
    9.3898  -21.0391   20.0344 C   0  0  0  0  0  0  0  0  0  0  0  0
    8.9176  -19.6975   19.5653 C   0  0  1  0  0  0  0  0  0  0  0  0
    7.4710  -19.8242   19.1387 C   0  0  0  0  0  0  0  0  0  0  0  0
    9.0944  -18.6622   20.6454 C   0  0  0  0  0  0  0  0  0  0  0  0
    8.5131  -17.3356   20.2857 C   0  0  2  0  0  0  0  0  0  0  0  0
    9.1961  -16.8304   19.1113 N   0  0  0  0  0  0  0  0  0  0  0  0
    8.7204  -16.4039   21.4438 C   0  0  0  0  0  0  0  0  0  0  0  0
    9.8086  -15.7547   21.5585 O   0  0  0  0  0  0  0  0  0  0  0  0
    7.7100  -16.2306   22.4293 N   0  0  0  0  0  0  0  0  0  0  0  0
    7.9551  -15.3637   23.5337 C   0  0  1  0  0  0  0  0  0  0  0  0
    6.7262  -14.6975   24.0721 C   0  0  0  0  0  0  0  0  0  0  0  0
    6.9676  -13.8081   25.2001 C   0  0  0  0  0  0  0  0  0  0  0  0
    7.4483  -12.5335   25.0332 C   0  0  0  0  0  0  0  0  0  0  0  0
    7.6778  -11.6858   26.1114 C   0  0  0  0  0  0  0  0  0  0  0  0
    7.4220  -12.1202   27.3808 C   0  0  0  0  0  0  0  0  0  0  0  0
    6.9360  -13.4016   27.5839 C   0  0  0  0  0  0  0  0  0  0  0  0
    6.7145  -14.2318   26.4848 C   0  0  0  0  0  0  0  0  0  0  0  0
    8.6236  -16.1113   24.6593 C   0  0  0  0  0  0  0  0  0  0  0  0
    8.0975  -17.1280   25.1688 O   0  0  0  0  0  0  0  0  0  0  0  0
    9.8776  -15.6806   25.1782 N   0  0  0  0  0  0  0  0  0  0  0  0
   10.6181  -16.4587   26.1719 C   0  0  1  0  0  0  0  0  0  0  0  0
   12.0856  -16.3772   25.9584 C   0  0  0  0  0  0  0  0  0  0  0  0
   12.4597  -16.9981   24.6718 C   0  0  0  0  0  0  0  0  0  0  0  0
   11.8432  -17.9869   23.9312 C   0  0  0  0  0  0  0  0  0  0  0  0
   12.5840  -18.2248   22.8389 N   0  0  0  0  0  0  0  0  0  0  0  0
   13.6552  -17.4267   22.8476 C   0  0  0  0  0  0  0  0  0  0  0  0
   13.5704  -16.6851   23.9656 N   0  0  0  0  0  0  0  0  0  0  0  0
   10.1970  -16.0975   27.5405 C   0  0  0  0  0  0  0  0  0  0  0  0
   10.4819  -16.9716   28.5803 O   0  0  0  0  0  0  0  0  0  0  0  0
    9.5947  -15.0418   27.8163 O   0  0  0  0  0  0  0  0  0  0  0  0
  2  3  1  1
  2  1  1  0
  4  2  1  0
  5  4  1  0
  5  6  1  6
  7  5  1  0
  7  8  2  0
  9  7  1  0
 10  9  1  0
 10 11  1  1
 12 11  1  0
 12 17  1  0
 13 12  2  0
 14 13  1  0
 14 15  2  0
 15 16  1  0
 16 17  2  0
 18 10  1  0
 19 18  2  0
 20 18  1  0
 21 20  1  0
 21 22  1  1
 22 23  1  0
 23 27  1  0
 24 23  2  0
 24 25  1  0
 25 26  1  0
 27 26  2  0
 28 21  1  0
 28 29  1  0
 30 28  2  0
M  END
$$$$
