LFH.pdb
     RDKit          3D

 30 31  0  0  1  0  0  0  0  0999 V2000
    6.5834  -13.1027   18.6829 C   0  0  0  0  0  0  0  0  0  0  0  0
    7.8097  -13.8181   18.2063 C   0  0  1  0  0  0  0  0  0  0  0  0
    8.4140  -13.0221   17.0696 C   0  0  0  0  0  0  0  0  0  0  0  0
    8.7874  -14.0114   19.3362 C   0  0  0  0  0  0  0  0  0  0  0  0
    8.5572  -15.2724   20.1003 C   0  0  2  0  0  0  0  0  0  0  0  0
    7.1799  -15.6848   19.9155 N   0  0  0  0  0  0  0  0  0  0  0  0
    8.8226  -14.9958   21.5513 C   0  0  0  0  0  0  0  0  0  0  0  0
    9.9621  -14.5717   21.9259 O   0  0  0  0  0  0  0  0  0  0  0  0
    7.8108  -15.2018   22.5291 N   0  0  0  0  0  0  0  0  0  0  0  0
    8.0885  -14.8986   23.8937 C   0  0  1  0  0  0  0  0  0  0  0  0
    6.8764  -14.5472   24.7006 C   0  0  0  0  0  0  0  0  0  0  0  0
    7.1674  -13.9904   26.0148 C   0  0  0  0  0  0  0  0  0  0  0  0
    7.0125  -14.7211   27.1662 C   0  0  0  0  0  0  0  0  0  0  0  0
    7.2913  -14.1879   28.4199 C   0  0  0  0  0  0  0  0  0  0  0  0
    7.7332  -12.8997   28.5250 C   0  0  0  0  0  0  0  0  0  0  0  0
    7.9003  -12.1350   27.3819 C   0  0  0  0  0  0  0  0  0  0  0  0
    7.6135  -12.6942   26.1363 C   0  0  0  0  0  0  0  0  0  0  0  0
    8.7883  -16.0536   24.5640 C   0  0  0  0  0  0  0  0  0  0  0  0
    8.3690  -17.2281   24.4430 O   0  0  0  0  0  0  0  0  0  0  0  0
    9.9511  -15.8411   25.3578 N   0  0  0  0  0  0  0  0  0  0  0  0
   10.7033  -16.9481   25.9495 C   0  0  1  0  0  0  0  0  0  0  0  0
   12.1685  -16.7783   25.7753 C   0  0  0  0  0  0  0  0  0  0  0  0
   12.8984  -17.9174   26.3674 C   0  0  0  0  0  0  0  0  0  0  0  0
   13.1196  -18.2637   27.6854 C   0  0  0  0  0  0  0  0  0  0  0  0
   13.8620  -19.3802   27.7133 N   0  0  0  0  0  0  0  0  0  0  0  0
   14.1279  -19.7667   26.4625 C   0  0  0  0  0  0  0  0  0  0  0  0
   13.5379  -18.8712   25.6519 N   0  0  0  0  0  0  0  0  0  0  0  0
   10.2945  -17.1697   27.3510 C   0  0  0  0  0  0  0  0  0  0  0  0
   10.4723  -16.1443   28.2695 O   0  0  0  0  0  0  0  0  0  0  0  0
    9.7942  -18.2359   27.7589 O   0  0  0  0  0  0  0  0  0  0  0  0
  2  3  1  6
  2  1  1  0
  4  2  1  0
  5  4  1  0
  5  6  1  1
  7  5  1  0
  7  8  2  0
  9  7  1  0
 10  9  1  0
 10 11  1  1
 12 11  1  0
 12 17  1  0
 13 12  2  0
 14 13  1  0
 14 15  2  0
 15 16  1  0
 16 17  2  0
 18 10  1  0
 19 18  2  0
 20 18  1  0
 21 20  1  0
 21 22  1  1
 22 23  1  0
 23 27  1  0
 24 23  2  0
 24 25  1  0
 25 26  1  0
 27 26  2  0
 28 21  1  0
 28 29  1  0
 30 28  2  0
M  END
$$$$
