LFH.pdb
     RDKit          3D

 30 31  0  0  1  0  0  0  0  0999 V2000
    7.2134  -11.9901   19.2745 C   0  0  0  0  0  0  0  0  0  0  0  0
    7.4979  -13.4425   19.5033 C   0  0  1  0  0  0  0  0  0  0  0  0
    7.9217  -14.0579   18.1870 C   0  0  0  0  0  0  0  0  0  0  0  0
    8.5491  -13.6189   20.5681 C   0  0  0  0  0  0  0  0  0  0  0  0
    8.7403  -15.0427   20.9720 C   0  0  2  0  0  0  0  0  0  0  0  0
    7.4466  -15.6957   21.0052 N   0  0  0  0  0  0  0  0  0  0  0  0
    9.3635  -15.0627   22.3371 C   0  0  0  0  0  0  0  0  0  0  0  0
   10.5166  -14.5583   22.5237 O   0  0  0  0  0  0  0  0  0  0  0  0
    8.6805  -15.6427   23.4413 N   0  0  0  0  0  0  0  0  0  0  0  0
    9.2927  -15.6222   24.7281 C   0  0  1  0  0  0  0  0  0  0  0  0
    8.3499  -15.3062   25.8484 C   0  0  0  0  0  0  0  0  0  0  0  0
    8.9925  -15.1149   27.1415 C   0  0  0  0  0  0  0  0  0  0  0  0
    9.3731  -13.8748   27.5897 C   0  0  0  0  0  0  0  0  0  0  0  0
    9.9862  -13.6941   28.8247 C   0  0  0  0  0  0  0  0  0  0  0  0
   10.2235  -14.7735   29.6273 C   0  0  0  0  0  0  0  0  0  0  0  0
    9.8516  -16.0394   29.2046 C   0  0  0  0  0  0  0  0  0  0  0  0
    9.2380  -16.1929   27.9610 C   0  0  0  0  0  0  0  0  0  0  0  0
    9.9570  -16.9431   25.0229 C   0  0  0  0  0  0  0  0  0  0  0  0
    9.3074  -18.0145   25.0168 O   0  0  0  0  0  0  0  0  0  0  0  0
   11.3481  -17.0106   25.3185 N   0  0  0  0  0  0  0  0  0  0  0  0
   11.9897  -18.2461   25.7691 C   0  0  1  0  0  0  0  0  0  0  0  0
   13.3084  -18.4551   25.1186 C   0  0  0  0  0  0  0  0  0  0  0  0
   13.1453  -18.6588   23.6651 C   0  0  0  0  0  0  0  0  0  0  0  0
   12.0469  -19.0450   22.9231 C   0  0  0  0  0  0  0  0  0  0  0  0
   12.4061  -19.1090   21.6327 N   0  0  0  0  0  0  0  0  0  0  0  0
   13.6951  -18.7787   21.5147 C   0  0  0  0  0  0  0  0  0  0  0  0
   14.1352  -18.5069   22.7555 N   0  0  0  0  0  0  0  0  0  0  0  0
   12.0404  -18.3028   27.2439 C   0  0  0  0  0  0  0  0  0  0  0  0
   11.5050  -17.2496   27.9723 O   0  0  0  0  0  0  0  0  0  0  0  0
   12.5417  -19.2524   27.8766 O   0  0  0  0  0  0  0  0  0  0  0  0
  2  3  1  6
  2  1  1  0
  4  2  1  0
  5  4  1  0
  5  6  1  1
  7  5  1  0
  7  8  2  0
  9  7  1  0
 10  9  1  0
 10 11  1  1
 12 11  1  0
 12 17  1  0
 13 12  2  0
 14 13  1  0
 14 15  2  0
 15 16  1  0
 16 17  2  0
 18 10  1  0
 19 18  2  0
 20 18  1  0
 21 20  1  0
 21 22  1  6
 22 23  1  0
 23 27  1  0
 24 23  2  0
 24 25  1  0
 25 26  1  0
 27 26  2  0
 28 21  1  0
 28 29  1  0
 30 28  2  0
M  END
$$$$
