LFH.pdb
     RDKit          3D

 30 31  0  0  1  0  0  0  0  0999 V2000
    8.3354  -13.1485   17.6003 C   0  0  0  0  0  0  0  0  0  0  0  0
    8.5130  -13.4644   19.0534 C   0  0  1  0  0  0  0  0  0  0  0  0
    8.0987  -12.2515   19.8586 C   0  0  0  0  0  0  0  0  0  0  0  0
    7.7195  -14.6871   19.4343 C   0  0  0  0  0  0  0  0  0  0  0  0
    8.5147  -15.6823   20.2118 C   0  0  2  0  0  0  0  0  0  0  0  0
    7.7092  -16.8714   20.4083 N   0  0  0  0  0  0  0  0  0  0  0  0
    8.8635  -15.0706   21.5371 C   0  0  0  0  0  0  0  0  0  0  0  0
    9.1980  -13.8453   21.6103 O   0  0  0  0  0  0  0  0  0  0  0  0
    8.8271  -15.8452   22.7291 N   0  0  0  0  0  0  0  0  0  0  0  0
    8.6787  -15.1862   23.9840 C   0  0  1  0  0  0  0  0  0  0  0  0
    7.5051  -14.2577   24.0516 C   0  0  0  0  0  0  0  0  0  0  0  0
    7.4123  -13.4922   25.2874 C   0  0  0  0  0  0  0  0  0  0  0  0
    8.4208  -12.6615   25.7074 C   0  0  0  0  0  0  0  0  0  0  0  0
    8.3301  -11.9312   26.8873 C   0  0  0  0  0  0  0  0  0  0  0  0
    7.2101  -12.0330   27.6624 C   0  0  0  0  0  0  0  0  0  0  0  0
    6.1736  -12.8628   27.2669 C   0  0  0  0  0  0  0  0  0  0  0  0
    6.2901  -13.5845   26.0785 C   0  0  0  0  0  0  0  0  0  0  0  0
    8.5563  -16.1905   25.1017 C   0  0  0  0  0  0  0  0  0  0  0  0
    7.7950  -15.9905   26.0766 O   0  0  0  0  0  0  0  0  0  0  0  0
    9.3064  -17.4005   25.0810 N   0  0  0  0  0  0  0  0  0  0  0  0
   10.6014  -17.5258   25.7508 C   0  0  1  0  0  0  0  0  0  0  0  0
   11.6014  -16.5719   25.2067 C   0  0  0  0  0  0  0  0  0  0  0  0
   12.0343  -16.9855   23.8567 C   0  0  0  0  0  0  0  0  0  0  0  0
   11.6314  -18.0388   23.0603 C   0  0  0  0  0  0  0  0  0  0  0  0
   12.3384  -18.0059   21.9213 N   0  0  0  0  0  0  0  0  0  0  0  0
   13.1824  -16.9709   21.9535 C   0  0  0  0  0  0  0  0  0  0  0  0
   12.9898  -16.3571   23.1338 N   0  0  0  0  0  0  0  0  0  0  0  0
   10.4432  -17.4468   27.2169 C   0  0  0  0  0  0  0  0  0  0  0  0
   10.0808  -16.2338   27.7859 O   0  0  0  0  0  0  0  0  0  0  0  0
   10.6184  -18.4176   27.9787 O   0  0  0  0  0  0  0  0  0  0  0  0
  2  3  1  1
  2  1  1  0
  4  2  1  0
  5  4  1  0
  5  6  1  1
  7  5  1  0
  7  8  2  0
  9  7  1  0
 10  9  1  0
 10 11  1  6
 12 11  1  0
 12 17  1  0
 13 12  2  0
 14 13  1  0
 14 15  2  0
 15 16  1  0
 16 17  2  0
 18 10  1  0
 19 18  2  0
 20 18  1  0
 21 20  1  0
 21 22  1  6
 22 23  1  0
 23 27  1  0
 24 23  2  0
 24 25  1  0
 25 26  1  0
 27 26  2  0
 28 21  1  0
 28 29  1  0
 30 28  2  0
M  END
$$$$
