LFH.pdb
     RDKit          3D

 30 31  0  0  1  0  0  0  0  0999 V2000
    7.8963  -12.5695   18.4891 C   0  0  0  0  0  0  0  0  0  0  0  0
    7.9977  -14.0201   18.8476 C   0  0  1  0  0  0  0  0  0  0  0  0
    7.6552  -14.8387   17.6214 C   0  0  0  0  0  0  0  0  0  0  0  0
    9.3721  -14.3451   19.3719 C   0  0  0  0  0  0  0  0  0  0  0  0
    9.3915  -15.5439   20.2605 C   0  0  2  0  0  0  0  0  0  0  0  0
    8.2112  -16.3418   19.9928 N   0  0  0  0  0  0  0  0  0  0  0  0
    9.3824  -15.0712   21.6849 C   0  0  0  0  0  0  0  0  0  0  0  0
   10.3344  -14.3534   22.1290 O   0  0  0  0  0  0  0  0  0  0  0  0
    8.3154  -15.4151   22.5598 N   0  0  0  0  0  0  0  0  0  0  0  0
    8.3176  -14.9113   23.8930 C   0  0  1  0  0  0  0  0  0  0  0  0
    7.0352  -14.2524   24.2994 C   0  0  0  0  0  0  0  0  0  0  0  0
    7.0916  -13.5620   25.5807 C   0  0  0  0  0  0  0  0  0  0  0  0
    6.2940  -13.9219   26.6380 C   0  0  0  0  0  0  0  0  0  0  0  0
    6.3496  -13.2618   27.8607 C   0  0  0  0  0  0  0  0  0  0  0  0
    7.2190  -12.2221   28.0301 C   0  0  0  0  0  0  0  0  0  0  0  0
    8.0383  -11.8336   26.9826 C   0  0  0  0  0  0  0  0  0  0  0  0
    7.9626  -12.5128   25.7662 C   0  0  0  0  0  0  0  0  0  0  0  0
    8.6203  -16.0120   24.8777 C   0  0  0  0  0  0  0  0  0  0  0  0
    7.8097  -16.9458   25.0803 O   0  0  0  0  0  0  0  0  0  0  0  0
    9.8418  -16.0214   25.6092 N   0  0  0  0  0  0  0  0  0  0  0  0
   10.2179  -17.1331   26.4832 C   0  0  1  0  0  0  0  0  0  0  0  0
   11.6130  -17.5813   26.2408 C   0  0  0  0  0  0  0  0  0  0  0  0
   11.7974  -17.9676   24.8274 C   0  0  0  0  0  0  0  0  0  0  0  0
   10.8790  -18.3166   23.8575 C   0  0  0  0  0  0  0  0  0  0  0  0
   11.5419  -18.6071   22.7285 N   0  0  0  0  0  0  0  0  0  0  0  0
   12.8535  -18.4587   22.9342 C   0  0  0  0  0  0  0  0  0  0  0  0
   12.9984  -18.0699   24.2128 N   0  0  0  0  0  0  0  0  0  0  0  0
    9.9366  -16.8078   27.8958 C   0  0  0  0  0  0  0  0  0  0  0  0
    9.6054  -15.5015   28.2280 O   0  0  0  0  0  0  0  0  0  0  0  0
    9.9802  -17.6486   28.8148 O   0  0  0  0  0  0  0  0  0  0  0  0
  2  3  1  6
  2  1  1  0
  4  2  1  0
  5  4  1  0
  5  6  1  6
  7  5  1  0
  7  8  2  0
  9  7  1  0
 10  9  1  0
 10 11  1  1
 12 11  1  0
 12 17  1  0
 13 12  2  0
 14 13  1  0
 14 15  2  0
 15 16  1  0
 16 17  2  0
 18 10  1  0
 19 18  2  0
 20 18  1  0
 21 20  1  0
 21 22  1  1
 22 23  1  0
 23 27  1  0
 24 23  2  0
 24 25  1  0
 25 26  1  0
 27 26  2  0
 28 21  1  0
 28 29  1  0
 30 28  2  0
M  END
$$$$
