LFH.pdb
     RDKit          3D

 30 31  0  0  1  0  0  0  0  0999 V2000
    8.0439  -11.9552   19.2403 C   0  0  0  0  0  0  0  0  0  0  0  0
    7.8765  -13.4110   19.5492 C   0  0  1  0  0  0  0  0  0  0  0  0
    7.9724  -14.1869   18.2532 C   0  0  0  0  0  0  0  0  0  0  0  0
    8.9055  -13.8654   20.5514 C   0  0  0  0  0  0  0  0  0  0  0  0
    8.7283  -15.2872   20.9689 C   0  0  2  0  0  0  0  0  0  0  0  0
    7.3476  -15.6693   20.7482 N   0  0  0  0  0  0  0  0  0  0  0  0
    9.0659  -15.3926   22.4274 C   0  0  0  0  0  0  0  0  0  0  0  0
   10.1978  -14.9985   22.8543 O   0  0  0  0  0  0  0  0  0  0  0  0
    8.1321  -15.9322   23.3541 N   0  0  0  0  0  0  0  0  0  0  0  0
    8.4862  -16.0147   24.7321 C   0  0  1  0  0  0  0  0  0  0  0  0
    7.3478  -15.7605   25.6720 C   0  0  0  0  0  0  0  0  0  0  0  0
    7.0995  -14.3528   25.9516 C   0  0  0  0  0  0  0  0  0  0  0  0
    8.0675  -13.5318   26.4737 C   0  0  0  0  0  0  0  0  0  0  0  0
    7.8287  -12.1879   26.7396 C   0  0  0  0  0  0  0  0  0  0  0  0
    6.5987  -11.6542   26.4789 C   0  0  0  0  0  0  0  0  0  0  0  0
    5.5993  -12.4558   25.9516 C   0  0  0  0  0  0  0  0  0  0  0  0
    5.8654  -13.8010   25.6941 C   0  0  0  0  0  0  0  0  0  0  0  0
    9.0744  -17.3657   25.0509 C   0  0  0  0  0  0  0  0  0  0  0  0
    9.1097  -18.2793   24.1941 O   0  0  0  0  0  0  0  0  0  0  0  0
    9.6086  -17.6432   26.3412 N   0  0  0  0  0  0  0  0  0  0  0  0
   10.8040  -18.4660   26.5289 C   0  0  1  0  0  0  0  0  0  0  0  0
   11.9493  -17.9717   25.7229 C   0  0  0  0  0  0  0  0  0  0  0  0
   11.8597  -18.4652   24.3339 C   0  0  0  0  0  0  0  0  0  0  0  0
   10.9054  -19.2438   23.7100 C   0  0  0  0  0  0  0  0  0  0  0  0
   11.2830  -19.4425   22.4387 N   0  0  0  0  0  0  0  0  0  0  0  0
   12.4452  -18.8214   22.2194 C   0  0  0  0  0  0  0  0  0  0  0  0
   12.7873  -18.2304   23.3773 N   0  0  0  0  0  0  0  0  0  0  0  0
   11.1128  -18.6222   27.9645 C   0  0  0  0  0  0  0  0  0  0  0  0
   10.3366  -17.9429   28.8932 O   0  0  0  0  0  0  0  0  0  0  0  0
   12.0400  -19.3367   28.3925 O   0  0  0  0  0  0  0  0  0  0  0  0
  2  3  1  6
  2  1  1  0
  4  2  1  0
  5  4  1  0
  5  6  1  1
  7  5  1  0
  7  8  2  0
  9  7  1  0
 10  9  1  0
 10 11  1  1
 12 11  1  0
 12 17  1  0
 13 12  2  0
 14 13  1  0
 14 15  2  0
 15 16  1  0
 16 17  2  0
 18 10  1  0
 19 18  2  0
 20 18  1  0
 21 20  1  0
 21 22  1  6
 22 23  1  0
 23 27  1  0
 24 23  2  0
 24 25  1  0
 25 26  1  0
 27 26  2  0
 28 21  1  0
 28 29  1  0
 30 28  2  0
M  END
$$$$
