ITD.pdb
     RDKit          3D

 24 23  0  0  1  0  0  0  0  0999 V2000
    6.6777  -11.2898   27.3254 C   0  0  0  0  0  0  0  0  0  0  0  0
    6.6535  -11.6681   25.8815 C   0  0  0  0  0  0  0  0  0  0  0  0
    7.2517  -13.0471   25.6263 C   0  0  2  0  0  0  0  0  0  0  0  0
    8.6721  -13.1307   26.0943 C   0  0  0  0  0  0  0  0  0  0  0  0
    7.1340  -13.2954   24.1312 C   0  0  2  0  0  0  0  0  0  0  0  0
    5.7986  -12.9492   23.6878 N   0  0  0  0  0  0  0  0  0  0  0  0
    7.4859  -14.6864   23.7608 C   0  0  0  0  0  0  0  0  0  0  0  0
    6.6908  -15.4165   23.1184 O   0  0  0  0  0  0  0  0  0  0  0  0
    9.9598  -15.4607   21.3745 C   0  0  0  0  0  0  0  0  0  0  0  0
    9.2101  -16.5390   22.0820 C   0  0  1  0  0  0  0  0  0  0  0  0
    9.6026  -17.8272   21.7064 O   0  0  0  0  0  0  0  0  0  0  0  0
    9.2635  -16.4630   23.5703 C   0  0  2  0  0  0  0  0  0  0  0  0
    8.7442  -15.2465   24.1218 N   0  0  0  0  0  0  0  0  0  0  0  0
   10.6121  -16.8019   24.1249 C   0  0  0  0  0  0  0  0  0  0  0  0
   11.5780  -16.0308   23.8973 O   0  0  0  0  0  0  0  0  0  0  0  0
   10.8595  -17.9552   24.8988 N   0  0  0  0  0  0  0  0  0  0  0  0
   12.1627  -18.2788   25.4660 C   0  0  1  0  0  0  0  0  0  0  0  0
   11.9992  -19.6073   26.2022 C   0  0  0  0  0  0  0  0  0  0  0  0
   12.3134  -19.4784   27.6325 C   0  0  0  0  0  0  0  0  0  0  0  0
   12.8092  -18.4186   28.1168 O   0  0  0  0  0  0  0  0  0  0  0  0
   13.1962  -18.3995   24.4127 C   0  0  0  0  0  0  0  0  0  0  0  0
   14.4261  -17.7947   24.6111 O   0  0  0  0  0  0  0  0  0  0  0  0
   12.0786  -20.5208   28.5229 O   0  0  0  0  0  0  0  0  0  0  0  0
   13.0235  -19.0232   23.3401 O   0  0  0  0  0  0  0  0  0  0  0  0
  2  1  1  0
  3  2  1  0
  3  5  1  0
  3  4  1  6
  5  7  1  0
  5  6  1  1
  7  8  2  0
 10 12  1  0
 10 11  1  0
 10  9  1  6
 12 13  1  6
 13  7  1  0
 14 12  1  0
 14 15  2  0
 16 14  1  0
 17 16  1  0
 17 21  1  0
 17 18  1  6
 19 23  1  0
 19 18  1  0
 20 19  2  0
 21 22  1  0
 24 21  2  0
M  END
$$$$
