ITD.pdb
     RDKit          3D

 24 23  0  0  1  0  0  0  0  0999 V2000
    6.9705  -11.1924   27.4894 C   0  0  0  0  0  0  0  0  0  0  0  0
    6.2572  -12.2188   26.6730 C   0  0  0  0  0  0  0  0  0  0  0  0
    7.2115  -13.1947   25.9936 C   0  0  2  0  0  0  0  0  0  0  0  0
    8.1380  -12.4959   25.0467 C   0  0  0  0  0  0  0  0  0  0  0  0
    6.3422  -14.2183   25.2813 C   0  0  2  0  0  0  0  0  0  0  0  0
    5.3681  -14.7549   26.2102 N   0  0  0  0  0  0  0  0  0  0  0  0
    7.1409  -15.2948   24.6495 C   0  0  0  0  0  0  0  0  0  0  0  0
    7.3548  -16.3849   25.2359 O   0  0  0  0  0  0  0  0  0  0  0  0
    6.9089  -15.9931   20.6828 C   0  0  0  0  0  0  0  0  0  0  0  0
    8.3094  -16.1173   21.1813 C   0  0  1  0  0  0  0  0  0  0  0  0
    9.1629  -15.1225   20.6948 O   0  0  0  0  0  0  0  0  0  0  0  0
    8.4432  -16.1451   22.6662 C   0  0  2  0  0  0  0  0  0  0  0  0
    7.6963  -15.1302   23.3488 N   0  0  0  0  0  0  0  0  0  0  0  0
    9.8675  -16.1997   23.1239 C   0  0  0  0  0  0  0  0  0  0  0  0
   10.3921  -15.1681   23.6137 O   0  0  0  0  0  0  0  0  0  0  0  0
   10.6621  -17.3618   23.0332 N   0  0  0  0  0  0  0  0  0  0  0  0
   12.0555  -17.4185   23.4573 C   0  0  1  0  0  0  0  0  0  0  0  0
   12.6124  -16.0034   23.3129 C   0  0  0  0  0  0  0  0  0  0  0  0
   14.0530  -16.0134   23.0197 C   0  0  0  0  0  0  0  0  0  0  0  0
   14.6655  -17.0763   22.7059 O   0  0  0  0  0  0  0  0  0  0  0  0
   12.1757  -17.8766   24.8601 C   0  0  0  0  0  0  0  0  0  0  0  0
   11.3903  -17.2749   25.8291 O   0  0  0  0  0  0  0  0  0  0  0  0
   14.8116  -14.8489   23.0739 O   0  0  0  0  0  0  0  0  0  0  0  0
   12.9542  -18.7865   25.2281 O   0  0  0  0  0  0  0  0  0  0  0  0
  2  1  1  0
  3  2  1  0
  3  5  1  0
  3  4  1  6
  5  7  1  0
  5  6  1  1
  7  8  2  0
 10 12  1  0
 10 11  1  0
 10  9  1  1
 12 13  1  1
 13  7  1  0
 14 12  1  0
 14 15  2  0
 16 14  1  0
 17 16  1  0
 17 21  1  0
 17 18  1  1
 19 23  1  0
 19 18  1  0
 20 19  2  0
 21 22  1  0
 24 21  2  0
M  END
$$$$
