ITD.pdb
     RDKit          3D

 24 23  0  0  1  0  0  0  0  0999 V2000
    7.1505  -11.5673   19.7550 C   0  0  0  0  0  0  0  0  0  0  0  0
    7.5710  -12.5355   18.6994 C   0  0  0  0  0  0  0  0  0  0  0  0
    8.6844  -13.4663   19.1670 C   0  0  2  0  0  0  0  0  0  0  0  0
    9.9239  -12.7086   19.5320 C   0  0  0  0  0  0  0  0  0  0  0  0
    8.9335  -14.4423   18.0286 C   0  0  2  0  0  0  0  0  0  0  0  0
    7.6677  -14.9640   17.5539 N   0  0  0  0  0  0  0  0  0  0  0  0
    9.8606  -15.5326   18.4129 C   0  0  0  0  0  0  0  0  0  0  0  0
    9.4691  -16.5249   19.0763 O   0  0  0  0  0  0  0  0  0  0  0  0
   11.6485  -17.8767   16.2445 C   0  0  0  0  0  0  0  0  0  0  0  0
   12.6903  -17.2378   17.1000 C   0  0  1  0  0  0  0  0  0  0  0  0
   13.4961  -16.3283   16.4085 O   0  0  0  0  0  0  0  0  0  0  0  0
   12.1650  -16.5489   18.3136 C   0  0  2  0  0  0  0  0  0  0  0  0
   11.2346  -15.4934   18.0414 N   0  0  0  0  0  0  0  0  0  0  0  0
   13.2461  -16.1174   19.2549 C   0  0  0  0  0  0  0  0  0  0  0  0
   13.7060  -14.9513   19.1643 O   0  0  0  0  0  0  0  0  0  0  0  0
   13.7831  -16.9605   20.2503 N   0  0  0  0  0  0  0  0  0  0  0  0
   14.9107  -16.5894   21.0961 C   0  0  1  0  0  0  0  0  0  0  0  0
   14.8895  -17.5402   22.2917 C   0  0  0  0  0  0  0  0  0  0  0  0
   14.8440  -16.8095   23.5665 C   0  0  0  0  0  0  0  0  0  0  0  0
   15.0710  -15.5656   23.6344 O   0  0  0  0  0  0  0  0  0  0  0  0
   16.1948  -16.7083   20.3687 C   0  0  0  0  0  0  0  0  0  0  0  0
   17.2171  -15.8235   20.6687 O   0  0  0  0  0  0  0  0  0  0  0  0
   14.5476  -17.4558   24.7620 O   0  0  0  0  0  0  0  0  0  0  0  0
   16.4153  -17.5711   19.4876 O   0  0  0  0  0  0  0  0  0  0  0  0
  2  1  1  0
  3  2  1  0
  3  5  1  0
  3  4  1  6
  5  7  1  0
  5  6  1  1
  7  8  2  0
 10 12  1  0
 10 11  1  0
 10  9  1  6
 12 13  1  6
 13  7  1  0
 14 12  1  0
 14 15  2  0
 16 14  1  0
 17 16  1  0
 17 21  1  0
 17 18  1  1
 19 23  1  0
 19 18  1  0
 20 19  2  0
 21 22  1  0
 24 21  2  0
M  END
$$$$
