ITD.pdb
     RDKit          3D

 24 23  0  0  1  0  0  0  0  0999 V2000
    8.9749  -11.9540   27.4867 C   0  0  0  0  0  0  0  0  0  0  0  0
    8.0604  -13.0766   27.1231 C   0  0  0  0  0  0  0  0  0  0  0  0
    7.0095  -12.6683   26.0968 C   0  0  2  0  0  0  0  0  0  0  0  0
    6.0945  -11.6096   26.6311 C   0  0  0  0  0  0  0  0  0  0  0  0
    6.2540  -13.9352   25.7297 C   0  0  2  0  0  0  0  0  0  0  0  0
    5.6428  -14.4948   26.9184 N   0  0  0  0  0  0  0  0  0  0  0  0
    7.1152  -14.9269   25.0434 C   0  0  0  0  0  0  0  0  0  0  0  0
    7.5784  -15.9254   25.6487 O   0  0  0  0  0  0  0  0  0  0  0  0
    6.6138  -15.5286   21.0170 C   0  0  0  0  0  0  0  0  0  0  0  0
    8.0322  -15.6811   21.4534 C   0  0  1  0  0  0  0  0  0  0  0  0
    8.8795  -14.6920   20.9448 O   0  0  0  0  0  0  0  0  0  0  0  0
    8.2286  -15.7326   22.9307 C   0  0  2  0  0  0  0  0  0  0  0  0
    7.4491  -14.7817   23.6669 N   0  0  0  0  0  0  0  0  0  0  0  0
    9.6713  -15.7073   23.3298 C   0  0  0  0  0  0  0  0  0  0  0  0
   10.0144  -15.0437   24.3404 O   0  0  0  0  0  0  0  0  0  0  0  0
   10.6786  -16.3971   22.6230 N   0  0  0  0  0  0  0  0  0  0  0  0
   11.7869  -17.0874   23.2710 C   0  0  1  0  0  0  0  0  0  0  0  0
   11.1847  -18.2836   24.0059 C   0  0  0  0  0  0  0  0  0  0  0  0
   11.7003  -18.3943   25.3782 C   0  0  0  0  0  0  0  0  0  0  0  0
   12.6450  -17.6642   25.7999 O   0  0  0  0  0  0  0  0  0  0  0  0
   12.7911  -17.5442   22.2835 C   0  0  0  0  0  0  0  0  0  0  0  0
   14.1287  -17.2707   22.5155 O   0  0  0  0  0  0  0  0  0  0  0  0
   11.1701  -19.3111   26.2798 O   0  0  0  0  0  0  0  0  0  0  0  0
   12.5007  -18.1708   21.2384 O   0  0  0  0  0  0  0  0  0  0  0  0
  2  1  1  0
  3  2  1  0
  3  5  1  0
  3  4  1  1
  5  7  1  0
  5  6  1  1
  7  8  2  0
 10 12  1  0
 10 11  1  0
 10  9  1  1
 12 13  1  1
 13  7  1  0
 14 12  1  0
 14 15  2  0
 16 14  1  0
 17 16  1  0
 17 21  1  0
 17 18  1  6
 19 23  1  0
 19 18  1  0
 20 19  2  0
 21 22  1  0
 24 21  2  0
M  END
$$$$
