ITD.pdb
     RDKit          3D

 24 23  0  0  1  0  0  0  0  0999 V2000
    6.6667  -11.3862   27.6010 C   0  0  0  0  0  0  0  0  0  0  0  0
    6.0375  -12.4764   26.7983 C   0  0  0  0  0  0  0  0  0  0  0  0
    7.0660  -13.3596   26.1006 C   0  0  2  0  0  0  0  0  0  0  0  0
    7.9191  -12.5745   25.1524 C   0  0  0  0  0  0  0  0  0  0  0  0
    6.2817  -14.4482   25.3861 C   0  0  2  0  0  0  0  0  0  0  0  0
    5.3968  -15.1036   26.3280 N   0  0  0  0  0  0  0  0  0  0  0  0
    7.1640  -15.4224   24.7015 C   0  0  0  0  0  0  0  0  0  0  0  0
    7.5135  -16.4945   25.2550 O   0  0  0  0  0  0  0  0  0  0  0  0
    6.9599  -15.7430   20.6506 C   0  0  0  0  0  0  0  0  0  0  0  0
    8.3440  -15.9629   21.1617 C   0  0  1  0  0  0  0  0  0  0  0  0
    9.2471  -14.9723   20.7645 O   0  0  0  0  0  0  0  0  0  0  0  0
    8.4473  -16.1052   22.6425 C   0  0  2  0  0  0  0  0  0  0  0  0
    7.6486  -15.1758   23.3855 N   0  0  0  0  0  0  0  0  0  0  0  0
    9.8626  -16.1456   23.1286 C   0  0  0  0  0  0  0  0  0  0  0  0
   10.3009  -15.1881   23.8146 O   0  0  0  0  0  0  0  0  0  0  0  0
   10.7416  -17.2142   22.8540 N   0  0  0  0  0  0  0  0  0  0  0  0
   12.1314  -17.2454   23.2924 C   0  0  1  0  0  0  0  0  0  0  0  0
   12.7071  -15.8581   23.0137 C   0  0  0  0  0  0  0  0  0  0  0  0
   14.0352  -15.9362   22.3882 C   0  0  0  0  0  0  0  0  0  0  0  0
   14.6143  -17.0432   22.1813 O   0  0  0  0  0  0  0  0  0  0  0  0
   12.2368  -17.5646   24.7344 C   0  0  0  0  0  0  0  0  0  0  0  0
   13.3406  -18.2698   25.1836 O   0  0  0  0  0  0  0  0  0  0  0  0
   14.7187  -14.7911   21.9932 O   0  0  0  0  0  0  0  0  0  0  0  0
   11.3775  -17.2312   25.5828 O   0  0  0  0  0  0  0  0  0  0  0  0
  2  1  1  0
  3  2  1  0
  3  5  1  0
  3  4  1  6
  5  7  1  0
  5  6  1  1
  7  8  2  0
 10 12  1  0
 10 11  1  0
 10  9  1  1
 12 13  1  1
 13  7  1  0
 14 12  1  0
 14 15  2  0
 16 14  1  0
 17 16  1  0
 17 21  1  0
 17 18  1  1
 19 23  1  0
 19 18  1  0
 20 19  2  0
 21 22  1  0
 24 21  2  0
M  END
$$$$
