ITD.pdb
     RDKit          3D

 24 23  0  0  1  0  0  0  0  0999 V2000
    7.6101  -11.5236   19.1332 C   0  0  0  0  0  0  0  0  0  0  0  0
    8.3016  -12.7550   18.6492 C   0  0  0  0  0  0  0  0  0  0  0  0
    8.2795  -13.8821   19.6758 C   0  0  2  0  0  0  0  0  0  0  0  0
    8.9114  -13.4670   20.9688 C   0  0  0  0  0  0  0  0  0  0  0  0
    9.0097  -15.0544   19.0409 C   0  0  2  0  0  0  0  0  0  0  0  0
    8.4540  -15.3162   17.7285 N   0  0  0  0  0  0  0  0  0  0  0  0
    8.9817  -16.2657   19.8942 C   0  0  0  0  0  0  0  0  0  0  0  0
    7.9357  -16.9474   20.0334 O   0  0  0  0  0  0  0  0  0  0  0  0
    8.2639  -18.9932   20.1700 C   0  0  0  0  0  0  0  0  0  0  0  0
    9.6841  -19.1169   20.6092 C   0  0  1  0  0  0  0  0  0  0  0  0
   10.5646  -19.4167   19.5653 O   0  0  0  0  0  0  0  0  0  0  0  0
   10.2208  -17.9265   21.3291 C   0  0  2  0  0  0  0  0  0  0  0  0
   10.1454  -16.7013   20.5894 N   0  0  0  0  0  0  0  0  0  0  0  0
   11.5850  -18.1554   21.9015 C   0  0  0  0  0  0  0  0  0  0  0  0
   12.5861  -17.6922   21.2994 O   0  0  0  0  0  0  0  0  0  0  0  0
   11.8095  -18.8725   23.0954 N   0  0  0  0  0  0  0  0  0  0  0  0
   12.9763  -18.6734   23.9460 C   0  0  1  0  0  0  0  0  0  0  0  0
   13.1259  -17.1647   24.1335 C   0  0  0  0  0  0  0  0  0  0  0  0
   14.3226  -16.6484   23.4534 C   0  0  0  0  0  0  0  0  0  0  0  0
   15.0958  -17.4029   22.7927 O   0  0  0  0  0  0  0  0  0  0  0  0
   12.8095  -19.3395   25.2577 C   0  0  0  0  0  0  0  0  0  0  0  0
   11.5322  -19.4987   25.7686 O   0  0  0  0  0  0  0  0  0  0  0  0
   14.6608  -15.3003   23.5054 O   0  0  0  0  0  0  0  0  0  0  0  0
   13.7653  -19.7730   25.9417 O   0  0  0  0  0  0  0  0  0  0  0  0
  2  1  1  0
  3  2  1  0
  3  5  1  0
  3  4  1  1
  5  7  1  0
  5  6  1  6
  7  8  2  0
 10 12  1  0
 10 11  1  0
 10  9  1  6
 12 13  1  6
 13  7  1  0
 14 12  1  0
 14 15  2  0
 16 14  1  0
 17 16  1  0
 17 21  1  0
 17 18  1  1
 19 23  1  0
 19 18  1  0
 20 19  2  0
 21 22  1  0
 24 21  2  0
M  END
$$$$
