ITD.pdb
     RDKit          3D

 24 23  0  0  1  0  0  0  0  0999 V2000
    7.7620  -11.7044   19.5853 C   0  0  0  0  0  0  0  0  0  0  0  0
    8.3152  -12.9709   19.0207 C   0  0  0  0  0  0  0  0  0  0  0  0
    8.4525  -14.0696   20.0689 C   0  0  2  0  0  0  0  0  0  0  0  0
    9.2895  -13.6273   21.2296 C   0  0  0  0  0  0  0  0  0  0  0  0
    9.0611  -15.2671   19.3573 C   0  0  2  0  0  0  0  0  0  0  0  0
    8.2402  -15.6195   18.2164 N   0  0  0  0  0  0  0  0  0  0  0  0
    9.2562  -16.4230   20.2639 C   0  0  0  0  0  0  0  0  0  0  0  0
    8.2956  -17.1524   20.6148 O   0  0  0  0  0  0  0  0  0  0  0  0
    9.8994  -19.6015   19.9391 C   0  0  0  0  0  0  0  0  0  0  0  0
   11.0616  -19.1534   20.7599 C   0  0  1  0  0  0  0  0  0  0  0  0
   12.2283  -18.9623   20.0135 O   0  0  0  0  0  0  0  0  0  0  0  0
   10.8232  -17.9154   21.5561 C   0  0  2  0  0  0  0  0  0  0  0  0
   10.5461  -16.7488   20.7713 N   0  0  0  0  0  0  0  0  0  0  0  0
   11.8859  -17.6654   22.5804 C   0  0  0  0  0  0  0  0  0  0  0  0
   12.6044  -16.6393   22.4779 O   0  0  0  0  0  0  0  0  0  0  0  0
   12.1270  -18.5310   23.6679 N   0  0  0  0  0  0  0  0  0  0  0  0
   13.1324  -18.2753   24.6918 C   0  0  1  0  0  0  0  0  0  0  0  0
   12.7734  -19.1595   25.8847 C   0  0  0  0  0  0  0  0  0  0  0  0
   11.5905  -18.6562   26.5979 C   0  0  0  0  0  0  0  0  0  0  0  0
   11.0467  -17.5525   26.2983 O   0  0  0  0  0  0  0  0  0  0  0  0
   14.4935  -18.5971   24.2058 C   0  0  0  0  0  0  0  0  0  0  0  0
   15.5849  -18.1621   24.9389 O   0  0  0  0  0  0  0  0  0  0  0  0
   11.0124  -19.3741   27.6395 O   0  0  0  0  0  0  0  0  0  0  0  0
   14.7204  -19.2468   23.1590 O   0  0  0  0  0  0  0  0  0  0  0  0
  2  1  1  0
  3  2  1  0
  3  5  1  0
  3  4  1  1
  5  7  1  0
  5  6  1  6
  7  8  2  0
 10 12  1  0
 10 11  1  0
 10  9  1  6
 12 13  1  6
 13  7  1  0
 14 12  1  0
 14 15  2  0
 16 14  1  0
 17 16  1  0
 17 21  1  0
 17 18  1  1
 19 23  1  0
 19 18  1  0
 20 19  2  0
 21 22  1  0
 24 21  2  0
M  END
$$$$
