ITD.pdb
     RDKit          3D

 24 23  0  0  1  0  0  0  0  0999 V2000
    5.7429  -11.0502   26.7387 C   0  0  0  0  0  0  0  0  0  0  0  0
    6.5117  -11.5066   25.5431 C   0  0  0  0  0  0  0  0  0  0  0  0
    6.9658  -12.9577   25.6566 C   0  0  2  0  0  0  0  0  0  0  0  0
    7.7975  -13.1843   26.8816 C   0  0  0  0  0  0  0  0  0  0  0  0
    7.7384  -13.2658   24.3843 C   0  0  2  0  0  0  0  0  0  0  0  0
    7.0421  -12.6987   23.2471 N   0  0  0  0  0  0  0  0  0  0  0  0
    7.9770  -14.7175   24.2065 C   0  0  0  0  0  0  0  0  0  0  0  0
    7.5859  -15.5566   25.0556 O   0  0  0  0  0  0  0  0  0  0  0  0
    7.5659  -16.7424   20.7427 C   0  0  0  0  0  0  0  0  0  0  0  0
    8.8682  -17.0274   21.4122 C   0  0  1  0  0  0  0  0  0  0  0  0
    9.9676  -16.4780   20.7457 O   0  0  0  0  0  0  0  0  0  0  0  0
    8.9425  -16.6020   22.8394 C   0  0  2  0  0  0  0  0  0  0  0  0
    8.6613  -15.2144   23.0610 N   0  0  0  0  0  0  0  0  0  0  0  0
   10.2074  -17.0346   23.5132 C   0  0  0  0  0  0  0  0  0  0  0  0
   11.1326  -16.1989   23.6709 O   0  0  0  0  0  0  0  0  0  0  0  0
   10.4189  -18.3467   23.9862 N   0  0  0  0  0  0  0  0  0  0  0  0
   11.6954  -18.8171   24.5095 C   0  0  1  0  0  0  0  0  0  0  0  0
   11.3738  -19.9266   25.5091 C   0  0  0  0  0  0  0  0  0  0  0  0
   11.7887  -19.5667   26.8728 C   0  0  0  0  0  0  0  0  0  0  0  0
   13.0070  -19.4224   27.1864 O   0  0  0  0  0  0  0  0  0  0  0  0
   12.5648  -19.3359   23.4291 C   0  0  0  0  0  0  0  0  0  0  0  0
   13.9228  -19.4646   23.6681 O   0  0  0  0  0  0  0  0  0  0  0  0
   10.8560  -19.3674   27.8851 O   0  0  0  0  0  0  0  0  0  0  0  0
   12.1413  -19.6695   22.2983 O   0  0  0  0  0  0  0  0  0  0  0  0
  2  1  1  0
  3  2  1  0
  3  5  1  0
  3  4  1  1
  5  7  1  0
  5  6  1  6
  7  8  2  0
 10 12  1  0
 10 11  1  0
 10  9  1  6
 12 13  1  6
 13  7  1  0
 14 12  1  0
 14 15  2  0
 16 14  1  0
 17 16  1  0
 17 21  1  0
 17 18  1  1
 19 23  1  0
 19 18  1  0
 20 19  2  0
 21 22  1  0
 24 21  2  0
M  END
$$$$
