ITD.pdb
     RDKit          3D

 24 23  0  0  1  0  0  0  0  0999 V2000
    8.6086  -12.4746   27.3869 C   0  0  0  0  0  0  0  0  0  0  0  0
    7.9212  -13.7067   26.8989 C   0  0  0  0  0  0  0  0  0  0  0  0
    6.8872  -13.4124   25.8177 C   0  0  2  0  0  0  0  0  0  0  0  0
    5.8083  -12.5006   26.3157 C   0  0  0  0  0  0  0  0  0  0  0  0
    6.3320  -14.7575   25.3782 C   0  0  2  0  0  0  0  0  0  0  0  0
    5.8553  -15.4853   26.5371 N   0  0  0  0  0  0  0  0  0  0  0  0
    7.3181  -15.5502   24.6068 C   0  0  0  0  0  0  0  0  0  0  0  0
    7.9240  -16.5239   25.1195 O   0  0  0  0  0  0  0  0  0  0  0  0
    6.8011  -16.2517   20.6360 C   0  0  0  0  0  0  0  0  0  0  0  0
    8.2226  -15.9579   20.9800 C   0  0  1  0  0  0  0  0  0  0  0  0
    8.6777  -14.7390   20.4681 O   0  0  0  0  0  0  0  0  0  0  0  0
    8.5295  -15.9815   22.4390 C   0  0  2  0  0  0  0  0  0  0  0  0
    7.6145  -15.2343   23.2504 N   0  0  0  0  0  0  0  0  0  0  0  0
    9.9560  -15.6432   22.7419 C   0  0  0  0  0  0  0  0  0  0  0  0
   10.2063  -14.6755   23.5037 O   0  0  0  0  0  0  0  0  0  0  0  0
   11.0478  -16.3616   22.2110 N   0  0  0  0  0  0  0  0  0  0  0  0
   12.3176  -16.5260   22.9076 C   0  0  1  0  0  0  0  0  0  0  0  0
   12.0259  -17.3610   24.1530 C   0  0  0  0  0  0  0  0  0  0  0  0
   13.2492  -17.6395   24.9195 C   0  0  0  0  0  0  0  0  0  0  0  0
   14.0844  -16.7306   25.2020 O   0  0  0  0  0  0  0  0  0  0  0  0
   13.3179  -17.2079   22.0552 C   0  0  0  0  0  0  0  0  0  0  0  0
   14.5677  -16.6318   21.9004 O   0  0  0  0  0  0  0  0  0  0  0  0
   13.5452  -18.9212   25.3714 O   0  0  0  0  0  0  0  0  0  0  0  0
   13.0997  -18.2875   21.4584 O   0  0  0  0  0  0  0  0  0  0  0  0
  2  1  1  0
  3  2  1  0
  3  5  1  0
  3  4  1  1
  5  7  1  0
  5  6  1  1
  7  8  2  0
 10 12  1  0
 10 11  1  0
 10  9  1  1
 12 13  1  1
 13  7  1  0
 14 12  1  0
 14 15  2  0
 16 14  1  0
 17 16  1  0
 17 21  1  0
 17 18  1  1
 19 23  1  0
 19 18  1  0
 20 19  2  0
 21 22  1  0
 24 21  2  0
M  END
$$$$
