ITD.pdb
     RDKit          3D

 24 23  0  0  1  0  0  0  0  0999 V2000
    6.8016  -11.8599   27.5097 C   0  0  0  0  0  0  0  0  0  0  0  0
    6.2645  -12.9757   26.6759 C   0  0  0  0  0  0  0  0  0  0  0  0
    7.3579  -13.7205   25.9180 C   0  0  2  0  0  0  0  0  0  0  0  0
    8.0655  -12.8276   24.9457 C   0  0  0  0  0  0  0  0  0  0  0  0
    6.6775  -14.8877   25.2213 C   0  0  2  0  0  0  0  0  0  0  0  0
    5.8150  -15.5751   26.1612 N   0  0  0  0  0  0  0  0  0  0  0  0
    7.6491  -15.8160   24.5965 C   0  0  0  0  0  0  0  0  0  0  0  0
    8.1709  -16.7562   25.2460 O   0  0  0  0  0  0  0  0  0  0  0  0
    6.9385  -17.6902   21.3294 C   0  0  0  0  0  0  0  0  0  0  0  0
    8.2995  -17.0863   21.2363 C   0  0  1  0  0  0  0  0  0  0  0  0
    8.3780  -16.0314   20.3222 O   0  0  0  0  0  0  0  0  0  0  0  0
    8.8599  -16.6077   22.5325 C   0  0  2  0  0  0  0  0  0  0  0  0
    8.0268  -15.6739   23.2310 N   0  0  0  0  0  0  0  0  0  0  0  0
   10.2720  -16.1246   22.4161 C   0  0  0  0  0  0  0  0  0  0  0  0
   10.5547  -14.9631   22.8040 O   0  0  0  0  0  0  0  0  0  0  0  0
   11.3152  -16.9134   21.8873 N   0  0  0  0  0  0  0  0  0  0  0  0
   12.7170  -16.7391   22.2470 C   0  0  1  0  0  0  0  0  0  0  0  0
   12.7344  -16.1195   23.6432 C   0  0  0  0  0  0  0  0  0  0  0  0
   14.1061  -15.9314   24.1374 C   0  0  0  0  0  0  0  0  0  0  0  0
   14.7106  -16.8292   24.7947 O   0  0  0  0  0  0  0  0  0  0  0  0
   13.4394  -18.0315   22.2500 C   0  0  0  0  0  0  0  0  0  0  0  0
   14.7417  -18.0700   21.7807 O   0  0  0  0  0  0  0  0  0  0  0  0
   14.8053  -14.7520   23.9034 O   0  0  0  0  0  0  0  0  0  0  0  0
   12.9380  -19.1051   22.6564 O   0  0  0  0  0  0  0  0  0  0  0  0
  2  1  1  0
  3  2  1  0
  3  5  1  0
  3  4  1  6
  5  7  1  0
  5  6  1  1
  7  8  2  0
 10 12  1  0
 10 11  1  0
 10  9  1  1
 12 13  1  6
 13  7  1  0
 14 12  1  0
 14 15  2  0
 16 14  1  0
 17 16  1  0
 17 21  1  0
 17 18  1  1
 19 23  1  0
 19 18  1  0
 20 19  2  0
 21 22  1  0
 24 21  2  0
M  END
$$$$
