ITD.pdb
     RDKit          3D

 24 23  0  0  1  0  0  0  0  0999 V2000
    6.6252  -11.4017   27.5981 C   0  0  0  0  0  0  0  0  0  0  0  0
    6.0426  -12.6131   26.9488 C   0  0  0  0  0  0  0  0  0  0  0  0
    7.0661  -13.3867   26.1250 C   0  0  2  0  0  0  0  0  0  0  0  0
    7.6606  -12.5399   25.0419 C   0  0  0  0  0  0  0  0  0  0  0  0
    6.3371  -14.5955   25.5610 C   0  0  2  0  0  0  0  0  0  0  0  0
    5.7955  -15.3840   26.6494 N   0  0  0  0  0  0  0  0  0  0  0  0
    7.1999  -15.4123   24.6754 C   0  0  0  0  0  0  0  0  0  0  0  0
    7.7880  -16.4395   25.0961 O   0  0  0  0  0  0  0  0  0  0  0  0
    8.3315  -14.0146   20.6599 C   0  0  0  0  0  0  0  0  0  0  0  0
    8.0121  -15.4406   20.9601 C   0  0  1  0  0  0  0  0  0  0  0  0
    8.7394  -16.3483   20.1843 O   0  0  0  0  0  0  0  0  0  0  0  0
    8.1775  -15.8296   22.3900 C   0  0  2  0  0  0  0  0  0  0  0  0
    7.3933  -15.0594   23.3096 N   0  0  0  0  0  0  0  0  0  0  0  0
    9.6118  -15.9176   22.8097 C   0  0  0  0  0  0  0  0  0  0  0  0
   10.1706  -14.9012   23.2938 O   0  0  0  0  0  0  0  0  0  0  0  0
   10.3793  -17.0951   22.6891 N   0  0  0  0  0  0  0  0  0  0  0  0
   11.7820  -17.1839   23.0751 C   0  0  1  0  0  0  0  0  0  0  0  0
   11.9890  -18.5867   23.6436 C   0  0  0  0  0  0  0  0  0  0  0  0
   13.3700  -18.7875   24.1060 C   0  0  0  0  0  0  0  0  0  0  0  0
   14.2091  -19.4607   23.4380 O   0  0  0  0  0  0  0  0  0  0  0  0
   12.6770  -16.9625   21.9166 C   0  0  0  0  0  0  0  0  0  0  0  0
   13.9003  -16.3478   22.1253 O   0  0  0  0  0  0  0  0  0  0  0  0
   13.8192  -18.2437   25.3047 O   0  0  0  0  0  0  0  0  0  0  0  0
   12.3913  -17.3017   20.7450 O   0  0  0  0  0  0  0  0  0  0  0  0
  2  1  1  0
  3  2  1  0
  3  5  1  0
  3  4  1  6
  5  7  1  0
  5  6  1  1
  7  8  2  0
 10 12  1  0
 10 11  1  0
 10  9  1  1
 12 13  1  1
 13  7  1  0
 14 12  1  0
 14 15  2  0
 16 14  1  0
 17 16  1  0
 17 21  1  0
 17 18  1  6
 19 23  1  0
 19 18  1  0
 20 19  2  0
 21 22  1  0
 24 21  2  0
M  END
$$$$
