ITD.pdb
     RDKit          3D

 24 23  0  0  1  0  0  0  0  0999 V2000
    6.4212  -11.1971   27.1720 C   0  0  0  0  0  0  0  0  0  0  0  0
    5.9550  -12.4005   26.4214 C   0  0  0  0  0  0  0  0  0  0  0  0
    7.1064  -13.2897   25.9653 C   0  0  2  0  0  0  0  0  0  0  0  0
    8.0350  -12.5640   25.0408 C   0  0  0  0  0  0  0  0  0  0  0  0
    6.4745  -14.4995   25.2961 C   0  0  2  0  0  0  0  0  0  0  0  0
    5.5180  -15.1066   26.1996 N   0  0  0  0  0  0  0  0  0  0  0  0
    7.4845  -15.4808   24.8346 C   0  0  0  0  0  0  0  0  0  0  0  0
    7.8959  -16.4018   25.5833 O   0  0  0  0  0  0  0  0  0  0  0  0
    7.5083  -16.6037   20.8889 C   0  0  0  0  0  0  0  0  0  0  0  0
    8.8738  -16.4945   21.4795 C   0  0  1  0  0  0  0  0  0  0  0  0
    9.6156  -15.4242   20.9704 O   0  0  0  0  0  0  0  0  0  0  0  0
    8.9048  -16.4023   22.9675 C   0  0  2  0  0  0  0  0  0  0  0  0
    8.0264  -15.4137   23.5196 N   0  0  0  0  0  0  0  0  0  0  0  0
   10.2927  -16.2924   23.5177 C   0  0  0  0  0  0  0  0  0  0  0  0
   10.7400  -15.1591   23.8262 O   0  0  0  0  0  0  0  0  0  0  0  0
   11.1358  -17.4068   23.7104 N   0  0  0  0  0  0  0  0  0  0  0  0
   12.4269  -17.3319   24.3828 C   0  0  1  0  0  0  0  0  0  0  0  0
   12.7412  -18.7417   24.8802 C   0  0  0  0  0  0  0  0  0  0  0  0
   12.0390  -19.0443   26.1358 C   0  0  0  0  0  0  0  0  0  0  0  0
   11.5468  -18.1333   26.8646 O   0  0  0  0  0  0  0  0  0  0  0  0
   13.4890  -16.8632   23.4639 C   0  0  0  0  0  0  0  0  0  0  0  0
   13.2662  -16.9247   22.0985 O   0  0  0  0  0  0  0  0  0  0  0  0
   11.8830  -20.3525   26.5817 O   0  0  0  0  0  0  0  0  0  0  0  0
   14.5904  -16.4090   23.8514 O   0  0  0  0  0  0  0  0  0  0  0  0
  2  1  1  0
  3  2  1  0
  3  5  1  0
  3  4  1  6
  5  7  1  0
  5  6  1  1
  7  8  2  0
 10 12  1  0
 10 11  1  0
 10  9  1  6
 12 13  1  6
 13  7  1  0
 14 12  1  0
 14 15  2  0
 16 14  1  0
 17 16  1  0
 17 21  1  0
 17 18  1  6
 19 23  1  0
 19 18  1  0
 20 19  2  0
 21 22  1  0
 24 21  2  0
M  END
$$$$
