QSR.pdb
     RDKit          3D

 27 26  0  0  1  0  0  0  0  0999 V2000
    8.4413  -12.7265   13.2538 N   0  0  0  0  0  0  0  0  0  0  0  0
    8.0603  -14.0660   13.0352 C   0  0  0  0  0  0  0  0  0  0  0  0
    7.7719  -14.4587   11.8791 O   0  0  0  0  0  0  0  0  0  0  0  0
    8.0031  -14.9961   14.1660 C   0  0  0  0  0  0  0  0  0  0  0  0
    8.3998  -14.3109   15.4791 C   0  0  0  0  0  0  0  0  0  0  0  0
    8.5050  -15.4115   16.5212 C   0  0  2  0  0  0  0  0  0  0  0  0
    7.1881  -16.0144   16.6115 N   0  0  0  0  0  0  0  0  0  0  0  0
    8.8924  -14.9084   17.8390 C   0  0  0  0  0  0  0  0  0  0  0  0
   10.0966  -14.5542   18.0676 O   0  0  0  0  0  0  0  0  0  0  0  0
    6.2630  -14.6730   21.2139 O   0  0  0  0  0  0  0  0  0  0  0  0
    7.2950  -13.7859   20.9995 C   0  0  0  0  0  0  0  0  0  0  0  0
    8.4766  -14.4625   20.2924 C   0  0  2  0  0  0  0  0  0  0  0  0
    8.0140  -14.7661   18.9528 N   0  0  0  0  0  0  0  0  0  0  0  0
    8.7900  -15.6736   21.0810 C   0  0  0  0  0  0  0  0  0  0  0  0
    8.2144  -16.7729   20.8672 O   0  0  0  0  0  0  0  0  0  0  0  0
   15.5071  -18.6331   19.3403 N   0  0  0  0  0  0  0  0  0  0  0  0
   14.2400  -18.8430   18.7159 C   0  0  0  0  0  0  0  0  0  0  0  0
   14.2102  -19.3752   17.5371 N   0  0  0  0  0  0  0  0  0  0  0  0
   13.0402  -18.4670   19.3934 N   0  0  0  0  0  0  0  0  0  0  0  0
   13.0964  -17.8792   20.6985 C   0  0  0  0  0  0  0  0  0  0  0  0
   11.6833  -17.7574   21.2151 C   0  0  0  0  0  0  0  0  0  0  0  0
   11.6086  -17.0979   22.5519 C   0  0  0  0  0  0  0  0  0  0  0  0
   10.1993  -16.6969   22.9011 C   0  0  2  0  0  0  0  0  0  0  0  0
    9.7762  -15.5410   22.0977 N   0  0  0  0  0  0  0  0  0  0  0  0
    9.9875  -16.4340   24.3407 C   0  0  0  0  0  0  0  0  0  0  0  0
   10.1209  -17.4058   25.3148 O   0  0  0  0  0  0  0  0  0  0  0  0
    9.6697  -15.2765   24.7157 O   0  0  0  0  0  0  0  0  0  0  0  0
  1  2  1  0
  2  4  1  0
  2  3  2  0
  4  5  1  0
  5  6  1  0
  6  7  1  1
  6  8  1  0
  8 13  1  0
  8  9  2  0
 11 10  1  0
 12 11  1  1
 13 12  1  0
 14 12  1  0
 14 15  2  0
 17 19  1  0
 17 16  1  0
 18 17  2  0
 20 19  1  0
 20 21  1  0
 21 22  1  0
 23 22  1  1
 23 24  1  0
 24 14  1  0
 25 23  1  0
 26 25  1  0
 27 25  2  0
M  END
$$$$
