QSR.pdb
     RDKit          3D

 27 26  0  0  1  0  0  0  0  0999 V2000
    8.0125  -12.3621   16.7812 N   0  0  0  0  0  0  0  0  0  0  0  0
    8.3018  -13.5578   16.0927 C   0  0  0  0  0  0  0  0  0  0  0  0
    8.1877  -13.6099   14.8445 O   0  0  0  0  0  0  0  0  0  0  0  0
    8.7364  -14.7386   16.8438 C   0  0  0  0  0  0  0  0  0  0  0  0
    8.7180  -14.4823   18.3554 C   0  0  0  0  0  0  0  0  0  0  0  0
    9.2879  -15.7304   19.0078 C   0  0  2  0  0  0  0  0  0  0  0  0
    8.8960  -16.8456   18.1658 N   0  0  0  0  0  0  0  0  0  0  0  0
    8.7735  -15.9479   20.3599 C   0  0  0  0  0  0  0  0  0  0  0  0
    8.9115  -15.0506   21.2563 O   0  0  0  0  0  0  0  0  0  0  0  0
    7.7372  -19.6363   21.9092 O   0  0  0  0  0  0  0  0  0  0  0  0
    6.8294  -18.6264   22.1417 C   0  0  0  0  0  0  0  0  0  0  0  0
    7.5058  -17.2495   22.1176 C   0  0  2  0  0  0  0  0  0  0  0  0
    8.0977  -17.1232   20.8006 N   0  0  0  0  0  0  0  0  0  0  0  0
    8.5120  -17.2656   23.2012 C   0  0  0  0  0  0  0  0  0  0  0  0
    9.6662  -17.7385   23.0291 O   0  0  0  0  0  0  0  0  0  0  0  0
    6.2783  -11.4213   24.9051 N   0  0  0  0  0  0  0  0  0  0  0  0
    6.1713  -11.8136   26.2740 C   0  0  0  0  0  0  0  0  0  0  0  0
    5.1121  -11.4748   26.9351 N   0  0  0  0  0  0  0  0  0  0  0  0
    7.2216  -12.5644   26.8847 N   0  0  0  0  0  0  0  0  0  0  0  0
    8.3678  -12.9627   26.1234 C   0  0  0  0  0  0  0  0  0  0  0  0
    8.1189  -14.3574   25.6028 C   0  0  0  0  0  0  0  0  0  0  0  0
    8.8275  -15.4071   26.3925 C   0  0  0  0  0  0  0  0  0  0  0  0
    9.0514  -16.6595   25.5861 C   0  0  2  0  0  0  0  0  0  0  0  0
    8.1159  -16.7201   24.4540 N   0  0  0  0  0  0  0  0  0  0  0  0
    8.9876  -17.9056   26.3796 C   0  0  0  0  0  0  0  0  0  0  0  0
    9.9983  -18.3136   27.2299 O   0  0  0  0  0  0  0  0  0  0  0  0
    7.9728  -18.6428   26.2891 O   0  0  0  0  0  0  0  0  0  0  0  0
  1  2  1  0
  2  4  1  0
  2  3  2  0
  4  5  1  0
  5  6  1  0
  6  7  1  6
  6  8  1  0
  8 13  1  0
  8  9  2  0
 11 10  1  0
 12 11  1  6
 13 12  1  0
 14 12  1  0
 14 15  2  0
 17 19  1  0
 17 16  1  0
 18 17  2  0
 20 19  1  0
 20 21  1  0
 21 22  1  0
 23 22  1  1
 23 24  1  0
 24 14  1  0
 25 23  1  0
 26 25  1  0
 27 25  2  0
M  END
$$$$
