QSR.pdb
     RDKit          3D

 27 26  0  0  1  0  0  0  0  0999 V2000
    7.9979  -15.6632   11.6226 N   0  0  0  0  0  0  0  0  0  0  0  0
    7.2817  -14.7949   12.4712 C   0  0  0  0  0  0  0  0  0  0  0  0
    6.9275  -13.6633   12.0616 O   0  0  0  0  0  0  0  0  0  0  0  0
    6.9537  -15.2221   13.8340 C   0  0  0  0  0  0  0  0  0  0  0  0
    7.9208  -14.6205   14.8606 C   0  0  0  0  0  0  0  0  0  0  0  0
    8.2543  -15.7347   15.8382 C   0  0  2  0  0  0  0  0  0  0  0  0
    7.0481  -16.5295   15.9772 N   0  0  0  0  0  0  0  0  0  0  0  0
    8.6515  -15.2336   17.1539 C   0  0  0  0  0  0  0  0  0  0  0  0
    9.7235  -14.5555   17.2909 O   0  0  0  0  0  0  0  0  0  0  0  0
    6.9213  -16.9474   20.5270 O   0  0  0  0  0  0  0  0  0  0  0  0
    7.4083  -15.6673   20.6752 C   0  0  0  0  0  0  0  0  0  0  0  0
    8.5354  -15.3782   19.6751 C   0  0  2  0  0  0  0  0  0  0  0  0
    7.9234  -15.4370   18.3625 N   0  0  0  0  0  0  0  0  0  0  0  0
    9.5517  -16.4321   19.8836 C   0  0  0  0  0  0  0  0  0  0  0  0
    9.7563  -17.3357   19.0309 O   0  0  0  0  0  0  0  0  0  0  0  0
   14.6652  -14.8896   16.9528 N   0  0  0  0  0  0  0  0  0  0  0  0
   15.7441  -14.6026   17.8433 C   0  0  0  0  0  0  0  0  0  0  0  0
   16.9450  -14.9255   17.4867 N   0  0  0  0  0  0  0  0  0  0  0  0
   15.4844  -13.9717   19.0980 N   0  0  0  0  0  0  0  0  0  0  0  0
   14.1397  -13.7018   19.5112 C   0  0  0  0  0  0  0  0  0  0  0  0
   13.6710  -14.8612   20.3565 C   0  0  0  0  0  0  0  0  0  0  0  0
   12.1895  -15.0394   20.3277 C   0  0  0  0  0  0  0  0  0  0  0  0
   11.7576  -16.2656   21.0886 C   0  0  2  0  0  0  0  0  0  0  0  0
   10.2922  -16.3795   21.0972 N   0  0  0  0  0  0  0  0  0  0  0  0
   12.2921  -16.3388   22.4653 C   0  0  0  0  0  0  0  0  0  0  0  0
   11.8640  -15.5131   23.4881 O   0  0  0  0  0  0  0  0  0  0  0  0
   13.1800  -17.1868   22.7375 O   0  0  0  0  0  0  0  0  0  0  0  0
  1  2  1  0
  2  4  1  0
  2  3  2  0
  4  5  1  0
  5  6  1  0
  6  7  1  1
  6  8  1  0
  8 13  1  0
  8  9  2  0
 11 10  1  0
 12 11  1  1
 13 12  1  0
 14 12  1  0
 14 15  2  0
 17 19  1  0
 17 16  1  0
 18 17  2  0
 20 19  1  0
 20 21  1  0
 21 22  1  0
 23 22  1  1
 23 24  1  0
 24 14  1  0
 25 23  1  0
 26 25  1  0
 27 25  2  0
M  END
$$$$
