QSR.pdb
     RDKit          3D

 27 26  0  0  1  0  0  0  0  0999 V2000
    7.6025  -12.3190   16.7405 N   0  0  0  0  0  0  0  0  0  0  0  0
    7.7083  -13.5619   16.0838 C   0  0  0  0  0  0  0  0  0  0  0  0
    8.0068  -13.6082   14.8662 O   0  0  0  0  0  0  0  0  0  0  0  0
    7.4675  -14.7987   16.8319 C   0  0  0  0  0  0  0  0  0  0  0  0
    7.0649  -14.5095   18.2829 C   0  0  0  0  0  0  0  0  0  0  0  0
    7.9464  -15.3877   19.1546 C   0  0  2  0  0  0  0  0  0  0  0  0
    7.1636  -16.5695   19.4659 N   0  0  0  0  0  0  0  0  0  0  0  0
    8.3413  -14.7332   20.4017 C   0  0  0  0  0  0  0  0  0  0  0  0
    9.0062  -13.6445   20.3782 O   0  0  0  0  0  0  0  0  0  0  0  0
    7.0372  -15.5347   24.2297 O   0  0  0  0  0  0  0  0  0  0  0  0
    8.0573  -14.6332   24.0187 C   0  0  0  0  0  0  0  0  0  0  0  0
    8.9404  -15.0540   22.8367 C   0  0  2  0  0  0  0  0  0  0  0  0
    8.0426  -15.2139   21.7101 N   0  0  0  0  0  0  0  0  0  0  0  0
    9.5905  -16.3202   23.2383 C   0  0  0  0  0  0  0  0  0  0  0  0
    9.3133  -17.4150   22.6816 O   0  0  0  0  0  0  0  0  0  0  0  0
   14.3289  -15.3868   18.8671 N   0  0  0  0  0  0  0  0  0  0  0  0
   15.0190  -14.9376   20.0339 C   0  0  0  0  0  0  0  0  0  0  0  0
   16.0918  -14.2301   19.8859 N   0  0  0  0  0  0  0  0  0  0  0  0
   14.5206  -15.2721   21.3300 N   0  0  0  0  0  0  0  0  0  0  0  0
   13.4769  -16.2418   21.4793 C   0  0  0  0  0  0  0  0  0  0  0  0
   13.3006  -16.5122   22.9538 C   0  0  0  0  0  0  0  0  0  0  0  0
   12.3025  -17.5864   23.2319 C   0  0  0  0  0  0  0  0  0  0  0  0
   11.5300  -17.3198   24.4973 C   0  0  2  0  0  0  0  0  0  0  0  0
   10.5484  -16.2460   24.2875 N   0  0  0  0  0  0  0  0  0  0  0  0
   12.3801  -17.0241   25.6704 C   0  0  0  0  0  0  0  0  0  0  0  0
   12.2923  -15.8478   26.3912 O   0  0  0  0  0  0  0  0  0  0  0  0
   13.2302  -17.8718   26.0449 O   0  0  0  0  0  0  0  0  0  0  0  0
  1  2  1  0
  2  4  1  0
  2  3  2  0
  4  5  1  0
  5  6  1  0
  6  7  1  1
  6  8  1  0
  8 13  1  0
  8  9  2  0
 11 10  1  0
 12 11  1  1
 13 12  1  0
 14 12  1  0
 14 15  2  0
 17 19  1  0
 17 16  1  0
 18 17  2  0
 20 19  1  0
 20 21  1  0
 21 22  1  0
 23 22  1  6
 23 24  1  0
 24 14  1  0
 25 23  1  0
 26 25  1  0
 27 25  2  0
M  END
$$$$
