QSR.pdb
     RDKit          3D

 27 26  0  0  1  0  0  0  0  0999 V2000
    9.3010  -20.9052   18.5502 N   0  0  0  0  0  0  0  0  0  0  0  0
    9.2801  -20.4267   17.2243 C   0  0  0  0  0  0  0  0  0  0  0  0
    9.8238  -21.0875   16.3070 O   0  0  0  0  0  0  0  0  0  0  0  0
    8.6195  -19.1535   16.9246 C   0  0  0  0  0  0  0  0  0  0  0  0
    7.9495  -18.5602   18.1696 C   0  0  0  0  0  0  0  0  0  0  0  0
    7.8978  -17.0574   17.9525 C   0  0  2  0  0  0  0  0  0  0  0  0
    8.6125  -16.7994   16.7161 N   0  0  0  0  0  0  0  0  0  0  0  0
    8.5306  -16.3064   19.0366 C   0  0  0  0  0  0  0  0  0  0  0  0
    9.7980  -16.1635   19.0703 O   0  0  0  0  0  0  0  0  0  0  0  0
    7.8788  -14.2604   23.4396 O   0  0  0  0  0  0  0  0  0  0  0  0
    7.3720  -14.7604   22.2602 C   0  0  0  0  0  0  0  0  0  0  0  0
    8.4904  -15.2735   21.3436 C   0  0  2  0  0  0  0  0  0  0  0  0
    7.8379  -15.6851   20.1166 N   0  0  0  0  0  0  0  0  0  0  0  0
    9.1278  -16.3984   22.0614 C   0  0  0  0  0  0  0  0  0  0  0  0
    8.9576  -17.5945   21.7068 O   0  0  0  0  0  0  0  0  0  0  0  0
   16.7352  -15.8241   22.2398 N   0  0  0  0  0  0  0  0  0  0  0  0
   16.0783  -14.9535   21.3179 C   0  0  0  0  0  0  0  0  0  0  0  0
   16.6162  -13.8060   21.0580 N   0  0  0  0  0  0  0  0  0  0  0  0
   14.8534  -15.3575   20.7046 N   0  0  0  0  0  0  0  0  0  0  0  0
   14.3175  -16.6643   20.9434 C   0  0  0  0  0  0  0  0  0  0  0  0
   13.5618  -16.6258   22.2494 C   0  0  0  0  0  0  0  0  0  0  0  0
   12.1246  -16.2618   22.0782 C   0  0  0  0  0  0  0  0  0  0  0  0
   11.3117  -16.5981   23.3010 C   0  0  2  0  0  0  0  0  0  0  0  0
    9.9467  -16.0674   23.1767 N   0  0  0  0  0  0  0  0  0  0  0  0
   11.9262  -16.1578   24.5718 C   0  0  0  0  0  0  0  0  0  0  0  0
   12.9677  -16.8317   25.1820 O   0  0  0  0  0  0  0  0  0  0  0  0
   11.4932  -15.1228   25.1399 O   0  0  0  0  0  0  0  0  0  0  0  0
  1  2  1  0
  2  4  1  0
  2  3  2  0
  4  5  1  0
  5  6  1  0
  6  7  1  6
  6  8  1  0
  8 13  1  0
  8  9  2  0
 11 10  1  0
 12 11  1  1
 13 12  1  0
 14 12  1  0
 14 15  2  0
 17 19  1  0
 17 16  1  0
 18 17  2  0
 20 19  1  0
 20 21  1  0
 21 22  1  0
 23 22  1  6
 23 24  1  0
 24 14  1  0
 25 23  1  0
 26 25  1  0
 27 25  2  0
M  END
$$$$
