QSR.pdb
     RDKit          3D

 27 26  0  0  1  0  0  0  0  0999 V2000
    8.2201  -12.6606   14.3398 N   0  0  0  0  0  0  0  0  0  0  0  0
    7.7430  -13.9656   14.1019 C   0  0  0  0  0  0  0  0  0  0  0  0
    7.1964  -14.2474   13.0085 O   0  0  0  0  0  0  0  0  0  0  0  0
    7.8894  -14.9902   15.1392 C   0  0  0  0  0  0  0  0  0  0  0  0
    8.5312  -14.4182   16.4088 C   0  0  0  0  0  0  0  0  0  0  0  0
    8.7461  -15.5940   17.3466 C   0  0  2  0  0  0  0  0  0  0  0  0
    7.4966  -16.3320   17.3677 N   0  0  0  0  0  0  0  0  0  0  0  0
    9.0793  -15.1783   18.7090 C   0  0  0  0  0  0  0  0  0  0  0  0
   10.2874  -14.9226   19.0297 O   0  0  0  0  0  0  0  0  0  0  0  0
    6.6161  -15.8204   22.0821 O   0  0  0  0  0  0  0  0  0  0  0  0
    7.2218  -14.5931   21.9245 C   0  0  0  0  0  0  0  0  0  0  0  0
    8.5304  -14.7126   21.1323 C   0  0  2  0  0  0  0  0  0  0  0  0
    8.1411  -15.0215   19.7708 N   0  0  0  0  0  0  0  0  0  0  0  0
    9.3009  -15.8012   21.7712 C   0  0  0  0  0  0  0  0  0  0  0  0
    9.2531  -16.9860   21.3478 O   0  0  0  0  0  0  0  0  0  0  0  0
   17.4639  -14.2495   21.3299 N   0  0  0  0  0  0  0  0  0  0  0  0
   16.1019  -14.2438   20.9006 C   0  0  0  0  0  0  0  0  0  0  0  0
   15.8272  -13.8040   19.7154 N   0  0  0  0  0  0  0  0  0  0  0  0
   15.0768  -14.7179   21.7749 N   0  0  0  0  0  0  0  0  0  0  0  0
   14.8431  -16.1230   21.9262 C   0  0  0  0  0  0  0  0  0  0  0  0
   13.7809  -16.3069   22.9828 C   0  0  0  0  0  0  0  0  0  0  0  0
   12.5416  -15.5237   22.7028 C   0  0  0  0  0  0  0  0  0  0  0  0
   11.3114  -16.2132   23.2321 C   0  0  2  0  0  0  0  0  0  0  0  0
   10.1031  -15.4485   22.8920 N   0  0  0  0  0  0  0  0  0  0  0  0
   11.3565  -16.4946   24.6830 C   0  0  0  0  0  0  0  0  0  0  0  0
   12.1653  -17.4674   25.2402 O   0  0  0  0  0  0  0  0  0  0  0  0
   10.6304  -15.8272   25.4632 O   0  0  0  0  0  0  0  0  0  0  0  0
  1  2  1  0
  2  4  1  0
  2  3  2  0
  4  5  1  0
  5  6  1  0
  6  7  1  1
  6  8  1  0
  8 13  1  0
  8  9  2  0
 11 10  1  0
 12 11  1  1
 13 12  1  0
 14 12  1  0
 14 15  2  0
 17 19  1  0
 17 16  1  0
 18 17  2  0
 20 19  1  0
 20 21  1  0
 21 22  1  0
 23 22  1  1
 23 24  1  0
 24 14  1  0
 25 23  1  0
 26 25  1  0
 27 25  2  0
M  END
$$$$
