QSR.pdb
     RDKit          3D

 27 26  0  0  1  0  0  0  0  0999 V2000
    8.9173  -13.1479   15.1496 N   0  0  0  0  0  0  0  0  0  0  0  0
    7.6592  -13.7753   15.0454 C   0  0  0  0  0  0  0  0  0  0  0  0
    6.6548  -13.1172   14.6823 O   0  0  0  0  0  0  0  0  0  0  0  0
    7.5322  -15.2000   15.3638 C   0  0  0  0  0  0  0  0  0  0  0  0
    8.8846  -15.8145   15.7439 C   0  0  0  0  0  0  0  0  0  0  0  0
    8.6661  -16.5525   17.0538 C   0  0  2  0  0  0  0  0  0  0  0  0
    7.2423  -16.8208   17.1378 N   0  0  0  0  0  0  0  0  0  0  0  0
    9.0751  -15.7698   18.2199 C   0  0  0  0  0  0  0  0  0  0  0  0
   10.3051  -15.4906   18.4121 O   0  0  0  0  0  0  0  0  0  0  0  0
    6.3883  -14.9341   21.4513 O   0  0  0  0  0  0  0  0  0  0  0  0
    7.4674  -14.1226   21.1777 C   0  0  0  0  0  0  0  0  0  0  0  0
    8.6229  -14.9187   20.5569 C   0  0  2  0  0  0  0  0  0  0  0  0
    8.1917  -15.2602   19.2160 N   0  0  0  0  0  0  0  0  0  0  0  0
    8.8158  -16.1049   21.4187 C   0  0  0  0  0  0  0  0  0  0  0  0
    8.5080  -17.2633   21.0330 O   0  0  0  0  0  0  0  0  0  0  0  0
   11.3864  -21.2521   24.2575 N   0  0  0  0  0  0  0  0  0  0  0  0
   12.6624  -21.4450   23.6462 C   0  0  0  0  0  0  0  0  0  0  0  0
   13.2412  -22.5954   23.7688 N   0  0  0  0  0  0  0  0  0  0  0  0
   13.2726  -20.3786   22.9179 N   0  0  0  0  0  0  0  0  0  0  0  0
   12.4686  -19.4374   22.1971 C   0  0  0  0  0  0  0  0  0  0  0  0
   12.3318  -18.1964   23.0454 C   0  0  0  0  0  0  0  0  0  0  0  0
   11.4235  -17.1775   22.4417 C   0  0  0  0  0  0  0  0  0  0  0  0
   10.2561  -16.8646   23.3407 C   0  0  2  0  0  0  0  0  0  0  0  0
    9.3676  -15.8780   22.7102 N   0  0  0  0  0  0  0  0  0  0  0  0
   10.6430  -16.4224   24.6976 C   0  0  0  0  0  0  0  0  0  0  0  0
   10.5744  -17.2421   25.8087 O   0  0  0  0  0  0  0  0  0  0  0  0
   11.0564  -15.2471   24.8685 O   0  0  0  0  0  0  0  0  0  0  0  0
  1  2  1  0
  2  4  1  0
  2  3  2  0
  4  5  1  0
  5  6  1  0
  6  7  1  1
  6  8  1  0
  8 13  1  0
  8  9  2  0
 11 10  1  0
 12 11  1  1
 13 12  1  0
 14 12  1  0
 14 15  2  0
 17 19  1  0
 17 16  1  0
 18 17  2  0
 20 19  1  0
 20 21  1  0
 21 22  1  0
 23 22  1  6
 23 24  1  0
 24 14  1  0
 25 23  1  0
 26 25  1  0
 27 25  2  0
M  END
$$$$
