QSR.pdb
     RDKit          3D

 27 26  0  0  1  0  0  0  0  0999 V2000
   11.4512  -16.7830   17.7275 N   0  0  0  0  0  0  0  0  0  0  0  0
   11.2777  -16.6474   16.3351 C   0  0  0  0  0  0  0  0  0  0  0  0
   11.7048  -17.5342   15.5573 O   0  0  0  0  0  0  0  0  0  0  0  0
   10.5959  -15.4648   15.8024 C   0  0  0  0  0  0  0  0  0  0  0  0
   10.1333  -14.5284   16.9249 C   0  0  0  0  0  0  0  0  0  0  0  0
    8.6143  -14.5475   16.8992 C   0  0  2  0  0  0  0  0  0  0  0  0
    8.2079  -13.4658   16.0212 N   0  0  0  0  0  0  0  0  0  0  0  0
    8.0229  -14.3389   18.2208 C   0  0  0  0  0  0  0  0  0  0  0  0
    7.1087  -13.4651   18.3895 O   0  0  0  0  0  0  0  0  0  0  0  0
    6.1304  -16.7069   20.3377 O   0  0  0  0  0  0  0  0  0  0  0  0
    6.2389  -15.3347   20.3952 C   0  0  0  0  0  0  0  0  0  0  0  0
    7.6853  -14.8985   20.6628 C   0  0  2  0  0  0  0  0  0  0  0  0
    8.3836  -15.0510   19.4019 N   0  0  0  0  0  0  0  0  0  0  0  0
    8.1989  -15.7993   21.7173 C   0  0  0  0  0  0  0  0  0  0  0  0
    8.6683  -16.9364   21.4490 O   0  0  0  0  0  0  0  0  0  0  0  0
    9.7603  -14.0756   30.4195 N   0  0  0  0  0  0  0  0  0  0  0  0
   10.6309  -15.1180   29.9782 C   0  0  0  0  0  0  0  0  0  0  0  0
   11.2645  -15.8140   30.8658 N   0  0  0  0  0  0  0  0  0  0  0  0
   10.7869  -15.3733   28.5816 N   0  0  0  0  0  0  0  0  0  0  0  0
    9.9319  -14.7345   27.6261 C   0  0  0  0  0  0  0  0  0  0  0  0
    9.8367  -15.6302   26.4150 C   0  0  0  0  0  0  0  0  0  0  0  0
    8.9409  -15.0806   25.3552 C   0  0  0  0  0  0  0  0  0  0  0  0
    8.9357  -15.9453   24.1218 C   0  0  2  0  0  0  0  0  0  0  0  0
    8.1388  -15.3213   23.0560 N   0  0  0  0  0  0  0  0  0  0  0  0
    8.4857  -17.3332   24.3617 C   0  0  0  0  0  0  0  0  0  0  0  0
    7.2574  -17.8127   23.9467 O   0  0  0  0  0  0  0  0  0  0  0  0
    9.2435  -18.1302   24.9718 O   0  0  0  0  0  0  0  0  0  0  0  0
  1  2  1  0
  2  4  1  0
  2  3  2  0
  4  5  1  0
  5  6  1  0
  6  7  1  6
  6  8  1  0
  8 13  1  0
  8  9  2  0
 11 10  1  0
 12 11  1  6
 13 12  1  0
 14 12  1  0
 14 15  2  0
 17 19  1  0
 17 16  1  0
 18 17  2  0
 20 19  1  0
 20 21  1  0
 21 22  1  0
 23 22  1  1
 23 24  1  0
 24 14  1  0
 25 23  1  0
 26 25  1  0
 27 25  2  0
M  END
$$$$
