QSR.pdb
     RDKit          3D

 27 26  0  0  1  0  0  0  0  0999 V2000
    7.9648  -13.6657   12.2771 N   0  0  0  0  0  0  0  0  0  0  0  0
    8.3044  -15.0234   12.1084 C   0  0  0  0  0  0  0  0  0  0  0  0
    8.6740  -15.4461   10.9866 O   0  0  0  0  0  0  0  0  0  0  0  0
    8.2230  -15.9373   13.2510 C   0  0  0  0  0  0  0  0  0  0  0  0
    8.8213  -15.3112   14.5164 C   0  0  0  0  0  0  0  0  0  0  0  0
    9.1215  -16.4617   15.4621 C   0  0  2  0  0  0  0  0  0  0  0  0
    7.9785  -17.3534   15.3949 N   0  0  0  0  0  0  0  0  0  0  0  0
    9.3063  -16.0240   16.8456 C   0  0  0  0  0  0  0  0  0  0  0  0
   10.3468  -15.3670   17.1825 O   0  0  0  0  0  0  0  0  0  0  0  0
    7.4775  -18.0567   19.9226 O   0  0  0  0  0  0  0  0  0  0  0  0
    7.5732  -16.6947   20.1064 C   0  0  0  0  0  0  0  0  0  0  0  0
    8.7429  -16.1033   19.3087 C   0  0  2  0  0  0  0  0  0  0  0  0
    8.3930  -16.2703   17.9122 N   0  0  0  0  0  0  0  0  0  0  0  0
    9.9407  -16.8782   19.6982 C   0  0  0  0  0  0  0  0  0  0  0  0
   10.6138  -17.5288   18.8561 O   0  0  0  0  0  0  0  0  0  0  0  0
   15.8442  -15.2510   20.1062 N   0  0  0  0  0  0  0  0  0  0  0  0
   15.6961  -14.7097   18.7930 C   0  0  0  0  0  0  0  0  0  0  0  0
   16.6469  -14.8943   17.9354 N   0  0  0  0  0  0  0  0  0  0  0  0
   14.5157  -13.9822   18.4507 N   0  0  0  0  0  0  0  0  0  0  0  0
   13.4710  -13.7976   19.4132 C   0  0  0  0  0  0  0  0  0  0  0  0
   13.1270  -15.1487   19.9914 C   0  0  0  0  0  0  0  0  0  0  0  0
   11.9952  -15.0937   20.9628 C   0  0  0  0  0  0  0  0  0  0  0  0
   11.6506  -16.4582   21.4998 C   0  0  2  0  0  0  0  0  0  0  0  0
   10.3011  -16.8559   21.0743 N   0  0  0  0  0  0  0  0  0  0  0  0
   11.7894  -16.5802   22.9669 C   0  0  0  0  0  0  0  0  0  0  0  0
   12.9567  -16.9883   23.5850 O   0  0  0  0  0  0  0  0  0  0  0  0
   10.8086  -16.3041   23.7040 O   0  0  0  0  0  0  0  0  0  0  0  0
  1  2  1  0
  2  4  1  0
  2  3  2  0
  4  5  1  0
  5  6  1  0
  6  7  1  1
  6  8  1  0
  8 13  1  0
  8  9  2  0
 11 10  1  0
 12 11  1  1
 13 12  1  0
 14 12  1  0
 14 15  2  0
 17 19  1  0
 17 16  1  0
 18 17  2  0
 20 19  1  0
 20 21  1  0
 21 22  1  0
 23 22  1  1
 23 24  1  0
 24 14  1  0
 25 23  1  0
 26 25  1  0
 27 25  2  0
M  END
$$$$
