QSR.pdb
     RDKit          3D

 27 26  0  0  1  0  0  0  0  0999 V2000
    5.5836  -19.6684   17.5517 N   0  0  0  0  0  0  0  0  0  0  0  0
    6.8099  -19.0104   17.7765 C   0  0  0  0  0  0  0  0  0  0  0  0
    7.3072  -18.9799   18.9279 O   0  0  0  0  0  0  0  0  0  0  0  0
    7.4996  -18.3626   16.6576 C   0  0  0  0  0  0  0  0  0  0  0  0
    6.8402  -17.0291   16.2861 C   0  0  0  0  0  0  0  0  0  0  0  0
    7.9673  -16.0209   16.1395 C   0  0  2  0  0  0  0  0  0  0  0  0
    9.0382  -16.7056   15.4392 N   0  0  0  0  0  0  0  0  0  0  0  0
    8.4682  -15.5403   17.4272 C   0  0  0  0  0  0  0  0  0  0  0  0
    9.5710  -15.9782   17.8962 O   0  0  0  0  0  0  0  0  0  0  0  0
    7.7591  -12.5894   21.2724 O   0  0  0  0  0  0  0  0  0  0  0  0
    7.3110  -13.1762   20.1093 C   0  0  0  0  0  0  0  0  0  0  0  0
    8.3814  -14.0868   19.4937 C   0  0  2  0  0  0  0  0  0  0  0  0
    7.8143  -14.5814   18.2549 N   0  0  0  0  0  0  0  0  0  0  0  0
    8.6282  -15.1590   20.4818 C   0  0  0  0  0  0  0  0  0  0  0  0
    7.8623  -16.1526   20.5891 O   0  0  0  0  0  0  0  0  0  0  0  0
   12.5824  -20.5253   22.2898 N   0  0  0  0  0  0  0  0  0  0  0  0
   13.5804  -20.2035   21.3204 C   0  0  0  0  0  0  0  0  0  0  0  0
   14.4010  -21.1302   20.9443 N   0  0  0  0  0  0  0  0  0  0  0  0
   13.6566  -18.8806   20.7876 N   0  0  0  0  0  0  0  0  0  0  0  0
   13.4189  -17.7443   21.6268 C   0  0  0  0  0  0  0  0  0  0  0  0
   11.9276  -17.5211   21.6965 C   0  0  0  0  0  0  0  0  0  0  0  0
   11.5611  -16.2691   22.4214 C   0  0  0  0  0  0  0  0  0  0  0  0
   10.0803  -15.9995   22.3608 C   0  0  2  0  0  0  0  0  0  0  0  0
    9.7759  -15.0174   21.3105 N   0  0  0  0  0  0  0  0  0  0  0  0
    9.4919  -15.5794   23.6507 C   0  0  0  0  0  0  0  0  0  0  0  0
    9.2898  -16.4465   24.7082 O   0  0  0  0  0  0  0  0  0  0  0  0
    9.1522  -14.3793   23.8116 O   0  0  0  0  0  0  0  0  0  0  0  0
  1  2  1  0
  2  4  1  0
  2  3  2  0
  4  5  1  0
  5  6  1  0
  6  7  1  1
  6  8  1  0
  8 13  1  0
  8  9  2  0
 11 10  1  0
 12 11  1  1
 13 12  1  0
 14 12  1  0
 14 15  2  0
 17 19  1  0
 17 16  1  0
 18 17  2  0
 20 19  1  0
 20 21  1  0
 21 22  1  0
 23 22  1  1
 23 24  1  0
 24 14  1  0
 25 23  1  0
 26 25  1  0
 27 25  2  0
M  END
$$$$
