QSR.pdb
     RDKit          3D

 27 26  0  0  1  0  0  0  0  0999 V2000
    6.8932  -20.2143   17.0449 N   0  0  0  0  0  0  0  0  0  0  0  0
    8.0818  -20.5305   16.3560 C   0  0  0  0  0  0  0  0  0  0  0  0
    8.0382  -21.2115   15.3033 O   0  0  0  0  0  0  0  0  0  0  0  0
    9.3677  -20.0590   16.8770 C   0  0  0  0  0  0  0  0  0  0  0  0
    9.2122  -19.4119   18.2584 C   0  0  0  0  0  0  0  0  0  0  0  0
    8.8830  -17.9495   18.0111 C   0  0  2  0  0  0  0  0  0  0  0  0
    9.6778  -17.5405   16.8678 N   0  0  0  0  0  0  0  0  0  0  0  0
    9.2105  -17.0945   19.1520 C   0  0  0  0  0  0  0  0  0  0  0  0
   10.2155  -17.3604   19.8918 O   0  0  0  0  0  0  0  0  0  0  0  0
    6.4288  -14.6182   21.0304 O   0  0  0  0  0  0  0  0  0  0  0  0
    7.6887  -14.0971   20.8330 C   0  0  0  0  0  0  0  0  0  0  0  0
    8.7482  -15.2048   20.7663 C   0  0  2  0  0  0  0  0  0  0  0  0
    8.4820  -15.9327   19.5416 N   0  0  0  0  0  0  0  0  0  0  0  0
    8.5586  -16.0300   21.9787 C   0  0  0  0  0  0  0  0  0  0  0  0
    8.1157  -17.2071   21.9186 O   0  0  0  0  0  0  0  0  0  0  0  0
   12.7524  -21.4298   26.4895 N   0  0  0  0  0  0  0  0  0  0  0  0
   12.6264  -21.1984   25.0860 C   0  0  0  0  0  0  0  0  0  0  0  0
   13.2708  -21.9684   24.2703 N   0  0  0  0  0  0  0  0  0  0  0  0
   11.8013  -20.1341   24.6101 N   0  0  0  0  0  0  0  0  0  0  0  0
   12.2029  -18.7700   24.7835 C   0  0  0  0  0  0  0  0  0  0  0  0
   10.9725  -17.9614   25.1158 C   0  0  0  0  0  0  0  0  0  0  0  0
   10.5130  -17.1097   23.9796 C   0  0  0  0  0  0  0  0  0  0  0  0
    9.3385  -16.2484   24.3641 C   0  0  2  0  0  0  0  0  0  0  0  0
    8.9006  -15.4315   23.2233 N   0  0  0  0  0  0  0  0  0  0  0  0
    9.5784  -15.3981   25.5498 C   0  0  0  0  0  0  0  0  0  0  0  0
    9.1931  -15.7564   26.8281 O   0  0  0  0  0  0  0  0  0  0  0  0
   10.1591  -14.2917   25.4076 O   0  0  0  0  0  0  0  0  0  0  0  0
  1  2  1  0
  2  4  1  0
  2  3  2  0
  4  5  1  0
  5  6  1  0
  6  7  1  6
  6  8  1  0
  8 13  1  0
  8  9  2  0
 11 10  1  0
 12 11  1  1
 13 12  1  0
 14 12  1  0
 14 15  2  0
 17 19  1  0
 17 16  1  0
 18 17  2  0
 20 19  1  0
 20 21  1  0
 21 22  1  0
 23 22  1  6
 23 24  1  0
 24 14  1  0
 25 23  1  0
 26 25  1  0
 27 25  2  0
M  END
$$$$
