QSR.pdb
     RDKit          3D

 27 26  0  0  1  0  0  0  0  0999 V2000
   13.6294  -17.8886   21.8694 N   0  0  0  0  0  0  0  0  0  0  0  0
   14.1617  -18.5752   20.7593 C   0  0  0  0  0  0  0  0  0  0  0  0
   15.1815  -19.2936   20.8922 O   0  0  0  0  0  0  0  0  0  0  0  0
   13.5167  -18.4446   19.4500 C   0  0  0  0  0  0  0  0  0  0  0  0
   12.2745  -17.5485   19.5214 C   0  0  0  0  0  0  0  0  0  0  0  0
   11.0842  -18.4793   19.6793 C   0  0  2  0  0  0  0  0  0  0  0  0
   10.4311  -18.5290   18.3842 N   0  0  0  0  0  0  0  0  0  0  0  0
   10.1266  -18.0092   20.6803 C   0  0  0  0  0  0  0  0  0  0  0  0
    9.2580  -17.1246   20.3789 O   0  0  0  0  0  0  0  0  0  0  0  0
    9.3323  -20.0594   24.0973 O   0  0  0  0  0  0  0  0  0  0  0  0
    8.4259  -19.1372   23.6222 C   0  0  0  0  0  0  0  0  0  0  0  0
    9.1335  -17.9246   23.0035 C   0  0  2  0  0  0  0  0  0  0  0  0
   10.0623  -18.4635   22.0300 N   0  0  0  0  0  0  0  0  0  0  0  0
    9.8096  -17.2285   24.1194 C   0  0  0  0  0  0  0  0  0  0  0  0
   10.9860  -17.5144   24.4654 O   0  0  0  0  0  0  0  0  0  0  0  0
    6.1243  -10.0457   26.3343 N   0  0  0  0  0  0  0  0  0  0  0  0
    5.7186  -11.4143   26.3743 C   0  0  0  0  0  0  0  0  0  0  0  0
    4.5215  -11.6946   26.7767 N   0  0  0  0  0  0  0  0  0  0  0  0
    6.6288  -12.4398   25.9744 N   0  0  0  0  0  0  0  0  0  0  0  0
    7.9715  -12.1131   25.5972 C   0  0  0  0  0  0  0  0  0  0  0  0
    8.6749  -13.3953   25.2237 C   0  0  0  0  0  0  0  0  0  0  0  0
    8.7592  -14.3628   26.3570 C   0  0  0  0  0  0  0  0  0  0  0  0
    9.5872  -15.5703   26.0027 C   0  0  2  0  0  0  0  0  0  0  0  0
    9.0677  -16.2156   24.7885 N   0  0  0  0  0  0  0  0  0  0  0  0
    9.7162  -16.5542   27.0989 C   0  0  0  0  0  0  0  0  0  0  0  0
   10.5643  -16.3793   28.1765 O   0  0  0  0  0  0  0  0  0  0  0  0
    9.0294  -17.6072   27.0662 O   0  0  0  0  0  0  0  0  0  0  0  0
  1  2  1  0
  2  4  1  0
  2  3  2  0
  4  5  1  0
  5  6  1  0
  6  7  1  6
  6  8  1  0
  8 13  1  0
  8  9  2  0
 11 10  1  0
 12 11  1  1
 13 12  1  0
 14 12  1  0
 14 15  2  0
 17 19  1  0
 17 16  1  0
 18 17  2  0
 20 19  1  0
 20 21  1  0
 21 22  1  0
 23 22  1  1
 23 24  1  0
 24 14  1  0
 25 23  1  0
 26 25  1  0
 27 25  2  0
M  END
$$$$
