QSR.pdb
     RDKit          3D

 27 26  0  0  1  0  0  0  0  0999 V2000
    7.3059  -16.1015   16.6672 N   0  0  0  0  0  0  0  0  0  0  0  0
    7.6012  -15.8624   18.0247 C   0  0  0  0  0  0  0  0  0  0  0  0
    8.5966  -16.4080   18.5589 O   0  0  0  0  0  0  0  0  0  0  0  0
    6.7386  -14.9733   18.8074 C   0  0  0  0  0  0  0  0  0  0  0  0
    7.0167  -15.0986   20.3101 C   0  0  0  0  0  0  0  0  0  0  0  0
    7.1006  -13.6808   20.8493 C   0  0  2  0  0  0  0  0  0  0  0  0
    7.8372  -12.9124   19.8628 N   0  0  0  0  0  0  0  0  0  0  0  0
    7.7971  -13.6035   22.1334 C   0  0  0  0  0  0  0  0  0  0  0  0
    9.0642  -13.7414   22.1910 O   0  0  0  0  0  0  0  0  0  0  0  0
    5.9351  -12.8120   25.9079 O   0  0  0  0  0  0  0  0  0  0  0  0
    7.2584  -12.5537   25.6252 C   0  0  0  0  0  0  0  0  0  0  0  0
    7.8385  -13.5966   24.6610 C   0  0  2  0  0  0  0  0  0  0  0  0
    7.1702  -13.3778   23.3937 N   0  0  0  0  0  0  0  0  0  0  0  0
    7.5339  -14.9179   25.2512 C   0  0  0  0  0  0  0  0  0  0  0  0
    6.4748  -15.5405   24.9755 O   0  0  0  0  0  0  0  0  0  0  0  0
    9.6387  -22.3583   25.1292 N   0  0  0  0  0  0  0  0  0  0  0  0
    8.4477  -22.0716   24.3952 C   0  0  0  0  0  0  0  0  0  0  0  0
    7.5591  -23.0030   24.2671 N   0  0  0  0  0  0  0  0  0  0  0  0
    8.2581  -20.7777   23.8211 N   0  0  0  0  0  0  0  0  0  0  0  0
    9.2926  -19.7899   23.8978 C   0  0  0  0  0  0  0  0  0  0  0  0
    9.1419  -19.0593   25.2100 C   0  0  0  0  0  0  0  0  0  0  0  0
    8.9539  -17.5888   25.0377 C   0  0  0  0  0  0  0  0  0  0  0  0
    8.6261  -16.9090   26.3414 C   0  0  2  0  0  0  0  0  0  0  0  0
    8.4960  -15.4576   26.1496 N   0  0  0  0  0  0  0  0  0  0  0  0
    9.5806  -17.2053   27.4311 C   0  0  0  0  0  0  0  0  0  0  0  0
    9.3423  -18.1533   28.4086 O   0  0  0  0  0  0  0  0  0  0  0  0
   10.6667  -16.5739   27.4879 O   0  0  0  0  0  0  0  0  0  0  0  0
  1  2  1  0
  2  4  1  0
  2  3  2  0
  4  5  1  0
  5  6  1  0
  6  7  1  6
  6  8  1  0
  8 13  1  0
  8  9  2  0
 11 10  1  0
 12 11  1  1
 13 12  1  0
 14 12  1  0
 14 15  2  0
 17 19  1  0
 17 16  1  0
 18 17  2  0
 20 19  1  0
 20 21  1  0
 21 22  1  0
 23 22  1  6
 23 24  1  0
 24 14  1  0
 25 23  1  0
 26 25  1  0
 27 25  2  0
M  END
$$$$
