QSR.pdb
     RDKit          3D

 27 26  0  0  1  0  0  0  0  0999 V2000
    8.8736  -18.9393   12.7634 N   0  0  0  0  0  0  0  0  0  0  0  0
   10.2610  -19.0856   12.5609 C   0  0  0  0  0  0  0  0  0  0  0  0
   10.6951  -19.5410   11.4756 O   0  0  0  0  0  0  0  0  0  0  0  0
   11.1922  -18.7028   13.6255 C   0  0  0  0  0  0  0  0  0  0  0  0
   10.4599  -18.0614   14.8102 C   0  0  0  0  0  0  0  0  0  0  0  0
   11.5355  -17.5025   15.7261 C   0  0  2  0  0  0  0  0  0  0  0  0
   12.7878  -18.0940   15.2925 N   0  0  0  0  0  0  0  0  0  0  0  0
   11.3108  -17.8356   17.1327 C   0  0  0  0  0  0  0  0  0  0  0  0
   10.2626  -17.4268   17.7345 O   0  0  0  0  0  0  0  0  0  0  0  0
   14.2586  -18.9221   19.7501 O   0  0  0  0  0  0  0  0  0  0  0  0
   13.1340  -19.7139   19.8296 C   0  0  0  0  0  0  0  0  0  0  0  0
   11.8922  -18.9755   19.3129 C   0  0  2  0  0  0  0  0  0  0  0  0
   12.1908  -18.6120   17.9420 N   0  0  0  0  0  0  0  0  0  0  0  0
   11.7149  -17.8010   20.1938 C   0  0  0  0  0  0  0  0  0  0  0  0
   12.2977  -16.7078   19.9688 O   0  0  0  0  0  0  0  0  0  0  0  0
    7.7791  -13.5845   19.4547 N   0  0  0  0  0  0  0  0  0  0  0  0
    7.8435  -12.6518   20.5341 C   0  0  0  0  0  0  0  0  0  0  0  0
    8.1294  -11.4178   20.2710 N   0  0  0  0  0  0  0  0  0  0  0  0
    7.5945  -13.0897   21.8706 N   0  0  0  0  0  0  0  0  0  0  0  0
    7.4428  -14.4839   22.1622 C   0  0  0  0  0  0  0  0  0  0  0  0
    8.8013  -15.0344   22.5225 C   0  0  0  0  0  0  0  0  0  0  0  0
    9.1180  -16.3091   21.8138 C   0  0  0  0  0  0  0  0  0  0  0  0
   10.4911  -16.8193   22.1647 C   0  0  2  0  0  0  0  0  0  0  0  0
   10.8517  -17.9618   21.3132 N   0  0  0  0  0  0  0  0  0  0  0  0
   10.6585  -17.1632   23.5931 C   0  0  0  0  0  0  0  0  0  0  0  0
   10.9769  -16.2313   24.5633 O   0  0  0  0  0  0  0  0  0  0  0  0
   10.5083  -18.3561   23.9616 O   0  0  0  0  0  0  0  0  0  0  0  0
  1  2  1  0
  2  4  1  0
  2  3  2  0
  4  5  1  0
  5  6  1  0
  6  7  1  6
  6  8  1  0
  8 13  1  0
  8  9  2  0
 11 10  1  0
 12 11  1  1
 13 12  1  0
 14 12  1  0
 14 15  2  0
 17 19  1  0
 17 16  1  0
 18 17  2  0
 20 19  1  0
 20 21  1  0
 21 22  1  0
 23 22  1  1
 23 24  1  0
 24 14  1  0
 25 23  1  0
 26 25  1  0
 27 25  2  0
M  END
$$$$
