QSR.pdb
     RDKit          3D

 27 26  0  0  1  0  0  0  0  0999 V2000
    7.7627  -12.1950   11.2839 N   0  0  0  0  0  0  0  0  0  0  0  0
    7.2076  -13.4901   11.2423 C   0  0  0  0  0  0  0  0  0  0  0  0
    6.2805  -13.7532   10.4391 O   0  0  0  0  0  0  0  0  0  0  0  0
    7.7201  -14.5265   12.1426 C   0  0  0  0  0  0  0  0  0  0  0  0
    8.7955  -13.9724   13.0846 C   0  0  0  0  0  0  0  0  0  0  0  0
    8.7148  -14.7970   14.3581 C   0  0  2  0  0  0  0  0  0  0  0  0
    7.3185  -15.1563   14.5232 N   0  0  0  0  0  0  0  0  0  0  0  0
    9.1620  -14.0595   15.5396 C   0  0  0  0  0  0  0  0  0  0  0  0
   10.3760  -13.6811   15.6445 O   0  0  0  0  0  0  0  0  0  0  0  0
    6.7649  -14.2813   19.0265 O   0  0  0  0  0  0  0  0  0  0  0  0
    7.6173  -13.2118   18.8605 C   0  0  0  0  0  0  0  0  0  0  0  0
    8.8307  -13.5915   18.0017 C   0  0  2  0  0  0  0  0  0  0  0  0
    8.3350  -13.7016   16.6442 N   0  0  0  0  0  0  0  0  0  0  0  0
    9.3292  -14.8764   18.5379 C   0  0  0  0  0  0  0  0  0  0  0  0
    9.3292  -15.9292   17.8474 O   0  0  0  0  0  0  0  0  0  0  0  0
   16.3928  -12.6770   19.1170 N   0  0  0  0  0  0  0  0  0  0  0  0
   16.5413  -13.9612   18.5102 C   0  0  0  0  0  0  0  0  0  0  0  0
   17.3326  -14.0788   17.4935 N   0  0  0  0  0  0  0  0  0  0  0  0
   15.8234  -15.0819   19.0283 N   0  0  0  0  0  0  0  0  0  0  0  0
   14.4982  -15.3718   18.5682 C   0  0  0  0  0  0  0  0  0  0  0  0
   13.5646  -15.2804   19.7508 C   0  0  0  0  0  0  0  0  0  0  0  0
   12.2065  -14.7839   19.3816 C   0  0  0  0  0  0  0  0  0  0  0  0
   11.1285  -15.4302   20.2118 C   0  0  2  0  0  0  0  0  0  0  0  0
    9.8116  -14.8702   19.8764 N   0  0  0  0  0  0  0  0  0  0  0  0
   11.3672  -15.3585   21.6693 C   0  0  0  0  0  0  0  0  0  0  0  0
   12.1857  -16.2433   22.3463 O   0  0  0  0  0  0  0  0  0  0  0  0
   10.8066  -14.4560   22.3421 O   0  0  0  0  0  0  0  0  0  0  0  0
  1  2  1  0
  2  4  1  0
  2  3  2  0
  4  5  1  0
  5  6  1  0
  6  7  1  1
  6  8  1  0
  8 13  1  0
  8  9  2  0
 11 10  1  0
 12 11  1  1
 13 12  1  0
 14 12  1  0
 14 15  2  0
 17 19  1  0
 17 16  1  0
 18 17  2  0
 20 19  1  0
 20 21  1  0
 21 22  1  0
 23 22  1  6
 23 24  1  0
 24 14  1  0
 25 23  1  0
 26 25  1  0
 27 25  2  0
M  END
$$$$
