KPP.pdb
     RDKit          3D

 24 25  0  0  1  0  0  0  0  0999 V2000
   23.1111  -21.3606  -13.8115 N   0  0  0  0  0  0  0  0  0  0  0  0
   24.4096  -20.7697  -13.5898 C   0  0  1  0  0  0  0  0  0  0  0  0
   24.4047  -19.3099  -13.8681 C   0  0  0  0  0  0  0  0  0  0  0  0
   23.6891  -18.8574  -15.0571 C   0  0  0  0  0  0  0  0  0  0  0  0
   22.3251  -18.3480  -15.0481 C   0  0  0  0  0  0  0  0  0  0  0  0
   21.7171  -17.7534  -16.2537 C   0  0  0  0  0  0  0  0  0  0  0  0
   20.3102  -17.4081  -15.8947 N   0  0  0  0  0  0  0  0  0  0  0  0
   24.9286  -21.0115  -12.1913 C   0  0  0  0  0  0  0  0  0  0  0  0
   24.0377  -20.8963  -11.3228 O   0  0  0  0  0  0  0  0  0  0  0  0
   26.2386  -21.3286  -11.8764 N   0  0  0  0  0  0  0  0  0  0  0  0
   27.1241  -22.2646  -12.6214 C   0  0  0  0  0  0  0  0  0  0  0  0
   28.3920  -21.3978  -12.7264 C   0  0  0  0  0  0  0  0  0  0  0  0
   28.2348  -20.3026  -11.6657 C   0  0  0  0  0  0  0  0  0  0  0  0
   27.1475  -20.9555  -10.8147 C   0  0  1  0  0  0  0  0  0  0  0  0
   26.6875  -20.1992   -9.6974 C   0  0  0  0  0  0  0  0  0  0  0  0
   26.0362  -19.1484   -9.7764 O   0  0  0  0  0  0  0  0  0  0  0  0
   26.9876  -20.6722   -8.3772 N   0  0  0  0  0  0  0  0  0  0  0  0
   27.4904  -21.9794   -7.9868 C   0  0  0  0  0  0  0  0  0  0  0  0
   26.9249  -22.1939   -6.5882 C   0  0  0  0  0  0  0  0  0  0  0  0
   27.1435  -20.8113   -6.0186 C   0  0  0  0  0  0  0  0  0  0  0  0
   26.8235  -19.9028   -7.1468 C   0  0  1  0  0  0  0  0  0  0  0  0
   27.6210  -18.6747   -7.1505 C   0  0  0  0  0  0  0  0  0  0  0  0
   27.1292  -17.5371   -6.5534 O   0  0  0  0  0  0  0  0  0  0  0  0
   28.7441  -18.6433   -7.6886 O   0  0  0  0  0  0  0  0  0  0  0  0
  2  1  1  1
  3  4  1  0
  3  2  1  0
  5  6  1  0
  5  4  1  0
  6  7  1  0
  8  2  1  0
  9  8  2  0
 10 11  1  0
 10  8  1  0
 12 11  1  0
 13 12  1  0
 13 14  1  0
 14 10  1  0
 14 15  1  1
 16 15  2  0
 17 18  1  0
 17 15  1  0
 19 18  1  0
 20 21  1  0
 20 19  1  0
 21 17  1  0
 22 23  1  0
 21 22  1  6
 24 22  2  0
M  END
$$$$
