KPP.pdb
     RDKit          3D

 24 25  0  0  1  0  0  0  0  0999 V2000
   25.3192  -28.5150  -18.9790 N   0  0  0  0  0  0  0  0  0  0  0  0
   24.8936  -27.2363  -18.4611 C   0  0  1  0  0  0  0  0  0  0  0  0
   24.0764  -26.4863  -19.4501 C   0  0  0  0  0  0  0  0  0  0  0  0
   22.9624  -27.1947  -20.0728 C   0  0  0  0  0  0  0  0  0  0  0  0
   21.5949  -26.6963  -20.1139 C   0  0  0  0  0  0  0  0  0  0  0  0
   21.2976  -25.2888  -20.4416 C   0  0  0  0  0  0  0  0  0  0  0  0
   19.8124  -25.1473  -20.4024 N   0  0  0  0  0  0  0  0  0  0  0  0
   24.1248  -27.3590  -17.1659 C   0  0  0  0  0  0  0  0  0  0  0  0
   23.2510  -28.2511  -17.2098 O   0  0  0  0  0  0  0  0  0  0  0  0
   24.3426  -26.5851  -16.0391 N   0  0  0  0  0  0  0  0  0  0  0  0
   25.6646  -26.2137  -15.4652 C   0  0  0  0  0  0  0  0  0  0  0  0
   25.4455  -24.7039  -15.2589 C   0  0  0  0  0  0  0  0  0  0  0  0
   23.9277  -24.4950  -15.3034 C   0  0  0  0  0  0  0  0  0  0  0  0
   23.4861  -25.9383  -15.0694 C   0  0  1  0  0  0  0  0  0  0  0  0
   22.0799  -26.1718  -15.0725 C   0  0  0  0  0  0  0  0  0  0  0  0
   21.3509  -26.0764  -16.0697 O   0  0  0  0  0  0  0  0  0  0  0  0
   21.4430  -26.5473  -13.8437 N   0  0  0  0  0  0  0  0  0  0  0  0
   22.0713  -26.9211  -12.5871 C   0  0  0  0  0  0  0  0  0  0  0  0
   21.0816  -27.8877  -11.9483 C   0  0  0  0  0  0  0  0  0  0  0  0
   19.7923  -27.1645  -12.2623 C   0  0  0  0  0  0  0  0  0  0  0  0
   20.0006  -26.6366  -13.6329 C   0  0  1  0  0  0  0  0  0  0  0  0
   19.3250  -25.3603  -13.8750 C   0  0  0  0  0  0  0  0  0  0  0  0
   17.9868  -25.3435  -14.1938 O   0  0  0  0  0  0  0  0  0  0  0  0
   19.9459  -24.2831  -13.7963 O   0  0  0  0  0  0  0  0  0  0  0  0
  2  1  1  6
  3  4  1  0
  3  2  1  0
  5  6  1  0
  5  4  1  0
  6  7  1  0
  8  2  1  0
  9  8  2  0
 10 11  1  0
 10  8  1  0
 12 11  1  0
 13 12  1  0
 13 14  1  0
 14 10  1  0
 14 15  1  6
 16 15  2  0
 17 18  1  0
 17 15  1  0
 19 18  1  0
 20 21  1  0
 20 19  1  0
 21 17  1  0
 22 23  1  0
 21 22  1  1
 24 22  2  0
M  END
$$$$
