KPP.pdb
     RDKit          3D

 24 25  0  0  1  0  0  0  0  0999 V2000
   23.8213  -19.0579  -18.9495 N   0  0  0  0  0  0  0  0  0  0  0  0
   24.0213  -18.2080  -17.7996 C   0  0  1  0  0  0  0  0  0  0  0  0
   22.7337  -17.6938  -17.2648 C   0  0  0  0  0  0  0  0  0  0  0  0
   21.6564  -18.6592  -17.0700 C   0  0  0  0  0  0  0  0  0  0  0  0
   21.1386  -19.0574  -15.7687 C   0  0  0  0  0  0  0  0  0  0  0  0
   19.6914  -19.0529  -15.4813 C   0  0  0  0  0  0  0  0  0  0  0  0
   19.3614  -17.6864  -14.9801 N   0  0  0  0  0  0  0  0  0  0  0  0
   24.7848  -18.8966  -16.6920 C   0  0  0  0  0  0  0  0  0  0  0  0
   24.4847  -20.1046  -16.5822 O   0  0  0  0  0  0  0  0  0  0  0  0
   25.7195  -18.2844  -15.8751 N   0  0  0  0  0  0  0  0  0  0  0  0
   26.7275  -17.2716  -16.2914 C   0  0  0  0  0  0  0  0  0  0  0  0
   26.5198  -16.2245  -15.1822 C   0  0  0  0  0  0  0  0  0  0  0  0
   25.7790  -16.9541  -14.0561 C   0  0  0  0  0  0  0  0  0  0  0  0
   26.0730  -18.3927  -14.4766 C   0  0  1  0  0  0  0  0  0  0  0  0
   25.5031  -19.4131  -13.6605 C   0  0  0  0  0  0  0  0  0  0  0  0
   24.2926  -19.6670  -13.5906 O   0  0  0  0  0  0  0  0  0  0  0  0
   26.3765  -20.2170  -12.8557 N   0  0  0  0  0  0  0  0  0  0  0  0
   27.8294  -20.2620  -12.8814 C   0  0  0  0  0  0  0  0  0  0  0  0
   28.1659  -21.6873  -12.4608 C   0  0  0  0  0  0  0  0  0  0  0  0
   27.1652  -21.8573  -11.3412 C   0  0  0  0  0  0  0  0  0  0  0  0
   25.9463  -21.1758  -11.8416 C   0  0  1  0  0  0  0  0  0  0  0  0
   25.1546  -20.5456  -10.7833 C   0  0  0  0  0  0  0  0  0  0  0  0
   24.1709  -21.2640  -10.1439 O   0  0  0  0  0  0  0  0  0  0  0  0
   25.3587  -19.3625  -10.4505 O   0  0  0  0  0  0  0  0  0  0  0  0
  2  1  1  6
  3  4  1  0
  3  2  1  0
  5  6  1  0
  5  4  1  0
  6  7  1  0
  8  2  1  0
  9  8  2  0
 10 11  1  0
 10  8  1  0
 12 11  1  0
 13 12  1  0
 13 14  1  0
 14 10  1  0
 14 15  1  1
 16 15  2  0
 17 18  1  0
 17 15  1  0
 19 18  1  0
 20 21  1  0
 20 19  1  0
 21 17  1  0
 22 23  1  0
 21 22  1  1
 24 22  2  0
M  END
$$$$
