KPP.pdb
     RDKit          3D

 24 25  0  0  1  0  0  0  0  0999 V2000
   25.8720  -22.2914  -18.1141 N   0  0  0  0  0  0  0  0  0  0  0  0
   26.2517  -21.1325  -17.3412 C   0  0  1  0  0  0  0  0  0  0  0  0
   25.2455  -20.0443  -17.4505 C   0  0  0  0  0  0  0  0  0  0  0  0
   23.8407  -20.4354  -17.5140 C   0  0  0  0  0  0  0  0  0  0  0  0
   23.1626  -21.2230  -16.4943 C   0  0  0  0  0  0  0  0  0  0  0  0
   21.8501  -20.8187  -15.9550 C   0  0  0  0  0  0  0  0  0  0  0  0
   20.9183  -21.9575  -16.2048 N   0  0  0  0  0  0  0  0  0  0  0  0
   26.4846  -21.4553  -15.8834 C   0  0  0  0  0  0  0  0  0  0  0  0
   25.7863  -22.4127  -15.4870 O   0  0  0  0  0  0  0  0  0  0  0  0
   27.3673  -20.7845  -15.0548 N   0  0  0  0  0  0  0  0  0  0  0  0
   28.7788  -20.4320  -15.3689 C   0  0  0  0  0  0  0  0  0  0  0  0
   28.7822  -18.9548  -14.9357 C   0  0  0  0  0  0  0  0  0  0  0  0
   27.5562  -18.7846  -14.0317 C   0  0  0  0  0  0  0  0  0  0  0  0
   27.2967  -20.2551  -13.7105 C   0  0  1  0  0  0  0  0  0  0  0  0
   26.1689  -20.5259  -12.8818 C   0  0  0  0  0  0  0  0  0  0  0  0
   24.9897  -20.4860  -13.2595 O   0  0  0  0  0  0  0  0  0  0  0  0
   26.3930  -20.8738  -11.5086 N   0  0  0  0  0  0  0  0  0  0  0  0
   27.6614  -21.1246  -10.8438 C   0  0  0  0  0  0  0  0  0  0  0  0
   27.3157  -22.1221   -9.7451 C   0  0  0  0  0  0  0  0  0  0  0  0
   26.0186  -21.5164   -9.2607 C   0  0  0  0  0  0  0  0  0  0  0  0
   25.3502  -21.0570  -10.5028 C   0  0  1  0  0  0  0  0  0  0  0  0
   24.5408  -19.8510  -10.3174 C   0  0  0  0  0  0  0  0  0  0  0  0
   23.2379  -19.9597   -9.8893 O   0  0  0  0  0  0  0  0  0  0  0  0
   25.0157  -18.7214  -10.5423 O   0  0  0  0  0  0  0  0  0  0  0  0
  2  1  1  6
  3  4  1  0
  3  2  1  0
  5  6  1  0
  5  4  1  0
  6  7  1  0
  8  2  1  0
  9  8  2  0
 10 11  1  0
 10  8  1  0
 12 11  1  0
 13 12  1  0
 13 14  1  0
 14 10  1  0
 14 15  1  6
 16 15  2  0
 17 18  1  0
 17 15  1  0
 19 18  1  0
 20 21  1  0
 20 19  1  0
 21 17  1  0
 22 23  1  0
 21 22  1  1
 24 22  2  0
M  END
$$$$
