KPP.pdb
     RDKit          3D

 24 25  0  0  1  0  0  0  0  0999 V2000
   23.6622  -19.0232  -18.8734 N   0  0  0  0  0  0  0  0  0  0  0  0
   24.0548  -18.2306  -17.7323 C   0  0  1  0  0  0  0  0  0  0  0  0
   22.9077  -17.4732  -17.1674 C   0  0  0  0  0  0  0  0  0  0  0  0
   21.6164  -18.1519  -17.1183 C   0  0  0  0  0  0  0  0  0  0  0  0
   21.0260  -18.7029  -15.9067 C   0  0  0  0  0  0  0  0  0  0  0  0
   19.7491  -19.4413  -15.9391 C   0  0  0  0  0  0  0  0  0  0  0  0
   19.4659  -19.8634  -14.5359 N   0  0  0  0  0  0  0  0  0  0  0  0
   24.6953  -19.0574  -16.6414 C   0  0  0  0  0  0  0  0  0  0  0  0
   24.1380  -20.1654  -16.4900 O   0  0  0  0  0  0  0  0  0  0  0  0
   25.7800  -18.6593  -15.8793 N   0  0  0  0  0  0  0  0  0  0  0  0
   27.0233  -18.0140  -16.3824 C   0  0  0  0  0  0  0  0  0  0  0  0
   27.1394  -16.8521  -15.3792 C   0  0  0  0  0  0  0  0  0  0  0  0
   26.2460  -17.2360  -14.1944 C   0  0  0  0  0  0  0  0  0  0  0  0
   26.1164  -18.7318  -14.4743 C   0  0  1  0  0  0  0  0  0  0  0  0
   25.2994  -19.4703  -13.5693 C   0  0  0  0  0  0  0  0  0  0  0  0
   24.0658  -19.3805  -13.4981 O   0  0  0  0  0  0  0  0  0  0  0  0
   25.9303  -20.3908  -12.6686 N   0  0  0  0  0  0  0  0  0  0  0  0
   27.3216  -20.8123  -12.6480 C   0  0  0  0  0  0  0  0  0  0  0  0
   27.2739  -22.2284  -12.0875 C   0  0  0  0  0  0  0  0  0  0  0  0
   26.2592  -22.0243  -10.9863 C   0  0  0  0  0  0  0  0  0  0  0  0
   25.2615  -21.1026  -11.5828 C   0  0  1  0  0  0  0  0  0  0  0  0
   24.6572  -20.1895  -10.6108 C   0  0  0  0  0  0  0  0  0  0  0  0
   23.5346  -20.5749   -9.9151 O   0  0  0  0  0  0  0  0  0  0  0  0
   25.1458  -19.0626  -10.4024 O   0  0  0  0  0  0  0  0  0  0  0  0
  2  1  1  6
  3  4  1  0
  3  2  1  0
  5  6  1  0
  5  4  1  0
  6  7  1  0
  8  2  1  0
  9  8  2  0
 10 11  1  0
 10  8  1  0
 12 11  1  0
 13 12  1  0
 13 14  1  0
 14 10  1  0
 14 15  1  1
 16 15  2  0
 17 18  1  0
 17 15  1  0
 19 18  1  0
 20 21  1  0
 20 19  1  0
 21 17  1  0
 22 23  1  0
 21 22  1  1
 24 22  2  0
M  END
$$$$
