KPP.pdb
     RDKit          3D

 24 25  0  0  1  0  0  0  0  0999 V2000
   25.1003  -22.2649  -12.2253 N   0  0  0  0  0  0  0  0  0  0  0  0
   25.8454  -21.1636  -11.6626 C   0  0  1  0  0  0  0  0  0  0  0  0
   25.0193  -19.9319  -11.5672 C   0  0  0  0  0  0  0  0  0  0  0  0
   24.3889  -19.4521  -12.7931 C   0  0  0  0  0  0  0  0  0  0  0  0
   23.0559  -19.8378  -13.2340 C   0  0  0  0  0  0  0  0  0  0  0  0
   21.8457  -19.3534  -12.5430 C   0  0  0  0  0  0  0  0  0  0  0  0
   20.6802  -19.9651  -13.2464 N   0  0  0  0  0  0  0  0  0  0  0  0
   26.4240  -21.4855  -10.3042 C   0  0  0  0  0  0  0  0  0  0  0  0
   25.5440  -21.7661   -9.4627 O   0  0  0  0  0  0  0  0  0  0  0  0
   27.7735  -21.4800   -9.9965 N   0  0  0  0  0  0  0  0  0  0  0  0
   28.8510  -22.1902  -10.7381 C   0  0  0  0  0  0  0  0  0  0  0  0
   29.8776  -21.0499  -10.8635 C   0  0  0  0  0  0  0  0  0  0  0  0
   29.4718  -20.0089   -9.8143 C   0  0  0  0  0  0  0  0  0  0  0  0
   28.5741  -20.8890   -8.9468 C   0  0  1  0  0  0  0  0  0  0  0  0
   27.9545  -20.2480   -7.8345 C   0  0  0  0  0  0  0  0  0  0  0  0
   26.9655  -19.5057   -7.9087 O   0  0  0  0  0  0  0  0  0  0  0  0
   28.4980  -20.4665   -6.5254 N   0  0  0  0  0  0  0  0  0  0  0  0
   29.4792  -21.4585   -6.1171 C   0  0  0  0  0  0  0  0  0  0  0  0
   29.1308  -21.7512   -4.6629 C   0  0  0  0  0  0  0  0  0  0  0  0
   28.8525  -20.3439   -4.1875 C   0  0  0  0  0  0  0  0  0  0  0  0
   28.1402  -19.7138   -5.3261 C   0  0  1  0  0  0  0  0  0  0  0  0
   28.4166  -18.2828   -5.4667 C   0  0  0  0  0  0  0  0  0  0  0  0
   27.8465  -17.3862   -4.5928 O   0  0  0  0  0  0  0  0  0  0  0  0
   29.1640  -17.8617   -6.3700 O   0  0  0  0  0  0  0  0  0  0  0  0
  2  1  1  1
  3  4  1  0
  3  2  1  0
  5  6  1  0
  5  4  1  0
  6  7  1  0
  8  2  1  0
  9  8  2  0
 10 11  1  0
 10  8  1  0
 12 11  1  0
 13 12  1  0
 13 14  1  0
 14 10  1  0
 14 15  1  1
 16 15  2  0
 17 18  1  0
 17 15  1  0
 19 18  1  0
 20 21  1  0
 20 19  1  0
 21 17  1  0
 22 23  1  0
 21 22  1  6
 24 22  2  0
M  END
$$$$
