KPP.pdb
     RDKit          3D

 24 25  0  0  1  0  0  0  0  0999 V2000
   23.5281  -21.2213  -17.9520 N   0  0  0  0  0  0  0  0  0  0  0  0
   24.1813  -20.1123  -17.2976 C   0  0  1  0  0  0  0  0  0  0  0  0
   23.1991  -19.1529  -16.7289 C   0  0  0  0  0  0  0  0  0  0  0  0
   21.7988  -19.5638  -16.7046 C   0  0  0  0  0  0  0  0  0  0  0  0
   20.8058  -19.1482  -17.6851 C   0  0  0  0  0  0  0  0  0  0  0  0
   19.5495  -18.4904  -17.2778 C   0  0  0  0  0  0  0  0  0  0  0  0
   18.8094  -19.4727  -16.4325 N   0  0  0  0  0  0  0  0  0  0  0  0
   25.1348  -20.5559  -16.2123 C   0  0  0  0  0  0  0  0  0  0  0  0
   24.8850  -21.7073  -15.7961 O   0  0  0  0  0  0  0  0  0  0  0  0
   26.1786  -19.7948  -15.7155 N   0  0  0  0  0  0  0  0  0  0  0  0
   27.2005  -19.0676  -16.5167 C   0  0  0  0  0  0  0  0  0  0  0  0
   27.1635  -17.7007  -15.8095 C   0  0  0  0  0  0  0  0  0  0  0  0
   26.4923  -17.9525  -14.4547 C   0  0  0  0  0  0  0  0  0  0  0  0
   26.6581  -19.4695  -14.3901 C   0  0  1  0  0  0  0  0  0  0  0  0
   26.1096  -20.1114  -13.2416 C   0  0  0  0  0  0  0  0  0  0  0  0
   24.9010  -20.3072  -13.0523 O   0  0  0  0  0  0  0  0  0  0  0  0
   27.0039  -20.5738  -12.2202 N   0  0  0  0  0  0  0  0  0  0  0  0
   28.4574  -20.5436  -12.2216 C   0  0  0  0  0  0  0  0  0  0  0  0
   28.8562  -21.7451  -11.3736 C   0  0  0  0  0  0  0  0  0  0  0  0
   27.8397  -21.6121  -10.2632 C   0  0  0  0  0  0  0  0  0  0  0  0
   26.5995  -21.1901  -10.9594 C   0  0  1  0  0  0  0  0  0  0  0  0
   25.7524  -20.3059  -10.1566 C   0  0  0  0  0  0  0  0  0  0  0  0
   24.8228  -20.8433   -9.2967 O   0  0  0  0  0  0  0  0  0  0  0  0
   25.8606  -19.0676  -10.2402 O   0  0  0  0  0  0  0  0  0  0  0  0
  2  1  1  1
  3  4  1  0
  3  2  1  0
  5  6  1  0
  5  4  1  0
  6  7  1  0
  8  2  1  0
  9  8  2  0
 10 11  1  0
 10  8  1  0
 12 11  1  0
 13 12  1  0
 13 14  1  0
 14 10  1  0
 14 15  1  1
 16 15  2  0
 17 18  1  0
 17 15  1  0
 19 18  1  0
 20 21  1  0
 20 19  1  0
 21 17  1  0
 22 23  1  0
 21 22  1  1
 24 22  2  0
M  END
$$$$
