KPP.pdb
     RDKit          3D

 24 25  0  0  1  0  0  0  0  0999 V2000
   24.9352  -22.1508  -11.6865 N   0  0  0  0  0  0  0  0  0  0  0  0
   25.9196  -21.1236  -11.4410 C   0  0  1  0  0  0  0  0  0  0  0  0
   25.3770  -19.7662  -11.7086 C   0  0  0  0  0  0  0  0  0  0  0  0
   25.5617  -19.2242  -13.0512 C   0  0  0  0  0  0  0  0  0  0  0  0
   24.8917  -19.7332  -14.2396 C   0  0  0  0  0  0  0  0  0  0  0  0
   25.1334  -19.1459  -15.5712 C   0  0  0  0  0  0  0  0  0  0  0  0
   24.3725  -19.9788  -16.5482 N   0  0  0  0  0  0  0  0  0  0  0  0
   26.4754  -21.1732  -10.0366 C   0  0  0  0  0  0  0  0  0  0  0  0
   25.6075  -20.9379   -9.1690 O   0  0  0  0  0  0  0  0  0  0  0  0
   27.7936  -21.4476   -9.7157 N   0  0  0  0  0  0  0  0  0  0  0  0
   28.6878  -22.4152  -10.4080 C   0  0  0  0  0  0  0  0  0  0  0  0
   29.9396  -21.5363  -10.5821 C   0  0  0  0  0  0  0  0  0  0  0  0
   29.7738  -20.3775   -9.5927 C   0  0  0  0  0  0  0  0  0  0  0  0
   28.7059  -20.9918   -8.6899 C   0  0  1  0  0  0  0  0  0  0  0  0
   28.2437  -20.1724   -7.6190 C   0  0  0  0  0  0  0  0  0  0  0  0
   27.5109  -19.1826   -7.7532 O   0  0  0  0  0  0  0  0  0  0  0  0
   28.6421  -20.5012   -6.2811 N   0  0  0  0  0  0  0  0  0  0  0  0
   29.3089  -21.7063   -5.8157 C   0  0  0  0  0  0  0  0  0  0  0  0
   28.8204  -21.8729   -4.3820 C   0  0  0  0  0  0  0  0  0  0  0  0
   28.8928  -20.4334   -3.9275 C   0  0  0  0  0  0  0  0  0  0  0  0
   28.4296  -19.6604   -5.1060 C   0  0  1  0  0  0  0  0  0  0  0  0
   29.0754  -18.3527   -5.2359 C   0  0  0  0  0  0  0  0  0  0  0  0
   28.7321  -17.3315   -4.3805 O   0  0  0  0  0  0  0  0  0  0  0  0
   29.9357  -18.1488   -6.1135 O   0  0  0  0  0  0  0  0  0  0  0  0
  2  1  1  1
  3  4  1  0
  3  2  1  0
  5  6  1  0
  5  4  1  0
  6  7  1  0
  8  2  1  0
  9  8  2  0
 10 11  1  0
 10  8  1  0
 12 11  1  0
 13 12  1  0
 13 14  1  0
 14 10  1  0
 14 15  1  1
 16 15  2  0
 17 18  1  0
 17 15  1  0
 19 18  1  0
 20 21  1  0
 20 19  1  0
 21 17  1  0
 22 23  1  0
 21 22  1  6
 24 22  2  0
M  END
$$$$
