KPP.pdb
     RDKit          3D

 24 25  0  0  1  0  0  0  0  0999 V2000
   26.9826  -24.0676  -17.2454 N   0  0  0  0  0  0  0  0  0  0  0  0
   26.8475  -22.6589  -16.9593 C   0  0  1  0  0  0  0  0  0  0  0  0
   25.7157  -22.0516  -17.7067 C   0  0  0  0  0  0  0  0  0  0  0  0
   24.7795  -22.9614  -18.3595 C   0  0  0  0  0  0  0  0  0  0  0  0
   23.5686  -23.4768  -17.7366 C   0  0  0  0  0  0  0  0  0  0  0  0
   22.2490  -22.8722  -18.0012 C   0  0  0  0  0  0  0  0  0  0  0  0
   21.6279  -23.6697  -19.0991 N   0  0  0  0  0  0  0  0  0  0  0  0
   26.6822  -22.3775  -15.4837 C   0  0  0  0  0  0  0  0  0  0  0  0
   26.0675  -23.2878  -14.8881 O   0  0  0  0  0  0  0  0  0  0  0  0
   27.1500  -21.2474  -14.8356 N   0  0  0  0  0  0  0  0  0  0  0  0
   28.4613  -20.5801  -15.0601 C   0  0  0  0  0  0  0  0  0  0  0  0
   27.9935  -19.1186  -15.1830 C   0  0  0  0  0  0  0  0  0  0  0  0
   26.5878  -19.0802  -14.5733 C   0  0  0  0  0  0  0  0  0  0  0  0
   26.6371  -20.3902  -13.7895 C   0  0  1  0  0  0  0  0  0  0  0  0
   25.4516  -20.7407  -13.0796 C   0  0  0  0  0  0  0  0  0  0  0  0
   24.4243  -21.1948  -13.6021 O   0  0  0  0  0  0  0  0  0  0  0  0
   25.4258  -20.5649  -11.6565 N   0  0  0  0  0  0  0  0  0  0  0  0
   26.5369  -20.2533  -10.7722 C   0  0  0  0  0  0  0  0  0  0  0  0
   26.1545  -20.9052   -9.4490 C   0  0  0  0  0  0  0  0  0  0  0  0
   24.6896  -20.5364   -9.4062 C   0  0  0  0  0  0  0  0  0  0  0  0
   24.2402  -20.6845  -10.8122 C   0  0  1  0  0  0  0  0  0  0  0  0
   23.1912  -19.7360  -11.1919 C   0  0  0  0  0  0  0  0  0  0  0  0
   21.8712  -20.0452  -10.9584 O   0  0  0  0  0  0  0  0  0  0  0  0
   23.4765  -18.6473  -11.7260 O   0  0  0  0  0  0  0  0  0  0  0  0
  2  1  1  1
  3  4  1  0
  3  2  1  0
  5  6  1  0
  5  4  1  0
  6  7  1  0
  8  2  1  0
  9  8  2  0
 10 11  1  0
 10  8  1  0
 12 11  1  0
 13 12  1  0
 13 14  1  0
 14 10  1  0
 14 15  1  6
 16 15  2  0
 17 18  1  0
 17 15  1  0
 19 18  1  0
 20 21  1  0
 20 19  1  0
 21 17  1  0
 22 23  1  0
 21 22  1  6
 24 22  2  0
M  END
$$$$
