KPP.pdb
     RDKit          3D

 24 25  0  0  1  0  0  0  0  0999 V2000
   21.9812  -20.6724  -14.1799 N   0  0  0  0  0  0  0  0  0  0  0  0
   22.7888  -20.1646  -15.2636 C   0  0  1  0  0  0  0  0  0  0  0  0
   22.1039  -20.3085  -16.5746 C   0  0  0  0  0  0  0  0  0  0  0  0
   20.6493  -20.4284  -16.5604 C   0  0  0  0  0  0  0  0  0  0  0  0
   19.8251  -20.5439  -17.7552 C   0  0  0  0  0  0  0  0  0  0  0  0
   18.3530  -20.5973  -17.6731 C   0  0  0  0  0  0  0  0  0  0  0  0
   17.8517  -20.6921  -19.0756 N   0  0  0  0  0  0  0  0  0  0  0  0
   23.1910  -18.7217  -15.0639 C   0  0  0  0  0  0  0  0  0  0  0  0
   22.2310  -17.9999  -14.7194 O   0  0  0  0  0  0  0  0  0  0  0  0
   24.4719  -18.2255  -15.2343 N   0  0  0  0  0  0  0  0  0  0  0  0
   25.7258  -18.8117  -14.6873 C   0  0  0  0  0  0  0  0  0  0  0  0
   26.6023  -18.7819  -15.9525 C   0  0  0  0  0  0  0  0  0  0  0  0
   25.9215  -17.7933  -16.9057 C   0  0  0  0  0  0  0  0  0  0  0  0
   25.0339  -17.0685  -15.8960 C   0  0  1  0  0  0  0  0  0  0  0  0
   24.1866  -16.0508  -16.4235 C   0  0  0  0  0  0  0  0  0  0  0  0
   23.2447  -16.2505  -17.2031 O   0  0  0  0  0  0  0  0  0  0  0  0
   24.4226  -14.6906  -16.0349 N   0  0  0  0  0  0  0  0  0  0  0  0
   25.3543  -14.1934  -15.0358 C   0  0  0  0  0  0  0  0  0  0  0  0
   24.6978  -12.9211  -14.5141 C   0  0  0  0  0  0  0  0  0  0  0  0
   24.2075  -12.3423  -15.8212 C   0  0  0  0  0  0  0  0  0  0  0  0
   23.7359  -13.5243  -16.5836 C   0  0  1  0  0  0  0  0  0  0  0  0
   23.9259  -13.3988  -18.0300 C   0  0  0  0  0  0  0  0  0  0  0  0
   22.9245  -12.8663  -18.8086 O   0  0  0  0  0  0  0  0  0  0  0  0
   24.9859  -13.7685  -18.5702 O   0  0  0  0  0  0  0  0  0  0  0  0
  2  1  1  1
  3  4  1  0
  3  2  1  0
  5  6  1  0
  5  4  1  0
  6  7  1  0
  8  2  1  0
  9  8  2  0
 10 11  1  0
 10  8  1  0
 12 11  1  0
 13 12  1  0
 13 14  1  0
 14 10  1  0
 14 15  1  6
 16 15  2  0
 17 18  1  0
 17 15  1  0
 19 18  1  0
 20 21  1  0
 20 19  1  0
 21 17  1  0
 22 23  1  0
 21 22  1  6
 24 22  2  0
M  END
$$$$
