KPP.pdb
     RDKit          3D

 24 25  0  0  1  0  0  0  0  0999 V2000
   27.5681  -23.7855  -17.2188 N   0  0  0  0  0  0  0  0  0  0  0  0
   27.3461  -22.3858  -16.9427 C   0  0  1  0  0  0  0  0  0  0  0  0
   26.2376  -21.8321  -17.7632 C   0  0  0  0  0  0  0  0  0  0  0  0
   25.8541  -22.5755  -18.9593 C   0  0  0  0  0  0  0  0  0  0  0  0
   24.6519  -23.3899  -19.0675 C   0  0  0  0  0  0  0  0  0  0  0  0
   23.3155  -22.8316  -18.7862 C   0  0  0  0  0  0  0  0  0  0  0  0
   22.3430  -23.9517  -18.9512 N   0  0  0  0  0  0  0  0  0  0  0  0
   27.0706  -22.1169  -15.4813 C   0  0  0  0  0  0  0  0  0  0  0  0
   26.5252  -23.0853  -14.9103 O   0  0  0  0  0  0  0  0  0  0  0  0
   27.3783  -20.9401  -14.8208 N   0  0  0  0  0  0  0  0  0  0  0  0
   28.6539  -20.1797  -14.9196 C   0  0  0  0  0  0  0  0  0  0  0  0
   28.0968  -18.7614  -15.1386 C   0  0  0  0  0  0  0  0  0  0  0  0
   26.6324  -18.8168  -14.6893 C   0  0  0  0  0  0  0  0  0  0  0  0
   26.6893  -20.1012  -13.8648 C   0  0  1  0  0  0  0  0  0  0  0  0
   25.4605  -20.5252  -13.2797 C   0  0  0  0  0  0  0  0  0  0  0  0
   24.5168  -21.0271  -13.9060 O   0  0  0  0  0  0  0  0  0  0  0  0
   25.2839  -20.3708  -11.8649 N   0  0  0  0  0  0  0  0  0  0  0  0
   26.2552  -19.9103  -10.8860 C   0  0  0  0  0  0  0  0  0  0  0  0
   25.8572  -20.6254   -9.6008 C   0  0  0  0  0  0  0  0  0  0  0  0
   24.3561  -20.4748   -9.6889 C   0  0  0  0  0  0  0  0  0  0  0  0
   24.0588  -20.6713  -11.1290 C   0  0  1  0  0  0  0  0  0  0  0  0
   22.9201  -19.8817  -11.6021 C   0  0  0  0  0  0  0  0  0  0  0  0
   21.6387  -20.3425  -11.4063 O   0  0  0  0  0  0  0  0  0  0  0  0
   23.0938  -18.7932  -12.1826 O   0  0  0  0  0  0  0  0  0  0  0  0
  2  1  1  1
  3  4  1  0
  3  2  1  0
  5  6  1  0
  5  4  1  0
  6  7  1  0
  8  2  1  0
  9  8  2  0
 10 11  1  0
 10  8  1  0
 12 11  1  0
 13 12  1  0
 13 14  1  0
 14 10  1  0
 14 15  1  6
 16 15  2  0
 17 18  1  0
 17 15  1  0
 19 18  1  0
 20 21  1  0
 20 19  1  0
 21 17  1  0
 22 23  1  0
 21 22  1  6
 24 22  2  0
M  END
$$$$
