KPP.pdb
     RDKit          3D

 24 25  0  0  1  0  0  0  0  0999 V2000
   25.5322  -22.3574  -12.3164 N   0  0  0  0  0  0  0  0  0  0  0  0
   26.0694  -21.2120  -11.6207 C   0  0  1  0  0  0  0  0  0  0  0  0
   25.0508  -20.1433  -11.4514 C   0  0  0  0  0  0  0  0  0  0  0  0
   24.3486  -19.6921  -12.6488 C   0  0  0  0  0  0  0  0  0  0  0  0
   22.9692  -20.0329  -12.9670 C   0  0  0  0  0  0  0  0  0  0  0  0
   22.2640  -19.4091  -14.1029 C   0  0  0  0  0  0  0  0  0  0  0  0
   20.8922  -19.9965  -14.1267 N   0  0  0  0  0  0  0  0  0  0  0  0
   26.6499  -21.5692  -10.2719 C   0  0  0  0  0  0  0  0  0  0  0  0
   25.7718  -21.8835   -9.4402 O   0  0  0  0  0  0  0  0  0  0  0  0
   27.9990  -21.5604   -9.9626 N   0  0  0  0  0  0  0  0  0  0  0  0
   29.0808  -22.2576  -10.7102 C   0  0  0  0  0  0  0  0  0  0  0  0
   30.1019  -21.1111  -10.8228 C   0  0  0  0  0  0  0  0  0  0  0  0
   29.6899  -20.0829   -9.7634 C   0  0  0  0  0  0  0  0  0  0  0  0
   28.7956  -20.9762   -8.9060 C   0  0  1  0  0  0  0  0  0  0  0  0
   28.1716  -20.3497   -7.7879 C   0  0  0  0  0  0  0  0  0  0  0  0
   27.1540  -19.6459   -7.8504 O   0  0  0  0  0  0  0  0  0  0  0  0
   28.7457  -20.5364   -6.4870 N   0  0  0  0  0  0  0  0  0  0  0  0
   29.8249  -21.4323   -6.1045 C   0  0  0  0  0  0  0  0  0  0  0  0
   29.5204  -21.7848   -4.6537 C   0  0  0  0  0  0  0  0  0  0  0  0
   29.1068  -20.4214   -4.1497 C   0  0  0  0  0  0  0  0  0  0  0  0
   28.3250  -19.8453   -5.2712 C   0  0  1  0  0  0  0  0  0  0  0  0
   28.4556  -18.3915   -5.3864 C   0  0  0  0  0  0  0  0  0  0  0  0
   27.7189  -17.5705   -4.5644 O   0  0  0  0  0  0  0  0  0  0  0  0
   29.2275  -17.8831   -6.2217 O   0  0  0  0  0  0  0  0  0  0  0  0
  2  1  1  1
  3  4  1  0
  3  2  1  0
  5  6  1  0
  5  4  1  0
  6  7  1  0
  8  2  1  0
  9  8  2  0
 10 11  1  0
 10  8  1  0
 12 11  1  0
 13 12  1  0
 13 14  1  0
 14 10  1  0
 14 15  1  1
 16 15  2  0
 17 18  1  0
 17 15  1  0
 19 18  1  0
 20 21  1  0
 20 19  1  0
 21 17  1  0
 22 23  1  0
 21 22  1  6
 24 22  2  0
M  END
$$$$
