KPP.pdb
     RDKit          3D

 24 25  0  0  1  0  0  0  0  0999 V2000
   25.1969  -22.9749  -12.6436 N   0  0  0  0  0  0  0  0  0  0  0  0
   25.2522  -21.6201  -12.1476 C   0  0  1  0  0  0  0  0  0  0  0  0
   23.9088  -21.1241  -11.7506 C   0  0  0  0  0  0  0  0  0  0  0  0
   23.0836  -22.0079  -10.9330 C   0  0  0  0  0  0  0  0  0  0  0  0
   21.7477  -21.6750  -10.4589 C   0  0  0  0  0  0  0  0  0  0  0  0
   20.9450  -22.6370   -9.6796 C   0  0  0  0  0  0  0  0  0  0  0  0
   19.6410  -21.9699   -9.3935 N   0  0  0  0  0  0  0  0  0  0  0  0
   26.2075  -21.4631  -10.9873 C   0  0  0  0  0  0  0  0  0  0  0  0
   26.1534  -22.4227  -10.1887 O   0  0  0  0  0  0  0  0  0  0  0  0
   27.0606  -20.3888  -10.8034 N   0  0  0  0  0  0  0  0  0  0  0  0
   27.8154  -19.6689  -11.8652 C   0  0  0  0  0  0  0  0  0  0  0  0
   27.4874  -18.2151  -11.4794 C   0  0  0  0  0  0  0  0  0  0  0  0
   26.9904  -18.2723  -10.0307 C   0  0  0  0  0  0  0  0  0  0  0  0
   27.5307  -19.6498   -9.6522 C   0  0  1  0  0  0  0  0  0  0  0  0
   27.2353  -20.0977   -8.3316 C   0  0  0  0  0  0  0  0  0  0  0  0
   26.0987  -20.3565   -7.9119 O   0  0  0  0  0  0  0  0  0  0  0  0
   28.3174  -20.2700   -7.4064 N   0  0  0  0  0  0  0  0  0  0  0  0
   29.7417  -20.3199   -7.6933 C   0  0  0  0  0  0  0  0  0  0  0  0
   30.3102  -21.2212   -6.6041 C   0  0  0  0  0  0  0  0  0  0  0  0
   29.5316  -20.6980   -5.4192 C   0  0  0  0  0  0  0  0  0  0  0  0
   28.1750  -20.4451   -5.9635 C   0  0  1  0  0  0  0  0  0  0  0  0
   27.4953  -19.3123   -5.3320 C   0  0  0  0  0  0  0  0  0  0  0  0
   26.9154  -19.4653   -4.0939 O   0  0  0  0  0  0  0  0  0  0  0  0
   27.4334  -18.2058   -5.9010 O   0  0  0  0  0  0  0  0  0  0  0  0
  2  1  1  1
  3  4  1  0
  3  2  1  0
  5  6  1  0
  5  4  1  0
  6  7  1  0
  8  2  1  0
  9  8  2  0
 10 11  1  0
 10  8  1  0
 12 11  1  0
 13 12  1  0
 13 14  1  0
 14 10  1  0
 14 15  1  1
 16 15  2  0
 17 18  1  0
 17 15  1  0
 19 18  1  0
 20 21  1  0
 20 19  1  0
 21 17  1  0
 22 23  1  0
 21 22  1  1
 24 22  2  0
M  END
$$$$
