EDE.pdb
     RDKit          3D

 27 26  0  0  1  0  0  0  0  0999 V2000
   12.2773  -17.5060   16.9847 N   0  0  0  0  0  0  0  0  0  0  0  0
   12.2952  -18.5124   18.0040 C   0  0  1  0  0  0  0  0  0  0  0  0
   13.1705  -19.6831   17.7550 C   0  0  0  0  0  0  0  0  0  0  0  0
   14.5606  -19.4022   17.3084 C   0  0  0  0  0  0  0  0  0  0  0  0
   15.3282  -20.6208   17.0217 C   0  0  0  0  0  0  0  0  0  0  0  0
   16.1115  -21.1035   17.8541 O   0  0  0  0  0  0  0  0  0  0  0  0
   12.5864  -17.8617   19.3249 C   0  0  0  0  0  0  0  0  0  0  0  0
   13.2454  -16.7860   19.3480 O   0  0  0  0  0  0  0  0  0  0  0  0
   15.1711  -21.2538   15.7762 O   0  0  0  0  0  0  0  0  0  0  0  0
   12.1442  -18.4069   20.5745 N   0  0  0  0  0  0  0  0  0  0  0  0
   12.3692  -17.6141   21.7732 C   0  0  1  0  0  0  0  0  0  0  0  0
   11.0626  -17.6860   22.5958 C   0  0  0  0  0  0  0  0  0  0  0  0
   10.8002  -16.3471   23.2289 C   0  0  0  0  0  0  0  0  0  0  0  0
   11.6738  -15.4189   23.1967 O   0  0  0  0  0  0  0  0  0  0  0  0
   13.5355  -18.0593   22.5352 C   0  0  0  0  0  0  0  0  0  0  0  0
   13.7199  -19.2713   22.8091 O   0  0  0  0  0  0  0  0  0  0  0  0
    9.6057  -16.0418   23.8828 O   0  0  0  0  0  0  0  0  0  0  0  0
   14.5401  -17.1523   23.0180 N   0  0  0  0  0  0  0  0  0  0  0  0
   15.5608  -17.5332   23.9998 C   0  0  1  0  0  0  0  0  0  0  0  0
   16.6386  -16.4893   23.8728 C   0  0  0  0  0  0  0  0  0  0  0  0
   17.2924  -16.3803   22.5468 C   0  0  0  0  0  0  0  0  0  0  0  0
   18.3490  -15.3508   22.4342 C   0  0  0  0  0  0  0  0  0  0  0  0
   18.0327  -14.1989   22.0534 O   0  0  0  0  0  0  0  0  0  0  0  0
   14.9761  -17.5897   25.3549 C   0  0  0  0  0  0  0  0  0  0  0  0
   15.6608  -18.2207   26.3734 O   0  0  0  0  0  0  0  0  0  0  0  0
   19.6924  -15.5912   22.7358 O   0  0  0  0  0  0  0  0  0  0  0  0
   13.8710  -17.0750   25.5866 O   0  0  0  0  0  0  0  0  0  0  0  0
  2  1  1  6
  2  7  1  0
  3  2  1  0
  4  3  1  0
  5  4  1  0
  5  6  2  0
  7 10  1  0
  7  8  2  0
  9  5  1  0
 10 11  1  0
 11 12  1  1
 13 12  1  0
 13 17  1  0
 14 13  2  0
 15 11  1  0
 15 16  2  0
 18 15  1  0
 19 18  1  0
 19 20  1  1
 20 21  1  0
 21 22  1  0
 22 23  2  0
 22 26  1  0
 24 19  1  0
 25 24  1  0
 27 24  2  0
M  END
$$$$
