EDE.pdb
     RDKit          3D

 27 26  0  0  1  0  0  0  0  0999 V2000
   11.7879  -21.6702   19.2969 N   0  0  0  0  0  0  0  0  0  0  0  0
   13.0751  -21.0649   19.1274 C   0  0  1  0  0  0  0  0  0  0  0  0
   13.1819  -20.0366   18.0644 C   0  0  0  0  0  0  0  0  0  0  0  0
   12.2207  -18.9038   18.1239 C   0  0  0  0  0  0  0  0  0  0  0  0
   12.4278  -17.9190   17.0543 C   0  0  0  0  0  0  0  0  0  0  0  0
   12.4214  -18.2507   15.8587 O   0  0  0  0  0  0  0  0  0  0  0  0
   13.5511  -20.5537   20.4560 C   0  0  0  0  0  0  0  0  0  0  0  0
   13.4938  -21.3122   21.4626 O   0  0  0  0  0  0  0  0  0  0  0  0
   12.6375  -16.5710   17.3938 O   0  0  0  0  0  0  0  0  0  0  0  0
   14.0766  -19.2327   20.6379 N   0  0  0  0  0  0  0  0  0  0  0  0
   14.5584  -18.8755   21.9631 C   0  0  1  0  0  0  0  0  0  0  0  0
   15.5831  -17.7357   21.7627 C   0  0  0  0  0  0  0  0  0  0  0  0
   16.1374  -17.3257   23.0994 C   0  0  0  0  0  0  0  0  0  0  0  0
   16.3322  -16.0983   23.3851 O   0  0  0  0  0  0  0  0  0  0  0  0
   13.4783  -18.5029   22.8762 C   0  0  0  0  0  0  0  0  0  0  0  0
   12.8309  -17.4364   22.7302 O   0  0  0  0  0  0  0  0  0  0  0  0
   16.4704  -18.2465   24.0938 O   0  0  0  0  0  0  0  0  0  0  0  0
   13.0867  -19.3213   23.9908 N   0  0  0  0  0  0  0  0  0  0  0  0
   12.0337  -18.9385   24.9371 C   0  0  1  0  0  0  0  0  0  0  0  0
   11.2545  -20.2017   25.1913 C   0  0  0  0  0  0  0  0  0  0  0  0
   11.9355  -21.2403   26.0008 C   0  0  0  0  0  0  0  0  0  0  0  0
   11.1787  -22.4952   26.2038 C   0  0  0  0  0  0  0  0  0  0  0  0
   10.4590  -22.6088   27.2242 O   0  0  0  0  0  0  0  0  0  0  0  0
   12.6266  -18.3750   26.1669 C   0  0  0  0  0  0  0  0  0  0  0  0
   13.9973  -18.3612   26.3254 O   0  0  0  0  0  0  0  0  0  0  0  0
   11.2176  -23.5700   25.3112 O   0  0  0  0  0  0  0  0  0  0  0  0
   11.9016  -17.9139   27.0622 O   0  0  0  0  0  0  0  0  0  0  0  0
  2  1  1  1
  2  7  1  0
  3  2  1  0
  4  3  1  0
  5  4  1  0
  5  6  2  0
  7 10  1  0
  7  8  2  0
  9  5  1  0
 10 11  1  0
 11 12  1  6
 13 12  1  0
 13 17  1  0
 14 13  2  0
 15 11  1  0
 15 16  2  0
 18 15  1  0
 19 18  1  0
 19 20  1  1
 20 21  1  0
 21 22  1  0
 22 23  2  0
 22 26  1  0
 24 19  1  0
 25 24  1  0
 27 24  2  0
M  END
$$$$
