EDE.pdb
     RDKit          3D

 27 26  0  0  1  0  0  0  0  0999 V2000
   14.2279  -15.1934   16.4773 N   0  0  0  0  0  0  0  0  0  0  0  0
   15.0501  -15.3500   17.6398 C   0  0  1  0  0  0  0  0  0  0  0  0
   16.3532  -14.6426   17.6221 C   0  0  0  0  0  0  0  0  0  0  0  0
   16.4040  -13.3417   16.9041 C   0  0  0  0  0  0  0  0  0  0  0  0
   17.7437  -12.7403   16.9005 C   0  0  0  0  0  0  0  0  0  0  0  0
   18.6526  -13.1883   16.1845 O   0  0  0  0  0  0  0  0  0  0  0  0
   14.2407  -15.0101   18.8574 C   0  0  0  0  0  0  0  0  0  0  0  0
   14.8162  -14.9400   19.9780 O   0  0  0  0  0  0  0  0  0  0  0  0
   18.0008  -11.6324   17.7268 O   0  0  0  0  0  0  0  0  0  0  0  0
   12.8312  -14.7549   18.8076 N   0  0  0  0  0  0  0  0  0  0  0  0
   12.1455  -14.5112   20.0672 C   0  0  1  0  0  0  0  0  0  0  0  0
   10.7091  -14.0704   19.7042 C   0  0  0  0  0  0  0  0  0  0  0  0
   10.0588  -15.1375   18.8671 C   0  0  0  0  0  0  0  0  0  0  0  0
    9.3634  -16.0632   19.4012 O   0  0  0  0  0  0  0  0  0  0  0  0
   12.1667  -15.6721   20.9566 C   0  0  0  0  0  0  0  0  0  0  0  0
   12.1429  -16.8455   20.5087 O   0  0  0  0  0  0  0  0  0  0  0  0
   10.1753  -15.1829   17.4772 O   0  0  0  0  0  0  0  0  0  0  0  0
   12.2158  -15.5530   22.3878 N   0  0  0  0  0  0  0  0  0  0  0  0
   12.7425  -16.6050   23.2635 C   0  0  1  0  0  0  0  0  0  0  0  0
   14.2231  -16.6395   22.9913 C   0  0  0  0  0  0  0  0  0  0  0  0
   15.0071  -17.6384   23.7564 C   0  0  0  0  0  0  0  0  0  0  0  0
   16.4730  -17.5896   23.5626 C   0  0  0  0  0  0  0  0  0  0  0  0
   17.1457  -16.7770   24.2401 O   0  0  0  0  0  0  0  0  0  0  0  0
   12.4272  -16.3057   24.6750 C   0  0  0  0  0  0  0  0  0  0  0  0
   12.5164  -17.3020   25.6256 O   0  0  0  0  0  0  0  0  0  0  0  0
   17.1573  -18.4096   22.6610 O   0  0  0  0  0  0  0  0  0  0  0  0
   12.0804  -15.1638   25.0150 O   0  0  0  0  0  0  0  0  0  0  0  0
  2  1  1  6
  2  7  1  0
  3  2  1  0
  4  3  1  0
  5  4  1  0
  5  6  2  0
  7 10  1  0
  7  8  2  0
  9  5  1  0
 10 11  1  0
 11 12  1  6
 13 12  1  0
 13 17  1  0
 14 13  2  0
 15 11  1  0
 15 16  2  0
 18 15  1  0
 19 18  1  0
 19 20  1  1
 20 21  1  0
 21 22  1  0
 22 23  2  0
 22 26  1  0
 24 19  1  0
 25 24  1  0
 27 24  2  0
M  END
$$$$
