EDE.pdb
     RDKit          3D

 27 26  0  0  1  0  0  0  0  0999 V2000
    7.3648  -13.6003   21.5665 N   0  0  0  0  0  0  0  0  0  0  0  0
    7.2489  -14.9792   21.1958 C   0  0  1  0  0  0  0  0  0  0  0  0
    7.2634  -15.2713   19.7421 C   0  0  0  0  0  0  0  0  0  0  0  0
    8.2394  -14.5162   18.9128 C   0  0  0  0  0  0  0  0  0  0  0  0
    8.1701  -14.8625   17.4874 C   0  0  0  0  0  0  0  0  0  0  0  0
    7.4356  -15.7748   17.0778 O   0  0  0  0  0  0  0  0  0  0  0  0
    8.2836  -15.7717   21.9404 C   0  0  0  0  0  0  0  0  0  0  0  0
    8.1200  -17.0145   22.0836 O   0  0  0  0  0  0  0  0  0  0  0  0
    8.9534  -14.1437   16.5676 O   0  0  0  0  0  0  0  0  0  0  0  0
    9.4629  -15.1793   22.4994 N   0  0  0  0  0  0  0  0  0  0  0  0
   10.3407  -16.0351   23.2825 C   0  0  1  0  0  0  0  0  0  0  0  0
   11.7482  -15.4004   23.2094 C   0  0  0  0  0  0  0  0  0  0  0  0
   12.4986  -15.9893   22.0465 C   0  0  0  0  0  0  0  0  0  0  0  0
   12.3892  -17.2239   21.7471 O   0  0  0  0  0  0  0  0  0  0  0  0
    9.8776  -16.2124   24.6584 C   0  0  0  0  0  0  0  0  0  0  0  0
    9.5378  -15.2348   25.3703 O   0  0  0  0  0  0  0  0  0  0  0  0
   13.3494  -15.2355   21.2368 O   0  0  0  0  0  0  0  0  0  0  0  0
    9.7797  -17.5022   25.2847 N   0  0  0  0  0  0  0  0  0  0  0  0
    9.3190  -17.6922   26.6640 C   0  0  1  0  0  0  0  0  0  0  0  0
    8.2406  -18.7397   26.5782 C   0  0  0  0  0  0  0  0  0  0  0  0
    7.6186  -18.9326   25.2464 C   0  0  0  0  0  0  0  0  0  0  0  0
    6.6313  -20.0302   25.1515 C   0  0  0  0  0  0  0  0  0  0  0  0
    7.0023  -21.1399   24.7008 O   0  0  0  0  0  0  0  0  0  0  0  0
   10.4434  -18.0985   27.5311 C   0  0  0  0  0  0  0  0  0  0  0  0
   11.6921  -18.3107   26.9835 O   0  0  0  0  0  0  0  0  0  0  0  0
    5.2962  -19.8999   25.5439 O   0  0  0  0  0  0  0  0  0  0  0  0
   10.2751  -18.2530   28.7508 O   0  0  0  0  0  0  0  0  0  0  0  0
  2  1  1  6
  2  7  1  0
  3  2  1  0
  4  3  1  0
  5  4  1  0
  5  6  2  0
  7 10  1  0
  7  8  2  0
  9  5  1  0
 10 11  1  0
 11 12  1  1
 13 12  1  0
 13 17  1  0
 14 13  2  0
 15 11  1  0
 15 16  2  0
 18 15  1  0
 19 18  1  0
 19 20  1  6
 20 21  1  0
 21 22  1  0
 22 23  2  0
 22 26  1  0
 24 19  1  0
 25 24  1  0
 27 24  2  0
M  END
$$$$
