EDE.pdb
     RDKit          3D

 27 26  0  0  1  0  0  0  0  0999 V2000
   10.1621  -14.1081   17.6268 N   0  0  0  0  0  0  0  0  0  0  0  0
   10.5459  -15.4837   17.5154 C   0  0  1  0  0  0  0  0  0  0  0  0
   10.1673  -16.1708   16.2571 C   0  0  0  0  0  0  0  0  0  0  0  0
   10.3070  -15.3942   14.9970 C   0  0  0  0  0  0  0  0  0  0  0  0
    9.8713  -16.1423   13.8108 C   0  0  0  0  0  0  0  0  0  0  0  0
    8.9655  -16.9877   13.8752 O   0  0  0  0  0  0  0  0  0  0  0  0
   12.0141  -15.6040   17.8036 C   0  0  0  0  0  0  0  0  0  0  0  0
   12.5443  -16.7486   17.8251 O   0  0  0  0  0  0  0  0  0  0  0  0
   10.4950  -15.8941   12.5755 O   0  0  0  0  0  0  0  0  0  0  0  0
   12.8527  -14.4691   18.0546 N   0  0  0  0  0  0  0  0  0  0  0  0
   14.2475  -14.7209   18.3816 C   0  0  1  0  0  0  0  0  0  0  0  0
   15.0857  -13.8400   17.4272 C   0  0  0  0  0  0  0  0  0  0  0  0
   15.5665  -14.6764   16.2733 C   0  0  0  0  0  0  0  0  0  0  0  0
   15.3937  -15.9397   16.2564 O   0  0  0  0  0  0  0  0  0  0  0  0
   14.5530  -14.4681   19.7894 C   0  0  0  0  0  0  0  0  0  0  0  0
   15.0100  -13.3639   20.1763 O   0  0  0  0  0  0  0  0  0  0  0  0
   16.2232  -14.1330   15.1683 O   0  0  0  0  0  0  0  0  0  0  0  0
   14.3539  -15.4536   20.8163 N   0  0  0  0  0  0  0  0  0  0  0  0
   14.6452  -15.2077   22.2325 C   0  0  1  0  0  0  0  0  0  0  0  0
   13.6498  -16.0455   22.9906 C   0  0  0  0  0  0  0  0  0  0  0  0
   13.7906  -16.0555   24.4663 C   0  0  0  0  0  0  0  0  0  0  0  0
   12.8133  -16.8901   25.1992 C   0  0  0  0  0  0  0  0  0  0  0  0
   12.8442  -16.8974   26.4526 O   0  0  0  0  0  0  0  0  0  0  0  0
   16.0450  -15.5648   22.5397 C   0  0  0  0  0  0  0  0  0  0  0  0
   16.6726  -15.0063   23.6344 O   0  0  0  0  0  0  0  0  0  0  0  0
   11.8450  -17.6750   24.5669 O   0  0  0  0  0  0  0  0  0  0  0  0
   16.6645  -16.3633   21.8197 O   0  0  0  0  0  0  0  0  0  0  0  0
  2  1  1  6
  2  7  1  0
  3  2  1  0
  4  3  1  0
  5  4  1  0
  5  6  2  0
  7 10  1  0
  7  8  2  0
  9  5  1  0
 10 11  1  0
 11 12  1  6
 13 12  1  0
 13 17  1  0
 14 13  2  0
 15 11  1  0
 15 16  2  0
 18 15  1  0
 19 18  1  0
 19 20  1  1
 20 21  1  0
 21 22  1  0
 22 23  2  0
 22 26  1  0
 24 19  1  0
 25 24  1  0
 27 24  2  0
M  END
$$$$
