EDE.pdb
     RDKit          3D

 27 26  0  0  1  0  0  0  0  0999 V2000
    9.2606  -16.1225   18.8627 N   0  0  0  0  0  0  0  0  0  0  0  0
    9.4770  -17.2575   19.7094 C   0  0  1  0  0  0  0  0  0  0  0  0
    9.2427  -18.5874   19.0967 C   0  0  0  0  0  0  0  0  0  0  0  0
    8.4403  -18.6209   17.8455 C   0  0  0  0  0  0  0  0  0  0  0  0
    8.2993  -19.9731   17.2905 C   0  0  0  0  0  0  0  0  0  0  0  0
    9.1447  -20.4463   16.5153 O   0  0  0  0  0  0  0  0  0  0  0  0
   10.8424  -17.1527   20.3239 C   0  0  0  0  0  0  0  0  0  0  0  0
   11.2296  -18.0533   21.1182 O   0  0  0  0  0  0  0  0  0  0  0  0
    7.1814  -20.7479   17.6463 O   0  0  0  0  0  0  0  0  0  0  0  0
   11.7389  -16.0693   20.0463 N   0  0  0  0  0  0  0  0  0  0  0  0
   13.0451  -16.0945   20.6860 C   0  0  1  0  0  0  0  0  0  0  0  0
   13.9148  -15.0541   19.9441 C   0  0  0  0  0  0  0  0  0  0  0  0
   15.3330  -15.1517   20.4351 C   0  0  0  0  0  0  0  0  0  0  0  0
   15.6891  -16.0687   21.2465 O   0  0  0  0  0  0  0  0  0  0  0  0
   12.9753  -15.8416   22.1248 C   0  0  0  0  0  0  0  0  0  0  0  0
   13.3154  -14.7369   22.6167 O   0  0  0  0  0  0  0  0  0  0  0  0
   16.3315  -14.2592   20.0428 O   0  0  0  0  0  0  0  0  0  0  0  0
   12.5180  -16.8273   23.0653 N   0  0  0  0  0  0  0  0  0  0  0  0
   12.4959  -16.6048   24.5147 C   0  0  1  0  0  0  0  0  0  0  0  0
   11.2697  -17.3279   25.0056 C   0  0  0  0  0  0  0  0  0  0  0  0
   11.1956  -18.7762   24.6975 C   0  0  0  0  0  0  0  0  0  0  0  0
   10.0530  -19.5022   25.2944 C   0  0  0  0  0  0  0  0  0  0  0  0
    9.2663  -20.1186   24.5373 O   0  0  0  0  0  0  0  0  0  0  0  0
   13.7407  -17.1059   25.1316 C   0  0  0  0  0  0  0  0  0  0  0  0
   14.6071  -17.8872   24.3947 O   0  0  0  0  0  0  0  0  0  0  0  0
    9.8012  -19.5437   26.6686 O   0  0  0  0  0  0  0  0  0  0  0  0
   14.0150  -16.8315   26.3103 O   0  0  0  0  0  0  0  0  0  0  0  0
  2  1  1  6
  2  7  1  0
  3  2  1  0
  4  3  1  0
  5  4  1  0
  5  6  2  0
  7 10  1  0
  7  8  2  0
  9  5  1  0
 10 11  1  0
 11 12  1  6
 13 12  1  0
 13 17  1  0
 14 13  2  0
 15 11  1  0
 15 16  2  0
 18 15  1  0
 19 18  1  0
 19 20  1  1
 20 21  1  0
 21 22  1  0
 22 23  2  0
 22 26  1  0
 24 19  1  0
 25 24  1  0
 27 24  2  0
M  END
$$$$
