EDE.pdb
     RDKit          3D

 27 26  0  0  1  0  0  0  0  0999 V2000
   12.0950  -20.0961   18.6037 N   0  0  0  0  0  0  0  0  0  0  0  0
   13.3365  -19.3837   18.5476 C   0  0  1  0  0  0  0  0  0  0  0  0
   13.6180  -18.6537   17.2880 C   0  0  0  0  0  0  0  0  0  0  0  0
   12.6040  -18.7614   16.2059 C   0  0  0  0  0  0  0  0  0  0  0  0
   13.1980  -18.7807   14.8630 C   0  0  0  0  0  0  0  0  0  0  0  0
   12.6250  -19.3299   13.9094 O   0  0  0  0  0  0  0  0  0  0  0  0
   13.4407  -18.4924   19.7509 C   0  0  0  0  0  0  0  0  0  0  0  0
   14.2676  -17.5396   19.7401 O   0  0  0  0  0  0  0  0  0  0  0  0
   14.4434  -18.1625   14.6545 O   0  0  0  0  0  0  0  0  0  0  0  0
   12.6351  -18.6710   20.9228 N   0  0  0  0  0  0  0  0  0  0  0  0
   12.8526  -17.7597   22.0356 C   0  0  1  0  0  0  0  0  0  0  0  0
   11.5382  -17.7420   22.8488 C   0  0  0  0  0  0  0  0  0  0  0  0
   11.6674  -16.7591   23.9799 C   0  0  0  0  0  0  0  0  0  0  0  0
   10.8890  -16.8074   24.9888 O   0  0  0  0  0  0  0  0  0  0  0  0
   14.0099  -18.1280   22.8505 C   0  0  0  0  0  0  0  0  0  0  0  0
   14.0721  -19.2328   23.4451 O   0  0  0  0  0  0  0  0  0  0  0  0
   12.6289  -15.7478   23.9959 O   0  0  0  0  0  0  0  0  0  0  0  0
   15.1435  -17.2623   23.0256 N   0  0  0  0  0  0  0  0  0  0  0  0
   16.2323  -17.5453   23.9665 C   0  0  1  0  0  0  0  0  0  0  0  0
   17.3054  -16.5404   23.6409 C   0  0  0  0  0  0  0  0  0  0  0  0
   17.9217  -16.6517   22.2972 C   0  0  0  0  0  0  0  0  0  0  0  0
   18.9925  -15.6755   21.9987 C   0  0  0  0  0  0  0  0  0  0  0  0
   20.0364  -15.6921   22.6929 O   0  0  0  0  0  0  0  0  0  0  0  0
   15.7509  -17.4373   25.3586 C   0  0  0  0  0  0  0  0  0  0  0  0
   14.6873  -16.6100   25.6560 O   0  0  0  0  0  0  0  0  0  0  0  0
   18.9069  -14.7294   20.9735 O   0  0  0  0  0  0  0  0  0  0  0  0
   16.2964  -18.0842   26.2662 O   0  0  0  0  0  0  0  0  0  0  0  0
  2  1  1  6
  2  7  1  0
  3  2  1  0
  4  3  1  0
  5  4  1  0
  5  6  2  0
  7 10  1  0
  7  8  2  0
  9  5  1  0
 10 11  1  0
 11 12  1  1
 13 12  1  0
 13 17  1  0
 14 13  2  0
 15 11  1  0
 15 16  2  0
 18 15  1  0
 19 18  1  0
 19 20  1  1
 20 21  1  0
 21 22  1  0
 22 23  2  0
 22 26  1  0
 24 19  1  0
 25 24  1  0
 27 24  2  0
M  END
$$$$
