EDE.pdb
     RDKit          3D

 27 26  0  0  1  0  0  0  0  0999 V2000
   11.8207  -13.6939   18.6567 N   0  0  0  0  0  0  0  0  0  0  0  0
   12.2698  -15.0238   18.3708 C   0  0  1  0  0  0  0  0  0  0  0  0
   13.7261  -15.1906   18.1465 C   0  0  0  0  0  0  0  0  0  0  0  0
   14.6160  -14.1238   18.6762 C   0  0  0  0  0  0  0  0  0  0  0  0
   16.0293  -14.3356   18.3384 C   0  0  0  0  0  0  0  0  0  0  0  0
   16.6111  -13.6192   17.5090 O   0  0  0  0  0  0  0  0  0  0  0  0
   11.7532  -15.9505   19.4326 C   0  0  0  0  0  0  0  0  0  0  0  0
   11.0451  -15.4819   20.3658 O   0  0  0  0  0  0  0  0  0  0  0  0
   16.7378  -15.3731   18.9694 O   0  0  0  0  0  0  0  0  0  0  0  0
   12.0252  -17.3577   19.4358 N   0  0  0  0  0  0  0  0  0  0  0  0
   11.4702  -18.1490   20.5230 C   0  0  1  0  0  0  0  0  0  0  0  0
   11.3862  -19.6033   20.0059 C   0  0  0  0  0  0  0  0  0  0  0  0
   10.7488  -20.4684   21.0582 C   0  0  0  0  0  0  0  0  0  0  0  0
   10.5598  -20.0361   22.2429 O   0  0  0  0  0  0  0  0  0  0  0  0
   12.2470  -18.0379   21.7572 C   0  0  0  0  0  0  0  0  0  0  0  0
   11.9605  -18.7107   22.7786 O   0  0  0  0  0  0  0  0  0  0  0  0
   10.3330  -21.7773   20.8101 O   0  0  0  0  0  0  0  0  0  0  0  0
   13.3789  -17.1620   21.8862 N   0  0  0  0  0  0  0  0  0  0  0  0
   14.1582  -17.0336   23.1220 C   0  0  1  0  0  0  0  0  0  0  0  0
   15.2379  -16.0331   22.8046 C   0  0  0  0  0  0  0  0  0  0  0  0
   16.3243  -16.5023   21.9116 C   0  0  0  0  0  0  0  0  0  0  0  0
   17.3170  -15.4795   21.5155 C   0  0  0  0  0  0  0  0  0  0  0  0
   18.0209  -15.6822   20.4979 O   0  0  0  0  0  0  0  0  0  0  0  0
   13.2894  -16.6034   24.2362 C   0  0  0  0  0  0  0  0  0  0  0  0
   11.9449  -16.3855   24.0150 O   0  0  0  0  0  0  0  0  0  0  0  0
   17.5133  -14.2861   22.2161 O   0  0  0  0  0  0  0  0  0  0  0  0
   13.7587  -16.4339   25.3724 O   0  0  0  0  0  0  0  0  0  0  0  0
  2  1  1  1
  2  7  1  0
  3  2  1  0
  4  3  1  0
  5  4  1  0
  5  6  2  0
  7 10  1  0
  7  8  2  0
  9  5  1  0
 10 11  1  0
 11 12  1  6
 13 12  1  0
 13 17  1  0
 14 13  2  0
 15 11  1  0
 15 16  2  0
 18 15  1  0
 19 18  1  0
 19 20  1  6
 20 21  1  0
 21 22  1  0
 22 23  2  0
 22 26  1  0
 24 19  1  0
 25 24  1  0
 27 24  2  0
M  END
$$$$
