EDE.pdb
     RDKit          3D

 27 26  0  0  1  0  0  0  0  0999 V2000
   14.9337  -20.2111   15.4534 N   0  0  0  0  0  0  0  0  0  0  0  0
   14.8573  -18.8937   16.0108 C   0  0  1  0  0  0  0  0  0  0  0  0
   13.6132  -18.1355   15.7348 C   0  0  0  0  0  0  0  0  0  0  0  0
   12.3313  -18.8800   15.8482 C   0  0  0  0  0  0  0  0  0  0  0  0
   11.1530  -18.0278   15.6435 C   0  0  0  0  0  0  0  0  0  0  0  0
   10.5629  -17.9900   14.5527 O   0  0  0  0  0  0  0  0  0  0  0  0
   15.1576  -18.9688   17.4795 C   0  0  0  0  0  0  0  0  0  0  0  0
   14.3885  -19.6287   18.2310 O   0  0  0  0  0  0  0  0  0  0  0  0
   10.6839  -17.2381   16.7078 O   0  0  0  0  0  0  0  0  0  0  0  0
   16.2899  -18.3231   18.0756 N   0  0  0  0  0  0  0  0  0  0  0  0
   16.4557  -18.4470   19.5154 C   0  0  1  0  0  0  0  0  0  0  0  0
   17.9782  -18.4344   19.7823 C   0  0  0  0  0  0  0  0  0  0  0  0
   18.2402  -18.9075   21.1858 C   0  0  0  0  0  0  0  0  0  0  0  0
   17.2827  -19.2344   21.9619 O   0  0  0  0  0  0  0  0  0  0  0  0
   15.7488  -17.4039   20.2581 C   0  0  0  0  0  0  0  0  0  0  0  0
   15.8544  -16.1904   19.9514 O   0  0  0  0  0  0  0  0  0  0  0  0
   19.5253  -19.0146   21.7194 O   0  0  0  0  0  0  0  0  0  0  0  0
   14.8939  -17.6911   21.3770 N   0  0  0  0  0  0  0  0  0  0  0  0
   14.1697  -16.6551   22.1208 C   0  0  1  0  0  0  0  0  0  0  0  0
   13.0040  -17.3674   22.7544 C   0  0  0  0  0  0  0  0  0  0  0  0
   12.0995  -16.5354   23.5833 C   0  0  0  0  0  0  0  0  0  0  0  0
   10.9063  -17.2246   24.1218 C   0  0  0  0  0  0  0  0  0  0  0  0
   10.9272  -17.6327   25.3072 O   0  0  0  0  0  0  0  0  0  0  0  0
   15.0583  -16.0174   23.1132 C   0  0  0  0  0  0  0  0  0  0  0  0
   14.8882  -14.6860   23.4331 O   0  0  0  0  0  0  0  0  0  0  0  0
    9.7438  -17.4446   23.3776 O   0  0  0  0  0  0  0  0  0  0  0  0
   15.9603  -16.6691   23.6625 O   0  0  0  0  0  0  0  0  0  0  0  0
  2  1  1  1
  2  7  1  0
  3  2  1  0
  4  3  1  0
  5  4  1  0
  5  6  2  0
  7 10  1  0
  7  8  2  0
  9  5  1  0
 10 11  1  0
 11 12  1  6
 13 12  1  0
 13 17  1  0
 14 13  2  0
 15 11  1  0
 15 16  2  0
 18 15  1  0
 19 18  1  0
 19 20  1  1
 20 21  1  0
 21 22  1  0
 22 23  2  0
 22 26  1  0
 24 19  1  0
 25 24  1  0
 27 24  2  0
M  END
$$$$
