EDE.pdb
     RDKit          3D

 27 26  0  0  1  0  0  0  0  0999 V2000
   10.9346  -16.0202   20.6761 N   0  0  0  0  0  0  0  0  0  0  0  0
    9.7074  -15.9767   21.4138 C   0  0  1  0  0  0  0  0  0  0  0  0
    8.5213  -16.5696   20.7501 C   0  0  0  0  0  0  0  0  0  0  0  0
    8.7017  -17.0555   19.3566 C   0  0  0  0  0  0  0  0  0  0  0  0
    7.5102  -17.7298   18.8254 C   0  0  0  0  0  0  0  0  0  0  0  0
    6.5053  -17.9179   19.5285 O   0  0  0  0  0  0  0  0  0  0  0  0
    9.9391  -16.5579   22.7782 C   0  0  0  0  0  0  0  0  0  0  0  0
    8.9836  -16.5936   23.6013 O   0  0  0  0  0  0  0  0  0  0  0  0
    7.5091  -18.1712   17.4907 O   0  0  0  0  0  0  0  0  0  0  0  0
   11.2060  -17.0833   23.1946 N   0  0  0  0  0  0  0  0  0  0  0  0
   11.3180  -17.5688   24.5612 C   0  0  1  0  0  0  0  0  0  0  0  0
   12.5628  -18.4845   24.5986 C   0  0  0  0  0  0  0  0  0  0  0  0
   12.2928  -19.7228   23.7887 C   0  0  0  0  0  0  0  0  0  0  0  0
   11.4619  -20.6042   24.1870 O   0  0  0  0  0  0  0  0  0  0  0  0
   11.3900  -16.4863   25.5420 C   0  0  0  0  0  0  0  0  0  0  0  0
   12.3048  -15.6261   25.5077 O   0  0  0  0  0  0  0  0  0  0  0  0
   12.9254  -19.9826   22.5721 O   0  0  0  0  0  0  0  0  0  0  0  0
   10.4306  -16.3327   26.6008 N   0  0  0  0  0  0  0  0  0  0  0  0
   10.5309  -15.2934   27.6308 C   0  0  1  0  0  0  0  0  0  0  0  0
    9.2569  -14.4991   27.5143 C   0  0  0  0  0  0  0  0  0  0  0  0
    9.3018  -13.3152   26.6232 C   0  0  0  0  0  0  0  0  0  0  0  0
    8.0406  -12.5506   26.5068 C   0  0  0  0  0  0  0  0  0  0  0  0
    8.0486  -11.4622   25.8845 O   0  0  0  0  0  0  0  0  0  0  0  0
   10.7039  -15.9048   28.9640 C   0  0  0  0  0  0  0  0  0  0  0  0
   11.1544  -15.1377   30.0189 O   0  0  0  0  0  0  0  0  0  0  0  0
    6.8278  -12.9798   27.0530 O   0  0  0  0  0  0  0  0  0  0  0  0
   10.4487  -17.1056   29.1448 O   0  0  0  0  0  0  0  0  0  0  0  0
  2  1  1  6
  2  7  1  0
  3  2  1  0
  4  3  1  0
  5  4  1  0
  5  6  2  0
  7 10  1  0
  7  8  2  0
  9  5  1  0
 10 11  1  0
 11 12  1  6
 13 12  1  0
 13 17  1  0
 14 13  2  0
 15 11  1  0
 15 16  2  0
 18 15  1  0
 19 18  1  0
 19 20  1  1
 20 21  1  0
 21 22  1  0
 22 23  2  0
 22 26  1  0
 24 19  1  0
 25 24  1  0
 27 24  2  0
M  END
$$$$
