EDE.pdb
     RDKit          3D

 27 26  0  0  1  0  0  0  0  0999 V2000
   15.2949  -13.3547   16.7484 N   0  0  0  0  0  0  0  0  0  0  0  0
   14.3484  -14.4272   16.6718 C   0  0  1  0  0  0  0  0  0  0  0  0
   14.8938  -15.7597   16.3173 C   0  0  0  0  0  0  0  0  0  0  0  0
   15.9512  -16.3126   17.2043 C   0  0  0  0  0  0  0  0  0  0  0  0
   16.4410  -17.6251   16.7638 C   0  0  0  0  0  0  0  0  0  0  0  0
   16.4898  -18.5918   17.5401 O   0  0  0  0  0  0  0  0  0  0  0  0
   13.5514  -14.4643   17.9432 C   0  0  0  0  0  0  0  0  0  0  0  0
   14.0801  -14.0524   19.0121 O   0  0  0  0  0  0  0  0  0  0  0  0
   16.8633  -17.7888   15.4329 O   0  0  0  0  0  0  0  0  0  0  0  0
   12.2030  -14.9468   18.0017 N   0  0  0  0  0  0  0  0  0  0  0  0
   11.5494  -14.9647   19.3012 C   0  0  1  0  0  0  0  0  0  0  0  0
   10.0838  -15.3853   19.0470 C   0  0  0  0  0  0  0  0  0  0  0  0
    9.3675  -14.2775   18.3248 C   0  0  0  0  0  0  0  0  0  0  0  0
    9.9726  -13.2045   17.9955 O   0  0  0  0  0  0  0  0  0  0  0  0
   12.2236  -15.8379   20.2615 C   0  0  0  0  0  0  0  0  0  0  0  0
   12.5619  -17.0099   19.9616 O   0  0  0  0  0  0  0  0  0  0  0  0
    8.0178  -14.3511   17.9774 O   0  0  0  0  0  0  0  0  0  0  0  0
   12.5428  -15.4209   21.5992 N   0  0  0  0  0  0  0  0  0  0  0  0
   13.0756  -16.3310   22.6184 C   0  0  1  0  0  0  0  0  0  0  0  0
   14.4496  -15.8039   22.9374 C   0  0  0  0  0  0  0  0  0  0  0  0
   15.4751  -15.9637   21.8788 C   0  0  0  0  0  0  0  0  0  0  0  0
   16.8347  -15.4949   22.2255 C   0  0  0  0  0  0  0  0  0  0  0  0
   17.8025  -16.2762   22.0667 O   0  0  0  0  0  0  0  0  0  0  0  0
   12.1866  -16.3611   23.7973 C   0  0  0  0  0  0  0  0  0  0  0  0
   12.3566  -17.3331   24.7620 O   0  0  0  0  0  0  0  0  0  0  0  0
   17.1045  -14.2161   22.7207 O   0  0  0  0  0  0  0  0  0  0  0  0
   11.2845  -15.5191   23.9282 O   0  0  0  0  0  0  0  0  0  0  0  0
  2  1  1  1
  2  7  1  0
  3  2  1  0
  4  3  1  0
  5  4  1  0
  5  6  2  0
  7 10  1  0
  7  8  2  0
  9  5  1  0
 10 11  1  0
 11 12  1  6
 13 12  1  0
 13 17  1  0
 14 13  2  0
 15 11  1  0
 15 16  2  0
 18 15  1  0
 19 18  1  0
 19 20  1  1
 20 21  1  0
 21 22  1  0
 22 23  2  0
 22 26  1  0
 24 19  1  0
 25 24  1  0
 27 24  2  0
M  END
$$$$
