WEW.pdb
     RDKit          3D

 38 41  0  0  1  0  0  0  0  0999 V2000
    8.5156  -17.6970   21.2937 N   0  0  0  0  0  0  0  0  0  0  0  0
    8.9710  -16.5974   22.1130 C   0  0  1  0  0  0  0  0  0  0  0  0
    7.7490  -15.9318   22.7071 C   0  0  0  0  0  0  0  0  0  0  0  0
    7.0444  -15.2829   21.5822 C   0  0  0  0  0  0  0  0  0  0  0  0
    5.8498  -15.6374   21.0134 C   0  0  0  0  0  0  0  0  0  0  0  0
    5.5928  -14.7626   20.0083 N   0  0  0  0  0  0  0  0  0  0  0  0
    6.5922  -13.8592   19.9211 C   0  0  0  0  0  0  0  0  0  0  0  0
    6.8703  -12.7651   19.1165 C   0  0  0  0  0  0  0  0  0  0  0  0
    8.0136  -12.0027   19.2696 C   0  0  0  0  0  0  0  0  0  0  0  0
    8.9286  -12.3220   20.2533 C   0  0  0  0  0  0  0  0  0  0  0  0
    8.6495  -13.4076   21.0493 C   0  0  0  0  0  0  0  0  0  0  0  0
    7.5007  -14.1800   20.9015 C   0  0  0  0  0  0  0  0  0  0  0  0
    9.9096  -17.1221   23.1339 C   0  0  0  0  0  0  0  0  0  0  0  0
    9.5897  -18.1089   23.8672 O   0  0  0  0  0  0  0  0  0  0  0  0
   11.1840  -16.5686   23.3464 N   0  0  0  0  0  0  0  0  0  0  0  0
   12.0112  -16.9193   24.5092 C   0  0  1  0  0  0  0  0  0  0  0  0
   13.4034  -16.5105   24.1653 C   0  0  0  0  0  0  0  0  0  0  0  0
   14.0542  -17.1050   22.9817 C   0  0  0  0  0  0  0  0  0  0  0  0
   15.4976  -17.2968   23.2111 C   0  0  0  0  0  0  0  0  0  0  0  0
   16.2977  -16.3703   22.9370 O   0  0  0  0  0  0  0  0  0  0  0  0
   11.4839  -16.3932   25.7297 C   0  0  0  0  0  0  0  0  0  0  0  0
   11.6414  -15.1664   26.0770 O   0  0  0  0  0  0  0  0  0  0  0  0
   15.9773  -18.4799   23.7225 O   0  0  0  0  0  0  0  0  0  0  0  0
   10.7374  -17.1291   26.6992 N   0  0  0  0  0  0  0  0  0  0  0  0
   10.5650  -16.7678   28.0386 C   0  0  1  0  0  0  0  0  0  0  0  0
    9.3702  -16.0306   28.4685 C   0  0  0  0  0  0  0  0  0  0  0  0
    8.4206  -15.6909   27.3845 C   0  0  0  0  0  0  0  0  0  0  0  0
    7.5617  -16.4946   26.6702 C   0  0  0  0  0  0  0  0  0  0  0  0
    6.8757  -15.7263   25.7699 N   0  0  0  0  0  0  0  0  0  0  0  0
    7.2650  -14.4557   25.8813 C   0  0  0  0  0  0  0  0  0  0  0  0
    6.8637  -13.3312   25.1957 C   0  0  0  0  0  0  0  0  0  0  0  0
    7.4194  -12.0872   25.4882 C   0  0  0  0  0  0  0  0  0  0  0  0
    8.3739  -12.0438   26.4811 C   0  0  0  0  0  0  0  0  0  0  0  0
    8.7715  -13.1749   27.1640 C   0  0  0  0  0  0  0  0  0  0  0  0
    8.2200  -14.4059   26.8726 C   0  0  0  0  0  0  0  0  0  0  0  0
   10.6609  -18.0115   28.8894 C   0  0  0  0  0  0  0  0  0  0  0  0
   10.8130  -17.8959   30.2584 O   0  0  0  0  0  0  0  0  0  0  0  0
   10.6091  -19.1590   28.4137 O   0  0  0  0  0  0  0  0  0  0  0  0
  2  1  1  6
  2 13  1  0
  2  3  1  0
  4  3  1  0
  5  4  2  0
  6  5  1  0
  7  6  1  0
  7 12  2  0
  8  7  1  0
  9  8  2  0
  9 10  1  0
 10 11  2  0
 11 12  1  0
 12  4  1  0
 13 14  2  0
 15 13  1  0
 15 16  1  0
 16 17  1  6
 18 19  1  0
 18 17  1  0
 19 20  2  0
 21 22  2  0
 21 16  1  0
 23 19  1  0
 24 21  1  0
 25 24  1  0
 26 27  1  0
 25 26  1  6
 27 28  2  0
 27 35  1  0
 28 29  1  0
 29 30  1  0
 30 31  2  0
 31 32  1  0
 33 32  2  0
 34 33  1  0
 35 34  2  0
 35 30  1  0
 36 37  1  0
 36 25  1  0
 38 36  2  0
M  END
$$$$
