WEW.pdb
     RDKit          3D

 38 41  0  0  1  0  0  0  0  0999 V2000
    8.6223  -20.4212   26.4587 N   0  0  0  0  0  0  0  0  0  0  0  0
    8.7710  -19.2459   25.6316 C   0  0  1  0  0  0  0  0  0  0  0  0
    9.9642  -18.4710   26.1466 C   0  0  0  0  0  0  0  0  0  0  0  0
    9.5326  -17.8409   27.4114 C   0  0  0  0  0  0  0  0  0  0  0  0
    9.2083  -18.4509   28.5941 C   0  0  0  0  0  0  0  0  0  0  0  0
    8.8657  -17.4821   29.4806 N   0  0  0  0  0  0  0  0  0  0  0  0
    8.9631  -16.2700   28.8942 C   0  0  0  0  0  0  0  0  0  0  0  0
    8.7501  -14.9587   29.2902 C   0  0  0  0  0  0  0  0  0  0  0  0
    8.9403  -13.8860   28.4387 C   0  0  0  0  0  0  0  0  0  0  0  0
    9.3578  -14.1021   27.1403 C   0  0  0  0  0  0  0  0  0  0  0  0
    9.5681  -15.4036   26.7511 C   0  0  0  0  0  0  0  0  0  0  0  0
    9.3789  -16.4889   27.6024 C   0  0  0  0  0  0  0  0  0  0  0  0
    8.9128  -19.6735   24.2190 C   0  0  0  0  0  0  0  0  0  0  0  0
    9.7905  -20.5278   23.8818 O   0  0  0  0  0  0  0  0  0  0  0  0
    8.1001  -19.1679   23.1896 N   0  0  0  0  0  0  0  0  0  0  0  0
    8.6059  -18.9329   21.8301 C   0  0  1  0  0  0  0  0  0  0  0  0
    7.4258  -19.0403   20.9249 C   0  0  0  0  0  0  0  0  0  0  0  0
    7.6250  -18.9148   19.4681 C   0  0  0  0  0  0  0  0  0  0  0  0
    6.3381  -18.9642   18.7512 C   0  0  0  0  0  0  0  0  0  0  0  0
    6.3071  -18.7456   17.5163 O   0  0  0  0  0  0  0  0  0  0  0  0
    9.3653  -17.7251   21.7341 C   0  0  0  0  0  0  0  0  0  0  0  0
   10.0109  -17.3990   20.6723 O   0  0  0  0  0  0  0  0  0  0  0  0
    5.1705  -19.2476   19.4207 O   0  0  0  0  0  0  0  0  0  0  0  0
    9.5095  -16.7486   22.7657 N   0  0  0  0  0  0  0  0  0  0  0  0
   10.2146  -15.5466   22.6550 C   0  0  1  0  0  0  0  0  0  0  0  0
    9.7310  -14.3298   23.3193 C   0  0  0  0  0  0  0  0  0  0  0  0
    8.7482  -14.5568   24.4032 C   0  0  0  0  0  0  0  0  0  0  0  0
    8.1846  -15.7253   24.8625 C   0  0  0  0  0  0  0  0  0  0  0  0
    7.3295  -15.4352   25.8901 N   0  0  0  0  0  0  0  0  0  0  0  0
    7.3243  -14.1192   26.1067 C   0  0  0  0  0  0  0  0  0  0  0  0
    6.6292  -13.3640   27.0243 C   0  0  0  0  0  0  0  0  0  0  0  0
    6.7855  -11.9799   27.0665 C   0  0  0  0  0  0  0  0  0  0  0  0
    7.6562  -11.4185   26.1579 C   0  0  0  0  0  0  0  0  0  0  0  0
    8.3494  -12.1816   25.2408 C   0  0  0  0  0  0  0  0  0  0  0  0
    8.1930  -13.5521   25.2007 C   0  0  0  0  0  0  0  0  0  0  0  0
   11.6354  -15.7777   23.1108 C   0  0  0  0  0  0  0  0  0  0  0  0
   11.9736  -16.9696   23.7239 O   0  0  0  0  0  0  0  0  0  0  0  0
   12.5369  -14.9348   22.9607 O   0  0  0  0  0  0  0  0  0  0  0  0
  2  1  1  1
  2 13  1  0
  2  3  1  0
  4  3  1  0
  5  4  2  0
  6  5  1  0
  7  6  1  0
  7 12  2  0
  8  7  1  0
  9  8  2  0
  9 10  1  0
 10 11  2  0
 11 12  1  0
 12  4  1  0
 13 14  2  0
 15 13  1  0
 15 16  1  0
 16 17  1  6
 18 19  1  0
 18 17  1  0
 19 20  2  0
 21 22  2  0
 21 16  1  0
 23 19  1  0
 24 21  1  0
 25 24  1  0
 26 27  1  0
 25 26  1  1
 27 28  2  0
 27 35  1  0
 28 29  1  0
 29 30  1  0
 30 31  2  0
 31 32  1  0
 33 32  2  0
 34 33  1  0
 35 34  2  0
 35 30  1  0
 36 37  1  0
 36 25  1  0
 38 36  2  0
M  END
$$$$
