WEW.pdb
     RDKit          3D

 38 41  0  0  1  0  0  0  0  0999 V2000
    9.7833  -15.7723   20.7666 N   0  0  0  0  0  0  0  0  0  0  0  0
    8.8870  -15.8391   21.8979 C   0  0  1  0  0  0  0  0  0  0  0  0
    7.5187  -16.2203   21.3766 C   0  0  0  0  0  0  0  0  0  0  0  0
    7.2630  -15.3482   20.2116 C   0  0  0  0  0  0  0  0  0  0  0  0
    6.8536  -15.7108   18.9558 C   0  0  0  0  0  0  0  0  0  0  0  0
    6.7537  -14.5815   18.2097 N   0  0  0  0  0  0  0  0  0  0  0  0
    7.0885  -13.5082   18.9569 C   0  0  0  0  0  0  0  0  0  0  0  0
    7.1702  -12.1407   18.7445 C   0  0  0  0  0  0  0  0  0  0  0  0
    7.5560  -11.2574   19.7358 C   0  0  0  0  0  0  0  0  0  0  0  0
    7.8772  -11.7295   20.9931 C   0  0  0  0  0  0  0  0  0  0  0  0
    7.7950  -13.0861   21.2001 C   0  0  0  0  0  0  0  0  0  0  0  0
    7.4073  -13.9818   20.2073 C   0  0  0  0  0  0  0  0  0  0  0  0
    9.4325  -16.8066   22.8802 C   0  0  0  0  0  0  0  0  0  0  0  0
    8.7368  -17.1914   23.8711 O   0  0  0  0  0  0  0  0  0  0  0  0
   10.7269  -17.3441   22.7748 N   0  0  0  0  0  0  0  0  0  0  0  0
   11.4437  -17.9042   23.9290 C   0  0  1  0  0  0  0  0  0  0  0  0
   12.8566  -18.0884   23.4893 C   0  0  0  0  0  0  0  0  0  0  0  0
   13.8576  -18.5555   24.4680 C   0  0  0  0  0  0  0  0  0  0  0  0
   15.1908  -18.6679   23.8495 C   0  0  0  0  0  0  0  0  0  0  0  0
   15.9983  -17.7121   23.9380 O   0  0  0  0  0  0  0  0  0  0  0  0
   11.2493  -17.1317   25.1164 C   0  0  0  0  0  0  0  0  0  0  0  0
   11.6963  -15.9337   25.2406 O   0  0  0  0  0  0  0  0  0  0  0  0
   15.5598  -19.8091   23.1763 O   0  0  0  0  0  0  0  0  0  0  0  0
   10.5588  -17.5663   26.2881 N   0  0  0  0  0  0  0  0  0  0  0  0
   10.5975  -16.9365   27.5356 C   0  0  1  0  0  0  0  0  0  0  0  0
   10.0955  -15.5665   27.6997 C   0  0  0  0  0  0  0  0  0  0  0  0
    8.8808  -15.2468   26.9158 C   0  0  0  0  0  0  0  0  0  0  0  0
    7.9357  -16.0792   26.3608 C   0  0  0  0  0  0  0  0  0  0  0  0
    6.9880  -15.3209   25.7297 N   0  0  0  0  0  0  0  0  0  0  0  0
    7.2923  -14.0290   25.8600 C   0  0  0  0  0  0  0  0  0  0  0  0
    6.6453  -12.9042   25.3999 C   0  0  0  0  0  0  0  0  0  0  0  0
    7.1576  -11.6351   25.6620 C   0  0  0  0  0  0  0  0  0  0  0  0
    8.3242  -11.5676   26.3924 C   0  0  0  0  0  0  0  0  0  0  0  0
    8.9675  -12.6992   26.8502 C   0  0  0  0  0  0  0  0  0  0  0  0
    8.4585  -13.9551   26.5893 C   0  0  0  0  0  0  0  0  0  0  0  0
    9.8765  -17.8065   28.5371 C   0  0  0  0  0  0  0  0  0  0  0  0
    9.9477  -17.5050   29.8843 O   0  0  0  0  0  0  0  0  0  0  0  0
    9.2076  -18.8014   28.2074 O   0  0  0  0  0  0  0  0  0  0  0  0
  2  1  1  6
  2 13  1  0
  2  3  1  0
  4  3  1  0
  5  4  2  0
  6  5  1  0
  7  6  1  0
  7 12  2  0
  8  7  1  0
  9  8  2  0
  9 10  1  0
 10 11  2  0
 11 12  1  0
 12  4  1  0
 13 14  2  0
 15 13  1  0
 15 16  1  0
 16 17  1  6
 18 19  1  0
 18 17  1  0
 19 20  2  0
 21 22  2  0
 21 16  1  0
 23 19  1  0
 24 21  1  0
 25 24  1  0
 26 27  1  0
 25 26  1  6
 27 28  2  0
 27 35  1  0
 28 29  1  0
 29 30  1  0
 30 31  2  0
 31 32  1  0
 33 32  2  0
 34 33  1  0
 35 34  2  0
 35 30  1  0
 36 37  1  0
 36 25  1  0
 38 36  2  0
M  END
$$$$
