WEW.pdb
     RDKit          3D

 38 41  0  0  1  0  0  0  0  0999 V2000
    8.2575  -17.6807   20.9316 N   0  0  0  0  0  0  0  0  0  0  0  0
    8.8721  -16.6120   21.6852 C   0  0  1  0  0  0  0  0  0  0  0  0
    7.7629  -15.8013   22.3189 C   0  0  0  0  0  0  0  0  0  0  0  0
    7.0327  -15.1599   21.2061 C   0  0  0  0  0  0  0  0  0  0  0  0
    5.7557  -15.4070   20.7770 C   0  0  0  0  0  0  0  0  0  0  0  0
    5.5058  -14.5882   19.7240 N   0  0  0  0  0  0  0  0  0  0  0  0
    6.5901  -13.8251   19.4703 C   0  0  0  0  0  0  0  0  0  0  0  0
    6.9141  -12.8399   18.5504 C   0  0  0  0  0  0  0  0  0  0  0  0
    8.1475  -12.2153   18.5352 C   0  0  0  0  0  0  0  0  0  0  0  0
    9.1102  -12.5678   19.4603 C   0  0  0  0  0  0  0  0  0  0  0  0
    8.7855  -13.5450   20.3709 C   0  0  0  0  0  0  0  0  0  0  0  0
    7.5459  -14.1784   20.3928 C   0  0  0  0  0  0  0  0  0  0  0  0
    9.8065  -17.2033   22.6730 C   0  0  0  0  0  0  0  0  0  0  0  0
    9.3953  -18.0316   23.5442 O   0  0  0  0  0  0  0  0  0  0  0  0
   11.1758  -16.8878   22.7032 N   0  0  0  0  0  0  0  0  0  0  0  0
   11.9694  -16.9408   23.9388 C   0  0  1  0  0  0  0  0  0  0  0  0
   13.2714  -16.2861   23.6231 C   0  0  0  0  0  0  0  0  0  0  0  0
   14.2723  -16.1250   24.6956 C   0  0  0  0  0  0  0  0  0  0  0  0
   15.6405  -16.2884   24.1721 C   0  0  0  0  0  0  0  0  0  0  0  0
   15.8197  -16.4339   22.9391 O   0  0  0  0  0  0  0  0  0  0  0  0
   11.2584  -16.4184   25.0641 C   0  0  0  0  0  0  0  0  0  0  0  0
   11.1203  -15.1575   25.2678 O   0  0  0  0  0  0  0  0  0  0  0  0
   16.7233  -16.2829   25.0202 O   0  0  0  0  0  0  0  0  0  0  0  0
   10.6268  -17.1944   26.0826 N   0  0  0  0  0  0  0  0  0  0  0  0
   10.5083  -16.8299   27.4270 C   0  0  1  0  0  0  0  0  0  0  0  0
    9.1937  -16.5355   28.0110 C   0  0  0  0  0  0  0  0  0  0  0  0
    8.2513  -15.8343   27.1097 C   0  0  0  0  0  0  0  0  0  0  0  0
    7.3184  -16.3379   26.2321 C   0  0  0  0  0  0  0  0  0  0  0  0
    6.6756  -15.2981   25.6181 N   0  0  0  0  0  0  0  0  0  0  0  0
    7.1642  -14.1429   26.0713 C   0  0  0  0  0  0  0  0  0  0  0  0
    6.8370  -12.8441   25.7526 C   0  0  0  0  0  0  0  0  0  0  0  0
    7.4931  -11.7778   26.3646 C   0  0  0  0  0  0  0  0  0  0  0  0
    8.4681  -12.0871   27.2879 C   0  0  0  0  0  0  0  0  0  0  0  0
    8.7910  -13.3913   27.6021 C   0  0  0  0  0  0  0  0  0  0  0  0
    8.1401  -14.4458   26.9948 C   0  0  0  0  0  0  0  0  0  0  0  0
   11.1515  -17.9008   28.2751 C   0  0  0  0  0  0  0  0  0  0  0  0
   11.3455  -17.6815   29.6260 O   0  0  0  0  0  0  0  0  0  0  0  0
   11.5240  -18.9933   27.8129 O   0  0  0  0  0  0  0  0  0  0  0  0
  2  1  1  1
  2 13  1  0
  2  3  1  0
  4  3  1  0
  5  4  2  0
  6  5  1  0
  7  6  1  0
  7 12  2  0
  8  7  1  0
  9  8  2  0
  9 10  1  0
 10 11  2  0
 11 12  1  0
 12  4  1  0
 13 14  2  0
 15 13  1  0
 15 16  1  0
 16 17  1  6
 18 19  1  0
 18 17  1  0
 19 20  2  0
 21 22  2  0
 21 16  1  0
 23 19  1  0
 24 21  1  0
 25 24  1  0
 26 27  1  0
 25 26  1  1
 27 28  2  0
 27 35  1  0
 28 29  1  0
 29 30  1  0
 30 31  2  0
 31 32  1  0
 33 32  2  0
 34 33  1  0
 35 34  2  0
 35 30  1  0
 36 37  1  0
 36 25  1  0
 38 36  2  0
M  END
$$$$
