WEW.pdb
     RDKit          3D

 38 41  0  0  1  0  0  0  0  0999 V2000
    6.6583  -18.9096   23.1828 N   0  0  0  0  0  0  0  0  0  0  0  0
    7.4063  -17.7340   22.8005 C   0  0  1  0  0  0  0  0  0  0  0  0
    6.6422  -16.5244   23.2927 C   0  0  0  0  0  0  0  0  0  0  0  0
    6.3600  -15.7006   22.0991 C   0  0  0  0  0  0  0  0  0  0  0  0
    5.3782  -15.8776   21.1606 C   0  0  0  0  0  0  0  0  0  0  0  0
    5.4985  -14.8859   20.2420 N   0  0  0  0  0  0  0  0  0  0  0  0
    6.5313  -14.0810   20.5701 C   0  0  0  0  0  0  0  0  0  0  0  0
    7.1119  -12.9447   20.0282 C   0  0  0  0  0  0  0  0  0  0  0  0
    8.1986  -12.3174   20.6090 C   0  0  0  0  0  0  0  0  0  0  0  0
    8.7448  -12.8215   21.7727 C   0  0  0  0  0  0  0  0  0  0  0  0
    8.1666  -13.9483   22.3073 C   0  0  0  0  0  0  0  0  0  0  0  0
    7.0723  -14.5855   21.7286 C   0  0  0  0  0  0  0  0  0  0  0  0
    8.7735  -17.8358   23.3654 C   0  0  0  0  0  0  0  0  0  0  0  0
    8.9958  -18.5168   24.4147 O   0  0  0  0  0  0  0  0  0  0  0  0
    9.8823  -17.1967   22.7846 N   0  0  0  0  0  0  0  0  0  0  0  0
   11.1676  -17.0590   23.4836 C   0  0  1  0  0  0  0  0  0  0  0  0
   12.1054  -16.4347   22.5067 C   0  0  0  0  0  0  0  0  0  0  0  0
   13.4995  -16.1753   22.9154 C   0  0  0  0  0  0  0  0  0  0  0  0
   14.4441  -16.9715   22.1114 C   0  0  0  0  0  0  0  0  0  0  0  0
   14.1287  -17.3194   20.9482 O   0  0  0  0  0  0  0  0  0  0  0  0
   11.0333  -16.3928   24.7417 C   0  0  0  0  0  0  0  0  0  0  0  0
   11.1916  -15.1245   24.8707 O   0  0  0  0  0  0  0  0  0  0  0  0
   15.6677  -17.3374   22.6220 O   0  0  0  0  0  0  0  0  0  0  0  0
   10.7180  -17.0191   25.9854 N   0  0  0  0  0  0  0  0  0  0  0  0
   10.9794  -16.4890   27.2523 C   0  0  1  0  0  0  0  0  0  0  0  0
   10.1781  -15.3774   27.7798 C   0  0  0  0  0  0  0  0  0  0  0  0
    8.8167  -15.2614   27.2095 C   0  0  0  0  0  0  0  0  0  0  0  0
    7.8631  -16.2268   26.9802 C   0  0  0  0  0  0  0  0  0  0  0  0
    6.7522  -15.6383   26.4407 N   0  0  0  0  0  0  0  0  0  0  0  0
    6.9599  -14.3270   26.3151 C   0  0  0  0  0  0  0  0  0  0  0  0
    6.1424  -13.3320   25.8280 C   0  0  0  0  0  0  0  0  0  0  0  0
    6.5798  -12.0094   25.7930 C   0  0  0  0  0  0  0  0  0  0  0  0
    7.8501  -11.7557   26.2630 C   0  0  0  0  0  0  0  0  0  0  0  0
    8.6641  -12.7579   26.7496 C   0  0  0  0  0  0  0  0  0  0  0  0
    8.2289  -14.0671   26.7832 C   0  0  0  0  0  0  0  0  0  0  0  0
   10.9231  -17.6084   28.2639 C   0  0  0  0  0  0  0  0  0  0  0  0
   11.3063  -17.3717   29.5708 O   0  0  0  0  0  0  0  0  0  0  0  0
   10.5422  -18.7569   27.9779 O   0  0  0  0  0  0  0  0  0  0  0  0
  2  1  1  1
  2 13  1  0
  2  3  1  0
  4  3  1  0
  5  4  2  0
  6  5  1  0
  7  6  1  0
  7 12  2  0
  8  7  1  0
  9  8  2  0
  9 10  1  0
 10 11  2  0
 11 12  1  0
 12  4  1  0
 13 14  2  0
 15 13  1  0
 15 16  1  0
 16 17  1  6
 18 19  1  0
 18 17  1  0
 19 20  2  0
 21 22  2  0
 21 16  1  0
 23 19  1  0
 24 21  1  0
 25 24  1  0
 26 27  1  0
 25 26  1  1
 27 28  2  0
 27 35  1  0
 28 29  1  0
 29 30  1  0
 30 31  2  0
 31 32  1  0
 33 32  2  0
 34 33  1  0
 35 34  2  0
 35 30  1  0
 36 37  1  0
 36 25  1  0
 38 36  2  0
M  END
$$$$
