WEW.pdb
     RDKit          3D

 38 41  0  0  1  0  0  0  0  0999 V2000
    7.8608  -17.8667   20.9369 N   0  0  0  0  0  0  0  0  0  0  0  0
    8.5461  -16.7970   21.6251 C   0  0  1  0  0  0  0  0  0  0  0  0
    7.4945  -15.8630   22.1829 C   0  0  0  0  0  0  0  0  0  0  0  0
    6.8852  -15.1857   21.0198 C   0  0  0  0  0  0  0  0  0  0  0  0
    5.7360  -15.5177   20.3526 C   0  0  0  0  0  0  0  0  0  0  0  0
    5.5654  -14.6210   19.3483 N   0  0  0  0  0  0  0  0  0  0  0  0
    6.5756  -13.7257   19.3575 C   0  0  0  0  0  0  0  0  0  0  0  0
    6.9245  -12.6187   18.5994 C   0  0  0  0  0  0  0  0  0  0  0  0
    8.0583  -11.8704   18.8565 C   0  0  0  0  0  0  0  0  0  0  0  0
    8.8911  -12.2176   19.9019 C   0  0  0  0  0  0  0  0  0  0  0  0
    8.5420  -13.3157   20.6516 C   0  0  0  0  0  0  0  0  0  0  0  0
    7.4021  -14.0741   20.3991 C   0  0  0  0  0  0  0  0  0  0  0  0
    9.4216  -17.3860   22.6669 C   0  0  0  0  0  0  0  0  0  0  0  0
    8.9941  -18.3033   23.4349 O   0  0  0  0  0  0  0  0  0  0  0  0
   10.7504  -16.9716   22.8623 N   0  0  0  0  0  0  0  0  0  0  0  0
   11.5595  -17.4307   23.9998 C   0  0  1  0  0  0  0  0  0  0  0  0
   12.9824  -17.2131   23.6104 C   0  0  0  0  0  0  0  0  0  0  0  0
   13.4329  -17.6386   22.2710 C   0  0  0  0  0  0  0  0  0  0  0  0
   14.5454  -16.7973   21.7943 C   0  0  0  0  0  0  0  0  0  0  0  0
   15.1661  -16.0708   22.6070 O   0  0  0  0  0  0  0  0  0  0  0  0
   11.1469  -16.8386   25.2342 C   0  0  0  0  0  0  0  0  0  0  0  0
   11.3653  -15.6038   25.5138 O   0  0  0  0  0  0  0  0  0  0  0  0
   14.9110  -16.7998   20.4684 O   0  0  0  0  0  0  0  0  0  0  0  0
   10.4616  -17.5105   26.2913 N   0  0  0  0  0  0  0  0  0  0  0  0
   10.3373  -17.0465   27.6042 C   0  0  1  0  0  0  0  0  0  0  0  0
    9.0138  -16.7987   28.1897 C   0  0  0  0  0  0  0  0  0  0  0  0
    8.0691  -16.0680   27.3146 C   0  0  0  0  0  0  0  0  0  0  0  0
    7.1024  -16.5420   26.4575 C   0  0  0  0  0  0  0  0  0  0  0  0
    6.4730  -15.4822   25.8639 N   0  0  0  0  0  0  0  0  0  0  0  0
    7.0030  -14.3428   26.3105 C   0  0  0  0  0  0  0  0  0  0  0  0
    6.7032  -13.0341   26.0059 C   0  0  0  0  0  0  0  0  0  0  0  0
    7.4020  -11.9888   26.6067 C   0  0  0  0  0  0  0  0  0  0  0  0
    8.3902  -12.3289   27.5048 C   0  0  0  0  0  0  0  0  0  0  0  0
    8.6856  -13.6428   27.8052 C   0  0  0  0  0  0  0  0  0  0  0  0
    7.9924  -14.6764   27.2089 C   0  0  0  0  0  0  0  0  0  0  0  0
   11.0685  -17.9964   28.5222 C   0  0  0  0  0  0  0  0  0  0  0  0
   11.2914  -17.6419   29.8395 O   0  0  0  0  0  0  0  0  0  0  0  0
   11.4899  -19.1047   28.1482 O   0  0  0  0  0  0  0  0  0  0  0  0
  2  1  1  1
  2 13  1  0
  2  3  1  0
  4  3  1  0
  5  4  2  0
  6  5  1  0
  7  6  1  0
  7 12  2  0
  8  7  1  0
  9  8  2  0
  9 10  1  0
 10 11  2  0
 11 12  1  0
 12  4  1  0
 13 14  2  0
 15 13  1  0
 15 16  1  0
 16 17  1  6
 18 19  1  0
 18 17  1  0
 19 20  2  0
 21 22  2  0
 21 16  1  0
 23 19  1  0
 24 21  1  0
 25 24  1  0
 26 27  1  0
 25 26  1  1
 27 28  2  0
 27 35  1  0
 28 29  1  0
 29 30  1  0
 30 31  2  0
 31 32  1  0
 33 32  2  0
 34 33  1  0
 35 34  2  0
 35 30  1  0
 36 37  1  0
 36 25  1  0
 38 36  2  0
M  END
$$$$
