WEW.pdb
     RDKit          3D

 38 41  0  0  1  0  0  0  0  0999 V2000
    7.4374  -18.2834   23.4128 N   0  0  0  0  0  0  0  0  0  0  0  0
    8.3473  -17.1976   23.1285 C   0  0  1  0  0  0  0  0  0  0  0  0
    7.8469  -15.9752   23.8665 C   0  0  0  0  0  0  0  0  0  0  0  0
    7.0069  -15.2288   22.9072 C   0  0  0  0  0  0  0  0  0  0  0  0
    5.6435  -15.0977   22.8984 C   0  0  0  0  0  0  0  0  0  0  0  0
    5.3074  -14.3288   21.8318 N   0  0  0  0  0  0  0  0  0  0  0  0
    6.4207  -13.9660   21.1601 C   0  0  0  0  0  0  0  0  0  0  0  0
    6.6933  -13.2085   20.0316 C   0  0  0  0  0  0  0  0  0  0  0  0
    7.9798  -13.0044   19.5677 C   0  0  0  0  0  0  0  0  0  0  0  0
    9.0506  -13.5650   20.2354 C   0  0  0  0  0  0  0  0  0  0  0  0
    8.7765  -14.3155   21.3541 C   0  0  0  0  0  0  0  0  0  0  0  0
    7.4841  -14.5255   21.8275 C   0  0  0  0  0  0  0  0  0  0  0  0
    9.7153  -17.6067   23.5281 C   0  0  0  0  0  0  0  0  0  0  0  0
    9.8995  -18.3987   24.5043 O   0  0  0  0  0  0  0  0  0  0  0  0
   10.8666  -17.1506   22.8633 N   0  0  0  0  0  0  0  0  0  0  0  0
   12.2232  -17.4469   23.3440 C   0  0  1  0  0  0  0  0  0  0  0  0
   13.1553  -16.8990   22.3170 C   0  0  0  0  0  0  0  0  0  0  0  0
   13.1990  -15.4411   22.0925 C   0  0  0  0  0  0  0  0  0  0  0  0
   14.2356  -15.0878   21.1059 C   0  0  0  0  0  0  0  0  0  0  0  0
   13.9787  -15.1678   19.8807 O   0  0  0  0  0  0  0  0  0  0  0  0
   12.4334  -17.0017   24.6865 C   0  0  0  0  0  0  0  0  0  0  0  0
   13.4952  -17.2890   25.3502 O   0  0  0  0  0  0  0  0  0  0  0  0
   15.4814  -14.6713   21.5133 O   0  0  0  0  0  0  0  0  0  0  0  0
   11.5268  -16.2067   25.4510 N   0  0  0  0  0  0  0  0  0  0  0  0
   11.7723  -15.6944   26.7284 C   0  0  1  0  0  0  0  0  0  0  0  0
   11.0684  -14.4967   27.2039 C   0  0  0  0  0  0  0  0  0  0  0  0
    9.5913  -14.5705   27.1359 C   0  0  0  0  0  0  0  0  0  0  0  0
    8.7317  -15.5715   27.5272 C   0  0  0  0  0  0  0  0  0  0  0  0
    7.4458  -15.1821   27.2701 N   0  0  0  0  0  0  0  0  0  0  0  0
    7.4498  -13.9643   26.7263 C   0  0  0  0  0  0  0  0  0  0  0  0
    6.4099  -13.1677   26.3026 C   0  0  0  0  0  0  0  0  0  0  0  0
    6.6580  -11.9098   25.7568 C   0  0  0  0  0  0  0  0  0  0  0  0
    7.9746  -11.5136   25.6655 C   0  0  0  0  0  0  0  0  0  0  0  0
    9.0120  -12.3174   26.0919 C   0  0  0  0  0  0  0  0  0  0  0  0
    8.7640  -13.5628   26.6321 C   0  0  0  0  0  0  0  0  0  0  0  0
   11.5372  -16.7901   27.7403 C   0  0  0  0  0  0  0  0  0  0  0  0
   11.9072  -16.5974   29.0582 O   0  0  0  0  0  0  0  0  0  0  0  0
   11.0172  -17.8801   27.4449 O   0  0  0  0  0  0  0  0  0  0  0  0
  2  1  1  1
  2 13  1  0
  2  3  1  0
  4  3  1  0
  5  4  2  0
  6  5  1  0
  7  6  1  0
  7 12  2  0
  8  7  1  0
  9  8  2  0
  9 10  1  0
 10 11  2  0
 11 12  1  0
 12  4  1  0
 13 14  2  0
 15 13  1  0
 15 16  1  0
 16 17  1  6
 18 19  1  0
 18 17  1  0
 19 20  2  0
 21 22  2  0
 21 16  1  0
 23 19  1  0
 24 21  1  0
 25 24  1  0
 26 27  1  0
 25 26  1  1
 27 28  2  0
 27 35  1  0
 28 29  1  0
 29 30  1  0
 30 31  2  0
 31 32  1  0
 33 32  2  0
 34 33  1  0
 35 34  2  0
 35 30  1  0
 36 37  1  0
 36 25  1  0
 38 36  2  0
M  END
$$$$
