WEW.pdb
     RDKit          3D

 38 41  0  0  1  0  0  0  0  0999 V2000
    9.6769  -16.3763   20.4303 N   0  0  0  0  0  0  0  0  0  0  0  0
    8.9672  -15.8690   21.5821 C   0  0  1  0  0  0  0  0  0  0  0  0
    7.4922  -15.8621   21.2452 C   0  0  0  0  0  0  0  0  0  0  0  0
    7.3523  -15.0484   20.0199 C   0  0  0  0  0  0  0  0  0  0  0  0
    6.8345  -15.4235   18.8086 C   0  0  0  0  0  0  0  0  0  0  0  0
    6.9108  -14.3547   17.9758 N   0  0  0  0  0  0  0  0  0  0  0  0
    7.4637  -13.3077   18.6243 C   0  0  0  0  0  0  0  0  0  0  0  0
    7.7829  -11.9984   18.2991 C   0  0  0  0  0  0  0  0  0  0  0  0
    8.3612  -11.1286   19.2051 C   0  0  0  0  0  0  0  0  0  0  0  0
    8.6415  -11.5553   20.4881 C   0  0  0  0  0  0  0  0  0  0  0  0
    8.3237  -12.8542   20.8070 C   0  0  0  0  0  0  0  0  0  0  0  0
    7.7411  -13.7360   19.9006 C   0  0  0  0  0  0  0  0  0  0  0  0
    9.2987  -16.7138   22.7547 C   0  0  0  0  0  0  0  0  0  0  0  0
    8.5234  -16.7664   23.7598 O   0  0  0  0  0  0  0  0  0  0  0  0
   10.4681  -17.4907   22.8219 N   0  0  0  0  0  0  0  0  0  0  0  0
   10.8759  -18.1962   24.0448 C   0  0  1  0  0  0  0  0  0  0  0  0
   11.9606  -19.1354   23.6387 C   0  0  0  0  0  0  0  0  0  0  0  0
   13.2677  -18.5874   23.2275 C   0  0  0  0  0  0  0  0  0  0  0  0
   14.3018  -19.6377   23.2138 C   0  0  0  0  0  0  0  0  0  0  0  0
   14.2769  -20.5212   22.3237 O   0  0  0  0  0  0  0  0  0  0  0  0
   11.1880  -17.2975   25.1122 C   0  0  0  0  0  0  0  0  0  0  0  0
   11.9326  -16.2636   24.9478 O   0  0  0  0  0  0  0  0  0  0  0  0
   15.2942  -19.6600   24.1658 O   0  0  0  0  0  0  0  0  0  0  0  0
   10.7351  -17.4182   26.4609 N   0  0  0  0  0  0  0  0  0  0  0  0
   11.0456  -16.5416   27.5047 C   0  0  1  0  0  0  0  0  0  0  0  0
   10.2798  -15.3037   27.6971 C   0  0  0  0  0  0  0  0  0  0  0  0
    8.8596  -15.3759   27.2848 C   0  0  0  0  0  0  0  0  0  0  0  0
    8.0194  -16.4602   27.1743 C   0  0  0  0  0  0  0  0  0  0  0  0
    6.7883  -16.0312   26.7597 N   0  0  0  0  0  0  0  0  0  0  0  0
    6.8090  -14.7074   26.5997 C   0  0  0  0  0  0  0  0  0  0  0  0
    5.8203  -13.8366   26.2001 C   0  0  0  0  0  0  0  0  0  0  0  0
    6.0761  -12.4702   26.1036 C   0  0  0  0  0  0  0  0  0  0  0  0
    7.3474  -12.0455   26.4235 C   0  0  0  0  0  0  0  0  0  0  0  0
    8.3336  -12.9239   26.8230 C   0  0  0  0  0  0  0  0  0  0  0  0
    8.0781  -14.2767   26.9177 C   0  0  0  0  0  0  0  0  0  0  0  0
   11.0040  -17.3073   28.8054 C   0  0  0  0  0  0  0  0  0  0  0  0
   10.5892  -18.6259   28.8120 O   0  0  0  0  0  0  0  0  0  0  0  0
   11.3302  -16.8040   29.8945 O   0  0  0  0  0  0  0  0  0  0  0  0
  2  1  1  6
  2 13  1  0
  2  3  1  0
  4  3  1  0
  5  4  2  0
  6  5  1  0
  7  6  1  0
  7 12  2  0
  8  7  1  0
  9  8  2  0
  9 10  1  0
 10 11  2  0
 11 12  1  0
 12  4  1  0
 13 14  2  0
 15 13  1  0
 15 16  1  0
 16 17  1  6
 18 19  1  0
 18 17  1  0
 19 20  2  0
 21 22  2  0
 21 16  1  0
 23 19  1  0
 24 21  1  0
 25 24  1  0
 26 27  1  0
 25 26  1  1
 27 28  2  0
 27 35  1  0
 28 29  1  0
 29 30  1  0
 30 31  2  0
 31 32  1  0
 33 32  2  0
 34 33  1  0
 35 34  2  0
 35 30  1  0
 36 37  1  0
 36 25  1  0
 38 36  2  0
M  END
$$$$
