WEW.pdb
     RDKit          3D

 38 41  0  0  1  0  0  0  0  0999 V2000
    7.0514  -17.9436   21.4690 N   0  0  0  0  0  0  0  0  0  0  0  0
    8.4064  -18.2594   21.0791 C   0  0  1  0  0  0  0  0  0  0  0  0
    8.9953  -17.0267   20.4287 C   0  0  0  0  0  0  0  0  0  0  0  0
    8.1273  -15.8977   20.8223 C   0  0  0  0  0  0  0  0  0  0  0  0
    7.1265  -15.8846   21.7572 C   0  0  0  0  0  0  0  0  0  0  0  0
    6.5971  -14.6352   21.7810 N   0  0  0  0  0  0  0  0  0  0  0  0
    7.2342  -13.8511   20.8858 C   0  0  0  0  0  0  0  0  0  0  0  0
    7.1347  -12.5292   20.4801 C   0  0  0  0  0  0  0  0  0  0  0  0
    7.9542  -11.9879   19.5068 C   0  0  0  0  0  0  0  0  0  0  0  0
    8.9156  -12.7721   18.9007 C   0  0  0  0  0  0  0  0  0  0  0  0
    9.0114  -14.0824   19.3055 C   0  0  0  0  0  0  0  0  0  0  0  0
    8.1902  -14.6347   20.2847 C   0  0  0  0  0  0  0  0  0  0  0  0
    9.1546  -18.7054   22.2791 C   0  0  0  0  0  0  0  0  0  0  0  0
    9.6253  -19.8831   22.3530 O   0  0  0  0  0  0  0  0  0  0  0  0
    9.3822  -17.8674   23.3843 N   0  0  0  0  0  0  0  0  0  0  0  0
   10.7282  -17.6135   23.9164 C   0  0  1  0  0  0  0  0  0  0  0  0
   11.5273  -17.0717   22.7799 C   0  0  0  0  0  0  0  0  0  0  0  0
   12.9299  -16.6764   23.0129 C   0  0  0  0  0  0  0  0  0  0  0  0
   13.6666  -16.5633   21.7413 C   0  0  0  0  0  0  0  0  0  0  0  0
   13.7989  -17.5733   21.0091 O   0  0  0  0  0  0  0  0  0  0  0  0
   10.7019  -16.8172   25.1037 C   0  0  0  0  0  0  0  0  0  0  0  0
   10.9249  -15.5520   25.0907 O   0  0  0  0  0  0  0  0  0  0  0  0
   14.2107  -15.3630   21.3481 O   0  0  0  0  0  0  0  0  0  0  0  0
   10.4358  -17.2971   26.4218 N   0  0  0  0  0  0  0  0  0  0  0  0
   10.5440  -16.5482   27.5973 C   0  0  1  0  0  0  0  0  0  0  0  0
    9.3433  -16.1021   28.3152 C   0  0  0  0  0  0  0  0  0  0  0  0
    8.1892  -15.7605   27.4530 C   0  0  0  0  0  0  0  0  0  0  0  0
    7.2697  -16.5756   26.8334 C   0  0  0  0  0  0  0  0  0  0  0  0
    6.3789  -15.8002   26.1429 N   0  0  0  0  0  0  0  0  0  0  0  0
    6.6952  -14.5139   26.2977 C   0  0  0  0  0  0  0  0  0  0  0  0
    6.0990  -13.3774   25.7992 C   0  0  0  0  0  0  0  0  0  0  0  0
    6.6135  -12.1176   26.0993 C   0  0  0  0  0  0  0  0  0  0  0  0
    7.7296  -12.0713   26.9061 C   0  0  0  0  0  0  0  0  0  0  0  0
    8.3222  -13.2145   27.4020 C   0  0  0  0  0  0  0  0  0  0  0  0
    7.8110  -14.4611   27.1035 C   0  0  0  0  0  0  0  0  0  0  0  0
   11.4010  -17.3120   28.5781 C   0  0  0  0  0  0  0  0  0  0  0  0
   11.7732  -16.7194   29.7702 O   0  0  0  0  0  0  0  0  0  0  0  0
   11.7985  -18.4708   28.3659 O   0  0  0  0  0  0  0  0  0  0  0  0
  2  1  1  1
  2 13  1  0
  2  3  1  0
  4  3  1  0
  5  4  2  0
  6  5  1  0
  7  6  1  0
  7 12  2  0
  8  7  1  0
  9  8  2  0
  9 10  1  0
 10 11  2  0
 11 12  1  0
 12  4  1  0
 13 14  2  0
 15 13  1  0
 15 16  1  0
 16 17  1  6
 18 19  1  0
 18 17  1  0
 19 20  2  0
 21 22  2  0
 21 16  1  0
 23 19  1  0
 24 21  1  0
 25 24  1  0
 26 27  1  0
 25 26  1  1
 27 28  2  0
 27 35  1  0
 28 29  1  0
 29 30  1  0
 30 31  2  0
 31 32  1  0
 33 32  2  0
 34 33  1  0
 35 34  2  0
 35 30  1  0
 36 37  1  0
 36 25  1  0
 38 36  2  0
M  END
$$$$
