WEW.pdb
     RDKit          3D

 38 41  0  0  1  0  0  0  0  0999 V2000
    7.4372  -19.2300   20.6791 N   0  0  0  0  0  0  0  0  0  0  0  0
    8.1515  -18.0648   21.1479 C   0  0  1  0  0  0  0  0  0  0  0  0
    7.1498  -17.1543   21.8238 C   0  0  0  0  0  0  0  0  0  0  0  0
    7.0698  -15.9372   20.9899 C   0  0  0  0  0  0  0  0  0  0  0  0
    6.5021  -15.7948   19.7515 C   0  0  0  0  0  0  0  0  0  0  0  0
    6.6667  -14.5043   19.3654 N   0  0  0  0  0  0  0  0  0  0  0  0
    7.3244  -13.8197   20.3252 C   0  0  0  0  0  0  0  0  0  0  0  0
    7.7604  -12.5138   20.4875 C   0  0  0  0  0  0  0  0  0  0  0  0
    8.4304  -12.0904   21.6205 C   0  0  0  0  0  0  0  0  0  0  0  0
    8.6873  -12.9821   22.6431 C   0  0  0  0  0  0  0  0  0  0  0  0
    8.2535  -14.2761   22.4788 C   0  0  0  0  0  0  0  0  0  0  0  0
    7.5782  -14.7101   21.3412 C   0  0  0  0  0  0  0  0  0  0  0  0
    9.2445  -18.5070   22.0470 C   0  0  0  0  0  0  0  0  0  0  0  0
    9.8048  -19.6357   21.8852 O   0  0  0  0  0  0  0  0  0  0  0  0
    9.7154  -17.7186   23.1110 N   0  0  0  0  0  0  0  0  0  0  0  0
   11.1442  -17.4417   23.3140 C   0  0  1  0  0  0  0  0  0  0  0  0
   11.6480  -16.8962   22.0208 C   0  0  0  0  0  0  0  0  0  0  0  0
   13.0887  -16.6114   21.8747 C   0  0  0  0  0  0  0  0  0  0  0  0
   13.5721  -16.9985   20.5371 C   0  0  0  0  0  0  0  0  0  0  0  0
   12.7458  -17.2391   19.6245 O   0  0  0  0  0  0  0  0  0  0  0  0
   11.3828  -16.6377   24.4721 C   0  0  0  0  0  0  0  0  0  0  0  0
   12.5589  -16.2463   24.8096 O   0  0  0  0  0  0  0  0  0  0  0  0
   14.9191  -17.0989   20.2780 O   0  0  0  0  0  0  0  0  0  0  0  0
   10.3859  -16.1751   25.3836 N   0  0  0  0  0  0  0  0  0  0  0  0
   10.5733  -15.9567   26.7517 C   0  0  1  0  0  0  0  0  0  0  0  0
    9.7243  -15.0075   27.4826 C   0  0  0  0  0  0  0  0  0  0  0  0
    8.3630  -14.8298   26.9280 C   0  0  0  0  0  0  0  0  0  0  0  0
    7.4376  -15.7653   26.5250 C   0  0  0  0  0  0  0  0  0  0  0  0
    6.3136  -15.1213   26.0853 N   0  0  0  0  0  0  0  0  0  0  0  0
    6.4857  -13.8031   26.1916 C   0  0  0  0  0  0  0  0  0  0  0  0
    5.6435  -12.7603   25.8770 C   0  0  0  0  0  0  0  0  0  0  0  0
    6.0445  -11.4408   26.0767 C   0  0  0  0  0  0  0  0  0  0  0  0
    7.3049  -11.2395   26.5960 C   0  0  0  0  0  0  0  0  0  0  0  0
    8.1438  -12.2894   26.9088 C   0  0  0  0  0  0  0  0  0  0  0  0
    7.7447  -13.5954   26.7101 C   0  0  0  0  0  0  0  0  0  0  0  0
   10.4899  -17.2836   27.4673 C   0  0  0  0  0  0  0  0  0  0  0  0
   10.9195  -17.3844   28.7774 O   0  0  0  0  0  0  0  0  0  0  0  0
   10.0458  -18.3128   26.9294 O   0  0  0  0  0  0  0  0  0  0  0  0
  2  1  1  1
  2 13  1  0
  2  3  1  0
  4  3  1  0
  5  4  2  0
  6  5  1  0
  7  6  1  0
  7 12  2  0
  8  7  1  0
  9  8  2  0
  9 10  1  0
 10 11  2  0
 11 12  1  0
 12  4  1  0
 13 14  2  0
 15 13  1  0
 15 16  1  0
 16 17  1  6
 18 19  1  0
 18 17  1  0
 19 20  2  0
 21 22  2  0
 21 16  1  0
 23 19  1  0
 24 21  1  0
 25 24  1  0
 26 27  1  0
 25 26  1  1
 27 28  2  0
 27 35  1  0
 28 29  1  0
 29 30  1  0
 30 31  2  0
 31 32  1  0
 33 32  2  0
 34 33  1  0
 35 34  2  0
 35 30  1  0
 36 37  1  0
 36 25  1  0
 38 36  2  0
M  END
$$$$
