WEW.pdb
     RDKit          3D

 38 41  0  0  1  0  0  0  0  0999 V2000
    7.6164  -18.2168   21.0840 N   0  0  0  0  0  0  0  0  0  0  0  0
    8.4134  -17.1301   21.6051 C   0  0  1  0  0  0  0  0  0  0  0  0
    7.4671  -16.0225   22.0136 C   0  0  0  0  0  0  0  0  0  0  0  0
    7.2444  -15.2028   20.8046 C   0  0  0  0  0  0  0  0  0  0  0  0
    6.7243  -15.5947   19.5996 C   0  0  0  0  0  0  0  0  0  0  0  0
    6.7096  -14.5115   18.7820 N   0  0  0  0  0  0  0  0  0  0  0  0
    7.2066  -13.4391   19.4341 C   0  0  0  0  0  0  0  0  0  0  0  0
    7.4300  -12.1069   19.1224 C   0  0  0  0  0  0  0  0  0  0  0  0
    7.9703  -11.2132   20.0285 C   0  0  0  0  0  0  0  0  0  0  0  0
    8.3085  -11.6381   21.2981 C   0  0  0  0  0  0  0  0  0  0  0  0
    8.0856  -12.9597   21.6037 C   0  0  0  0  0  0  0  0  0  0  0  0
    7.5420  -13.8657   20.6970 C   0  0  0  0  0  0  0  0  0  0  0  0
    9.2393  -17.6410   22.7255 C   0  0  0  0  0  0  0  0  0  0  0  0
    8.7405  -18.4109   23.6044 O   0  0  0  0  0  0  0  0  0  0  0  0
   10.5966  -17.3094   22.8783 N   0  0  0  0  0  0  0  0  0  0  0  0
   11.3492  -17.6153   24.1028 C   0  0  1  0  0  0  0  0  0  0  0  0
   12.7917  -17.5236   23.7360 C   0  0  0  0  0  0  0  0  0  0  0  0
   13.3411  -18.4673   22.7434 C   0  0  0  0  0  0  0  0  0  0  0  0
   14.6143  -17.9720   22.1897 C   0  0  0  0  0  0  0  0  0  0  0  0
   15.1916  -17.0008   22.7346 O   0  0  0  0  0  0  0  0  0  0  0  0
   10.9296  -16.8168   25.2123 C   0  0  0  0  0  0  0  0  0  0  0  0
   11.0149  -15.5350   25.2108 O   0  0  0  0  0  0  0  0  0  0  0  0
   15.1767  -18.5627   21.0823 O   0  0  0  0  0  0  0  0  0  0  0  0
   10.3790  -17.3122   26.4329 N   0  0  0  0  0  0  0  0  0  0  0  0
   10.4249  -16.6611   27.6692 C   0  0  1  0  0  0  0  0  0  0  0  0
    9.2618  -15.9166   28.1680 C   0  0  0  0  0  0  0  0  0  0  0  0
    8.2687  -15.5420   27.1358 C   0  0  0  0  0  0  0  0  0  0  0  0
    7.3528  -16.3157   26.4604 C   0  0  0  0  0  0  0  0  0  0  0  0
    6.6441  -15.5214   25.6011 N   0  0  0  0  0  0  0  0  0  0  0  0
    7.0740  -14.2630   25.7013 C   0  0  0  0  0  0  0  0  0  0  0  0
    6.6703  -13.1222   25.0446 C   0  0  0  0  0  0  0  0  0  0  0  0
    7.2746  -11.8965   25.3170 C   0  0  0  0  0  0  0  0  0  0  0  0
    8.2787  -11.8876   26.2607 C   0  0  0  0  0  0  0  0  0  0  0  0
    8.6784  -13.0349   26.9149 C   0  0  0  0  0  0  0  0  0  0  0  0
    8.0786  -14.2477   26.6435 C   0  0  0  0  0  0  0  0  0  0  0  0
   10.8086  -17.6658   28.7290 C   0  0  0  0  0  0  0  0  0  0  0  0
   11.1701  -17.2288   29.9896 O   0  0  0  0  0  0  0  0  0  0  0  0
   10.8168  -18.8921   28.5237 O   0  0  0  0  0  0  0  0  0  0  0  0
  2  1  1  1
  2 13  1  0
  2  3  1  0
  4  3  1  0
  5  4  2  0
  6  5  1  0
  7  6  1  0
  7 12  2  0
  8  7  1  0
  9  8  2  0
  9 10  1  0
 10 11  2  0
 11 12  1  0
 12  4  1  0
 13 14  2  0
 15 13  1  0
 15 16  1  0
 16 17  1  6
 18 19  1  0
 18 17  1  0
 19 20  2  0
 21 22  2  0
 21 16  1  0
 23 19  1  0
 24 21  1  0
 25 24  1  0
 26 27  1  0
 25 26  1  1
 27 28  2  0
 27 35  1  0
 28 29  1  0
 29 30  1  0
 30 31  2  0
 31 32  1  0
 33 32  2  0
 34 33  1  0
 35 34  2  0
 35 30  1  0
 36 37  1  0
 36 25  1  0
 38 36  2  0
M  END
$$$$
