WEW.pdb
     RDKit          3D

 38 41  0  0  1  0  0  0  0  0999 V2000
    6.3124  -17.9116   23.8574 N   0  0  0  0  0  0  0  0  0  0  0  0
    7.5700  -17.3550   23.4145 C   0  0  1  0  0  0  0  0  0  0  0  0
    8.0175  -16.3498   24.4531 C   0  0  0  0  0  0  0  0  0  0  0  0
    7.1985  -15.1394   24.2360 C   0  0  0  0  0  0  0  0  0  0  0  0
    6.2243  -14.6193   25.0462 C   0  0  0  0  0  0  0  0  0  0  0  0
    5.7375  -13.5036   24.4463 N   0  0  0  0  0  0  0  0  0  0  0  0
    6.3758  -13.2984   23.2747 C   0  0  0  0  0  0  0  0  0  0  0  0
    6.3093  -12.3523   22.2635 C   0  0  0  0  0  0  0  0  0  0  0  0
    7.1196  -12.4039   21.1444 C   0  0  0  0  0  0  0  0  0  0  0  0
    8.0377  -13.4259   21.0045 C   0  0  0  0  0  0  0  0  0  0  0  0
    8.1008  -14.3622   22.0090 C   0  0  0  0  0  0  0  0  0  0  0  0
    7.2886  -14.3170   23.1389 C   0  0  0  0  0  0  0  0  0  0  0  0
    8.5355  -18.4622   23.2134 C   0  0  0  0  0  0  0  0  0  0  0  0
    8.3660  -19.5857   23.7818 O   0  0  0  0  0  0  0  0  0  0  0  0
    9.6733  -18.3360   22.3980 N   0  0  0  0  0  0  0  0  0  0  0  0
   11.0223  -18.1521   22.9510 C   0  0  1  0  0  0  0  0  0  0  0  0
   11.9213  -17.9262   21.7830 C   0  0  0  0  0  0  0  0  0  0  0  0
   11.5445  -18.4826   20.4691 C   0  0  0  0  0  0  0  0  0  0  0  0
   12.0999  -17.6710   19.3711 C   0  0  0  0  0  0  0  0  0  0  0  0
   13.3044  -17.8063   19.0477 O   0  0  0  0  0  0  0  0  0  0  0  0
   11.0583  -17.1553   23.9755 C   0  0  0  0  0  0  0  0  0  0  0  0
   10.0767  -16.3561   24.1950 O   0  0  0  0  0  0  0  0  0  0  0  0
   11.3127  -16.7670   18.6969 O   0  0  0  0  0  0  0  0  0  0  0  0
   12.1494  -16.9149   24.8645 N   0  0  0  0  0  0  0  0  0  0  0  0
   12.2443  -17.3791   26.1798 C   0  0  1  0  0  0  0  0  0  0  0  0
   11.0430  -17.7854   26.9200 C   0  0  0  0  0  0  0  0  0  0  0  0
    9.9567  -16.7798   26.9505 C   0  0  0  0  0  0  0  0  0  0  0  0
    8.6366  -16.8849   26.5760 C   0  0  0  0  0  0  0  0  0  0  0  0
    8.0140  -15.6862   26.7925 N   0  0  0  0  0  0  0  0  0  0  0  0
    8.8897  -14.8139   27.2933 C   0  0  0  0  0  0  0  0  0  0  0  0
    8.7317  -13.4980   27.6661 C   0  0  0  0  0  0  0  0  0  0  0  0
    9.8073  -12.7712   28.1729 C   0  0  0  0  0  0  0  0  0  0  0  0
   11.0143  -13.4276   28.2787 C   0  0  0  0  0  0  0  0  0  0  0  0
   11.1655  -14.7466   27.9028 C   0  0  0  0  0  0  0  0  0  0  0  0
   10.0990  -15.4644   27.4011 C   0  0  0  0  0  0  0  0  0  0  0  0
   13.2109  -18.5385   26.2129 C   0  0  0  0  0  0  0  0  0  0  0  0
   13.5783  -19.0907   27.4258 O   0  0  0  0  0  0  0  0  0  0  0  0
   13.7048  -19.0339   25.1851 O   0  0  0  0  0  0  0  0  0  0  0  0
  2  1  1  1
  2 13  1  0
  2  3  1  0
  4  3  1  0
  5  4  2  0
  6  5  1  0
  7  6  1  0
  7 12  2  0
  8  7  1  0
  9  8  2  0
  9 10  1  0
 10 11  2  0
 11 12  1  0
 12  4  1  0
 13 14  2  0
 15 13  1  0
 15 16  1  0
 16 17  1  6
 18 19  1  0
 18 17  1  0
 19 20  2  0
 21 22  2  0
 21 16  1  0
 23 19  1  0
 24 21  1  0
 25 24  1  0
 26 27  1  0
 25 26  1  6
 27 28  2  0
 27 35  1  0
 28 29  1  0
 29 30  1  0
 30 31  2  0
 31 32  1  0
 33 32  2  0
 34 33  1  0
 35 34  2  0
 35 30  1  0
 36 37  1  0
 36 25  1  0
 38 36  2  0
M  END
$$$$
