WEW.pdb
     RDKit          3D

 38 41  0  0  1  0  0  0  0  0999 V2000
    7.7979  -17.7803   20.8165 N   0  0  0  0  0  0  0  0  0  0  0  0
    8.4355  -16.7380   21.5877 C   0  0  1  0  0  0  0  0  0  0  0  0
    7.3491  -15.8208   22.1049 C   0  0  0  0  0  0  0  0  0  0  0  0
    6.8756  -15.0441   20.9407 C   0  0  0  0  0  0  0  0  0  0  0  0
    5.7715  -15.2721   20.1627 C   0  0  0  0  0  0  0  0  0  0  0  0
    5.7323  -14.3105   19.2058 N   0  0  0  0  0  0  0  0  0  0  0  0
    6.7824  -13.4751   19.3532 C   0  0  0  0  0  0  0  0  0  0  0  0
    7.2499  -12.3472   18.6966 C   0  0  0  0  0  0  0  0  0  0  0  0
    8.3945  -11.6795   19.0915 C   0  0  0  0  0  0  0  0  0  0  0  0
    9.1171  -12.1327   20.1775 C   0  0  0  0  0  0  0  0  0  0  0  0
    8.6505  -13.2513   20.8262 C   0  0  0  0  0  0  0  0  0  0  0  0
    7.4990  -13.9290   20.4348 C   0  0  0  0  0  0  0  0  0  0  0  0
    9.2368  -17.3666   22.6654 C   0  0  0  0  0  0  0  0  0  0  0  0
    8.7120  -18.2042   23.4635 O   0  0  0  0  0  0  0  0  0  0  0  0
   10.5980  -17.0778   22.8635 N   0  0  0  0  0  0  0  0  0  0  0  0
   11.3637  -17.6266   23.9914 C   0  0  1  0  0  0  0  0  0  0  0  0
   12.7999  -17.5330   23.6014 C   0  0  0  0  0  0  0  0  0  0  0  0
   13.8323  -17.9967   24.5484 C   0  0  0  0  0  0  0  0  0  0  0  0
   15.1674  -17.9856   23.9239 C   0  0  0  0  0  0  0  0  0  0  0  0
   15.2690  -17.8657   22.6793 O   0  0  0  0  0  0  0  0  0  0  0  0
   11.0083  -17.0191   25.2361 C   0  0  0  0  0  0  0  0  0  0  0  0
   11.1381  -15.7591   25.4505 O   0  0  0  0  0  0  0  0  0  0  0  0
   16.3033  -18.1050   24.6901 O   0  0  0  0  0  0  0  0  0  0  0  0
   10.4808  -17.7011   26.3742 N   0  0  0  0  0  0  0  0  0  0  0  0
   10.2521  -17.1312   27.6301 C   0  0  1  0  0  0  0  0  0  0  0  0
    8.8889  -16.8092   28.0704 C   0  0  0  0  0  0  0  0  0  0  0  0
    8.1219  -15.9413   27.1481 C   0  0  0  0  0  0  0  0  0  0  0  0
    7.1547  -16.2618   26.2230 C   0  0  0  0  0  0  0  0  0  0  0  0
    6.7286  -15.1169   25.6072 N   0  0  0  0  0  0  0  0  0  0  0  0
    7.3897  -14.0712   26.1053 C   0  0  0  0  0  0  0  0  0  0  0  0
    7.3063  -12.7306   25.8030 C   0  0  0  0  0  0  0  0  0  0  0  0
    8.1099  -11.8039   26.4643 C   0  0  0  0  0  0  0  0  0  0  0  0
    8.9759  -12.2920   27.4187 C   0  0  0  0  0  0  0  0  0  0  0  0
    9.0544  -13.6371   27.7163 C   0  0  0  0  0  0  0  0  0  0  0  0
    8.2577  -14.5530   27.0600 C   0  0  0  0  0  0  0  0  0  0  0  0
   10.8703  -18.0202   28.6824 C   0  0  0  0  0  0  0  0  0  0  0  0
   10.8954  -17.6066   30.0012 O   0  0  0  0  0  0  0  0  0  0  0  0
   11.3689  -19.1285   28.4202 O   0  0  0  0  0  0  0  0  0  0  0  0
  2  1  1  1
  2 13  1  0
  2  3  1  0
  4  3  1  0
  5  4  2  0
  6  5  1  0
  7  6  1  0
  7 12  2  0
  8  7  1  0
  9  8  2  0
  9 10  1  0
 10 11  2  0
 11 12  1  0
 12  4  1  0
 13 14  2  0
 15 13  1  0
 15 16  1  0
 16 17  1  6
 18 19  1  0
 18 17  1  0
 19 20  2  0
 21 22  2  0
 21 16  1  0
 23 19  1  0
 24 21  1  0
 25 24  1  0
 26 27  1  0
 25 26  1  1
 27 28  2  0
 27 35  1  0
 28 29  1  0
 29 30  1  0
 30 31  2  0
 31 32  1  0
 33 32  2  0
 34 33  1  0
 35 34  2  0
 35 30  1  0
 36 37  1  0
 36 25  1  0
 38 36  2  0
M  END
$$$$
