TWK.pdb
     RDKit          3D

 31 32  0  0  1  0  0  0  0  0999 V2000
   29.2425  -26.0594  -19.1586 C   0  0  0  0  0  0  0  0  0  0  0  0
   28.4026  -25.1583  -18.2956 C   0  0  1  0  0  0  0  0  0  0  0  0
   27.0681  -25.5268  -18.3265 O   0  0  0  0  0  0  0  0  0  0  0  0
   28.9527  -25.0959  -16.8849 C   0  0  2  0  0  0  0  0  0  0  0  0
   28.8225  -26.3450  -16.1995 N   0  0  0  0  0  0  0  0  0  0  0  0
   28.1728  -24.0383  -16.1538 C   0  0  0  0  0  0  0  0  0  0  0  0
   27.3521  -24.4196  -15.3070 O   0  0  0  0  0  0  0  0  0  0  0  0
   28.3958  -22.6766  -16.4493 N   0  0  0  0  0  0  0  0  0  0  0  0
   27.7856  -21.5677  -15.7638 C   0  0  1  0  0  0  0  0  0  0  0  0
   28.5606  -20.2959  -16.0680 C   0  0  0  0  0  0  0  0  0  0  0  0
   27.9741  -19.1609  -15.3178 C   0  0  0  0  0  0  0  0  0  0  0  0
   27.4737  -19.0794  -14.0589 C   0  0  0  0  0  0  0  0  0  0  0  0
   27.0385  -17.8143  -13.7961 N   0  0  0  0  0  0  0  0  0  0  0  0
   27.2653  -17.0898  -14.8958 C   0  0  0  0  0  0  0  0  0  0  0  0
   27.0053  -15.7593  -15.1339 C   0  0  0  0  0  0  0  0  0  0  0  0
   27.3332  -15.2332  -16.3553 C   0  0  0  0  0  0  0  0  0  0  0  0
   27.9116  -16.0019  -17.3383 C   0  0  0  0  0  0  0  0  0  0  0  0
   28.1711  -17.3497  -17.0872 C   0  0  0  0  0  0  0  0  0  0  0  0
   27.8387  -17.8721  -15.8575 C   0  0  0  0  0  0  0  0  0  0  0  0
   26.3661  -21.4992  -16.1132 C   0  0  0  0  0  0  0  0  0  0  0  0
   25.9515  -21.7251  -17.3041 O   0  0  0  0  0  0  0  0  0  0  0  0
   25.3340  -21.1817  -15.1820 N   0  0  0  0  0  0  0  0  0  0  0  0
   23.9243  -21.1127  -15.6036 C   0  0  1  0  0  0  0  0  0  0  0  0
   23.0190  -21.3270  -14.4420 C   0  0  0  0  0  0  0  0  0  0  0  0
   21.5825  -21.1718  -14.8148 C   0  0  0  0  0  0  0  0  0  0  0  0
   20.6575  -21.4702  -13.6412 C   0  0  0  0  0  0  0  0  0  0  0  0
   19.2395  -21.2296  -14.1284 C   0  0  0  0  0  0  0  0  0  0  0  0
   18.2694  -21.3772  -13.0692 N   0  0  0  0  0  0  0  0  0  0  0  0
   23.7796  -19.7877  -16.2469 C   0  0  0  0  0  0  0  0  0  0  0  0
   24.2224  -18.7213  -15.7096 O   0  0  0  0  0  0  0  0  0  0  0  0
   23.1603  -19.5852  -17.4776 O   0  0  0  0  0  0  0  0  0  0  0  0
  2  1  1  6
  3  2  1  0
  4  5  1  1
  4  6  1  0
  4  2  1  0
  6  8  1  0
  7  6  2  0
  8  9  1  0
  9 10  1  6
 10 11  1  0
 11 19  1  0
 11 12  2  0
 12 13  1  0
 14 13  1  0
 14 15  2  0
 16 15  1  0
 17 16  2  0
 18 19  2  0
 18 17  1  0
 19 14  1  0
 20 21  2  0
 20  9  1  0
 22 20  1  0
 23 24  1  1
 23 22  1  0
 25 26  1  0
 25 24  1  0
 27 26  1  0
 28 27  1  0
 29 23  1  0
 30 29  2  0
 31 29  1  0
M  END
$$$$
