TWK.pdb
     RDKit          3D

 31 32  0  0  1  0  0  0  0  0999 V2000
   28.9569  -20.8432  -16.5632 C   0  0  0  0  0  0  0  0  0  0  0  0
   28.1710  -21.2681  -15.3533 C   0  0  1  0  0  0  0  0  0  0  0  0
   29.0050  -21.6348  -14.3105 O   0  0  0  0  0  0  0  0  0  0  0  0
   27.1786  -20.1960  -14.9505 C   0  0  2  0  0  0  0  0  0  0  0  0
   27.8259  -18.9823  -14.5572 N   0  0  0  0  0  0  0  0  0  0  0  0
   26.3867  -20.7403  -13.7938 C   0  0  0  0  0  0  0  0  0  0  0  0
   25.7685  -21.7990  -13.9753 O   0  0  0  0  0  0  0  0  0  0  0  0
   26.3738  -20.0434  -12.5668 N   0  0  0  0  0  0  0  0  0  0  0  0
   25.6339  -20.4369  -11.3965 C   0  0  1  0  0  0  0  0  0  0  0  0
   26.0981  -19.6159  -10.2043 C   0  0  0  0  0  0  0  0  0  0  0  0
   27.1913  -20.3276   -9.5018 C   0  0  0  0  0  0  0  0  0  0  0  0
   28.0186  -21.3247   -9.9056 C   0  0  0  0  0  0  0  0  0  0  0  0
   28.8810  -21.6673   -8.9067 N   0  0  0  0  0  0  0  0  0  0  0  0
   28.5981  -20.8815   -7.8635 C   0  0  0  0  0  0  0  0  0  0  0  0
   29.1859  -20.8360   -6.6197 C   0  0  0  0  0  0  0  0  0  0  0  0
   28.7183  -19.9314   -5.7038 C   0  0  0  0  0  0  0  0  0  0  0  0
   27.6830  -19.0760   -6.0007 C   0  0  0  0  0  0  0  0  0  0  0  0
   27.0937  -19.1299   -7.2644 C   0  0  0  0  0  0  0  0  0  0  0  0
   27.5683  -20.0419   -8.1801 C   0  0  0  0  0  0  0  0  0  0  0  0
   24.1996  -20.3351  -11.6686 C   0  0  0  0  0  0  0  0  0  0  0  0
   23.6362  -19.2109  -11.9134 O   0  0  0  0  0  0  0  0  0  0  0  0
   23.3140  -21.4525  -11.6868 N   0  0  0  0  0  0  0  0  0  0  0  0
   21.9504  -21.3334  -12.2309 C   0  0  1  0  0  0  0  0  0  0  0  0
   21.5966  -22.5402  -13.0267 C   0  0  0  0  0  0  0  0  0  0  0  0
   20.1721  -22.5210  -13.4707 C   0  0  0  0  0  0  0  0  0  0  0  0
   19.8165  -23.7582  -14.2860 C   0  0  0  0  0  0  0  0  0  0  0  0
   18.3657  -23.6036  -14.7071 C   0  0  0  0  0  0  0  0  0  0  0  0
   17.9218  -24.6987  -15.5368 N   0  0  0  0  0  0  0  0  0  0  0  0
   21.0839  -21.1107  -11.0520 C   0  0  0  0  0  0  0  0  0  0  0  0
   21.4054  -21.5158   -9.8882 O   0  0  0  0  0  0  0  0  0  0  0  0
   19.8601  -20.4481  -11.1015 O   0  0  0  0  0  0  0  0  0  0  0  0
  2  1  1  6
  3  2  1  0
  4  5  1  1
  4  6  1  0
  4  2  1  0
  6  8  1  0
  7  6  2  0
  8  9  1  0
  9 10  1  1
 10 11  1  0
 11 19  1  0
 11 12  2  0
 12 13  1  0
 14 13  1  0
 14 15  2  0
 16 15  1  0
 17 16  2  0
 18 19  2  0
 18 17  1  0
 19 14  1  0
 20 21  2  0
 20  9  1  0
 22 20  1  0
 23 24  1  1
 23 22  1  0
 25 26  1  0
 25 24  1  0
 27 26  1  0
 28 27  1  0
 29 23  1  0
 30 29  2  0
 31 29  1  0
M  END
$$$$
