TWK.pdb
     RDKit          3D

 31 32  0  0  1  0  0  0  0  0999 V2000
   15.9688  -32.5123    1.8109 C   0  0  0  0  0  0  0  0  0  0  0  0
   17.2017  -32.9061    1.0449 C   0  0  1  0  0  0  0  0  0  0  0  0
   16.9690  -34.0112    0.2436 O   0  0  0  0  0  0  0  0  0  0  0  0
   17.7497  -31.7296    0.2626 C   0  0  2  0  0  0  0  0  0  0  0  0
   18.8451  -32.1041   -0.5780 N   0  0  0  0  0  0  0  0  0  0  0  0
   18.2126  -30.7098    1.2661 C   0  0  0  0  0  0  0  0  0  0  0  0
   19.2067  -30.9942    1.9493 O   0  0  0  0  0  0  0  0  0  0  0  0
   17.5155  -29.4896    1.3942 N   0  0  0  0  0  0  0  0  0  0  0  0
   17.9026  -28.3983    2.2492 C   0  0  1  0  0  0  0  0  0  0  0  0
   17.6273  -27.0802    1.5438 C   0  0  0  0  0  0  0  0  0  0  0  0
   18.7093  -26.7971    0.5720 C   0  0  0  0  0  0  0  0  0  0  0  0
   18.8265  -27.0824   -0.7496 C   0  0  0  0  0  0  0  0  0  0  0  0
   20.0134  -26.6210   -1.2370 N   0  0  0  0  0  0  0  0  0  0  0  0
   20.6516  -26.0392   -0.2172 C   0  0  0  0  0  0  0  0  0  0  0  0
   21.8816  -25.4219   -0.1949 C   0  0  0  0  0  0  0  0  0  0  0  0
   22.3297  -24.8904    0.9852 C   0  0  0  0  0  0  0  0  0  0  0  0
   21.5810  -24.9612    2.1368 C   0  0  0  0  0  0  0  0  0  0  0  0
   20.3354  -25.5892    2.1039 C   0  0  0  0  0  0  0  0  0  0  0  0
   19.8913  -26.1216    0.9145 C   0  0  0  0  0  0  0  0  0  0  0  0
   17.2351  -28.5324    3.5446 C   0  0  0  0  0  0  0  0  0  0  0  0
   16.1160  -29.1437    3.6681 O   0  0  0  0  0  0  0  0  0  0  0  0
   17.7555  -28.0073    4.7638 N   0  0  0  0  0  0  0  0  0  0  0  0
   17.2184  -28.4354    6.0668 C   0  0  1  0  0  0  0  0  0  0  0  0
   16.0019  -29.2727    5.8825 C   0  0  0  0  0  0  0  0  0  0  0  0
   15.5689  -29.9201    7.1553 C   0  0  0  0  0  0  0  0  0  0  0  0
   14.0579  -29.8517    7.3399 C   0  0  0  0  0  0  0  0  0  0  0  0
   13.7788  -30.1802    8.7960 C   0  0  0  0  0  0  0  0  0  0  0  0
   12.3652  -30.1848    9.0899 N   0  0  0  0  0  0  0  0  0  0  0  0
   18.3390  -29.1352    6.7337 C   0  0  0  0  0  0  0  0  0  0  0  0
   18.3484  -29.3590    7.9874 O   0  0  0  0  0  0  0  0  0  0  0  0
   19.4661  -29.6086    6.0669 O   0  0  0  0  0  0  0  0  0  0  0  0
  2  1  1  6
  3  2  1  0
  4  5  1  1
  4  6  1  0
  4  2  1  0
  6  8  1  0
  7  6  2  0
  8  9  1  0
  9 10  1  6
 10 11  1  0
 11 19  1  0
 11 12  2  0
 12 13  1  0
 14 13  1  0
 14 15  2  0
 16 15  1  0
 17 16  2  0
 18 19  2  0
 18 17  1  0
 19 14  1  0
 20 21  2  0
 20  9  1  0
 22 20  1  0
 23 24  1  6
 23 22  1  0
 25 26  1  0
 25 24  1  0
 27 26  1  0
 28 27  1  0
 29 23  1  0
 30 29  2  0
 31 29  1  0
M  END
$$$$
