TWK.pdb
     RDKit          3D

 31 32  0  0  1  0  0  0  0  0999 V2000
   29.0551  -18.2032  -15.0600 C   0  0  0  0  0  0  0  0  0  0  0  0
   28.0239  -19.0179  -14.3286 C   0  0  1  0  0  0  0  0  0  0  0  0
   26.7953  -18.9702  -14.9656 O   0  0  0  0  0  0  0  0  0  0  0  0
   28.5098  -20.4373  -14.1150 C   0  0  2  0  0  0  0  0  0  0  0  0
   28.6300  -21.1571  -15.3455 N   0  0  0  0  0  0  0  0  0  0  0  0
   27.5031  -21.1196  -13.2305 C   0  0  0  0  0  0  0  0  0  0  0  0
   26.6921  -21.8827  -13.7745 O   0  0  0  0  0  0  0  0  0  0  0  0
   27.5145  -20.8742  -11.8409 N   0  0  0  0  0  0  0  0  0  0  0  0
   26.5794  -21.4219  -10.8935 C   0  0  1  0  0  0  0  0  0  0  0  0
   27.3135  -21.7967   -9.6163 C   0  0  0  0  0  0  0  0  0  0  0  0
   27.1406  -20.7258   -8.6071 C   0  0  0  0  0  0  0  0  0  0  0  0
   26.2310  -19.7234   -8.5083 C   0  0  0  0  0  0  0  0  0  0  0  0
   26.4650  -18.9706   -7.3958 N   0  0  0  0  0  0  0  0  0  0  0  0
   27.5295  -19.5003   -6.7859 C   0  0  0  0  0  0  0  0  0  0  0  0
   28.1578  -19.1055   -5.6266 C   0  0  0  0  0  0  0  0  0  0  0  0
   29.2447  -19.8169   -5.1923 C   0  0  0  0  0  0  0  0  0  0  0  0
   29.7152  -20.9074   -5.8860 C   0  0  0  0  0  0  0  0  0  0  0  0
   29.0714  -21.2996   -7.0602 C   0  0  0  0  0  0  0  0  0  0  0  0
   27.9797  -20.5798   -7.4912 C   0  0  0  0  0  0  0  0  0  0  0  0
   25.4781  -20.4791  -10.6938 C   0  0  0  0  0  0  0  0  0  0  0  0
   25.6708  -19.2132  -10.6549 O   0  0  0  0  0  0  0  0  0  0  0  0
   24.1175  -20.8718  -10.5275 N   0  0  0  0  0  0  0  0  0  0  0  0
   23.0974  -20.5236  -11.5314 C   0  0  1  0  0  0  0  0  0  0  0  0
   23.4858  -21.0374  -12.8730 C   0  0  0  0  0  0  0  0  0  0  0  0
   22.4691  -20.7093  -13.9148 C   0  0  0  0  0  0  0  0  0  0  0  0
   22.8719  -21.2390  -15.2857 C   0  0  0  0  0  0  0  0  0  0  0  0
   21.7711  -20.8372  -16.2516 C   0  0  0  0  0  0  0  0  0  0  0  0
   22.0271  -21.3081  -17.5922 N   0  0  0  0  0  0  0  0  0  0  0  0
   21.8341  -21.0908  -11.0090 C   0  0  0  0  0  0  0  0  0  0  0  0
   21.6801  -22.3405  -10.8179 O   0  0  0  0  0  0  0  0  0  0  0  0
   20.7169  -20.3272  -10.6806 O   0  0  0  0  0  0  0  0  0  0  0  0
  2  1  1  6
  3  2  1  0
  4  5  1  6
  4  6  1  0
  4  2  1  0
  6  8  1  0
  7  6  2  0
  8  9  1  0
  9 10  1  1
 10 11  1  0
 11 19  1  0
 11 12  2  0
 12 13  1  0
 14 13  1  0
 14 15  2  0
 16 15  1  0
 17 16  2  0
 18 19  2  0
 18 17  1  0
 19 14  1  0
 20 21  2  0
 20  9  1  0
 22 20  1  0
 23 24  1  6
 23 22  1  0
 25 26  1  0
 25 24  1  0
 27 26  1  0
 28 27  1  0
 29 23  1  0
 30 29  2  0
 31 29  1  0
M  END
$$$$
