TWK.pdb
     RDKit          3D

 31 32  0  0  1  0  0  0  0  0999 V2000
   27.4967  -18.6054  -14.8283 C   0  0  0  0  0  0  0  0  0  0  0  0
   27.7141  -19.8092  -15.7034 C   0  0  1  0  0  0  0  0  0  0  0  0
   28.4216  -19.4823  -16.8481 O   0  0  0  0  0  0  0  0  0  0  0  0
   28.3647  -20.9333  -14.9228 C   0  0  2  0  0  0  0  0  0  0  0  0
   28.5228  -22.1165  -15.7114 N   0  0  0  0  0  0  0  0  0  0  0  0
   27.4731  -21.2282  -13.7482 C   0  0  0  0  0  0  0  0  0  0  0  0
   26.4042  -21.8120  -13.9775 O   0  0  0  0  0  0  0  0  0  0  0  0
   27.8737  -20.8392  -12.4523 N   0  0  0  0  0  0  0  0  0  0  0  0
   27.1119  -21.0506  -11.2495 C   0  0  1  0  0  0  0  0  0  0  0  0
   27.9475  -20.6513  -10.0441 C   0  0  0  0  0  0  0  0  0  0  0  0
   27.0928  -20.6086   -8.8347 C   0  0  0  0  0  0  0  0  0  0  0  0
   25.8040  -20.9826   -8.6322 C   0  0  0  0  0  0  0  0  0  0  0  0
   25.4357  -20.7560   -7.3391 N   0  0  0  0  0  0  0  0  0  0  0  0
   26.4986  -20.2355   -6.7186 C   0  0  0  0  0  0  0  0  0  0  0  0
   26.6365  -19.8378   -5.4081 C   0  0  0  0  0  0  0  0  0  0  0  0
   27.8405  -19.3293   -4.9982 C   0  0  0  0  0  0  0  0  0  0  0  0
   28.9034  -19.2101   -5.8628 C   0  0  0  0  0  0  0  0  0  0  0  0
   28.7535  -19.6159   -7.1894 C   0  0  0  0  0  0  0  0  0  0  0  0
   27.5405  -20.1258   -7.5948 C   0  0  0  0  0  0  0  0  0  0  0  0
   25.8344  -20.3439  -11.3502 C   0  0  0  0  0  0  0  0  0  0  0  0
   25.7718  -19.0656  -11.4083 O   0  0  0  0  0  0  0  0  0  0  0  0
   24.5674  -20.9967  -11.3924 N   0  0  0  0  0  0  0  0  0  0  0  0
   23.3396  -20.2534  -11.7237 C   0  0  1  0  0  0  0  0  0  0  0  0
   23.1092  -20.2510  -13.1940 C   0  0  0  0  0  0  0  0  0  0  0  0
   21.8677  -19.5112  -13.5656 C   0  0  0  0  0  0  0  0  0  0  0  0
   21.6168  -19.5450  -15.0683 C   0  0  0  0  0  0  0  0  0  0  0  0
   21.4644  -18.1032  -15.5198 C   0  0  0  0  0  0  0  0  0  0  0  0
   21.2513  -18.0003  -16.9441 N   0  0  0  0  0  0  0  0  0  0  0  0
   22.2683  -20.9134  -10.9446 C   0  0  0  0  0  0  0  0  0  0  0  0
   21.8590  -22.0886  -11.2154 O   0  0  0  0  0  0  0  0  0  0  0  0
   21.6205  -20.3252   -9.8613 O   0  0  0  0  0  0  0  0  0  0  0  0
  2  1  1  1
  3  2  1  0
  4  5  1  6
  4  6  1  0
  4  2  1  0
  6  8  1  0
  7  6  2  0
  8  9  1  0
  9 10  1  1
 10 11  1  0
 11 19  1  0
 11 12  2  0
 12 13  1  0
 14 13  1  0
 14 15  2  0
 16 15  1  0
 17 16  2  0
 18 19  2  0
 18 17  1  0
 19 14  1  0
 20 21  2  0
 20  9  1  0
 22 20  1  0
 23 24  1  6
 23 22  1  0
 25 26  1  0
 25 24  1  0
 27 26  1  0
 28 27  1  0
 29 23  1  0
 30 29  2  0
 31 29  1  0
M  END
$$$$
