TWK.pdb
     RDKit          3D

 31 32  0  0  1  0  0  0  0  0999 V2000
   26.5142  -20.4370  -16.3578 C   0  0  0  0  0  0  0  0  0  0  0  0
   27.6541  -21.4159  -16.2917 C   0  0  1  0  0  0  0  0  0  0  0  0
   28.5223  -21.2554  -17.3585 O   0  0  0  0  0  0  0  0  0  0  0  0
   28.3605  -21.3320  -14.9536 C   0  0  2  0  0  0  0  0  0  0  0  0
   29.4722  -22.2289  -14.8736 N   0  0  0  0  0  0  0  0  0  0  0  0
   27.3503  -21.6892  -13.8985 C   0  0  0  0  0  0  0  0  0  0  0  0
   26.7603  -22.7725  -14.0188 O   0  0  0  0  0  0  0  0  0  0  0  0
   27.1124  -20.7991  -12.8296 N   0  0  0  0  0  0  0  0  0  0  0  0
   26.0863  -20.9551  -11.8322 C   0  0  1  0  0  0  0  0  0  0  0  0
   26.3979  -20.0630  -10.6415 C   0  0  0  0  0  0  0  0  0  0  0  0
   27.5849  -20.5831   -9.9236 C   0  0  0  0  0  0  0  0  0  0  0  0
   28.5997  -21.3870  -10.3307 C   0  0  0  0  0  0  0  0  0  0  0  0
   29.4806  -21.6015   -9.3123 N   0  0  0  0  0  0  0  0  0  0  0  0
   29.0206  -20.9286   -8.2534 C   0  0  0  0  0  0  0  0  0  0  0  0
   29.5503  -20.8250   -6.9872 C   0  0  0  0  0  0  0  0  0  0  0  0
   28.8904  -20.0652   -6.0581 C   0  0  0  0  0  0  0  0  0  0  0  0
   27.7202  -19.4103   -6.3638 C   0  0  0  0  0  0  0  0  0  0  0  0
   27.1912  -19.5216   -7.6502 C   0  0  0  0  0  0  0  0  0  0  0  0
   27.8595  -20.2873   -8.5790 C   0  0  0  0  0  0  0  0  0  0  0  0
   24.7766  -20.7077  -12.4364 C   0  0  0  0  0  0  0  0  0  0  0  0
   24.5165  -19.6222  -13.0652 O   0  0  0  0  0  0  0  0  0  0  0  0
   23.6910  -21.6307  -12.3834 N   0  0  0  0  0  0  0  0  0  0  0  0
   22.4001  -21.3239  -13.0230 C   0  0  1  0  0  0  0  0  0  0  0  0
   21.8749  -22.5166  -13.7416 C   0  0  0  0  0  0  0  0  0  0  0  0
   22.9495  -23.2472  -14.4752 C   0  0  0  0  0  0  0  0  0  0  0  0
   22.4122  -24.4875  -15.1787 C   0  0  0  0  0  0  0  0  0  0  0  0
   23.5784  -25.1050  -15.9302 C   0  0  0  0  0  0  0  0  0  0  0  0
   23.1830  -26.2737  -16.6801 N   0  0  0  0  0  0  0  0  0  0  0  0
   21.5301  -20.8477  -11.9245 C   0  0  0  0  0  0  0  0  0  0  0  0
   21.8008  -21.0705  -10.7002 O   0  0  0  0  0  0  0  0  0  0  0  0
   20.3573  -20.1230  -12.1209 O   0  0  0  0  0  0  0  0  0  0  0  0
  2  1  1  1
  3  2  1  0
  4  5  1  6
  4  6  1  0
  4  2  1  0
  6  8  1  0
  7  6  2  0
  8  9  1  0
  9 10  1  1
 10 11  1  0
 11 19  1  0
 11 12  2  0
 12 13  1  0
 14 13  1  0
 14 15  2  0
 16 15  1  0
 17 16  2  0
 18 19  2  0
 18 17  1  0
 19 14  1  0
 20 21  2  0
 20  9  1  0
 22 20  1  0
 23 24  1  1
 23 22  1  0
 25 26  1  0
 25 24  1  0
 27 26  1  0
 28 27  1  0
 29 23  1  0
 30 29  2  0
 31 29  1  0
M  END
$$$$
