TWK.pdb
     RDKit          3D

 31 32  0  0  1  0  0  0  0  0999 V2000
   29.5329  -22.7607  -17.3003 C   0  0  0  0  0  0  0  0  0  0  0  0
   28.7517  -22.7255  -16.0156 C   0  0  1  0  0  0  0  0  0  0  0  0
   29.4975  -22.1805  -14.9839 O   0  0  0  0  0  0  0  0  0  0  0  0
   27.4269  -22.0158  -16.2089 C   0  0  2  0  0  0  0  0  0  0  0  0
   27.5981  -20.6337  -16.5363 N   0  0  0  0  0  0  0  0  0  0  0  0
   26.6698  -22.1351  -14.9150 C   0  0  0  0  0  0  0  0  0  0  0  0
   26.1675  -23.2364  -14.6491 O   0  0  0  0  0  0  0  0  0  0  0  0
   26.5586  -21.0142  -14.0650 N   0  0  0  0  0  0  0  0  0  0  0  0
   25.8285  -20.9821  -12.8249 C   0  0  1  0  0  0  0  0  0  0  0  0
   26.3631  -19.8586  -11.9516 C   0  0  0  0  0  0  0  0  0  0  0  0
   27.4526  -20.3711  -11.0882 C   0  0  0  0  0  0  0  0  0  0  0  0
   28.6199  -20.9941  -11.3901 C   0  0  0  0  0  0  0  0  0  0  0  0
   29.3161  -21.2859  -10.2546 N   0  0  0  0  0  0  0  0  0  0  0  0
   28.5849  -20.8443   -9.2270 C   0  0  0  0  0  0  0  0  0  0  0  0
   28.8521  -20.8989   -7.8779 C   0  0  0  0  0  0  0  0  0  0  0  0
   27.9391  -20.3703   -7.0044 C   0  0  0  0  0  0  0  0  0  0  0  0
   26.7721  -19.7917   -7.4458 C   0  0  0  0  0  0  0  0  0  0  0  0
   26.5103  -19.7412   -8.8154 C   0  0  0  0  0  0  0  0  0  0  0  0
   27.4321  -20.2748   -9.6878 C   0  0  0  0  0  0  0  0  0  0  0  0
   24.3950  -20.8897  -13.1046 C   0  0  0  0  0  0  0  0  0  0  0  0
   23.9352  -20.1411  -14.0371 O   0  0  0  0  0  0  0  0  0  0  0  0
   23.3975  -21.6079  -12.3820 N   0  0  0  0  0  0  0  0  0  0  0  0
   21.9645  -21.3983  -12.6512 C   0  0  1  0  0  0  0  0  0  0  0  0
   21.1600  -22.5307  -12.1171 C   0  0  0  0  0  0  0  0  0  0  0  0
   19.7079  -22.3816  -12.4265 C   0  0  0  0  0  0  0  0  0  0  0  0
   18.9075  -23.6023  -11.9892 C   0  0  0  0  0  0  0  0  0  0  0  0
   17.4665  -23.3508  -12.3968 C   0  0  0  0  0  0  0  0  0  0  0  0
   16.6265  -24.5006  -12.1584 N   0  0  0  0  0  0  0  0  0  0  0  0
   21.6458  -20.0886  -12.0401 C   0  0  0  0  0  0  0  0  0  0  0  0
   22.1286  -19.7287  -10.9180 O   0  0  0  0  0  0  0  0  0  0  0  0
   20.8065  -19.1429  -12.6235 O   0  0  0  0  0  0  0  0  0  0  0  0
  2  1  1  6
  3  2  1  0
  4  5  1  1
  4  6  1  0
  4  2  1  0
  6  8  1  0
  7  6  2  0
  8  9  1  0
  9 10  1  1
 10 11  1  0
 11 19  1  0
 11 12  2  0
 12 13  1  0
 14 13  1  0
 14 15  2  0
 16 15  1  0
 17 16  2  0
 18 19  2  0
 18 17  1  0
 19 14  1  0
 20 21  2  0
 20  9  1  0
 22 20  1  0
 23 24  1  1
 23 22  1  0
 25 26  1  0
 25 24  1  0
 27 26  1  0
 28 27  1  0
 29 23  1  0
 30 29  2  0
 31 29  1  0
M  END
$$$$
