TWK.pdb
     RDKit          3D

 31 32  0  0  1  0  0  0  0  0999 V2000
   28.7496  -17.9162  -14.9180 C   0  0  0  0  0  0  0  0  0  0  0  0
   27.6852  -18.7640  -14.2774 C   0  0  1  0  0  0  0  0  0  0  0  0
   26.6351  -19.0023  -15.1481 O   0  0  0  0  0  0  0  0  0  0  0  0
   28.2766  -20.0434  -13.7209 C   0  0  2  0  0  0  0  0  0  0  0  0
   28.6797  -20.9458  -14.7552 N   0  0  0  0  0  0  0  0  0  0  0  0
   27.2133  -20.6900  -12.8766 C   0  0  0  0  0  0  0  0  0  0  0  0
   26.6832  -21.7192  -13.3189 O   0  0  0  0  0  0  0  0  0  0  0  0
   26.8618  -20.1165  -11.6361 N   0  0  0  0  0  0  0  0  0  0  0  0
   25.8355  -20.6088  -10.7551 C   0  0  1  0  0  0  0  0  0  0  0  0
   26.0326  -20.0182   -9.3683 C   0  0  0  0  0  0  0  0  0  0  0  0
   27.3417  -20.4471   -8.8231 C   0  0  0  0  0  0  0  0  0  0  0  0
   28.2743  -21.3097   -9.3008 C   0  0  0  0  0  0  0  0  0  0  0  0
   29.3346  -21.3915   -8.4475 N   0  0  0  0  0  0  0  0  0  0  0  0
   29.0717  -20.5749   -7.4228 C   0  0  0  0  0  0  0  0  0  0  0  0
   29.8287  -20.3040   -6.3057 C   0  0  0  0  0  0  0  0  0  0  0  0
   29.3437  -19.4172   -5.3814 C   0  0  0  0  0  0  0  0  0  0  0  0
   28.1266  -18.7984   -5.5473 C   0  0  0  0  0  0  0  0  0  0  0  0
   27.3666  -19.0797   -6.6831 C   0  0  0  0  0  0  0  0  0  0  0  0
   27.8600  -19.9724   -7.6079 C   0  0  0  0  0  0  0  0  0  0  0  0
   24.5207  -20.3377  -11.3376 C   0  0  0  0  0  0  0  0  0  0  0  0
   24.1863  -19.1668  -11.7359 O   0  0  0  0  0  0  0  0  0  0  0  0
   23.5106  -21.3287  -11.5128 N   0  0  0  0  0  0  0  0  0  0  0  0
   22.2485  -21.0142  -12.2042 C   0  0  1  0  0  0  0  0  0  0  0  0
   21.9417  -22.0477  -13.2303 C   0  0  0  0  0  0  0  0  0  0  0  0
   20.6004  -21.8407  -13.8506 C   0  0  0  0  0  0  0  0  0  0  0  0
   20.2639  -22.9393  -14.8515 C   0  0  0  0  0  0  0  0  0  0  0  0
   18.9133  -22.5881  -15.4503 C   0  0  0  0  0  0  0  0  0  0  0  0
   18.4310  -23.6165  -16.3416 N   0  0  0  0  0  0  0  0  0  0  0  0
   21.2366  -20.9099  -11.1293 C   0  0  0  0  0  0  0  0  0  0  0  0
   21.2688  -21.6507  -10.0939 O   0  0  0  0  0  0  0  0  0  0  0  0
   20.1757  -20.0081  -11.1460 O   0  0  0  0  0  0  0  0  0  0  0  0
  2  1  1  6
  3  2  1  0
  4  5  1  6
  4  6  1  0
  4  2  1  0
  6  8  1  0
  7  6  2  0
  8  9  1  0
  9 10  1  1
 10 11  1  0
 11 19  1  0
 11 12  2  0
 12 13  1  0
 14 13  1  0
 14 15  2  0
 16 15  1  0
 17 16  2  0
 18 19  2  0
 18 17  1  0
 19 14  1  0
 20 21  2  0
 20  9  1  0
 22 20  1  0
 23 24  1  6
 23 22  1  0
 25 26  1  0
 25 24  1  0
 27 26  1  0
 28 27  1  0
 29 23  1  0
 30 29  2  0
 31 29  1  0
M  END
$$$$
