TWK.pdb
     RDKit          3D

 31 32  0  0  1  0  0  0  0  0999 V2000
   28.8075  -19.4808  -16.2819 C   0  0  0  0  0  0  0  0  0  0  0  0
   27.8666  -19.8871  -15.1812 C   0  0  1  0  0  0  0  0  0  0  0  0
   26.5476  -19.8445  -15.6007 O   0  0  0  0  0  0  0  0  0  0  0  0
   28.2500  -21.2396  -14.6153 C   0  0  2  0  0  0  0  0  0  0  0  0
   28.0055  -22.3012  -15.5426 N   0  0  0  0  0  0  0  0  0  0  0  0
   27.4203  -21.4517  -13.3791 C   0  0  0  0  0  0  0  0  0  0  0  0
   26.3434  -22.0503  -13.5123 O   0  0  0  0  0  0  0  0  0  0  0  0
   27.8848  -20.9728  -12.1356 N   0  0  0  0  0  0  0  0  0  0  0  0
   27.1542  -21.0344  -10.8970 C   0  0  1  0  0  0  0  0  0  0  0  0
   28.0435  -20.5573   -9.7603 C   0  0  0  0  0  0  0  0  0  0  0  0
   27.2506  -20.4575   -8.5127 C   0  0  0  0  0  0  0  0  0  0  0  0
   25.9337  -20.6735   -8.2660 C   0  0  0  0  0  0  0  0  0  0  0  0
   25.6498  -20.4565   -6.9501 N   0  0  0  0  0  0  0  0  0  0  0  0
   26.7948  -20.1013   -6.3597 C   0  0  0  0  0  0  0  0  0  0  0  0
   27.0352  -19.7795   -5.0432 C   0  0  0  0  0  0  0  0  0  0  0  0
   28.3099  -19.4453   -4.6698 C   0  0  0  0  0  0  0  0  0  0  0  0
   29.3437  -19.4254   -5.5767 C   0  0  0  0  0  0  0  0  0  0  0  0
   29.0898  -19.7531   -6.9091 C   0  0  0  0  0  0  0  0  0  0  0  0
   27.8061  -20.0877   -7.2776 C   0  0  0  0  0  0  0  0  0  0  0  0
   25.9036  -20.2862  -11.0303 C   0  0  0  0  0  0  0  0  0  0  0  0
   25.8863  -19.0079  -11.1134 O   0  0  0  0  0  0  0  0  0  0  0  0
   24.6154  -20.8956  -11.0791 N   0  0  0  0  0  0  0  0  0  0  0  0
   23.4377  -20.1478  -11.5519 C   0  0  1  0  0  0  0  0  0  0  0  0
   23.3512  -20.1912  -13.0370 C   0  0  0  0  0  0  0  0  0  0  0  0
   22.6267  -19.0100  -13.5909 C   0  0  0  0  0  0  0  0  0  0  0  0
   22.5286  -19.0676  -15.1105 C   0  0  0  0  0  0  0  0  0  0  0  0
   21.7806  -17.8209  -15.5490 C   0  0  0  0  0  0  0  0  0  0  0  0
   21.5569  -17.7959  -16.9752 N   0  0  0  0  0  0  0  0  0  0  0  0
   22.2853  -20.7677  -10.8604 C   0  0  0  0  0  0  0  0  0  0  0  0
   21.3734  -20.0726  -10.3063 O   0  0  0  0  0  0  0  0  0  0  0  0
   22.0909  -22.1425  -10.7543 O   0  0  0  0  0  0  0  0  0  0  0  0
  2  1  1  6
  3  2  1  0
  4  5  1  6
  4  6  1  0
  4  2  1  0
  6  8  1  0
  7  6  2  0
  8  9  1  0
  9 10  1  1
 10 11  1  0
 11 19  1  0
 11 12  2  0
 12 13  1  0
 14 13  1  0
 14 15  2  0
 16 15  1  0
 17 16  2  0
 18 19  2  0
 18 17  1  0
 19 14  1  0
 20 21  2  0
 20  9  1  0
 22 20  1  0
 23 24  1  6
 23 22  1  0
 25 26  1  0
 25 24  1  0
 27 26  1  0
 28 27  1  0
 29 23  1  0
 30 29  2  0
 31 29  1  0
M  END
$$$$
