TWK.pdb
     RDKit          3D

 31 32  0  0  1  0  0  0  0  0999 V2000
   27.6913  -19.3211  -17.5550 C   0  0  0  0  0  0  0  0  0  0  0  0
   27.0222  -20.0143  -16.4002 C   0  0  1  0  0  0  0  0  0  0  0  0
   26.0468  -20.8960  -16.8347 O   0  0  0  0  0  0  0  0  0  0  0  0
   28.0464  -20.6809  -15.5041 C   0  0  2  0  0  0  0  0  0  0  0  0
   28.7036  -21.7723  -16.1550 N   0  0  0  0  0  0  0  0  0  0  0  0
   27.3108  -21.1873  -14.2942 C   0  0  0  0  0  0  0  0  0  0  0  0
   26.9775  -22.3809  -14.2890 O   0  0  0  0  0  0  0  0  0  0  0  0
   27.0304  -20.3064  -13.2280 N   0  0  0  0  0  0  0  0  0  0  0  0
   26.3647  -20.6694  -12.0045 C   0  0  1  0  0  0  0  0  0  0  0  0
   26.7892  -19.7198  -10.8961 C   0  0  0  0  0  0  0  0  0  0  0  0
   27.7431  -20.4020   -9.9906 C   0  0  0  0  0  0  0  0  0  0  0  0
   28.6901  -21.3444  -10.2290 C   0  0  0  0  0  0  0  0  0  0  0  0
   29.3355  -21.6792   -9.0755 N   0  0  0  0  0  0  0  0  0  0  0  0
   28.7937  -20.9434   -8.1004 C   0  0  0  0  0  0  0  0  0  0  0  0
   29.0979  -20.9122   -6.7583 C   0  0  0  0  0  0  0  0  0  0  0  0
   28.3970  -20.0623   -5.9445 C   0  0  0  0  0  0  0  0  0  0  0  0
   27.4049  -19.2477   -6.4383 C   0  0  0  0  0  0  0  0  0  0  0  0
   27.1039  -19.2867   -7.8002 C   0  0  0  0  0  0  0  0  0  0  0  0
   27.8121  -20.1436   -8.6125 C   0  0  0  0  0  0  0  0  0  0  0  0
   24.9195  -20.7150  -12.2300 C   0  0  0  0  0  0  0  0  0  0  0  0
   24.2907  -19.7448  -12.7820 O   0  0  0  0  0  0  0  0  0  0  0  0
   24.0936  -21.8185  -11.8649 N   0  0  0  0  0  0  0  0  0  0  0  0
   22.6748  -21.8691  -12.2574 C   0  0  1  0  0  0  0  0  0  0  0  0
   22.2714  -23.2637  -12.5850 C   0  0  0  0  0  0  0  0  0  0  0  0
   21.4947  -23.3383  -13.8569 C   0  0  0  0  0  0  0  0  0  0  0  0
   21.0369  -24.7602  -14.1582 C   0  0  0  0  0  0  0  0  0  0  0  0
   20.9536  -24.8829  -15.6695 C   0  0  0  0  0  0  0  0  0  0  0  0
   20.5705  -26.2114  -16.0857 N   0  0  0  0  0  0  0  0  0  0  0  0
   21.9389  -21.2785  -11.1172 C   0  0  0  0  0  0  0  0  0  0  0  0
   22.4813  -21.1023   -9.9785 O   0  0  0  0  0  0  0  0  0  0  0  0
   20.6106  -20.8651  -11.1803 O   0  0  0  0  0  0  0  0  0  0  0  0
  2  1  1  6
  3  2  1  0
  4  5  1  6
  4  6  1  0
  4  2  1  0
  6  8  1  0
  7  6  2  0
  8  9  1  0
  9 10  1  1
 10 11  1  0
 11 19  1  0
 11 12  2  0
 12 13  1  0
 14 13  1  0
 14 15  2  0
 16 15  1  0
 17 16  2  0
 18 19  2  0
 18 17  1  0
 19 14  1  0
 20 21  2  0
 20  9  1  0
 22 20  1  0
 23 24  1  1
 23 22  1  0
 25 26  1  0
 25 24  1  0
 27 26  1  0
 28 27  1  0
 29 23  1  0
 30 29  2  0
 31 29  1  0
M  END
$$$$
