TWK.pdb
     RDKit          3D

 31 32  0  0  1  0  0  0  0  0999 V2000
   28.9513  -21.3291  -18.4761 C   0  0  0  0  0  0  0  0  0  0  0  0
   27.9292  -21.5485  -17.3949 C   0  0  1  0  0  0  0  0  0  0  0  0
   26.7084  -21.9345  -17.9225 O   0  0  0  0  0  0  0  0  0  0  0  0
   28.4441  -22.5234  -16.3553 C   0  0  2  0  0  0  0  0  0  0  0  0
   28.5707  -23.8500  -16.8759 N   0  0  0  0  0  0  0  0  0  0  0  0
   27.4566  -22.5212  -15.2212 C   0  0  0  0  0  0  0  0  0  0  0  0
   26.6218  -23.4368  -15.1918 O   0  0  0  0  0  0  0  0  0  0  0  0
   27.5114  -21.4996  -14.2493 N   0  0  0  0  0  0  0  0  0  0  0  0
   26.7399  -21.4672  -13.0347 C   0  0  1  0  0  0  0  0  0  0  0  0
   27.4005  -20.5264  -12.0401 C   0  0  0  0  0  0  0  0  0  0  0  0
   26.6464  -20.5363  -10.7649 C   0  0  0  0  0  0  0  0  0  0  0  0
   25.3216  -20.3997  -10.5041 C   0  0  0  0  0  0  0  0  0  0  0  0
   25.0857  -20.4766   -9.1633 N   0  0  0  0  0  0  0  0  0  0  0  0
   26.2691  -20.6636   -8.5714 C   0  0  0  0  0  0  0  0  0  0  0  0
   26.5640  -20.8050   -7.2344 C   0  0  0  0  0  0  0  0  0  0  0  0
   27.8696  -20.9912   -6.8648 C   0  0  0  0  0  0  0  0  0  0  0  0
   28.8812  -21.0392   -7.7954 C   0  0  0  0  0  0  0  0  0  0  0  0
   28.5721  -20.8947   -9.1483 C   0  0  0  0  0  0  0  0  0  0  0  0
   27.2577  -20.7075   -9.5128 C   0  0  0  0  0  0  0  0  0  0  0  0
   25.3516  -21.1257  -13.3471 C   0  0  0  0  0  0  0  0  0  0  0  0
   25.0493  -20.0896  -14.0374 O   0  0  0  0  0  0  0  0  0  0  0  0
   24.2298  -21.8966  -12.9225 N   0  0  0  0  0  0  0  0  0  0  0  0
   22.8959  -21.6864  -13.5110 C   0  0  1  0  0  0  0  0  0  0  0  0
   22.2855  -22.9858  -13.9030 C   0  0  0  0  0  0  0  0  0  0  0  0
   22.6360  -23.3705  -15.3016 C   0  0  0  0  0  0  0  0  0  0  0  0
   22.1040  -24.7530  -15.6587 C   0  0  0  0  0  0  0  0  0  0  0  0
   22.5846  -25.0574  -17.0667 C   0  0  0  0  0  0  0  0  0  0  0  0
   22.1457  -26.3556  -17.5212 N   0  0  0  0  0  0  0  0  0  0  0  0
   22.1333  -20.9461  -12.4811 C   0  0  0  0  0  0  0  0  0  0  0  0
   22.4327  -21.0029  -11.2445 O   0  0  0  0  0  0  0  0  0  0  0  0
   21.0393  -20.1311  -12.7606 O   0  0  0  0  0  0  0  0  0  0  0  0
  2  1  1  6
  3  2  1  0
  4  5  1  6
  4  6  1  0
  4  2  1  0
  6  8  1  0
  7  6  2  0
  8  9  1  0
  9 10  1  1
 10 11  1  0
 11 19  1  0
 11 12  2  0
 12 13  1  0
 14 13  1  0
 14 15  2  0
 16 15  1  0
 17 16  2  0
 18 19  2  0
 18 17  1  0
 19 14  1  0
 20 21  2  0
 20  9  1  0
 22 20  1  0
 23 24  1  1
 23 22  1  0
 25 26  1  0
 25 24  1  0
 27 26  1  0
 28 27  1  0
 29 23  1  0
 30 29  2  0
 31 29  1  0
M  END
$$$$
