TWK.pdb
     RDKit          3D

 31 32  0  0  1  0  0  0  0  0999 V2000
   28.5651  -18.1362  -15.4956 C   0  0  0  0  0  0  0  0  0  0  0  0
   27.5919  -19.0082  -14.7509 C   0  0  1  0  0  0  0  0  0  0  0  0
   26.5594  -19.4305  -15.5714 O   0  0  0  0  0  0  0  0  0  0  0  0
   28.3067  -20.1637  -14.0799 C   0  0  2  0  0  0  0  0  0  0  0  0
   28.8312  -21.0974  -15.0284 N   0  0  0  0  0  0  0  0  0  0  0  0
   27.3008  -20.8533  -13.2001 C   0  0  0  0  0  0  0  0  0  0  0  0
   26.8764  -21.9553  -13.5762 O   0  0  0  0  0  0  0  0  0  0  0  0
   26.8824  -20.2369  -12.0016 N   0  0  0  0  0  0  0  0  0  0  0  0
   25.9177  -20.7801  -11.0817 C   0  0  1  0  0  0  0  0  0  0  0  0
   26.1293  -20.1683   -9.7063 C   0  0  0  0  0  0  0  0  0  0  0  0
   27.3479  -20.7395   -9.0867 C   0  0  0  0  0  0  0  0  0  0  0  0
   28.2588  -21.6311   -9.5528 C   0  0  0  0  0  0  0  0  0  0  0  0
   29.2254  -21.8625   -8.6195 N   0  0  0  0  0  0  0  0  0  0  0  0
   28.9247  -21.1120   -7.5554 C   0  0  0  0  0  0  0  0  0  0  0  0
   29.5901  -20.9903   -6.3566 C   0  0  0  0  0  0  0  0  0  0  0  0
   29.0832  -20.1448   -5.4058 C   0  0  0  0  0  0  0  0  0  0  0  0
   27.9335  -19.4222   -5.6244 C   0  0  0  0  0  0  0  0  0  0  0  0
   27.2663  -19.5525   -6.8429 C   0  0  0  0  0  0  0  0  0  0  0  0
   27.7811  -20.4045   -7.7941 C   0  0  0  0  0  0  0  0  0  0  0  0
   24.5698  -20.5889  -11.6185 C   0  0  0  0  0  0  0  0  0  0  0  0
   24.1711  -19.4525  -12.0554 O   0  0  0  0  0  0  0  0  0  0  0  0
   23.5951  -21.6262  -11.7041 N   0  0  0  0  0  0  0  0  0  0  0  0
   22.3030  -21.4021  -12.3749 C   0  0  1  0  0  0  0  0  0  0  0  0
   21.7763  -22.6758  -12.9362 C   0  0  0  0  0  0  0  0  0  0  0  0
   20.4557  -22.4896  -13.6056 C   0  0  0  0  0  0  0  0  0  0  0  0
   19.9397  -23.7892  -14.2112 C   0  0  0  0  0  0  0  0  0  0  0  0
   18.6243  -23.4619  -14.8958 C   0  0  0  0  0  0  0  0  0  0  0  0
   18.0558  -24.6125  -15.5571 N   0  0  0  0  0  0  0  0  0  0  0  0
   21.4351  -20.7909  -11.3436 C   0  0  0  0  0  0  0  0  0  0  0  0
   20.3236  -20.2403  -11.6325 O   0  0  0  0  0  0  0  0  0  0  0  0
   21.7436  -20.7625   -9.9860 O   0  0  0  0  0  0  0  0  0  0  0  0
  2  1  1  6
  3  2  1  0
  4  5  1  6
  4  6  1  0
  4  2  1  0
  6  8  1  0
  7  6  2  0
  8  9  1  0
  9 10  1  1
 10 11  1  0
 11 19  1  0
 11 12  2  0
 12 13  1  0
 14 13  1  0
 14 15  2  0
 16 15  1  0
 17 16  2  0
 18 19  2  0
 18 17  1  0
 19 14  1  0
 20 21  2  0
 20  9  1  0
 22 20  1  0
 23 24  1  1
 23 22  1  0
 25 26  1  0
 25 24  1  0
 27 26  1  0
 28 27  1  0
 29 23  1  0
 30 29  2  0
 31 29  1  0
M  END
$$$$
