TWK.pdb
     RDKit          3D

 31 32  0  0  1  0  0  0  0  0999 V2000
   28.2720  -19.0063  -15.6391 C   0  0  0  0  0  0  0  0  0  0  0  0
   27.3587  -19.5263  -14.5633 C   0  0  1  0  0  0  0  0  0  0  0  0
   26.0271  -19.3634  -14.9067 O   0  0  0  0  0  0  0  0  0  0  0  0
   27.6951  -20.9629  -14.2178 C   0  0  2  0  0  0  0  0  0  0  0  0
   27.2944  -21.8731  -15.2463 N   0  0  0  0  0  0  0  0  0  0  0  0
   26.9666  -21.2924  -12.9441 C   0  0  0  0  0  0  0  0  0  0  0  0
   25.8812  -21.8819  -13.0454 O   0  0  0  0  0  0  0  0  0  0  0  0
   27.5302  -20.9277  -11.7029 N   0  0  0  0  0  0  0  0  0  0  0  0
   26.8465  -20.9682  -10.4369 C   0  0  1  0  0  0  0  0  0  0  0  0
   27.7727  -20.4582   -9.3447 C   0  0  0  0  0  0  0  0  0  0  0  0
   27.0824  -20.5176   -8.0351 C   0  0  0  0  0  0  0  0  0  0  0  0
   25.8554  -20.9812   -7.6870 C   0  0  0  0  0  0  0  0  0  0  0  0
   25.6466  -20.8292   -6.3482 N   0  0  0  0  0  0  0  0  0  0  0  0
   26.7491  -20.2660   -5.8452 C   0  0  0  0  0  0  0  0  0  0  0  0
   27.0337  -19.9115   -4.5460 C   0  0  0  0  0  0  0  0  0  0  0  0
   28.2489  -19.3431   -4.2703 C   0  0  0  0  0  0  0  0  0  0  0  0
   29.1809  -19.1223   -5.2574 C   0  0  0  0  0  0  0  0  0  0  0  0
   28.8829  -19.4850   -6.5714 C   0  0  0  0  0  0  0  0  0  0  0  0
   27.6594  -20.0556   -6.8416 C   0  0  0  0  0  0  0  0  0  0  0  0
   25.5847  -20.2342  -10.5397 C   0  0  0  0  0  0  0  0  0  0  0  0
   25.5526  -18.9733  -10.7645 O   0  0  0  0  0  0  0  0  0  0  0  0
   24.3010  -20.8394  -10.4027 N   0  0  0  0  0  0  0  0  0  0  0  0
   23.0960  -20.2014  -10.9600 C   0  0  1  0  0  0  0  0  0  0  0  0
   23.2151  -20.0566  -12.4364 C   0  0  0  0  0  0  0  0  0  0  0  0
   21.9975  -19.4393  -13.0390 C   0  0  0  0  0  0  0  0  0  0  0  0
   22.1079  -19.3332  -14.5551 C   0  0  0  0  0  0  0  0  0  0  0  0
   20.8741  -18.5880  -15.0334 C   0  0  0  0  0  0  0  0  0  0  0  0
   20.8952  -18.3626  -16.4593 N   0  0  0  0  0  0  0  0  0  0  0  0
   21.9706  -21.0586  -10.5251 C   0  0  0  0  0  0  0  0  0  0  0  0
   20.8458  -20.5748  -10.1752 O   0  0  0  0  0  0  0  0  0  0  0  0
   22.0325  -22.4483  -10.4608 O   0  0  0  0  0  0  0  0  0  0  0  0
  2  1  1  6
  3  2  1  0
  4  5  1  6
  4  6  1  0
  4  2  1  0
  6  8  1  0
  7  6  2  0
  8  9  1  0
  9 10  1  1
 10 11  1  0
 11 19  1  0
 11 12  2  0
 12 13  1  0
 14 13  1  0
 14 15  2  0
 16 15  1  0
 17 16  2  0
 18 19  2  0
 18 17  1  0
 19 14  1  0
 20 21  2  0
 20  9  1  0
 22 20  1  0
 23 24  1  6
 23 22  1  0
 25 26  1  0
 25 24  1  0
 27 26  1  0
 28 27  1  0
 29 23  1  0
 30 29  2  0
 31 29  1  0
M  END
$$$$
