PKG.pdb
     RDKit          3D

 21 21  0  0  1  0  0  0  0  0999 V2000
   17.2862  -25.0631   -6.0076 N   0  0  0  0  0  0  0  0  0  0  0  0
   17.9636  -26.2610   -6.4061 C   0  0  0  0  0  0  0  0  0  0  0  0
   17.4362  -27.3933   -5.5628 C   0  0  0  0  0  0  0  0  0  0  0  0
   16.8252  -26.6241   -4.3848 C   0  0  0  0  0  0  0  0  0  0  0  0
   16.2309  -25.4453   -5.0893 C   0  0  1  0  0  0  0  0  0  0  0  0
   15.8725  -24.3415   -4.1714 C   0  0  0  0  0  0  0  0  0  0  0  0
   16.7647  -23.4949   -3.9159 O   0  0  0  0  0  0  0  0  0  0  0  0
   14.6031  -24.1925   -3.5781 N   0  0  0  0  0  0  0  0  0  0  0  0
   14.3788  -23.1127   -2.6404 C   0  0  1  0  0  0  0  0  0  0  0  0
   12.9927  -22.5922   -2.9064 C   0  0  0  0  0  0  0  0  0  0  0  0
   12.8522  -21.7498   -4.1220 C   0  0  0  0  0  0  0  0  0  0  0  0
   11.4791  -21.2235   -4.3849 C   0  0  0  0  0  0  0  0  0  0  0  0
   11.2953  -20.4171   -5.6180 C   0  0  0  0  0  0  0  0  0  0  0  0
    9.9527  -19.9961   -5.9063 N   0  0  0  0  0  0  0  0  0  0  0  0
   14.5811  -23.5546   -1.2407 C   0  0  0  0  0  0  0  0  0  0  0  0
   14.3811  -24.7461   -0.9082 O   0  0  0  0  0  0  0  0  0  0  0  0
   15.0084  -22.6653   -0.2048 N   0  0  0  0  0  0  0  0  0  0  0  0
   15.2826  -23.1610    1.1137 C   0  0  0  0  0  0  0  0  0  0  0  0
   14.0680  -23.4055    1.9071 C   0  0  0  0  0  0  0  0  0  0  0  0
   12.9501  -23.2029    1.4042 O   0  0  0  0  0  0  0  0  0  0  0  0
   14.1639  -23.8602    3.2112 O   0  0  0  0  0  0  0  0  0  0  0  0
  2  1  1  0
  3  2  1  0
  4  5  1  0
  4  3  1  0
  5  1  1  0
  6  8  1  0
  5  6  1  1
  7  6  2  0
  9  8  1  0
  9 10  1  1
 10 11  1  0
 11 12  1  0
 12 13  1  0
 13 14  1  0
 15  9  1  0
 16 15  2  0
 17 15  1  0
 18 19  1  0
 18 17  1  0
 19 21  1  0
 20 19  2  0
M  END
$$$$
