PKG.pdb
     RDKit          3D

 21 21  0  0  1  0  0  0  0  0999 V2000
   27.1014  -20.7920  -15.0775 N   0  0  0  0  0  0  0  0  0  0  0  0
   28.4043  -20.7610  -15.6724 C   0  0  0  0  0  0  0  0  0  0  0  0
   28.7738  -19.3181  -15.9023 C   0  0  0  0  0  0  0  0  0  0  0  0
   27.3943  -18.6491  -15.8549 C   0  0  0  0  0  0  0  0  0  0  0  0
   26.7366  -19.4255  -14.7578 C   0  0  1  0  0  0  0  0  0  0  0  0
   25.2690  -19.2418  -14.7171 C   0  0  0  0  0  0  0  0  0  0  0  0
   24.8415  -18.1067  -14.3903 O   0  0  0  0  0  0  0  0  0  0  0  0
   24.3403  -20.2572  -15.0208 N   0  0  0  0  0  0  0  0  0  0  0  0
   22.9252  -19.9524  -15.0120 C   0  0  1  0  0  0  0  0  0  0  0  0
   22.3625  -20.4824  -16.3025 C   0  0  0  0  0  0  0  0  0  0  0  0
   22.3175  -19.5090  -17.4239 C   0  0  0  0  0  0  0  0  0  0  0  0
   22.9814  -19.9512  -18.6869 C   0  0  0  0  0  0  0  0  0  0  0  0
   22.9980  -18.9809  -19.8105 C   0  0  0  0  0  0  0  0  0  0  0  0
   23.6797  -19.4023  -21.0025 N   0  0  0  0  0  0  0  0  0  0  0  0
   22.2559  -20.5028  -13.8101 C   0  0  0  0  0  0  0  0  0  0  0  0
   22.7423  -21.4804  -13.1953 O   0  0  0  0  0  0  0  0  0  0  0  0
   21.0381  -19.9622  -13.2894 N   0  0  0  0  0  0  0  0  0  0  0  0
   20.4876  -20.4582  -12.0605 C   0  0  0  0  0  0  0  0  0  0  0  0
   19.7292  -21.7081  -12.2259 C   0  0  0  0  0  0  0  0  0  0  0  0
   19.7483  -22.3028  -13.3166 O   0  0  0  0  0  0  0  0  0  0  0  0
   18.9944  -22.2252  -11.1727 O   0  0  0  0  0  0  0  0  0  0  0  0
  2  1  1  0
  3  2  1  0
  4  5  1  0
  4  3  1  0
  5  1  1  0
  6  8  1  0
  5  6  1  6
  7  6  2  0
  9  8  1  0
  9 10  1  6
 10 11  1  0
 11 12  1  0
 12 13  1  0
 13 14  1  0
 15  9  1  0
 16 15  2  0
 17 15  1  0
 18 19  1  0
 18 17  1  0
 19 21  1  0
 20 19  2  0
M  END
$$$$
