PKG.pdb
     RDKit          3D

 21 21  0  0  1  0  0  0  0  0999 V2000
   26.4164  -19.5203  -15.2392 N   0  0  0  0  0  0  0  0  0  0  0  0
   27.7317  -20.0684  -15.3872 C   0  0  0  0  0  0  0  0  0  0  0  0
   28.7248  -18.9845  -15.0549 C   0  0  0  0  0  0  0  0  0  0  0  0
   27.8573  -17.7299  -15.2167 C   0  0  0  0  0  0  0  0  0  0  0  0
   26.5577  -18.2044  -14.6466 C   0  0  1  0  0  0  0  0  0  0  0  0
   25.4194  -17.3220  -14.9858 C   0  0  0  0  0  0  0  0  0  0  0  0
   25.4132  -16.1727  -14.4788 O   0  0  0  0  0  0  0  0  0  0  0  0
   24.3587  -17.6972  -15.8342 N   0  0  0  0  0  0  0  0  0  0  0  0
   23.3260  -16.7333  -16.1504 C   0  0  1  0  0  0  0  0  0  0  0  0
   23.3655  -16.5330  -17.6408 C   0  0  0  0  0  0  0  0  0  0  0  0
   24.6208  -15.9403  -18.1697 C   0  0  0  0  0  0  0  0  0  0  0  0
   25.6301  -16.9178  -18.6769 C   0  0  0  0  0  0  0  0  0  0  0  0
   26.8665  -16.3545  -19.2756 C   0  0  0  0  0  0  0  0  0  0  0  0
   27.8118  -17.3053  -19.7910 N   0  0  0  0  0  0  0  0  0  0  0  0
   22.0008  -17.1700  -15.6519 C   0  0  0  0  0  0  0  0  0  0  0  0
   20.9681  -16.5081  -15.9082 O   0  0  0  0  0  0  0  0  0  0  0  0
   21.8238  -18.3505  -14.8634 N   0  0  0  0  0  0  0  0  0  0  0  0
   20.5205  -18.7232  -14.3922 C   0  0  0  0  0  0  0  0  0  0  0  0
   19.8023  -19.6165  -15.3147 C   0  0  0  0  0  0  0  0  0  0  0  0
   20.2911  -19.8796  -16.4262 O   0  0  0  0  0  0  0  0  0  0  0  0
   18.5847  -20.1656  -14.9508 O   0  0  0  0  0  0  0  0  0  0  0  0
  2  1  1  0
  3  2  1  0
  4  5  1  0
  4  3  1  0
  5  1  1  0
  6  8  1  0
  5  6  1  6
  7  6  2  0
  9  8  1  0
  9 10  1  6
 10 11  1  0
 11 12  1  0
 12 13  1  0
 13 14  1  0
 15  9  1  0
 16 15  2  0
 17 15  1  0
 18 19  1  0
 18 17  1  0
 19 21  1  0
 20 19  2  0
M  END
$$$$
