PKG.pdb
     RDKit          3D

 21 21  0  0  1  0  0  0  0  0999 V2000
   24.6676  -22.9614  -14.9805 N   0  0  0  0  0  0  0  0  0  0  0  0
   25.7572  -23.3739  -15.8142 C   0  0  0  0  0  0  0  0  0  0  0  0
   26.7439  -22.2367  -15.8824 C   0  0  0  0  0  0  0  0  0  0  0  0
   25.8641  -21.0564  -15.4515 C   0  0  0  0  0  0  0  0  0  0  0  0
   25.0345  -21.6930  -14.3811 C   0  0  1  0  0  0  0  0  0  0  0  0
   23.8456  -20.8916  -14.0157 C   0  0  0  0  0  0  0  0  0  0  0  0
   24.0389  -19.8600  -13.3255 O   0  0  0  0  0  0  0  0  0  0  0  0
   22.5287  -21.2195  -14.3952 N   0  0  0  0  0  0  0  0  0  0  0  0
   21.4451  -20.3243  -14.0489 C   0  0  1  0  0  0  0  0  0  0  0  0
   20.8625  -19.8316  -15.3453 C   0  0  0  0  0  0  0  0  0  0  0  0
   19.7460  -18.8607  -15.2124 C   0  0  0  0  0  0  0  0  0  0  0  0
   19.1091  -18.4331  -16.4941 C   0  0  0  0  0  0  0  0  0  0  0  0
   17.9530  -17.5071  -16.3917 C   0  0  0  0  0  0  0  0  0  0  0  0
   17.3911  -17.0541  -17.6335 N   0  0  0  0  0  0  0  0  0  0  0  0
   20.4502  -20.9854  -13.1722 C   0  0  0  0  0  0  0  0  0  0  0  0
   19.4216  -20.3770  -12.7952 O   0  0  0  0  0  0  0  0  0  0  0  0
   20.6009  -22.3317  -12.7123 N   0  0  0  0  0  0  0  0  0  0  0  0
   19.6244  -22.9165  -11.8382 C   0  0  0  0  0  0  0  0  0  0  0  0
   18.6157  -23.7189  -12.5477 C   0  0  0  0  0  0  0  0  0  0  0  0
   18.6262  -23.7677  -13.7891 O   0  0  0  0  0  0  0  0  0  0  0  0
   17.6547  -24.4199  -11.8393 O   0  0  0  0  0  0  0  0  0  0  0  0
  2  1  1  0
  3  2  1  0
  4  5  1  0
  4  3  1  0
  5  1  1  0
  6  8  1  0
  5  6  1  6
  7  6  2  0
  9  8  1  0
  9 10  1  6
 10 11  1  0
 11 12  1  0
 12 13  1  0
 13 14  1  0
 15  9  1  0
 16 15  2  0
 17 15  1  0
 18 19  1  0
 18 17  1  0
 19 21  1  0
 20 19  2  0
M  END
$$$$
