PKG.pdb
     RDKit          3D

 21 21  0  0  1  0  0  0  0  0999 V2000
   21.1318  -16.9547  -17.6483 N   0  0  0  0  0  0  0  0  0  0  0  0
   20.6279  -18.2808  -17.8485 C   0  0  0  0  0  0  0  0  0  0  0  0
   19.8660  -18.6782  -16.6103 C   0  0  0  0  0  0  0  0  0  0  0  0
   20.4309  -17.6866  -15.5854 C   0  0  0  0  0  0  0  0  0  0  0  0
   20.5513  -16.4498  -16.4191 C   0  0  1  0  0  0  0  0  0  0  0  0
   21.3997  -15.4105  -15.7951 C   0  0  0  0  0  0  0  0  0  0  0  0
   21.0651  -15.0054  -14.6541 O   0  0  0  0  0  0  0  0  0  0  0  0
   22.5451  -14.8599  -16.4038 N   0  0  0  0  0  0  0  0  0  0  0  0
   23.3033  -13.8441  -15.7046 C   0  0  1  0  0  0  0  0  0  0  0  0
   24.7566  -14.1538  -15.9389 C   0  0  0  0  0  0  0  0  0  0  0  0
   25.2029  -15.4947  -15.4811 C   0  0  0  0  0  0  0  0  0  0  0  0
   26.6115  -15.8556  -15.8231 C   0  0  0  0  0  0  0  0  0  0  0  0
   27.0815  -17.1982  -15.3977 C   0  0  0  0  0  0  0  0  0  0  0  0
   28.4528  -17.5115  -15.6879 N   0  0  0  0  0  0  0  0  0  0  0  0
   22.9167  -12.4806  -16.1367 C   0  0  0  0  0  0  0  0  0  0  0  0
   22.6511  -12.2384  -17.3371 O   0  0  0  0  0  0  0  0  0  0  0  0
   22.8252  -11.3799  -15.2275 N   0  0  0  0  0  0  0  0  0  0  0  0
   22.5066  -10.0647  -15.7053 C   0  0  0  0  0  0  0  0  0  0  0  0
   21.0816   -9.7257  -15.5678 C   0  0  0  0  0  0  0  0  0  0  0  0
   20.2661  -10.6040  -15.2405 O   0  0  0  0  0  0  0  0  0  0  0  0
   20.6443   -8.4331  -15.8013 O   0  0  0  0  0  0  0  0  0  0  0  0
  2  1  1  0
  3  2  1  0
  4  5  1  0
  4  3  1  0
  5  1  1  0
  6  8  1  0
  5  6  1  1
  7  6  2  0
  9  8  1  0
  9 10  1  6
 10 11  1  0
 11 12  1  0
 12 13  1  0
 13 14  1  0
 15  9  1  0
 16 15  2  0
 17 15  1  0
 18 19  1  0
 18 17  1  0
 19 21  1  0
 20 19  2  0
M  END
$$$$
