PKG.pdb
     RDKit          3D

 21 21  0  0  1  0  0  0  0  0999 V2000
   26.7666  -19.5236  -15.2147 N   0  0  0  0  0  0  0  0  0  0  0  0
   28.1569  -19.6954  -14.9148 C   0  0  0  0  0  0  0  0  0  0  0  0
   28.2702  -20.7219  -13.8172 C   0  0  0  0  0  0  0  0  0  0  0  0
   26.8508  -20.6909  -13.2366 C   0  0  0  0  0  0  0  0  0  0  0  0
   26.0349  -20.5386  -14.4817 C   0  0  1  0  0  0  0  0  0  0  0  0
   24.6394  -20.1265  -14.2136 C   0  0  0  0  0  0  0  0  0  0  0  0
   24.4511  -18.9377  -13.8539 O   0  0  0  0  0  0  0  0  0  0  0  0
   23.5281  -20.9839  -14.3384 N   0  0  0  0  0  0  0  0  0  0  0  0
   22.2054  -20.4831  -14.0297 C   0  0  1  0  0  0  0  0  0  0  0  0
   21.4574  -20.4105  -15.3328 C   0  0  0  0  0  0  0  0  0  0  0  0
   20.0869  -19.8433  -15.2485 C   0  0  0  0  0  0  0  0  0  0  0  0
   19.3331  -19.7880  -16.5370 C   0  0  0  0  0  0  0  0  0  0  0  0
   17.9961  -19.1431  -16.5039 C   0  0  0  0  0  0  0  0  0  0  0  0
   17.2600  -19.1457  -17.7373 N   0  0  0  0  0  0  0  0  0  0  0  0
   21.5293  -21.3198  -13.0108 C   0  0  0  0  0  0  0  0  0  0  0  0
   21.7181  -22.5578  -12.9682 O   0  0  0  0  0  0  0  0  0  0  0  0
   20.6377  -20.7755  -12.0334 N   0  0  0  0  0  0  0  0  0  0  0  0
   19.9539  -21.6366  -11.1112 C   0  0  0  0  0  0  0  0  0  0  0  0
   18.7473  -22.2569  -11.6805 C   0  0  0  0  0  0  0  0  0  0  0  0
   18.5079  -22.1430  -12.8944 O   0  0  0  0  0  0  0  0  0  0  0  0
   17.8772  -22.9668  -10.8709 O   0  0  0  0  0  0  0  0  0  0  0  0
  2  1  1  0
  3  2  1  0
  4  5  1  0
  4  3  1  0
  5  1  1  0
  6  8  1  0
  5  6  1  1
  7  6  2  0
  9  8  1  0
  9 10  1  6
 10 11  1  0
 11 12  1  0
 12 13  1  0
 13 14  1  0
 15  9  1  0
 16 15  2  0
 17 15  1  0
 18 19  1  0
 18 17  1  0
 19 21  1  0
 20 19  2  0
M  END
$$$$
