PKG.pdb
     RDKit          3D

 21 21  0  0  1  0  0  0  0  0999 V2000
   27.2006  -21.4378  -15.9577 N   0  0  0  0  0  0  0  0  0  0  0  0
   28.4577  -22.1005  -16.1396 C   0  0  0  0  0  0  0  0  0  0  0  0
   28.1880  -23.4349  -16.7861 C   0  0  0  0  0  0  0  0  0  0  0  0
   26.6997  -23.6226  -16.4658 C   0  0  0  0  0  0  0  0  0  0  0  0
   26.1910  -22.2259  -16.6377 C   0  0  1  0  0  0  0  0  0  0  0  0
   24.8470  -22.0226  -16.0534 C   0  0  0  0  0  0  0  0  0  0  0  0
   23.8722  -22.5216  -16.6688 O   0  0  0  0  0  0  0  0  0  0  0  0
   24.6067  -21.3098  -14.8618 N   0  0  0  0  0  0  0  0  0  0  0  0
   23.2493  -21.1689  -14.3789 C   0  0  1  0  0  0  0  0  0  0  0  0
   23.3158  -21.2472  -12.8781 C   0  0  0  0  0  0  0  0  0  0  0  0
   22.0037  -21.2278  -12.1816 C   0  0  0  0  0  0  0  0  0  0  0  0
   21.1661  -22.4527  -12.3530 C   0  0  0  0  0  0  0  0  0  0  0  0
   20.0849  -22.6697  -11.3588 C   0  0  0  0  0  0  0  0  0  0  0  0
   19.2883  -23.8516  -11.5358 N   0  0  0  0  0  0  0  0  0  0  0  0
   22.6207  -19.9219  -14.8742 C   0  0  0  0  0  0  0  0  0  0  0  0
   23.0977  -18.8013  -14.5795 O   0  0  0  0  0  0  0  0  0  0  0  0
   21.4542  -19.9220  -15.7024 N   0  0  0  0  0  0  0  0  0  0  0  0
   20.7535  -18.6995  -15.9740 C   0  0  0  0  0  0  0  0  0  0  0  0
   21.0598  -18.1358  -17.2981 C   0  0  0  0  0  0  0  0  0  0  0  0
   21.8777  -18.7069  -18.0388 O   0  0  0  0  0  0  0  0  0  0  0  0
   20.4416  -16.9723  -17.7232 O   0  0  0  0  0  0  0  0  0  0  0  0
  2  1  1  0
  3  2  1  0
  4  5  1  0
  4  3  1  0
  5  1  1  0
  6  8  1  0
  5  6  1  1
  7  6  2  0
  9  8  1  0
  9 10  1  1
 10 11  1  0
 11 12  1  0
 12 13  1  0
 13 14  1  0
 15  9  1  0
 16 15  2  0
 17 15  1  0
 18 19  1  0
 18 17  1  0
 19 21  1  0
 20 19  2  0
M  END
$$$$
