PKG.pdb
     RDKit          3D

 21 21  0  0  1  0  0  0  0  0999 V2000
   27.1125  -19.1816  -15.3089 N   0  0  0  0  0  0  0  0  0  0  0  0
   28.4188  -18.7537  -15.7129 C   0  0  0  0  0  0  0  0  0  0  0  0
   29.3333  -19.9506  -15.6649 C   0  0  0  0  0  0  0  0  0  0  0  0
   28.5440  -20.8882  -14.7425 C   0  0  0  0  0  0  0  0  0  0  0  0
   27.1431  -20.6272  -15.1990 C   0  0  1  0  0  0  0  0  0  0  0  0
   26.1221  -21.1298  -14.2533 C   0  0  0  0  0  0  0  0  0  0  0  0
   25.9310  -22.3709  -14.2214 O   0  0  0  0  0  0  0  0  0  0  0  0
   25.3649  -20.3025  -13.4001 N   0  0  0  0  0  0  0  0  0  0  0  0
   24.3383  -20.8909  -12.5663 C   0  0  1  0  0  0  0  0  0  0  0  0
   24.7098  -20.5805  -11.1420 C   0  0  0  0  0  0  0  0  0  0  0  0
   23.9535  -21.3341  -10.1090 C   0  0  0  0  0  0  0  0  0  0  0  0
   23.9813  -20.7476   -8.7355 C   0  0  0  0  0  0  0  0  0  0  0  0
   23.1392  -21.4092   -7.7071 C   0  0  0  0  0  0  0  0  0  0  0  0
   23.2219  -20.8716   -6.3777 N   0  0  0  0  0  0  0  0  0  0  0  0
   22.9885  -20.4069  -12.9395 C   0  0  0  0  0  0  0  0  0  0  0  0
   21.9819  -20.7284  -12.2660 O   0  0  0  0  0  0  0  0  0  0  0  0
   22.7575  -19.5599  -14.0690 N   0  0  0  0  0  0  0  0  0  0  0  0
   21.4529  -19.0159  -14.3170 C   0  0  0  0  0  0  0  0  0  0  0  0
   20.6066  -19.8894  -15.1450 C   0  0  0  0  0  0  0  0  0  0  0  0
   21.0916  -20.9093  -15.6629 O   0  0  0  0  0  0  0  0  0  0  0  0
   19.2727  -19.5809  -15.3502 O   0  0  0  0  0  0  0  0  0  0  0  0
  2  1  1  0
  3  2  1  0
  4  5  1  0
  4  3  1  0
  5  1  1  0
  6  8  1  0
  5  6  1  1
  7  6  2  0
  9  8  1  0
  9 10  1  1
 10 11  1  0
 11 12  1  0
 12 13  1  0
 13 14  1  0
 15  9  1  0
 16 15  2  0
 17 15  1  0
 18 19  1  0
 18 17  1  0
 19 21  1  0
 20 19  2  0
M  END
$$$$
