PKG.pdb
     RDKit          3D

 21 21  0  0  1  0  0  0  0  0999 V2000
   23.7729  -12.2977  -14.8994 N   0  0  0  0  0  0  0  0  0  0  0  0
   24.0066  -13.7043  -15.0383 C   0  0  0  0  0  0  0  0  0  0  0  0
   24.3419  -13.9774  -16.4820 C   0  0  0  0  0  0  0  0  0  0  0  0
   23.7787  -12.7212  -17.1584 C   0  0  0  0  0  0  0  0  0  0  0  0
   24.1367  -11.6703  -16.1551 C   0  0  1  0  0  0  0  0  0  0  0  0
   23.4125  -10.3973  -16.3655 C   0  0  0  0  0  0  0  0  0  0  0  0
   23.7469   -9.7042  -17.3583 O   0  0  0  0  0  0  0  0  0  0  0  0
   22.3837   -9.9291  -15.5241 N   0  0  0  0  0  0  0  0  0  0  0  0
   21.7210   -8.6810  -15.8381 C   0  0  1  0  0  0  0  0  0  0  0  0
   20.2483   -8.9802  -15.9049 C   0  0  0  0  0  0  0  0  0  0  0  0
   19.7643   -9.5039  -17.2081 C   0  0  0  0  0  0  0  0  0  0  0  0
   19.2128  -10.8918  -17.1792 C   0  0  0  0  0  0  0  0  0  0  0  0
   18.7529  -11.4573  -18.4727 C   0  0  0  0  0  0  0  0  0  0  0  0
   18.2612  -12.8063  -18.4362 N   0  0  0  0  0  0  0  0  0  0  0  0
   22.0607   -7.6216  -14.8594 C   0  0  0  0  0  0  0  0  0  0  0  0
   22.0081   -7.8445  -13.6275 O   0  0  0  0  0  0  0  0  0  0  0  0
   22.4614   -6.3062  -15.2542 N   0  0  0  0  0  0  0  0  0  0  0  0
   22.8533   -5.3379  -14.2702 C   0  0  0  0  0  0  0  0  0  0  0  0
   21.7602   -4.4364  -13.8742 C   0  0  0  0  0  0  0  0  0  0  0  0
   20.6164   -4.6169  -14.3245 O   0  0  0  0  0  0  0  0  0  0  0  0
   21.9992   -3.3879  -13.0023 O   0  0  0  0  0  0  0  0  0  0  0  0
  2  1  1  0
  3  2  1  0
  4  5  1  0
  4  3  1  0
  5  1  1  0
  6  8  1  0
  5  6  1  6
  7  6  2  0
  9  8  1  0
  9 10  1  1
 10 11  1  0
 11 12  1  0
 12 13  1  0
 13 14  1  0
 15  9  1  0
 16 15  2  0
 17 15  1  0
 18 19  1  0
 18 17  1  0
 19 21  1  0
 20 19  2  0
M  END
$$$$
