PKG.pdb
     RDKit          3D

 21 21  0  0  1  0  0  0  0  0999 V2000
   20.7637  -11.7383  -19.1360 N   0  0  0  0  0  0  0  0  0  0  0  0
   20.3190  -12.5025  -20.2633 C   0  0  0  0  0  0  0  0  0  0  0  0
   19.2058  -13.4064  -19.7996 C   0  0  0  0  0  0  0  0  0  0  0  0
   19.4484  -13.4201  -18.2850 C   0  0  0  0  0  0  0  0  0  0  0  0
   19.8440  -11.9970  -18.0452 C   0  0  1  0  0  0  0  0  0  0  0  0
   20.4804  -11.7868  -16.7260 C   0  0  0  0  0  0  0  0  0  0  0  0
   19.7830  -12.0228  -15.7082 O   0  0  0  0  0  0  0  0  0  0  0  0
   21.8066  -11.3427  -16.5541 N   0  0  0  0  0  0  0  0  0  0  0  0
   22.3335  -11.1779  -15.2160 C   0  0  1  0  0  0  0  0  0  0  0  0
   23.7035  -11.7991  -15.2129 C   0  0  0  0  0  0  0  0  0  0  0  0
   23.7406  -13.2585  -15.4883 C   0  0  0  0  0  0  0  0  0  0  0  0
   25.1037  -13.8501  -15.6407 C   0  0  0  0  0  0  0  0  0  0  0  0
   25.1747  -15.3073  -15.9166 C   0  0  0  0  0  0  0  0  0  0  0  0
   26.4919  -15.8636  -16.0528 N   0  0  0  0  0  0  0  0  0  0  0  0
   22.3333   -9.7555  -14.8009 C   0  0  0  0  0  0  0  0  0  0  0  0
   22.7174   -9.4204  -13.6562 O   0  0  0  0  0  0  0  0  0  0  0  0
   21.9029   -8.6996  -15.6649 N   0  0  0  0  0  0  0  0  0  0  0  0
   22.0685   -7.3279  -15.2773 C   0  0  0  0  0  0  0  0  0  0  0  0
   20.9189   -6.7915  -14.5320 C   0  0  0  0  0  0  0  0  0  0  0  0
   19.9649   -7.5352  -14.2482 O   0  0  0  0  0  0  0  0  0  0  0  0
   20.8945   -5.4625  -14.1451 O   0  0  0  0  0  0  0  0  0  0  0  0
  2  1  1  0
  3  2  1  0
  4  5  1  0
  4  3  1  0
  5  1  1  0
  6  8  1  0
  5  6  1  1
  7  6  2  0
  9  8  1  0
  9 10  1  6
 10 11  1  0
 11 12  1  0
 12 13  1  0
 13 14  1  0
 15  9  1  0
 16 15  2  0
 17 15  1  0
 18 19  1  0
 18 17  1  0
 19 21  1  0
 20 19  2  0
M  END
$$$$
