PKG.pdb
     RDKit          3D

 21 21  0  0  1  0  0  0  0  0999 V2000
   18.1501  -11.2009  -17.1677 N   0  0  0  0  0  0  0  0  0  0  0  0
   17.3235  -12.3356  -17.4538 C   0  0  0  0  0  0  0  0  0  0  0  0
   16.9520  -12.9797  -16.1429 C   0  0  0  0  0  0  0  0  0  0  0  0
   18.0354  -12.4117  -15.2175 C   0  0  0  0  0  0  0  0  0  0  0  0
   18.1446  -11.0102  -15.7302 C   0  0  1  0  0  0  0  0  0  0  0  0
   19.3637  -10.3149  -15.2617 C   0  0  0  0  0  0  0  0  0  0  0  0
   19.4590  -10.0911  -14.0293 O   0  0  0  0  0  0  0  0  0  0  0  0
   20.4071   -9.8972  -16.1118 N   0  0  0  0  0  0  0  0  0  0  0  0
   21.5756   -9.2596  -15.5431 C   0  0  1  0  0  0  0  0  0  0  0  0
   22.7626   -9.7699  -16.3135 C   0  0  0  0  0  0  0  0  0  0  0  0
   23.2215  -11.1338  -15.9447 C   0  0  0  0  0  0  0  0  0  0  0  0
   24.4702  -11.5974  -16.6209 C   0  0  0  0  0  0  0  0  0  0  0  0
   24.9610  -12.9529  -16.2657 C   0  0  0  0  0  0  0  0  0  0  0  0
   26.0980  -13.4292  -17.0029 N   0  0  0  0  0  0  0  0  0  0  0  0
   21.4548   -7.7830  -15.5615 C   0  0  0  0  0  0  0  0  0  0  0  0
   21.0519   -7.1843  -16.5860 O   0  0  0  0  0  0  0  0  0  0  0  0
   21.7841   -6.9677  -14.4331 N   0  0  0  0  0  0  0  0  0  0  0  0
   21.6812   -5.5384  -14.5121 C   0  0  0  0  0  0  0  0  0  0  0  0
   21.9005   -4.8676  -13.2211 C   0  0  0  0  0  0  0  0  0  0  0  0
   21.9027   -3.6266  -13.1619 O   0  0  0  0  0  0  0  0  0  0  0  0
   22.1046   -5.6119  -12.0717 O   0  0  0  0  0  0  0  0  0  0  0  0
  2  1  1  0
  3  2  1  0
  4  5  1  0
  4  3  1  0
  5  1  1  0
  6  8  1  0
  5  6  1  1
  7  6  2  0
  9  8  1  0
  9 10  1  6
 10 11  1  0
 11 12  1  0
 12 13  1  0
 13 14  1  0
 15  9  1  0
 16 15  2  0
 17 15  1  0
 18 19  1  0
 18 17  1  0
 19 21  1  0
 20 19  2  0
M  END
$$$$
