YDQ.pdb
     RDKit          3D

 30 30  0  0  1  0  0  0  0  0999 V2000
   18.4932  -16.4379  -22.5318 O   0  0  0  0  0  0  0  0  0  0  0  0
   18.4579  -15.4705  -21.5391 C   0  0  0  0  0  0  0  0  0  0  0  0
   18.7361  -14.1438  -21.7739 C   0  0  0  0  0  0  0  0  0  0  0  0
   18.6942  -13.1920  -20.7625 C   0  0  0  0  0  0  0  0  0  0  0  0
   18.3685  -13.5536  -19.4766 C   0  0  0  0  0  0  0  0  0  0  0  0
   18.3298  -12.5521  -18.3940 C   0  0  0  0  0  0  0  0  0  0  0  0
   19.5959  -12.5429  -17.6061 C   0  0  2  0  0  0  0  0  0  0  0  0
   19.7111  -13.8238  -16.8898 N   0  0  0  0  0  0  0  0  0  0  0  0
   19.6643  -11.4334  -16.6327 C   0  0  0  0  0  0  0  0  0  0  0  0
   19.4646  -11.6294  -15.3884 O   0  0  0  0  0  0  0  0  0  0  0  0
   18.0858  -14.8910  -19.2297 C   0  0  0  0  0  0  0  0  0  0  0  0
   18.1336  -15.8077  -20.2408 C   0  0  0  0  0  0  0  0  0  0  0  0
   19.9582  -10.1284  -17.1118 N   0  0  0  0  0  0  0  0  0  0  0  0
   20.1171   -9.0418  -16.1917 C   0  0  1  0  0  0  0  0  0  0  0  0
   21.1011   -9.3861  -15.1477 C   0  0  0  0  0  0  0  0  0  0  0  0
   21.2660   -8.2428  -14.2214 C   0  0  0  0  0  0  0  0  0  0  0  0
   21.8622   -7.1813  -14.5245 O   0  0  0  0  0  0  0  0  0  0  0  0
   20.4343   -7.8021  -16.9385 C   0  0  0  0  0  0  0  0  0  0  0  0
   21.0858   -7.9177  -18.0023 O   0  0  0  0  0  0  0  0  0  0  0  0
   20.7467   -8.2882  -12.9121 O   0  0  0  0  0  0  0  0  0  0  0  0
   18.4438   -6.6555  -20.6965 N   0  0  0  0  0  0  0  0  0  0  0  0
   17.3595   -5.9126  -20.1751 C   0  0  0  0  0  0  0  0  0  0  0  0
   16.5119   -5.3944  -20.9667 O   0  0  0  0  0  0  0  0  0  0  0  0
   17.1705   -5.7207  -18.7311 C   0  0  0  0  0  0  0  0  0  0  0  0
   18.1875   -6.4449  -17.9514 C   0  0  0  0  0  0  0  0  0  0  0  0
   19.2881   -5.6064  -17.4336 C   0  0  2  0  0  0  0  0  0  0  0  0
   20.0523   -6.5136  -16.5306 N   0  0  0  0  0  0  0  0  0  0  0  0
   19.0468   -4.3295  -16.8256 C   0  0  0  0  0  0  0  0  0  0  0  0
   18.7033   -4.2605  -15.5879 O   0  0  0  0  0  0  0  0  0  0  0  0
   19.1510   -3.0812  -17.4368 O   0  0  0  0  0  0  0  0  0  0  0  0
  1  2  1  0
  2  3  2  0
  3  4  1  0
  5  6  1  0
  5  4  2  0
  7  9  1  0
  7  6  1  0
  7  8  1  1
  9 10  2  0
 11  5  1  0
 12 11  2  0
 12  2  1  0
 13 14  1  0
 13  9  1  0
 14 15  1  1
 15 16  1  0
 16 17  2  0
 18 14  1  0
 19 18  2  0
 20 16  1  0
 21 22  1  0
 22 23  2  0
 24 22  1  0
 24 25  1  0
 26 25  1  1
 26 27  1  0
 27 18  1  0
 28 26  1  0
 28 30  1  0
 29 28  2  0
M  END
$$$$
