YDQ.pdb
     RDKit          3D

 30 30  0  0  1  0  0  0  0  0999 V2000
   28.7389  -23.8090  -16.5477 O   0  0  0  0  0  0  0  0  0  0  0  0
   27.6596  -23.0067  -16.2099 C   0  0  0  0  0  0  0  0  0  0  0  0
   26.3941  -23.5022  -15.9966 C   0  0  0  0  0  0  0  0  0  0  0  0
   25.3274  -22.6783  -15.6588 C   0  0  0  0  0  0  0  0  0  0  0  0
   25.5080  -21.3218  -15.5260 C   0  0  0  0  0  0  0  0  0  0  0  0
   24.3801  -20.4374  -15.1763 C   0  0  0  0  0  0  0  0  0  0  0  0
   23.5951  -20.0426  -16.3813 C   0  0  2  0  0  0  0  0  0  0  0  0
   24.4336  -19.1725  -17.2221 N   0  0  0  0  0  0  0  0  0  0  0  0
   22.3406  -19.3360  -16.0494 C   0  0  0  0  0  0  0  0  0  0  0  0
   22.3502  -18.1399  -15.6066 O   0  0  0  0  0  0  0  0  0  0  0  0
   26.7823  -20.8120  -15.7393 C   0  0  0  0  0  0  0  0  0  0  0  0
   27.8146  -21.6426  -16.0703 C   0  0  0  0  0  0  0  0  0  0  0  0
   21.1086  -20.0198  -16.2324 N   0  0  0  0  0  0  0  0  0  0  0  0
   19.8729  -19.3840  -15.8838 C   0  0  1  0  0  0  0  0  0  0  0  0
   19.0354  -19.1866  -17.0823 C   0  0  0  0  0  0  0  0  0  0  0  0
   19.5363  -18.0272  -17.8553 C   0  0  0  0  0  0  0  0  0  0  0  0
   19.9689  -16.9737  -17.3288 O   0  0  0  0  0  0  0  0  0  0  0  0
   19.2107  -20.1477  -14.8006 C   0  0  0  0  0  0  0  0  0  0  0  0
   19.1579  -21.3937  -14.9194 O   0  0  0  0  0  0  0  0  0  0  0  0
   19.5541  -18.0467  -19.2642 O   0  0  0  0  0  0  0  0  0  0  0  0
   20.8385  -19.1676   -9.9974 N   0  0  0  0  0  0  0  0  0  0  0  0
   20.3966  -20.5049   -9.8724 C   0  0  0  0  0  0  0  0  0  0  0  0
   21.0644  -21.3264   -9.1702 O   0  0  0  0  0  0  0  0  0  0  0  0
   19.1731  -20.9848  -10.5283 C   0  0  0  0  0  0  0  0  0  0  0  0
   18.5457  -19.9302  -11.3412 C   0  0  0  0  0  0  0  0  0  0  0  0
   17.9633  -20.3922  -12.6178 C   0  0  2  0  0  0  0  0  0  0  0  0
   18.6421  -19.5652  -13.6560 N   0  0  0  0  0  0  0  0  0  0  0  0
   16.5452  -20.4505  -12.8270 C   0  0  0  0  0  0  0  0  0  0  0  0
   15.8567  -21.4051  -12.3082 O   0  0  0  0  0  0  0  0  0  0  0  0
   15.7714  -19.5487  -13.5556 O   0  0  0  0  0  0  0  0  0  0  0  0
  1  2  1  0
  2  3  2  0
  3  4  1  0
  5  6  1  0
  5  4  2  0
  7  9  1  0
  7  6  1  0
  7  8  1  6
  9 10  2  0
 11  5  1  0
 12 11  2  0
 12  2  1  0
 13 14  1  0
 13  9  1  0
 14 15  1  6
 15 16  1  0
 16 17  2  0
 18 14  1  0
 19 18  2  0
 20 16  1  0
 21 22  1  0
 22 23  2  0
 24 22  1  0
 24 25  1  0
 26 25  1  1
 26 27  1  0
 27 18  1  0
 28 26  1  0
 28 30  1  0
 29 28  2  0
M  END
$$$$
