YDQ.pdb
     RDKit          3D

 30 30  0  0  1  0  0  0  0  0999 V2000
   31.4091  -21.9583   -9.8385 O   0  0  0  0  0  0  0  0  0  0  0  0
   30.1961  -21.4919  -10.3220 C   0  0  0  0  0  0  0  0  0  0  0  0
   28.9923  -21.7600   -9.7125 C   0  0  0  0  0  0  0  0  0  0  0  0
   27.7888  -21.2813  -10.2158 C   0  0  0  0  0  0  0  0  0  0  0  0
   27.7651  -20.5137  -11.3562 C   0  0  0  0  0  0  0  0  0  0  0  0
   26.4918  -20.0080  -11.9034 C   0  0  0  0  0  0  0  0  0  0  0  0
   25.8619  -20.9907  -12.8317 C   0  0  2  0  0  0  0  0  0  0  0  0
   26.7699  -21.2084  -13.9698 N   0  0  0  0  0  0  0  0  0  0  0  0
   24.5458  -20.5486  -13.3371 C   0  0  0  0  0  0  0  0  0  0  0  0
   24.4212  -19.4731  -14.0112 O   0  0  0  0  0  0  0  0  0  0  0  0
   28.9757  -20.2374  -11.9787 C   0  0  0  0  0  0  0  0  0  0  0  0
   30.1454  -20.7193  -11.4644 C   0  0  0  0  0  0  0  0  0  0  0  0
   23.4071  -21.3504  -13.0550 N   0  0  0  0  0  0  0  0  0  0  0  0
   22.1128  -20.9546  -13.5246 C   0  0  1  0  0  0  0  0  0  0  0  0
   22.1131  -20.8207  -14.9939 C   0  0  0  0  0  0  0  0  0  0  0  0
   20.8031  -20.3004  -15.4475 C   0  0  0  0  0  0  0  0  0  0  0  0
   19.9186  -21.0117  -15.9823 O   0  0  0  0  0  0  0  0  0  0  0  0
   21.0885  -21.8883  -13.0012 C   0  0  0  0  0  0  0  0  0  0  0  0
   21.4587  -22.7440  -12.1643 O   0  0  0  0  0  0  0  0  0  0  0  0
   20.4710  -18.9391  -15.2979 O   0  0  0  0  0  0  0  0  0  0  0  0
   16.9531  -23.1249   -9.5780 N   0  0  0  0  0  0  0  0  0  0  0  0
   18.2943  -23.5232   -9.3735 C   0  0  0  0  0  0  0  0  0  0  0  0
   18.5761  -24.3289   -8.4326 O   0  0  0  0  0  0  0  0  0  0  0  0
   19.3886  -23.0383  -10.2249 C   0  0  0  0  0  0  0  0  0  0  0  0
   18.9177  -22.0320  -11.1904 C   0  0  0  0  0  0  0  0  0  0  0  0
   18.6890  -22.5412  -12.5582 C   0  0  2  0  0  0  0  0  0  0  0  0
   19.7368  -21.8739  -13.3824 N   0  0  0  0  0  0  0  0  0  0  0  0
   17.3997  -22.4795  -13.1844 C   0  0  0  0  0  0  0  0  0  0  0  0
   16.9822  -21.3732  -13.6907 O   0  0  0  0  0  0  0  0  0  0  0  0
   16.4920  -23.5271  -13.3306 O   0  0  0  0  0  0  0  0  0  0  0  0
  1  2  1  0
  2  3  2  0
  3  4  1  0
  5  6  1  0
  5  4  2  0
  7  9  1  0
  7  6  1  0
  7  8  1  6
  9 10  2  0
 11  5  1  0
 12 11  2  0
 12  2  1  0
 13 14  1  0
 13  9  1  0
 14 15  1  6
 15 16  1  0
 16 17  2  0
 18 14  1  0
 19 18  2  0
 20 16  1  0
 21 22  1  0
 22 23  2  0
 24 22  1  0
 24 25  1  0
 26 25  1  1
 26 27  1  0
 27 18  1  0
 28 26  1  0
 28 30  1  0
 29 28  2  0
M  END
$$$$
