YDQ.pdb
     RDKit          3D

 30 30  0  0  1  0  0  0  0  0999 V2000
   26.6762  -28.6733  -18.7445 O   0  0  0  0  0  0  0  0  0  0  0  0
   26.1211  -27.8426  -17.7831 C   0  0  0  0  0  0  0  0  0  0  0  0
   26.7992  -27.4427  -16.6548 C   0  0  0  0  0  0  0  0  0  0  0  0
   26.2218  -26.6092  -15.7047 C   0  0  0  0  0  0  0  0  0  0  0  0
   24.9352  -26.1524  -15.8665 C   0  0  0  0  0  0  0  0  0  0  0  0
   24.3101  -25.2742  -14.8592 C   0  0  0  0  0  0  0  0  0  0  0  0
   24.2536  -23.8577  -15.3220 C   0  0  2  0  0  0  0  0  0  0  0  0
   25.6275  -23.3339  -15.3958 N   0  0  0  0  0  0  0  0  0  0  0  0
   23.4495  -22.9905  -14.4363 C   0  0  0  0  0  0  0  0  0  0  0  0
   23.9624  -22.4321  -13.4108 O   0  0  0  0  0  0  0  0  0  0  0  0
   24.2424  -26.5506  -17.0027 C   0  0  0  0  0  0  0  0  0  0  0  0
   24.8319  -27.3703  -17.9222 C   0  0  0  0  0  0  0  0  0  0  0  0
   22.0783  -22.7879  -14.7488 N   0  0  0  0  0  0  0  0  0  0  0  0
   21.2451  -22.0203  -13.8718 C   0  0  1  0  0  0  0  0  0  0  0  0
   20.8331  -20.7603  -14.5193 C   0  0  0  0  0  0  0  0  0  0  0  0
   19.9748  -19.9829  -13.5965 C   0  0  0  0  0  0  0  0  0  0  0  0
   18.7221  -19.9594  -13.6640 O   0  0  0  0  0  0  0  0  0  0  0  0
   20.1168  -22.8573  -13.4012 C   0  0  0  0  0  0  0  0  0  0  0  0
   19.4864  -23.5156  -14.2607 O   0  0  0  0  0  0  0  0  0  0  0  0
   20.5361  -19.2058  -12.5637 O   0  0  0  0  0  0  0  0  0  0  0  0
   19.4203  -25.0194   -7.7047 N   0  0  0  0  0  0  0  0  0  0  0  0
   18.1871  -25.4120   -8.2741 C   0  0  0  0  0  0  0  0  0  0  0  0
   17.4068  -26.1748   -7.6237 O   0  0  0  0  0  0  0  0  0  0  0  0
   17.7656  -24.9587   -9.6062 C   0  0  0  0  0  0  0  0  0  0  0  0
   18.7882  -24.1084  -10.2370 C   0  0  0  0  0  0  0  0  0  0  0  0
   18.5452  -23.7945  -11.6600 C   0  0  2  0  0  0  0  0  0  0  0  0
   19.7125  -22.9579  -12.0599 N   0  0  0  0  0  0  0  0  0  0  0  0
   17.3059  -23.2296  -12.1108 C   0  0  0  0  0  0  0  0  0  0  0  0
   17.1865  -21.9547  -12.2335 O   0  0  0  0  0  0  0  0  0  0  0  0
   16.1502  -23.9254  -12.4613 O   0  0  0  0  0  0  0  0  0  0  0  0
  1  2  1  0
  2  3  2  0
  3  4  1  0
  5  6  1  0
  5  4  2  0
  7  9  1  0
  7  6  1  0
  7  8  1  1
  9 10  2  0
 11  5  1  0
 12 11  2  0
 12  2  1  0
 13 14  1  0
 13  9  1  0
 14 15  1  6
 15 16  1  0
 16 17  2  0
 18 14  1  0
 19 18  2  0
 20 16  1  0
 21 22  1  0
 22 23  2  0
 24 22  1  0
 24 25  1  0
 26 25  1  1
 26 27  1  0
 27 18  1  0
 28 26  1  0
 28 30  1  0
 29 28  2  0
M  END
$$$$
