YDQ.pdb
     RDKit          3D

 30 30  0  0  1  0  0  0  0  0999 V2000
   31.3822  -21.2354  -11.2335 O   0  0  0  0  0  0  0  0  0  0  0  0
   30.0459  -20.9284  -11.4401 C   0  0  0  0  0  0  0  0  0  0  0  0
   29.0418  -21.3414  -10.5953 C   0  0  0  0  0  0  0  0  0  0  0  0
   27.7090  -21.0212  -10.8230 C   0  0  0  0  0  0  0  0  0  0  0  0
   27.3485  -20.2704  -11.9170 C   0  0  0  0  0  0  0  0  0  0  0  0
   25.9353  -19.9325  -12.1723 C   0  0  0  0  0  0  0  0  0  0  0  0
   25.0928  -21.1551  -12.3118 C   0  0  2  0  0  0  0  0  0  0  0  0
   25.6204  -21.9632  -13.4234 N   0  0  0  0  0  0  0  0  0  0  0  0
   23.6689  -20.8517  -12.5640 C   0  0  0  0  0  0  0  0  0  0  0  0
   23.1494  -21.0176  -13.7169 O   0  0  0  0  0  0  0  0  0  0  0  0
   28.3554  -19.8486  -12.7758 C   0  0  0  0  0  0  0  0  0  0  0  0
   29.6582  -20.1762  -12.5303 C   0  0  0  0  0  0  0  0  0  0  0  0
   22.8788  -20.3645  -11.4882 N   0  0  0  0  0  0  0  0  0  0  0  0
   21.4597  -20.2360  -11.6370 C   0  0  1  0  0  0  0  0  0  0  0  0
   20.8105  -20.0994  -10.3191 C   0  0  0  0  0  0  0  0  0  0  0  0
   20.8964  -21.3828   -9.5856 C   0  0  0  0  0  0  0  0  0  0  0  0
   21.5062  -21.5240   -8.4982 O   0  0  0  0  0  0  0  0  0  0  0  0
   21.1577  -19.1327  -12.5786 C   0  0  0  0  0  0  0  0  0  0  0  0
   22.0006  -18.2114  -12.6804 O   0  0  0  0  0  0  0  0  0  0  0  0
   20.2795  -22.5473  -10.0848 O   0  0  0  0  0  0  0  0  0  0  0  0
   23.8648  -18.7410  -16.9724 N   0  0  0  0  0  0  0  0  0  0  0  0
   22.6849  -17.9622  -16.9969 C   0  0  0  0  0  0  0  0  0  0  0  0
   22.7583  -16.7136  -17.2191 O   0  0  0  0  0  0  0  0  0  0  0  0
   21.3579  -18.5528  -16.7784 C   0  0  0  0  0  0  0  0  0  0  0  0
   21.1791  -18.9797  -15.3811 C   0  0  0  0  0  0  0  0  0  0  0  0
   19.9976  -18.4089  -14.7024 C   0  0  2  0  0  0  0  0  0  0  0  0
   19.9927  -19.0560  -13.3593 N   0  0  0  0  0  0  0  0  0  0  0  0
   18.6960  -18.4242  -15.3054 C   0  0  0  0  0  0  0  0  0  0  0  0
   18.1655  -17.3280  -15.7198 O   0  0  0  0  0  0  0  0  0  0  0  0
   17.8888  -19.5401  -15.5202 O   0  0  0  0  0  0  0  0  0  0  0  0
  1  2  1  0
  2  3  2  0
  3  4  1  0
  5  6  1  0
  5  4  2  0
  7  9  1  0
  7  6  1  0
  7  8  1  6
  9 10  2  0
 11  5  1  0
 12 11  2  0
 12  2  1  0
 13 14  1  0
 13  9  1  0
 14 15  1  1
 15 16  1  0
 16 17  2  0
 18 14  1  0
 19 18  2  0
 20 16  1  0
 21 22  1  0
 22 23  2  0
 24 22  1  0
 24 25  1  0
 26 25  1  6
 26 27  1  0
 27 18  1  0
 28 26  1  0
 28 30  1  0
 29 28  2  0
M  END
$$$$
