YDQ.pdb
     RDKit          3D

 30 30  0  0  1  0  0  0  0  0999 V2000
   29.5544  -18.1785  -18.3230 O   0  0  0  0  0  0  0  0  0  0  0  0
   28.2990  -18.4192  -17.7856 C   0  0  0  0  0  0  0  0  0  0  0  0
   28.0915  -18.6793  -16.4508 C   0  0  0  0  0  0  0  0  0  0  0  0
   26.8234  -18.9177  -15.9350 C   0  0  0  0  0  0  0  0  0  0  0  0
   25.7212  -18.9008  -16.7566 C   0  0  0  0  0  0  0  0  0  0  0  0
   24.3717  -19.1613  -16.2203 C   0  0  0  0  0  0  0  0  0  0  0  0
   24.3622  -20.3320  -15.2966 C   0  0  2  0  0  0  0  0  0  0  0  0
   24.8897  -21.5020  -16.0178 N   0  0  0  0  0  0  0  0  0  0  0  0
   23.0162  -20.6479  -14.7756 C   0  0  0  0  0  0  0  0  0  0  0  0
   22.3161  -21.5901  -15.2746 O   0  0  0  0  0  0  0  0  0  0  0  0
   25.9207  -18.6389  -18.1061 C   0  0  0  0  0  0  0  0  0  0  0  0
   27.1770  -18.4075  -18.5889 C   0  0  0  0  0  0  0  0  0  0  0  0
   22.5077  -19.8744  -13.6977 N   0  0  0  0  0  0  0  0  0  0  0  0
   21.1949  -20.1296  -13.1840 C   0  0  1  0  0  0  0  0  0  0  0  0
   21.0122  -19.4696  -11.8771 C   0  0  0  0  0  0  0  0  0  0  0  0
   19.6811  -19.8129  -11.3268 C   0  0  0  0  0  0  0  0  0  0  0  0
   18.8248  -18.9593  -10.9919 O   0  0  0  0  0  0  0  0  0  0  0  0
   20.1835  -19.7540  -14.1994 C   0  0  0  0  0  0  0  0  0  0  0  0
   20.3115  -18.6409  -14.7599 O   0  0  0  0  0  0  0  0  0  0  0  0
   19.2948  -21.1558  -11.1450 O   0  0  0  0  0  0  0  0  0  0  0  0
   16.4093  -22.0124  -19.8522 N   0  0  0  0  0  0  0  0  0  0  0  0
   17.1331  -22.0332  -18.6378 C   0  0  0  0  0  0  0  0  0  0  0  0
   17.6133  -23.1283  -18.2088 O   0  0  0  0  0  0  0  0  0  0  0  0
   17.3593  -20.8170  -17.8457 C   0  0  0  0  0  0  0  0  0  0  0  0
   18.2267  -21.0802  -16.6860 C   0  0  0  0  0  0  0  0  0  0  0  0
   18.0983  -20.1095  -15.5799 C   0  0  2  0  0  0  0  0  0  0  0  0
   19.0971  -20.5632  -14.5703 N   0  0  0  0  0  0  0  0  0  0  0  0
   16.8311  -19.8098  -14.9776 C   0  0  0  0  0  0  0  0  0  0  0  0
   16.6195  -20.1034  -13.7433 O   0  0  0  0  0  0  0  0  0  0  0  0
   15.7393  -19.1981  -15.5914 O   0  0  0  0  0  0  0  0  0  0  0  0
  1  2  1  0
  2  3  2  0
  3  4  1  0
  5  6  1  0
  5  4  2  0
  7  9  1  0
  7  6  1  0
  7  8  1  6
  9 10  2  0
 11  5  1  0
 12 11  2  0
 12  2  1  0
 13 14  1  0
 13  9  1  0
 14 15  1  1
 15 16  1  0
 16 17  2  0
 18 14  1  0
 19 18  2  0
 20 16  1  0
 21 22  1  0
 22 23  2  0
 24 22  1  0
 24 25  1  0
 26 25  1  6
 26 27  1  0
 27 18  1  0
 28 26  1  0
 28 30  1  0
 29 28  2  0
M  END
$$$$
