YDQ.pdb
     RDKit          3D

 30 30  0  0  1  0  0  0  0  0999 V2000
   16.7247  -17.2484  -20.9011 O   0  0  0  0  0  0  0  0  0  0  0  0
   16.8291  -16.0923  -20.1427 C   0  0  0  0  0  0  0  0  0  0  0  0
   16.0064  -15.8186  -19.0746 C   0  0  0  0  0  0  0  0  0  0  0  0
   16.1302  -14.6527  -18.3290 C   0  0  0  0  0  0  0  0  0  0  0  0
   17.0936  -13.7230  -18.6418 C   0  0  0  0  0  0  0  0  0  0  0  0
   17.2274  -12.4779  -17.8617 C   0  0  0  0  0  0  0  0  0  0  0  0
   18.3219  -12.5743  -16.8534 C   0  0  2  0  0  0  0  0  0  0  0  0
   17.9673  -13.6157  -15.8752 N   0  0  0  0  0  0  0  0  0  0  0  0
   18.5680  -11.3027  -16.1424 C   0  0  0  0  0  0  0  0  0  0  0  0
   17.8438  -10.9434  -15.1559 O   0  0  0  0  0  0  0  0  0  0  0  0
   17.9293  -13.9905  -19.7186 C   0  0  0  0  0  0  0  0  0  0  0  0
   17.7878  -15.1439  -20.4359 C   0  0  0  0  0  0  0  0  0  0  0  0
   19.6366  -10.4759  -16.5821 N   0  0  0  0  0  0  0  0  0  0  0  0
   19.9056   -9.2336  -15.9211 C   0  0  1  0  0  0  0  0  0  0  0  0
   21.2190   -9.2771  -15.2503 C   0  0  0  0  0  0  0  0  0  0  0  0
   21.4791   -7.9833  -14.5788 C   0  0  0  0  0  0  0  0  0  0  0  0
   22.1219   -7.0427  -15.1045 O   0  0  0  0  0  0  0  0  0  0  0  0
   19.7528   -8.1170  -16.8828 C   0  0  0  0  0  0  0  0  0  0  0  0
   20.4084   -8.1772  -17.9487 O   0  0  0  0  0  0  0  0  0  0  0  0
   21.0044   -7.7329  -13.2759 O   0  0  0  0  0  0  0  0  0  0  0  0
   14.8293   -6.1633  -19.0902 N   0  0  0  0  0  0  0  0  0  0  0  0
   15.0860   -5.4178  -17.9166 C   0  0  0  0  0  0  0  0  0  0  0  0
   14.1253   -4.8563  -17.3037 O   0  0  0  0  0  0  0  0  0  0  0  0
   16.4407   -5.2718  -17.3681 C   0  0  0  0  0  0  0  0  0  0  0  0
   17.4337   -5.9942  -18.1796 C   0  0  0  0  0  0  0  0  0  0  0  0
   18.8229   -5.9094  -17.6840 C   0  0  2  0  0  0  0  0  0  0  0  0
   18.9241   -7.0023  -16.6751 N   0  0  0  0  0  0  0  0  0  0  0  0
   19.3798   -4.6808  -17.1957 C   0  0  0  0  0  0  0  0  0  0  0  0
   19.8434   -4.6154  -15.9976 O   0  0  0  0  0  0  0  0  0  0  0  0
   19.4978   -3.4815  -17.8961 O   0  0  0  0  0  0  0  0  0  0  0  0
  1  2  1  0
  2  3  2  0
  3  4  1  0
  5  6  1  0
  5  4  2  0
  7  9  1  0
  7  6  1  0
  7  8  1  1
  9 10  2  0
 11  5  1  0
 12 11  2  0
 12  2  1  0
 13 14  1  0
 13  9  1  0
 14 15  1  6
 15 16  1  0
 16 17  2  0
 18 14  1  0
 19 18  2  0
 20 16  1  0
 21 22  1  0
 22 23  2  0
 24 22  1  0
 24 25  1  0
 26 25  1  1
 26 27  1  0
 27 18  1  0
 28 26  1  0
 28 30  1  0
 29 28  2  0
M  END
$$$$
