YDQ.pdb
     RDKit          3D

 30 30  0  0  1  0  0  0  0  0999 V2000
   23.7385  -20.8988   -8.8843 O   0  0  0  0  0  0  0  0  0  0  0  0
   24.4938  -20.7116  -10.0320 C   0  0  0  0  0  0  0  0  0  0  0  0
   23.9814  -20.1681  -11.1872 C   0  0  0  0  0  0  0  0  0  0  0  0
   24.7583  -19.9901  -12.3255 C   0  0  0  0  0  0  0  0  0  0  0  0
   26.0830  -20.3581  -12.3311 C   0  0  0  0  0  0  0  0  0  0  0  0
   26.9140  -20.1813  -13.5372 C   0  0  0  0  0  0  0  0  0  0  0  0
   26.8706  -21.3842  -14.4176 C   0  0  2  0  0  0  0  0  0  0  0  0
   27.6818  -21.1167  -15.6166 N   0  0  0  0  0  0  0  0  0  0  0  0
   25.5000  -21.7513  -14.8296 C   0  0  0  0  0  0  0  0  0  0  0  0
   24.9051  -21.1377  -15.7764 O   0  0  0  0  0  0  0  0  0  0  0  0
   26.6095  -20.9076  -11.1691 C   0  0  0  0  0  0  0  0  0  0  0  0
   25.8256  -21.0722  -10.0631 C   0  0  0  0  0  0  0  0  0  0  0  0
   24.8470  -22.8109  -14.1442 N   0  0  0  0  0  0  0  0  0  0  0  0
   23.6142  -23.3416  -14.6454 C   0  0  1  0  0  0  0  0  0  0  0  0
   23.6273  -24.8162  -14.5980 C   0  0  0  0  0  0  0  0  0  0  0  0
   24.6006  -25.3383  -15.5841 C   0  0  0  0  0  0  0  0  0  0  0  0
   24.7124  -24.8967  -16.7532 O   0  0  0  0  0  0  0  0  0  0  0  0
   22.4780  -22.7220  -13.9242 C   0  0  0  0  0  0  0  0  0  0  0  0
   22.5934  -22.5667  -12.6864 O   0  0  0  0  0  0  0  0  0  0  0  0
   25.4785  -26.3893  -15.2517 O   0  0  0  0  0  0  0  0  0  0  0  0
   19.6581  -17.8999  -15.6765 N   0  0  0  0  0  0  0  0  0  0  0  0
   20.8896  -18.1573  -15.0312 C   0  0  0  0  0  0  0  0  0  0  0  0
   21.8119  -17.2843  -15.0619 O   0  0  0  0  0  0  0  0  0  0  0  0
   21.1433  -19.4119  -14.3106 C   0  0  0  0  0  0  0  0  0  0  0  0
   20.0058  -20.3394  -14.4222 C   0  0  0  0  0  0  0  0  0  0  0  0
   20.1996  -21.6444  -13.7575 C   0  0  2  0  0  0  0  0  0  0  0  0
   21.2871  -22.3004  -14.5381 N   0  0  0  0  0  0  0  0  0  0  0  0
   19.1059  -22.5399  -13.5119 C   0  0  0  0  0  0  0  0  0  0  0  0
   18.8932  -23.5292  -14.3060 O   0  0  0  0  0  0  0  0  0  0  0  0
   18.1964  -22.4769  -12.4575 O   0  0  0  0  0  0  0  0  0  0  0  0
  1  2  1  0
  2  3  2  0
  3  4  1  0
  5  6  1  0
  5  4  2  0
  7  9  1  0
  7  6  1  0
  7  8  1  6
  9 10  2  0
 11  5  1  0
 12 11  2  0
 12  2  1  0
 13 14  1  0
 13  9  1  0
 14 15  1  1
 15 16  1  0
 16 17  2  0
 18 14  1  0
 19 18  2  0
 20 16  1  0
 21 22  1  0
 22 23  2  0
 24 22  1  0
 24 25  1  0
 26 25  1  6
 26 27  1  0
 27 18  1  0
 28 26  1  0
 28 30  1  0
 29 28  2  0
M  END
$$$$
