LHI.pdb
     RDKit          3D

 27 27  0  0  1  0  0  0  0  0999 V2000
    7.7448  -11.9353   18.7754 C   0  0  0  0  0  0  0  0  0  0  0  0
    8.3619  -13.3121   18.7596 C   0  0  1  0  0  0  0  0  0  0  0  0
    9.8788  -13.1173   18.6973 C   0  0  0  0  0  0  0  0  0  0  0  0
    8.0646  -14.0910   20.0156 C   0  0  0  0  0  0  0  0  0  0  0  0
    8.7721  -15.4245   20.0634 C   0  0  2  0  0  0  0  0  0  0  0  0
    8.0646  -16.3053   19.1454 N   0  0  0  0  0  0  0  0  0  0  0  0
    8.6291  -15.9307   21.4654 C   0  0  0  0  0  0  0  0  0  0  0  0
    7.4831  -16.0721   21.9511 O   0  0  0  0  0  0  0  0  0  0  0  0
    9.8157  -16.2370   22.2041 N   0  0  0  0  0  0  0  0  0  0  0  0
    9.6032  -16.8920   23.5113 C   0  0  1  0  0  0  0  0  0  0  0  0
   10.5655  -18.0511   23.5154 C   0  0  0  0  0  0  0  0  0  0  0  0
   10.1248  -19.1359   22.6072 C   0  0  0  0  0  0  0  0  0  0  0  0
    8.9534  -19.8842   22.7765 C   0  0  0  0  0  0  0  0  0  0  0  0
    8.8917  -20.7602   21.7757 N   0  0  0  0  0  0  0  0  0  0  0  0
    9.9582  -20.6170   20.9715 C   0  0  0  0  0  0  0  0  0  0  0  0
   10.6955  -19.6229   21.4967 N   0  0  0  0  0  0  0  0  0  0  0  0
    9.8843  -15.8884   24.5434 C   0  0  0  0  0  0  0  0  0  0  0  0
   10.9253  -15.1691   24.5683 O   0  0  0  0  0  0  0  0  0  0  0  0
    6.1237  -12.6210   26.0289 C   0  0  0  0  0  0  0  0  0  0  0  0
    7.4437  -13.3224   25.7450 C   0  0  0  0  0  0  0  0  0  0  0  0
    8.0020  -13.9409   26.9906 C   0  0  2  0  0  0  0  0  0  0  0  0
    8.1934  -12.8350   27.9960 C   0  0  0  0  0  0  0  0  0  0  0  0
    9.2472  -14.7136   26.6936 C   0  0  2  0  0  0  0  0  0  0  0  0
    8.9827  -15.6649   25.5930 N   0  0  0  0  0  0  0  0  0  0  0  0
    9.8631  -15.4043   27.8226 C   0  0  0  0  0  0  0  0  0  0  0  0
   10.8199  -14.8649   28.6401 O   0  0  0  0  0  0  0  0  0  0  0  0
    9.5223  -16.6048   28.1163 O   0  0  0  0  0  0  0  0  0  0  0  0
  2  1  1  1
  2  3  1  0
  4  5  1  0
  4  2  1  0
  5  7  1  0
  5  6  1  6
  7  8  2  0
  9 10  1  0
  9  7  1  0
 11 12  1  0
 10 11  1  1
 12 16  1  0
 13 12  2  0
 13 14  1  0
 14 15  1  0
 16 15  2  0
 17 18  2  0
 17 10  1  0
 19 20  1  0
 20 21  1  0
 21 23  1  0
 21 22  1  1
 23 24  1  6
 23 25  1  0
 24 17  1  0
 25 26  1  0
 27 25  2  0
M  END
$$$$
