LHI.pdb
     RDKit          3D

 27 27  0  0  1  0  0  0  0  0999 V2000
    7.7969  -11.9624   18.9746 C   0  0  0  0  0  0  0  0  0  0  0  0
    8.2018  -13.4158   18.9656 C   0  0  1  0  0  0  0  0  0  0  0  0
    9.7320  -13.4498   18.9536 C   0  0  0  0  0  0  0  0  0  0  0  0
    7.7503  -14.1473   20.2041 C   0  0  0  0  0  0  0  0  0  0  0  0
    8.1971  -15.5897   20.2324 C   0  0  2  0  0  0  0  0  0  0  0  0
    7.2910  -16.3243   19.3614 N   0  0  0  0  0  0  0  0  0  0  0  0
    8.0338  -16.0568   21.6457 C   0  0  0  0  0  0  0  0  0  0  0  0
    6.8975  -16.0287   22.1722 O   0  0  0  0  0  0  0  0  0  0  0  0
    9.1906  -16.5219   22.3480 N   0  0  0  0  0  0  0  0  0  0  0  0
    8.9515  -17.0044   23.7238 C   0  0  1  0  0  0  0  0  0  0  0  0
    9.7586  -18.2724   23.8265 C   0  0  0  0  0  0  0  0  0  0  0  0
    9.0612  -19.4211   23.2023 C   0  0  0  0  0  0  0  0  0  0  0  0
    7.7792  -19.3607   22.6422 C   0  0  0  0  0  0  0  0  0  0  0  0
    7.4867  -20.5760   22.1837 N   0  0  0  0  0  0  0  0  0  0  0  0
    8.5093  -21.4151   22.4172 C   0  0  0  0  0  0  0  0  0  0  0  0
    9.4568  -20.6911   23.0382 N   0  0  0  0  0  0  0  0  0  0  0  0
    9.4002  -15.9444   24.6330 C   0  0  0  0  0  0  0  0  0  0  0  0
   10.5033  -15.3341   24.5213 O   0  0  0  0  0  0  0  0  0  0  0  0
    6.0145  -12.2691   26.1532 C   0  0  0  0  0  0  0  0  0  0  0  0
    7.2682  -13.0612   25.8130 C   0  0  0  0  0  0  0  0  0  0  0  0
    7.8879  -13.6420   27.0476 C   0  0  2  0  0  0  0  0  0  0  0  0
    8.2514  -12.4932   27.9525 C   0  0  0  0  0  0  0  0  0  0  0  0
    9.0400  -14.5304   26.7019 C   0  0  2  0  0  0  0  0  0  0  0  0
    8.6024  -15.5368   25.7110 N   0  0  0  0  0  0  0  0  0  0  0  0
    9.7116  -15.1819   27.8222 C   0  0  0  0  0  0  0  0  0  0  0  0
   10.8113  -14.6849   28.4693 O   0  0  0  0  0  0  0  0  0  0  0  0
    9.2849  -16.3029   28.2750 O   0  0  0  0  0  0  0  0  0  0  0  0
  2  1  1  1
  2  3  1  0
  4  5  1  0
  4  2  1  0
  5  7  1  0
  5  6  1  6
  7  8  2  0
  9 10  1  0
  9  7  1  0
 11 12  1  0
 10 11  1  1
 12 16  1  0
 13 12  2  0
 13 14  1  0
 14 15  1  0
 16 15  2  0
 17 18  2  0
 17 10  1  0
 19 20  1  0
 20 21  1  0
 21 23  1  0
 21 22  1  1
 23 24  1  6
 23 25  1  0
 24 17  1  0
 25 26  1  0
 27 25  2  0
M  END
$$$$
