LHI.pdb
     RDKit          3D

 27 27  0  0  1  0  0  0  0  0999 V2000
    7.5664  -12.5689   18.3053 C   0  0  0  0  0  0  0  0  0  0  0  0
    8.2022  -13.7889   18.9248 C   0  0  1  0  0  0  0  0  0  0  0  0
    9.6137  -13.3830   19.3556 C   0  0  0  0  0  0  0  0  0  0  0  0
    7.4754  -14.2519   20.1618 C   0  0  0  0  0  0  0  0  0  0  0  0
    8.1739  -15.3925   20.8635 C   0  0  2  0  0  0  0  0  0  0  0  0
    7.7663  -16.6132   20.1830 N   0  0  0  0  0  0  0  0  0  0  0  0
    7.6637  -15.4007   22.2713 C   0  0  0  0  0  0  0  0  0  0  0  0
    8.0622  -14.5234   23.0718 O   0  0  0  0  0  0  0  0  0  0  0  0
    6.7322  -16.4177   22.6530 N   0  0  0  0  0  0  0  0  0  0  0  0
    7.0726  -17.1678   23.8795 C   0  0  1  0  0  0  0  0  0  0  0  0
    7.6704  -18.4578   23.3813 C   0  0  0  0  0  0  0  0  0  0  0  0
    6.6977  -19.2452   22.5880 C   0  0  0  0  0  0  0  0  0  0  0  0
    5.3225  -19.2982   22.8465 C   0  0  0  0  0  0  0  0  0  0  0  0
    4.7759  -20.1002   21.9350 N   0  0  0  0  0  0  0  0  0  0  0  0
    5.7229  -20.5661   21.1040 C   0  0  0  0  0  0  0  0  0  0  0  0
    6.8850  -20.0330   21.5200 N   0  0  0  0  0  0  0  0  0  0  0  0
    8.0119  -16.3381   24.6417 C   0  0  0  0  0  0  0  0  0  0  0  0
    9.2197  -16.1502   24.3135 O   0  0  0  0  0  0  0  0  0  0  0  0
    6.0568  -11.9303   26.6247 C   0  0  0  0  0  0  0  0  0  0  0  0
    7.0026  -12.9785   26.0576 C   0  0  0  0  0  0  0  0  0  0  0  0
    7.7589  -13.6678   27.1524 C   0  0  2  0  0  0  0  0  0  0  0  0
    8.6273  -12.6334   27.8205 C   0  0  0  0  0  0  0  0  0  0  0  0
    8.5145  -14.8447   26.6232 C   0  0  2  0  0  0  0  0  0  0  0  0
    7.6068  -15.6862   25.8145 N   0  0  0  0  0  0  0  0  0  0  0  0
    9.2145  -15.6598   27.6113 C   0  0  0  0  0  0  0  0  0  0  0  0
   10.5020  -15.4487   28.0268 O   0  0  0  0  0  0  0  0  0  0  0  0
    8.6308  -16.6592   28.1628 O   0  0  0  0  0  0  0  0  0  0  0  0
  2  1  1  1
  2  3  1  0
  4  5  1  0
  4  2  1  0
  5  7  1  0
  5  6  1  6
  7  8  2  0
  9 10  1  0
  9  7  1  0
 11 12  1  0
 10 11  1  6
 12 16  1  0
 13 12  2  0
 13 14  1  0
 14 15  1  0
 16 15  2  0
 17 18  2  0
 17 10  1  0
 19 20  1  0
 20 21  1  0
 21 23  1  0
 21 22  1  6
 23 24  1  1
 23 25  1  0
 24 17  1  0
 25 26  1  0
 27 25  2  0
M  END
$$$$
