LHI.pdb
     RDKit          3D

 27 27  0  0  1  0  0  0  0  0999 V2000
    6.6743  -12.6635   18.6424 C   0  0  0  0  0  0  0  0  0  0  0  0
    7.9462  -13.3961   18.9918 C   0  0  1  0  0  0  0  0  0  0  0  0
    9.0346  -12.3347   19.1695 C   0  0  0  0  0  0  0  0  0  0  0  0
    7.8394  -14.1463   20.2950 C   0  0  0  0  0  0  0  0  0  0  0  0
    9.1793  -14.5949   20.8282 C   0  0  2  0  0  0  0  0  0  0  0  0
    9.7533  -15.4788   19.8240 N   0  0  0  0  0  0  0  0  0  0  0  0
    8.9009  -15.3638   22.0827 C   0  0  0  0  0  0  0  0  0  0  0  0
    7.9077  -15.0562   22.7814 O   0  0  0  0  0  0  0  0  0  0  0  0
    9.7862  -16.4299   22.4397 N   0  0  0  0  0  0  0  0  0  0  0  0
    9.5068  -17.0860   23.7336 C   0  0  1  0  0  0  0  0  0  0  0  0
   10.2739  -18.3813   23.6752 C   0  0  0  0  0  0  0  0  0  0  0  0
    9.6445  -19.3528   22.7502 C   0  0  0  0  0  0  0  0  0  0  0  0
    8.2630  -19.4982   22.5733 C   0  0  0  0  0  0  0  0  0  0  0  0
    8.0754  -20.4602   21.6722 N   0  0  0  0  0  0  0  0  0  0  0  0
    9.2594  -20.9418   21.2590 C   0  0  0  0  0  0  0  0  0  0  0  0
   10.2007  -20.2536   21.9282 N   0  0  0  0  0  0  0  0  0  0  0  0
    9.9693  -16.1735   24.7847 C   0  0  0  0  0  0  0  0  0  0  0  0
   11.0719  -15.5530   24.7506 O   0  0  0  0  0  0  0  0  0  0  0  0
    6.5018  -12.8049   26.5748 C   0  0  0  0  0  0  0  0  0  0  0  0
    7.7728  -13.5468   26.1888 C   0  0  0  0  0  0  0  0  0  0  0  0
    8.4242  -14.1582   27.3920 C   0  0  2  0  0  0  0  0  0  0  0  0
    8.7704  -13.0359   28.3360 C   0  0  0  0  0  0  0  0  0  0  0  0
    9.5938  -15.0022   26.9975 C   0  0  2  0  0  0  0  0  0  0  0  0
    9.1866  -15.9316   25.9221 N   0  0  0  0  0  0  0  0  0  0  0  0
   10.2551  -15.7328   28.0744 C   0  0  0  0  0  0  0  0  0  0  0  0
   11.2776  -15.2392   28.8397 O   0  0  0  0  0  0  0  0  0  0  0  0
    9.8940  -16.9272   28.3689 O   0  0  0  0  0  0  0  0  0  0  0  0
  2  1  1  1
  2  3  1  0
  4  5  1  0
  4  2  1  0
  5  7  1  0
  5  6  1  6
  7  8  2  0
  9 10  1  0
  9  7  1  0
 11 12  1  0
 10 11  1  6
 12 16  1  0
 13 12  2  0
 13 14  1  0
 14 15  1  0
 16 15  2  0
 17 18  2  0
 17 10  1  0
 19 20  1  0
 20 21  1  0
 21 23  1  0
 21 22  1  1
 23 24  1  6
 23 25  1  0
 24 17  1  0
 25 26  1  0
 27 25  2  0
M  END
$$$$
