LHI.pdb
     RDKit          3D

 27 27  0  0  1  0  0  0  0  0999 V2000
    7.5696  -11.9801   19.3702 C   0  0  0  0  0  0  0  0  0  0  0  0
    8.1820  -13.3460   19.1811 C   0  0  1  0  0  0  0  0  0  0  0  0
    9.6584  -13.1269   18.8422 C   0  0  0  0  0  0  0  0  0  0  0  0
    8.1325  -14.1783   20.4371 C   0  0  0  0  0  0  0  0  0  0  0  0
    8.8297  -15.5099   20.2894 C   0  0  2  0  0  0  0  0  0  0  0  0
    7.9794  -16.3344   19.4430 N   0  0  0  0  0  0  0  0  0  0  0  0
    8.9079  -16.1025   21.6624 C   0  0  0  0  0  0  0  0  0  0  0  0
    7.8498  -16.3151   22.2984 O   0  0  0  0  0  0  0  0  0  0  0  0
   10.1981  -16.4068   22.2012 N   0  0  0  0  0  0  0  0  0  0  0  0
   10.1991  -17.0578   23.5275 C   0  0  1  0  0  0  0  0  0  0  0  0
   11.3917  -17.9779   23.4972 C   0  0  0  0  0  0  0  0  0  0  0  0
   11.4922  -18.7900   24.7324 C   0  0  0  0  0  0  0  0  0  0  0  0
   10.5345  -18.8008   25.7539 C   0  0  0  0  0  0  0  0  0  0  0  0
   10.9633  -19.6407   26.6938 N   0  0  0  0  0  0  0  0  0  0  0  0
   12.1437  -20.1713   26.3338 C   0  0  0  0  0  0  0  0  0  0  0  0
   12.4468  -19.6395   25.1368 N   0  0  0  0  0  0  0  0  0  0  0  0
   10.3030  -15.9903   24.5281 C   0  0  0  0  0  0  0  0  0  0  0  0
   11.1606  -15.0604   24.4867 O   0  0  0  0  0  0  0  0  0  0  0  0
    6.2819  -13.2057   25.6583 C   0  0  0  0  0  0  0  0  0  0  0  0
    7.7168  -13.6984   25.5430 C   0  0  0  0  0  0  0  0  0  0  0  0
    8.2035  -14.2452   26.8506 C   0  0  2  0  0  0  0  0  0  0  0  0
    8.2170  -13.1068   27.8378 C   0  0  0  0  0  0  0  0  0  0  0  0
    9.5260  -14.9240   26.6887 C   0  0  2  0  0  0  0  0  0  0  0  0
    9.4267  -15.9419   25.6209 N   0  0  0  0  0  0  0  0  0  0  0  0
   10.1026  -15.5103   27.8948 C   0  0  0  0  0  0  0  0  0  0  0  0
    9.7648  -16.7348   28.4060 O   0  0  0  0  0  0  0  0  0  0  0  0
   10.9939  -14.8776   28.5647 O   0  0  0  0  0  0  0  0  0  0  0  0
  2  1  1  1
  2  3  1  0
  4  5  1  0
  4  2  1  0
  5  7  1  0
  5  6  1  6
  7  8  2  0
  9 10  1  0
  9  7  1  0
 11 12  1  0
 10 11  1  6
 12 16  1  0
 13 12  2  0
 13 14  1  0
 14 15  1  0
 16 15  2  0
 17 18  2  0
 17 10  1  0
 19 20  1  0
 20 21  1  0
 21 23  1  0
 21 22  1  1
 23 24  1  6
 23 25  1  0
 24 17  1  0
 25 26  1  0
 27 25  2  0
M  END
$$$$
