LHI.pdb
     RDKit          3D

 27 27  0  0  1  0  0  0  0  0999 V2000
    9.4769  -12.7648   20.1399 C   0  0  0  0  0  0  0  0  0  0  0  0
    8.2080  -13.4434   20.5939 C   0  0  1  0  0  0  0  0  0  0  0  0
    7.0789  -12.4217   20.4388 C   0  0  0  0  0  0  0  0  0  0  0  0
    7.8527  -14.6325   19.7380 C   0  0  0  0  0  0  0  0  0  0  0  0
    8.8131  -15.7861   19.9041 C   0  0  2  0  0  0  0  0  0  0  0  0
    8.3928  -16.8173   18.9665 N   0  0  0  0  0  0  0  0  0  0  0  0
    8.6467  -16.2779   21.3087 C   0  0  0  0  0  0  0  0  0  0  0  0
    7.5158  -16.6526   21.6960 O   0  0  0  0  0  0  0  0  0  0  0  0
    9.7943  -16.3023   22.1631 N   0  0  0  0  0  0  0  0  0  0  0  0
    9.5659  -16.8282   23.5247 C   0  0  1  0  0  0  0  0  0  0  0  0
   10.5283  -17.9802   23.6525 C   0  0  0  0  0  0  0  0  0  0  0  0
    9.9957  -19.2145   23.0292 C   0  0  0  0  0  0  0  0  0  0  0  0
   10.0976  -19.5218   21.6668 C   0  0  0  0  0  0  0  0  0  0  0  0
    9.5082  -20.7008   21.4788 N   0  0  0  0  0  0  0  0  0  0  0  0
    9.0330  -21.1695   22.6446 C   0  0  0  0  0  0  0  0  0  0  0  0
    9.3407  -20.2487   23.5747 N   0  0  0  0  0  0  0  0  0  0  0  0
    9.8341  -15.7293   24.4584 C   0  0  0  0  0  0  0  0  0  0  0  0
   10.7823  -14.9015   24.3260 O   0  0  0  0  0  0  0  0  0  0  0  0
    6.0575  -12.5824   25.9015 C   0  0  0  0  0  0  0  0  0  0  0  0
    7.4175  -13.2065   25.6259 C   0  0  0  0  0  0  0  0  0  0  0  0
    8.0282  -13.7409   26.8858 C   0  0  2  0  0  0  0  0  0  0  0  0
    8.2040  -12.5792   27.8292 C   0  0  0  0  0  0  0  0  0  0  0  0
    9.2931  -14.4836   26.5950 C   0  0  2  0  0  0  0  0  0  0  0  0
    9.0254  -15.5306   25.5859 N   0  0  0  0  0  0  0  0  0  0  0  0
    9.9852  -15.0552   27.7461 C   0  0  0  0  0  0  0  0  0  0  0  0
   10.9093  -14.3930   28.5094 O   0  0  0  0  0  0  0  0  0  0  0  0
    9.7508  -16.2605   28.1148 O   0  0  0  0  0  0  0  0  0  0  0  0
  2  1  1  6
  2  3  1  0
  4  5  1  0
  4  2  1  0
  5  7  1  0
  5  6  1  6
  7  8  2  0
  9 10  1  0
  9  7  1  0
 11 12  1  0
 10 11  1  1
 12 16  1  0
 13 12  2  0
 13 14  1  0
 14 15  1  0
 16 15  2  0
 17 18  2  0
 17 10  1  0
 19 20  1  0
 20 21  1  0
 21 23  1  0
 21 22  1  1
 23 24  1  6
 23 25  1  0
 24 17  1  0
 25 26  1  0
 27 25  2  0
M  END
$$$$
