LHI.pdb
     RDKit          3D

 27 27  0  0  1  0  0  0  0  0999 V2000
    7.8875  -12.2534   18.5836 C   0  0  0  0  0  0  0  0  0  0  0  0
    8.2870  -13.7002   18.7381 C   0  0  1  0  0  0  0  0  0  0  0  0
    9.7248  -13.7095   19.2627 C   0  0  0  0  0  0  0  0  0  0  0  0
    7.4391  -14.4269   19.7508 C   0  0  0  0  0  0  0  0  0  0  0  0
    7.9027  -15.8425   20.0003 C   0  0  2  0  0  0  0  0  0  0  0  0
    7.2041  -16.6855   19.0408 N   0  0  0  0  0  0  0  0  0  0  0  0
    7.4718  -16.1911   21.3914 C   0  0  0  0  0  0  0  0  0  0  0  0
    6.2491  -16.2430   21.6586 O   0  0  0  0  0  0  0  0  0  0  0  0
    8.4804  -16.4545   22.3717 N   0  0  0  0  0  0  0  0  0  0  0  0
    7.9858  -16.8418   23.7089 C   0  0  1  0  0  0  0  0  0  0  0  0
    8.3035  -18.3103   23.8199 C   0  0  0  0  0  0  0  0  0  0  0  0
    7.9631  -18.8478   25.1581 C   0  0  0  0  0  0  0  0  0  0  0  0
    8.7489  -18.6763   26.3043 C   0  0  0  0  0  0  0  0  0  0  0  0
    8.1301  -19.2944   27.3082 N   0  0  0  0  0  0  0  0  0  0  0  0
    6.9894  -19.8538   26.8718 C   0  0  0  0  0  0  0  0  0  0  0  0
    6.9079  -19.5697   25.5603 N   0  0  0  0  0  0  0  0  0  0  0  0
    8.6962  -16.0093   24.6856 C   0  0  0  0  0  0  0  0  0  0  0  0
    9.9158  -15.6856   24.5877 O   0  0  0  0  0  0  0  0  0  0  0  0
    6.1758  -11.8287   26.5747 C   0  0  0  0  0  0  0  0  0  0  0  0
    7.2484  -12.8116   26.1294 C   0  0  0  0  0  0  0  0  0  0  0  0
    7.7687  -13.6017   27.2916 C   0  0  2  0  0  0  0  0  0  0  0  0
    8.3796  -12.6250   28.2630 C   0  0  0  0  0  0  0  0  0  0  0  0
    8.7083  -14.6715   26.8348 C   0  0  2  0  0  0  0  0  0  0  0  0
    8.0383  -15.5104   25.8182 N   0  0  0  0  0  0  0  0  0  0  0  0
    9.2895  -15.5093   27.8794 C   0  0  0  0  0  0  0  0  0  0  0  0
   10.4730  -15.2523   28.5181 O   0  0  0  0  0  0  0  0  0  0  0  0
    8.6924  -16.5758   28.2666 O   0  0  0  0  0  0  0  0  0  0  0  0
  2  1  1  1
  2  3  1  0
  4  5  1  0
  4  2  1  0
  5  7  1  0
  5  6  1  6
  7  8  2  0
  9 10  1  0
  9  7  1  0
 11 12  1  0
 10 11  1  1
 12 16  1  0
 13 12  2  0
 13 14  1  0
 14 15  1  0
 16 15  2  0
 17 18  2  0
 17 10  1  0
 19 20  1  0
 20 21  1  0
 21 23  1  0
 21 22  1  1
 23 24  1  6
 23 25  1  0
 24 17  1  0
 25 26  1  0
 27 25  2  0
M  END
$$$$
