LHI.pdb
     RDKit          3D

 27 27  0  0  1  0  0  0  0  0999 V2000
    8.1767  -12.2473   18.7811 C   0  0  0  0  0  0  0  0  0  0  0  0
    8.3702  -13.7435   18.7980 C   0  0  1  0  0  0  0  0  0  0  0  0
    9.7090  -14.0097   19.4905 C   0  0  0  0  0  0  0  0  0  0  0  0
    7.3070  -14.4529   19.5975 C   0  0  0  0  0  0  0  0  0  0  0  0
    7.6205  -15.9116   19.8313 C   0  0  2  0  0  0  0  0  0  0  0  0
    6.7670  -16.6716   18.9295 N   0  0  0  0  0  0  0  0  0  0  0  0
    7.2468  -16.2036   21.2516 C   0  0  0  0  0  0  0  0  0  0  0  0
    6.0582  -16.0492   21.6159 O   0  0  0  0  0  0  0  0  0  0  0  0
    8.2687  -16.6521   22.1472 N   0  0  0  0  0  0  0  0  0  0  0  0
    7.8256  -16.9482   23.5252 C   0  0  1  0  0  0  0  0  0  0  0  0
    8.1769  -18.3985   23.7329 C   0  0  0  0  0  0  0  0  0  0  0  0
    7.7532  -18.8819   25.0680 C   0  0  0  0  0  0  0  0  0  0  0  0
    6.9432  -18.1590   25.9523 C   0  0  0  0  0  0  0  0  0  0  0  0
    6.7775  -18.9055   27.0423 N   0  0  0  0  0  0  0  0  0  0  0  0
    7.4356  -20.0689   26.9084 C   0  0  0  0  0  0  0  0  0  0  0  0
    8.0225  -20.0331   25.6993 N   0  0  0  0  0  0  0  0  0  0  0  0
    8.5498  -16.0329   24.4135 C   0  0  0  0  0  0  0  0  0  0  0  0
    9.7315  -15.6300   24.2061 O   0  0  0  0  0  0  0  0  0  0  0  0
    5.7406  -12.0130   26.0858 C   0  0  0  0  0  0  0  0  0  0  0  0
    6.8906  -12.9160   25.6652 C   0  0  0  0  0  0  0  0  0  0  0  0
    7.5695  -13.5129   26.8605 C   0  0  2  0  0  0  0  0  0  0  0  0
    8.1317  -12.3758   27.6738 C   0  0  0  0  0  0  0  0  0  0  0  0
    8.5888  -14.5260   26.4476 C   0  0  2  0  0  0  0  0  0  0  0  0
    7.9498  -15.5383   25.5797 N   0  0  0  0  0  0  0  0  0  0  0  0
    9.3259  -15.1769   27.5264 C   0  0  0  0  0  0  0  0  0  0  0  0
    8.8990  -16.2871   28.2046 O   0  0  0  0  0  0  0  0  0  0  0  0
   10.4607  -14.7190   27.9088 O   0  0  0  0  0  0  0  0  0  0  0  0
  2  1  1  1
  2  3  1  0
  4  5  1  0
  4  2  1  0
  5  7  1  0
  5  6  1  6
  7  8  2  0
  9 10  1  0
  9  7  1  0
 11 12  1  0
 10 11  1  1
 12 16  1  0
 13 12  2  0
 13 14  1  0
 14 15  1  0
 16 15  2  0
 17 18  2  0
 17 10  1  0
 19 20  1  0
 20 21  1  0
 21 23  1  0
 21 22  1  6
 23 24  1  1
 23 25  1  0
 24 17  1  0
 25 26  1  0
 27 25  2  0
M  END
$$$$
