LHI.pdb
     RDKit          3D

 27 27  0  0  1  0  0  0  0  0999 V2000
    7.5472  -12.1200   19.2140 C   0  0  0  0  0  0  0  0  0  0  0  0
    8.1104  -13.5197   19.1964 C   0  0  1  0  0  0  0  0  0  0  0  0
    9.6347  -13.3839   19.1688 C   0  0  0  0  0  0  0  0  0  0  0  0
    7.7556  -14.2991   20.4370 C   0  0  0  0  0  0  0  0  0  0  0  0
    8.4018  -15.6634   20.4808 C   0  0  2  0  0  0  0  0  0  0  0  0
    7.5709  -16.5448   19.6732 N   0  0  0  0  0  0  0  0  0  0  0  0
    8.3680  -16.1032   21.9118 C   0  0  0  0  0  0  0  0  0  0  0  0
    7.2636  -16.2102   22.4933 O   0  0  0  0  0  0  0  0  0  0  0  0
    9.6079  -16.3876   22.5672 N   0  0  0  0  0  0  0  0  0  0  0  0
    9.4967  -16.9272   23.9381 C   0  0  1  0  0  0  0  0  0  0  0  0
   10.4542  -18.0899   23.9667 C   0  0  0  0  0  0  0  0  0  0  0  0
    9.8546  -19.3116   23.3805 C   0  0  0  0  0  0  0  0  0  0  0  0
   10.0743  -19.7515   22.0694 C   0  0  0  0  0  0  0  0  0  0  0  0
    9.3755  -20.8725   21.9025 N   0  0  0  0  0  0  0  0  0  0  0  0
    8.7185  -21.1786   23.0335 C   0  0  0  0  0  0  0  0  0  0  0  0
    9.0244  -20.2150   23.9198 N   0  0  0  0  0  0  0  0  0  0  0  0
    9.8593  -15.8418   24.8557 C   0  0  0  0  0  0  0  0  0  0  0  0
   10.8869  -15.1149   24.7236 O   0  0  0  0  0  0  0  0  0  0  0  0
    6.3586  -12.3198   26.3007 C   0  0  0  0  0  0  0  0  0  0  0  0
    7.6457  -13.0772   26.0100 C   0  0  0  0  0  0  0  0  0  0  0  0
    8.2126  -13.6733   27.2627 C   0  0  2  0  0  0  0  0  0  0  0  0
    8.4784  -12.5406   28.2203 C   0  0  0  0  0  0  0  0  0  0  0  0
    9.4157  -14.5088   26.9618 C   0  0  2  0  0  0  0  0  0  0  0  0
    9.0582  -15.5416   25.9661 N   0  0  0  0  0  0  0  0  0  0  0  0
   10.0803  -15.1201   28.1088 C   0  0  0  0  0  0  0  0  0  0  0  0
    9.8506  -16.3933   28.5570 O   0  0  0  0  0  0  0  0  0  0  0  0
   10.9511  -14.4637   28.7831 O   0  0  0  0  0  0  0  0  0  0  0  0
  2  1  1  1
  2  3  1  0
  4  5  1  0
  4  2  1  0
  5  7  1  0
  5  6  1  6
  7  8  2  0
  9 10  1  0
  9  7  1  0
 11 12  1  0
 10 11  1  6
 12 16  1  0
 13 12  2  0
 13 14  1  0
 14 15  1  0
 16 15  2  0
 17 18  2  0
 17 10  1  0
 19 20  1  0
 20 21  1  0
 21 23  1  0
 21 22  1  1
 23 24  1  6
 23 25  1  0
 24 17  1  0
 25 26  1  0
 27 25  2  0
M  END
$$$$
