LHI.pdb
     RDKit          3D

 27 27  0  0  1  0  0  0  0  0999 V2000
    9.4809  -12.8942   19.7446 C   0  0  0  0  0  0  0  0  0  0  0  0
    8.2860  -13.3285   20.5570 C   0  0  1  0  0  0  0  0  0  0  0  0
    7.3595  -12.1150   20.6664 C   0  0  0  0  0  0  0  0  0  0  0  0
    7.5021  -14.4277   19.8862 C   0  0  0  0  0  0  0  0  0  0  0  0
    8.2290  -15.7515   19.8816 C   0  0  2  0  0  0  0  0  0  0  0  0
    7.4115  -16.6737   19.1068 N   0  0  0  0  0  0  0  0  0  0  0  0
    8.2941  -16.2047   21.3073 C   0  0  0  0  0  0  0  0  0  0  0  0
    7.2356  -16.5207   21.8981 O   0  0  0  0  0  0  0  0  0  0  0  0
    9.5728  -16.2611   21.9472 N   0  0  0  0  0  0  0  0  0  0  0  0
    9.6006  -16.9366   23.2609 C   0  0  1  0  0  0  0  0  0  0  0  0
   10.7172  -17.9415   23.1469 C   0  0  0  0  0  0  0  0  0  0  0  0
   10.8825  -18.7248   24.3937 C   0  0  0  0  0  0  0  0  0  0  0  0
   10.1435  -18.5160   25.5647 C   0  0  0  0  0  0  0  0  0  0  0  0
   10.5661  -19.4002   26.4660 N   0  0  0  0  0  0  0  0  0  0  0  0
   11.5358  -20.1667   25.9400 C   0  0  0  0  0  0  0  0  0  0  0  0
   11.7124  -19.7381   24.6780 N   0  0  0  0  0  0  0  0  0  0  0  0
    9.8410  -15.8997   24.2701 C   0  0  0  0  0  0  0  0  0  0  0  0
   10.7697  -15.0428   24.1994 O   0  0  0  0  0  0  0  0  0  0  0  0
    6.1949  -12.6970   25.5733 C   0  0  0  0  0  0  0  0  0  0  0  0
    7.5320  -13.3994   25.3906 C   0  0  0  0  0  0  0  0  0  0  0  0
    8.0004  -14.0059   26.6784 C   0  0  2  0  0  0  0  0  0  0  0  0
    8.1446  -12.8869   27.6772 C   0  0  0  0  0  0  0  0  0  0  0  0
    9.2500  -14.8011   26.4731 C   0  0  2  0  0  0  0  0  0  0  0  0
    9.0256  -15.7994   25.4058 N   0  0  0  0  0  0  0  0  0  0  0  0
    9.8079  -15.4444   27.6588 C   0  0  0  0  0  0  0  0  0  0  0  0
   10.8454  -14.9475   28.4014 O   0  0  0  0  0  0  0  0  0  0  0  0
    9.3316  -16.5573   28.0811 O   0  0  0  0  0  0  0  0  0  0  0  0
  2  1  1  6
  2  3  1  0
  4  5  1  0
  4  2  1  0
  5  7  1  0
  5  6  1  6
  7  8  2  0
  9 10  1  0
  9  7  1  0
 11 12  1  0
 10 11  1  6
 12 16  1  0
 13 12  2  0
 13 14  1  0
 14 15  1  0
 16 15  2  0
 17 18  2  0
 17 10  1  0
 19 20  1  0
 20 21  1  0
 21 23  1  0
 21 22  1  1
 23 24  1  6
 23 25  1  0
 24 17  1  0
 25 26  1  0
 27 25  2  0
M  END
$$$$
