LHI.pdb
     RDKit          3D

 27 27  0  0  1  0  0  0  0  0999 V2000
    6.7967  -12.7239   17.5044 C   0  0  0  0  0  0  0  0  0  0  0  0
    7.8879  -13.5802   18.0982 C   0  0  1  0  0  0  0  0  0  0  0  0
    9.1298  -12.6940   18.2206 C   0  0  0  0  0  0  0  0  0  0  0  0
    7.5491  -14.0655   19.4847 C   0  0  0  0  0  0  0  0  0  0  0  0
    8.7277  -14.6870   20.1959 C   0  0  2  0  0  0  0  0  0  0  0  0
    9.2315  -15.7404   19.3265 N   0  0  0  0  0  0  0  0  0  0  0  0
    8.1932  -15.2841   21.4608 C   0  0  0  0  0  0  0  0  0  0  0  0
    7.2040  -14.7543   22.0175 O   0  0  0  0  0  0  0  0  0  0  0  0
    8.8368  -16.4471   21.9909 N   0  0  0  0  0  0  0  0  0  0  0  0
    8.3260  -16.9220   23.2933 C   0  0  1  0  0  0  0  0  0  0  0  0
    8.8269  -18.3386   23.4031 C   0  0  0  0  0  0  0  0  0  0  0  0
    8.0623  -19.2621   22.5325 C   0  0  0  0  0  0  0  0  0  0  0  0
    6.6822  -19.4793   22.6262 C   0  0  0  0  0  0  0  0  0  0  0  0
    6.3537  -20.3672   21.6901 N   0  0  0  0  0  0  0  0  0  0  0  0
    7.4458  -20.7334   20.9988 C   0  0  0  0  0  0  0  0  0  0  0  0
    8.4744  -20.0486   21.5286 N   0  0  0  0  0  0  0  0  0  0  0  0
    8.8676  -16.0238   24.3187 C   0  0  0  0  0  0  0  0  0  0  0  0
   10.0733  -15.6413   24.3614 O   0  0  0  0  0  0  0  0  0  0  0  0
    7.0678  -11.0194   27.0350 C   0  0  0  0  0  0  0  0  0  0  0  0
    7.9935  -12.2218   27.1453 C   0  0  0  0  0  0  0  0  0  0  0  0
    7.5302  -13.3392   26.2607 C   0  0  2  0  0  0  0  0  0  0  0  0
    6.1331  -13.7048   26.6910 C   0  0  0  0  0  0  0  0  0  0  0  0
    8.4937  -14.4823   26.2918 C   0  0  2  0  0  0  0  0  0  0  0  0
    8.0493  -15.5236   25.3409 N   0  0  0  0  0  0  0  0  0  0  0  0
    8.7545  -15.0712   27.6018 C   0  0  0  0  0  0  0  0  0  0  0  0
    9.5801  -14.5302   28.5506 O   0  0  0  0  0  0  0  0  0  0  0  0
    8.1976  -16.1745   27.9426 O   0  0  0  0  0  0  0  0  0  0  0  0
  2  1  1  1
  2  3  1  0
  4  5  1  0
  4  2  1  0
  5  7  1  0
  5  6  1  6
  7  8  2  0
  9 10  1  0
  9  7  1  0
 11 12  1  0
 10 11  1  1
 12 16  1  0
 13 12  2  0
 13 14  1  0
 14 15  1  0
 16 15  2  0
 17 18  2  0
 17 10  1  0
 19 20  1  0
 20 21  1  0
 21 23  1  0
 21 22  1  1
 23 24  1  6
 23 25  1  0
 24 17  1  0
 25 26  1  0
 27 25  2  0
M  END
$$$$
