LHI.pdb
     RDKit          3D

 27 27  0  0  1  0  0  0  0  0999 V2000
    7.6087  -11.8687   19.3639 C   0  0  0  0  0  0  0  0  0  0  0  0
    8.1233  -13.2840   19.2706 C   0  0  1  0  0  0  0  0  0  0  0  0
    9.6459  -13.1947   19.1425 C   0  0  0  0  0  0  0  0  0  0  0  0
    7.8276  -14.0874   20.5116 C   0  0  0  0  0  0  0  0  0  0  0  0
    8.3861  -15.4894   20.4528 C   0  0  2  0  0  0  0  0  0  0  0  0
    7.4875  -16.2614   19.6068 N   0  0  0  0  0  0  0  0  0  0  0  0
    8.3480  -16.0203   21.8525 C   0  0  0  0  0  0  0  0  0  0  0  0
    7.2469  -16.1112   22.4428 O   0  0  0  0  0  0  0  0  0  0  0  0
    9.5801  -16.4075   22.4686 N   0  0  0  0  0  0  0  0  0  0  0  0
    9.4627  -16.9874   23.8224 C   0  0  1  0  0  0  0  0  0  0  0  0
   10.4380  -18.1357   23.8288 C   0  0  0  0  0  0  0  0  0  0  0  0
    9.8729  -19.3417   23.1795 C   0  0  0  0  0  0  0  0  0  0  0  0
    8.5862  -19.4179   22.6323 C   0  0  0  0  0  0  0  0  0  0  0  0
    8.4329  -20.6467   22.1432 N   0  0  0  0  0  0  0  0  0  0  0  0
    9.5496  -21.3656   22.3449 C   0  0  0  0  0  0  0  0  0  0  0  0
   10.4128  -20.5517   22.9774 N   0  0  0  0  0  0  0  0  0  0  0  0
    9.7984  -15.9231   24.7743 C   0  0  0  0  0  0  0  0  0  0  0  0
   10.8017  -15.1602   24.6603 O   0  0  0  0  0  0  0  0  0  0  0  0
    6.2562  -12.5443   26.3545 C   0  0  0  0  0  0  0  0  0  0  0  0
    7.5512  -13.2773   26.0374 C   0  0  0  0  0  0  0  0  0  0  0  0
    8.1450  -13.8783   27.2752 C   0  0  2  0  0  0  0  0  0  0  0  0
    8.4202  -12.7507   28.2361 C   0  0  0  0  0  0  0  0  0  0  0  0
    9.3482  -14.7030   26.9464 C   0  0  2  0  0  0  0  0  0  0  0  0
    8.9970  -15.6864   25.8996 N   0  0  0  0  0  0  0  0  0  0  0  0
   10.0001  -15.3700   28.0693 C   0  0  0  0  0  0  0  0  0  0  0  0
   10.9590  -14.8023   28.8649 O   0  0  0  0  0  0  0  0  0  0  0  0
    9.6923  -16.5755   28.3788 O   0  0  0  0  0  0  0  0  0  0  0  0
  2  1  1  1
  2  3  1  0
  4  5  1  0
  4  2  1  0
  5  7  1  0
  5  6  1  6
  7  8  2  0
  9 10  1  0
  9  7  1  0
 11 12  1  0
 10 11  1  6
 12 16  1  0
 13 12  2  0
 13 14  1  0
 14 15  1  0
 16 15  2  0
 17 18  2  0
 17 10  1  0
 19 20  1  0
 20 21  1  0
 21 23  1  0
 21 22  1  1
 23 24  1  6
 23 25  1  0
 24 17  1  0
 25 26  1  0
 27 25  2  0
M  END
$$$$
