LHI.pdb
     RDKit          3D

 27 27  0  0  1  0  0  0  0  0999 V2000
    7.6585  -11.8763   18.9677 C   0  0  0  0  0  0  0  0  0  0  0  0
    8.2788  -13.2470   18.8544 C   0  0  1  0  0  0  0  0  0  0  0  0
    9.7556  -13.0975   19.2278 C   0  0  0  0  0  0  0  0  0  0  0  0
    7.6737  -14.2347   19.8193 C   0  0  0  0  0  0  0  0  0  0  0  0
    8.5252  -15.4669   20.0126 C   0  0  2  0  0  0  0  0  0  0  0  0
    8.1325  -16.4121   18.9775 N   0  0  0  0  0  0  0  0  0  0  0  0
    8.1766  -16.0163   21.3613 C   0  0  0  0  0  0  0  0  0  0  0  0
    6.9721  -16.1027   21.6943 O   0  0  0  0  0  0  0  0  0  0  0  0
    9.2403  -16.4258   22.2265 N   0  0  0  0  0  0  0  0  0  0  0  0
    8.8291  -16.8998   23.5641 C   0  0  1  0  0  0  0  0  0  0  0  0
    9.4666  -18.2583   23.6973 C   0  0  0  0  0  0  0  0  0  0  0  0
    8.7177  -19.2939   22.9476 C   0  0  0  0  0  0  0  0  0  0  0  0
    9.0686  -19.7601   21.6746 C   0  0  0  0  0  0  0  0  0  0  0  0
    8.1705  -20.6785   21.3246 N   0  0  0  0  0  0  0  0  0  0  0  0
    7.2611  -20.8296   22.3018 C   0  0  0  0  0  0  0  0  0  0  0  0
    7.6134  -19.9770   23.2798 N   0  0  0  0  0  0  0  0  0  0  0  0
    9.3230  -15.9187   24.5362 C   0  0  0  0  0  0  0  0  0  0  0  0
   10.4832  -15.4137   24.5073 O   0  0  0  0  0  0  0  0  0  0  0  0
    5.9788  -12.1434   26.0541 C   0  0  0  0  0  0  0  0  0  0  0  0
    7.2157  -12.9597   25.7093 C   0  0  0  0  0  0  0  0  0  0  0  0
    7.8069  -13.5834   26.9369 C   0  0  2  0  0  0  0  0  0  0  0  0
    8.1716  -12.4655   27.8792 C   0  0  0  0  0  0  0  0  0  0  0  0
    8.9518  -14.4785   26.5850 C   0  0  2  0  0  0  0  0  0  0  0  0
    8.5071  -15.4726   25.5850 N   0  0  0  0  0  0  0  0  0  0  0  0
    9.6165  -15.1453   27.7006 C   0  0  0  0  0  0  0  0  0  0  0  0
   10.6457  -14.6108   28.4285 O   0  0  0  0  0  0  0  0  0  0  0  0
    9.2521  -16.3179   28.0693 O   0  0  0  0  0  0  0  0  0  0  0  0
  2  1  1  1
  2  3  1  0
  4  5  1  0
  4  2  1  0
  5  7  1  0
  5  6  1  6
  7  8  2  0
  9 10  1  0
  9  7  1  0
 11 12  1  0
 10 11  1  1
 12 16  1  0
 13 12  2  0
 13 14  1  0
 14 15  1  0
 16 15  2  0
 17 18  2  0
 17 10  1  0
 19 20  1  0
 20 21  1  0
 21 23  1  0
 21 22  1  1
 23 24  1  6
 23 25  1  0
 24 17  1  0
 25 26  1  0
 27 25  2  0
M  END
$$$$
