LHI.pdb
     RDKit          3D

 27 27  0  0  1  0  0  0  0  0999 V2000
    7.4548  -11.9826   19.5606 C   0  0  0  0  0  0  0  0  0  0  0  0
    7.7335  -13.4626   19.4693 C   0  0  1  0  0  0  0  0  0  0  0  0
    9.2150  -13.6138   19.1156 C   0  0  0  0  0  0  0  0  0  0  0  0
    7.5147  -14.1720   20.7815 C   0  0  0  0  0  0  0  0  0  0  0  0
    7.6552  -15.6717   20.6711 C   0  0  2  0  0  0  0  0  0  0  0  0
    6.4640  -16.1530   19.9865 N   0  0  0  0  0  0  0  0  0  0  0  0
    7.6843  -16.1993   22.0722 C   0  0  0  0  0  0  0  0  0  0  0  0
    6.6174  -16.2593   22.7260 O   0  0  0  0  0  0  0  0  0  0  0  0
    8.9393  -16.6191   22.6167 N   0  0  0  0  0  0  0  0  0  0  0  0
    8.8906  -17.1601   23.9907 C   0  0  1  0  0  0  0  0  0  0  0  0
    9.6728  -18.4457   23.9199 C   0  0  0  0  0  0  0  0  0  0  0  0
    9.7308  -19.1281   25.2338 C   0  0  0  0  0  0  0  0  0  0  0  0
    9.0954  -18.6688   26.3941 C   0  0  0  0  0  0  0  0  0  0  0  0
    9.3715  -19.5329   27.3687 N   0  0  0  0  0  0  0  0  0  0  0  0
   10.1490  -20.5231   26.9000 C   0  0  0  0  0  0  0  0  0  0  0  0
   10.3554  -20.2564   25.5985 N   0  0  0  0  0  0  0  0  0  0  0  0
    9.4921  -16.1513   24.8693 C   0  0  0  0  0  0  0  0  0  0  0  0
   10.5922  -15.5712   24.6342 O   0  0  0  0  0  0  0  0  0  0  0  0
    6.4566  -12.3311   26.4919 C   0  0  0  0  0  0  0  0  0  0  0  0
    7.6478  -13.1983   26.1126 C   0  0  0  0  0  0  0  0  0  0  0  0
    8.3030  -13.7736   27.3314 C   0  0  2  0  0  0  0  0  0  0  0  0
    8.7587  -12.6187   28.1854 C   0  0  0  0  0  0  0  0  0  0  0  0
    9.3982  -14.7196   26.9552 C   0  0  2  0  0  0  0  0  0  0  0  0
    8.8577  -15.7624   26.0571 N   0  0  0  0  0  0  0  0  0  0  0  0
   10.1297  -15.3323   28.0598 C   0  0  0  0  0  0  0  0  0  0  0  0
   11.2948  -14.8460   28.5897 O   0  0  0  0  0  0  0  0  0  0  0  0
    9.6969  -16.4052   28.6122 O   0  0  0  0  0  0  0  0  0  0  0  0
  2  1  1  1
  2  3  1  0
  4  5  1  0
  4  2  1  0
  5  7  1  0
  5  6  1  6
  7  8  2  0
  9 10  1  0
  9  7  1  0
 11 12  1  0
 10 11  1  6
 12 16  1  0
 13 12  2  0
 13 14  1  0
 14 15  1  0
 16 15  2  0
 17 18  2  0
 17 10  1  0
 19 20  1  0
 20 21  1  0
 21 23  1  0
 21 22  1  1
 23 24  1  1
 23 25  1  0
 24 17  1  0
 25 26  1  0
 27 25  2  0
M  END
$$$$
