LHI.pdb
     RDKit          3D

 27 27  0  0  1  0  0  0  0  0999 V2000
    7.6111  -12.0238   19.2780 C   0  0  0  0  0  0  0  0  0  0  0  0
    7.9921  -13.4837   19.2912 C   0  0  1  0  0  0  0  0  0  0  0  0
    9.5191  -13.5441   19.2058 C   0  0  0  0  0  0  0  0  0  0  0  0
    7.5905  -14.1723   20.5707 C   0  0  0  0  0  0  0  0  0  0  0  0
    8.0450  -15.6112   20.6333 C   0  0  2  0  0  0  0  0  0  0  0  0
    7.1573  -16.3675   19.7619 N   0  0  0  0  0  0  0  0  0  0  0  0
    7.8616  -16.0527   22.0523 C   0  0  0  0  0  0  0  0  0  0  0  0
    6.7290  -15.9626   22.5799 O   0  0  0  0  0  0  0  0  0  0  0  0
    8.9955  -16.5657   22.7587 N   0  0  0  0  0  0  0  0  0  0  0  0
    8.7198  -17.0970   24.1095 C   0  0  1  0  0  0  0  0  0  0  0  0
    9.2891  -18.4917   24.0917 C   0  0  0  0  0  0  0  0  0  0  0  0
    8.4203  -19.4317   23.3454 C   0  0  0  0  0  0  0  0  0  0  0  0
    7.2453  -19.9988   23.8541 C   0  0  0  0  0  0  0  0  0  0  0  0
    6.7396  -20.7857   22.9066 N   0  0  0  0  0  0  0  0  0  0  0  0
    7.5236  -20.7563   21.8162 C   0  0  0  0  0  0  0  0  0  0  0  0
    8.5408  -19.9261   22.1055 N   0  0  0  0  0  0  0  0  0  0  0  0
    9.3815  -16.2019   25.0647 C   0  0  0  0  0  0  0  0  0  0  0  0
   10.5378  -15.7155   24.8969 O   0  0  0  0  0  0  0  0  0  0  0  0
    6.4657  -12.4872   27.2757 C   0  0  0  0  0  0  0  0  0  0  0  0
    7.6579  -13.2604   26.7319 C   0  0  0  0  0  0  0  0  0  0  0  0
    8.3514  -14.0163   27.8245 C   0  0  2  0  0  0  0  0  0  0  0  0
    8.9076  -13.0025   28.7907 C   0  0  0  0  0  0  0  0  0  0  0  0
    9.3781  -14.9475   27.2637 C   0  0  2  0  0  0  0  0  0  0  0  0
    8.7454  -15.8244   26.2552 N   0  0  0  0  0  0  0  0  0  0  0  0
   10.1232  -15.7458   28.2324 C   0  0  0  0  0  0  0  0  0  0  0  0
    9.8987  -17.0719   28.4889 O   0  0  0  0  0  0  0  0  0  0  0  0
   11.0671  -15.2193   28.9219 O   0  0  0  0  0  0  0  0  0  0  0  0
  2  1  1  1
  2  3  1  0
  4  5  1  0
  4  2  1  0
  5  7  1  0
  5  6  1  6
  7  8  2  0
  9 10  1  0
  9  7  1  0
 11 12  1  0
 10 11  1  6
 12 16  1  0
 13 12  2  0
 13 14  1  0
 14 15  1  0
 16 15  2  0
 17 18  2  0
 17 10  1  0
 19 20  1  0
 20 21  1  0
 21 23  1  0
 21 22  1  1
 23 24  1  6
 23 25  1  0
 24 17  1  0
 25 26  1  0
 27 25  2  0
M  END
$$$$
