WEK.pdb
     RDKit          3D

 33 34  0  0  1  0  0  0  0  0999 V2000
    6.9305  -16.8047   23.2019 N   0  0  0  0  0  0  0  0  0  0  0  0
    8.2949  -16.3103   23.2980 C   0  0  1  0  0  0  0  0  0  0  0  0
    8.5559  -15.9352   24.6954 C   0  0  0  0  0  0  0  0  0  0  0  0
    7.5521  -15.0595   25.3315 C   0  0  0  0  0  0  0  0  0  0  0  0
    6.3877  -15.5356   25.9468 C   0  0  0  0  0  0  0  0  0  0  0  0
    5.7396  -14.4818   26.4431 N   0  0  0  0  0  0  0  0  0  0  0  0
    6.3967  -13.3229   26.1960 C   0  0  0  0  0  0  0  0  0  0  0  0
    6.1174  -12.0012   26.4898 C   0  0  0  0  0  0  0  0  0  0  0  0
    6.9976  -11.0368   26.0711 C   0  0  0  0  0  0  0  0  0  0  0  0
    8.1350  -11.3732   25.3728 C   0  0  0  0  0  0  0  0  0  0  0  0
    8.3882  -12.6855   25.0972 C   0  0  0  0  0  0  0  0  0  0  0  0
    7.5401  -13.7104   25.4918 C   0  0  0  0  0  0  0  0  0  0  0  0
    9.2900  -17.0247   22.5482 C   0  0  0  0  0  0  0  0  0  0  0  0
    9.3249  -18.2963   22.5042 O   0  0  0  0  0  0  0  0  0  0  0  0
   10.3433  -16.4088   21.7889 N   0  0  0  0  0  0  0  0  0  0  0  0
   11.6074  -16.9419   21.4819 C   0  0  1  0  0  0  0  0  0  0  0  0
   12.5110  -16.2837   20.5410 C   0  0  0  0  0  0  0  0  0  0  0  0
   12.1960  -14.8612   20.1699 C   0  0  0  0  0  0  0  0  0  0  0  0
   12.8625  -14.4990   18.8843 C   0  0  0  0  0  0  0  0  0  0  0  0
   13.9597  -13.9243   18.8318 O   0  0  0  0  0  0  0  0  0  0  0  0
   12.3443  -17.1816   22.7804 C   0  0  0  0  0  0  0  0  0  0  0  0
   12.2519  -16.3557   23.7085 O   0  0  0  0  0  0  0  0  0  0  0  0
   12.2832  -14.7885   17.6409 O   0  0  0  0  0  0  0  0  0  0  0  0
   13.1429  -18.3204   22.9861 N   0  0  0  0  0  0  0  0  0  0  0  0
   13.7166  -18.6070   24.3707 C   0  0  1  0  0  0  0  0  0  0  0  0
   13.5175  -20.0587   24.5148 C   0  0  0  0  0  0  0  0  0  0  0  0
   13.3070  -20.7684   25.7589 C   0  0  0  0  0  0  0  0  0  0  0  0
   13.0262  -22.2063   25.8783 C   0  0  0  0  0  0  0  0  0  0  0  0
   12.7600  -22.6510   27.3093 C   0  0  0  0  0  0  0  0  0  0  0  0
   11.3213  -22.4198   27.5943 N   0  0  0  0  0  0  0  0  0  0  0  0
   15.1602  -18.2348   24.0745 C   0  0  0  0  0  0  0  0  0  0  0  0
   16.0810  -17.9812   25.0288 O   0  0  0  0  0  0  0  0  0  0  0  0
   15.4960  -18.1681   22.8467 O   0  0  0  0  0  0  0  0  0  0  0  0
  2  1  1  1
  3  2  1  0
  4  3  1  0
  4  5  2  0
  6  5  1  0
  7  6  1  0
  8  7  2  0
  9  8  1  0
 10  9  2  0
 10 11  1  0
 11 12  2  0
 12  7  1  0
 12  4  1  0
 13 14  2  0
 13  2  1  0
 15 13  1  0
 16 17  1  6
 16 15  1  0
 18 19  1  0
 18 17  1  0
 19 23  1  0
 20 19  2  0
 21 16  1  0
 22 21  2  0
 24 21  1  0
 25 24  1  0
 26 27  1  0
 25 26  1  6
 28 29  1  0
 28 27  1  0
 29 30  1  0
 31 25  1  0
 31 32  1  0
 33 31  2  0
M  END
$$$$
