WEK.pdb
     RDKit          3D

 33 34  0  0  1  0  0  0  0  0999 V2000
    6.5764  -17.1420   23.8435 N   0  0  0  0  0  0  0  0  0  0  0  0
    7.9432  -16.6486   23.7841 C   0  0  1  0  0  0  0  0  0  0  0  0
    8.2606  -16.0037   25.0667 C   0  0  0  0  0  0  0  0  0  0  0  0
    7.3142  -14.9678   25.5250 C   0  0  0  0  0  0  0  0  0  0  0  0
    6.0937  -15.2551   26.1488 C   0  0  0  0  0  0  0  0  0  0  0  0
    5.5214  -14.0921   26.4594 N   0  0  0  0  0  0  0  0  0  0  0  0
    6.2823  -13.0374   26.0792 C   0  0  0  0  0  0  0  0  0  0  0  0
    6.1065  -11.6690   26.1680 C   0  0  0  0  0  0  0  0  0  0  0  0
    7.0789  -10.8491   25.6559 C   0  0  0  0  0  0  0  0  0  0  0  0
    8.2063  -11.3729   25.0650 C   0  0  0  0  0  0  0  0  0  0  0  0
    8.3562  -12.7273   24.9916 C   0  0  0  0  0  0  0  0  0  0  0  0
    7.4115  -13.6131   25.4900 C   0  0  0  0  0  0  0  0  0  0  0  0
    8.9074  -17.5058   23.1531 C   0  0  0  0  0  0  0  0  0  0  0  0
    8.7295  -18.7611   23.0394 O   0  0  0  0  0  0  0  0  0  0  0  0
   10.1588  -17.0652   22.6006 N   0  0  0  0  0  0  0  0  0  0  0  0
   11.3851  -17.7525   22.5924 C   0  0  1  0  0  0  0  0  0  0  0  0
   12.3963  -17.5079   21.5664 C   0  0  0  0  0  0  0  0  0  0  0  0
   11.9040  -17.1849   20.1829 C   0  0  0  0  0  0  0  0  0  0  0  0
   12.9479  -16.4386   19.4203 C   0  0  0  0  0  0  0  0  0  0  0  0
   13.9942  -16.0227   19.9389 O   0  0  0  0  0  0  0  0  0  0  0  0
   12.0225  -17.5925   23.9543 C   0  0  0  0  0  0  0  0  0  0  0  0
   11.9959  -16.4861   24.5263 O   0  0  0  0  0  0  0  0  0  0  0  0
   12.8091  -16.1570   18.0539 O   0  0  0  0  0  0  0  0  0  0  0  0
   12.6543  -18.6620   24.6129 N   0  0  0  0  0  0  0  0  0  0  0  0
   13.0614  -18.5200   26.0767 C   0  0  1  0  0  0  0  0  0  0  0  0
   12.1902  -19.4932   26.7559 C   0  0  0  0  0  0  0  0  0  0  0  0
   12.2439  -19.8483   28.1584 C   0  0  0  0  0  0  0  0  0  0  0  0
   11.3490  -20.8041   28.8264 C   0  0  0  0  0  0  0  0  0  0  0  0
   11.5669  -20.8828   30.3307 C   0  0  0  0  0  0  0  0  0  0  0  0
   10.6110  -21.8804   30.8744 N   0  0  0  0  0  0  0  0  0  0  0  0
   14.4949  -19.0059   25.9379 C   0  0  0  0  0  0  0  0  0  0  0  0
   15.4427  -18.8281   26.8829 O   0  0  0  0  0  0  0  0  0  0  0  0
   14.7928  -19.6160   24.8591 O   0  0  0  0  0  0  0  0  0  0  0  0
  2  1  1  1
  3  2  1  0
  4  3  1  0
  4  5  2  0
  6  5  1  0
  7  6  1  0
  8  7  2  0
  9  8  1  0
 10  9  2  0
 10 11  1  0
 11 12  2  0
 12  7  1  0
 12  4  1  0
 13 14  2  0
 13  2  1  0
 15 13  1  0
 16 17  1  6
 16 15  1  0
 18 19  1  0
 18 17  1  0
 19 23  1  0
 20 19  2  0
 21 16  1  0
 22 21  2  0
 24 21  1  0
 25 24  1  0
 26 27  1  0
 25 26  1  1
 28 29  1  0
 28 27  1  0
 29 30  1  0
 31 25  1  0
 31 32  1  0
 33 31  2  0
M  END
$$$$
