WEK.pdb
     RDKit          3D

 33 34  0  0  1  0  0  0  0  0999 V2000
    6.3452  -18.2328   24.8854 N   0  0  0  0  0  0  0  0  0  0  0  0
    7.1182  -17.0451   24.5583 C   0  0  1  0  0  0  0  0  0  0  0  0
    7.5965  -16.4423   25.8111 C   0  0  0  0  0  0  0  0  0  0  0  0
    6.9488  -15.1782   26.2128 C   0  0  0  0  0  0  0  0  0  0  0  0
    5.6094  -15.0867   26.6113 C   0  0  0  0  0  0  0  0  0  0  0  0
    5.3765  -13.8154   26.9374 N   0  0  0  0  0  0  0  0  0  0  0  0
    6.4790  -13.0436   26.7794 C   0  0  0  0  0  0  0  0  0  0  0  0
    6.7191  -11.6952   26.9677 C   0  0  0  0  0  0  0  0  0  0  0  0
    7.9704  -11.2077   26.6906 C   0  0  0  0  0  0  0  0  0  0  0  0
    8.9679  -12.0392   26.2344 C   0  0  0  0  0  0  0  0  0  0  0  0
    8.7052  -13.3667   26.0586 C   0  0  0  0  0  0  0  0  0  0  0  0
    7.4619  -13.9247   26.3202 C   0  0  0  0  0  0  0  0  0  0  0  0
    7.9976  -17.1439   23.4271 C   0  0  0  0  0  0  0  0  0  0  0  0
    8.7869  -18.1290   23.2637 O   0  0  0  0  0  0  0  0  0  0  0  0
    8.0989  -16.1652   22.3795 N   0  0  0  0  0  0  0  0  0  0  0  0
    9.0521  -16.1049   21.3480 C   0  0  1  0  0  0  0  0  0  0  0  0
    8.8919  -15.2087   20.2051 C   0  0  0  0  0  0  0  0  0  0  0  0
    7.7182  -15.4573   19.2990 C   0  0  0  0  0  0  0  0  0  0  0  0
    7.9763  -16.6402   18.4259 C   0  0  0  0  0  0  0  0  0  0  0  0
    8.9248  -16.6970   17.6298 O   0  0  0  0  0  0  0  0  0  0  0  0
   10.4069  -15.8610   21.9738 C   0  0  0  0  0  0  0  0  0  0  0  0
   10.7380  -14.7074   22.3080 O   0  0  0  0  0  0  0  0  0  0  0  0
    7.1526  -17.7745   18.4508 O   0  0  0  0  0  0  0  0  0  0  0  0
   11.3238  -16.9030   22.1983 N   0  0  0  0  0  0  0  0  0  0  0  0
   12.3848  -16.7613   23.2859 C   0  0  1  0  0  0  0  0  0  0  0  0
   12.0003  -17.7988   24.2572 C   0  0  0  0  0  0  0  0  0  0  0  0
   12.8721  -18.4090   25.2387 C   0  0  0  0  0  0  0  0  0  0  0  0
   12.4248  -19.1246   26.4423 C   0  0  0  0  0  0  0  0  0  0  0  0
   13.5723  -19.5893   27.3278 C   0  0  0  0  0  0  0  0  0  0  0  0
   13.2196  -20.9306   27.8579 N   0  0  0  0  0  0  0  0  0  0  0  0
   13.5902  -17.1540   22.4474 C   0  0  0  0  0  0  0  0  0  0  0  0
   13.5047  -17.8165   21.2740 O   0  0  0  0  0  0  0  0  0  0  0  0
   14.7358  -16.8247   22.8986 O   0  0  0  0  0  0  0  0  0  0  0  0
  2  1  1  1
  3  2  1  0
  4  3  1  0
  4  5  2  0
  6  5  1  0
  7  6  1  0
  8  7  2  0
  9  8  1  0
 10  9  2  0
 10 11  1  0
 11 12  2  0
 12  7  1  0
 12  4  1  0
 13 14  2  0
 13  2  1  0
 15 13  1  0
 16 17  1  6
 16 15  1  0
 18 19  1  0
 18 17  1  0
 19 23  1  0
 20 19  2  0
 21 16  1  0
 22 21  2  0
 24 21  1  0
 25 24  1  0
 26 27  1  0
 25 26  1  1
 28 29  1  0
 28 27  1  0
 29 30  1  0
 31 25  1  0
 31 32  1  0
 33 31  2  0
M  END
$$$$
