WEK.pdb
     RDKit          3D

 33 34  0  0  1  0  0  0  0  0999 V2000
    6.8668  -16.9313   23.5773 N   0  0  0  0  0  0  0  0  0  0  0  0
    8.1670  -16.4745   23.1126 C   0  0  1  0  0  0  0  0  0  0  0  0
    8.4863  -15.2111   23.7934 C   0  0  0  0  0  0  0  0  0  0  0  0
    7.4761  -14.7139   24.7480 C   0  0  0  0  0  0  0  0  0  0  0  0
    6.5615  -15.5429   25.4095 C   0  0  0  0  0  0  0  0  0  0  0  0
    5.8337  -14.7701   26.2157 N   0  0  0  0  0  0  0  0  0  0  0  0
    6.2014  -13.4685   26.1345 C   0  0  0  0  0  0  0  0  0  0  0  0
    5.7398  -12.3196   26.7495 C   0  0  0  0  0  0  0  0  0  0  0  0
    6.3263  -11.1229   26.4270 C   0  0  0  0  0  0  0  0  0  0  0  0
    7.3519  -11.0625   25.5110 C   0  0  0  0  0  0  0  0  0  0  0  0
    7.7901  -12.2116   24.9194 C   0  0  0  0  0  0  0  0  0  0  0  0
    7.2413  -13.4546   25.2007 C   0  0  0  0  0  0  0  0  0  0  0  0
    9.1799  -17.4799   22.9522 C   0  0  0  0  0  0  0  0  0  0  0  0
    8.9146  -18.6507   22.5290 O   0  0  0  0  0  0  0  0  0  0  0  0
   10.5732  -17.2954   23.2526 N   0  0  0  0  0  0  0  0  0  0  0  0
   11.6746  -17.5528   22.4178 C   0  0  1  0  0  0  0  0  0  0  0  0
   11.7686  -16.9878   21.0736 C   0  0  0  0  0  0  0  0  0  0  0  0
   13.0026  -17.3132   20.2787 C   0  0  0  0  0  0  0  0  0  0  0  0
   12.6395  -18.0513   19.0330 C   0  0  0  0  0  0  0  0  0  0  0  0
   13.1332  -17.7906   17.9262 O   0  0  0  0  0  0  0  0  0  0  0  0
   12.9336  -17.2087   23.1815 C   0  0  0  0  0  0  0  0  0  0  0  0
   13.2861  -16.0191   23.2940 O   0  0  0  0  0  0  0  0  0  0  0  0
   11.7061  -19.0974   19.0359 O   0  0  0  0  0  0  0  0  0  0  0  0
   13.7360  -18.1953   23.7812 N   0  0  0  0  0  0  0  0  0  0  0  0
   13.6199  -18.4631   25.2790 C   0  0  1  0  0  0  0  0  0  0  0  0
   12.5171  -19.4357   25.3543 C   0  0  0  0  0  0  0  0  0  0  0  0
   11.9391  -19.9729   26.5681 C   0  0  0  0  0  0  0  0  0  0  0  0
   10.8744  -20.9847   26.6250 C   0  0  0  0  0  0  0  0  0  0  0  0
   10.6105  -21.5025   28.0318 C   0  0  0  0  0  0  0  0  0  0  0  0
    9.5551  -22.5429   27.9400 N   0  0  0  0  0  0  0  0  0  0  0  0
   14.9851  -19.1007   25.4786 C   0  0  0  0  0  0  0  0  0  0  0  0
   15.6337  -19.1309   26.6624 O   0  0  0  0  0  0  0  0  0  0  0  0
   15.5257  -19.6334   24.4546 O   0  0  0  0  0  0  0  0  0  0  0  0
  2  1  1  1
  3  2  1  0
  4  3  1  0
  4  5  2  0
  6  5  1  0
  7  6  1  0
  8  7  2  0
  9  8  1  0
 10  9  2  0
 10 11  1  0
 11 12  2  0
 12  7  1  0
 12  4  1  0
 13 14  2  0
 13  2  1  0
 15 13  1  0
 16 17  1  6
 16 15  1  0
 18 19  1  0
 18 17  1  0
 19 23  1  0
 20 19  2  0
 21 16  1  0
 22 21  2  0
 24 21  1  0
 25 24  1  0
 26 27  1  0
 25 26  1  6
 28 29  1  0
 28 27  1  0
 29 30  1  0
 31 25  1  0
 31 32  1  0
 33 31  2  0
M  END
$$$$
