WEK.pdb
     RDKit          3D

 33 34  0  0  1  0  0  0  0  0999 V2000
    6.3935  -17.6384   24.6241 N   0  0  0  0  0  0  0  0  0  0  0  0
    7.5707  -16.8990   24.1966 C   0  0  1  0  0  0  0  0  0  0  0  0
    8.0345  -16.0732   25.3212 C   0  0  0  0  0  0  0  0  0  0  0  0
    7.1308  -14.9857   25.7449 C   0  0  0  0  0  0  0  0  0  0  0  0
    5.8806  -15.2039   26.3370 C   0  0  0  0  0  0  0  0  0  0  0  0
    5.3609  -14.0102   26.6225 N   0  0  0  0  0  0  0  0  0  0  0  0
    6.1854  -12.9996   26.2550 C   0  0  0  0  0  0  0  0  0  0  0  0
    6.0783  -11.6233   26.3281 C   0  0  0  0  0  0  0  0  0  0  0  0
    7.1053  -10.8592   25.8365 C   0  0  0  0  0  0  0  0  0  0  0  0
    8.2197  -11.4459   25.2812 C   0  0  0  0  0  0  0  0  0  0  0  0
    8.3013  -12.8069   25.2228 C   0  0  0  0  0  0  0  0  0  0  0  0
    7.2989  -13.6381   25.7018 C   0  0  0  0  0  0  0  0  0  0  0  0
    8.5204  -17.6152   23.3918 C   0  0  0  0  0  0  0  0  0  0  0  0
    8.8670  -18.8119   23.6527 O   0  0  0  0  0  0  0  0  0  0  0  0
    9.1842  -17.0793   22.2352 N   0  0  0  0  0  0  0  0  0  0  0  0
   10.4088  -17.4889   21.6795 C   0  0  1  0  0  0  0  0  0  0  0  0
   10.7662  -17.1813   20.2964 C   0  0  0  0  0  0  0  0  0  0  0  0
    9.7756  -17.5633   19.2319 C   0  0  0  0  0  0  0  0  0  0  0  0
    9.9818  -16.7345   18.0076 C   0  0  0  0  0  0  0  0  0  0  0  0
   10.9562  -16.8748   17.2543 O   0  0  0  0  0  0  0  0  0  0  0  0
   11.5199  -17.0134   22.5883 C   0  0  0  0  0  0  0  0  0  0  0  0
   11.5579  -15.8224   22.9519 O   0  0  0  0  0  0  0  0  0  0  0  0
    9.0765  -15.7334   17.6284 O   0  0  0  0  0  0  0  0  0  0  0  0
   12.5291  -17.8775   23.0484 N   0  0  0  0  0  0  0  0  0  0  0  0
   13.5968  -17.3577   24.0068 C   0  0  1  0  0  0  0  0  0  0  0  0
   13.5718  -18.3488   25.0952 C   0  0  0  0  0  0  0  0  0  0  0  0
   12.5373  -18.4830   26.0990 C   0  0  0  0  0  0  0  0  0  0  0  0
   12.4999  -19.5139   27.1461 C   0  0  0  0  0  0  0  0  0  0  0  0
   11.2512  -19.4458   28.0138 C   0  0  0  0  0  0  0  0  0  0  0  0
   11.3659  -20.4985   29.0546 N   0  0  0  0  0  0  0  0  0  0  0  0
   14.7947  -17.5213   23.0857 C   0  0  0  0  0  0  0  0  0  0  0  0
   15.9863  -16.9200   23.2898 O   0  0  0  0  0  0  0  0  0  0  0  0
   14.6404  -18.2772   22.0711 O   0  0  0  0  0  0  0  0  0  0  0  0
  2  1  1  1
  3  2  1  0
  4  3  1  0
  4  5  2  0
  6  5  1  0
  7  6  1  0
  8  7  2  0
  9  8  1  0
 10  9  2  0
 10 11  1  0
 11 12  2  0
 12  7  1  0
 12  4  1  0
 13 14  2  0
 13  2  1  0
 15 13  1  0
 16 17  1  6
 16 15  1  0
 18 19  1  0
 18 17  1  0
 19 23  1  0
 20 19  2  0
 21 16  1  0
 22 21  2  0
 24 21  1  0
 25 24  1  0
 26 27  1  0
 25 26  1  1
 28 29  1  0
 28 27  1  0
 29 30  1  0
 31 25  1  0
 31 32  1  0
 33 31  2  0
M  END
$$$$
