WEK.pdb
     RDKit          3D

 33 34  0  0  1  0  0  0  0  0999 V2000
    8.0996  -17.6938   21.6902 N   0  0  0  0  0  0  0  0  0  0  0  0
    7.4392  -17.1987   22.8877 C   0  0  1  0  0  0  0  0  0  0  0  0
    6.3311  -16.3231   22.4789 C   0  0  0  0  0  0  0  0  0  0  0  0
    6.7064  -15.1031   21.7374 C   0  0  0  0  0  0  0  0  0  0  0  0
    6.6716  -15.0040   20.3410 C   0  0  0  0  0  0  0  0  0  0  0  0
    7.0332  -13.7618   20.0204 N   0  0  0  0  0  0  0  0  0  0  0  0
    7.3128  -13.0182   21.1181 C   0  0  0  0  0  0  0  0  0  0  0  0
    7.7356  -11.7130   21.2884 C   0  0  0  0  0  0  0  0  0  0  0  0
    7.9549  -11.2565   22.5626 C   0  0  0  0  0  0  0  0  0  0  0  0
    7.7602  -12.0766   23.6507 C   0  0  0  0  0  0  0  0  0  0  0  0
    7.3409  -13.3605   23.4552 C   0  0  0  0  0  0  0  0  0  0  0  0
    7.1003  -13.8854   22.1934 C   0  0  0  0  0  0  0  0  0  0  0  0
    7.2530  -18.1427   23.9539 C   0  0  0  0  0  0  0  0  0  0  0  0
    6.1071  -18.6042   24.2609 O   0  0  0  0  0  0  0  0  0  0  0  0
    8.3053  -18.6565   24.7871 N   0  0  0  0  0  0  0  0  0  0  0  0
    8.2177  -19.6722   25.7551 C   0  0  1  0  0  0  0  0  0  0  0  0
    7.7300  -21.0092   25.4241 C   0  0  0  0  0  0  0  0  0  0  0  0
    7.6107  -21.3530   23.9653 C   0  0  0  0  0  0  0  0  0  0  0  0
    6.8406  -22.6198   23.7905 C   0  0  0  0  0  0  0  0  0  0  0  0
    5.6230  -22.6426   23.5592 O   0  0  0  0  0  0  0  0  0  0  0  0
    9.5659  -19.7970   26.4286 C   0  0  0  0  0  0  0  0  0  0  0  0
   10.5364  -20.2542   25.7953 O   0  0  0  0  0  0  0  0  0  0  0  0
    7.4525  -23.8781   23.8783 O   0  0  0  0  0  0  0  0  0  0  0  0
    9.7715  -19.4097   27.7645 N   0  0  0  0  0  0  0  0  0  0  0  0
   10.6212  -18.1816   28.0781 C   0  0  1  0  0  0  0  0  0  0  0  0
    9.6547  -17.0765   27.9677 C   0  0  0  0  0  0  0  0  0  0  0  0
    9.9531  -15.7259   27.5401 C   0  0  0  0  0  0  0  0  0  0  0  0
    8.9873  -14.6189   27.4905 C   0  0  0  0  0  0  0  0  0  0  0  0
    9.5608  -13.3463   26.8836 C   0  0  0  0  0  0  0  0  0  0  0  0
    9.3798  -12.2528   27.8717 N   0  0  0  0  0  0  0  0  0  0  0  0
   10.9591  -18.5297   29.5185 C   0  0  0  0  0  0  0  0  0  0  0  0
   11.9918  -17.9884   30.1993 O   0  0  0  0  0  0  0  0  0  0  0  0
   10.2070  -19.3821   30.0952 O   0  0  0  0  0  0  0  0  0  0  0  0
  2  1  1  6
  3  2  1  0
  4  3  1  0
  4  5  2  0
  6  5  1  0
  7  6  1  0
  8  7  2  0
  9  8  1  0
 10  9  2  0
 10 11  1  0
 11 12  2  0
 12  7  1  0
 12  4  1  0
 13 14  2  0
 13  2  1  0
 15 13  1  0
 16 17  1  6
 16 15  1  0
 18 19  1  0
 18 17  1  0
 19 23  1  0
 20 19  2  0
 21 16  1  0
 22 21  2  0
 24 21  1  0
 25 24  1  0
 26 27  1  0
 25 26  1  1
 28 29  1  0
 28 27  1  0
 29 30  1  0
 31 25  1  0
 31 32  1  0
 33 31  2  0
M  END
$$$$
