WEK.pdb
     RDKit          3D

 33 34  0  0  1  0  0  0  0  0999 V2000
    6.3254  -16.4626   22.5793 N   0  0  0  0  0  0  0  0  0  0  0  0
    7.7173  -16.2245   22.2311 C   0  0  1  0  0  0  0  0  0  0  0  0
    8.3113  -15.3563   23.2583 C   0  0  0  0  0  0  0  0  0  0  0  0
    7.4352  -14.9958   24.3904 C   0  0  0  0  0  0  0  0  0  0  0  0
    6.5372  -15.8879   24.9894 C   0  0  0  0  0  0  0  0  0  0  0  0
    5.9453  -15.2428   25.9945 N   0  0  0  0  0  0  0  0  0  0  0  0
    6.3888  -13.9674   26.1067 C   0  0  0  0  0  0  0  0  0  0  0  0
    6.0673  -12.9306   26.9628 C   0  0  0  0  0  0  0  0  0  0  0  0
    6.6973  -11.7242   26.7963 C   0  0  0  0  0  0  0  0  0  0  0  0
    7.6295  -11.5451   25.7996 C   0  0  0  0  0  0  0  0  0  0  0  0
    7.9300  -12.5853   24.9689 C   0  0  0  0  0  0  0  0  0  0  0  0
    7.3303  -13.8314   25.0826 C   0  0  0  0  0  0  0  0  0  0  0  0
    8.4540  -17.3502   21.7284 C   0  0  0  0  0  0  0  0  0  0  0  0
    7.9800  -18.1322   20.8430 O   0  0  0  0  0  0  0  0  0  0  0  0
    9.7722  -17.7263   22.1601 N   0  0  0  0  0  0  0  0  0  0  0  0
   11.0022  -17.3626   21.5848 C   0  0  1  0  0  0  0  0  0  0  0  0
   11.0898  -16.3512   20.5339 C   0  0  0  0  0  0  0  0  0  0  0  0
   10.2870  -16.5897   19.2852 C   0  0  0  0  0  0  0  0  0  0  0  0
   11.1529  -17.1583   18.2105 C   0  0  0  0  0  0  0  0  0  0  0  0
   11.7779  -16.4539   17.4043 O   0  0  0  0  0  0  0  0  0  0  0  0
   11.9514  -16.9900   22.7015 C   0  0  0  0  0  0  0  0  0  0  0  0
   13.1259  -16.6696   22.4372 O   0  0  0  0  0  0  0  0  0  0  0  0
   11.3156  -18.5407   18.0426 O   0  0  0  0  0  0  0  0  0  0  0  0
   11.5537  -16.9898   24.0501 N   0  0  0  0  0  0  0  0  0  0  0  0
   12.5508  -16.5984   25.1370 C   0  0  1  0  0  0  0  0  0  0  0  0
   11.7066  -16.5069   26.3397 C   0  0  0  0  0  0  0  0  0  0  0  0
   12.1795  -16.4097   27.7046 C   0  0  0  0  0  0  0  0  0  0  0  0
   11.3237  -16.2600   28.8902 C   0  0  0  0  0  0  0  0  0  0  0  0
   12.1018  -16.2604   30.1984 C   0  0  0  0  0  0  0  0  0  0  0  0
   11.1181  -16.3102   31.3095 N   0  0  0  0  0  0  0  0  0  0  0  0
   13.3961  -17.8612   25.1027 C   0  0  0  0  0  0  0  0  0  0  0  0
   12.8999  -19.0899   24.8438 O   0  0  0  0  0  0  0  0  0  0  0  0
   14.6425  -17.7246   25.3318 O   0  0  0  0  0  0  0  0  0  0  0  0
  2  1  1  1
  3  2  1  0
  4  3  1  0
  4  5  2  0
  6  5  1  0
  7  6  1  0
  8  7  2  0
  9  8  1  0
 10  9  2  0
 10 11  1  0
 11 12  2  0
 12  7  1  0
 12  4  1  0
 13 14  2  0
 13  2  1  0
 15 13  1  0
 16 17  1  6
 16 15  1  0
 18 19  1  0
 18 17  1  0
 19 23  1  0
 20 19  2  0
 21 16  1  0
 22 21  2  0
 24 21  1  0
 25 24  1  0
 26 27  1  0
 25 26  1  1
 28 29  1  0
 28 27  1  0
 29 30  1  0
 31 25  1  0
 31 32  1  0
 33 31  2  0
M  END
$$$$
