WEK.pdb
     RDKit          3D

 33 34  0  0  1  0  0  0  0  0999 V2000
    6.7417  -17.3162   23.8338 N   0  0  0  0  0  0  0  0  0  0  0  0
    8.0808  -16.7603   23.7201 C   0  0  1  0  0  0  0  0  0  0  0  0
    8.3823  -16.0186   24.9533 C   0  0  0  0  0  0  0  0  0  0  0  0
    7.3727  -15.0299   25.3802 C   0  0  0  0  0  0  0  0  0  0  0  0
    6.1222  -15.3775   25.9060 C   0  0  0  0  0  0  0  0  0  0  0  0
    5.4916  -14.2450   26.2166 N   0  0  0  0  0  0  0  0  0  0  0  0
    6.2418  -13.1541   25.9284 C   0  0  0  0  0  0  0  0  0  0  0  0
    6.0153  -11.7960   26.0530 C   0  0  0  0  0  0  0  0  0  0  0  0
    6.9931  -10.9281   25.6399 C   0  0  0  0  0  0  0  0  0  0  0  0
    8.1753  -11.3947   25.1117 C   0  0  0  0  0  0  0  0  0  0  0  0
    8.3746  -12.7403   25.0011 C   0  0  0  0  0  0  0  0  0  0  0  0
    7.4274  -13.6725   25.4001 C   0  0  0  0  0  0  0  0  0  0  0  0
    9.0787  -17.6075   23.1293 C   0  0  0  0  0  0  0  0  0  0  0  0
    9.0821  -18.8698   23.2928 O   0  0  0  0  0  0  0  0  0  0  0  0
   10.1695  -17.1451   22.3157 N   0  0  0  0  0  0  0  0  0  0  0  0
   11.4326  -17.7399   22.1517 C   0  0  1  0  0  0  0  0  0  0  0  0
   12.3192  -17.3697   21.0508 C   0  0  0  0  0  0  0  0  0  0  0  0
   11.8877  -17.7575   19.6638 C   0  0  0  0  0  0  0  0  0  0  0  0
   12.6541  -16.9819   18.6444 C   0  0  0  0  0  0  0  0  0  0  0  0
   13.8382  -16.6495   18.7998 O   0  0  0  0  0  0  0  0  0  0  0  0
   12.1886  -17.6043   23.4543 C   0  0  0  0  0  0  0  0  0  0  0  0
   12.1167  -16.5454   24.1067 O   0  0  0  0  0  0  0  0  0  0  0  0
   12.0767  -16.5753   17.4333 O   0  0  0  0  0  0  0  0  0  0  0  0
   12.9826  -18.6447   23.9683 N   0  0  0  0  0  0  0  0  0  0  0  0
   13.6817  -18.4742   25.3139 C   0  0  1  0  0  0  0  0  0  0  0  0
   13.1603  -19.6043   26.1005 C   0  0  0  0  0  0  0  0  0  0  0  0
   12.9944  -19.6342   27.5384 C   0  0  0  0  0  0  0  0  0  0  0  0
   12.3962  -20.7396   28.3004 C   0  0  0  0  0  0  0  0  0  0  0  0
   12.3161  -20.4661   29.7956 C   0  0  0  0  0  0  0  0  0  0  0  0
   12.7566  -21.6943   30.5041 N   0  0  0  0  0  0  0  0  0  0  0  0
   15.1064  -18.6961   24.8331 C   0  0  0  0  0  0  0  0  0  0  0  0
   15.4192  -19.2562   23.6451 O   0  0  0  0  0  0  0  0  0  0  0  0
   16.0413  -18.3202   25.6137 O   0  0  0  0  0  0  0  0  0  0  0  0
  2  1  1  1
  3  2  1  0
  4  3  1  0
  4  5  2  0
  6  5  1  0
  7  6  1  0
  8  7  2  0
  9  8  1  0
 10  9  2  0
 10 11  1  0
 11 12  2  0
 12  7  1  0
 12  4  1  0
 13 14  2  0
 13  2  1  0
 15 13  1  0
 16 17  1  6
 16 15  1  0
 18 19  1  0
 18 17  1  0
 19 23  1  0
 20 19  2  0
 21 16  1  0
 22 21  2  0
 24 21  1  0
 25 24  1  0
 26 27  1  0
 25 26  1  1
 28 29  1  0
 28 27  1  0
 29 30  1  0
 31 25  1  0
 31 32  1  0
 33 31  2  0
M  END
$$$$
