WEK.pdb
     RDKit          3D

 33 34  0  0  1  0  0  0  0  0999 V2000
    6.8529  -17.0521   23.2048 N   0  0  0  0  0  0  0  0  0  0  0  0
    8.2406  -16.6956   23.4547 C   0  0  1  0  0  0  0  0  0  0  0  0
    8.3900  -16.3831   24.8836 C   0  0  0  0  0  0  0  0  0  0  0  0
    7.3898  -15.4600   25.4550 C   0  0  0  0  0  0  0  0  0  0  0  0
    6.1224  -15.8650   25.8916 C   0  0  0  0  0  0  0  0  0  0  0  0
    5.5061  -14.7885   26.3796 N   0  0  0  0  0  0  0  0  0  0  0  0
    6.2819  -13.6809   26.2949 C   0  0  0  0  0  0  0  0  0  0  0  0
    6.0775  -12.3592   26.6453 C   0  0  0  0  0  0  0  0  0  0  0  0
    7.0795  -11.4550   26.4035 C   0  0  0  0  0  0  0  0  0  0  0  0
    8.2639  -11.8503   25.8244 C   0  0  0  0  0  0  0  0  0  0  0  0
    8.4409  -13.1613   25.4896 C   0  0  0  0  0  0  0  0  0  0  0  0
    7.4688  -14.1273   25.7070 C   0  0  0  0  0  0  0  0  0  0  0  0
    9.2359  -17.4843   22.7840 C   0  0  0  0  0  0  0  0  0  0  0  0
    8.9314  -18.4439   22.0050 O   0  0  0  0  0  0  0  0  0  0  0  0
   10.6549  -17.2993   22.9166 N   0  0  0  0  0  0  0  0  0  0  0  0
   11.6787  -17.9836   22.2385 C   0  0  1  0  0  0  0  0  0  0  0  0
   11.7185  -18.0573   20.7798 C   0  0  0  0  0  0  0  0  0  0  0  0
   11.3597  -16.8100   20.0209 C   0  0  0  0  0  0  0  0  0  0  0  0
   11.3757  -17.0721   18.5515 C   0  0  0  0  0  0  0  0  0  0  0  0
   10.3434  -17.1651   17.8715 O   0  0  0  0  0  0  0  0  0  0  0  0
   13.0059  -17.4577   22.7373 C   0  0  0  0  0  0  0  0  0  0  0  0
   14.0637  -17.8220   22.1894 O   0  0  0  0  0  0  0  0  0  0  0  0
   12.5728  -17.2319   17.8395 O   0  0  0  0  0  0  0  0  0  0  0  0
   13.0950  -16.5570   23.8133 N   0  0  0  0  0  0  0  0  0  0  0  0
   13.4988  -17.0613   25.1958 C   0  0  1  0  0  0  0  0  0  0  0  0
   12.3204  -17.8348   25.6205 C   0  0  0  0  0  0  0  0  0  0  0  0
   12.2173  -18.6357   26.8221 C   0  0  0  0  0  0  0  0  0  0  0  0
   11.7243  -18.1566   28.1213 C   0  0  0  0  0  0  0  0  0  0  0  0
   11.7292  -19.2301   29.2003 C   0  0  0  0  0  0  0  0  0  0  0  0
   11.2299  -18.6124   30.4548 N   0  0  0  0  0  0  0  0  0  0  0  0
   14.6587  -17.9420   24.7608 C   0  0  0  0  0  0  0  0  0  0  0  0
   15.7457  -18.1831   25.5245 O   0  0  0  0  0  0  0  0  0  0  0  0
   14.5744  -18.4741   23.6056 O   0  0  0  0  0  0  0  0  0  0  0  0
  2  1  1  1
  3  2  1  0
  4  3  1  0
  4  5  2  0
  6  5  1  0
  7  6  1  0
  8  7  2  0
  9  8  1  0
 10  9  2  0
 10 11  1  0
 11 12  2  0
 12  7  1  0
 12  4  1  0
 13 14  2  0
 13  2  1  0
 15 13  1  0
 16 17  1  6
 16 15  1  0
 18 19  1  0
 18 17  1  0
 19 23  1  0
 20 19  2  0
 21 16  1  0
 22 21  2  0
 24 21  1  0
 25 24  1  0
 26 27  1  0
 25 26  1  6
 28 29  1  0
 28 27  1  0
 29 30  1  0
 31 25  1  0
 31 32  1  0
 33 31  2  0
M  END
$$$$
