WEK.pdb
     RDKit          3D

 33 34  0  0  1  0  0  0  0  0999 V2000
    6.8075  -17.4666   24.1969 N   0  0  0  0  0  0  0  0  0  0  0  0
    8.0966  -16.7934   24.1886 C   0  0  1  0  0  0  0  0  0  0  0  0
    8.2132  -15.9976   25.4194 C   0  0  0  0  0  0  0  0  0  0  0  0
    7.2084  -14.9316   25.6015 C   0  0  0  0  0  0  0  0  0  0  0  0
    5.8987  -15.1681   26.0375 C   0  0  0  0  0  0  0  0  0  0  0  0
    5.2882  -13.9864   26.1247 N   0  0  0  0  0  0  0  0  0  0  0  0
    6.1078  -12.9673   25.7702 C   0  0  0  0  0  0  0  0  0  0  0  0
    5.9267  -11.5994   25.6853 C   0  0  0  0  0  0  0  0  0  0  0  0
    6.9757  -10.8247   25.2616 C   0  0  0  0  0  0  0  0  0  0  0  0
    8.1838  -11.3928   24.9266 C   0  0  0  0  0  0  0  0  0  0  0  0
    8.3370  -12.7455   25.0209 C   0  0  0  0  0  0  0  0  0  0  0  0
    7.3172  -13.5867   25.4426 C   0  0  0  0  0  0  0  0  0  0  0  0
    9.2172  -17.5599   23.7201 C   0  0  0  0  0  0  0  0  0  0  0  0
    9.4918  -18.7141   24.1813 O   0  0  0  0  0  0  0  0  0  0  0  0
   10.1443  -17.1245   22.7119 N   0  0  0  0  0  0  0  0  0  0  0  0
   11.3665  -17.7190   22.3528 C   0  0  1  0  0  0  0  0  0  0  0  0
   11.9989  -17.4564   21.0620 C   0  0  0  0  0  0  0  0  0  0  0  0
   12.1590  -16.0171   20.6580 C   0  0  0  0  0  0  0  0  0  0  0  0
   12.8545  -15.9206   19.3408 C   0  0  0  0  0  0  0  0  0  0  0  0
   14.0817  -16.0433   19.2153 O   0  0  0  0  0  0  0  0  0  0  0  0
   12.3661  -17.4391   23.4524 C   0  0  0  0  0  0  0  0  0  0  0  0
   12.4546  -16.2938   23.9345 O   0  0  0  0  0  0  0  0  0  0  0  0
   12.1562  -15.6819   18.1488 O   0  0  0  0  0  0  0  0  0  0  0  0
   13.2142  -18.4382   23.9621 N   0  0  0  0  0  0  0  0  0  0  0  0
   14.1100  -18.1369   25.1601 C   0  0  1  0  0  0  0  0  0  0  0  0
   14.1391  -19.4210   25.8797 C   0  0  0  0  0  0  0  0  0  0  0  0
   13.0283  -20.0260   26.5840 C   0  0  0  0  0  0  0  0  0  0  0  0
   13.0003  -21.4013   27.1022 C   0  0  0  0  0  0  0  0  0  0  0  0
   11.6952  -21.7549   27.8010 C   0  0  0  0  0  0  0  0  0  0  0  0
   10.9694  -22.7230   26.9404 N   0  0  0  0  0  0  0  0  0  0  0  0
   15.3920  -17.8606   24.3918 C   0  0  0  0  0  0  0  0  0  0  0  0
   16.4789  -17.2697   24.9328 O   0  0  0  0  0  0  0  0  0  0  0  0
   15.4179  -18.2198   23.1691 O   0  0  0  0  0  0  0  0  0  0  0  0
  2  1  1  1
  3  2  1  0
  4  3  1  0
  4  5  2  0
  6  5  1  0
  7  6  1  0
  8  7  2  0
  9  8  1  0
 10  9  2  0
 10 11  1  0
 11 12  2  0
 12  7  1  0
 12  4  1  0
 13 14  2  0
 13  2  1  0
 15 13  1  0
 16 17  1  6
 16 15  1  0
 18 19  1  0
 18 17  1  0
 19 23  1  0
 20 19  2  0
 21 16  1  0
 22 21  2  0
 24 21  1  0
 25 24  1  0
 26 27  1  0
 25 26  1  1
 28 29  1  0
 28 27  1  0
 29 30  1  0
 31 25  1  0
 31 32  1  0
 33 31  2  0
M  END
$$$$
