WEK.pdb
     RDKit          3D

 33 34  0  0  1  0  0  0  0  0999 V2000
    7.6823  -16.9134   22.6892 N   0  0  0  0  0  0  0  0  0  0  0  0
    8.9606  -16.2208   22.7251 C   0  0  1  0  0  0  0  0  0  0  0  0
    9.0906  -15.5525   24.0283 C   0  0  0  0  0  0  0  0  0  0  0  0
    7.9911  -14.6422   24.4043 C   0  0  0  0  0  0  0  0  0  0  0  0
    7.1229  -14.8781   25.4775 C   0  0  0  0  0  0  0  0  0  0  0  0
    6.2869  -13.8424   25.5491 N   0  0  0  0  0  0  0  0  0  0  0  0
    6.5380  -12.9235   24.5854 C   0  0  0  0  0  0  0  0  0  0  0  0
    5.9421  -11.7212   24.2529 C   0  0  0  0  0  0  0  0  0  0  0  0
    6.4328  -11.0212   23.1808 C   0  0  0  0  0  0  0  0  0  0  0  0
    7.4947  -11.5020   22.4489 C   0  0  0  0  0  0  0  0  0  0  0  0
    8.0660  -12.6908   22.7992 C   0  0  0  0  0  0  0  0  0  0  0  0
    7.6192  -13.4486   23.8722 C   0  0  0  0  0  0  0  0  0  0  0  0
   10.0827  -16.9162   22.1594 C   0  0  0  0  0  0  0  0  0  0  0  0
   10.2790  -18.1591   22.3510 O   0  0  0  0  0  0  0  0  0  0  0  0
   11.0969  -16.3084   21.3424 N   0  0  0  0  0  0  0  0  0  0  0  0
   12.4466  -16.6835   21.2256 C   0  0  1  0  0  0  0  0  0  0  0  0
   13.3374  -16.0552   20.2526 C   0  0  0  0  0  0  0  0  0  0  0  0
   12.8611  -15.9937   18.8278 C   0  0  0  0  0  0  0  0  0  0  0  0
   13.8848  -15.3334   17.9650 C   0  0  0  0  0  0  0  0  0  0  0  0
   14.2467  -14.1588   18.1262 O   0  0  0  0  0  0  0  0  0  0  0  0
   13.0795  -16.5942   22.5960 C   0  0  0  0  0  0  0  0  0  0  0  0
   12.9569  -15.5536   23.2701 O   0  0  0  0  0  0  0  0  0  0  0  0
   14.5082  -16.0074   16.9055 O   0  0  0  0  0  0  0  0  0  0  0  0
   13.8129  -17.6581   23.1502 N   0  0  0  0  0  0  0  0  0  0  0  0
   14.3111  -17.5698   24.5898 C   0  0  1  0  0  0  0  0  0  0  0  0
   13.7812  -18.8020   25.1970 C   0  0  0  0  0  0  0  0  0  0  0  0
   13.8293  -19.1457   26.6025 C   0  0  0  0  0  0  0  0  0  0  0  0
   13.2281  -20.3448   27.2036 C   0  0  0  0  0  0  0  0  0  0  0  0
   13.4358  -20.4324   28.7089 C   0  0  0  0  0  0  0  0  0  0  0  0
   12.2279  -21.0657   29.2959 N   0  0  0  0  0  0  0  0  0  0  0  0
   15.8003  -17.6490   24.2956 C   0  0  0  0  0  0  0  0  0  0  0  0
   16.3120  -18.0890   23.1262 O   0  0  0  0  0  0  0  0  0  0  0  0
   16.5898  -17.2695   25.2214 O   0  0  0  0  0  0  0  0  0  0  0  0
  2  1  1  1
  3  2  1  0
  4  3  1  0
  4  5  2  0
  6  5  1  0
  7  6  1  0
  8  7  2  0
  9  8  1  0
 10  9  2  0
 10 11  1  0
 11 12  2  0
 12  7  1  0
 12  4  1  0
 13 14  2  0
 13  2  1  0
 15 13  1  0
 16 17  1  6
 16 15  1  0
 18 19  1  0
 18 17  1  0
 19 23  1  0
 20 19  2  0
 21 16  1  0
 22 21  2  0
 24 21  1  0
 25 24  1  0
 26 27  1  0
 25 26  1  1
 28 29  1  0
 28 27  1  0
 29 30  1  0
 31 25  1  0
 31 32  1  0
 33 31  2  0
M  END
$$$$
