WEK.pdb
     RDKit          3D

 33 34  0  0  1  0  0  0  0  0999 V2000
    6.1710  -17.8802   24.7808 N   0  0  0  0  0  0  0  0  0  0  0  0
    6.9463  -16.8176   24.1603 C   0  0  1  0  0  0  0  0  0  0  0  0
    7.7475  -16.1580   25.2018 C   0  0  0  0  0  0  0  0  0  0  0  0
    7.0902  -15.0508   25.9237 C   0  0  0  0  0  0  0  0  0  0  0  0
    6.1852  -15.2411   26.9753 C   0  0  0  0  0  0  0  0  0  0  0  0
    5.8234  -14.0352   27.4130 N   0  0  0  0  0  0  0  0  0  0  0  0
    6.4285  -13.0429   26.7165 C   0  0  0  0  0  0  0  0  0  0  0  0
    6.3584  -11.6640   26.7885 C   0  0  0  0  0  0  0  0  0  0  0  0
    7.0991  -10.9234   25.9037 C   0  0  0  0  0  0  0  0  0  0  0  0
    7.8956  -11.5354   24.9627 C   0  0  0  0  0  0  0  0  0  0  0  0
    7.9482  -12.8981   24.9139 C   0  0  0  0  0  0  0  0  0  0  0  0
    7.2251  -13.7066   25.7792 C   0  0  0  0  0  0  0  0  0  0  0  0
    7.5323  -17.1136   22.8830 C   0  0  0  0  0  0  0  0  0  0  0  0
    8.1267  -18.2140   22.6464 O   0  0  0  0  0  0  0  0  0  0  0  0
    7.5294  -16.2245   21.7538 N   0  0  0  0  0  0  0  0  0  0  0  0
    8.4685  -16.1567   20.7100 C   0  0  1  0  0  0  0  0  0  0  0  0
    8.3295  -15.2025   19.6121 C   0  0  0  0  0  0  0  0  0  0  0  0
    9.4230  -15.1815   18.5804 C   0  0  0  0  0  0  0  0  0  0  0  0
    8.9249  -15.7261   17.2829 C   0  0  0  0  0  0  0  0  0  0  0  0
    9.6692  -16.2480   16.4401 O   0  0  0  0  0  0  0  0  0  0  0  0
    9.8419  -15.9992   21.3229 C   0  0  0  0  0  0  0  0  0  0  0  0
   10.0915  -15.0134   22.0425 O   0  0  0  0  0  0  0  0  0  0  0  0
    7.5685  -15.6808   16.9312 O   0  0  0  0  0  0  0  0  0  0  0  0
   10.8663  -16.9385   21.1100 N   0  0  0  0  0  0  0  0  0  0  0  0
   12.2119  -16.7678   21.8092 C   0  0  1  0  0  0  0  0  0  0  0  0
   12.2998  -17.9724   22.6511 C   0  0  0  0  0  0  0  0  0  0  0  0
   11.6915  -18.1454   23.9534 C   0  0  0  0  0  0  0  0  0  0  0  0
   11.7902  -19.3556   24.7818 C   0  0  0  0  0  0  0  0  0  0  0  0
   10.5791  -19.5723   25.6779 C   0  0  0  0  0  0  0  0  0  0  0  0
   10.8396  -20.7764   26.5067 N   0  0  0  0  0  0  0  0  0  0  0  0
   13.0947  -16.8441   20.5742 C   0  0  0  0  0  0  0  0  0  0  0  0
   14.3861  -16.4510   20.5491 O   0  0  0  0  0  0  0  0  0  0  0  0
   12.5619  -17.3127   19.5153 O   0  0  0  0  0  0  0  0  0  0  0  0
  2  1  1  1
  3  2  1  0
  4  3  1  0
  4  5  2  0
  6  5  1  0
  7  6  1  0
  8  7  2  0
  9  8  1  0
 10  9  2  0
 10 11  1  0
 11 12  2  0
 12  7  1  0
 12  4  1  0
 13 14  2  0
 13  2  1  0
 15 13  1  0
 16 17  1  6
 16 15  1  0
 18 19  1  0
 18 17  1  0
 19 23  1  0
 20 19  2  0
 21 16  1  0
 22 21  2  0
 24 21  1  0
 25 24  1  0
 26 27  1  0
 25 26  1  1
 28 29  1  0
 28 27  1  0
 29 30  1  0
 31 25  1  0
 31 32  1  0
 33 31  2  0
M  END
$$$$
