WEK.pdb
     RDKit          3D

 33 34  0  0  1  0  0  0  0  0999 V2000
    6.6761  -17.5789   24.0098 N   0  0  0  0  0  0  0  0  0  0  0  0
    7.8859  -17.0357   23.4126 C   0  0  1  0  0  0  0  0  0  0  0  0
    8.4553  -16.0438   24.3365 C   0  0  0  0  0  0  0  0  0  0  0  0
    7.4932  -15.1278   24.9801 C   0  0  0  0  0  0  0  0  0  0  0  0
    6.2944  -15.5513   25.5673 C   0  0  0  0  0  0  0  0  0  0  0  0
    5.6996  -14.4744   26.0805 N   0  0  0  0  0  0  0  0  0  0  0  0
    6.4250  -13.3493   25.8713 C   0  0  0  0  0  0  0  0  0  0  0  0
    6.2166  -12.0212   26.1938 C   0  0  0  0  0  0  0  0  0  0  0  0
    7.1563  -11.0989   25.8113 C   0  0  0  0  0  0  0  0  0  0  0  0
    8.2834  -11.4827   25.1207 C   0  0  0  0  0  0  0  0  0  0  0  0
    8.4660  -12.8004   24.8162 C   0  0  0  0  0  0  0  0  0  0  0  0
    7.5552  -13.7844   25.1736 C   0  0  0  0  0  0  0  0  0  0  0  0
    8.7462  -17.9710   22.7434 C   0  0  0  0  0  0  0  0  0  0  0  0
    8.6678  -19.2264   22.9383 O   0  0  0  0  0  0  0  0  0  0  0  0
    9.7778  -17.6126   21.8092 N   0  0  0  0  0  0  0  0  0  0  0  0
   11.0932  -18.1049   21.7495 C   0  0  1  0  0  0  0  0  0  0  0  0
   11.9960  -17.7543   20.6554 C   0  0  0  0  0  0  0  0  0  0  0  0
   11.5074  -18.0078   19.2563 C   0  0  0  0  0  0  0  0  0  0  0  0
   12.2337  -17.1368   18.2856 C   0  0  0  0  0  0  0  0  0  0  0  0
   13.3396  -17.4328   17.8102 O   0  0  0  0  0  0  0  0  0  0  0  0
   11.7728  -17.7905   23.0633 C   0  0  0  0  0  0  0  0  0  0  0  0
   11.8629  -16.6092   23.4487 O   0  0  0  0  0  0  0  0  0  0  0  0
   11.7053  -15.9150   17.8458 O   0  0  0  0  0  0  0  0  0  0  0  0
   12.3157  -18.7963   23.8822 N   0  0  0  0  0  0  0  0  0  0  0  0
   12.9159  -18.4322   25.2371 C   0  0  1  0  0  0  0  0  0  0  0  0
   12.5260  -19.5704   26.0857 C   0  0  0  0  0  0  0  0  0  0  0  0
   12.9425  -19.7921   27.4543 C   0  0  0  0  0  0  0  0  0  0  0  0
   12.5356  -20.9300   28.2912 C   0  0  0  0  0  0  0  0  0  0  0  0
   12.9386  -20.7782   29.7511 C   0  0  0  0  0  0  0  0  0  0  0  0
   12.4344  -21.9663   30.4851 N   0  0  0  0  0  0  0  0  0  0  0  0
   14.3796  -18.4731   24.8293 C   0  0  0  0  0  0  0  0  0  0  0  0
   14.8168  -18.9626   23.6494 O   0  0  0  0  0  0  0  0  0  0  0  0
   15.2222  -18.0097   25.6659 O   0  0  0  0  0  0  0  0  0  0  0  0
  2  1  1  1
  3  2  1  0
  4  3  1  0
  4  5  2  0
  6  5  1  0
  7  6  1  0
  8  7  2  0
  9  8  1  0
 10  9  2  0
 10 11  1  0
 11 12  2  0
 12  7  1  0
 12  4  1  0
 13 14  2  0
 13  2  1  0
 15 13  1  0
 16 17  1  6
 16 15  1  0
 18 19  1  0
 18 17  1  0
 19 23  1  0
 20 19  2  0
 21 16  1  0
 22 21  2  0
 24 21  1  0
 25 24  1  0
 26 27  1  0
 25 26  1  1
 28 29  1  0
 28 27  1  0
 29 30  1  0
 31 25  1  0
 31 32  1  0
 33 31  2  0
M  END
$$$$
