WEK.pdb
     RDKit          3D

 33 34  0  0  1  0  0  0  0  0999 V2000
    6.4207  -16.9815   23.6493 N   0  0  0  0  0  0  0  0  0  0  0  0
    7.7966  -16.6519   23.9863 C   0  0  1  0  0  0  0  0  0  0  0  0
    7.8274  -16.1378   25.3634 C   0  0  0  0  0  0  0  0  0  0  0  0
    7.0099  -14.9374   25.6273 C   0  0  0  0  0  0  0  0  0  0  0  0
    5.7943  -14.9657   26.3222 C   0  0  0  0  0  0  0  0  0  0  0  0
    5.3550  -13.7102   26.4082 N   0  0  0  0  0  0  0  0  0  0  0  0
    6.2010  -12.8373   25.8095 C   0  0  0  0  0  0  0  0  0  0  0  0
    6.1671  -11.4671   25.6286 C   0  0  0  0  0  0  0  0  0  0  0  0
    7.1941  -10.8713   24.9428 C   0  0  0  0  0  0  0  0  0  0  0  0
    8.2373  -11.6175   24.4433 C   0  0  0  0  0  0  0  0  0  0  0  0
    8.2475  -12.9683   24.6371 C   0  0  0  0  0  0  0  0  0  0  0  0
    7.2408  -13.6338   25.3219 C   0  0  0  0  0  0  0  0  0  0  0  0
    8.8041  -17.5735   23.5409 C   0  0  0  0  0  0  0  0  0  0  0  0
    8.8144  -18.7948   23.8993 O   0  0  0  0  0  0  0  0  0  0  0  0
    9.8976  -17.2356   22.6717 N   0  0  0  0  0  0  0  0  0  0  0  0
   11.1616  -17.8470   22.6019 C   0  0  1  0  0  0  0  0  0  0  0  0
   12.1217  -17.5092   21.5535 C   0  0  0  0  0  0  0  0  0  0  0  0
   11.5738  -17.2711   20.1738 C   0  0  0  0  0  0  0  0  0  0  0  0
   12.6789  -16.9493   19.2234 C   0  0  0  0  0  0  0  0  0  0  0  0
   13.3379  -15.9011   19.2850 O   0  0  0  0  0  0  0  0  0  0  0  0
   11.8334  -17.6922   23.9478 C   0  0  0  0  0  0  0  0  0  0  0  0
   11.9932  -16.5569   24.4352 O   0  0  0  0  0  0  0  0  0  0  0  0
   13.0454  -17.8217   18.1889 O   0  0  0  0  0  0  0  0  0  0  0  0
   12.2921  -18.7984   24.6846 N   0  0  0  0  0  0  0  0  0  0  0  0
   12.9074  -18.5902   26.0654 C   0  0  1  0  0  0  0  0  0  0  0  0
   12.2311  -19.6104   26.8836 C   0  0  0  0  0  0  0  0  0  0  0  0
   12.4239  -19.8273   28.3019 C   0  0  0  0  0  0  0  0  0  0  0  0
   11.6931  -20.8079   29.1173 C   0  0  0  0  0  0  0  0  0  0  0  0
   12.0738  -20.7694   30.5904 C   0  0  0  0  0  0  0  0  0  0  0  0
   11.3066  -21.8349   31.2837 N   0  0  0  0  0  0  0  0  0  0  0  0
   14.3363  -18.9685   25.7111 C   0  0  0  0  0  0  0  0  0  0  0  0
   15.4122  -18.6039   26.4406 O   0  0  0  0  0  0  0  0  0  0  0  0
   14.5006  -19.6734   24.6619 O   0  0  0  0  0  0  0  0  0  0  0  0
  2  1  1  1
  3  2  1  0
  4  3  1  0
  4  5  2  0
  6  5  1  0
  7  6  1  0
  8  7  2  0
  9  8  1  0
 10  9  2  0
 10 11  1  0
 11 12  2  0
 12  7  1  0
 12  4  1  0
 13 14  2  0
 13  2  1  0
 15 13  1  0
 16 17  1  6
 16 15  1  0
 18 19  1  0
 18 17  1  0
 19 23  1  0
 20 19  2  0
 21 16  1  0
 22 21  2  0
 24 21  1  0
 25 24  1  0
 26 27  1  0
 25 26  1  1
 28 29  1  0
 28 27  1  0
 29 30  1  0
 31 25  1  0
 31 32  1  0
 33 31  2  0
M  END
$$$$
