INN.pdb
     RDKit          3D

 25 24  0  0  1  0  0  0  0  0999 V2000
   18.8266  -18.9929  -13.9597 C   0  0  0  0  0  0  0  0  0  0  0  0
   18.3144  -17.6200  -14.3011 C   0  0  0  0  0  0  0  0  0  0  0  0
   19.4087  -16.6803  -14.7524 C   0  0  2  0  0  0  0  0  0  0  0  0
   20.4910  -16.5300  -13.7173 C   0  0  0  0  0  0  0  0  0  0  0  0
   18.7548  -15.3610  -15.0985 C   0  0  2  0  0  0  0  0  0  0  0  0
   17.6863  -15.6212  -16.0172 N   0  0  0  0  0  0  0  0  0  0  0  0
   19.6978  -14.3965  -15.6959 C   0  0  0  0  0  0  0  0  0  0  0  0
   20.7295  -14.8167  -16.2672 O   0  0  0  0  0  0  0  0  0  0  0  0
   21.3703  -14.4822  -19.0155 N   0  0  0  0  0  0  0  0  0  0  0  0
   21.5141  -13.3804  -18.1574 C   0  0  0  0  0  0  0  0  0  0  0  0
   22.6435  -13.0887  -17.6612 O   0  0  0  0  0  0  0  0  0  0  0  0
   20.3486  -12.5487  -17.8234 C   0  0  0  0  0  0  0  0  0  0  0  0
   20.3842  -12.1035  -16.3522 C   0  0  2  0  0  0  0  0  0  0  0  0
   19.4711  -13.0002  -15.6434 N   0  0  0  0  0  0  0  0  0  0  0  0
   19.8806  -10.7077  -16.2609 C   0  0  0  0  0  0  0  0  0  0  0  0
   20.5223   -9.7767  -16.8578 O   0  0  0  0  0  0  0  0  0  0  0  0
   16.3021   -6.9355  -17.8557 N   0  0  0  0  0  0  0  0  0  0  0  0
   17.3008   -7.2388  -16.8719 C   0  0  0  0  0  0  0  0  0  0  0  0
   17.6214   -6.3186  -16.0924 O   0  0  0  0  0  0  0  0  0  0  0  0
   17.9051   -8.5769  -16.8026 C   0  0  0  0  0  0  0  0  0  0  0  0
   18.2161   -9.0250  -15.4099 C   0  0  2  0  0  0  0  0  0  0  0  0
   18.7179  -10.4023  -15.5318 N   0  0  0  0  0  0  0  0  0  0  0  0
   17.0557   -9.0264  -14.4942 C   0  0  0  0  0  0  0  0  0  0  0  0
   16.5779   -7.7759  -14.0639 O   0  0  0  0  0  0  0  0  0  0  0  0
   16.4552  -10.0203  -14.0623 O   0  0  0  0  0  0  0  0  0  0  0  0
  1  2  1  0
  2  3  1  0
  3  4  1  1
  5  3  1  0
  5  6  1  6
  7  8  2  0
  7  5  1  0
 10  9  1  0
 10 12  1  0
 11 10  2  0
 13 12  1  6
 13 14  1  0
 14  7  1  0
 15 22  1  0
 15 13  1  0
 16 15  2  0
 18 17  1  0
 19 18  2  0
 20 18  1  0
 21 22  1  0
 21 20  1  6
 23 21  1  0
 24 23  1  0
 25 23  2  0
M  END
$$$$
