INN.pdb
     RDKit          3D

 25 24  0  0  1  0  0  0  0  0999 V2000
   25.2749  -16.1175  -17.9692 C   0  0  0  0  0  0  0  0  0  0  0  0
   25.4795  -14.7372  -17.4066 C   0  0  0  0  0  0  0  0  0  0  0  0
   24.6191  -13.6942  -18.0819 C   0  0  2  0  0  0  0  0  0  0  0  0
   24.9113  -13.5833  -19.5542 C   0  0  0  0  0  0  0  0  0  0  0  0
   24.8376  -12.3882  -17.3508 C   0  0  2  0  0  0  0  0  0  0  0  0
   24.9602  -12.6760  -15.9524 N   0  0  0  0  0  0  0  0  0  0  0  0
   23.7409  -11.4248  -17.5639 C   0  0  0  0  0  0  0  0  0  0  0  0
   23.5171  -10.9912  -18.7169 O   0  0  0  0  0  0  0  0  0  0  0  0
   19.0090   -9.2261  -17.9851 N   0  0  0  0  0  0  0  0  0  0  0  0
   19.4617   -9.6587  -16.7285 C   0  0  0  0  0  0  0  0  0  0  0  0
   18.9308   -9.2223  -15.6633 O   0  0  0  0  0  0  0  0  0  0  0  0
   20.5630  -10.6280  -16.6349 C   0  0  0  0  0  0  0  0  0  0  0  0
   21.9293   -9.9334  -16.7553 C   0  0  2  0  0  0  0  0  0  0  0  0
   22.9272  -10.9718  -16.4978 N   0  0  0  0  0  0  0  0  0  0  0  0
   22.0264   -8.8809  -15.7099 C   0  0  0  0  0  0  0  0  0  0  0  0
   22.1268   -9.2316  -14.4844 O   0  0  0  0  0  0  0  0  0  0  0  0
   22.0578   -4.0881  -13.5188 N   0  0  0  0  0  0  0  0  0  0  0  0
   22.4976   -4.0217  -14.8823 C   0  0  0  0  0  0  0  0  0  0  0  0
   22.9172   -2.9179  -15.2857 O   0  0  0  0  0  0  0  0  0  0  0  0
   22.4478   -5.2097  -15.7465 C   0  0  0  0  0  0  0  0  0  0  0  0
   22.0515   -6.4601  -15.0277 C   0  0  2  0  0  0  0  0  0  0  0  0
   22.0086   -7.5168  -16.0499 N   0  0  0  0  0  0  0  0  0  0  0  0
   20.7318   -6.3927  -14.3651 C   0  0  0  0  0  0  0  0  0  0  0  0
   20.7115   -6.5148  -12.9644 O   0  0  0  0  0  0  0  0  0  0  0  0
   19.6335   -6.2392  -14.9175 O   0  0  0  0  0  0  0  0  0  0  0  0
  1  2  1  0
  2  3  1  0
  3  4  1  6
  5  3  1  0
  5  6  1  1
  7  8  2  0
  7  5  1  0
 10  9  1  0
 10 12  1  0
 11 10  2  0
 13 12  1  1
 13 14  1  0
 14  7  1  0
 15 22  1  0
 15 13  1  0
 16 15  2  0
 18 17  1  0
 19 18  2  0
 20 18  1  0
 21 22  1  0
 21 20  1  6
 23 21  1  0
 24 23  1  0
 25 23  2  0
M  END
$$$$
