INN.pdb
     RDKit          3D

 25 24  0  0  1  0  0  0  0  0999 V2000
   18.0831  -15.2293  -16.4765 C   0  0  0  0  0  0  0  0  0  0  0  0
   18.5598  -13.9619  -17.1323 C   0  0  0  0  0  0  0  0  0  0  0  0
   19.1196  -12.9642  -16.1447 C   0  0  2  0  0  0  0  0  0  0  0  0
   18.1403  -12.6388  -15.0491 C   0  0  0  0  0  0  0  0  0  0  0  0
   19.5353  -11.7393  -16.9288 C   0  0  2  0  0  0  0  0  0  0  0  0
   20.3256  -12.1713  -18.0435 N   0  0  0  0  0  0  0  0  0  0  0  0
   20.3064  -10.7777  -16.1182 C   0  0  0  0  0  0  0  0  0  0  0  0
   19.7865  -10.2788  -15.0944 O   0  0  0  0  0  0  0  0  0  0  0  0
   23.6542  -11.2762  -14.2678 N   0  0  0  0  0  0  0  0  0  0  0  0
   24.4127  -10.5709  -15.2155 C   0  0  0  0  0  0  0  0  0  0  0  0
   25.6349  -10.8493  -15.4041 O   0  0  0  0  0  0  0  0  0  0  0  0
   23.7933   -9.4953  -16.0034 C   0  0  0  0  0  0  0  0  0  0  0  0
   22.2959   -9.3595  -15.6819 C   0  0  2  0  0  0  0  0  0  0  0  0
   21.6257  -10.3987  -16.4638 N   0  0  0  0  0  0  0  0  0  0  0  0
   21.8282   -8.0213  -16.1297 C   0  0  0  0  0  0  0  0  0  0  0  0
   21.8226   -7.7528  -17.3798 O   0  0  0  0  0  0  0  0  0  0  0  0
   18.6754   -3.4256  -14.5028 N   0  0  0  0  0  0  0  0  0  0  0  0
   18.8370   -4.3855  -15.5562 C   0  0  0  0  0  0  0  0  0  0  0  0
   18.4207   -4.0574  -16.6859 O   0  0  0  0  0  0  0  0  0  0  0  0
   19.4659   -5.6882  -15.2956 C   0  0  0  0  0  0  0  0  0  0  0  0
   20.9241   -5.7290  -15.6260 C   0  0  2  0  0  0  0  0  0  0  0  0
   21.3967   -7.0561  -15.2030 N   0  0  0  0  0  0  0  0  0  0  0  0
   21.7354   -4.7004  -14.9412 C   0  0  0  0  0  0  0  0  0  0  0  0
   21.9260   -3.4814  -15.6156 O   0  0  0  0  0  0  0  0  0  0  0  0
   22.2697   -4.7997  -13.8278 O   0  0  0  0  0  0  0  0  0  0  0  0
  1  2  1  0
  2  3  1  0
  3  4  1  1
  5  3  1  0
  5  6  1  6
  7  8  2  0
  7  5  1  0
 10  9  1  0
 10 12  1  0
 11 10  2  0
 13 12  1  6
 13 14  1  0
 14  7  1  0
 15 22  1  0
 15 13  1  0
 16 15  2  0
 18 17  1  0
 19 18  2  0
 20 18  1  0
 21 22  1  0
 21 20  1  1
 23 21  1  0
 24 23  1  0
 25 23  2  0
M  END
$$$$
