INN.pdb
     RDKit          3D

 25 24  0  0  1  0  0  0  0  0999 V2000
   21.2164  -14.2871  -20.3714 C   0  0  0  0  0  0  0  0  0  0  0  0
   21.4864  -13.6142  -19.0531 C   0  0  0  0  0  0  0  0  0  0  0  0
   20.7168  -12.3245  -18.8835 C   0  0  2  0  0  0  0  0  0  0  0  0
   21.0139  -11.3374  -19.9801 C   0  0  0  0  0  0  0  0  0  0  0  0
   21.0479  -11.7796  -17.5120 C   0  0  2  0  0  0  0  0  0  0  0  0
   20.8882  -12.8399  -16.5612 N   0  0  0  0  0  0  0  0  0  0  0  0
   20.1939  -10.6390  -17.1299 C   0  0  0  0  0  0  0  0  0  0  0  0
   20.2701   -9.5690  -17.7754 O   0  0  0  0  0  0  0  0  0  0  0  0
   16.4076   -7.7923  -15.1978 N   0  0  0  0  0  0  0  0  0  0  0  0
   16.1912   -9.1088  -14.7608 C   0  0  0  0  0  0  0  0  0  0  0  0
   15.1510   -9.4100  -14.1019 O   0  0  0  0  0  0  0  0  0  0  0  0
   17.1753  -10.1580  -15.0649 C   0  0  0  0  0  0  0  0  0  0  0  0
   18.4125   -9.5757  -15.7677 C   0  0  2  0  0  0  0  0  0  0  0  0
   19.2840  -10.7168  -16.0484 N   0  0  0  0  0  0  0  0  0  0  0  0
   19.0995   -8.6432  -14.8357 C   0  0  0  0  0  0  0  0  0  0  0  0
   19.7132   -9.1212  -13.8209 O   0  0  0  0  0  0  0  0  0  0  0  0
   21.5066   -4.5132  -12.8747 N   0  0  0  0  0  0  0  0  0  0  0  0
   22.0484   -5.3201  -13.9294 C   0  0  0  0  0  0  0  0  0  0  0  0
   23.2546   -5.1543  -14.2028 O   0  0  0  0  0  0  0  0  0  0  0  0
   21.2049   -6.2906  -14.6418 C   0  0  0  0  0  0  0  0  0  0  0  0
   19.7871   -6.3183  -14.1663 C   0  0  2  0  0  0  0  0  0  0  0  0
   19.0818   -7.2546  -15.0548 N   0  0  0  0  0  0  0  0  0  0  0  0
   19.0987   -5.0112  -14.2184 C   0  0  0  0  0  0  0  0  0  0  0  0
   19.2290   -4.1736  -13.0965 O   0  0  0  0  0  0  0  0  0  0  0  0
   18.4137   -4.5725  -15.1528 O   0  0  0  0  0  0  0  0  0  0  0  0
  1  2  1  0
  2  3  1  0
  3  4  1  6
  5  3  1  0
  5  6  1  1
  7  8  2  0
  7  5  1  0
 10  9  1  0
 10 12  1  0
 11 10  2  0
 13 12  1  1
 13 14  1  0
 14  7  1  0
 15 22  1  0
 15 13  1  0
 16 15  2  0
 18 17  1  0
 19 18  2  0
 20 18  1  0
 21 22  1  0
 21 20  1  6
 23 21  1  0
 24 23  1  0
 25 23  2  0
M  END
$$$$
