INN.pdb
     RDKit          3D

 25 24  0  0  1  0  0  0  0  0999 V2000
   25.5058  -14.7898  -18.6577 C   0  0  0  0  0  0  0  0  0  0  0  0
   25.4575  -13.5511  -17.8051 C   0  0  0  0  0  0  0  0  0  0  0  0
   24.1079  -12.8714  -17.8326 C   0  0  2  0  0  0  0  0  0  0  0  0
   23.6782  -12.5182  -19.2312 C   0  0  0  0  0  0  0  0  0  0  0  0
   24.1961  -11.6587  -16.9330 C   0  0  2  0  0  0  0  0  0  0  0  0
   24.5833  -12.1010  -15.6261 N   0  0  0  0  0  0  0  0  0  0  0  0
   22.9232  -10.9177  -16.8481 C   0  0  0  0  0  0  0  0  0  0  0  0
   22.5061  -10.2929  -17.8496 O   0  0  0  0  0  0  0  0  0  0  0  0
   19.3557  -11.6446  -17.2674 N   0  0  0  0  0  0  0  0  0  0  0  0
   19.1260  -11.7956  -15.8907 C   0  0  0  0  0  0  0  0  0  0  0  0
   18.2723  -12.6300  -15.4640 O   0  0  0  0  0  0  0  0  0  0  0  0
   19.8778  -10.9822  -14.9239 C   0  0  0  0  0  0  0  0  0  0  0  0
   20.9217  -10.1007  -15.6290 C   0  0  2  0  0  0  0  0  0  0  0  0
   22.1526  -10.8908  -15.6610 N   0  0  0  0  0  0  0  0  0  0  0  0
   21.1398   -8.8736  -14.8186 C   0  0  0  0  0  0  0  0  0  0  0  0
   22.0565   -8.8741  -13.9272 O   0  0  0  0  0  0  0  0  0  0  0  0
   21.8227   -3.8990  -13.8520 N   0  0  0  0  0  0  0  0  0  0  0  0
   22.6288   -4.8119  -14.6097 C   0  0  0  0  0  0  0  0  0  0  0  0
   23.7684   -4.4209  -14.9347 O   0  0  0  0  0  0  0  0  0  0  0  0
   22.1172   -6.1404  -14.9755 C   0  0  0  0  0  0  0  0  0  0  0  0
   20.7390   -6.4161  -14.4636 C   0  0  2  0  0  0  0  0  0  0  0  0
   20.3565   -7.7234  -15.0186 N   0  0  0  0  0  0  0  0  0  0  0  0
   19.7255   -5.4187  -14.8675 C   0  0  0  0  0  0  0  0  0  0  0  0
   19.3695   -4.4462  -13.9164 O   0  0  0  0  0  0  0  0  0  0  0  0
   19.1521   -5.3487  -15.9635 O   0  0  0  0  0  0  0  0  0  0  0  0
  1  2  1  0
  2  3  1  0
  3  4  1  6
  5  3  1  0
  5  6  1  1
  7  8  2  0
  7  5  1  0
 10  9  1  0
 10 12  1  0
 11 10  2  0
 13 12  1  1
 13 14  1  0
 14  7  1  0
 15 22  1  0
 15 13  1  0
 16 15  2  0
 18 17  1  0
 19 18  2  0
 20 18  1  0
 21 22  1  0
 21 20  1  6
 23 21  1  0
 24 23  1  0
 25 23  2  0
M  END
$$$$
