INN.pdb
     RDKit          3D

 25 24  0  0  1  0  0  0  0  0999 V2000
   29.3569  -22.9246  -16.2897 C   0  0  0  0  0  0  0  0  0  0  0  0
   28.5395  -21.7997  -16.8644 C   0  0  0  0  0  0  0  0  0  0  0  0
   27.4247  -21.3550  -15.9459 C   0  0  2  0  0  0  0  0  0  0  0  0
   26.4808  -22.4790  -15.6127 C   0  0  0  0  0  0  0  0  0  0  0  0
   26.7247  -20.1940  -16.6168 C   0  0  2  0  0  0  0  0  0  0  0  0
   27.7197  -19.2387  -17.0055 N   0  0  0  0  0  0  0  0  0  0  0  0
   25.7300  -19.5450  -15.7419 C   0  0  0  0  0  0  0  0  0  0  0  0
   25.8994  -18.3544  -15.3938 O   0  0  0  0  0  0  0  0  0  0  0  0
   21.0768  -17.9707  -14.8813 N   0  0  0  0  0  0  0  0  0  0  0  0
   21.7242  -18.0105  -16.1264 C   0  0  0  0  0  0  0  0  0  0  0  0
   21.2607  -17.3717  -17.1184 O   0  0  0  0  0  0  0  0  0  0  0  0
   22.9538  -18.7989  -16.2934 C   0  0  0  0  0  0  0  0  0  0  0  0
   23.3713  -19.4678  -14.9735 C   0  0  2  0  0  0  0  0  0  0  0  0
   24.5812  -20.2311  -15.2800 N   0  0  0  0  0  0  0  0  0  0  0  0
   22.2930  -20.3969  -14.5443 C   0  0  0  0  0  0  0  0  0  0  0  0
   21.4194  -20.7704  -15.3999 O   0  0  0  0  0  0  0  0  0  0  0  0
   18.3768  -20.7924  -11.3905 N   0  0  0  0  0  0  0  0  0  0  0  0
   19.2347  -19.6430  -11.3790 C   0  0  0  0  0  0  0  0  0  0  0  0
   18.8085  -18.6278  -10.7918 O   0  0  0  0  0  0  0  0  0  0  0  0
   20.5501  -19.6808  -12.0340 C   0  0  0  0  0  0  0  0  0  0  0  0
   20.9390  -21.0393  -12.5244 C   0  0  2  0  0  0  0  0  0  0  0  0
   22.2230  -20.8648  -13.2203 N   0  0  0  0  0  0  0  0  0  0  0  0
   19.9743  -21.6502  -13.4631 C   0  0  0  0  0  0  0  0  0  0  0  0
   19.4730  -22.9209  -13.1295 O   0  0  0  0  0  0  0  0  0  0  0  0
   19.5578  -21.1575  -14.5208 O   0  0  0  0  0  0  0  0  0  0  0  0
  1  2  1  0
  2  3  1  0
  3  4  1  6
  5  3  1  0
  5  6  1  1
  7  8  2  0
  7  5  1  0
 10  9  1  0
 10 12  1  0
 11 10  2  0
 13 12  1  6
 13 14  1  0
 14  7  1  0
 15 22  1  0
 15 13  1  0
 16 15  2  0
 18 17  1  0
 19 18  2  0
 20 18  1  0
 21 22  1  0
 21 20  1  6
 23 21  1  0
 24 23  1  0
 25 23  2  0
M  END
$$$$
