INN.pdb
     RDKit          3D

 25 24  0  0  1  0  0  0  0  0999 V2000
   11.9873  -10.4758   -9.0818 C   0  0  0  0  0  0  0  0  0  0  0  0
   12.9207  -10.6542  -10.2483 C   0  0  0  0  0  0  0  0  0  0  0  0
   14.2638   -9.9959  -10.0317 C   0  0  2  0  0  0  0  0  0  0  0  0
   14.1372   -8.5185   -9.7734 C   0  0  0  0  0  0  0  0  0  0  0  0
   15.1143  -10.2981  -11.2455 C   0  0  2  0  0  0  0  0  0  0  0  0
   15.2920  -11.7180  -11.3222 N   0  0  0  0  0  0  0  0  0  0  0  0
   16.4317   -9.6359  -11.1981 C   0  0  0  0  0  0  0  0  0  0  0  0
   17.3315  -10.1060  -10.4654 O   0  0  0  0  0  0  0  0  0  0  0  0
   20.5098   -6.7150  -12.1350 N   0  0  0  0  0  0  0  0  0  0  0  0
   19.8963   -7.1321  -13.3269 C   0  0  0  0  0  0  0  0  0  0  0  0
   20.4836   -6.9914  -14.4415 O   0  0  0  0  0  0  0  0  0  0  0  0
   18.5581   -7.7399  -13.2942 C   0  0  0  0  0  0  0  0  0  0  0  0
   18.0338   -7.8573  -11.8537 C   0  0  2  0  0  0  0  0  0  0  0  0
   16.7128   -8.4770  -11.9608 N   0  0  0  0  0  0  0  0  0  0  0  0
   17.8973   -6.4927  -11.2798 C   0  0  0  0  0  0  0  0  0  0  0  0
   18.9375   -5.7561  -11.1779 O   0  0  0  0  0  0  0  0  0  0  0  0
   17.1360   -1.2342  -11.7892 N   0  0  0  0  0  0  0  0  0  0  0  0
   17.0229   -2.3245  -10.8642 C   0  0  0  0  0  0  0  0  0  0  0  0
   17.1250   -2.0476   -9.6518 O   0  0  0  0  0  0  0  0  0  0  0  0
   16.7975   -3.6958  -11.3433 C   0  0  0  0  0  0  0  0  0  0  0  0
   16.4986   -4.6730  -10.2511 C   0  0  2  0  0  0  0  0  0  0  0  0
   16.6494   -6.0074  -10.8511 N   0  0  0  0  0  0  0  0  0  0  0  0
   15.1369   -4.5621   -9.6867 C   0  0  0  0  0  0  0  0  0  0  0  0
   14.9666   -3.6989   -8.5898 O   0  0  0  0  0  0  0  0  0  0  0  0
   14.1222   -5.1538  -10.0806 O   0  0  0  0  0  0  0  0  0  0  0  0
  1  2  1  0
  2  3  1  0
  3  4  1  6
  5  3  1  0
  5  6  1  1
  7  8  2  0
  7  5  1  0
 10  9  1  0
 10 12  1  0
 11 10  2  0
 13 12  1  6
 13 14  1  0
 14  7  1  0
 15 22  1  0
 15 13  1  0
 16 15  2  0
 18 17  1  0
 19 18  2  0
 20 18  1  0
 21 22  1  0
 21 20  1  6
 23 21  1  0
 24 23  1  0
 25 23  2  0
M  END
$$$$
