INN.pdb
     RDKit          3D

 25 24  0  0  1  0  0  0  0  0999 V2000
   28.4660  -19.4154   -3.2728 C   0  0  0  0  0  0  0  0  0  0  0  0
   28.1012  -18.8945   -4.6363 C   0  0  0  0  0  0  0  0  0  0  0  0
   28.1406  -19.9639   -5.7035 C   0  0  2  0  0  0  0  0  0  0  0  0
   29.4566  -20.6939   -5.7278 C   0  0  0  0  0  0  0  0  0  0  0  0
   27.8282  -19.2946   -7.0235 C   0  0  2  0  0  0  0  0  0  0  0  0
   27.0115  -18.1472   -6.7585 N   0  0  0  0  0  0  0  0  0  0  0  0
   27.1327  -20.1905   -7.9668 C   0  0  0  0  0  0  0  0  0  0  0  0
   27.7057  -21.2295   -8.3661 O   0  0  0  0  0  0  0  0  0  0  0  0
   23.8744  -21.7564   -7.3601 N   0  0  0  0  0  0  0  0  0  0  0  0
   23.1061  -21.0514   -8.3001 C   0  0  0  0  0  0  0  0  0  0  0  0
   21.8560  -20.9130   -8.1421 O   0  0  0  0  0  0  0  0  0  0  0  0
   23.7478  -20.4630   -9.4848 C   0  0  0  0  0  0  0  0  0  0  0  0
   25.2593  -20.7438   -9.4979 C   0  0  2  0  0  0  0  0  0  0  0  0
   25.8276  -19.9104   -8.4383 N   0  0  0  0  0  0  0  0  0  0  0  0
   25.8141  -20.3240  -10.8117 C   0  0  0  0  0  0  0  0  0  0  0  0
   26.2589  -19.1326  -10.9448 O   0  0  0  0  0  0  0  0  0  0  0  0
   27.5619  -20.6593  -15.7558 N   0  0  0  0  0  0  0  0  0  0  0  0
   28.1920  -21.4896  -14.7707 C   0  0  0  0  0  0  0  0  0  0  0  0
   29.2308  -22.0871  -15.1185 O   0  0  0  0  0  0  0  0  0  0  0  0
   27.6241  -21.6166  -13.4208 C   0  0  0  0  0  0  0  0  0  0  0  0
   26.3806  -20.8116  -13.2132 C   0  0  2  0  0  0  0  0  0  0  0  0
   25.8545  -21.2134  -11.8998 N   0  0  0  0  0  0  0  0  0  0  0  0
   25.3305  -21.0353  -14.2292 C   0  0  0  0  0  0  0  0  0  0  0  0
   25.3948  -20.2574  -15.3988 O   0  0  0  0  0  0  0  0  0  0  0  0
   24.3923  -21.8414  -14.1586 O   0  0  0  0  0  0  0  0  0  0  0  0
  1  2  1  0
  2  3  1  0
  3  4  1  6
  5  3  1  0
  5  6  1  1
  7  8  2  0
  7  5  1  0
 10  9  1  0
 10 12  1  0
 11 10  2  0
 13 12  1  6
 13 14  1  0
 14  7  1  0
 15 22  1  0
 15 13  1  0
 16 15  2  0
 18 17  1  0
 19 18  2  0
 20 18  1  0
 21 22  1  0
 21 20  1  6
 23 21  1  0
 24 23  1  0
 25 23  2  0
M  END
$$$$
