INN.pdb
     RDKit          3D

 25 24  0  0  1  0  0  0  0  0999 V2000
   27.1387  -15.5671  -18.6335 C   0  0  0  0  0  0  0  0  0  0  0  0
   27.6612  -16.7186  -17.8183 C   0  0  0  0  0  0  0  0  0  0  0  0
   26.5826  -17.7073  -17.4398 C   0  0  2  0  0  0  0  0  0  0  0  0
   25.4588  -17.0579  -16.6778 C   0  0  0  0  0  0  0  0  0  0  0  0
   27.2451  -18.8178  -16.6550 C   0  0  2  0  0  0  0  0  0  0  0  0
   28.3256  -19.3352  -17.4412 N   0  0  0  0  0  0  0  0  0  0  0  0
   26.3134  -19.9097  -16.3142 C   0  0  0  0  0  0  0  0  0  0  0  0
   26.3800  -20.9934  -16.9374 O   0  0  0  0  0  0  0  0  0  0  0  0
   23.3290  -23.3507  -14.4971 N   0  0  0  0  0  0  0  0  0  0  0  0
   24.7039  -23.2668  -14.2259 C   0  0  0  0  0  0  0  0  0  0  0  0
   25.3429  -24.2754  -13.8000 O   0  0  0  0  0  0  0  0  0  0  0  0
   25.4208  -22.0003  -14.4342 C   0  0  0  0  0  0  0  0  0  0  0  0
   24.4807  -20.9089  -14.9715 C   0  0  2  0  0  0  0  0  0  0  0  0
   25.3391  -19.7697  -15.2968 N   0  0  0  0  0  0  0  0  0  0  0  0
   23.5292  -20.5230  -13.8965 C   0  0  0  0  0  0  0  0  0  0  0  0
   23.8315  -19.5537  -13.1193 O   0  0  0  0  0  0  0  0  0  0  0  0
   19.8023  -17.9889  -13.3424 N   0  0  0  0  0  0  0  0  0  0  0  0
   20.3653  -18.3031  -14.6236 C   0  0  0  0  0  0  0  0  0  0  0  0
   20.2985  -17.4179  -15.5006 O   0  0  0  0  0  0  0  0  0  0  0  0
   20.9867  -19.6121  -14.8705 C   0  0  0  0  0  0  0  0  0  0  0  0
   21.0248  -20.4968  -13.6650 C   0  0  2  0  0  0  0  0  0  0  0  0
   22.3121  -21.2057  -13.7255 N   0  0  0  0  0  0  0  0  0  0  0  0
   19.9387  -21.4977  -13.6063 C   0  0  0  0  0  0  0  0  0  0  0  0
   19.2037  -21.5757  -12.4101 O   0  0  0  0  0  0  0  0  0  0  0  0
   19.6052  -22.2814  -14.5061 O   0  0  0  0  0  0  0  0  0  0  0  0
  1  2  1  0
  2  3  1  0
  3  4  1  1
  5  3  1  0
  5  6  1  6
  7  8  2  0
  7  5  1  0
 10  9  1  0
 10 12  1  0
 11 10  2  0
 13 12  1  1
 13 14  1  0
 14  7  1  0
 15 22  1  0
 15 13  1  0
 16 15  2  0
 18 17  1  0
 19 18  2  0
 20 18  1  0
 21 22  1  0
 21 20  1  6
 23 21  1  0
 24 23  1  0
 25 23  2  0
M  END
$$$$
