INN.pdb
     RDKit          3D

 25 24  0  0  1  0  0  0  0  0999 V2000
   15.5443  -10.5754  -17.7060 C   0  0  0  0  0  0  0  0  0  0  0  0
   17.0052  -10.6124  -17.3482 C   0  0  0  0  0  0  0  0  0  0  0  0
   17.3068   -9.9211  -16.0385 C   0  0  2  0  0  0  0  0  0  0  0  0
   16.8861   -8.4760  -16.0489 C   0  0  0  0  0  0  0  0  0  0  0  0
   18.7860  -10.0889  -15.7709 C   0  0  2  0  0  0  0  0  0  0  0  0
   19.0686  -11.4919  -15.6965 N   0  0  0  0  0  0  0  0  0  0  0  0
   19.2185   -9.4299  -14.5239 C   0  0  0  0  0  0  0  0  0  0  0  0
   18.8399   -9.8876  -13.4218 O   0  0  0  0  0  0  0  0  0  0  0  0
   22.0961   -6.6507  -11.1279 N   0  0  0  0  0  0  0  0  0  0  0  0
   22.0167   -5.9942  -12.3663 C   0  0  0  0  0  0  0  0  0  0  0  0
   22.3076   -4.7645  -12.4676 O   0  0  0  0  0  0  0  0  0  0  0  0
   21.5924   -6.7310  -13.5658 C   0  0  0  0  0  0  0  0  0  0  0  0
   20.3872   -7.6374  -13.2665 C   0  0  2  0  0  0  0  0  0  0  0  0
   20.0545   -8.2876  -14.5342 N   0  0  0  0  0  0  0  0  0  0  0  0
   19.2468   -6.7904  -12.8282 C   0  0  0  0  0  0  0  0  0  0  0  0
   18.7188   -5.9801  -13.6646 O   0  0  0  0  0  0  0  0  0  0  0  0
   15.2623   -4.6493  -10.4722 N   0  0  0  0  0  0  0  0  0  0  0  0
   15.1755   -5.9036  -11.1623 C   0  0  0  0  0  0  0  0  0  0  0  0
   14.0335   -6.2951  -11.4778 O   0  0  0  0  0  0  0  0  0  0  0  0
   16.3873   -6.6754  -11.4731 C   0  0  0  0  0  0  0  0  0  0  0  0
   17.6541   -6.0033  -11.0478 C   0  0  2  0  0  0  0  0  0  0  0  0
   18.7470   -6.8689  -11.5164 N   0  0  0  0  0  0  0  0  0  0  0  0
   17.7901   -5.8229   -9.5870 C   0  0  0  0  0  0  0  0  0  0  0  0
   16.8752   -4.9583   -8.9605 O   0  0  0  0  0  0  0  0  0  0  0  0
   18.6316   -6.3565   -8.8507 O   0  0  0  0  0  0  0  0  0  0  0  0
  1  2  1  0
  2  3  1  0
  3  4  1  6
  5  3  1  0
  5  6  1  1
  7  8  2  0
  7  5  1  0
 10  9  1  0
 10 12  1  0
 11 10  2  0
 13 12  1  6
 13 14  1  0
 14  7  1  0
 15 22  1  0
 15 13  1  0
 16 15  2  0
 18 17  1  0
 19 18  2  0
 20 18  1  0
 21 22  1  0
 21 20  1  1
 23 21  1  0
 24 23  1  0
 25 23  2  0
M  END
$$$$
