INN.pdb
     RDKit          3D

 25 24  0  0  1  0  0  0  0  0999 V2000
   17.5874  -16.1155  -16.9935 C   0  0  0  0  0  0  0  0  0  0  0  0
   17.8294  -15.0379  -15.9718 C   0  0  0  0  0  0  0  0  0  0  0  0
   17.9026  -13.6567  -16.5810 C   0  0  2  0  0  0  0  0  0  0  0  0
   19.0563  -13.5182  -17.5376 C   0  0  0  0  0  0  0  0  0  0  0  0
   17.9766  -12.6652  -15.4411 C   0  0  2  0  0  0  0  0  0  0  0  0
   16.8373  -12.8716  -14.5968 N   0  0  0  0  0  0  0  0  0  0  0  0
   18.0027  -11.2647  -15.9041 C   0  0  0  0  0  0  0  0  0  0  0  0
   18.9871  -10.8499  -16.5569 O   0  0  0  0  0  0  0  0  0  0  0  0
   16.6225   -6.5457  -17.3054 N   0  0  0  0  0  0  0  0  0  0  0  0
   15.4719   -7.1578  -16.7834 C   0  0  0  0  0  0  0  0  0  0  0  0
   14.3460   -6.5783  -16.8432 O   0  0  0  0  0  0  0  0  0  0  0  0
   15.5619   -8.4852  -16.1578 C   0  0  0  0  0  0  0  0  0  0  0  0
   17.0091   -9.0044  -16.1568 C   0  0  2  0  0  0  0  0  0  0  0  0
   16.9415  -10.3683  -15.6316 N   0  0  0  0  0  0  0  0  0  0  0  0
   17.8215   -8.1595  -15.2424 C   0  0  0  0  0  0  0  0  0  0  0  0
   17.7040   -8.3222  -13.9796 O   0  0  0  0  0  0  0  0  0  0  0  0
   22.9089   -5.5064  -14.4929 N   0  0  0  0  0  0  0  0  0  0  0  0
   21.7773   -6.1693  -13.9125 C   0  0  0  0  0  0  0  0  0  0  0  0
   21.6342   -6.0625  -12.6775 O   0  0  0  0  0  0  0  0  0  0  0  0
   20.8425   -6.9333  -14.7511 C   0  0  0  0  0  0  0  0  0  0  0  0
   19.4855   -6.3132  -14.8577 C   0  0  2  0  0  0  0  0  0  0  0  0
   18.7089   -7.1920  -15.7453 N   0  0  0  0  0  0  0  0  0  0  0  0
   19.4796   -4.9480  -15.4245 C   0  0  0  0  0  0  0  0  0  0  0  0
   19.0738   -3.9036  -14.5751 O   0  0  0  0  0  0  0  0  0  0  0  0
   19.7964   -4.6243  -16.5777 O   0  0  0  0  0  0  0  0  0  0  0  0
  1  2  1  0
  2  3  1  0
  3  4  1  6
  5  3  1  0
  5  6  1  1
  7  8  2  0
  7  5  1  0
 10  9  1  0
 10 12  1  0
 11 10  2  0
 13 12  1  1
 13 14  1  0
 14  7  1  0
 15 22  1  0
 15 13  1  0
 16 15  2  0
 18 17  1  0
 19 18  2  0
 20 18  1  0
 21 22  1  0
 21 20  1  6
 23 21  1  0
 24 23  1  0
 25 23  2  0
M  END
$$$$
