INN.pdb
     RDKit          3D

 25 24  0  0  1  0  0  0  0  0999 V2000
   15.9621  -11.0173  -19.3236 C   0  0  0  0  0  0  0  0  0  0  0  0
   17.2777  -11.6523  -18.9638 C   0  0  0  0  0  0  0  0  0  0  0  0
   18.0069  -10.9114  -17.8667 C   0  0  2  0  0  0  0  0  0  0  0  0
   18.3372   -9.4964  -18.2595 C   0  0  0  0  0  0  0  0  0  0  0  0
   19.2400  -11.7168  -17.5221 C   0  0  2  0  0  0  0  0  0  0  0  0
   18.8187  -13.0275  -17.1243 N   0  0  0  0  0  0  0  0  0  0  0  0
   20.0381  -11.1043  -16.4431 C   0  0  0  0  0  0  0  0  0  0  0  0
   19.6107  -11.1358  -15.2667 O   0  0  0  0  0  0  0  0  0  0  0  0
   22.5537  -12.1645  -14.4279 N   0  0  0  0  0  0  0  0  0  0  0  0
   23.6454  -11.4594  -14.9589 C   0  0  0  0  0  0  0  0  0  0  0  0
   24.8270  -11.8993  -14.8267 O   0  0  0  0  0  0  0  0  0  0  0  0
   23.4279  -10.1957  -15.6780 C   0  0  0  0  0  0  0  0  0  0  0  0
   21.9540   -9.7630  -15.6125 C   0  0  2  0  0  0  0  0  0  0  0  0
   21.2815  -10.4775  -16.6976 N   0  0  0  0  0  0  0  0  0  0  0  0
   21.8723   -8.2988  -15.8560 C   0  0  0  0  0  0  0  0  0  0  0  0
   22.1867   -7.8435  -17.0087 O   0  0  0  0  0  0  0  0  0  0  0  0
   18.4599   -3.6397  -14.8376 N   0  0  0  0  0  0  0  0  0  0  0  0
   19.6238   -4.2365  -15.4261 C   0  0  0  0  0  0  0  0  0  0  0  0
   20.3625   -3.4876  -16.0974 O   0  0  0  0  0  0  0  0  0  0  0  0
   19.9138   -5.6648  -15.2351 C   0  0  0  0  0  0  0  0  0  0  0  0
   21.3690   -5.9653  -15.0636 C   0  0  2  0  0  0  0  0  0  0  0  0
   21.4579   -7.4168  -14.8426 N   0  0  0  0  0  0  0  0  0  0  0  0
   22.0057   -5.2757  -13.9217 C   0  0  0  0  0  0  0  0  0  0  0  0
   22.4059   -3.9426  -14.1210 O   0  0  0  0  0  0  0  0  0  0  0  0
   22.2259   -5.7517  -12.7993 O   0  0  0  0  0  0  0  0  0  0  0  0
  1  2  1  0
  2  3  1  0
  3  4  1  6
  5  3  1  0
  5  6  1  1
  7  8  2  0
  7  5  1  0
 10  9  1  0
 10 12  1  0
 11 10  2  0
 13 12  1  6
 13 14  1  0
 14  7  1  0
 15 22  1  0
 15 13  1  0
 16 15  2  0
 18 17  1  0
 19 18  2  0
 20 18  1  0
 21 22  1  0
 21 20  1  1
 23 21  1  0
 24 23  1  0
 25 23  2  0
M  END
$$$$
