INN.pdb
     RDKit          3D

 25 24  0  0  1  0  0  0  0  0999 V2000
   17.2727  -12.7155  -17.1614 C   0  0  0  0  0  0  0  0  0  0  0  0
   18.5479  -11.9171  -17.1624 C   0  0  0  0  0  0  0  0  0  0  0  0
   18.6968  -11.0466  -15.9360 C   0  0  2  0  0  0  0  0  0  0  0  0
   17.5826  -10.0421  -15.8138 C   0  0  0  0  0  0  0  0  0  0  0  0
   20.0580  -10.3914  -16.0114 C   0  0  2  0  0  0  0  0  0  0  0  0
   21.0486  -11.4261  -16.0504 N   0  0  0  0  0  0  0  0  0  0  0  0
   20.3233   -9.4945  -14.8705 C   0  0  0  0  0  0  0  0  0  0  0  0
   20.5634   -9.9851  -13.7440 O   0  0  0  0  0  0  0  0  0  0  0  0
   20.8399   -5.2980  -11.9229 N   0  0  0  0  0  0  0  0  0  0  0  0
   21.4826   -5.0864  -13.1530 C   0  0  0  0  0  0  0  0  0  0  0  0
   22.2554   -4.0952  -13.3181 O   0  0  0  0  0  0  0  0  0  0  0  0
   21.2642   -6.0181  -14.2691 C   0  0  0  0  0  0  0  0  0  0  0  0
   20.4643   -7.2512  -13.8181 C   0  0  2  0  0  0  0  0  0  0  0  0
   20.3150   -8.0859  -15.0103 N   0  0  0  0  0  0  0  0  0  0  0  0
   19.1243   -6.8092  -13.3500 C   0  0  0  0  0  0  0  0  0  0  0  0
   18.2988   -6.3271  -14.1991 O   0  0  0  0  0  0  0  0  0  0  0  0
   15.9543   -6.6200   -8.1651 N   0  0  0  0  0  0  0  0  0  0  0  0
   15.9578   -6.9724   -9.5554 C   0  0  0  0  0  0  0  0  0  0  0  0
   14.8536   -6.9829  -10.1367 O   0  0  0  0  0  0  0  0  0  0  0  0
   17.2140   -7.3023  -10.2436 C   0  0  0  0  0  0  0  0  0  0  0  0
   17.4101   -6.5588  -11.5266 C   0  0  2  0  0  0  0  0  0  0  0  0
   18.7579   -6.9136  -11.9967 N   0  0  0  0  0  0  0  0  0  0  0  0
   17.3279   -5.0883  -11.4001 C   0  0  0  0  0  0  0  0  0  0  0  0
   16.1073   -4.4828  -11.7473 O   0  0  0  0  0  0  0  0  0  0  0  0
   18.2277   -4.3271  -11.0181 O   0  0  0  0  0  0  0  0  0  0  0  0
  1  2  1  0
  2  3  1  0
  3  4  1  6
  5  3  1  0
  5  6  1  1
  7  8  2  0
  7  5  1  0
 10  9  1  0
 10 12  1  0
 11 10  2  0
 13 12  1  6
 13 14  1  0
 14  7  1  0
 15 22  1  0
 15 13  1  0
 16 15  2  0
 18 17  1  0
 19 18  2  0
 20 18  1  0
 21 22  1  0
 21 20  1  1
 23 21  1  0
 24 23  1  0
 25 23  2  0
M  END
$$$$
