INN.pdb
     RDKit          3D

 25 24  0  0  1  0  0  0  0  0999 V2000
   28.7483  -17.8678  -17.9584 C   0  0  0  0  0  0  0  0  0  0  0  0
   28.5521  -18.5957  -16.6564 C   0  0  0  0  0  0  0  0  0  0  0  0
   27.0988  -18.8827  -16.3572 C   0  0  2  0  0  0  0  0  0  0  0  0
   26.4609  -17.7918  -15.5397 C   0  0  0  0  0  0  0  0  0  0  0  0
   27.0379  -20.2287  -15.6699 C   0  0  2  0  0  0  0  0  0  0  0  0
   27.6740  -21.1916  -16.5195 N   0  0  0  0  0  0  0  0  0  0  0  0
   25.6569  -20.6594  -15.3804 C   0  0  0  0  0  0  0  0  0  0  0  0
   24.8959  -20.9653  -16.3263 O   0  0  0  0  0  0  0  0  0  0  0  0
   25.6514  -23.6854  -12.0347 N   0  0  0  0  0  0  0  0  0  0  0  0
   24.4742  -23.3468  -12.7207 C   0  0  0  0  0  0  0  0  0  0  0  0
   23.9301  -24.1683  -13.5182 O   0  0  0  0  0  0  0  0  0  0  0  0
   23.8569  -22.0277  -12.5197 C   0  0  0  0  0  0  0  0  0  0  0  0
   23.8020  -21.2314  -13.8338 C   0  0  2  0  0  0  0  0  0  0  0  0
   25.1613  -20.7384  -14.0568 N   0  0  0  0  0  0  0  0  0  0  0  0
   22.8782  -20.0799  -13.6589 C   0  0  0  0  0  0  0  0  0  0  0  0
   23.0919  -19.2524  -12.7079 O   0  0  0  0  0  0  0  0  0  0  0  0
   19.3399  -16.3921  -16.6751 N   0  0  0  0  0  0  0  0  0  0  0  0
   20.0673  -16.7401  -15.4890 C   0  0  0  0  0  0  0  0  0  0  0  0
   19.8681  -16.0352  -14.4788 O   0  0  0  0  0  0  0  0  0  0  0  0
   20.9986  -17.8774  -15.4854 C   0  0  0  0  0  0  0  0  0  0  0  0
   20.8173  -18.7995  -14.3218 C   0  0  2  0  0  0  0  0  0  0  0  0
   21.7819  -19.8923  -14.5189 N   0  0  0  0  0  0  0  0  0  0  0  0
   19.4635  -19.3819  -14.2078 C   0  0  0  0  0  0  0  0  0  0  0  0
   18.4828  -18.6026  -13.5689 O   0  0  0  0  0  0  0  0  0  0  0  0
   19.0987  -20.4924  -14.6185 O   0  0  0  0  0  0  0  0  0  0  0  0
  1  2  1  0
  2  3  1  0
  3  4  1  1
  5  3  1  0
  5  6  1  6
  7  8  2  0
  7  5  1  0
 10  9  1  0
 10 12  1  0
 11 10  2  0
 13 12  1  1
 13 14  1  0
 14  7  1  0
 15 22  1  0
 15 13  1  0
 16 15  2  0
 18 17  1  0
 19 18  2  0
 20 18  1  0
 21 22  1  0
 21 20  1  6
 23 21  1  0
 24 23  1  0
 25 23  2  0
M  END
$$$$
