INN.pdb
     RDKit          3D

 25 24  0  0  1  0  0  0  0  0999 V2000
   16.3590  -15.4097  -16.0123 C   0  0  0  0  0  0  0  0  0  0  0  0
   17.7098  -15.3752  -16.6739 C   0  0  0  0  0  0  0  0  0  0  0  0
   18.4775  -14.1079  -16.3762 C   0  0  2  0  0  0  0  0  0  0  0  0
   17.7522  -12.8789  -16.8546 C   0  0  0  0  0  0  0  0  0  0  0  0
   19.8454  -14.2516  -17.0055 C   0  0  2  0  0  0  0  0  0  0  0  0
   20.4817  -15.3995  -16.4300 N   0  0  0  0  0  0  0  0  0  0  0  0
   20.6939  -13.0618  -16.8039 C   0  0  0  0  0  0  0  0  0  0  0  0
   21.1693  -12.8293  -15.6693 O   0  0  0  0  0  0  0  0  0  0  0  0
   23.3084   -8.6980  -17.4902 N   0  0  0  0  0  0  0  0  0  0  0  0
   23.2299   -9.3357  -18.7385 C   0  0  0  0  0  0  0  0  0  0  0  0
   23.8341   -8.8619  -19.7472 O   0  0  0  0  0  0  0  0  0  0  0  0
   22.4409  -10.5670  -18.8893 C   0  0  0  0  0  0  0  0  0  0  0  0
   21.7464  -10.9495  -17.5721 C   0  0  2  0  0  0  0  0  0  0  0  0
   20.9899  -12.1680  -17.8608 N   0  0  0  0  0  0  0  0  0  0  0  0
   20.8085   -9.8610  -17.1903 C   0  0  0  0  0  0  0  0  0  0  0  0
   19.6892   -9.7646  -17.8008 O   0  0  0  0  0  0  0  0  0  0  0  0
   18.2767   -6.2349  -14.5526 N   0  0  0  0  0  0  0  0  0  0  0  0
   18.1900   -7.6473  -14.3187 C   0  0  0  0  0  0  0  0  0  0  0  0
   17.2657   -8.0400  -13.5780 O   0  0  0  0  0  0  0  0  0  0  0  0
   19.1549   -8.5710  -14.9323 C   0  0  0  0  0  0  0  0  0  0  0  0
   20.2032   -7.8884  -15.7522 C   0  0  2  0  0  0  0  0  0  0  0  0
   21.1353   -8.9445  -16.1756 N   0  0  0  0  0  0  0  0  0  0  0  0
   20.9663   -6.8500  -15.0279 C   0  0  0  0  0  0  0  0  0  0  0  0
   20.4877   -5.5303  -15.1086 O   0  0  0  0  0  0  0  0  0  0  0  0
   21.9908   -7.0207  -14.3525 O   0  0  0  0  0  0  0  0  0  0  0  0
  1  2  1  0
  2  3  1  0
  3  4  1  6
  5  3  1  0
  5  6  1  1
  7  8  2  0
  7  5  1  0
 10  9  1  0
 10 12  1  0
 11 10  2  0
 13 12  1  6
 13 14  1  0
 14  7  1  0
 15 22  1  0
 15 13  1  0
 16 15  2  0
 18 17  1  0
 19 18  2  0
 20 18  1  0
 21 22  1  0
 21 20  1  1
 23 21  1  0
 24 23  1  0
 25 23  2  0
M  END
$$$$
