INN.pdb
     RDKit          3D

 25 24  0  0  1  0  0  0  0  0999 V2000
   19.2485  -13.7863  -17.0998 C   0  0  0  0  0  0  0  0  0  0  0  0
   18.7900  -12.7612  -16.0986 C   0  0  0  0  0  0  0  0  0  0  0  0
   19.0409  -11.3422  -16.5540 C   0  0  2  0  0  0  0  0  0  0  0  0
   20.5031  -11.0695  -16.7840 C   0  0  0  0  0  0  0  0  0  0  0  0
   18.4396  -10.4226  -15.5144 C   0  0  2  0  0  0  0  0  0  0  0  0
   17.1815  -10.9744  -15.1064 N   0  0  0  0  0  0  0  0  0  0  0  0
   18.2391   -9.0495  -16.0150 C   0  0  0  0  0  0  0  0  0  0  0  0
   18.6286   -8.7506  -17.1667 O   0  0  0  0  0  0  0  0  0  0  0  0
   15.7839   -6.4591  -17.8679 N   0  0  0  0  0  0  0  0  0  0  0  0
   15.2440   -6.1603  -16.6069 C   0  0  0  0  0  0  0  0  0  0  0  0
   14.0230   -5.8431  -16.4836 O   0  0  0  0  0  0  0  0  0  0  0  0
   16.0950   -6.2125  -15.4091 C   0  0  0  0  0  0  0  0  0  0  0  0
   17.5151   -6.6899  -15.7540 C   0  0  2  0  0  0  0  0  0  0  0  0
   17.6153   -8.0515  -15.2284 N   0  0  0  0  0  0  0  0  0  0  0  0
   18.4972   -5.8158  -15.0600 C   0  0  0  0  0  0  0  0  0  0  0  0
   18.4543   -5.7252  -13.7853 O   0  0  0  0  0  0  0  0  0  0  0  0
   21.5689   -6.1768  -13.4811 N   0  0  0  0  0  0  0  0  0  0  0  0
   22.3121   -5.7400  -14.6274 C   0  0  0  0  0  0  0  0  0  0  0  0
   23.4148   -6.2891  -14.8265 O   0  0  0  0  0  0  0  0  0  0  0  0
   21.7815   -4.6934  -15.5126 C   0  0  0  0  0  0  0  0  0  0  0  0
   20.4253   -4.2018  -15.1172 C   0  0  2  0  0  0  0  0  0  0  0  0
   19.4632   -5.0937  -15.7824 N   0  0  0  0  0  0  0  0  0  0  0  0
   20.1362   -2.8105  -15.5243 C   0  0  0  0  0  0  0  0  0  0  0  0
   19.6547   -2.6123  -16.8305 O   0  0  0  0  0  0  0  0  0  0  0  0
   20.2747   -1.7929  -14.8314 O   0  0  0  0  0  0  0  0  0  0  0  0
  1  2  1  0
  2  3  1  0
  3  4  1  1
  5  3  1  0
  5  6  1  6
  7  8  2  0
  7  5  1  0
 10  9  1  0
 10 12  1  0
 11 10  2  0
 13 12  1  1
 13 14  1  0
 14  7  1  0
 15 22  1  0
 15 13  1  0
 16 15  2  0
 18 17  1  0
 19 18  2  0
 20 18  1  0
 21 22  1  0
 21 20  1  6
 23 21  1  0
 24 23  1  0
 25 23  2  0
M  END
$$$$
