LVD.pdb
     RDKit          3D

 24 23  0  0  1  0  0  0  0  0999 V2000
   24.6977  -14.6191  -14.5443 C   0  0  0  0  0  0  0  0  0  0  0  0
   24.9538  -14.3273  -15.9894 C   0  0  2  0  0  0  0  0  0  0  0  0
   26.4450  -14.1894  -16.1971 C   0  0  0  0  0  0  0  0  0  0  0  0
   24.1979  -13.1336  -16.5017 C   0  0  0  0  0  0  0  0  0  0  0  0
   22.7148  -13.3539  -16.2315 C   0  0  2  0  0  0  0  0  0  0  0  0
   22.2777  -14.5202  -16.9398 N   0  0  0  0  0  0  0  0  0  0  0  0
   21.9360  -12.1373  -16.6399 C   0  0  0  0  0  0  0  0  0  0  0  0
   22.0647  -11.6783  -17.8013 O   0  0  0  0  0  0  0  0  0  0  0  0
   18.4888  -11.5298  -17.2859 C   0  0  0  0  0  0  0  0  0  0  0  0
   18.8356  -10.5729  -16.1115 C   0  0  2  0  0  0  0  0  0  0  0  0
   18.0325   -9.3355  -16.4032 C   0  0  0  0  0  0  0  0  0  0  0  0
   20.3012  -10.2867  -16.1392 C   0  0  2  0  0  0  0  0  0  0  0  0
   21.0546  -11.4846  -15.7541 N   0  0  0  0  0  0  0  0  0  0  0  0
   20.6939   -9.1583  -15.2236 C   0  0  0  0  0  0  0  0  0  0  0  0
   21.4347   -9.3996  -14.2259 O   0  0  0  0  0  0  0  0  0  0  0  0
   20.2739   -7.8420  -15.4349 N   0  0  0  0  0  0  0  0  0  0  0  0
   20.7354   -6.6548  -14.7827 C   0  0  1  0  0  0  0  0  0  0  0  0
   22.2437   -6.4912  -14.7188 C   0  0  0  0  0  0  0  0  0  0  0  0
   22.5960   -5.2579  -13.9624 C   0  0  0  0  0  0  0  0  0  0  0  0
   22.2500   -5.1831  -12.7395 O   0  0  0  0  0  0  0  0  0  0  0  0
   20.0770   -5.4493  -15.2599 C   0  0  0  0  0  0  0  0  0  0  0  0
   19.5386   -5.3432  -16.4004 O   0  0  0  0  0  0  0  0  0  0  0  0
   23.2709   -4.2009  -14.5098 O   0  0  0  0  0  0  0  0  0  0  0  0
   20.0137   -4.3267  -14.4471 O   0  0  0  0  0  0  0  0  0  0  0  0
  2  1  1  1
  2  3  1  0
  4  5  1  0
  4  2  1  0
  5  7  1  0
  5  6  1  6
  7 13  1  0
  8  7  2  0
 10 11  1  6
 10  9  1  0
 12 10  1  0
 12 13  1  1
 14 12  1  0
 14 16  1  0
 15 14  2  0
 17 16  1  0
 17 21  1  0
 17 18  1  6
 19 18  1  0
 20 19  2  0
 21 22  2  0
 21 24  1  0
 23 19  1  0
M  END
$$$$
