LVD.pdb
     RDKit          3D

 24 23  0  0  1  0  0  0  0  0999 V2000
   24.7365  -11.3107  -14.2183 C   0  0  0  0  0  0  0  0  0  0  0  0
   25.0028  -11.1543  -15.6824 C   0  0  2  0  0  0  0  0  0  0  0  0
   26.4645  -10.8187  -15.8739 C   0  0  0  0  0  0  0  0  0  0  0  0
   24.1002  -10.1560  -16.3514 C   0  0  0  0  0  0  0  0  0  0  0  0
   22.6563  -10.5647  -16.0889 C   0  0  2  0  0  0  0  0  0  0  0  0
   22.4046  -11.8266  -16.7193 N   0  0  0  0  0  0  0  0  0  0  0  0
   21.7255   -9.5011  -16.5944 C   0  0  0  0  0  0  0  0  0  0  0  0
   21.6440   -9.2819  -17.8280 O   0  0  0  0  0  0  0  0  0  0  0  0
   18.1586   -9.1943  -16.8416 C   0  0  0  0  0  0  0  0  0  0  0  0
   18.6077   -8.0511  -15.8894 C   0  0  2  0  0  0  0  0  0  0  0  0
   17.6679   -6.9219  -16.2105 C   0  0  0  0  0  0  0  0  0  0  0  0
   20.0210   -7.6867  -16.2062 C   0  0  2  0  0  0  0  0  0  0  0  0
   20.9300   -8.7308  -15.7219 N   0  0  0  0  0  0  0  0  0  0  0  0
   20.4353   -6.3719  -15.6016 C   0  0  0  0  0  0  0  0  0  0  0  0
   20.7593   -6.3275  -14.3787 O   0  0  0  0  0  0  0  0  0  0  0  0
   20.4818   -5.1883  -16.3435 N   0  0  0  0  0  0  0  0  0  0  0  0
   20.8846   -3.8878  -15.9027 C   0  0  1  0  0  0  0  0  0  0  0  0
   22.1861   -3.3742  -16.4929 C   0  0  0  0  0  0  0  0  0  0  0  0
   22.5074   -2.0300  -15.9388 C   0  0  0  0  0  0  0  0  0  0  0  0
   21.6878   -1.5069  -15.1169 O   0  0  0  0  0  0  0  0  0  0  0  0
   19.8203   -2.9008  -15.9906 C   0  0  0  0  0  0  0  0  0  0  0  0
   19.1113   -2.7171  -17.0228 O   0  0  0  0  0  0  0  0  0  0  0  0
   23.6349   -1.3265  -16.2647 O   0  0  0  0  0  0  0  0  0  0  0  0
   19.5335   -2.0927  -14.9000 O   0  0  0  0  0  0  0  0  0  0  0  0
  2  1  1  1
  2  3  1  0
  4  5  1  0
  4  2  1  0
  5  7  1  0
  5  6  1  6
  7 13  1  0
  8  7  2  0
 10 11  1  6
 10  9  1  0
 12 10  1  0
 12 13  1  1
 14 12  1  0
 14 16  1  0
 15 14  2  0
 17 16  1  0
 17 21  1  0
 17 18  1  6
 19 18  1  0
 20 19  2  0
 21 22  2  0
 21 24  1  0
 23 19  1  0
M  END
$$$$
