LVD.pdb
     RDKit          3D

 24 23  0  0  1  0  0  0  0  0999 V2000
   18.8707  -15.3637  -19.4724 C   0  0  0  0  0  0  0  0  0  0  0  0
   19.7064  -15.8105  -18.3144 C   0  0  2  0  0  0  0  0  0  0  0  0
   19.1887  -17.1468  -17.8327 C   0  0  0  0  0  0  0  0  0  0  0  0
   19.7813  -14.7990  -17.2053 C   0  0  0  0  0  0  0  0  0  0  0  0
   20.2687  -13.4802  -17.7920 C   0  0  2  0  0  0  0  0  0  0  0  0
   21.5844  -13.6641  -18.3288 N   0  0  0  0  0  0  0  0  0  0  0  0
   20.2489  -12.4140  -16.7356 C   0  0  0  0  0  0  0  0  0  0  0  0
   19.2301  -12.2714  -16.0159 O   0  0  0  0  0  0  0  0  0  0  0  0
   23.0362  -11.8855  -14.1186 C   0  0  0  0  0  0  0  0  0  0  0  0
   22.7467  -10.5320  -14.8254 C   0  0  2  0  0  0  0  0  0  0  0  0
   22.8179   -9.5209  -13.7146 C   0  0  0  0  0  0  0  0  0  0  0  0
   21.3796  -10.5835  -15.4245 C   0  0  2  0  0  0  0  0  0  0  0  0
   21.3476  -11.5571  -16.5209 N   0  0  0  0  0  0  0  0  0  0  0  0
   20.9226   -9.2504  -15.9536 C   0  0  0  0  0  0  0  0  0  0  0  0
   21.5341   -8.7300  -16.9322 O   0  0  0  0  0  0  0  0  0  0  0  0
   19.8377   -8.5598  -15.4063 N   0  0  0  0  0  0  0  0  0  0  0  0
   19.2954   -7.3017  -15.8197 C   0  0  1  0  0  0  0  0  0  0  0  0
   17.7834   -7.2562  -15.9523 C   0  0  0  0  0  0  0  0  0  0  0  0
   17.3455   -5.9018  -16.3892 C   0  0  0  0  0  0  0  0  0  0  0  0
   18.2395   -5.0207  -16.6025 O   0  0  0  0  0  0  0  0  0  0  0  0
   19.8081   -6.1792  -15.0504 C   0  0  0  0  0  0  0  0  0  0  0  0
   19.9081   -5.0010  -15.5017 O   0  0  0  0  0  0  0  0  0  0  0  0
   16.0355   -5.5525  -16.5738 O   0  0  0  0  0  0  0  0  0  0  0  0
   20.2226   -6.3693  -13.7401 O   0  0  0  0  0  0  0  0  0  0  0  0
  2  1  1  6
  2  3  1  0
  4  5  1  0
  4  2  1  0
  5  7  1  0
  5  6  1  1
  7 13  1  0
  8  7  2  0
 10 11  1  1
 10  9  1  0
 12 10  1  0
 12 13  1  6
 14 12  1  0
 14 16  1  0
 15 14  2  0
 17 16  1  0
 17 21  1  0
 17 18  1  1
 19 18  1  0
 20 19  2  0
 21 22  2  0
 21 24  1  0
 23 19  1  0
M  END
$$$$
