LVD.pdb
     RDKit          3D

 24 23  0  0  1  0  0  0  0  0999 V2000
   22.2725  -11.3240  -21.4017 C   0  0  0  0  0  0  0  0  0  0  0  0
   20.7947  -11.3961  -21.1786 C   0  0  2  0  0  0  0  0  0  0  0  0
   20.0958  -10.7945  -22.3767 C   0  0  0  0  0  0  0  0  0  0  0  0
   20.3528  -10.7637  -19.8888 C   0  0  0  0  0  0  0  0  0  0  0  0
   21.1028  -11.4347  -18.7450 C   0  0  2  0  0  0  0  0  0  0  0  0
   20.6851  -12.8020  -18.6491 N   0  0  0  0  0  0  0  0  0  0  0  0
   20.8520  -10.6912  -17.4653 C   0  0  0  0  0  0  0  0  0  0  0  0
   19.7560  -10.8321  -16.8695 O   0  0  0  0  0  0  0  0  0  0  0  0
   22.8710  -10.9173  -14.4069 C   0  0  0  0  0  0  0  0  0  0  0  0
   22.7813   -9.3977  -14.7199 C   0  0  2  0  0  0  0  0  0  0  0  0
   22.5772   -8.7618  -13.3726 C   0  0  0  0  0  0  0  0  0  0  0  0
   21.6103   -9.1579  -15.6153 C   0  0  2  0  0  0  0  0  0  0  0  0
   21.8159   -9.8299  -16.9026 N   0  0  0  0  0  0  0  0  0  0  0  0
   21.3603   -7.6960  -15.8721 C   0  0  0  0  0  0  0  0  0  0  0  0
   22.0560   -7.0919  -16.7402 O   0  0  0  0  0  0  0  0  0  0  0  0
   20.3790   -6.9728  -15.1882 N   0  0  0  0  0  0  0  0  0  0  0  0
   19.9609   -5.6233  -15.4152 C   0  0  1  0  0  0  0  0  0  0  0  0
   19.7841   -5.2325  -16.8719 C   0  0  0  0  0  0  0  0  0  0  0  0
   19.3803   -3.8031  -16.9759 C   0  0  0  0  0  0  0  0  0  0  0  0
   19.9339   -2.9635  -16.1952 O   0  0  0  0  0  0  0  0  0  0  0  0
   18.8164   -5.2370  -14.6055 C   0  0  0  0  0  0  0  0  0  0  0  0
   18.1594   -6.0415  -13.8824 O   0  0  0  0  0  0  0  0  0  0  0  0
   18.4469   -3.3428  -17.8643 O   0  0  0  0  0  0  0  0  0  0  0  0
   18.3876   -3.9176  -14.5973 O   0  0  0  0  0  0  0  0  0  0  0  0
  2  1  1  6
  2  3  1  0
  4  5  1  0
  4  2  1  0
  5  7  1  0
  5  6  1  1
  7 13  1  0
  8  7  2  0
 10 11  1  1
 10  9  1  0
 12 10  1  0
 12 13  1  6
 14 12  1  0
 14 16  1  0
 15 14  2  0
 17 16  1  0
 17 21  1  0
 17 18  1  6
 19 18  1  0
 20 19  2  0
 21 22  2  0
 21 24  1  0
 23 19  1  0
M  END
$$$$
