LVD.pdb
     RDKit          3D

 24 23  0  0  1  0  0  0  0  0999 V2000
   29.4206  -20.2486   -5.2069 C   0  0  0  0  0  0  0  0  0  0  0  0
   27.9600  -20.0442   -4.9542 C   0  0  2  0  0  0  0  0  0  0  0  0
   27.5474  -20.9070   -3.7833 C   0  0  0  0  0  0  0  0  0  0  0  0
   27.1037  -20.2861   -6.1654 C   0  0  0  0  0  0  0  0  0  0  0  0
   27.5893  -19.3742   -7.2851 C   0  0  2  0  0  0  0  0  0  0  0  0
   27.4806  -18.0105   -6.8590 N   0  0  0  0  0  0  0  0  0  0  0  0
   26.7913  -19.6274   -8.5310 C   0  0  0  0  0  0  0  0  0  0  0  0
   25.6149  -19.1967   -8.6134 O   0  0  0  0  0  0  0  0  0  0  0  0
   27.2782  -20.4579  -13.4114 C   0  0  0  0  0  0  0  0  0  0  0  0
   27.8452  -20.6340  -11.9752 C   0  0  2  0  0  0  0  0  0  0  0  0
   28.0772  -22.1150  -11.8564 C   0  0  0  0  0  0  0  0  0  0  0  0
   26.8230  -20.1651  -10.9923 C   0  0  2  0  0  0  0  0  0  0  0  0
   27.3233  -20.3402   -9.6248 N   0  0  0  0  0  0  0  0  0  0  0  0
   25.5118  -20.8932  -11.1202 C   0  0  0  0  0  0  0  0  0  0  0  0
   25.2202  -21.7955  -10.2816 O   0  0  0  0  0  0  0  0  0  0  0  0
   24.5927  -20.6076  -12.1337 N   0  0  0  0  0  0  0  0  0  0  0  0
   23.2580  -21.1032  -12.2775 C   0  0  1  0  0  0  0  0  0  0  0  0
   22.2186  -20.4424  -11.3893 C   0  0  0  0  0  0  0  0  0  0  0  0
   20.8966  -21.1052  -11.5634 C   0  0  0  0  0  0  0  0  0  0  0  0
   20.8288  -22.1192  -12.3302 O   0  0  0  0  0  0  0  0  0  0  0  0
   22.8228  -21.1757  -13.6632 C   0  0  0  0  0  0  0  0  0  0  0  0
   23.0839  -20.2934  -14.5322 O   0  0  0  0  0  0  0  0  0  0  0  0
   19.7512  -20.6839  -10.9446 O   0  0  0  0  0  0  0  0  0  0  0  0
   22.0750  -22.2602  -14.0984 O   0  0  0  0  0  0  0  0  0  0  0  0
  2  1  1  6
  2  3  1  0
  4  5  1  0
  4  2  1  0
  5  7  1  0
  5  6  1  1
  7 13  1  0
  8  7  2  0
 10 11  1  1
 10  9  1  0
 12 10  1  0
 12 13  1  1
 14 12  1  0
 14 16  1  0
 15 14  2  0
 17 16  1  0
 17 21  1  0
 17 18  1  1
 19 18  1  0
 20 19  2  0
 21 22  2  0
 21 24  1  0
 23 19  1  0
M  END
$$$$
