LVD.pdb
     RDKit          3D

 24 23  0  0  1  0  0  0  0  0999 V2000
   24.8089  -13.8033  -22.4808 C   0  0  0  0  0  0  0  0  0  0  0  0
   23.6359  -14.3501  -21.7297 C   0  0  2  0  0  0  0  0  0  0  0  0
   22.4174  -14.2827  -22.6222 C   0  0  0  0  0  0  0  0  0  0  0  0
   23.4063  -13.6764  -20.4060 C   0  0  0  0  0  0  0  0  0  0  0  0
   24.6976  -13.7498  -19.6010 C   0  0  2  0  0  0  0  0  0  0  0  0
   25.0008  -15.1230  -19.3260 N   0  0  0  0  0  0  0  0  0  0  0  0
   24.5562  -12.9531  -18.3367 C   0  0  0  0  0  0  0  0  0  0  0  0
   23.8146  -13.3756  -17.4158 O   0  0  0  0  0  0  0  0  0  0  0  0
   27.1627  -11.7757  -15.8752 C   0  0  0  0  0  0  0  0  0  0  0  0
   26.4211  -10.5196  -16.4114 C   0  0  2  0  0  0  0  0  0  0  0  0
   26.2927   -9.6320  -15.2044 C   0  0  0  0  0  0  0  0  0  0  0  0
   25.0811  -10.9332  -16.9250 C   0  0  2  0  0  0  0  0  0  0  0  0
   25.2351  -11.7326  -18.1450 N   0  0  0  0  0  0  0  0  0  0  0  0
   24.1846   -9.7628  -17.2286 C   0  0  0  0  0  0  0  0  0  0  0  0
   24.4718   -8.9972  -18.1950 O   0  0  0  0  0  0  0  0  0  0  0  0
   23.0349   -9.4872  -16.4830 N   0  0  0  0  0  0  0  0  0  0  0  0
   22.0965   -8.4236  -16.6722 C   0  0  1  0  0  0  0  0  0  0  0  0
   20.7500   -8.8363  -17.2400 C   0  0  0  0  0  0  0  0  0  0  0  0
   19.8821   -7.6409  -17.4272 C   0  0  0  0  0  0  0  0  0  0  0  0
   18.7748   -7.5977  -16.8002 O   0  0  0  0  0  0  0  0  0  0  0  0
   21.9556   -7.5724  -15.5016 C   0  0  0  0  0  0  0  0  0  0  0  0
   21.3676   -6.4517  -15.5103 O   0  0  0  0  0  0  0  0  0  0  0  0
   20.2094   -6.5869  -18.2360 O   0  0  0  0  0  0  0  0  0  0  0  0
   22.4831   -7.9767  -14.2838 O   0  0  0  0  0  0  0  0  0  0  0  0
  2  1  1  6
  2  3  1  0
  4  5  1  0
  4  2  1  0
  5  7  1  0
  5  6  1  1
  7 13  1  0
  8  7  2  0
 10 11  1  1
 10  9  1  0
 12 10  1  0
 12 13  1  6
 14 12  1  0
 14 16  1  0
 15 14  2  0
 17 16  1  0
 17 21  1  0
 17 18  1  1
 19 18  1  0
 20 19  2  0
 21 22  2  0
 21 24  1  0
 23 19  1  0
M  END
$$$$
