LVD.pdb
     RDKit          3D

 24 23  0  0  1  0  0  0  0  0999 V2000
   23.7917  -11.7894  -21.5133 C   0  0  0  0  0  0  0  0  0  0  0  0
   22.2982  -11.7404  -21.5899 C   0  0  2  0  0  0  0  0  0  0  0  0
   21.9035  -10.9722  -22.8308 C   0  0  0  0  0  0  0  0  0  0  0  0
   21.6536  -11.1848  -20.3510 C   0  0  0  0  0  0  0  0  0  0  0  0
   22.0951  -12.0287  -19.1619 C   0  0  2  0  0  0  0  0  0  0  0  0
   21.5845  -13.3586  -19.3159 N   0  0  0  0  0  0  0  0  0  0  0  0
   21.6178  -11.3998  -17.8853 C   0  0  0  0  0  0  0  0  0  0  0  0
   20.3953  -11.4235  -17.6002 O   0  0  0  0  0  0  0  0  0  0  0  0
   24.0742  -10.8651  -14.5791 C   0  0  0  0  0  0  0  0  0  0  0  0
   22.5207  -10.8280  -14.5596 C   0  0  2  0  0  0  0  0  0  0  0  0
   22.1231  -12.2775  -14.6038 C   0  0  0  0  0  0  0  0  0  0  0  0
   22.0404  -10.0972  -15.7704 C   0  0  2  0  0  0  0  0  0  0  0  0
   22.5050  -10.7761  -16.9845 N   0  0  0  0  0  0  0  0  0  0  0  0
   22.5065   -8.6665  -15.8128 C   0  0  0  0  0  0  0  0  0  0  0  0
   23.4343   -8.3409  -16.6100 O   0  0  0  0  0  0  0  0  0  0  0  0
   21.9480   -7.6729  -15.0038 N   0  0  0  0  0  0  0  0  0  0  0  0
   22.2625   -6.2772  -14.9792 C   0  0  1  0  0  0  0  0  0  0  0  0
   22.3300   -5.6008  -16.3371 C   0  0  0  0  0  0  0  0  0  0  0  0
   22.7517   -4.1809  -16.1844 C   0  0  0  0  0  0  0  0  0  0  0  0
   23.7661   -3.9299  -15.4572 O   0  0  0  0  0  0  0  0  0  0  0  0
   21.4490   -5.5257  -14.0368 C   0  0  0  0  0  0  0  0  0  0  0  0
   21.6221   -4.2995  -13.7758 O   0  0  0  0  0  0  0  0  0  0  0  0
   22.1085   -3.1316  -16.7825 O   0  0  0  0  0  0  0  0  0  0  0  0
   20.4112   -6.1536  -13.3634 O   0  0  0  0  0  0  0  0  0  0  0  0
  2  1  1  1
  2  3  1  0
  4  5  1  0
  4  2  1  0
  5  7  1  0
  5  6  1  6
  7 13  1  0
  8  7  2  0
 10 11  1  6
 10  9  1  0
 12 10  1  0
 12 13  1  6
 14 12  1  0
 14 16  1  0
 15 14  2  0
 17 16  1  0
 17 21  1  0
 17 18  1  6
 19 18  1  0
 20 19  2  0
 21 22  2  0
 21 24  1  0
 23 19  1  0
M  END
$$$$
