LVD.pdb
     RDKit          3D

 24 23  0  0  1  0  0  0  0  0999 V2000
   24.9529  -30.0573  -18.2571 C   0  0  0  0  0  0  0  0  0  0  0  0
   25.9824  -28.9739  -18.3294 C   0  0  2  0  0  0  0  0  0  0  0  0
   27.0206  -29.3625  -19.3575 C   0  0  0  0  0  0  0  0  0  0  0  0
   26.5987  -28.6445  -16.9988 C   0  0  0  0  0  0  0  0  0  0  0  0
   27.8740  -27.8484  -17.2456 C   0  0  2  0  0  0  0  0  0  0  0  0
   28.9934  -28.5904  -16.7463 N   0  0  0  0  0  0  0  0  0  0  0  0
   27.7693  -26.5019  -16.5905 C   0  0  0  0  0  0  0  0  0  0  0  0
   27.9041  -26.4043  -15.3461 O   0  0  0  0  0  0  0  0  0  0  0  0
   29.9240  -23.6437  -16.7249 C   0  0  0  0  0  0  0  0  0  0  0  0
   28.5559  -23.1364  -17.2598 C   0  0  2  0  0  0  0  0  0  0  0  0
   28.4567  -21.7334  -16.7278 C   0  0  0  0  0  0  0  0  0  0  0  0
   27.4713  -24.0028  -16.7090 C   0  0  2  0  0  0  0  0  0  0  0  0
   27.5219  -25.3292  -17.3328 N   0  0  0  0  0  0  0  0  0  0  0  0
   26.0974  -23.4253  -16.9208 C   0  0  0  0  0  0  0  0  0  0  0  0
   25.6455  -23.3184  -18.0984 O   0  0  0  0  0  0  0  0  0  0  0  0
   25.2912  -23.0030  -15.8600 N   0  0  0  0  0  0  0  0  0  0  0  0
   24.0284  -22.3332  -15.9260 C   0  0  1  0  0  0  0  0  0  0  0  0
   23.3531  -22.0832  -14.5891 C   0  0  0  0  0  0  0  0  0  0  0  0
   21.9589  -21.6038  -14.7984 C   0  0  0  0  0  0  0  0  0  0  0  0
   21.4729  -21.6628  -15.9737 O   0  0  0  0  0  0  0  0  0  0  0  0
   24.0599  -21.1367  -16.7519 C   0  0  0  0  0  0  0  0  0  0  0  0
   24.8281  -20.1533  -16.5408 O   0  0  0  0  0  0  0  0  0  0  0  0
   21.1721  -21.1033  -13.7971 O   0  0  0  0  0  0  0  0  0  0  0  0
   23.2134  -21.0277  -17.8457 O   0  0  0  0  0  0  0  0  0  0  0  0
  2  1  1  1
  2  3  1  0
  4  5  1  0
  4  2  1  0
  5  7  1  0
  5  6  1  1
  7 13  1  0
  8  7  2  0
 10 11  1  1
 10  9  1  0
 12 10  1  0
 12 13  1  6
 14 12  1  0
 14 16  1  0
 15 14  2  0
 17 16  1  0
 17 21  1  0
 17 18  1  1
 19 18  1  0
 20 19  2  0
 21 22  2  0
 21 24  1  0
 23 19  1  0
M  END
$$$$
