LVD.pdb
     RDKit          3D

 24 23  0  0  1  0  0  0  0  0999 V2000
   21.5554  -19.7685  -16.6215 C   0  0  0  0  0  0  0  0  0  0  0  0
   22.6087  -19.1863  -15.7324 C   0  0  2  0  0  0  0  0  0  0  0  0
   23.8607  -18.9627  -16.5500 C   0  0  0  0  0  0  0  0  0  0  0  0
   22.8748  -20.0083  -14.5026 C   0  0  0  0  0  0  0  0  0  0  0  0
   21.5469  -20.2636  -13.8008 C   0  0  2  0  0  0  0  0  0  0  0  0
   20.8954  -19.0102  -13.5606 N   0  0  0  0  0  0  0  0  0  0  0  0
   21.7819  -21.0159  -12.5233 C   0  0  0  0  0  0  0  0  0  0  0  0
   22.2717  -22.1713  -12.5638 O   0  0  0  0  0  0  0  0  0  0  0  0
   23.9876  -20.4435   -9.7742 C   0  0  0  0  0  0  0  0  0  0  0  0
   22.5829  -20.4841   -9.1106 C   0  0  2  0  0  0  0  0  0  0  0  0
   22.8079  -21.2439   -7.8325 C   0  0  0  0  0  0  0  0  0  0  0  0
   21.6430  -21.2115  -10.0152 C   0  0  2  0  0  0  0  0  0  0  0  0
   21.4681  -20.4638  -11.2646 N   0  0  0  0  0  0  0  0  0  0  0  0
   20.2893  -21.4334   -9.3955 C   0  0  0  0  0  0  0  0  0  0  0  0
   19.2944  -20.7838   -9.8322 O   0  0  0  0  0  0  0  0  0  0  0  0
   20.0834  -22.3392   -8.3512 N   0  0  0  0  0  0  0  0  0  0  0  0
   18.9219  -23.1333   -8.0903 C   0  0  1  0  0  0  0  0  0  0  0  0
   18.4398  -23.9836   -9.2523 C   0  0  0  0  0  0  0  0  0  0  0  0
   17.1805  -24.6891   -8.8863 C   0  0  0  0  0  0  0  0  0  0  0  0
   16.2402  -24.0083   -8.3636 O   0  0  0  0  0  0  0  0  0  0  0  0
   19.0203  -23.9004   -6.8588 C   0  0  0  0  0  0  0  0  0  0  0  0
   20.0652  -24.5115   -6.4893 O   0  0  0  0  0  0  0  0  0  0  0  0
   16.9791  -26.0284   -9.0808 O   0  0  0  0  0  0  0  0  0  0  0  0
   17.9260  -23.9924   -6.0108 O   0  0  0  0  0  0  0  0  0  0  0  0
  2  1  1  6
  2  3  1  0
  4  5  1  0
  4  2  1  0
  5  7  1  0
  5  6  1  1
  7 13  1  0
  8  7  2  0
 10 11  1  1
 10  9  1  0
 12 10  1  0
 12 13  1  6
 14 12  1  0
 14 16  1  0
 15 14  2  0
 17 16  1  0
 17 21  1  0
 17 18  1  6
 19 18  1  0
 20 19  2  0
 21 22  2  0
 21 24  1  0
 23 19  1  0
M  END
$$$$
