LVD.pdb
     RDKit          3D

 24 23  0  0  1  0  0  0  0  0999 V2000
   16.9515  -10.2760  -19.2812 C   0  0  0  0  0  0  0  0  0  0  0  0
   18.2267  -11.0249  -19.0526 C   0  0  2  0  0  0  0  0  0  0  0  0
   18.0516  -12.4404  -19.5540 C   0  0  0  0  0  0  0  0  0  0  0  0
   18.6971  -10.9837  -17.6258 C   0  0  0  0  0  0  0  0  0  0  0  0
   20.0310  -11.7147  -17.5400 C   0  0  2  0  0  0  0  0  0  0  0  0
   19.7873  -13.1213  -17.4177 N   0  0  0  0  0  0  0  0  0  0  0  0
   20.8259  -11.1904  -16.3796 C   0  0  0  0  0  0  0  0  0  0  0  0
   20.4295  -11.4044  -15.2077 O   0  0  0  0  0  0  0  0  0  0  0  0
   24.3234  -11.8794  -15.2940 C   0  0  0  0  0  0  0  0  0  0  0  0
   24.2227  -10.3516  -15.5604 C   0  0  2  0  0  0  0  0  0  0  0  0
   25.0679   -9.7387  -14.4781 C   0  0  0  0  0  0  0  0  0  0  0  0
   22.7945   -9.9332  -15.4350 C   0  0  2  0  0  0  0  0  0  0  0  0
   22.0163  -10.4575  -16.5622 N   0  0  0  0  0  0  0  0  0  0  0  0
   22.6252   -8.4382  -15.3895 C   0  0  0  0  0  0  0  0  0  0  0  0
   23.1251   -7.7875  -14.4257 O   0  0  0  0  0  0  0  0  0  0  0  0
   21.9362   -7.7323  -16.3798 N   0  0  0  0  0  0  0  0  0  0  0  0
   21.6315   -6.3346  -16.4146 C   0  0  1  0  0  0  0  0  0  0  0  0
   22.6962   -5.4513  -17.0408 C   0  0  0  0  0  0  0  0  0  0  0  0
   22.2491   -4.0309  -17.0453 C   0  0  0  0  0  0  0  0  0  0  0  0
   21.1933   -3.7309  -16.4002 O   0  0  0  0  0  0  0  0  0  0  0  0
   20.3081   -6.0525  -16.9472 C   0  0  0  0  0  0  0  0  0  0  0  0
   19.5325   -6.9361  -17.4157 O   0  0  0  0  0  0  0  0  0  0  0  0
   22.9108   -3.0311  -17.7048 O   0  0  0  0  0  0  0  0  0  0  0  0
   19.8300   -4.7501  -16.9603 O   0  0  0  0  0  0  0  0  0  0  0  0
  2  1  1  1
  2  3  1  0
  4  5  1  0
  4  2  1  0
  5  7  1  0
  5  6  1  1
  7 13  1  0
  8  7  2  0
 10 11  1  1
 10  9  1  0
 12 10  1  0
 12 13  1  6
 14 12  1  0
 14 16  1  0
 15 14  2  0
 17 16  1  0
 17 21  1  0
 17 18  1  6
 19 18  1  0
 20 19  2  0
 21 22  2  0
 21 24  1  0
 23 19  1  0
M  END
$$$$
