LVD.pdb
     RDKit          3D

 24 23  0  0  1  0  0  0  0  0999 V2000
   18.1351  -12.8497  -12.3468 C   0  0  0  0  0  0  0  0  0  0  0  0
   17.0684  -12.4078  -13.2986 C   0  0  2  0  0  0  0  0  0  0  0  0
   17.6193  -12.4726  -14.7050 C   0  0  0  0  0  0  0  0  0  0  0  0
   16.5010  -11.0543  -12.9745 C   0  0  0  0  0  0  0  0  0  0  0  0
   15.7927  -11.1417  -11.6285 C   0  0  2  0  0  0  0  0  0  0  0  0
   14.7496  -12.1205  -11.7107 N   0  0  0  0  0  0  0  0  0  0  0  0
   15.2542   -9.7935  -11.2473 C   0  0  0  0  0  0  0  0  0  0  0  0
   14.2149   -9.3599  -11.8026 O   0  0  0  0  0  0  0  0  0  0  0  0
   13.9731   -8.2588   -8.0147 C   0  0  0  0  0  0  0  0  0  0  0  0
   15.2535   -7.5016   -8.4648 C   0  0  2  0  0  0  0  0  0  0  0  0
   14.9852   -6.0738   -8.0765 C   0  0  0  0  0  0  0  0  0  0  0  0
   15.4019   -7.6420   -9.9443 C   0  0  2  0  0  0  0  0  0  0  0  0
   15.8821   -8.9875  -10.2758 N   0  0  0  0  0  0  0  0  0  0  0  0
   16.3519   -6.6348  -10.5348 C   0  0  0  0  0  0  0  0  0  0  0  0
   17.5657   -6.6437  -10.1755 O   0  0  0  0  0  0  0  0  0  0  0  0
   15.9456   -5.6844  -11.4757 N   0  0  0  0  0  0  0  0  0  0  0  0
   16.7531   -4.7210  -12.1595 C   0  0  1  0  0  0  0  0  0  0  0  0
   17.1157   -5.0736  -13.5913 C   0  0  0  0  0  0  0  0  0  0  0  0
   17.9042   -3.9717  -14.2088 C   0  0  0  0  0  0  0  0  0  0  0  0
   17.3049   -3.1732  -14.9989 O   0  0  0  0  0  0  0  0  0  0  0  0
   16.2413   -3.3646  -12.0461 C   0  0  0  0  0  0  0  0  0  0  0  0
   16.9042   -2.3317  -12.3553 O   0  0  0  0  0  0  0  0  0  0  0  0
   19.2371   -3.7706  -13.9737 O   0  0  0  0  0  0  0  0  0  0  0  0
   14.9544   -3.1470  -11.5754 O   0  0  0  0  0  0  0  0  0  0  0  0
  2  1  1  1
  2  3  1  0
  4  5  1  0
  4  2  1  0
  5  7  1  0
  5  6  1  6
  7 13  1  0
  8  7  2  0
 10 11  1  6
 10  9  1  0
 12 10  1  0
 12 13  1  1
 14 12  1  0
 14 16  1  0
 15 14  2  0
 17 16  1  0
 17 21  1  0
 17 18  1  6
 19 18  1  0
 20 19  2  0
 21 22  2  0
 21 24  1  0
 23 19  1  0
M  END
$$$$
