LVD.pdb
     RDKit          3D

 24 23  0  0  1  0  0  0  0  0999 V2000
   22.8825  -20.8376   -7.8575 C   0  0  0  0  0  0  0  0  0  0  0  0
   24.2296  -21.0874   -8.4592 C   0  0  2  0  0  0  0  0  0  0  0  0
   25.2860  -20.7775   -7.4230 C   0  0  0  0  0  0  0  0  0  0  0  0
   24.4591  -20.3402   -9.7430 C   0  0  0  0  0  0  0  0  0  0  0  0
   25.7668  -20.8279  -10.3536 C   0  0  2  0  0  0  0  0  0  0  0  0
   26.7917  -20.7963   -9.3529 N   0  0  0  0  0  0  0  0  0  0  0  0
   26.1257  -19.9766  -11.5367 C   0  0  0  0  0  0  0  0  0  0  0  0
   26.5263  -18.8004  -11.3570 O   0  0  0  0  0  0  0  0  0  0  0  0
   28.7267  -20.3571  -14.1177 C   0  0  0  0  0  0  0  0  0  0  0  0
   27.3696  -20.3225  -14.8741 C   0  0  2  0  0  0  0  0  0  0  0  0
   27.6684  -19.5329  -16.1185 C   0  0  0  0  0  0  0  0  0  0  0  0
   26.3595  -19.6278  -14.0211 C   0  0  2  0  0  0  0  0  0  0  0  0
   26.0275  -20.4577  -12.8583 N   0  0  0  0  0  0  0  0  0  0  0  0
   25.0883  -19.3097  -14.7618 C   0  0  0  0  0  0  0  0  0  0  0  0
   25.1333  -18.5428  -15.7680 O   0  0  0  0  0  0  0  0  0  0  0  0
   23.8497  -19.8353  -14.3833 N   0  0  0  0  0  0  0  0  0  0  0  0
   22.6955  -20.0471  -15.2022 C   0  0  1  0  0  0  0  0  0  0  0  0
   22.8178  -21.1640  -16.2237 C   0  0  0  0  0  0  0  0  0  0  0  0
   21.5819  -21.2429  -17.0506 C   0  0  0  0  0  0  0  0  0  0  0  0
   21.2249  -20.2066  -17.6985 O   0  0  0  0  0  0  0  0  0  0  0  0
   21.4628  -20.1425  -14.4367 C   0  0  0  0  0  0  0  0  0  0  0  0
   20.3214  -20.3162  -14.9552 O   0  0  0  0  0  0  0  0  0  0  0  0
   20.8092  -22.3676  -17.1518 O   0  0  0  0  0  0  0  0  0  0  0  0
   21.4971  -20.0421  -13.0534 O   0  0  0  0  0  0  0  0  0  0  0  0
  2  1  1  1
  2  3  1  0
  4  5  1  0
  4  2  1  0
  5  7  1  0
  5  6  1  1
  7 13  1  0
  8  7  2  0
 10 11  1  6
 10  9  1  0
 12 10  1  0
 12 13  1  1
 14 12  1  0
 14 16  1  0
 15 14  2  0
 17 16  1  0
 17 21  1  0
 17 18  1  1
 19 18  1  0
 20 19  2  0
 21 22  2  0
 21 24  1  0
 23 19  1  0
M  END
$$$$
