LVD.pdb
     RDKit          3D

 24 23  0  0  1  0  0  0  0  0999 V2000
   15.9986  -13.9917  -15.2001 C   0  0  0  0  0  0  0  0  0  0  0  0
   17.4494  -14.3199  -15.3629 C   0  0  2  0  0  0  0  0  0  0  0  0
   17.7396  -15.6052  -14.6215 C   0  0  0  0  0  0  0  0  0  0  0  0
   18.3656  -13.2049  -14.9433 C   0  0  0  0  0  0  0  0  0  0  0  0
   18.0131  -11.9645  -15.7546 C   0  0  2  0  0  0  0  0  0  0  0  0
   18.2333  -12.2353  -17.1442 N   0  0  0  0  0  0  0  0  0  0  0  0
   18.8322  -10.7979  -15.2842 C   0  0  0  0  0  0  0  0  0  0  0  0
   18.8632  -10.5131  -14.0618 O   0  0  0  0  0  0  0  0  0  0  0  0
   22.5319   -9.7625  -15.9265 C   0  0  0  0  0  0  0  0  0  0  0  0
   21.5762   -8.6562  -16.4537 C   0  0  2  0  0  0  0  0  0  0  0  0
   22.2722   -7.3734  -16.0912 C   0  0  0  0  0  0  0  0  0  0  0  0
   20.2637   -8.7778  -15.7514 C   0  0  2  0  0  0  0  0  0  0  0  0
   19.5769  -10.0015  -16.1779 N   0  0  0  0  0  0  0  0  0  0  0  0
   19.3547   -7.6048  -16.0039 C   0  0  0  0  0  0  0  0  0  0  0  0
   18.5149   -7.6645  -16.9492 O   0  0  0  0  0  0  0  0  0  0  0  0
   19.3973   -6.4438  -15.2269 N   0  0  0  0  0  0  0  0  0  0  0  0
   18.5054   -5.3255  -15.2647 C   0  0  1  0  0  0  0  0  0  0  0  0
   17.0924   -5.6027  -14.7823 C   0  0  0  0  0  0  0  0  0  0  0  0
   16.2699   -4.3639  -14.8596 C   0  0  0  0  0  0  0  0  0  0  0  0
   16.2094   -3.7509  -15.9739 O   0  0  0  0  0  0  0  0  0  0  0  0
   19.0639   -4.1296  -14.6544 C   0  0  0  0  0  0  0  0  0  0  0  0
   18.5201   -2.9881  -14.7113 O   0  0  0  0  0  0  0  0  0  0  0  0
   15.5759   -3.8485  -13.7989 O   0  0  0  0  0  0  0  0  0  0  0  0
   20.2625   -4.2019  -13.9594 O   0  0  0  0  0  0  0  0  0  0  0  0
  2  1  1  1
  2  3  1  0
  4  5  1  0
  4  2  1  0
  5  7  1  0
  5  6  1  6
  7 13  1  0
  8  7  2  0
 10 11  1  1
 10  9  1  0
 12 10  1  0
 12 13  1  6
 14 12  1  0
 14 16  1  0
 15 14  2  0
 17 16  1  0
 17 21  1  0
 17 18  1  1
 19 18  1  0
 20 19  2  0
 21 22  2  0
 21 24  1  0
 23 19  1  0
M  END
$$$$
