MKG.pdb
     RDKit          3D

 22 21  0  0  1  0  0  0  0  0999 V2000
    7.8526  -11.3706   26.4234 C   0  0  0  0  0  0  0  0  0  0  0  0
    6.6348  -12.1105   27.5436 S   0  0  0  0  0  0  0  0  0  0  0  0
    6.1441  -13.7413   26.9845 C   0  0  0  0  0  0  0  0  0  0  0  0
    7.1834  -14.4293   26.1409 C   0  0  0  0  0  0  0  0  0  0  0  0
    6.7728  -15.7716   25.6257 C   0  0  2  0  0  0  0  0  0  0  0  0
    6.4927  -16.7576   26.6143 N   0  0  0  0  0  0  0  0  0  0  0  0
    7.7100  -16.2761   24.5822 C   0  0  0  0  0  0  0  0  0  0  0  0
    8.5472  -17.1845   24.8187 O   0  0  0  0  0  0  0  0  0  0  0  0
    7.6890  -15.7426   23.2719 N   0  0  0  0  0  0  0  0  0  0  0  0
    8.6513  -16.2042   22.2337 C   0  0  1  0  0  0  0  0  0  0  0  0
    8.1753  -15.6332   20.9073 C   0  0  0  0  0  0  0  0  0  0  0  0
    9.0021  -16.0222   19.7333 C   0  0  0  0  0  0  0  0  0  0  0  0
    8.5100  -17.3263   19.1045 C   0  0  0  0  0  0  0  0  0  0  0  0
    9.2309  -17.5512   17.8237 C   0  0  0  0  0  0  0  0  0  0  0  0
    8.7422  -18.7643   17.2007 N   0  0  0  0  0  0  0  0  0  0  0  0
    9.9615  -15.6508   22.5932 C   0  0  0  0  0  0  0  0  0  0  0  0
   10.0338  -14.5013   23.1001 O   0  0  0  0  0  0  0  0  0  0  0  0
   11.1628  -16.3744   22.3920 N   0  0  0  0  0  0  0  0  0  0  0  0
   12.4772  -15.7778   22.6583 C   0  0  0  0  0  0  0  0  0  0  0  0
   13.5105  -16.7040   22.1810 C   0  0  0  0  0  0  0  0  0  0  0  0
   14.8541  -16.3628   22.2445 O   0  0  0  0  0  0  0  0  0  0  0  0
   13.1997  -17.8438   21.6965 O   0  0  0  0  0  0  0  0  0  0  0  0
  2  1  1  0
  3  2  1  0
  4  3  1  0
  4  5  1  0
  5  7  1  0
  5  6  1  1
  7  8  2  0
  9 10  1  0
  9  7  1  0
 10 11  1  6
 11 12  1  0
 13 12  1  0
 13 14  1  0
 14 15  1  0
 16 17  2  0
 16 10  1  0
 18 16  1  0
 19 18  1  0
 20 19  1  0
 21 20  1  0
 22 20  2  0
M  END
$$$$
