MKG.pdb
     RDKit          3D

 22 21  0  0  1  0  0  0  0  0999 V2000
    8.9446  -11.8884   19.5536 C   0  0  0  0  0  0  0  0  0  0  0  0
    7.3478  -12.6740   19.2102 S   0  0  0  0  0  0  0  0  0  0  0  0
    7.0961  -14.1148   20.2463 C   0  0  0  0  0  0  0  0  0  0  0  0
    8.2049  -14.3482   21.2368 C   0  0  0  0  0  0  0  0  0  0  0  0
    8.0287  -15.5651   22.0877 C   0  0  2  0  0  0  0  0  0  0  0  0
    6.7836  -15.6706   22.7708 N   0  0  0  0  0  0  0  0  0  0  0  0
    9.1876  -15.7766   23.0008 C   0  0  0  0  0  0  0  0  0  0  0  0
    9.2045  -15.3254   24.1748 O   0  0  0  0  0  0  0  0  0  0  0  0
   10.3238  -16.5023   22.5717 N   0  0  0  0  0  0  0  0  0  0  0  0
   11.4987  -16.6983   23.4650 C   0  0  1  0  0  0  0  0  0  0  0  0
   11.5416  -18.1768   23.8179 C   0  0  0  0  0  0  0  0  0  0  0  0
   11.4965  -18.4669   25.2763 C   0  0  0  0  0  0  0  0  0  0  0  0
   11.6387  -19.9631   25.5581 C   0  0  0  0  0  0  0  0  0  0  0  0
   11.5886  -20.1883   27.0270 C   0  0  0  0  0  0  0  0  0  0  0  0
   11.6113  -21.6111   27.2987 N   0  0  0  0  0  0  0  0  0  0  0  0
   12.6869  -16.3174   22.6937 C   0  0  0  0  0  0  0  0  0  0  0  0
   12.5922  -16.1405   21.4514 O   0  0  0  0  0  0  0  0  0  0  0  0
   13.9519  -16.1347   23.3048 N   0  0  0  0  0  0  0  0  0  0  0  0
   15.1206  -15.6826   22.5405 C   0  0  0  0  0  0  0  0  0  0  0  0
   16.2336  -15.4790   23.4749 C   0  0  0  0  0  0  0  0  0  0  0  0
   17.4765  -15.0633   23.0189 O   0  0  0  0  0  0  0  0  0  0  0  0
   16.0863  -15.6791   24.7275 O   0  0  0  0  0  0  0  0  0  0  0  0
  2  1  1  0
  3  2  1  0
  4  3  1  0
  4  5  1  0
  5  7  1  0
  5  6  1  1
  7  8  2  0
  9 10  1  0
  9  7  1  0
 10 11  1  6
 11 12  1  0
 13 12  1  0
 13 14  1  0
 14 15  1  0
 16 17  2  0
 16 10  1  0
 18 16  1  0
 19 18  1  0
 20 19  1  0
 21 20  1  0
 22 20  2  0
M  END
$$$$
