MKG.pdb
     RDKit          3D

 22 21  0  0  1  0  0  0  0  0999 V2000
    7.6928  -11.9125   26.4734 C   0  0  0  0  0  0  0  0  0  0  0  0
    6.3655  -12.7195   27.4073 S   0  0  0  0  0  0  0  0  0  0  0  0
    6.7229  -14.4551   27.6769 C   0  0  0  0  0  0  0  0  0  0  0  0
    7.6038  -15.0624   26.6185 C   0  0  0  0  0  0  0  0  0  0  0  0
    6.9324  -16.0970   25.7732 C   0  0  2  0  0  0  0  0  0  0  0  0
    6.6091  -17.3199   26.4277 N   0  0  0  0  0  0  0  0  0  0  0  0
    7.6585  -16.3234   24.4914 C   0  0  0  0  0  0  0  0  0  0  0  0
    8.3767  -17.3382   24.3004 O   0  0  0  0  0  0  0  0  0  0  0  0
    7.5630  -15.3913   23.4313 N   0  0  0  0  0  0  0  0  0  0  0  0
    8.4160  -15.5115   22.2169 C   0  0  1  0  0  0  0  0  0  0  0  0
    7.8881  -14.5049   21.2068 C   0  0  0  0  0  0  0  0  0  0  0  0
    8.5590  -14.5494   19.8797 C   0  0  0  0  0  0  0  0  0  0  0  0
    7.8559  -13.6502   18.8622 C   0  0  0  0  0  0  0  0  0  0  0  0
    8.4269  -13.9035   17.5129 C   0  0  0  0  0  0  0  0  0  0  0  0
    7.7366  -13.0872   16.5352 N   0  0  0  0  0  0  0  0  0  0  0  0
    9.7830  -15.1669   22.6225 C   0  0  0  0  0  0  0  0  0  0  0  0
    9.9665  -14.3333   23.5472 O   0  0  0  0  0  0  0  0  0  0  0  0
   10.9182  -15.7491   22.0064 N   0  0  0  0  0  0  0  0  0  0  0  0
   12.2838  -15.3850   22.4028 C   0  0  0  0  0  0  0  0  0  0  0  0
   13.2243  -16.1752   21.6003 C   0  0  0  0  0  0  0  0  0  0  0  0
   14.5944  -16.0042   21.7394 O   0  0  0  0  0  0  0  0  0  0  0  0
   12.8065  -17.0375   20.7562 O   0  0  0  0  0  0  0  0  0  0  0  0
  2  1  1  0
  3  2  1  0
  4  3  1  0
  4  5  1  0
  5  7  1  0
  5  6  1  1
  7  8  2  0
  9 10  1  0
  9  7  1  0
 10 11  1  6
 11 12  1  0
 13 12  1  0
 13 14  1  0
 14 15  1  0
 16 17  2  0
 16 10  1  0
 18 16  1  0
 19 18  1  0
 20 19  1  0
 21 20  1  0
 22 20  2  0
M  END
$$$$
