MKG.pdb
     RDKit          3D

 22 21  0  0  1  0  0  0  0  0999 V2000
    5.7181  -11.0619   27.2422 C   0  0  0  0  0  0  0  0  0  0  0  0
    6.0545  -12.6167   26.3737 S   0  0  0  0  0  0  0  0  0  0  0  0
    7.6059  -13.3375   26.9088 C   0  0  0  0  0  0  0  0  0  0  0  0
    7.9740  -14.5965   26.1708 C   0  0  0  0  0  0  0  0  0  0  0  0
    6.8668  -15.1807   25.3531 C   0  0  2  0  0  0  0  0  0  0  0  0
    6.0282  -16.1175   26.0218 N   0  0  0  0  0  0  0  0  0  0  0  0
    7.3577  -15.7025   24.0460 C   0  0  0  0  0  0  0  0  0  0  0  0
    7.3257  -16.9272   23.7608 O   0  0  0  0  0  0  0  0  0  0  0  0
    7.8837  -14.8255   23.0683 N   0  0  0  0  0  0  0  0  0  0  0  0
    8.2089  -15.3031   21.6961 C   0  0  1  0  0  0  0  0  0  0  0  0
    8.3910  -14.0659   20.8310 C   0  0  0  0  0  0  0  0  0  0  0  0
    8.7515  -14.3478   19.4154 C   0  0  0  0  0  0  0  0  0  0  0  0
    8.1887  -13.2871   18.4685 C   0  0  0  0  0  0  0  0  0  0  0  0
    8.4929  -13.6766   17.0661 C   0  0  0  0  0  0  0  0  0  0  0  0
    7.7973  -12.7891   16.1565 N   0  0  0  0  0  0  0  0  0  0  0  0
    9.4657  -16.0533   21.7944 C   0  0  0  0  0  0  0  0  0  0  0  0
    9.8544  -16.7472   20.8192 O   0  0  0  0  0  0  0  0  0  0  0  0
   10.2701  -16.0209   22.9602 N   0  0  0  0  0  0  0  0  0  0  0  0
   11.4852  -16.8352   23.0828 C   0  0  0  0  0  0  0  0  0  0  0  0
   12.5480  -16.2010   22.2944 C   0  0  0  0  0  0  0  0  0  0  0  0
   13.8843  -16.4250   22.5941 O   0  0  0  0  0  0  0  0  0  0  0  0
   12.2703  -15.4293   21.3157 O   0  0  0  0  0  0  0  0  0  0  0  0
  2  1  1  0
  3  2  1  0
  4  3  1  0
  4  5  1  0
  5  7  1  0
  5  6  1  1
  7  8  2  0
  9 10  1  0
  9  7  1  0
 10 11  1  6
 11 12  1  0
 13 12  1  0
 13 14  1  0
 14 15  1  0
 16 17  2  0
 16 10  1  0
 18 16  1  0
 19 18  1  0
 20 19  1  0
 21 20  1  0
 22 20  2  0
M  END
$$$$
