MKG.pdb
     RDKit          3D

 22 21  0  0  1  0  0  0  0  0999 V2000
    5.2484  -12.0115   26.6946 C   0  0  0  0  0  0  0  0  0  0  0  0
    6.7557  -12.7279   27.4017 S   0  0  0  0  0  0  0  0  0  0  0  0
    7.1874  -14.2661   26.5890 C   0  0  0  0  0  0  0  0  0  0  0  0
    6.1661  -14.7259   25.5836 C   0  0  0  0  0  0  0  0  0  0  0  0
    6.4714  -16.0457   24.9506 C   0  0  2  0  0  0  0  0  0  0  0  0
    6.7555  -17.1143   25.8481 N   0  0  0  0  0  0  0  0  0  0  0  0
    7.5030  -15.9235   23.8818 C   0  0  0  0  0  0  0  0  0  0  0  0
    8.3753  -16.8093   23.6905 O   0  0  0  0  0  0  0  0  0  0  0  0
    7.5363  -14.7910   23.0343 N   0  0  0  0  0  0  0  0  0  0  0  0
    8.4999  -14.7001   21.9029 C   0  0  1  0  0  0  0  0  0  0  0  0
    8.3241  -13.3220   21.2847 C   0  0  0  0  0  0  0  0  0  0  0  0
    7.6055  -13.3148   19.9821 C   0  0  0  0  0  0  0  0  0  0  0  0
    8.4426  -13.9533   18.8730 C   0  0  0  0  0  0  0  0  0  0  0  0
    7.7693  -13.7305   17.5662 C   0  0  0  0  0  0  0  0  0  0  0  0
    8.5338  -14.3687   16.5139 N   0  0  0  0  0  0  0  0  0  0  0  0
    9.8427  -14.8408   22.4765 C   0  0  0  0  0  0  0  0  0  0  0  0
   10.1570  -14.1740   23.4963 O   0  0  0  0  0  0  0  0  0  0  0  0
   10.8091  -15.7145   21.9197 N   0  0  0  0  0  0  0  0  0  0  0  0
   12.1803  -15.7809   22.4392 C   0  0  0  0  0  0  0  0  0  0  0  0
   12.9819  -16.6020   21.5245 C   0  0  0  0  0  0  0  0  0  0  0  0
   14.3658  -16.6296   21.6229 O   0  0  0  0  0  0  0  0  0  0  0  0
   12.4272  -17.3095   20.6177 O   0  0  0  0  0  0  0  0  0  0  0  0
  2  1  1  0
  3  2  1  0
  4  3  1  0
  4  5  1  0
  5  7  1  0
  5  6  1  1
  7  8  2  0
  9 10  1  0
  9  7  1  0
 10 11  1  1
 11 12  1  0
 13 12  1  0
 13 14  1  0
 14 15  1  0
 16 17  2  0
 16 10  1  0
 18 16  1  0
 19 18  1  0
 20 19  1  0
 21 20  1  0
 22 20  2  0
M  END
$$$$
