MKG.pdb
     RDKit          3D

 22 21  0  0  1  0  0  0  0  0999 V2000
    6.9481  -11.0965   26.7565 C   0  0  0  0  0  0  0  0  0  0  0  0
    6.5200  -12.4716   27.8570 S   0  0  0  0  0  0  0  0  0  0  0  0
    5.9508  -13.8948   26.9277 C   0  0  0  0  0  0  0  0  0  0  0  0
    6.9890  -14.4654   25.9995 C   0  0  0  0  0  0  0  0  0  0  0  0
    6.5266  -15.6430   25.2026 C   0  0  2  0  0  0  0  0  0  0  0  0
    6.4739  -16.8834   25.9003 N   0  0  0  0  0  0  0  0  0  0  0  0
    7.2574  -15.7594   23.9088 C   0  0  0  0  0  0  0  0  0  0  0  0
    7.8328  -16.8220   23.5596 O   0  0  0  0  0  0  0  0  0  0  0  0
    7.3296  -14.6631   23.0173 N   0  0  0  0  0  0  0  0  0  0  0  0
    8.0869  -14.7549   21.7387 C   0  0  1  0  0  0  0  0  0  0  0  0
    7.8348  -13.4593   20.9837 C   0  0  0  0  0  0  0  0  0  0  0  0
    8.5970  -13.3245   19.7133 C   0  0  0  0  0  0  0  0  0  0  0  0
    7.8471  -13.9506   18.5369 C   0  0  0  0  0  0  0  0  0  0  0  0
    8.6616  -13.7950   17.3027 C   0  0  0  0  0  0  0  0  0  0  0  0
    7.9832  -14.4325   16.1926 N   0  0  0  0  0  0  0  0  0  0  0  0
    9.5051  -14.8779   22.0931 C   0  0  0  0  0  0  0  0  0  0  0  0
    9.9933  -14.1266   22.9767 O   0  0  0  0  0  0  0  0  0  0  0  0
   10.3545  -15.8267   21.4722 N   0  0  0  0  0  0  0  0  0  0  0  0
   11.7684  -15.9571   21.8440 C   0  0  0  0  0  0  0  0  0  0  0  0
   12.5616  -16.0657   20.6143 C   0  0  0  0  0  0  0  0  0  0  0  0
   13.8970  -16.4400   20.6615 O   0  0  0  0  0  0  0  0  0  0  0  0
   12.0441  -15.8189   19.4733 O   0  0  0  0  0  0  0  0  0  0  0  0
  2  1  1  0
  3  2  1  0
  4  3  1  0
  4  5  1  0
  5  7  1  0
  5  6  1  1
  7  8  2  0
  9 10  1  0
  9  7  1  0
 10 11  1  6
 11 12  1  0
 13 12  1  0
 13 14  1  0
 14 15  1  0
 16 17  2  0
 16 10  1  0
 18 16  1  0
 19 18  1  0
 20 19  1  0
 21 20  1  0
 22 20  2  0
M  END
$$$$
