MKG.pdb
     RDKit          3D

 22 21  0  0  1  0  0  0  0  0999 V2000
    8.0612  -11.7101   19.6549 C   0  0  0  0  0  0  0  0  0  0  0  0
    6.9090  -13.0753   19.3483 S   0  0  0  0  0  0  0  0  0  0  0  0
    7.6150  -14.6458   19.8464 C   0  0  0  0  0  0  0  0  0  0  0  0
    8.9082  -14.5139   20.6048 C   0  0  0  0  0  0  0  0  0  0  0  0
    9.5592  -15.8152   20.9492 C   0  0  2  0  0  0  0  0  0  0  0  0
    8.6970  -16.9476   20.9977 N   0  0  0  0  0  0  0  0  0  0  0  0
   10.4080  -15.7056   22.1695 C   0  0  0  0  0  0  0  0  0  0  0  0
   11.0507  -14.6600   22.4447 O   0  0  0  0  0  0  0  0  0  0  0  0
   10.5209  -16.7893   23.0721 N   0  0  0  0  0  0  0  0  0  0  0  0
   11.3653  -16.6924   24.2946 C   0  0  1  0  0  0  0  0  0  0  0  0
   10.9286  -17.8162   25.2213 C   0  0  0  0  0  0  0  0  0  0  0  0
   11.6960  -17.9037   26.4927 C   0  0  0  0  0  0  0  0  0  0  0  0
   11.2997  -19.1361   27.3066 C   0  0  0  0  0  0  0  0  0  0  0  0
   12.1452  -19.2049   28.5278 C   0  0  0  0  0  0  0  0  0  0  0  0
   11.8538  -20.4272   29.2489 N   0  0  0  0  0  0  0  0  0  0  0  0
   12.7551  -16.8868   23.8672 C   0  0  0  0  0  0  0  0  0  0  0  0
   13.6909  -16.6930   24.6859 O   0  0  0  0  0  0  0  0  0  0  0  0
   13.0858  -17.2944   22.5513 N   0  0  0  0  0  0  0  0  0  0  0  0
   14.0887  -16.5812   21.7512 C   0  0  0  0  0  0  0  0  0  0  0  0
   15.4193  -16.9203   22.2688 C   0  0  0  0  0  0  0  0  0  0  0  0
   15.5634  -17.7830   23.3461 O   0  0  0  0  0  0  0  0  0  0  0  0
   16.4747  -16.4312   21.7420 O   0  0  0  0  0  0  0  0  0  0  0  0
  2  1  1  0
  3  2  1  0
  4  3  1  0
  4  5  1  0
  5  7  1  0
  5  6  1  1
  7  8  2  0
  9 10  1  0
  9  7  1  0
 10 11  1  1
 11 12  1  0
 13 12  1  0
 13 14  1  0
 14 15  1  0
 16 17  2  0
 16 10  1  0
 18 16  1  0
 19 18  1  0
 20 19  1  0
 21 20  1  0
 22 20  2  0
M  END
$$$$
