MKG.pdb
     RDKit          3D

 22 21  0  0  1  0  0  0  0  0999 V2000
    7.0633  -11.3098   25.8942 C   0  0  0  0  0  0  0  0  0  0  0  0
    6.0849  -12.2351   27.1074 S   0  0  0  0  0  0  0  0  0  0  0  0
    5.8540  -13.9369   26.5943 C   0  0  0  0  0  0  0  0  0  0  0  0
    7.0455  -14.5212   25.8844 C   0  0  0  0  0  0  0  0  0  0  0  0
    6.8250  -15.8927   25.3312 C   0  0  2  0  0  0  0  0  0  0  0  0
    6.3649  -16.8704   26.2589 N   0  0  0  0  0  0  0  0  0  0  0  0
    8.0006  -16.3720   24.5502 C   0  0  0  0  0  0  0  0  0  0  0  0
    8.8697  -17.1320   25.0494 O   0  0  0  0  0  0  0  0  0  0  0  0
    8.1811  -15.9826   23.2020 N   0  0  0  0  0  0  0  0  0  0  0  0
    9.3257  -16.4914   22.3970 C   0  0  1  0  0  0  0  0  0  0  0  0
    9.0809  -16.0571   20.9605 C   0  0  0  0  0  0  0  0  0  0  0  0
    9.3747  -17.0990   19.9400 C   0  0  0  0  0  0  0  0  0  0  0  0
    8.4039  -17.0228   18.7610 C   0  0  0  0  0  0  0  0  0  0  0  0
    8.6882  -18.1416   17.8238 C   0  0  0  0  0  0  0  0  0  0  0  0
    7.8974  -17.9772   16.6211 N   0  0  0  0  0  0  0  0  0  0  0  0
   10.5354  -15.8550   22.9294 C   0  0  0  0  0  0  0  0  0  0  0  0
   10.4353  -14.8079   23.6202 O   0  0  0  0  0  0  0  0  0  0  0  0
   11.8280  -16.3855   22.6950 N   0  0  0  0  0  0  0  0  0  0  0  0
   13.0415  -15.6810   23.1257 C   0  0  0  0  0  0  0  0  0  0  0  0
   14.2053  -16.3897   22.5811 C   0  0  0  0  0  0  0  0  0  0  0  0
   15.4853  -15.8761   22.7349 O   0  0  0  0  0  0  0  0  0  0  0  0
   14.0695  -17.4936   21.9537 O   0  0  0  0  0  0  0  0  0  0  0  0
  2  1  1  0
  3  2  1  0
  4  3  1  0
  4  5  1  0
  5  7  1  0
  5  6  1  1
  7  8  2  0
  9 10  1  0
  9  7  1  0
 10 11  1  6
 11 12  1  0
 13 12  1  0
 13 14  1  0
 14 15  1  0
 16 17  2  0
 16 10  1  0
 18 16  1  0
 19 18  1  0
 20 19  1  0
 21 20  1  0
 22 20  2  0
M  END
$$$$
