MKG.pdb
     RDKit          3D

 22 21  0  0  1  0  0  0  0  0999 V2000
    4.7348  -11.9056   26.7101 C   0  0  0  0  0  0  0  0  0  0  0  0
    6.4788  -11.5699   27.0718 S   0  0  0  0  0  0  0  0  0  0  0  0
    7.4848  -13.0349   26.8380 C   0  0  0  0  0  0  0  0  0  0  0  0
    6.8516  -14.0665   25.9436 C   0  0  0  0  0  0  0  0  0  0  0  0
    7.7153  -15.2536   25.6598 C   0  0  2  0  0  0  0  0  0  0  0  0
    8.9965  -15.2527   26.2817 N   0  0  0  0  0  0  0  0  0  0  0  0
    7.8024  -15.5405   24.1997 C   0  0  0  0  0  0  0  0  0  0  0  0
    6.8698  -16.1059   23.5730 O   0  0  0  0  0  0  0  0  0  0  0  0
    8.9532  -15.1814   23.4591 N   0  0  0  0  0  0  0  0  0  0  0  0
    9.0169  -15.3801   21.9849 C   0  0  1  0  0  0  0  0  0  0  0  0
    9.1444  -13.9997   21.3599 C   0  0  0  0  0  0  0  0  0  0  0  0
    7.9854  -13.5898   20.5222 C   0  0  0  0  0  0  0  0  0  0  0  0
    8.3832  -13.4155   19.0560 C   0  0  0  0  0  0  0  0  0  0  0  0
    7.2136  -12.9063   18.2920 C   0  0  0  0  0  0  0  0  0  0  0  0
    7.5823  -12.7351   16.9015 N   0  0  0  0  0  0  0  0  0  0  0  0
   10.2161  -16.1810   21.7158 C   0  0  0  0  0  0  0  0  0  0  0  0
   10.4717  -16.5425   20.5379 O   0  0  0  0  0  0  0  0  0  0  0  0
   11.1104  -16.5631   22.7460 N   0  0  0  0  0  0  0  0  0  0  0  0
   12.2716  -17.4212   22.4816 C   0  0  0  0  0  0  0  0  0  0  0  0
   13.0141  -17.5935   23.7355 C   0  0  0  0  0  0  0  0  0  0  0  0
   12.5753  -18.4855   24.7037 O   0  0  0  0  0  0  0  0  0  0  0  0
   14.0796  -16.9285   23.9662 O   0  0  0  0  0  0  0  0  0  0  0  0
  2  1  1  0
  3  2  1  0
  4  3  1  0
  4  5  1  0
  5  7  1  0
  5  6  1  6
  7  8  2  0
  9 10  1  0
  9  7  1  0
 10 11  1  6
 11 12  1  0
 13 12  1  0
 13 14  1  0
 14 15  1  0
 16 17  2  0
 16 10  1  0
 18 16  1  0
 19 18  1  0
 20 19  1  0
 21 20  1  0
 22 20  2  0
M  END
$$$$
