MKG.pdb
     RDKit          3D

 22 21  0  0  1  0  0  0  0  0999 V2000
    6.9433  -11.3181   26.6336 C   0  0  0  0  0  0  0  0  0  0  0  0
    7.2061  -12.8087   27.6306 S   0  0  0  0  0  0  0  0  0  0  0  0
    5.9542  -14.0461   27.2920 C   0  0  0  0  0  0  0  0  0  0  0  0
    6.0158  -14.6017   25.8947 C   0  0  0  0  0  0  0  0  0  0  0  0
    7.1603  -15.5318   25.6483 C   0  0  2  0  0  0  0  0  0  0  0  0
    8.2889  -15.3678   26.5012 N   0  0  0  0  0  0  0  0  0  0  0  0
    7.5470  -15.5674   24.2093 C   0  0  0  0  0  0  0  0  0  0  0  0
    6.7478  -15.9383   23.3115 O   0  0  0  0  0  0  0  0  0  0  0  0
    8.8443  -15.1798   23.7989 N   0  0  0  0  0  0  0  0  0  0  0  0
    9.3114  -15.3998   22.4023 C   0  0  1  0  0  0  0  0  0  0  0  0
    9.3312  -14.0383   21.7253 C   0  0  0  0  0  0  0  0  0  0  0  0
    8.1498  -13.7569   20.8660 C   0  0  0  0  0  0  0  0  0  0  0  0
    8.5455  -13.5997   19.3974 C   0  0  0  0  0  0  0  0  0  0  0  0
    7.3228  -13.3540   18.5878 C   0  0  0  0  0  0  0  0  0  0  0  0
    7.6766  -13.2945   17.1842 N   0  0  0  0  0  0  0  0  0  0  0  0
   10.6676  -15.9520   22.4901 C   0  0  0  0  0  0  0  0  0  0  0  0
   11.5547  -15.3256   23.1259 O   0  0  0  0  0  0  0  0  0  0  0  0
   11.0179  -17.1825   21.8816 N   0  0  0  0  0  0  0  0  0  0  0  0
   12.3842  -17.7149   21.9473 C   0  0  0  0  0  0  0  0  0  0  0  0
   12.3942  -19.0411   21.3192 C   0  0  0  0  0  0  0  0  0  0  0  0
   13.1331  -19.2761   20.1684 O   0  0  0  0  0  0  0  0  0  0  0  0
   11.7249  -20.0091   21.8148 O   0  0  0  0  0  0  0  0  0  0  0  0
  2  1  1  0
  3  2  1  0
  4  3  1  0
  4  5  1  0
  5  7  1  0
  5  6  1  1
  7  8  2  0
  9 10  1  0
  9  7  1  0
 10 11  1  6
 11 12  1  0
 13 12  1  0
 13 14  1  0
 14 15  1  0
 16 17  2  0
 16 10  1  0
 18 16  1  0
 19 18  1  0
 20 19  1  0
 21 20  1  0
 22 20  2  0
M  END
$$$$
