MKG.pdb
     RDKit          3D

 22 21  0  0  1  0  0  0  0  0999 V2000
    7.8630  -11.8503   19.4427 C   0  0  0  0  0  0  0  0  0  0  0  0
    6.8229  -13.0782   20.2767 S   0  0  0  0  0  0  0  0  0  0  0  0
    7.0257  -14.7037   19.5490 C   0  0  0  0  0  0  0  0  0  0  0  0
    8.4560  -15.1696   19.4994 C   0  0  0  0  0  0  0  0  0  0  0  0
    8.8155  -16.1763   20.5449 C   0  0  2  0  0  0  0  0  0  0  0  0
    7.7902  -17.0998   20.8969 N   0  0  0  0  0  0  0  0  0  0  0  0
    9.4283  -15.5369   21.7438 C   0  0  0  0  0  0  0  0  0  0  0  0
   10.3768  -14.7159   21.6520 O   0  0  0  0  0  0  0  0  0  0  0  0
    8.9570  -15.8362   23.0439 N   0  0  0  0  0  0  0  0  0  0  0  0
    9.6223  -15.2803   24.2544 C   0  0  1  0  0  0  0  0  0  0  0  0
    8.5212  -14.9548   25.2514 C   0  0  0  0  0  0  0  0  0  0  0  0
    7.9223  -13.6023   25.0928 C   0  0  0  0  0  0  0  0  0  0  0  0
    6.8217  -13.3487   26.1237 C   0  0  0  0  0  0  0  0  0  0  0  0
    6.2463  -11.9964   25.8982 C   0  0  0  0  0  0  0  0  0  0  0  0
    5.2348  -11.7285   26.9002 N   0  0  0  0  0  0  0  0  0  0  0  0
   10.4984  -16.3335   24.7789 C   0  0  0  0  0  0  0  0  0  0  0  0
   10.0003  -17.2967   25.4174 O   0  0  0  0  0  0  0  0  0  0  0  0
   11.9017  -16.3076   24.5863 N   0  0  0  0  0  0  0  0  0  0  0  0
   12.8011  -17.1880   25.3417 C   0  0  0  0  0  0  0  0  0  0  0  0
   14.1640  -17.0063   24.8291 C   0  0  0  0  0  0  0  0  0  0  0  0
   15.2162  -17.7620   25.3263 O   0  0  0  0  0  0  0  0  0  0  0  0
   14.4147  -16.1505   23.9151 O   0  0  0  0  0  0  0  0  0  0  0  0
  2  1  1  0
  3  2  1  0
  4  3  1  0
  4  5  1  0
  5  7  1  0
  5  6  1  1
  7  8  2  0
  9 10  1  0
  9  7  1  0
 10 11  1  1
 11 12  1  0
 13 12  1  0
 13 14  1  0
 14 15  1  0
 16 17  2  0
 16 10  1  0
 18 16  1  0
 19 18  1  0
 20 19  1  0
 21 20  1  0
 22 20  2  0
M  END
$$$$
