MKG.pdb
     RDKit          3D

 22 21  0  0  1  0  0  0  0  0999 V2000
   10.2016  -16.7889   30.1615 C   0  0  0  0  0  0  0  0  0  0  0  0
    8.8953  -17.3799   29.0528 S   0  0  0  0  0  0  0  0  0  0  0  0
    9.1367  -19.1036   28.6246 C   0  0  0  0  0  0  0  0  0  0  0  0
    8.2497  -19.5785   27.5054 C   0  0  0  0  0  0  0  0  0  0  0  0
    7.5067  -18.4895   26.7999 C   0  0  2  0  0  0  0  0  0  0  0  0
    6.1418  -18.3265   27.1722 N   0  0  0  0  0  0  0  0  0  0  0  0
    7.6778  -18.5683   25.3213 C   0  0  0  0  0  0  0  0  0  0  0  0
    8.7350  -18.9986   24.7929 O   0  0  0  0  0  0  0  0  0  0  0  0
    6.6420  -18.1559   24.4501 N   0  0  0  0  0  0  0  0  0  0  0  0
    6.8208  -18.1771   22.9721 C   0  0  1  0  0  0  0  0  0  0  0  0
    5.4591  -17.8884   22.3599 C   0  0  0  0  0  0  0  0  0  0  0  0
    4.5741  -19.0771   22.2302 C   0  0  0  0  0  0  0  0  0  0  0  0
    3.4684  -18.8469   21.1992 C   0  0  0  0  0  0  0  0  0  0  0  0
    2.5781  -20.0373   21.1668 C   0  0  0  0  0  0  0  0  0  0  0  0
    1.5031  -19.8111   20.2224 N   0  0  0  0  0  0  0  0  0  0  0  0
    7.7709  -17.1086   22.6440 C   0  0  0  0  0  0  0  0  0  0  0  0
    7.5874  -15.9505   23.1008 O   0  0  0  0  0  0  0  0  0  0  0  0
    8.9041  -17.3372   21.8250 N   0  0  0  0  0  0  0  0  0  0  0  0
    9.7750  -16.2394   21.3880 C   0  0  0  0  0  0  0  0  0  0  0  0
   11.1032  -16.4399   21.9785 C   0  0  0  0  0  0  0  0  0  0  0  0
   12.1609  -15.6047   21.6476 O   0  0  0  0  0  0  0  0  0  0  0  0
   11.3181  -17.3854   22.8094 O   0  0  0  0  0  0  0  0  0  0  0  0
  2  1  1  0
  3  2  1  0
  4  3  1  0
  4  5  1  0
  5  7  1  0
  5  6  1  6
  7  8  2  0
  9 10  1  0
  9  7  1  0
 10 11  1  6
 11 12  1  0
 13 12  1  0
 13 14  1  0
 14 15  1  0
 16 17  2  0
 16 10  1  0
 18 16  1  0
 19 18  1  0
 20 19  1  0
 21 20  1  0
 22 20  2  0
M  END
$$$$
