MKG.pdb
     RDKit          3D

 22 21  0  0  1  0  0  0  0  0999 V2000
   -0.6495  -19.6737   21.5652 C   0  0  0  0  0  0  0  0  0  0  0  0
    0.2909  -19.3197   20.0568 S   0  0  0  0  0  0  0  0  0  0  0  0
    2.0537  -19.4851   20.3360 C   0  0  0  0  0  0  0  0  0  0  0  0
    2.4258  -19.6187   21.7882 C   0  0  0  0  0  0  0  0  0  0  0  0
    3.8818  -19.8531   22.0350 C   0  0  2  0  0  0  0  0  0  0  0  0
    4.6248  -20.3627   20.9320 N   0  0  0  0  0  0  0  0  0  0  0  0
    4.1142  -20.6416   23.2783 C   0  0  0  0  0  0  0  0  0  0  0  0
    3.6715  -20.2725   24.3963 O   0  0  0  0  0  0  0  0  0  0  0  0
    4.8512  -21.8489   23.2423 N   0  0  0  0  0  0  0  0  0  0  0  0
    5.0217  -22.6871   24.4610 C   0  0  1  0  0  0  0  0  0  0  0  0
    4.4966  -24.0726   24.1193 C   0  0  0  0  0  0  0  0  0  0  0  0
    3.0175  -24.1582   23.9843 C   0  0  0  0  0  0  0  0  0  0  0  0
    2.4072  -25.0784   25.0421 C   0  0  0  0  0  0  0  0  0  0  0  0
    0.9582  -25.2526   24.7577 C   0  0  0  0  0  0  0  0  0  0  0  0
    0.3527  -26.0496   25.8050 N   0  0  0  0  0  0  0  0  0  0  0  0
    6.4602  -22.7361   24.7447 C   0  0  0  0  0  0  0  0  0  0  0  0
    7.2201  -23.4027   23.9952 O   0  0  0  0  0  0  0  0  0  0  0  0
    7.0326  -22.0479   25.8428 N   0  0  0  0  0  0  0  0  0  0  0  0
    8.4711  -22.1104   26.1282 C   0  0  0  0  0  0  0  0  0  0  0  0
    9.1683  -21.2292   25.1845 C   0  0  0  0  0  0  0  0  0  0  0  0
    9.5472  -19.9474   25.5573 O   0  0  0  0  0  0  0  0  0  0  0  0
    9.4428  -21.6191   23.9999 O   0  0  0  0  0  0  0  0  0  0  0  0
  2  1  1  0
  3  2  1  0
  4  3  1  0
  4  5  1  0
  5  7  1  0
  5  6  1  6
  7  8  2  0
  9 10  1  0
  9  7  1  0
 10 11  1  6
 11 12  1  0
 13 12  1  0
 13 14  1  0
 14 15  1  0
 16 17  2  0
 16 10  1  0
 18 16  1  0
 19 18  1  0
 20 19  1  0
 21 20  1  0
 22 20  2  0
M  END
$$$$
