MKG.pdb
     RDKit          3D

 22 21  0  0  1  0  0  0  0  0999 V2000
    6.5231  -11.0417   26.0662 C   0  0  0  0  0  0  0  0  0  0  0  0
    7.1860  -12.5716   26.7769 S   0  0  0  0  0  0  0  0  0  0  0  0
    5.8948  -13.7928   27.0101 C   0  0  0  0  0  0  0  0  0  0  0  0
    6.1907  -15.1172   26.3594 C   0  0  0  0  0  0  0  0  0  0  0  0
    7.5643  -15.2287   25.7794 C   0  0  2  0  0  0  0  0  0  0  0  0
    8.4193  -14.1089   25.9872 N   0  0  0  0  0  0  0  0  0  0  0  0
    7.5309  -15.6496   24.3499 C   0  0  0  0  0  0  0  0  0  0  0  0
    6.8268  -16.6134   23.9533 O   0  0  0  0  0  0  0  0  0  0  0  0
    8.3011  -14.9694   23.3772 N   0  0  0  0  0  0  0  0  0  0  0  0
    8.3805  -15.4589   21.9733 C   0  0  1  0  0  0  0  0  0  0  0  0
    7.9591  -14.3030   21.0797 C   0  0  0  0  0  0  0  0  0  0  0  0
    7.8932  -14.6329   19.6306 C   0  0  0  0  0  0  0  0  0  0  0  0
    7.9961  -13.3788   18.7617 C   0  0  0  0  0  0  0  0  0  0  0  0
    8.0499  -13.7811   17.3313 C   0  0  0  0  0  0  0  0  0  0  0  0
    8.1966  -12.6017   16.5029 N   0  0  0  0  0  0  0  0  0  0  0  0
    9.7816  -15.8171   21.7272 C   0  0  0  0  0  0  0  0  0  0  0  0
   10.1219  -16.2605   20.5997 O   0  0  0  0  0  0  0  0  0  0  0  0
   10.7788  -15.6759   22.7236 N   0  0  0  0  0  0  0  0  0  0  0  0
   12.1887  -15.9822   22.4538 C   0  0  0  0  0  0  0  0  0  0  0  0
   12.4462  -17.3689   22.8588 C   0  0  0  0  0  0  0  0  0  0  0  0
   13.7396  -17.8093   23.1012 O   0  0  0  0  0  0  0  0  0  0  0  0
   11.4890  -18.2025   22.9977 O   0  0  0  0  0  0  0  0  0  0  0  0
  2  1  1  0
  3  2  1  0
  4  3  1  0
  4  5  1  0
  5  7  1  0
  5  6  1  6
  7  8  2  0
  9 10  1  0
  9  7  1  0
 10 11  1  6
 11 12  1  0
 13 12  1  0
 13 14  1  0
 14 15  1  0
 16 17  2  0
 16 10  1  0
 18 16  1  0
 19 18  1  0
 20 19  1  0
 21 20  1  0
 22 20  2  0
M  END
$$$$
