MKG.pdb
     RDKit          3D

 22 21  0  0  1  0  0  0  0  0999 V2000
    5.4545  -11.3703   26.8217 C   0  0  0  0  0  0  0  0  0  0  0  0
    6.5951  -12.7240   27.2111 S   0  0  0  0  0  0  0  0  0  0  0  0
    6.2671  -14.1631   26.1942 C   0  0  0  0  0  0  0  0  0  0  0  0
    7.1787  -15.3260   26.4801 C   0  0  0  0  0  0  0  0  0  0  0  0
    6.9611  -16.5143   25.5991 C   0  0  2  0  0  0  0  0  0  0  0  0
    6.5214  -17.7005   26.2532 N   0  0  0  0  0  0  0  0  0  0  0  0
    8.1295  -16.7667   24.7087 C   0  0  0  0  0  0  0  0  0  0  0  0
    9.0585  -17.5510   25.0313 O   0  0  0  0  0  0  0  0  0  0  0  0
    8.2345  -16.1235   23.4528 N   0  0  0  0  0  0  0  0  0  0  0  0
    9.3418  -16.4437   22.5104 C   0  0  1  0  0  0  0  0  0  0  0  0
    8.9971  -15.7824   21.1853 C   0  0  0  0  0  0  0  0  0  0  0  0
    9.8019  -16.2580   20.0280 C   0  0  0  0  0  0  0  0  0  0  0  0
    9.4919  -17.7161   19.6871 C   0  0  0  0  0  0  0  0  0  0  0  0
   10.2198  -18.0906   18.4459 C   0  0  0  0  0  0  0  0  0  0  0  0
   10.0380  -19.5045   18.1872 N   0  0  0  0  0  0  0  0  0  0  0  0
   10.5629  -15.8598   23.0761 C   0  0  0  0  0  0  0  0  0  0  0  0
   10.5045  -14.7554   23.6765 O   0  0  0  0  0  0  0  0  0  0  0  0
   11.8204  -16.5043   22.9737 N   0  0  0  0  0  0  0  0  0  0  0  0
   13.0583  -15.8584   23.4264 C   0  0  0  0  0  0  0  0  0  0  0  0
   14.1884  -16.7238   23.0699 C   0  0  0  0  0  0  0  0  0  0  0  0
   15.4947  -16.3180   23.3033 O   0  0  0  0  0  0  0  0  0  0  0  0
   13.9982  -17.8688   22.5374 O   0  0  0  0  0  0  0  0  0  0  0  0
  2  1  1  0
  3  2  1  0
  4  3  1  0
  4  5  1  0
  5  7  1  0
  5  6  1  1
  7  8  2  0
  9 10  1  0
  9  7  1  0
 10 11  1  6
 11 12  1  0
 13 12  1  0
 13 14  1  0
 14 15  1  0
 16 17  2  0
 16 10  1  0
 18 16  1  0
 19 18  1  0
 20 19  1  0
 21 20  1  0
 22 20  2  0
M  END
$$$$
