MKG.pdb
     RDKit          3D

 22 21  0  0  1  0  0  0  0  0999 V2000
    7.2111  -11.1283   26.4802 C   0  0  0  0  0  0  0  0  0  0  0  0
    6.9151  -12.2696   27.8568 S   0  0  0  0  0  0  0  0  0  0  0  0
    6.4306  -13.8904   27.2645 C   0  0  0  0  0  0  0  0  0  0  0  0
    7.2414  -14.3728   26.0919 C   0  0  0  0  0  0  0  0  0  0  0  0
    6.8104  -15.6955   25.5436 C   0  0  2  0  0  0  0  0  0  0  0  0
    6.8088  -16.7799   26.4667 N   0  0  0  0  0  0  0  0  0  0  0  0
    7.5295  -16.0349   24.2829 C   0  0  0  0  0  0  0  0  0  0  0  0
    8.1853  -17.1004   24.1538 O   0  0  0  0  0  0  0  0  0  0  0  0
    7.4982  -15.1575   23.1734 N   0  0  0  0  0  0  0  0  0  0  0  0
    8.3509  -15.3946   21.9760 C   0  0  1  0  0  0  0  0  0  0  0  0
    7.8576  -14.4508   20.8906 C   0  0  0  0  0  0  0  0  0  0  0  0
    8.5990  -14.5452   19.6042 C   0  0  0  0  0  0  0  0  0  0  0  0
    7.9591  -13.6774   18.5199 C   0  0  0  0  0  0  0  0  0  0  0  0
    8.7262  -13.8343   17.2558 C   0  0  0  0  0  0  0  0  0  0  0  0
    8.1451  -12.9919   16.2303 N   0  0  0  0  0  0  0  0  0  0  0  0
    9.7267  -15.0626   22.3621 C   0  0  0  0  0  0  0  0  0  0  0  0
    9.9317  -14.2018   23.2568 O   0  0  0  0  0  0  0  0  0  0  0  0
   10.8468  -15.6871   21.7599 N   0  0  0  0  0  0  0  0  0  0  0  0
   12.2216  -15.3255   22.1255 C   0  0  0  0  0  0  0  0  0  0  0  0
   13.1424  -16.1261   21.3104 C   0  0  0  0  0  0  0  0  0  0  0  0
   12.6605  -17.0708   20.4154 O   0  0  0  0  0  0  0  0  0  0  0  0
   14.4068  -15.9739   21.4044 O   0  0  0  0  0  0  0  0  0  0  0  0
  2  1  1  0
  3  2  1  0
  4  3  1  0
  4  5  1  0
  5  7  1  0
  5  6  1  1
  7  8  2  0
  9 10  1  0
  9  7  1  0
 10 11  1  6
 11 12  1  0
 13 12  1  0
 13 14  1  0
 14 15  1  0
 16 17  2  0
 16 10  1  0
 18 16  1  0
 19 18  1  0
 20 19  1  0
 21 20  1  0
 22 20  2  0
M  END
$$$$
