WWP.pdb
     RDKit          3D

 36 40  0  0  1  0  0  0  0  0999 V2000
    9.5148  -18.1166   21.5613 N   0  0  0  0  0  0  0  0  0  0  0  0
   10.4895  -17.0690   21.7881 C   0  0  1  0  0  0  0  0  0  0  0  0
   10.3065  -16.0891   20.6280 C   0  0  0  0  0  0  0  0  0  0  0  0
    8.9213  -15.5755   20.7155 C   0  0  0  0  0  0  0  0  0  0  0  0
    7.7851  -16.3219   20.9943 C   0  0  0  0  0  0  0  0  0  0  0  0
    6.7148  -15.5085   20.9841 N   0  0  0  0  0  0  0  0  0  0  0  0
    7.1319  -14.2567   20.7060 C   0  0  0  0  0  0  0  0  0  0  0  0
    6.4868  -13.0354   20.5695 C   0  0  0  0  0  0  0  0  0  0  0  0
    7.2012  -11.9037   20.2763 C   0  0  0  0  0  0  0  0  0  0  0  0
    8.5770  -11.9443   20.1086 C   0  0  0  0  0  0  0  0  0  0  0  0
    9.2437  -13.1416   20.2379 C   0  0  0  0  0  0  0  0  0  0  0  0
    8.5128  -14.2648   20.5318 C   0  0  0  0  0  0  0  0  0  0  0  0
   10.3057  -16.3829   23.0726 C   0  0  0  0  0  0  0  0  0  0  0  0
   10.9397  -15.3148   23.2822 O   0  0  0  0  0  0  0  0  0  0  0  0
    9.4443  -16.8973   24.0509 N   0  0  0  0  0  0  0  0  0  0  0  0
    9.3347  -16.2565   25.3611 C   0  0  1  0  0  0  0  0  0  0  0  0
    7.9684  -16.5469   25.8542 C   0  0  0  0  0  0  0  0  0  0  0  0
    6.9198  -15.5639   25.5416 C   0  0  0  0  0  0  0  0  0  0  0  0
    5.6423  -15.8592   25.0309 C   0  0  0  0  0  0  0  0  0  0  0  0
    4.9697  -14.7295   24.8315 N   0  0  0  0  0  0  0  0  0  0  0  0
    5.7538  -13.6937   25.1921 C   0  0  0  0  0  0  0  0  0  0  0  0
    5.5465  -12.3451   25.2031 C   0  0  0  0  0  0  0  0  0  0  0  0
    6.5066  -11.4785   25.6421 C   0  0  0  0  0  0  0  0  0  0  0  0
    7.7300  -11.9620   26.0925 C   0  0  0  0  0  0  0  0  0  0  0  0
    7.9237  -13.3096   26.0755 C   0  0  0  0  0  0  0  0  0  0  0  0
    6.9631  -14.2015   25.6334 C   0  0  0  0  0  0  0  0  0  0  0  0
   10.4325  -16.6076   26.2386 C   0  0  0  0  0  0  0  0  0  0  0  0
   11.2912  -17.4283   25.6839 O   0  0  0  0  0  0  0  0  0  0  0  0
   10.7166  -16.2235   27.5489 N   0  0  0  0  0  0  0  0  0  0  0  0
   10.0564  -15.3626   28.4827 C   0  0  0  0  0  0  0  0  0  0  0  0
   11.2703  -14.5096   28.9156 C   0  0  0  0  0  0  0  0  0  0  0  0
   12.2171  -15.6229   29.3116 C   0  0  0  0  0  0  0  0  0  0  0  0
   11.9202  -16.6944   28.3098 C   0  0  1  0  0  0  0  0  0  0  0  0
   11.5871  -17.9410   29.0216 C   0  0  0  0  0  0  0  0  0  0  0  0
   12.5910  -18.6618   29.6294 O   0  0  0  0  0  0  0  0  0  0  0  0
   10.4118  -18.3501   29.0804 O   0  0  0  0  0  0  0  0  0  0  0  0
  2  3  1  0
  2  1  1  6
  4  5  2  0
  4  3  1  0
  6  5  1  0
  7 12  2  0
  7  6  1  0
  8  7  1  0
  9 10  1  0
  9  8  2  0
 10 11  2  0
 11 12  1  0
 12  4  1  0
 13  2  1  0
 14 13  2  0
 15 13  1  0
 16 15  1  0
 16 17  1  1
 18 17  1  0
 19 18  2  0
 20 19  1  0
 21 20  1  0
 21 26  2  0
 22 21  1  0
 23 22  2  0
 23 24  1  0
 24 25  2  0
 25 26  1  0
 26 18  1  0
 27 16  1  0
 27 29  1  0
 28 27  2  0
 29 30  1  0
 30 31  1  0
 32 31  1  0
 33 29  1  0
 33 32  1  0
 33 34  1  1
 35 34  1  0
 36 34  2  0
M  END
$$$$
