WWP.pdb
     RDKit          3D

 36 40  0  0  1  0  0  0  0  0999 V2000
   11.5406  -17.8787   20.1370 N   0  0  0  0  0  0  0  0  0  0  0  0
   11.0453  -18.3621   21.4098 C   0  0  1  0  0  0  0  0  0  0  0  0
   12.1688  -19.2316   21.9765 C   0  0  0  0  0  0  0  0  0  0  0  0
   12.1375  -20.5105   21.2324 C   0  0  0  0  0  0  0  0  0  0  0  0
   13.0798  -20.9482   20.3124 C   0  0  0  0  0  0  0  0  0  0  0  0
   12.7077  -22.1527   19.8454 N   0  0  0  0  0  0  0  0  0  0  0  0
   11.5497  -22.5029   20.4410 C   0  0  0  0  0  0  0  0  0  0  0  0
   10.7191  -23.6113   20.3530 C   0  0  0  0  0  0  0  0  0  0  0  0
    9.5773  -23.6827   21.1068 C   0  0  0  0  0  0  0  0  0  0  0  0
    9.2207  -22.6595   21.9718 C   0  0  0  0  0  0  0  0  0  0  0  0
   10.0252  -21.5477   22.0799 C   0  0  0  0  0  0  0  0  0  0  0  0
   11.1648  -21.4928   21.3179 C   0  0  0  0  0  0  0  0  0  0  0  0
   10.7133  -17.2800   22.3444 C   0  0  0  0  0  0  0  0  0  0  0  0
   11.4679  -16.2726   22.3936 O   0  0  0  0  0  0  0  0  0  0  0  0
    9.5821  -17.3569   23.1680 N   0  0  0  0  0  0  0  0  0  0  0  0
    9.2804  -16.2917   24.1238 C   0  0  1  0  0  0  0  0  0  0  0  0
    7.8432  -15.9752   23.9551 C   0  0  0  0  0  0  0  0  0  0  0  0
    7.4098  -14.6154   24.3114 C   0  0  0  0  0  0  0  0  0  0  0  0
    6.9631  -13.6322   23.4092 C   0  0  0  0  0  0  0  0  0  0  0  0
    6.6902  -12.5113   24.0704 N   0  0  0  0  0  0  0  0  0  0  0  0
    6.9385  -12.7140   25.3800 C   0  0  0  0  0  0  0  0  0  0  0  0
    6.8111  -11.9091   26.4743 C   0  0  0  0  0  0  0  0  0  0  0  0
    7.1125  -12.3567   27.7291 C   0  0  0  0  0  0  0  0  0  0  0  0
    7.5608  -13.6595   27.9165 C   0  0  0  0  0  0  0  0  0  0  0  0
    7.6839  -14.4516   26.8159 C   0  0  0  0  0  0  0  0  0  0  0  0
    7.3842  -14.0145   25.5381 C   0  0  0  0  0  0  0  0  0  0  0  0
    9.7236  -16.6141   25.4646 C   0  0  0  0  0  0  0  0  0  0  0  0
    9.9145  -17.8981   25.6477 O   0  0  0  0  0  0  0  0  0  0  0  0
    9.9733  -15.7981   26.5678 N   0  0  0  0  0  0  0  0  0  0  0  0
    9.6972  -14.4225   26.8516 C   0  0  0  0  0  0  0  0  0  0  0  0
   11.0993  -13.9976   27.3437 C   0  0  0  0  0  0  0  0  0  0  0  0
   11.3122  -15.0562   28.4052 C   0  0  0  0  0  0  0  0  0  0  0  0
   10.6712  -16.2699   27.8086 C   0  0  1  0  0  0  0  0  0  0  0  0
    9.6738  -16.8023   28.7538 C   0  0  0  0  0  0  0  0  0  0  0  0
   10.0977  -17.3855   29.9272 O   0  0  0  0  0  0  0  0  0  0  0  0
    8.4550  -16.7316   28.5054 O   0  0  0  0  0  0  0  0  0  0  0  0
  2  3  1  0
  2  1  1  6
  4  5  2  0
  4  3  1  0
  6  5  1  0
  7 12  2  0
  7  6  1  0
  8  7  1  0
  9 10  1  0
  9  8  2  0
 10 11  2  0
 11 12  1  0
 12  4  1  0
 13  2  1  0
 14 13  2  0
 15 13  1  0
 16 15  1  0
 16 17  1  1
 18 17  1  0
 19 18  2  0
 20 19  1  0
 21 20  1  0
 21 26  2  0
 22 21  1  0
 23 22  2  0
 23 24  1  0
 24 25  2  0
 25 26  1  0
 26 18  1  0
 27 16  1  0
 27 29  1  0
 28 27  2  0
 29 30  1  0
 30 31  1  0
 32 31  1  0
 33 29  1  0
 33 32  1  0
 33 34  1  1
 35 34  1  0
 36 34  2  0
M  END
$$$$
