WWP.pdb
     RDKit          3D

 36 40  0  0  1  0  0  0  0  0999 V2000
    5.0127  -20.7607   24.2039 N   0  0  0  0  0  0  0  0  0  0  0  0
    6.3550  -20.3705   23.8234 C   0  0  1  0  0  0  0  0  0  0  0  0
    6.6723  -21.1854   22.5686 C   0  0  0  0  0  0  0  0  0  0  0  0
    8.1142  -21.5139   22.6243 C   0  0  0  0  0  0  0  0  0  0  0  0
    8.7440  -22.2836   23.5921 C   0  0  0  0  0  0  0  0  0  0  0  0
   10.0560  -22.3553   23.3077 N   0  0  0  0  0  0  0  0  0  0  0  0
   10.2881  -21.6516   22.1810 C   0  0  0  0  0  0  0  0  0  0  0  0
   11.4252  -21.3810   21.4325 C   0  0  0  0  0  0  0  0  0  0  0  0
   11.3429  -20.6129   20.3010 C   0  0  0  0  0  0  0  0  0  0  0  0
   10.1328  -20.0878   19.8739 C   0  0  0  0  0  0  0  0  0  0  0  0
    8.9884  -20.3394   20.5964 C   0  0  0  0  0  0  0  0  0  0  0  0
    9.0889  -21.1105   21.7266 C   0  0  0  0  0  0  0  0  0  0  0  0
    6.4781  -18.9342   23.5467 C   0  0  0  0  0  0  0  0  0  0  0  0
    5.5569  -18.3622   22.9058 O   0  0  0  0  0  0  0  0  0  0  0  0
    7.5931  -18.2062   23.9832 N   0  0  0  0  0  0  0  0  0  0  0  0
    7.6548  -16.7559   23.8045 C   0  0  1  0  0  0  0  0  0  0  0  0
    8.0937  -16.1941   25.1030 C   0  0  0  0  0  0  0  0  0  0  0  0
    7.1658  -15.2796   25.7859 C   0  0  0  0  0  0  0  0  0  0  0  0
    5.8840  -15.6130   26.2614 C   0  0  0  0  0  0  0  0  0  0  0  0
    5.3099  -14.5359   26.7889 N   0  0  0  0  0  0  0  0  0  0  0  0
    6.1642  -13.4983   26.6820 C   0  0  0  0  0  0  0  0  0  0  0  0
    6.0784  -12.1939   27.0731 C   0  0  0  0  0  0  0  0  0  0  0  0
    7.1063  -11.3180   26.8690 C   0  0  0  0  0  0  0  0  0  0  0  0
    8.2756  -11.7460   26.2502 C   0  0  0  0  0  0  0  0  0  0  0  0
    8.3475  -13.0499   25.8645 C   0  0  0  0  0  0  0  0  0  0  0  0
    7.3161  -13.9501   26.0624 C   0  0  0  0  0  0  0  0  0  0  0  0
    8.4248  -16.3778   22.6373 C   0  0  0  0  0  0  0  0  0  0  0  0
    9.2456  -17.3182   22.2367 O   0  0  0  0  0  0  0  0  0  0  0  0
    8.4350  -15.2012   21.8885 N   0  0  0  0  0  0  0  0  0  0  0  0
    7.7971  -13.9302   22.0518 C   0  0  0  0  0  0  0  0  0  0  0  0
    7.2113  -13.7764   20.6298 C   0  0  0  0  0  0  0  0  0  0  0  0
    8.4751  -13.9937   19.8247 C   0  0  0  0  0  0  0  0  0  0  0  0
    9.2054  -15.0358   20.6123 C   0  0  1  0  0  0  0  0  0  0  0  0
   10.5595  -14.5445   20.9231 C   0  0  0  0  0  0  0  0  0  0  0  0
   10.8874  -14.2438   22.2265 O   0  0  0  0  0  0  0  0  0  0  0  0
   11.4093  -14.3980   20.0239 O   0  0  0  0  0  0  0  0  0  0  0  0
  2  3  1  0
  2  1  1  6
  4  5  2  0
  4  3  1  0
  6  5  1  0
  7 12  2  0
  7  6  1  0
  8  7  1  0
  9 10  1  0
  9  8  2  0
 10 11  2  0
 11 12  1  0
 12  4  1  0
 13  2  1  0
 14 13  2  0
 15 13  1  0
 16 15  1  0
 16 17  1  1
 18 17  1  0
 19 18  2  0
 20 19  1  0
 21 20  1  0
 21 26  2  0
 22 21  1  0
 23 22  2  0
 23 24  1  0
 24 25  2  0
 25 26  1  0
 26 18  1  0
 27 16  1  0
 27 29  1  0
 28 27  2  0
 29 30  1  0
 30 31  1  0
 32 31  1  0
 33 29  1  0
 33 32  1  0
 33 34  1  1
 35 34  1  0
 36 34  2  0
M  END
$$$$
