WWP.pdb
     RDKit          3D

 36 40  0  0  1  0  0  0  0  0999 V2000
    7.7676  -16.3150   20.2109 N   0  0  0  0  0  0  0  0  0  0  0  0
    7.8057  -15.9432   21.6106 C   0  0  1  0  0  0  0  0  0  0  0  0
    6.7665  -16.8339   22.2935 C   0  0  0  0  0  0  0  0  0  0  0  0
    6.3821  -16.1563   23.5518 C   0  0  0  0  0  0  0  0  0  0  0  0
    5.7866  -16.7506   24.6554 C   0  0  0  0  0  0  0  0  0  0  0  0
    5.5862  -15.8154   25.6002 N   0  0  0  0  0  0  0  0  0  0  0  0
    6.0376  -14.6333   25.1340 C   0  0  0  0  0  0  0  0  0  0  0  0
    6.0916  -13.3493   25.6583 C   0  0  0  0  0  0  0  0  0  0  0  0
    6.6246  -12.3231   24.9236 C   0  0  0  0  0  0  0  0  0  0  0  0
    7.1211  -12.5344   23.6463 C   0  0  0  0  0  0  0  0  0  0  0  0
    7.0806  -13.7974   23.1003 C   0  0  0  0  0  0  0  0  0  0  0  0
    6.5437  -14.8133   23.8499 C   0  0  0  0  0  0  0  0  0  0  0  0
    9.1270  -16.1372   22.2198 C   0  0  0  0  0  0  0  0  0  0  0  0
    9.9288  -16.9434   21.6778 O   0  0  0  0  0  0  0  0  0  0  0  0
    9.4978  -15.4437   23.3797 N   0  0  0  0  0  0  0  0  0  0  0  0
   10.8349  -15.6040   23.9504 C   0  0  1  0  0  0  0  0  0  0  0  0
   10.8717  -14.7623   25.1688 C   0  0  0  0  0  0  0  0  0  0  0  0
   11.0865  -15.4490   26.4518 C   0  0  0  0  0  0  0  0  0  0  0  0
   11.5344  -16.7736   26.6103 C   0  0  0  0  0  0  0  0  0  0  0  0
   11.5775  -17.0779   27.9040 N   0  0  0  0  0  0  0  0  0  0  0  0
   11.1752  -16.0031   28.6115 C   0  0  0  0  0  0  0  0  0  0  0  0
   11.0525  -15.7792   29.9519 C   0  0  0  0  0  0  0  0  0  0  0  0
   10.6348  -14.5737   30.4394 C   0  0  0  0  0  0  0  0  0  0  0  0
   10.3229  -13.5378   29.5659 C   0  0  0  0  0  0  0  0  0  0  0  0
   10.4492  -13.7750   28.2310 C   0  0  0  0  0  0  0  0  0  0  0  0
   10.8696  -14.9897   27.7200 C   0  0  0  0  0  0  0  0  0  0  0  0
   11.2020  -16.9962   24.1088 C   0  0  0  0  0  0  0  0  0  0  0  0
   10.1984  -17.7529   24.4813 O   0  0  0  0  0  0  0  0  0  0  0  0
   12.4231  -17.6470   23.9343 N   0  0  0  0  0  0  0  0  0  0  0  0
   13.7515  -17.1837   23.6701 C   0  0  0  0  0  0  0  0  0  0  0  0
   14.0983  -18.1222   22.4922 C   0  0  0  0  0  0  0  0  0  0  0  0
   13.7776  -19.4517   23.1420 C   0  0  0  0  0  0  0  0  0  0  0  0
   12.5855  -19.1370   23.9903 C   0  0  1  0  0  0  0  0  0  0  0  0
   12.8616  -19.5432   25.3797 C   0  0  0  0  0  0  0  0  0  0  0  0
   13.0120  -18.5772   26.3497 O   0  0  0  0  0  0  0  0  0  0  0  0
   12.9604  -20.7465   25.6871 O   0  0  0  0  0  0  0  0  0  0  0  0
  2  3  1  0
  2  1  1  6
  4  5  2  0
  4  3  1  0
  6  5  1  0
  7 12  2  0
  7  6  1  0
  8  7  1  0
  9 10  1  0
  9  8  2  0
 10 11  2  0
 11 12  1  0
 12  4  1  0
 13  2  1  0
 14 13  2  0
 15 13  1  0
 16 15  1  0
 16 17  1  1
 18 17  1  0
 19 18  2  0
 20 19  1  0
 21 20  1  0
 21 26  2  0
 22 21  1  0
 23 22  2  0
 23 24  1  0
 24 25  2  0
 25 26  1  0
 26 18  1  0
 27 16  1  0
 27 29  1  0
 28 27  2  0
 29 30  1  0
 30 31  1  0
 32 31  1  0
 33 29  1  0
 33 32  1  0
 33 34  1  1
 35 34  1  0
 36 34  2  0
M  END
$$$$
