WWP.pdb
     RDKit          3D

 36 40  0  0  1  0  0  0  0  0999 V2000
    7.2604  -20.3148   25.5375 N   0  0  0  0  0  0  0  0  0  0  0  0
    7.7902  -19.0431   25.9854 C   0  0  1  0  0  0  0  0  0  0  0  0
    9.2341  -19.3306   26.4002 C   0  0  0  0  0  0  0  0  0  0  0  0
    9.4957  -18.5352   27.6205 C   0  0  0  0  0  0  0  0  0  0  0  0
    9.3637  -18.9741   28.9304 C   0  0  0  0  0  0  0  0  0  0  0  0
    9.6859  -17.9686   29.7626 N   0  0  0  0  0  0  0  0  0  0  0  0
   10.0224  -16.8927   29.0227 C   0  0  0  0  0  0  0  0  0  0  0  0
   10.4329  -15.6031   29.3308 C   0  0  0  0  0  0  0  0  0  0  0  0
   10.7120  -14.7079   28.3319 C   0  0  0  0  0  0  0  0  0  0  0  0
   10.5938  -15.0600   26.9960 C   0  0  0  0  0  0  0  0  0  0  0  0
   10.1885  -16.3321   26.6604 C   0  0  0  0  0  0  0  0  0  0  0  0
    9.9133  -17.2156   27.6732 C   0  0  0  0  0  0  0  0  0  0  0  0
    7.7520  -18.0076   24.9457 C   0  0  0  0  0  0  0  0  0  0  0  0
    7.5990  -18.3620   23.7467 O   0  0  0  0  0  0  0  0  0  0  0  0
    7.8813  -16.6507   25.2709 N   0  0  0  0  0  0  0  0  0  0  0  0
    7.8196  -15.6243   24.2307 C   0  0  1  0  0  0  0  0  0  0  0  0
    8.1289  -14.3374   24.8960 C   0  0  0  0  0  0  0  0  0  0  0  0
    7.0595  -13.7231   25.6976 C   0  0  0  0  0  0  0  0  0  0  0  0
    6.0964  -14.4173   26.4532 C   0  0  0  0  0  0  0  0  0  0  0  0
    5.2624  -13.5493   27.0181 N   0  0  0  0  0  0  0  0  0  0  0  0
    5.6367  -12.3028   26.6661 C   0  0  0  0  0  0  0  0  0  0  0  0
    5.1400  -11.0715   26.9803 C   0  0  0  0  0  0  0  0  0  0  0  0
    5.7161   -9.9270   26.5075 C   0  0  0  0  0  0  0  0  0  0  0  0
    6.8356   -9.9971   25.6857 C   0  0  0  0  0  0  0  0  0  0  0  0
    7.3204  -11.2321   25.3796 C   0  0  0  0  0  0  0  0  0  0  0  0
    6.7490  -12.4013   25.8487 C   0  0  0  0  0  0  0  0  0  0  0  0
    8.6181  -15.9671   23.0717 C   0  0  0  0  0  0  0  0  0  0  0  0
    9.4379  -16.9665   23.2901 O   0  0  0  0  0  0  0  0  0  0  0  0
    8.6560  -15.4174   21.7904 N   0  0  0  0  0  0  0  0  0  0  0  0
    8.0553  -14.2583   21.2033 C   0  0  0  0  0  0  0  0  0  0  0  0
    7.4636  -14.9161   19.9360 C   0  0  0  0  0  0  0  0  0  0  0  0
    8.7149  -15.5836   19.4055 C   0  0  0  0  0  0  0  0  0  0  0  0
    9.4213  -16.0207   20.6504 C   0  0  1  0  0  0  0  0  0  0  0  0
   10.7909  -15.4770   20.6437 C   0  0  0  0  0  0  0  0  0  0  0  0
   11.1514  -14.5402   21.5867 O   0  0  0  0  0  0  0  0  0  0  0  0
   11.6249  -15.8532   19.7980 O   0  0  0  0  0  0  0  0  0  0  0  0
  2  3  1  0
  2  1  1  6
  4  5  2  0
  4  3  1  0
  6  5  1  0
  7 12  2  0
  7  6  1  0
  8  7  1  0
  9 10  1  0
  9  8  2  0
 10 11  2  0
 11 12  1  0
 12  4  1  0
 13  2  1  0
 14 13  2  0
 15 13  1  0
 16 15  1  0
 16 17  1  1
 18 17  1  0
 19 18  2  0
 20 19  1  0
 21 20  1  0
 21 26  2  0
 22 21  1  0
 23 22  2  0
 23 24  1  0
 24 25  2  0
 25 26  1  0
 26 18  1  0
 27 16  1  0
 27 29  1  0
 28 27  2  0
 29 30  1  0
 30 31  1  0
 32 31  1  0
 33 29  1  0
 33 32  1  0
 33 34  1  6
 35 34  1  0
 36 34  2  0
M  END
$$$$
