WWP.pdb
     RDKit          3D

 36 40  0  0  1  0  0  0  0  0999 V2000
    4.9949  -21.0033   24.1132 N   0  0  0  0  0  0  0  0  0  0  0  0
    6.3164  -20.5292   23.7558 C   0  0  1  0  0  0  0  0  0  0  0  0
    6.6475  -21.2172   22.4304 C   0  0  0  0  0  0  0  0  0  0  0  0
    8.0786  -21.5897   22.4869 C   0  0  0  0  0  0  0  0  0  0  0  0
    8.6203  -22.6650   23.1769 C   0  0  0  0  0  0  0  0  0  0  0  0
    9.9521  -22.6754   22.9937 N   0  0  0  0  0  0  0  0  0  0  0  0
   10.2829  -21.6344   22.2029 C   0  0  0  0  0  0  0  0  0  0  0  0
   11.4815  -21.1583   21.6900 C   0  0  0  0  0  0  0  0  0  0  0  0
   11.4995  -20.0453   20.8914 C   0  0  0  0  0  0  0  0  0  0  0  0
   10.3321  -19.3675   20.5747 C   0  0  0  0  0  0  0  0  0  0  0  0
    9.1285  -19.8166   21.0693 C   0  0  0  0  0  0  0  0  0  0  0  0
    9.1287  -20.9326   21.8672 C   0  0  0  0  0  0  0  0  0  0  0  0
    6.3815  -19.0704   23.6065 C   0  0  0  0  0  0  0  0  0  0  0  0
    5.4372  -18.4816   23.0166 O   0  0  0  0  0  0  0  0  0  0  0  0
    7.4673  -18.3397   24.1074 N   0  0  0  0  0  0  0  0  0  0  0  0
    7.5158  -16.8845   23.9685 C   0  0  1  0  0  0  0  0  0  0  0  0
    7.8322  -16.3477   25.3124 C   0  0  0  0  0  0  0  0  0  0  0  0
    6.9875  -15.2524   25.8128 C   0  0  0  0  0  0  0  0  0  0  0  0
    5.6272  -15.3552   26.1578 C   0  0  0  0  0  0  0  0  0  0  0  0
    5.1713  -14.1640   26.5339 N   0  0  0  0  0  0  0  0  0  0  0  0
    6.1798  -13.2730   26.4522 C   0  0  0  0  0  0  0  0  0  0  0  0
    6.2527  -11.9399   26.7339 C   0  0  0  0  0  0  0  0  0  0  0  0
    7.4176  -11.2418   26.5881 C   0  0  0  0  0  0  0  0  0  0  0  0
    8.5667  -11.8863   26.1438 C   0  0  0  0  0  0  0  0  0  0  0  0
    8.4797  -13.2164   25.8658 C   0  0  0  0  0  0  0  0  0  0  0  0
    7.3083  -13.9386   26.0068 C   0  0  0  0  0  0  0  0  0  0  0  0
    8.3745  -16.4642   22.8803 C   0  0  0  0  0  0  0  0  0  0  0  0
    9.2669  -17.3668   22.5521 O   0  0  0  0  0  0  0  0  0  0  0  0
    8.4058  -15.2809   22.1426 N   0  0  0  0  0  0  0  0  0  0  0  0
    7.7294  -14.0262   22.2741 C   0  0  0  0  0  0  0  0  0  0  0  0
    7.2330  -13.8727   20.8185 C   0  0  0  0  0  0  0  0  0  0  0  0
    8.5508  -14.0540   20.0950 C   0  0  0  0  0  0  0  0  0  0  0  0
    9.2527  -15.0865   20.9202 C   0  0  1  0  0  0  0  0  0  0  0  0
   10.5722  -14.5676   21.3216 C   0  0  0  0  0  0  0  0  0  0  0  0
   11.5784  -14.4809   20.3851 O   0  0  0  0  0  0  0  0  0  0  0  0
   10.7887  -14.2073   22.4944 O   0  0  0  0  0  0  0  0  0  0  0  0
  2  3  1  0
  2  1  1  6
  4  5  2  0
  4  3  1  0
  6  5  1  0
  7 12  2  0
  7  6  1  0
  8  7  1  0
  9 10  1  0
  9  8  2  0
 10 11  2  0
 11 12  1  0
 12  4  1  0
 13  2  1  0
 14 13  2  0
 15 13  1  0
 16 15  1  0
 16 17  1  1
 18 17  1  0
 19 18  2  0
 20 19  1  0
 21 20  1  0
 21 26  2  0
 22 21  1  0
 23 22  2  0
 23 24  1  0
 24 25  2  0
 25 26  1  0
 26 18  1  0
 27 16  1  0
 27 29  1  0
 28 27  2  0
 29 30  1  0
 30 31  1  0
 32 31  1  0
 33 29  1  0
 33 32  1  0
 33 34  1  1
 35 34  1  0
 36 34  2  0
M  END
$$$$
