WWP.pdb
     RDKit          3D

 36 40  0  0  1  0  0  0  0  0999 V2000
    5.6648  -20.5485   24.3602 N   0  0  0  0  0  0  0  0  0  0  0  0
    6.9352  -19.9969   23.9353 C   0  0  1  0  0  0  0  0  0  0  0  0
    7.3603  -20.8413   22.7329 C   0  0  0  0  0  0  0  0  0  0  0  0
    8.2178  -21.9288   23.2548 C   0  0  0  0  0  0  0  0  0  0  0  0
    7.7982  -23.1981   23.6271 C   0  0  0  0  0  0  0  0  0  0  0  0
    8.8613  -23.9019   24.0537 N   0  0  0  0  0  0  0  0  0  0  0  0
    9.9555  -23.1188   23.9658 C   0  0  0  0  0  0  0  0  0  0  0  0
   11.2992  -23.3064   24.2585 C   0  0  0  0  0  0  0  0  0  0  0  0
   12.1999  -22.2940   24.0565 C   0  0  0  0  0  0  0  0  0  0  0  0
   11.7999  -21.0634   23.5584 C   0  0  0  0  0  0  0  0  0  0  0  0
   10.4735  -20.8484   23.2593 C   0  0  0  0  0  0  0  0  0  0  0  0
    9.5853  -21.8730   23.4675 C   0  0  0  0  0  0  0  0  0  0  0  0
    6.8493  -18.5799   23.5620 C   0  0  0  0  0  0  0  0  0  0  0  0
    5.8048  -18.1689   22.9904 O   0  0  0  0  0  0  0  0  0  0  0  0
    7.9018  -17.6953   23.8327 N   0  0  0  0  0  0  0  0  0  0  0  0
    7.8111  -16.2868   23.4488 C   0  0  1  0  0  0  0  0  0  0  0  0
    8.3705  -15.5098   24.5791 C   0  0  0  0  0  0  0  0  0  0  0  0
    7.4184  -14.7639   25.4162 C   0  0  0  0  0  0  0  0  0  0  0  0
    6.2444  -15.2857   25.9903 C   0  0  0  0  0  0  0  0  0  0  0  0
    5.6053  -14.3244   26.6503 N   0  0  0  0  0  0  0  0  0  0  0  0
    6.3125  -13.1822   26.5363 C   0  0  0  0  0  0  0  0  0  0  0  0
    6.1135  -11.9256   27.0294 C   0  0  0  0  0  0  0  0  0  0  0  0
    7.0011  -10.9155   26.7898 C   0  0  0  0  0  0  0  0  0  0  0  0
    8.1400  -11.1530   26.0284 C   0  0  0  0  0  0  0  0  0  0  0  0
    8.3259  -12.4112   25.5421 C   0  0  0  0  0  0  0  0  0  0  0  0
    7.4370  -13.4455   25.7740 C   0  0  0  0  0  0  0  0  0  0  0  0
    8.3800  -16.0357   22.1406 C   0  0  0  0  0  0  0  0  0  0  0  0
    9.0200  -17.0700   21.6516 O   0  0  0  0  0  0  0  0  0  0  0  0
    8.3587  -14.8968   21.3358 N   0  0  0  0  0  0  0  0  0  0  0  0
    7.8297  -13.5790   21.5166 C   0  0  0  0  0  0  0  0  0  0  0  0
    7.0622  -13.4482   20.1815 C   0  0  0  0  0  0  0  0  0  0  0  0
    8.1856  -13.7871   19.2245 C   0  0  0  0  0  0  0  0  0  0  0  0
    8.9525  -14.8412   19.9597 C   0  0  1  0  0  0  0  0  0  0  0  0
   10.3645  -14.4308   20.0567 C   0  0  0  0  0  0  0  0  0  0  0  0
   10.8758  -14.0496   21.2773 O   0  0  0  0  0  0  0  0  0  0  0  0
   11.0997  -14.4244   19.0509 O   0  0  0  0  0  0  0  0  0  0  0  0
  2  3  1  0
  2  1  1  6
  4  5  2  0
  4  3  1  0
  6  5  1  0
  7 12  2  0
  7  6  1  0
  8  7  1  0
  9 10  1  0
  9  8  2  0
 10 11  2  0
 11 12  1  0
 12  4  1  0
 13  2  1  0
 14 13  2  0
 15 13  1  0
 16 15  1  0
 16 17  1  1
 18 17  1  0
 19 18  2  0
 20 19  1  0
 21 20  1  0
 21 26  2  0
 22 21  1  0
 23 22  2  0
 23 24  1  0
 24 25  2  0
 25 26  1  0
 26 18  1  0
 27 16  1  0
 27 29  1  0
 28 27  2  0
 29 30  1  0
 30 31  1  0
 32 31  1  0
 33 29  1  0
 33 32  1  0
 33 34  1  1
 35 34  1  0
 36 34  2  0
M  END
$$$$
