WWP.pdb
     RDKit          3D

 36 40  0  0  1  0  0  0  0  0999 V2000
    7.4182  -20.0423   23.7649 N   0  0  0  0  0  0  0  0  0  0  0  0
    6.4359  -19.5424   22.8247 C   0  0  1  0  0  0  0  0  0  0  0  0
    5.0797  -19.9503   23.4023 C   0  0  0  0  0  0  0  0  0  0  0  0
    5.1773  -21.3848   23.7529 C   0  0  0  0  0  0  0  0  0  0  0  0
    4.8975  -21.9485   24.9898 C   0  0  0  0  0  0  0  0  0  0  0  0
    5.1052  -23.2750   24.9223 N   0  0  0  0  0  0  0  0  0  0  0  0
    5.5116  -23.5810   23.6735 C   0  0  0  0  0  0  0  0  0  0  0  0
    5.8628  -24.7642   23.0386 C   0  0  0  0  0  0  0  0  0  0  0  0
    6.2433  -24.7575   21.7225 C   0  0  0  0  0  0  0  0  0  0  0  0
    6.2886  -23.5796   20.9923 C   0  0  0  0  0  0  0  0  0  0  0  0
    5.9459  -22.3907   21.5958 C   0  0  0  0  0  0  0  0  0  0  0  0
    5.5672  -22.4158   22.9142 C   0  0  0  0  0  0  0  0  0  0  0  0
    6.5007  -18.0868   22.6471 C   0  0  0  0  0  0  0  0  0  0  0  0
    5.5411  -17.5056   22.0744 O   0  0  0  0  0  0  0  0  0  0  0  0
    7.6026  -17.3507   23.1028 N   0  0  0  0  0  0  0  0  0  0  0  0
    7.7354  -15.9296   22.7829 C   0  0  1  0  0  0  0  0  0  0  0  0
    8.3680  -15.2942   23.9619 C   0  0  0  0  0  0  0  0  0  0  0  0
    7.4733  -14.8211   25.0293 C   0  0  0  0  0  0  0  0  0  0  0  0
    6.5706  -15.6172   25.7583 C   0  0  0  0  0  0  0  0  0  0  0  0
    5.8962  -14.8562   26.6152 N   0  0  0  0  0  0  0  0  0  0  0  0
    6.3187  -13.5827   26.4828 C   0  0  0  0  0  0  0  0  0  0  0  0
    5.9722  -12.4288   27.1232 C   0  0  0  0  0  0  0  0  0  0  0  0
    6.5689  -11.2377   26.8218 C   0  0  0  0  0  0  0  0  0  0  0  0
    7.5545  -11.1789   25.8428 C   0  0  0  0  0  0  0  0  0  0  0  0
    7.8901  -12.3376   25.2112 C   0  0  0  0  0  0  0  0  0  0  0  0
    7.2955  -13.5521   25.5031 C   0  0  0  0  0  0  0  0  0  0  0  0
    8.3769  -15.7118   21.5026 C   0  0  0  0  0  0  0  0  0  0  0  0
    9.0245  -16.7650   21.0667 O   0  0  0  0  0  0  0  0  0  0  0  0
    8.4174  -14.5878   20.6778 N   0  0  0  0  0  0  0  0  0  0  0  0
    7.8532  -13.2762   20.7805 C   0  0  0  0  0  0  0  0  0  0  0  0
    7.2186  -13.1821   19.3744 C   0  0  0  0  0  0  0  0  0  0  0  0
    8.4355  -13.5187   18.5387 C   0  0  0  0  0  0  0  0  0  0  0  0
    9.1425  -14.5463   19.3656 C   0  0  1  0  0  0  0  0  0  0  0  0
   10.5318  -14.1103   19.5925 C   0  0  0  0  0  0  0  0  0  0  0  0
   10.9073  -13.6713   20.8427 O   0  0  0  0  0  0  0  0  0  0  0  0
   11.3687  -14.1337   18.6699 O   0  0  0  0  0  0  0  0  0  0  0  0
  2  3  1  0
  2  1  1  1
  4  5  2  0
  4  3  1  0
  6  5  1  0
  7 12  2  0
  7  6  1  0
  8  7  1  0
  9 10  1  0
  9  8  2  0
 10 11  2  0
 11 12  1  0
 12  4  1  0
 13  2  1  0
 14 13  2  0
 15 13  1  0
 16 15  1  0
 16 17  1  1
 18 17  1  0
 19 18  2  0
 20 19  1  0
 21 20  1  0
 21 26  2  0
 22 21  1  0
 23 22  2  0
 23 24  1  0
 24 25  2  0
 25 26  1  0
 26 18  1  0
 27 16  1  0
 27 29  1  0
 28 27  2  0
 29 30  1  0
 30 31  1  0
 32 31  1  0
 33 29  1  0
 33 32  1  0
 33 34  1  1
 35 34  1  0
 36 34  2  0
M  END
$$$$
