WWP.pdb
     RDKit          3D

 36 40  0  0  1  0  0  0  0  0999 V2000
    7.9001  -18.7052   21.7502 N   0  0  0  0  0  0  0  0  0  0  0  0
    8.4168  -17.3576   21.6247 C   0  0  1  0  0  0  0  0  0  0  0  0
    7.4616  -16.6464   20.6649 C   0  0  0  0  0  0  0  0  0  0  0  0
    8.2536  -15.6154   19.9580 C   0  0  0  0  0  0  0  0  0  0  0  0
    9.0842  -15.8239   18.8660 C   0  0  0  0  0  0  0  0  0  0  0  0
    9.6342  -14.6514   18.5053 N   0  0  0  0  0  0  0  0  0  0  0  0
    9.1793  -13.6922   19.3368 C   0  0  0  0  0  0  0  0  0  0  0  0
    9.3980  -12.3255   19.4405 C   0  0  0  0  0  0  0  0  0  0  0  0
    8.7734  -11.5964   20.4179 C   0  0  0  0  0  0  0  0  0  0  0  0
    7.9124  -12.1963   21.3241 C   0  0  0  0  0  0  0  0  0  0  0  0
    7.6765  -13.5502   21.2456 C   0  0  0  0  0  0  0  0  0  0  0  0
    8.3101  -14.2649   20.2607 C   0  0  0  0  0  0  0  0  0  0  0  0
    8.4796  -16.6456   22.9069 C   0  0  0  0  0  0  0  0  0  0  0  0
    7.7521  -15.6303   23.0693 O   0  0  0  0  0  0  0  0  0  0  0  0
    9.3274  -17.0797   23.9347 N   0  0  0  0  0  0  0  0  0  0  0  0
    9.2396  -16.4947   25.2724 C   0  0  1  0  0  0  0  0  0  0  0  0
    7.8765  -16.7933   25.7693 C   0  0  0  0  0  0  0  0  0  0  0  0
    6.8847  -15.7093   25.6987 C   0  0  0  0  0  0  0  0  0  0  0  0
    5.5352  -15.8530   25.3266 C   0  0  0  0  0  0  0  0  0  0  0  0
    4.9412  -14.6633   25.3351 N   0  0  0  0  0  0  0  0  0  0  0  0
    5.8470  -13.7339   25.7003 C   0  0  0  0  0  0  0  0  0  0  0  0
    5.7568  -12.3843   25.8801 C   0  0  0  0  0  0  0  0  0  0  0  0
    6.8317  -11.6439   26.2824 C   0  0  0  0  0  0  0  0  0  0  0  0
    8.0549  -12.2611   26.5195 C   0  0  0  0  0  0  0  0  0  0  0  0
    8.1311  -13.6081   26.3356 C   0  0  0  0  0  0  0  0  0  0  0  0
    7.0531  -14.3731   25.9277 C   0  0  0  0  0  0  0  0  0  0  0  0
   10.3443  -16.8931   26.1204 C   0  0  0  0  0  0  0  0  0  0  0  0
   11.0103  -17.9188   25.6484 O   0  0  0  0  0  0  0  0  0  0  0  0
   10.8028  -16.3745   27.3313 N   0  0  0  0  0  0  0  0  0  0  0  0
   10.3155  -15.3521   28.2066 C   0  0  0  0  0  0  0  0  0  0  0  0
   11.6276  -14.5568   28.3931 C   0  0  0  0  0  0  0  0  0  0  0  0
   12.5335  -15.6879   28.8319 C   0  0  0  0  0  0  0  0  0  0  0  0
   12.0498  -16.8467   28.0178 C   0  0  1  0  0  0  0  0  0  0  0  0
   11.7144  -17.9630   28.9195 C   0  0  0  0  0  0  0  0  0  0  0  0
   12.7279  -18.6613   29.5374 O   0  0  0  0  0  0  0  0  0  0  0  0
   10.5285  -18.2822   29.1293 O   0  0  0  0  0  0  0  0  0  0  0  0
  2  3  1  0
  2  1  1  1
  4  5  2  0
  4  3  1  0
  6  5  1  0
  7 12  2  0
  7  6  1  0
  8  7  1  0
  9 10  1  0
  9  8  2  0
 10 11  2  0
 11 12  1  0
 12  4  1  0
 13  2  1  0
 14 13  2  0
 15 13  1  0
 16 15  1  0
 16 17  1  1
 18 17  1  0
 19 18  2  0
 20 19  1  0
 21 20  1  0
 21 26  2  0
 22 21  1  0
 23 22  2  0
 23 24  1  0
 24 25  2  0
 25 26  1  0
 26 18  1  0
 27 16  1  0
 27 29  1  0
 28 27  2  0
 29 30  1  0
 30 31  1  0
 32 31  1  0
 33 29  1  0
 33 32  1  0
 33 34  1  1
 35 34  1  0
 36 34  2  0
M  END
$$$$
