WWP.pdb
     RDKit          3D

 36 40  0  0  1  0  0  0  0  0999 V2000
    6.9019  -20.9460   25.4272 N   0  0  0  0  0  0  0  0  0  0  0  0
    7.5410  -19.7522   25.9421 C   0  0  1  0  0  0  0  0  0  0  0  0
    9.0416  -20.0445   25.8938 C   0  0  0  0  0  0  0  0  0  0  0  0
    9.6253  -19.4952   27.1379 C   0  0  0  0  0  0  0  0  0  0  0  0
    9.9477  -20.2138   28.2804 C   0  0  0  0  0  0  0  0  0  0  0  0
   10.4509  -19.3710   29.1991 N   0  0  0  0  0  0  0  0  0  0  0  0
   10.4612  -18.1274   28.6779 C   0  0  0  0  0  0  0  0  0  0  0  0
   10.8617  -16.8872   29.1554 C   0  0  0  0  0  0  0  0  0  0  0  0
   10.7472  -15.7719   28.3678 C   0  0  0  0  0  0  0  0  0  0  0  0
   10.2326  -15.8481   27.0826 C   0  0  0  0  0  0  0  0  0  0  0  0
    9.8271  -17.0648   26.5824 C   0  0  0  0  0  0  0  0  0  0  0  0
    9.9490  -18.1712   27.3845 C   0  0  0  0  0  0  0  0  0  0  0  0
    7.2273  -18.5506   25.1594 C   0  0  0  0  0  0  0  0  0  0  0  0
    7.2223  -18.6336   23.9025 O   0  0  0  0  0  0  0  0  0  0  0  0
    6.9374  -17.3326   25.7886 N   0  0  0  0  0  0  0  0  0  0  0  0
    7.1266  -16.0646   25.0846 C   0  0  1  0  0  0  0  0  0  0  0  0
    7.4745  -15.0619   26.1179 C   0  0  0  0  0  0  0  0  0  0  0  0
    7.5171  -13.6530   25.6976 C   0  0  0  0  0  0  0  0  0  0  0  0
    8.5913  -13.0227   25.0426 C   0  0  0  0  0  0  0  0  0  0  0  0
    8.3040  -11.7390   24.8485 N   0  0  0  0  0  0  0  0  0  0  0  0
    7.0770  -11.4931   25.3501 C   0  0  0  0  0  0  0  0  0  0  0  0
    6.3127  -10.3637   25.3957 C   0  0  0  0  0  0  0  0  0  0  0  0
    5.0645  -10.3679   25.9501 C   0  0  0  0  0  0  0  0  0  0  0  0
    4.5425  -11.5401   26.4857 C   0  0  0  0  0  0  0  0  0  0  0  0
    5.3160  -12.6595   26.4342 C   0  0  0  0  0  0  0  0  0  0  0  0
    6.5823  -12.6730   25.8775 C   0  0  0  0  0  0  0  0  0  0  0  0
    8.0363  -16.1881   23.9641 C   0  0  0  0  0  0  0  0  0  0  0  0
    8.8247  -17.2315   24.0552 O   0  0  0  0  0  0  0  0  0  0  0  0
    8.2061  -15.3938   22.8303 N   0  0  0  0  0  0  0  0  0  0  0  0
    7.7755  -14.0729   22.4859 C   0  0  0  0  0  0  0  0  0  0  0  0
    7.1810  -14.3750   21.0916 C   0  0  0  0  0  0  0  0  0  0  0  0
    8.3737  -15.0680   20.4671 C   0  0  0  0  0  0  0  0  0  0  0  0
    8.9570  -15.8378   21.6103 C   0  0  1  0  0  0  0  0  0  0  0  0
   10.3786  -15.4787   21.7580 C   0  0  0  0  0  0  0  0  0  0  0  0
   10.7904  -14.7949   22.8803 O   0  0  0  0  0  0  0  0  0  0  0  0
   11.2105  -15.7850   20.8826 O   0  0  0  0  0  0  0  0  0  0  0  0
  2  3  1  0
  2  1  1  6
  4  5  2  0
  4  3  1  0
  6  5  1  0
  7 12  2  0
  7  6  1  0
  8  7  1  0
  9 10  1  0
  9  8  2  0
 10 11  2  0
 11 12  1  0
 12  4  1  0
 13  2  1  0
 14 13  2  0
 15 13  1  0
 16 15  1  0
 16 17  1  1
 18 17  1  0
 19 18  2  0
 20 19  1  0
 21 20  1  0
 21 26  2  0
 22 21  1  0
 23 22  2  0
 23 24  1  0
 24 25  2  0
 25 26  1  0
 26 18  1  0
 27 16  1  0
 27 29  1  0
 28 27  2  0
 29 30  1  0
 30 31  1  0
 32 31  1  0
 33 29  1  0
 33 32  1  0
 33 34  1  1
 35 34  1  0
 36 34  2  0
M  END
$$$$
