WWP.pdb
     RDKit          3D

 36 40  0  0  1  0  0  0  0  0999 V2000
    7.7728  -18.8759   21.7797 N   0  0  0  0  0  0  0  0  0  0  0  0
    8.4219  -17.5888   21.6361 C   0  0  1  0  0  0  0  0  0  0  0  0
    7.6719  -16.8821   20.5058 C   0  0  0  0  0  0  0  0  0  0  0  0
    8.4737  -15.6941   20.1368 C   0  0  0  0  0  0  0  0  0  0  0  0
    9.7217  -15.7023   19.5300 C   0  0  0  0  0  0  0  0  0  0  0  0
   10.1317  -14.4336   19.3572 N   0  0  0  0  0  0  0  0  0  0  0  0
    9.1798  -13.6078   19.8370 C   0  0  0  0  0  0  0  0  0  0  0  0
    9.0575  -12.2279   19.9239 C   0  0  0  0  0  0  0  0  0  0  0  0
    7.9381  -11.6655   20.4784 C   0  0  0  0  0  0  0  0  0  0  0  0
    6.9037  -12.4503   20.9648 C   0  0  0  0  0  0  0  0  0  0  0  0
    6.9974  -13.8218   20.8921 C   0  0  0  0  0  0  0  0  0  0  0  0
    8.1251  -14.3681   20.3338 C   0  0  0  0  0  0  0  0  0  0  0  0
    8.3773  -16.7838   22.8628 C   0  0  0  0  0  0  0  0  0  0  0  0
    7.5748  -15.8146   22.9195 O   0  0  0  0  0  0  0  0  0  0  0  0
    9.2057  -17.0805   23.9533 N   0  0  0  0  0  0  0  0  0  0  0  0
    9.2251  -16.2164   25.1333 C   0  0  1  0  0  0  0  0  0  0  0  0
    7.9160  -16.3956   25.8028 C   0  0  0  0  0  0  0  0  0  0  0  0
    6.9186  -15.3298   25.6212 C   0  0  0  0  0  0  0  0  0  0  0  0
    5.5836  -15.5138   25.2160 C   0  0  0  0  0  0  0  0  0  0  0  0
    4.9802  -14.3328   25.1189 N   0  0  0  0  0  0  0  0  0  0  0  0
    5.8658  -13.3702   25.4457 C   0  0  0  0  0  0  0  0  0  0  0  0
    5.7590  -12.0122   25.5244 C   0  0  0  0  0  0  0  0  0  0  0  0
    6.8139  -11.2337   25.9073 C   0  0  0  0  0  0  0  0  0  0  0  0
    8.0332  -11.8196   26.2287 C   0  0  0  0  0  0  0  0  0  0  0  0
    8.1262  -13.1755   26.1453 C   0  0  0  0  0  0  0  0  0  0  0  0
    7.0686  -13.9789   25.7584 C   0  0  0  0  0  0  0  0  0  0  0  0
   10.4063  -16.4220   25.9461 C   0  0  0  0  0  0  0  0  0  0  0  0
   11.2805  -17.2241   25.3884 O   0  0  0  0  0  0  0  0  0  0  0  0
   10.7556  -15.9172   27.1985 N   0  0  0  0  0  0  0  0  0  0  0  0
   10.1496  -14.9591   28.0726 C   0  0  0  0  0  0  0  0  0  0  0  0
   11.3923  -14.0879   28.3648 C   0  0  0  0  0  0  0  0  0  0  0  0
   12.3434  -15.1728   28.8245 C   0  0  0  0  0  0  0  0  0  0  0  0
   11.9876  -16.3315   27.9467 C   0  0  1  0  0  0  0  0  0  0  0  0
   11.6734  -17.4976   28.7912 C   0  0  0  0  0  0  0  0  0  0  0  0
   12.6945  -18.1627   29.4329 O   0  0  0  0  0  0  0  0  0  0  0  0
   10.4988  -17.8883   28.9316 O   0  0  0  0  0  0  0  0  0  0  0  0
  2  3  1  0
  2  1  1  1
  4  5  2  0
  4  3  1  0
  6  5  1  0
  7 12  2  0
  7  6  1  0
  8  7  1  0
  9 10  1  0
  9  8  2  0
 10 11  2  0
 11 12  1  0
 12  4  1  0
 13  2  1  0
 14 13  2  0
 15 13  1  0
 16 15  1  0
 16 17  1  1
 18 17  1  0
 19 18  2  0
 20 19  1  0
 21 20  1  0
 21 26  2  0
 22 21  1  0
 23 22  2  0
 23 24  1  0
 24 25  2  0
 25 26  1  0
 26 18  1  0
 27 16  1  0
 27 29  1  0
 28 27  2  0
 29 30  1  0
 30 31  1  0
 32 31  1  0
 33 29  1  0
 33 32  1  0
 33 34  1  1
 35 34  1  0
 36 34  2  0
M  END
$$$$
