SFD.pdb
     RDKit          3D

 26 26  0  0  1  0  0  0  0  0999 V2000
    8.9550  -16.1226   19.2677 O   0  0  0  0  0  0  0  0  0  0  0  0
    7.6927  -15.5861   19.0840 C   0  0  0  0  0  0  0  0  0  0  0  0
    7.6831  -14.1138   19.4324 C   0  0  2  0  0  0  0  0  0  0  0  0
    8.4928  -13.3652   18.5189 N   0  0  0  0  0  0  0  0  0  0  0  0
    8.2280  -13.9341   20.8030 C   0  0  0  0  0  0  0  0  0  0  0  0
    9.3377  -13.3633   20.9837 O   0  0  0  0  0  0  0  0  0  0  0  0
    7.5305  -14.3912   21.9411 N   0  0  0  0  0  0  0  0  0  0  0  0
    7.9227  -14.0745   23.3227 C   0  0  1  0  0  0  0  0  0  0  0  0
    6.6858  -13.8516   24.1193 C   0  0  0  0  0  0  0  0  0  0  0  0
    6.8745  -13.2013   25.4275 C   0  0  0  0  0  0  0  0  0  0  0  0
    7.7209  -13.7331   26.3681 C   0  0  0  0  0  0  0  0  0  0  0  0
    7.9164  -13.1430   27.6154 C   0  0  0  0  0  0  0  0  0  0  0  0
    7.2469  -11.9872   27.9326 C   0  0  0  0  0  0  0  0  0  0  0  0
    6.3924  -11.4343   27.0054 C   0  0  0  0  0  0  0  0  0  0  0  0
    6.2121  -12.0355   25.7733 C   0  0  0  0  0  0  0  0  0  0  0  0
    8.8652  -15.0711   23.8247 C   0  0  0  0  0  0  0  0  0  0  0  0
    9.2361  -15.0004   25.0492 O   0  0  0  0  0  0  0  0  0  0  0  0
    9.4247  -16.1416   23.0741 N   0  0  0  0  0  0  0  0  0  0  0  0
   10.3241  -17.1436   23.6594 C   0  0  1  0  0  0  0  0  0  0  0  0
   11.5432  -17.2313   22.7771 C   0  0  0  0  0  0  0  0  0  0  0  0
   11.1903  -17.4192   21.3681 C   0  0  0  0  0  0  0  0  0  0  0  0
   10.3064  -18.2269   21.0075 O   0  0  0  0  0  0  0  0  0  0  0  0
   10.7215  -16.7924   25.0471 C   0  0  0  0  0  0  0  0  0  0  0  0
   11.6111  -17.6279   25.6930 O   0  0  0  0  0  0  0  0  0  0  0  0
   11.8327  -16.6971   20.3592 O   0  0  0  0  0  0  0  0  0  0  0  0
   10.2866  -15.7869   25.6373 O   0  0  0  0  0  0  0  0  0  0  0  0
  2  1  1  0
  3  5  1  0
  3  2  1  0
  3  4  1  6
  5  7  1  0
  6  5  2  0
  7  8  1  0
  8  9  1  1
  9 10  1  0
 10 11  2  0
 11 12  1  0
 13 12  2  0
 14 13  1  0
 15 10  1  0
 15 14  2  0
 16 17  2  0
 16  8  1  0
 18 16  1  0
 19 23  1  0
 19 18  1  0
 19 20  1  6
 21 22  2  0
 21 20  1  0
 23 24  1  0
 25 21  1  0
 26 23  2  0
M  END
$$$$
