SFD.pdb
     RDKit          3D

 26 26  0  0  1  0  0  0  0  0999 V2000
    9.9406  -18.7599   21.0095 O   0  0  0  0  0  0  0  0  0  0  0  0
    8.9930  -18.0045   20.3413 C   0  0  0  0  0  0  0  0  0  0  0  0
    9.4713  -16.5794   20.1696 C   0  0  2  0  0  0  0  0  0  0  0  0
   10.7399  -16.5404   19.5067 N   0  0  0  0  0  0  0  0  0  0  0  0
    9.6181  -15.9504   21.5078 C   0  0  0  0  0  0  0  0  0  0  0  0
   10.7603  -15.7619   22.0074 O   0  0  0  0  0  0  0  0  0  0  0  0
    8.4958  -15.5453   22.2607 N   0  0  0  0  0  0  0  0  0  0  0  0
    8.5844  -14.9201   23.5890 C   0  0  1  0  0  0  0  0  0  0  0  0
    7.3372  -14.1428   23.8228 C   0  0  0  0  0  0  0  0  0  0  0  0
    7.2469  -13.4511   25.1203 C   0  0  0  0  0  0  0  0  0  0  0  0
    6.3667  -13.8695   26.0868 C   0  0  0  0  0  0  0  0  0  0  0  0
    6.2557  -13.2329   27.3216 C   0  0  0  0  0  0  0  0  0  0  0  0
    7.0475  -12.1464   27.5995 C   0  0  0  0  0  0  0  0  0  0  0  0
    7.9385  -11.7079   26.6458 C   0  0  0  0  0  0  0  0  0  0  0  0
    8.0333  -12.3533   25.4265 C   0  0  0  0  0  0  0  0  0  0  0  0
    8.9453  -15.9148   24.5959 C   0  0  0  0  0  0  0  0  0  0  0  0
    8.2203  -16.9657   24.7053 O   0  0  0  0  0  0  0  0  0  0  0  0
   10.0500  -15.8349   25.4878 N   0  0  0  0  0  0  0  0  0  0  0  0
   10.3425  -16.8653   26.4921 C   0  0  1  0  0  0  0  0  0  0  0  0
   11.8056  -17.2100   26.3774 C   0  0  0  0  0  0  0  0  0  0  0  0
   12.1012  -17.9533   25.1506 C   0  0  0  0  0  0  0  0  0  0  0  0
   11.2358  -18.6424   24.5674 O   0  0  0  0  0  0  0  0  0  0  0  0
   10.0324  -16.4040   27.8697 C   0  0  0  0  0  0  0  0  0  0  0  0
   10.1358  -17.3232   28.8950 O   0  0  0  0  0  0  0  0  0  0  0  0
   13.3743  -17.9230   24.5757 O   0  0  0  0  0  0  0  0  0  0  0  0
    9.6881  -15.2361   28.1266 O   0  0  0  0  0  0  0  0  0  0  0  0
  2  1  1  0
  3  5  1  0
  3  2  1  0
  3  4  1  1
  5  7  1  0
  6  5  2  0
  7  8  1  0
  8  9  1  1
  9 10  1  0
 10 11  2  0
 11 12  1  0
 13 12  2  0
 14 13  1  0
 15 10  1  0
 15 14  2  0
 16 17  2  0
 16  8  1  0
 18 16  1  0
 19 23  1  0
 19 18  1  0
 19 20  1  1
 21 22  2  0
 21 20  1  0
 23 24  1  0
 25 21  1  0
 26 23  2  0
M  END
$$$$
