SFD.pdb
     RDKit          3D

 26 26  0  0  1  0  0  0  0  0999 V2000
    9.1985  -18.6305   20.6036 O   0  0  0  0  0  0  0  0  0  0  0  0
    8.2473  -17.8351   19.9892 C   0  0  0  0  0  0  0  0  0  0  0  0
    8.7880  -16.4415   19.7550 C   0  0  2  0  0  0  0  0  0  0  0  0
   10.0172  -16.4847   19.0218 N   0  0  0  0  0  0  0  0  0  0  0  0
    9.0430  -15.7913   21.0665 C   0  0  0  0  0  0  0  0  0  0  0  0
   10.2212  -15.6291   21.4851 O   0  0  0  0  0  0  0  0  0  0  0  0
    7.9863  -15.3362   21.8832 N   0  0  0  0  0  0  0  0  0  0  0  0
    8.1811  -14.7118   23.2004 C   0  0  1  0  0  0  0  0  0  0  0  0
    6.9329  -13.9871   23.5624 C   0  0  0  0  0  0  0  0  0  0  0  0
    6.9269  -13.3432   24.8873 C   0  0  0  0  0  0  0  0  0  0  0  0
    6.0638  -13.7553   25.8718 C   0  0  0  0  0  0  0  0  0  0  0  0
    6.0321  -13.1629   27.1329 C   0  0  0  0  0  0  0  0  0  0  0  0
    6.8879  -12.1284   27.4193 C   0  0  0  0  0  0  0  0  0  0  0  0
    7.7633  -11.6973   26.4480 C   0  0  0  0  0  0  0  0  0  0  0  0
    7.7790  -12.2984   25.2028 C   0  0  0  0  0  0  0  0  0  0  0  0
    8.6807  -15.6936   24.1595 C   0  0  0  0  0  0  0  0  0  0  0  0
    8.0493  -16.8015   24.2862 O   0  0  0  0  0  0  0  0  0  0  0  0
    9.8281  -15.5425   24.9859 N   0  0  0  0  0  0  0  0  0  0  0  0
   10.3097  -16.5981   25.8855 C   0  0  1  0  0  0  0  0  0  0  0  0
   11.7991  -16.7206   25.6869 C   0  0  0  0  0  0  0  0  0  0  0  0
   12.1766  -18.0291   25.1481 C   0  0  0  0  0  0  0  0  0  0  0  0
   11.3285  -18.9131   24.8970 O   0  0  0  0  0  0  0  0  0  0  0  0
   10.0066  -16.2982   27.3086 C   0  0  0  0  0  0  0  0  0  0  0  0
    9.9168  -17.3610   28.1855 O   0  0  0  0  0  0  0  0  0  0  0  0
   13.5124  -18.3467   24.8899 O   0  0  0  0  0  0  0  0  0  0  0  0
    9.8337  -15.1402   27.7299 O   0  0  0  0  0  0  0  0  0  0  0  0
  2  1  1  0
  3  5  1  0
  3  2  1  0
  3  4  1  6
  5  7  1  0
  6  5  2  0
  7  8  1  0
  8  9  1  1
  9 10  1  0
 10 11  2  0
 11 12  1  0
 13 12  2  0
 14 13  1  0
 15 10  1  0
 15 14  2  0
 16 17  2  0
 16  8  1  0
 18 16  1  0
 19 23  1  0
 19 18  1  0
 19 20  1  1
 21 22  2  0
 21 20  1  0
 23 24  1  0
 25 21  1  0
 26 23  2  0
M  END
$$$$
