SFD.pdb
     RDKit          3D

 26 26  0  0  1  0  0  0  0  0999 V2000
   10.4243  -18.6939   20.4825 O   0  0  0  0  0  0  0  0  0  0  0  0
    9.1051  -18.4421   20.1486 C   0  0  0  0  0  0  0  0  0  0  0  0
    8.9292  -17.0020   19.7192 C   0  0  2  0  0  0  0  0  0  0  0  0
    9.8762  -16.6499   18.7046 N   0  0  0  0  0  0  0  0  0  0  0  0
    9.1417  -16.1147   20.8920 C   0  0  0  0  0  0  0  0  0  0  0  0
   10.2256  -15.4864   21.0345 O   0  0  0  0  0  0  0  0  0  0  0  0
    8.1482  -15.9446   21.8793 N   0  0  0  0  0  0  0  0  0  0  0  0
    8.3402  -15.1556   23.1054 C   0  0  1  0  0  0  0  0  0  0  0  0
    7.0535  -14.4844   23.4346 C   0  0  0  0  0  0  0  0  0  0  0  0
    7.0291  -13.7309   24.7001 C   0  0  0  0  0  0  0  0  0  0  0  0
    7.5538  -12.4651   24.7817 C   0  0  0  0  0  0  0  0  0  0  0  0
    7.5489  -11.7298   25.9655 C   0  0  0  0  0  0  0  0  0  0  0  0
    7.0037  -12.2746   27.1016 C   0  0  0  0  0  0  0  0  0  0  0  0
    6.4710  -13.5430   27.0448 C   0  0  0  0  0  0  0  0  0  0  0  0
    6.4857  -14.2563   25.8602 C   0  0  0  0  0  0  0  0  0  0  0  0
    8.9460  -15.9780   24.1495 C   0  0  0  0  0  0  0  0  0  0  0  0
    8.4094  -17.1082   24.4267 O   0  0  0  0  0  0  0  0  0  0  0  0
   10.1027  -15.6449   24.9066 N   0  0  0  0  0  0  0  0  0  0  0  0
   10.6581  -16.5218   25.9451 C   0  0  1  0  0  0  0  0  0  0  0  0
   12.1544  -16.3382   25.9431 C   0  0  0  0  0  0  0  0  0  0  0  0
   12.7388  -16.5981   24.6255 C   0  0  0  0  0  0  0  0  0  0  0  0
   12.3727  -17.5600   23.9152 O   0  0  0  0  0  0  0  0  0  0  0  0
   10.1067  -16.2116   27.2892 C   0  0  0  0  0  0  0  0  0  0  0  0
   10.4820  -17.0226   28.3419 O   0  0  0  0  0  0  0  0  0  0  0  0
   13.7390  -15.7744   24.1029 O   0  0  0  0  0  0  0  0  0  0  0  0
    9.3306  -15.2609   27.4949 O   0  0  0  0  0  0  0  0  0  0  0  0
  2  1  1  0
  3  5  1  0
  3  2  1  0
  3  4  1  6
  5  7  1  0
  6  5  2  0
  7  8  1  0
  8  9  1  1
  9 10  1  0
 10 11  2  0
 11 12  1  0
 13 12  2  0
 14 13  1  0
 15 10  1  0
 15 14  2  0
 16 17  2  0
 16  8  1  0
 18 16  1  0
 19 23  1  0
 19 18  1  0
 19 20  1  1
 21 22  2  0
 21 20  1  0
 23 24  1  0
 25 21  1  0
 26 23  2  0
M  END
$$$$
