SFD.pdb
     RDKit          3D

 26 26  0  0  1  0  0  0  0  0999 V2000
   10.0499  -18.5261   21.4719 O   0  0  0  0  0  0  0  0  0  0  0  0
    8.7871  -18.5866   20.9090 C   0  0  0  0  0  0  0  0  0  0  0  0
    8.4169  -17.2585   20.2858 C   0  0  2  0  0  0  0  0  0  0  0  0
    9.1860  -17.0148   19.1029 N   0  0  0  0  0  0  0  0  0  0  0  0
    8.6907  -16.1703   21.2598 C   0  0  0  0  0  0  0  0  0  0  0  0
    9.6621  -15.3846   21.0893 O   0  0  0  0  0  0  0  0  0  0  0  0
    7.8818  -15.9784   22.3998 N   0  0  0  0  0  0  0  0  0  0  0  0
    8.1312  -14.9439   23.4149 C   0  0  1  0  0  0  0  0  0  0  0  0
    6.8372  -14.6121   24.0706 C   0  0  0  0  0  0  0  0  0  0  0  0
    6.8873  -13.5433   25.0830 C   0  0  0  0  0  0  0  0  0  0  0  0
    7.1934  -13.8206   26.3920 C   0  0  0  0  0  0  0  0  0  0  0  0
    7.2442  -12.8315   27.3726 C   0  0  0  0  0  0  0  0  0  0  0  0
    6.9815  -11.5268   27.0358 C   0  0  0  0  0  0  0  0  0  0  0  0
    6.6721  -11.2236   25.7289 C   0  0  0  0  0  0  0  0  0  0  0  0
    6.6268  -12.2197   24.7708 C   0  0  0  0  0  0  0  0  0  0  0  0
    9.2340  -15.3419   24.2860 C   0  0  0  0  0  0  0  0  0  0  0  0
    9.6578  -14.5044   25.1584 O   0  0  0  0  0  0  0  0  0  0  0  0
    9.9001  -16.5982   24.2662 N   0  0  0  0  0  0  0  0  0  0  0  0
   11.0064  -16.9307   25.1725 C   0  0  1  0  0  0  0  0  0  0  0  0
   10.9081  -18.4011   25.4899 C   0  0  0  0  0  0  0  0  0  0  0  0
   10.3720  -18.6396   26.8318 C   0  0  0  0  0  0  0  0  0  0  0  0
   10.0884  -17.7022   27.6094 O   0  0  0  0  0  0  0  0  0  0  0  0
   12.3299  -16.6247   24.5713 C   0  0  0  0  0  0  0  0  0  0  0  0
   12.3799  -16.3855   23.2122 O   0  0  0  0  0  0  0  0  0  0  0  0
   10.1533  -19.9366   27.3031 O   0  0  0  0  0  0  0  0  0  0  0  0
   13.3780  -16.5775   25.2404 O   0  0  0  0  0  0  0  0  0  0  0  0
  2  1  1  0
  3  5  1  0
  3  2  1  0
  3  4  1  6
  5  7  1  0
  6  5  2  0
  7  8  1  0
  8  9  1  1
  9 10  1  0
 10 11  2  0
 11 12  1  0
 13 12  2  0
 14 13  1  0
 15 10  1  0
 15 14  2  0
 16 17  2  0
 16  8  1  0
 18 16  1  0
 19 23  1  0
 19 18  1  0
 19 20  1  6
 21 22  2  0
 21 20  1  0
 23 24  1  0
 25 21  1  0
 26 23  2  0
M  END
$$$$
