SFD.pdb
     RDKit          3D

 26 26  0  0  1  0  0  0  0  0999 V2000
    9.3090  -18.6361   20.4100 O   0  0  0  0  0  0  0  0  0  0  0  0
    8.0892  -18.0951   20.0435 C   0  0  0  0  0  0  0  0  0  0  0  0
    8.2476  -16.6444   19.6438 C   0  0  2  0  0  0  0  0  0  0  0  0
    9.2730  -16.4937   18.6557 N   0  0  0  0  0  0  0  0  0  0  0  0
    8.6239  -15.8479   20.8403 C   0  0  0  0  0  0  0  0  0  0  0  0
    9.7876  -15.3770   20.9589 O   0  0  0  0  0  0  0  0  0  0  0  0
    7.7020  -15.5920   21.8773 N   0  0  0  0  0  0  0  0  0  0  0  0
    8.0392  -14.8654   23.1107 C   0  0  1  0  0  0  0  0  0  0  0  0
    6.7963  -14.2400   23.6383 C   0  0  0  0  0  0  0  0  0  0  0  0
    6.9243  -13.5564   24.9368 C   0  0  0  0  0  0  0  0  0  0  0  0
    6.2924  -14.0373   26.0564 C   0  0  0  0  0  0  0  0  0  0  0  0
    6.3913  -13.4101   27.2971 C   0  0  0  0  0  0  0  0  0  0  0  0
    7.1438  -12.2688   27.4233 C   0  0  0  0  0  0  0  0  0  0  0  0
    7.7874  -11.7671   26.3144 C   0  0  0  0  0  0  0  0  0  0  0  0
    7.6765  -12.4043   25.0922 C   0  0  0  0  0  0  0  0  0  0  0  0
    8.7860  -15.7293   24.0214 C   0  0  0  0  0  0  0  0  0  0  0  0
    8.3107  -16.8877   24.2939 O   0  0  0  0  0  0  0  0  0  0  0  0
   10.0206  -15.4085   24.6500 N   0  0  0  0  0  0  0  0  0  0  0  0
   10.7535  -16.3540   25.5013 C   0  0  1  0  0  0  0  0  0  0  0  0
   12.1991  -15.9268   25.5157 C   0  0  0  0  0  0  0  0  0  0  0  0
   13.1028  -17.0321   25.1892 C   0  0  0  0  0  0  0  0  0  0  0  0
   13.0482  -18.1314   25.7827 O   0  0  0  0  0  0  0  0  0  0  0  0
   10.2166  -16.3883   26.8860 C   0  0  0  0  0  0  0  0  0  0  0  0
   10.1813  -17.6078   27.5327 O   0  0  0  0  0  0  0  0  0  0  0  0
   14.0724  -16.9027   24.1916 O   0  0  0  0  0  0  0  0  0  0  0  0
    9.8043  -15.3715   27.4730 O   0  0  0  0  0  0  0  0  0  0  0  0
  2  1  1  0
  3  5  1  0
  3  2  1  0
  3  4  1  6
  5  7  1  0
  6  5  2  0
  7  8  1  0
  8  9  1  1
  9 10  1  0
 10 11  2  0
 11 12  1  0
 13 12  2  0
 14 13  1  0
 15 10  1  0
 15 14  2  0
 16 17  2  0
 16  8  1  0
 18 16  1  0
 19 23  1  0
 19 18  1  0
 19 20  1  1
 21 22  2  0
 21 20  1  0
 23 24  1  0
 25 21  1  0
 26 23  2  0
M  END
$$$$
