SFD.pdb
     RDKit          3D

 26 26  0  0  1  0  0  0  0  0999 V2000
    9.7775  -18.9828   20.3683 O   0  0  0  0  0  0  0  0  0  0  0  0
    8.5168  -18.5095   20.0496 C   0  0  0  0  0  0  0  0  0  0  0  0
    8.5777  -17.0480   19.6631 C   0  0  2  0  0  0  0  0  0  0  0  0
    9.5839  -16.8216   18.6697 N   0  0  0  0  0  0  0  0  0  0  0  0
    8.9103  -16.2399   20.8649 C   0  0  0  0  0  0  0  0  0  0  0  0
   10.0924  -15.8534   21.0725 O   0  0  0  0  0  0  0  0  0  0  0  0
    7.9251  -15.8793   21.8084 N   0  0  0  0  0  0  0  0  0  0  0  0
    8.2121  -15.1484   23.0519 C   0  0  1  0  0  0  0  0  0  0  0  0
    6.9736  -14.4389   23.4725 C   0  0  0  0  0  0  0  0  0  0  0  0
    7.0506  -13.7216   24.7568 C   0  0  0  0  0  0  0  0  0  0  0  0
    7.5617  -12.4497   24.8288 C   0  0  0  0  0  0  0  0  0  0  0  0
    7.6512  -11.7480   26.0296 C   0  0  0  0  0  0  0  0  0  0  0  0
    7.2173  -12.3337   27.1929 C   0  0  0  0  0  0  0  0  0  0  0  0
    6.7004  -13.6091   27.1462 C   0  0  0  0  0  0  0  0  0  0  0  0
    6.6203  -14.2886   25.9445 C   0  0  0  0  0  0  0  0  0  0  0  0
    8.8338  -16.0360   24.0312 C   0  0  0  0  0  0  0  0  0  0  0  0
    8.3374  -17.2053   24.1993 O   0  0  0  0  0  0  0  0  0  0  0  0
    9.9654  -15.7276   24.8354 N   0  0  0  0  0  0  0  0  0  0  0  0
   10.6975  -16.7398   25.6068 C   0  0  1  0  0  0  0  0  0  0  0  0
   12.1697  -16.4599   25.4428 C   0  0  0  0  0  0  0  0  0  0  0  0
   12.9987  -17.4625   26.1155 C   0  0  0  0  0  0  0  0  0  0  0  0
   12.9580  -17.6349   27.3534 O   0  0  0  0  0  0  0  0  0  0  0  0
   10.3299  -16.7168   27.0460 C   0  0  0  0  0  0  0  0  0  0  0  0
    9.5272  -15.6842   27.4889 O   0  0  0  0  0  0  0  0  0  0  0  0
   13.8777  -18.2753   25.3952 O   0  0  0  0  0  0  0  0  0  0  0  0
   10.7148  -17.5827   27.8525 O   0  0  0  0  0  0  0  0  0  0  0  0
  2  1  1  0
  3  5  1  0
  3  2  1  0
  3  4  1  6
  5  7  1  0
  6  5  2  0
  7  8  1  0
  8  9  1  1
  9 10  1  0
 10 11  2  0
 11 12  1  0
 13 12  2  0
 14 13  1  0
 15 10  1  0
 15 14  2  0
 16 17  2  0
 16  8  1  0
 18 16  1  0
 19 23  1  0
 19 18  1  0
 19 20  1  1
 21 22  2  0
 21 20  1  0
 23 24  1  0
 25 21  1  0
 26 23  2  0
M  END
$$$$
