SFD.pdb
     RDKit          3D

 26 26  0  0  1  0  0  0  0  0999 V2000
    8.2636  -18.3627   19.8021 O   0  0  0  0  0  0  0  0  0  0  0  0
    7.1447  -17.6826   19.3540 C   0  0  0  0  0  0  0  0  0  0  0  0
    7.4609  -16.2186   19.1395 C   0  0  2  0  0  0  0  0  0  0  0  0
    8.4169  -16.0490   18.0870 N   0  0  0  0  0  0  0  0  0  0  0  0
    8.0309  -15.6552   20.3907 C   0  0  0  0  0  0  0  0  0  0  0  0
    9.2789  -15.5565   20.5408 O   0  0  0  0  0  0  0  0  0  0  0  0
    7.2046  -15.2143   21.4460 N   0  0  0  0  0  0  0  0  0  0  0  0
    7.7144  -14.6134   22.6877 C   0  0  1  0  0  0  0  0  0  0  0  0
    6.5875  -13.9178   23.3663 C   0  0  0  0  0  0  0  0  0  0  0  0
    6.9032  -13.3053   24.6682 C   0  0  0  0  0  0  0  0  0  0  0  0
    6.4813  -13.8781   25.8421 C   0  0  0  0  0  0  0  0  0  0  0  0
    6.7609  -13.3198   27.0880 C   0  0  0  0  0  0  0  0  0  0  0  0
    7.4834  -12.1550   27.1639 C   0  0  0  0  0  0  0  0  0  0  0  0
    7.9179  -11.5615   26.0000 C   0  0  0  0  0  0  0  0  0  0  0  0
    7.6299  -12.1314   24.7735 C   0  0  0  0  0  0  0  0  0  0  0  0
    8.4486  -15.6058   23.4685 C   0  0  0  0  0  0  0  0  0  0  0  0
    7.9851  -16.7986   23.5331 O   0  0  0  0  0  0  0  0  0  0  0  0
    9.6587  -15.3775   24.1798 N   0  0  0  0  0  0  0  0  0  0  0  0
   10.4591  -16.4610   24.7637 C   0  0  1  0  0  0  0  0  0  0  0  0
   11.8941  -16.2343   24.3612 C   0  0  0  0  0  0  0  0  0  0  0  0
   12.7832  -17.2737   24.8849 C   0  0  0  0  0  0  0  0  0  0  0  0
   12.4325  -18.4718   24.9581 O   0  0  0  0  0  0  0  0  0  0  0  0
   10.3438  -16.5029   26.2442 C   0  0  0  0  0  0  0  0  0  0  0  0
   10.5193  -17.7215   26.8694 O   0  0  0  0  0  0  0  0  0  0  0  0
   14.0720  -16.9667   25.3283 O   0  0  0  0  0  0  0  0  0  0  0  0
   10.0984  -15.4931   26.9287 O   0  0  0  0  0  0  0  0  0  0  0  0
  2  1  1  0
  3  5  1  0
  3  2  1  0
  3  4  1  6
  5  7  1  0
  6  5  2  0
  7  8  1  0
  8  9  1  1
  9 10  1  0
 10 11  2  0
 11 12  1  0
 13 12  2  0
 14 13  1  0
 15 10  1  0
 15 14  2  0
 16 17  2  0
 16  8  1  0
 18 16  1  0
 19 23  1  0
 19 18  1  0
 19 20  1  1
 21 22  2  0
 21 20  1  0
 23 24  1  0
 25 21  1  0
 26 23  2  0
M  END
$$$$
