SFD.pdb
     RDKit          3D

 26 26  0  0  1  0  0  0  0  0999 V2000
    8.5050  -18.4516   20.3967 O   0  0  0  0  0  0  0  0  0  0  0  0
    7.7846  -17.4843   19.7181 C   0  0  0  0  0  0  0  0  0  0  0  0
    8.5756  -16.1978   19.6247 C   0  0  2  0  0  0  0  0  0  0  0  0
    9.8167  -16.4071   18.9421 N   0  0  0  0  0  0  0  0  0  0  0  0
    8.8678  -15.7052   20.9958 C   0  0  0  0  0  0  0  0  0  0  0  0
   10.0333  -15.7806   21.4709 O   0  0  0  0  0  0  0  0  0  0  0  0
    7.8616  -15.1408   21.8080 N   0  0  0  0  0  0  0  0  0  0  0  0
    8.0972  -14.6336   23.1682 C   0  0  1  0  0  0  0  0  0  0  0  0
    6.9353  -13.7904   23.5595 C   0  0  0  0  0  0  0  0  0  0  0  0
    6.9532  -13.2752   24.9394 C   0  0  0  0  0  0  0  0  0  0  0  0
    7.7677  -12.2292   25.2951 C   0  0  0  0  0  0  0  0  0  0  0  0
    7.8093  -11.7232   26.5930 C   0  0  0  0  0  0  0  0  0  0  0  0
    7.0138  -12.2782   27.5645 C   0  0  0  0  0  0  0  0  0  0  0  0
    6.1879  -13.3285   27.2320 C   0  0  0  0  0  0  0  0  0  0  0  0
    6.1614  -13.8161   25.9383 C   0  0  0  0  0  0  0  0  0  0  0  0
    8.4536  -15.7302   24.0649 C   0  0  0  0  0  0  0  0  0  0  0  0
    7.7437  -16.7967   24.0397 O   0  0  0  0  0  0  0  0  0  0  0  0
    9.5385  -15.7359   24.9843 N   0  0  0  0  0  0  0  0  0  0  0  0
    9.9421  -16.9303   25.7369 C   0  0  1  0  0  0  0  0  0  0  0  0
   11.1977  -17.4675   25.0985 C   0  0  0  0  0  0  0  0  0  0  0  0
   11.7280  -18.6275   25.8182 C   0  0  0  0  0  0  0  0  0  0  0  0
   10.9852  -19.4218   26.4356 O   0  0  0  0  0  0  0  0  0  0  0  0
   10.1862  -16.6289   27.1709 C   0  0  0  0  0  0  0  0  0  0  0  0
   10.2291  -17.6899   28.0535 O   0  0  0  0  0  0  0  0  0  0  0  0
   13.0986  -18.8972   25.8450 O   0  0  0  0  0  0  0  0  0  0  0  0
   10.3507  -15.4711   27.5964 O   0  0  0  0  0  0  0  0  0  0  0  0
  2  1  1  0
  3  5  1  0
  3  2  1  0
  3  4  1  1
  5  7  1  0
  6  5  2  0
  7  8  1  0
  8  9  1  1
  9 10  1  0
 10 11  2  0
 11 12  1  0
 13 12  2  0
 14 13  1  0
 15 10  1  0
 15 14  2  0
 16 17  2  0
 16  8  1  0
 18 16  1  0
 19 23  1  0
 19 18  1  0
 19 20  1  6
 21 22  2  0
 21 20  1  0
 23 24  1  0
 25 21  1  0
 26 23  2  0
M  END
$$$$
