SFD.pdb
     RDKit          3D

 26 26  0  0  1  0  0  0  0  0999 V2000
   10.1425  -18.6614   20.8007 O   0  0  0  0  0  0  0  0  0  0  0  0
    8.8051  -18.3719   20.5946 C   0  0  0  0  0  0  0  0  0  0  0  0
    8.6191  -16.9031   20.2830 C   0  0  2  0  0  0  0  0  0  0  0  0
    9.4834  -16.4911   19.2183 N   0  0  0  0  0  0  0  0  0  0  0  0
    8.9452  -16.1037   21.4923 C   0  0  0  0  0  0  0  0  0  0  0  0
   10.0867  -15.5865   21.6322 O   0  0  0  0  0  0  0  0  0  0  0  0
    7.9989  -15.8962   22.5180 N   0  0  0  0  0  0  0  0  0  0  0  0
    8.2753  -15.1314   23.7434 C   0  0  1  0  0  0  0  0  0  0  0  0
    6.9808  -14.6410   24.2893 C   0  0  0  0  0  0  0  0  0  0  0  0
    7.0695  -13.8201   25.5091 C   0  0  0  0  0  0  0  0  0  0  0  0
    7.0808  -12.4491   25.4417 C   0  0  0  0  0  0  0  0  0  0  0  0
    7.1681  -11.6465   26.5777 C   0  0  0  0  0  0  0  0  0  0  0  0
    7.2462  -12.2302   27.8178 C   0  0  0  0  0  0  0  0  0  0  0  0
    7.2365  -13.6039   27.9112 C   0  0  0  0  0  0  0  0  0  0  0  0
    7.1493  -14.3826   26.7718 C   0  0  0  0  0  0  0  0  0  0  0  0
    9.1254  -15.9051   24.6446 C   0  0  0  0  0  0  0  0  0  0  0  0
    8.8150  -17.1256   24.8814 O   0  0  0  0  0  0  0  0  0  0  0  0
   10.2945  -15.4303   25.3003 N   0  0  0  0  0  0  0  0  0  0  0  0
   11.1217  -16.2751   26.1707 C   0  0  1  0  0  0  0  0  0  0  0  0
   12.5421  -15.7808   26.0682 C   0  0  0  0  0  0  0  0  0  0  0  0
   13.1679  -16.1640   24.8007 C   0  0  0  0  0  0  0  0  0  0  0  0
   12.5899  -16.8997   23.9710 O   0  0  0  0  0  0  0  0  0  0  0  0
   10.6662  -16.2326   27.5841 C   0  0  0  0  0  0  0  0  0  0  0  0
   11.2811  -17.0799   28.4845 O   0  0  0  0  0  0  0  0  0  0  0  0
   14.4487  -15.7194   24.4631 O   0  0  0  0  0  0  0  0  0  0  0  0
    9.7639  -15.4712   27.9775 O   0  0  0  0  0  0  0  0  0  0  0  0
  2  1  1  0
  3  5  1  0
  3  2  1  0
  3  4  1  6
  5  7  1  0
  6  5  2  0
  7  8  1  0
  8  9  1  1
  9 10  1  0
 10 11  2  0
 11 12  1  0
 13 12  2  0
 14 13  1  0
 15 10  1  0
 15 14  2  0
 16 17  2  0
 16  8  1  0
 18 16  1  0
 19 23  1  0
 19 18  1  0
 19 20  1  1
 21 22  2  0
 21 20  1  0
 23 24  1  0
 25 21  1  0
 26 23  2  0
M  END
$$$$
