SFD.pdb
     RDKit          3D

 26 26  0  0  1  0  0  0  0  0999 V2000
   10.4488  -18.8329   21.2210 O   0  0  0  0  0  0  0  0  0  0  0  0
    9.1289  -18.5884   20.8847 C   0  0  0  0  0  0  0  0  0  0  0  0
    8.9516  -17.1573   20.4265 C   0  0  2  0  0  0  0  0  0  0  0  0
    9.8744  -16.8358   19.3798 N   0  0  0  0  0  0  0  0  0  0  0  0
    9.2004  -16.2447   21.5724 C   0  0  0  0  0  0  0  0  0  0  0  0
   10.2925  -15.6226   21.6730 O   0  0  0  0  0  0  0  0  0  0  0  0
    8.2332  -16.0431   22.5796 N   0  0  0  0  0  0  0  0  0  0  0  0
    8.4444  -15.1870   23.7567 C   0  0  1  0  0  0  0  0  0  0  0  0
    7.1279  -14.6313   24.1717 C   0  0  0  0  0  0  0  0  0  0  0  0
    7.1436  -13.7705   25.3669 C   0  0  0  0  0  0  0  0  0  0  0  0
    7.0453  -14.3055   26.6271 C   0  0  0  0  0  0  0  0  0  0  0  0
    7.0531  -13.5165   27.7759 C   0  0  0  0  0  0  0  0  0  0  0  0
    7.1623  -12.1527   27.6627 C   0  0  0  0  0  0  0  0  0  0  0  0
    7.2623  -11.5924   26.4090 C   0  0  0  0  0  0  0  0  0  0  0  0
    7.2527  -12.3928   25.2815 C   0  0  0  0  0  0  0  0  0  0  0  0
    9.2138  -15.9006   24.7727 C   0  0  0  0  0  0  0  0  0  0  0  0
    8.8557  -17.0897   25.0885 O   0  0  0  0  0  0  0  0  0  0  0  0
   10.3513  -15.3980   25.4624 N   0  0  0  0  0  0  0  0  0  0  0  0
   11.1262  -16.2005   26.4171 C   0  0  1  0  0  0  0  0  0  0  0  0
   12.5709  -15.7892   26.2899 C   0  0  0  0  0  0  0  0  0  0  0  0
   13.1961  -16.3410   25.0858 C   0  0  0  0  0  0  0  0  0  0  0  0
   12.5778  -17.0956   24.3035 O   0  0  0  0  0  0  0  0  0  0  0  0
   10.6605  -16.0067   27.8144 C   0  0  0  0  0  0  0  0  0  0  0  0
   11.1287  -16.8801   28.7760 O   0  0  0  0  0  0  0  0  0  0  0  0
   14.5215  -16.0442   24.7585 O   0  0  0  0  0  0  0  0  0  0  0  0
    9.8755  -15.0984   28.1420 O   0  0  0  0  0  0  0  0  0  0  0  0
  2  1  1  0
  3  5  1  0
  3  2  1  0
  3  4  1  6
  5  7  1  0
  6  5  2  0
  7  8  1  0
  8  9  1  1
  9 10  1  0
 10 11  2  0
 11 12  1  0
 13 12  2  0
 14 13  1  0
 15 10  1  0
 15 14  2  0
 16 17  2  0
 16  8  1  0
 18 16  1  0
 19 23  1  0
 19 18  1  0
 19 20  1  1
 21 22  2  0
 21 20  1  0
 23 24  1  0
 25 21  1  0
 26 23  2  0
M  END
$$$$
