SFD.pdb
     RDKit          3D

 26 26  0  0  1  0  0  0  0  0999 V2000
    9.3755  -18.6285   20.9094 O   0  0  0  0  0  0  0  0  0  0  0  0
    8.6916  -17.7924   20.0444 C   0  0  0  0  0  0  0  0  0  0  0  0
    9.3530  -16.4330   19.9821 C   0  0  2  0  0  0  0  0  0  0  0  0
   10.6776  -16.5311   19.4473 N   0  0  0  0  0  0  0  0  0  0  0  0
    9.4381  -15.8696   21.3544 C   0  0  0  0  0  0  0  0  0  0  0  0
   10.5219  -15.9060   21.9979 O   0  0  0  0  0  0  0  0  0  0  0  0
    8.3205  -15.2792   21.9812 N   0  0  0  0  0  0  0  0  0  0  0  0
    8.3495  -14.7083   23.3362 C   0  0  1  0  0  0  0  0  0  0  0  0
    7.2202  -13.7474   23.4620 C   0  0  0  0  0  0  0  0  0  0  0  0
    7.0279  -13.1557   24.7971 C   0  0  0  0  0  0  0  0  0  0  0  0
    7.8385  -12.1437   25.2475 C   0  0  0  0  0  0  0  0  0  0  0  0
    7.6835  -11.5674   26.5069 C   0  0  0  0  0  0  0  0  0  0  0  0
    6.6893  -12.0148   27.3412 C   0  0  0  0  0  0  0  0  0  0  0  0
    5.8631  -13.0290   26.9118 C   0  0  0  0  0  0  0  0  0  0  0  0
    6.0334  -13.5877   25.6584 C   0  0  0  0  0  0  0  0  0  0  0  0
    8.4306  -15.7717   24.3342 C   0  0  0  0  0  0  0  0  0  0  0  0
    7.7355  -16.8332   24.1552 O   0  0  0  0  0  0  0  0  0  0  0  0
    9.2257  -15.7496   25.5130 N   0  0  0  0  0  0  0  0  0  0  0  0
    9.7351  -16.9670   26.1565 C   0  0  1  0  0  0  0  0  0  0  0  0
   10.8638  -17.4926   25.3065 C   0  0  0  0  0  0  0  0  0  0  0  0
   11.5170  -18.6533   25.9157 C   0  0  0  0  0  0  0  0  0  0  0  0
   11.1009  -19.1678   26.9768 O   0  0  0  0  0  0  0  0  0  0  0  0
   10.2138  -16.7077   27.5387 C   0  0  0  0  0  0  0  0  0  0  0  0
   10.1960  -15.4036   27.9922 O   0  0  0  0  0  0  0  0  0  0  0  0
   12.6426  -19.2391   25.3311 O   0  0  0  0  0  0  0  0  0  0  0  0
   10.6236  -17.6117   28.2893 O   0  0  0  0  0  0  0  0  0  0  0  0
  2  1  1  0
  3  5  1  0
  3  2  1  0
  3  4  1  1
  5  7  1  0
  6  5  2  0
  7  8  1  0
  8  9  1  1
  9 10  1  0
 10 11  2  0
 11 12  1  0
 13 12  2  0
 14 13  1  0
 15 10  1  0
 15 14  2  0
 16 17  2  0
 16  8  1  0
 18 16  1  0
 19 23  1  0
 19 18  1  0
 19 20  1  6
 21 22  2  0
 21 20  1  0
 23 24  1  0
 25 21  1  0
 26 23  2  0
M  END
$$$$
