SFD.pdb
     RDKit          3D

 26 26  0  0  1  0  0  0  0  0999 V2000
    9.4044  -18.6998   20.5806 O   0  0  0  0  0  0  0  0  0  0  0  0
    8.1734  -18.1646   20.2442 C   0  0  0  0  0  0  0  0  0  0  0  0
    8.2937  -16.6816   19.9693 C   0  0  2  0  0  0  0  0  0  0  0  0
    9.2753  -16.4252   18.9588 N   0  0  0  0  0  0  0  0  0  0  0  0
    8.7069  -15.9872   21.2162 C   0  0  0  0  0  0  0  0  0  0  0  0
    9.8968  -15.6004   21.3723 O   0  0  0  0  0  0  0  0  0  0  0  0
    7.7918  -15.7377   22.2608 N   0  0  0  0  0  0  0  0  0  0  0  0
    8.1332  -15.0058   23.4899 C   0  0  1  0  0  0  0  0  0  0  0  0
    6.8887  -14.3942   24.0297 C   0  0  0  0  0  0  0  0  0  0  0  0
    7.0437  -13.6134   25.2691 C   0  0  0  0  0  0  0  0  0  0  0  0
    7.3112  -14.2295   26.4662 C   0  0  0  0  0  0  0  0  0  0  0  0
    7.4588  -13.5180   27.6555 C   0  0  0  0  0  0  0  0  0  0  0  0
    7.3357  -12.1507   27.6490 C   0  0  0  0  0  0  0  0  0  0  0  0
    7.0677  -11.5098   26.4602 C   0  0  0  0  0  0  0  0  0  0  0  0
    6.9247  -12.2341   25.2909 C   0  0  0  0  0  0  0  0  0  0  0  0
    8.8993  -15.8599   24.3939 C   0  0  0  0  0  0  0  0  0  0  0  0
    8.3826  -16.9699   24.7719 O   0  0  0  0  0  0  0  0  0  0  0  0
   10.1953  -15.5792   24.9075 N   0  0  0  0  0  0  0  0  0  0  0  0
   10.9443  -16.5231   25.7465 C   0  0  1  0  0  0  0  0  0  0  0  0
   12.3835  -16.0747   25.7621 C   0  0  0  0  0  0  0  0  0  0  0  0
   13.0338  -16.2670   24.4640 C   0  0  0  0  0  0  0  0  0  0  0  0
   12.4881  -16.9034   23.5361 O   0  0  0  0  0  0  0  0  0  0  0  0
   10.4116  -16.5805   27.1320 C   0  0  0  0  0  0  0  0  0  0  0  0
    9.6271  -15.5296   27.5642 O   0  0  0  0  0  0  0  0  0  0  0  0
   14.3028  -15.7423   24.2062 O   0  0  0  0  0  0  0  0  0  0  0  0
   10.6448  -17.5286   27.9036 O   0  0  0  0  0  0  0  0  0  0  0  0
  2  1  1  0
  3  5  1  0
  3  2  1  0
  3  4  1  6
  5  7  1  0
  6  5  2  0
  7  8  1  0
  8  9  1  1
  9 10  1  0
 10 11  2  0
 11 12  1  0
 13 12  2  0
 14 13  1  0
 15 10  1  0
 15 14  2  0
 16 17  2  0
 16  8  1  0
 18 16  1  0
 19 23  1  0
 19 18  1  0
 19 20  1  1
 21 22  2  0
 21 20  1  0
 23 24  1  0
 25 21  1  0
 26 23  2  0
M  END
$$$$
