MCE.pdb
     RDKit          3D

 24 23  0  0  1  0  0  0  0  0999 V2000
   29.4516   -7.8438  -19.8923 C   0  0  0  0  0  0  0  0  0  0  0  0
   29.7532   -8.1291  -18.1636 S   0  0  0  0  0  0  0  0  0  0  0  0
   29.0047   -9.5207  -17.3997 C   0  0  0  0  0  0  0  0  0  0  0  0
   27.5332   -9.5628  -17.3935 C   0  0  0  0  0  0  0  0  0  0  0  0
   26.9100  -10.7163  -16.7186 C   0  0  2  0  0  0  0  0  0  0  0  0
   27.2275  -11.9905  -17.3580 N   0  0  0  0  0  0  0  0  0  0  0  0
   25.3927  -10.5783  -16.7506 C   0  0  0  0  0  0  0  0  0  0  0  0
   24.7978  -11.0158  -17.7365 O   0  0  0  0  0  0  0  0  0  0  0  0
   24.6615   -9.9748  -15.7033 N   0  0  0  0  0  0  0  0  0  0  0  0
   23.2238   -9.8739  -15.6891 C   0  0  1  0  0  0  0  0  0  0  0  0
   22.5841  -10.7920  -14.6808 C   0  0  0  0  0  0  0  0  0  0  0  0
   20.8254  -10.5335  -14.4839 S   0  0  0  0  0  0  0  0  0  0  0  0
   22.8022   -8.4582  -15.5426 C   0  0  0  0  0  0  0  0  0  0  0  0
   23.3143   -7.7600  -14.6201 O   0  0  0  0  0  0  0  0  0  0  0  0
   21.8563   -7.8405  -16.3795 N   0  0  0  0  0  0  0  0  0  0  0  0
   21.4034   -6.4549  -16.2139 C   0  0  1  0  0  0  0  0  0  0  0  0
   21.6984   -5.7000  -17.4832 C   0  0  0  0  0  0  0  0  0  0  0  0
   21.0608   -6.2486  -18.7056 C   0  0  0  0  0  0  0  0  0  0  0  0
   21.3530   -5.5353  -19.9535 C   0  0  0  0  0  0  0  0  0  0  0  0
   22.4726   -5.2936  -20.4195 O   0  0  0  0  0  0  0  0  0  0  0  0
   19.9345   -6.4089  -16.0083 C   0  0  0  0  0  0  0  0  0  0  0  0
   19.2101   -7.4224  -16.1549 O   0  0  0  0  0  0  0  0  0  0  0  0
   20.2432   -5.0814  -20.6932 O   0  0  0  0  0  0  0  0  0  0  0  0
   19.3253   -5.2201  -15.6430 O   0  0  0  0  0  0  0  0  0  0  0  0
  2  1  1  0
  3  2  1  0
  4  5  1  0
  4  3  1  0
  5  7  1  0
  5  6  1  6
  7  9  1  0
  7  8  2  0
  9 10  1  0
 10 13  1  0
 10 11  1  1
 12 11  1  0
 13 14  2  0
 15 16  1  0
 15 13  1  0
 16 21  1  0
 16 17  1  6
 18 17  1  0
 19 18  1  0
 19 20  2  0
 21 24  1  0
 22 21  2  0
 23 19  1  0
M  END
$$$$
