MCE.pdb
     RDKit          3D

 24 23  0  0  1  0  0  0  0  0999 V2000
   21.1111  -24.2279    1.2063 C   0  0  0  0  0  0  0  0  0  0  0  0
   19.7566  -25.2614    1.7141 S   0  0  0  0  0  0  0  0  0  0  0  0
   19.6245  -25.6991    3.4086 C   0  0  0  0  0  0  0  0  0  0  0  0
   19.7198  -24.6028    4.3865 C   0  0  0  0  0  0  0  0  0  0  0  0
   19.5464  -24.9681    5.8046 C   0  0  2  0  0  0  0  0  0  0  0  0
   18.4085  -25.8558    6.0293 N   0  0  0  0  0  0  0  0  0  0  0  0
   19.2936  -23.7160    6.6356 C   0  0  0  0  0  0  0  0  0  0  0  0
   19.1047  -23.8586    7.8445 O   0  0  0  0  0  0  0  0  0  0  0  0
   19.2696  -22.4209    6.0718 N   0  0  0  0  0  0  0  0  0  0  0  0
   19.6874  -21.2357    6.7776 C   0  0  1  0  0  0  0  0  0  0  0  0
   21.0205  -21.4015    7.4588 C   0  0  0  0  0  0  0  0  0  0  0  0
   21.7270  -19.8663    8.0444 S   0  0  0  0  0  0  0  0  0  0  0  0
   19.6285  -20.0503    5.8861 C   0  0  0  0  0  0  0  0  0  0  0  0
   20.3354  -20.0386    4.8369 O   0  0  0  0  0  0  0  0  0  0  0  0
   18.8230  -18.9269    6.1424 N   0  0  0  0  0  0  0  0  0  0  0  0
   18.2451  -18.0817    5.0916 C   0  0  1  0  0  0  0  0  0  0  0  0
   17.3445  -18.9319    4.2348 C   0  0  0  0  0  0  0  0  0  0  0  0
   16.7370  -18.2352    3.0741 C   0  0  0  0  0  0  0  0  0  0  0  0
   15.8103  -19.0329    2.2637 C   0  0  0  0  0  0  0  0  0  0  0  0
   14.6299  -19.2875    2.5300 O   0  0  0  0  0  0  0  0  0  0  0  0
   17.4034  -17.0142    5.6868 C   0  0  0  0  0  0  0  0  0  0  0  0
   17.0086  -16.0284    5.0191 O   0  0  0  0  0  0  0  0  0  0  0  0
   16.3206  -19.5606    1.0612 O   0  0  0  0  0  0  0  0  0  0  0  0
   17.0315  -17.0901    7.0186 O   0  0  0  0  0  0  0  0  0  0  0  0
  2  1  1  0
  3  2  1  0
  4  5  1  0
  4  3  1  0
  5  7  1  0
  5  6  1  6
  7  9  1  0
  7  8  2  0
  9 10  1  0
 10 13  1  0
 10 11  1  6
 12 11  1  0
 13 14  2  0
 15 16  1  0
 15 13  1  0
 16 21  1  0
 16 17  1  6
 18 17  1  0
 19 18  1  0
 19 20  2  0
 21 24  1  0
 22 21  2  0
 23 19  1  0
M  END
$$$$
