MCE.pdb
     RDKit          3D

 24 23  0  0  1  0  0  0  0  0999 V2000
   10.0264  -11.6890  -10.0262 C   0  0  0  0  0  0  0  0  0  0  0  0
   11.3395  -10.7128   -9.3308 S   0  0  0  0  0  0  0  0  0  0  0  0
   12.9044  -10.7236  -10.1253 C   0  0  0  0  0  0  0  0  0  0  0  0
   13.9432   -9.8490   -9.5569 C   0  0  0  0  0  0  0  0  0  0  0  0
   15.2319   -9.8058  -10.2725 C   0  0  2  0  0  0  0  0  0  0  0  0
   15.9978  -11.0426  -10.1422 N   0  0  0  0  0  0  0  0  0  0  0  0
   16.1029   -8.6914   -9.7054 C   0  0  0  0  0  0  0  0  0  0  0  0
   17.0224   -9.0103   -8.9502 O   0  0  0  0  0  0  0  0  0  0  0  0
   15.8915   -7.3291  -10.0136 N   0  0  0  0  0  0  0  0  0  0  0  0
   16.8029   -6.2763   -9.6419 C   0  0  1  0  0  0  0  0  0  0  0  0
   18.2186   -6.5488  -10.0779 C   0  0  0  0  0  0  0  0  0  0  0  0
   18.3506   -7.1800  -11.7462 S   0  0  0  0  0  0  0  0  0  0  0  0
   16.2923   -4.9595  -10.0990 C   0  0  0  0  0  0  0  0  0  0  0  0
   15.8389   -4.8544  -11.2754 O   0  0  0  0  0  0  0  0  0  0  0  0
   16.2827   -3.8089   -9.2910 N   0  0  0  0  0  0  0  0  0  0  0  0
   15.6757   -2.5354   -9.6939 C   0  0  1  0  0  0  0  0  0  0  0  0
   15.4596   -1.6972   -8.4615 C   0  0  0  0  0  0  0  0  0  0  0  0
   14.4424   -2.2181   -7.5152 C   0  0  0  0  0  0  0  0  0  0  0  0
   14.2785   -1.4581   -6.2713 C   0  0  0  0  0  0  0  0  0  0  0  0
   13.4786   -1.6998   -5.3599 O   0  0  0  0  0  0  0  0  0  0  0  0
   16.5934   -1.7798  -10.5822 C   0  0  0  0  0  0  0  0  0  0  0  0
   17.7504   -2.1871  -10.8447 O   0  0  0  0  0  0  0  0  0  0  0  0
   15.1195   -0.3406   -6.1017 O   0  0  0  0  0  0  0  0  0  0  0  0
   16.1788   -0.5861  -11.1486 O   0  0  0  0  0  0  0  0  0  0  0  0
  2  1  1  0
  3  2  1  0
  4  5  1  0
  4  3  1  0
  5  7  1  0
  5  6  1  1
  7  9  1  0
  7  8  2  0
  9 10  1  0
 10 13  1  0
 10 11  1  6
 12 11  1  0
 13 14  2  0
 15 16  1  0
 15 13  1  0
 16 21  1  0
 16 17  1  1
 18 17  1  0
 19 18  1  0
 19 20  2  0
 21 24  1  0
 22 21  2  0
 23 19  1  0
M  END
$$$$
