MCE.pdb
     RDKit          3D

 24 23  0  0  1  0  0  0  0  0999 V2000
   23.1940  -16.1287  -20.1078 C   0  0  0  0  0  0  0  0  0  0  0  0
   23.5715  -14.8680  -18.9125 S   0  0  0  0  0  0  0  0  0  0  0  0
   22.2443  -14.0003  -18.1603 C   0  0  0  0  0  0  0  0  0  0  0  0
   22.6021  -12.9033  -17.2460 C   0  0  0  0  0  0  0  0  0  0  0  0
   24.0333  -12.7552  -16.9233 C   0  0  2  0  0  0  0  0  0  0  0  0
   24.5089  -13.7541  -15.9699 N   0  0  0  0  0  0  0  0  0  0  0  0
   24.2834  -11.3925  -16.2886 C   0  0  0  0  0  0  0  0  0  0  0  0
   23.8116  -11.1858  -15.1697 O   0  0  0  0  0  0  0  0  0  0  0  0
   25.0259  -10.3780  -16.9329 N   0  0  0  0  0  0  0  0  0  0  0  0
   25.3079   -9.0958  -16.3381 C   0  0  1  0  0  0  0  0  0  0  0  0
   26.6654   -8.5632  -16.7154 C   0  0  0  0  0  0  0  0  0  0  0  0
   28.0174   -9.6336  -16.2411 S   0  0  0  0  0  0  0  0  0  0  0  0
   24.2062   -8.1399  -16.6137 C   0  0  0  0  0  0  0  0  0  0  0  0
   23.7846   -8.0183  -17.8003 O   0  0  0  0  0  0  0  0  0  0  0  0
   23.5964   -7.3528  -15.6210 N   0  0  0  0  0  0  0  0  0  0  0  0
   22.4859   -6.4299  -15.8808 C   0  0  1  0  0  0  0  0  0  0  0  0
   21.1912   -7.1535  -15.6196 C   0  0  0  0  0  0  0  0  0  0  0  0
   19.9631   -6.3704  -15.9031 C   0  0  0  0  0  0  0  0  0  0  0  0
   18.6934   -7.0664  -15.6685 C   0  0  0  0  0  0  0  0  0  0  0  0
   17.9252   -7.5090  -16.5306 O   0  0  0  0  0  0  0  0  0  0  0  0
   22.5389   -5.2767  -14.9484 C   0  0  0  0  0  0  0  0  0  0  0  0
   21.8850   -4.2257  -15.1523 O   0  0  0  0  0  0  0  0  0  0  0  0
   18.3142   -7.2470  -14.3237 O   0  0  0  0  0  0  0  0  0  0  0  0
   23.3284   -5.3426  -13.8127 O   0  0  0  0  0  0  0  0  0  0  0  0
  2  1  1  0
  3  2  1  0
  4  5  1  0
  4  3  1  0
  5  7  1  0
  5  6  1  1
  7  9  1  0
  7  8  2  0
  9 10  1  0
 10 13  1  0
 10 11  1  6
 12 11  1  0
 13 14  2  0
 15 16  1  0
 15 13  1  0
 16 21  1  0
 16 17  1  1
 18 17  1  0
 19 18  1  0
 19 20  2  0
 21 24  1  0
 22 21  2  0
 23 19  1  0
M  END
$$$$
