MCE.pdb
     RDKit          3D

 24 23  0  0  1  0  0  0  0  0999 V2000
   28.7129  -13.4720  -14.4900 C   0  0  0  0  0  0  0  0  0  0  0  0
   27.3577  -12.6975  -15.3410 S   0  0  0  0  0  0  0  0  0  0  0  0
   27.5769  -11.0708  -15.9625 C   0  0  0  0  0  0  0  0  0  0  0  0
   26.3834  -10.4016  -16.5057 C   0  0  0  0  0  0  0  0  0  0  0  0
   25.4974  -11.2207  -17.3533 C   0  0  2  0  0  0  0  0  0  0  0  0
   26.1016  -11.5735  -18.6354 N   0  0  0  0  0  0  0  0  0  0  0  0
   24.2226  -10.4480  -17.6697 C   0  0  0  0  0  0  0  0  0  0  0  0
   24.1876   -9.8048  -18.7196 O   0  0  0  0  0  0  0  0  0  0  0  0
   23.1008  -10.4469  -16.8110 N   0  0  0  0  0  0  0  0  0  0  0  0
   21.8654   -9.7690  -17.1134 C   0  0  1  0  0  0  0  0  0  0  0  0
   20.8196  -10.6893  -17.6861 C   0  0  0  0  0  0  0  0  0  0  0  0
   19.1839   -9.9691  -17.7535 S   0  0  0  0  0  0  0  0  0  0  0  0
   21.3892   -9.0029  -15.9345 C   0  0  0  0  0  0  0  0  0  0  0  0
   21.2892   -9.5944  -14.8206 O   0  0  0  0  0  0  0  0  0  0  0  0
   21.0394   -7.6420  -15.9841 N   0  0  0  0  0  0  0  0  0  0  0  0
   20.5683   -6.8790  -14.8229 C   0  0  1  0  0  0  0  0  0  0  0  0
   21.1066   -5.4760  -14.9217 C   0  0  0  0  0  0  0  0  0  0  0  0
   22.5741   -5.3497  -14.7419 C   0  0  0  0  0  0  0  0  0  0  0  0
   23.1080   -3.9842  -14.7863 C   0  0  0  0  0  0  0  0  0  0  0  0
   22.8176   -3.0543  -14.0247 O   0  0  0  0  0  0  0  0  0  0  0  0
   19.0875   -6.7815  -14.8306 C   0  0  0  0  0  0  0  0  0  0  0  0
   18.4466   -6.3127  -13.8594 O   0  0  0  0  0  0  0  0  0  0  0  0
   24.0462   -3.7083  -15.8004 O   0  0  0  0  0  0  0  0  0  0  0  0
   18.3726   -7.2159  -15.9341 O   0  0  0  0  0  0  0  0  0  0  0  0
  2  1  1  0
  3  2  1  0
  4  5  1  0
  4  3  1  0
  5  7  1  0
  5  6  1  6
  7  9  1  0
  7  8  2  0
  9 10  1  0
 10 13  1  0
 10 11  1  1
 12 11  1  0
 13 14  2  0
 15 16  1  0
 15 13  1  0
 16 21  1  0
 16 17  1  6
 18 17  1  0
 19 18  1  0
 19 20  2  0
 21 24  1  0
 22 21  2  0
 23 19  1  0
M  END
$$$$
