MCE.pdb
     RDKit          3D

 24 23  0  0  1  0  0  0  0  0999 V2000
   18.8982  -15.2959  -19.3977 C   0  0  0  0  0  0  0  0  0  0  0  0
   19.9340  -14.2531  -18.3975 S   0  0  0  0  0  0  0  0  0  0  0  0
   21.4141  -13.6210  -19.0977 C   0  0  0  0  0  0  0  0  0  0  0  0
   22.2386  -12.7564  -18.2376 C   0  0  0  0  0  0  0  0  0  0  0  0
   23.4720  -12.2144  -18.8373 C   0  0  2  0  0  0  0  0  0  0  0  0
   24.5154  -13.2227  -19.0041 N   0  0  0  0  0  0  0  0  0  0  0  0
   24.0528  -11.1300  -17.9380 C   0  0  0  0  0  0  0  0  0  0  0  0
   25.1913  -11.2984  -17.4987 O   0  0  0  0  0  0  0  0  0  0  0  0
   23.3383   -9.9594  -17.5989 N   0  0  0  0  0  0  0  0  0  0  0  0
   23.9161   -8.8525  -16.8791 C   0  0  1  0  0  0  0  0  0  0  0  0
   25.2575   -8.4379  -17.4246 C   0  0  0  0  0  0  0  0  0  0  0  0
   25.9206   -6.9616  -16.6633 S   0  0  0  0  0  0  0  0  0  0  0  0
   22.9493   -7.7300  -16.7859 C   0  0  0  0  0  0  0  0  0  0  0  0
   22.5580   -7.1700  -17.8508 O   0  0  0  0  0  0  0  0  0  0  0  0
   22.4367   -7.2475  -15.5689 N   0  0  0  0  0  0  0  0  0  0  0  0
   21.3082   -6.3149  -15.4727 C   0  0  1  0  0  0  0  0  0  0  0  0
   20.1055   -7.0691  -14.9698 C   0  0  0  0  0  0  0  0  0  0  0  0
   18.9111   -6.2352  -14.6875 C   0  0  0  0  0  0  0  0  0  0  0  0
   17.7136   -6.9613  -14.2514 C   0  0  0  0  0  0  0  0  0  0  0  0
   17.6279   -8.1744  -14.0277 O   0  0  0  0  0  0  0  0  0  0  0  0
   21.5993   -5.2463  -14.4850 C   0  0  0  0  0  0  0  0  0  0  0  0
   22.4607   -5.3894  -13.5844 O   0  0  0  0  0  0  0  0  0  0  0  0
   16.5450   -6.1956  -14.0701 O   0  0  0  0  0  0  0  0  0  0  0  0
   20.9098   -4.0467  -14.5422 O   0  0  0  0  0  0  0  0  0  0  0  0
  2  1  1  0
  3  2  1  0
  4  5  1  0
  4  3  1  0
  5  7  1  0
  5  6  1  1
  7  9  1  0
  7  8  2  0
  9 10  1  0
 10 13  1  0
 10 11  1  6
 12 11  1  0
 13 14  2  0
 15 16  1  0
 15 13  1  0
 16 21  1  0
 16 17  1  1
 18 17  1  0
 19 18  1  0
 19 20  2  0
 21 24  1  0
 22 21  2  0
 23 19  1  0
M  END
$$$$
