MCE.pdb
     RDKit          3D

 24 23  0  0  1  0  0  0  0  0999 V2000
   13.8438  -11.4943  -16.2962 C   0  0  0  0  0  0  0  0  0  0  0  0
   14.6808  -11.6631  -17.8556 S   0  0  0  0  0  0  0  0  0  0  0  0
   16.4268  -11.8419  -17.8559 C   0  0  0  0  0  0  0  0  0  0  0  0
   17.1421  -11.3724  -16.6579 C   0  0  0  0  0  0  0  0  0  0  0  0
   18.6022  -11.5785  -16.6395 C   0  0  2  0  0  0  0  0  0  0  0  0
   18.9780  -12.9751  -16.4363 N   0  0  0  0  0  0  0  0  0  0  0  0
   19.2230  -10.7885  -15.4937 C   0  0  0  0  0  0  0  0  0  0  0  0
   19.1799  -11.2834  -14.3665 O   0  0  0  0  0  0  0  0  0  0  0  0
   19.8347   -9.5290  -15.6818 N   0  0  0  0  0  0  0  0  0  0  0  0
   20.5109   -8.8062  -14.6342 C   0  0  1  0  0  0  0  0  0  0  0  0
   21.6148   -9.6051  -13.9924 C   0  0  0  0  0  0  0  0  0  0  0  0
   22.8749  -10.1459  -15.1407 S   0  0  0  0  0  0  0  0  0  0  0  0
   20.9571   -7.4772  -15.1222 C   0  0  0  0  0  0  0  0  0  0  0  0
   21.4835   -7.3923  -16.2695 O   0  0  0  0  0  0  0  0  0  0  0  0
   20.8267   -6.2933  -14.3752 N   0  0  0  0  0  0  0  0  0  0  0  0
   21.2527   -4.9747  -14.8571 C   0  0  1  0  0  0  0  0  0  0  0  0
   20.1334   -3.9947  -14.6224 C   0  0  0  0  0  0  0  0  0  0  0  0
   18.9545   -4.1604  -15.5081 C   0  0  0  0  0  0  0  0  0  0  0  0
   17.8586   -3.2083  -15.2976 C   0  0  0  0  0  0  0  0  0  0  0  0
   17.6562   -2.5300  -14.2837 O   0  0  0  0  0  0  0  0  0  0  0  0
   22.4254   -4.4929  -14.0859 C   0  0  0  0  0  0  0  0  0  0  0  0
   22.7810   -5.0314  -13.0102 O   0  0  0  0  0  0  0  0  0  0  0  0
   16.9467   -3.0540  -16.3603 O   0  0  0  0  0  0  0  0  0  0  0  0
   23.1632   -3.4172  -14.5509 O   0  0  0  0  0  0  0  0  0  0  0  0
  2  1  1  0
  3  2  1  0
  4  5  1  0
  4  3  1  0
  5  7  1  0
  5  6  1  1
  7  9  1  0
  7  8  2  0
  9 10  1  0
 10 13  1  0
 10 11  1  6
 12 11  1  0
 13 14  2  0
 15 16  1  0
 15 13  1  0
 16 21  1  0
 16 17  1  1
 18 17  1  0
 19 18  1  0
 19 20  2  0
 21 24  1  0
 22 21  2  0
 23 19  1  0
M  END
$$$$
