MCE.pdb
     RDKit          3D

 24 23  0  0  1  0  0  0  0  0999 V2000
   26.5255  -16.2388  -21.5906 C   0  0  0  0  0  0  0  0  0  0  0  0
   26.6807  -15.0687  -22.9201 S   0  0  0  0  0  0  0  0  0  0  0  0
   27.4190  -13.5119  -22.5860 C   0  0  0  0  0  0  0  0  0  0  0  0
   26.9249  -12.7826  -21.4066 C   0  0  0  0  0  0  0  0  0  0  0  0
   27.9277  -12.4219  -20.3873 C   0  0  2  0  0  0  0  0  0  0  0  0
   28.6472  -13.5790  -19.8614 N   0  0  0  0  0  0  0  0  0  0  0  0
   27.2435  -11.7566  -19.1993 C   0  0  0  0  0  0  0  0  0  0  0  0
   26.0416  -11.5049  -19.2969 O   0  0  0  0  0  0  0  0  0  0  0  0
   27.9331  -11.4257  -18.0116 N   0  0  0  0  0  0  0  0  0  0  0  0
   27.3029  -10.8209  -16.8652 C   0  0  1  0  0  0  0  0  0  0  0  0
   27.9603  -11.2070  -15.5662 C   0  0  0  0  0  0  0  0  0  0  0  0
   27.9046  -12.9615  -15.2233 S   0  0  0  0  0  0  0  0  0  0  0  0
   27.1861   -9.3526  -17.0490 C   0  0  0  0  0  0  0  0  0  0  0  0
   28.2203   -8.6902  -17.3532 O   0  0  0  0  0  0  0  0  0  0  0  0
   25.9789   -8.6467  -16.9035 N   0  0  0  0  0  0  0  0  0  0  0  0
   25.8338   -7.2140  -17.1844 C   0  0  1  0  0  0  0  0  0  0  0  0
   25.9293   -7.0061  -18.6729 C   0  0  0  0  0  0  0  0  0  0  0  0
   27.3041   -6.8076  -19.1947 C   0  0  0  0  0  0  0  0  0  0  0  0
   27.4181   -6.6415  -20.6477 C   0  0  0  0  0  0  0  0  0  0  0  0
   26.6493   -6.0074  -21.3796 O   0  0  0  0  0  0  0  0  0  0  0  0
   24.4953   -6.7338  -16.7602 C   0  0  0  0  0  0  0  0  0  0  0  0
   23.5727   -7.5246  -16.4486 O   0  0  0  0  0  0  0  0  0  0  0  0
   28.5161   -7.2694  -21.2682 O   0  0  0  0  0  0  0  0  0  0  0  0
   24.2364   -5.3748  -16.6997 O   0  0  0  0  0  0  0  0  0  0  0  0
  2  1  1  0
  3  2  1  0
  4  5  1  0
  4  3  1  0
  5  7  1  0
  5  6  1  1
  7  9  1  0
  7  8  2  0
  9 10  1  0
 10 13  1  0
 10 11  1  1
 12 11  1  0
 13 14  2  0
 15 16  1  0
 15 13  1  0
 16 21  1  0
 16 17  1  6
 18 17  1  0
 19 18  1  0
 19 20  2  0
 21 24  1  0
 22 21  2  0
 23 19  1  0
M  END
$$$$
