MCE.pdb
     RDKit          3D

 24 23  0  0  1  0  0  0  0  0999 V2000
   16.6118  -13.0597  -16.8204 C   0  0  0  0  0  0  0  0  0  0  0  0
   18.2331  -13.5608  -16.2904 S   0  0  0  0  0  0  0  0  0  0  0  0
   19.5833  -12.4780  -16.5819 C   0  0  0  0  0  0  0  0  0  0  0  0
   19.5251  -11.1561  -15.9365 C   0  0  0  0  0  0  0  0  0  0  0  0
   20.1762  -10.0439  -16.6533 C   0  0  2  0  0  0  0  0  0  0  0  0
   21.6015  -10.2686  -16.8797 N   0  0  0  0  0  0  0  0  0  0  0  0
   20.0609   -8.7625  -15.8366 C   0  0  0  0  0  0  0  0  0  0  0  0
   18.9306   -8.3636  -15.5523 O   0  0  0  0  0  0  0  0  0  0  0  0
   21.1899   -8.0318  -15.4042 N   0  0  0  0  0  0  0  0  0  0  0  0
   21.1167   -6.9110  -14.5011 C   0  0  1  0  0  0  0  0  0  0  0  0
   22.2703   -6.8646  -13.5337 C   0  0  0  0  0  0  0  0  0  0  0  0
   22.3757   -5.3368  -12.6097 S   0  0  0  0  0  0  0  0  0  0  0  0
   20.9331   -5.6455  -15.2549 C   0  0  0  0  0  0  0  0  0  0  0  0
   20.7190   -4.5767  -14.6126 O   0  0  0  0  0  0  0  0  0  0  0  0
   20.9843   -5.5643  -16.6576 N   0  0  0  0  0  0  0  0  0  0  0  0
   20.8147   -4.3152  -17.4082 C   0  0  1  0  0  0  0  0  0  0  0  0
   21.8216   -4.2891  -18.5278 C   0  0  0  0  0  0  0  0  0  0  0  0
   21.7085   -5.4015  -19.5033 C   0  0  0  0  0  0  0  0  0  0  0  0
   22.6658   -5.3764  -20.6145 C   0  0  0  0  0  0  0  0  0  0  0  0
   22.3976   -5.2592  -21.8159 O   0  0  0  0  0  0  0  0  0  0  0  0
   19.4679   -4.2602  -18.0290 C   0  0  0  0  0  0  0  0  0  0  0  0
   18.6868   -5.2417  -18.0117 O   0  0  0  0  0  0  0  0  0  0  0  0
   24.0275   -5.4984  -20.2743 O   0  0  0  0  0  0  0  0  0  0  0  0
   19.0414   -3.0991  -18.6516 O   0  0  0  0  0  0  0  0  0  0  0  0
  2  1  1  0
  3  2  1  0
  4  5  1  0
  4  3  1  0
  5  7  1  0
  5  6  1  1
  7  9  1  0
  7  8  2  0
  9 10  1  0
 10 13  1  0
 10 11  1  6
 12 11  1  0
 13 14  2  0
 15 16  1  0
 15 13  1  0
 16 21  1  0
 16 17  1  6
 18 17  1  0
 19 18  1  0
 19 20  2  0
 21 24  1  0
 22 21  2  0
 23 19  1  0
M  END
$$$$
