MCE.pdb
     RDKit          3D

 24 23  0  0  1  0  0  0  0  0999 V2000
   27.8854  -12.0621  -15.2432 C   0  0  0  0  0  0  0  0  0  0  0  0
   27.6211  -13.8133  -15.0873 S   0  0  0  0  0  0  0  0  0  0  0  0
   26.0689  -14.4740  -15.5714 C   0  0  0  0  0  0  0  0  0  0  0  0
   25.1079  -13.5366  -16.1754 C   0  0  0  0  0  0  0  0  0  0  0  0
   23.7912  -14.0892  -16.5436 C   0  0  2  0  0  0  0  0  0  0  0  0
   23.8807  -15.1747  -17.5167 N   0  0  0  0  0  0  0  0  0  0  0  0
   22.9323  -13.0028  -17.1796 C   0  0  0  0  0  0  0  0  0  0  0  0
   22.8112  -13.0119  -18.4054 O   0  0  0  0  0  0  0  0  0  0  0  0
   22.2832  -12.0042  -16.4199 N   0  0  0  0  0  0  0  0  0  0  0  0
   21.2605  -11.1377  -16.9494 C   0  0  1  0  0  0  0  0  0  0  0  0
   20.1622  -11.8921  -17.6518 C   0  0  0  0  0  0  0  0  0  0  0  0
   18.7135  -10.9017  -17.9970 S   0  0  0  0  0  0  0  0  0  0  0  0
   20.7595  -10.2190  -15.8966 C   0  0  0  0  0  0  0  0  0  0  0  0
   20.4208  -10.6995  -14.7763 O   0  0  0  0  0  0  0  0  0  0  0  0
   20.6384   -8.8294  -16.0737 N   0  0  0  0  0  0  0  0  0  0  0  0
   20.3127   -7.8952  -14.9904 C   0  0  1  0  0  0  0  0  0  0  0  0
   21.2708   -6.7350  -15.0547 C   0  0  0  0  0  0  0  0  0  0  0  0
   21.0100   -5.6474  -14.0796 C   0  0  0  0  0  0  0  0  0  0  0  0
   21.8394   -4.4464  -14.2253 C   0  0  0  0  0  0  0  0  0  0  0  0
   21.7544   -3.4069  -13.5610 O   0  0  0  0  0  0  0  0  0  0  0  0
   18.9463   -7.3453  -15.1710 C   0  0  0  0  0  0  0  0  0  0  0  0
   18.4094   -7.2553  -16.3012 O   0  0  0  0  0  0  0  0  0  0  0  0
   22.8321   -4.4850  -15.2243 O   0  0  0  0  0  0  0  0  0  0  0  0
   18.2249   -6.9129  -14.0709 O   0  0  0  0  0  0  0  0  0  0  0  0
  2  1  1  0
  3  2  1  0
  4  5  1  0
  4  3  1  0
  5  7  1  0
  5  6  1  6
  7  9  1  0
  7  8  2  0
  9 10  1  0
 10 13  1  0
 10 11  1  1
 12 11  1  0
 13 14  2  0
 15 16  1  0
 15 13  1  0
 16 21  1  0
 16 17  1  6
 18 17  1  0
 19 18  1  0
 19 20  2  0
 21 24  1  0
 22 21  2  0
 23 19  1  0
M  END
$$$$
