MSV.pdb
     RDKit          3D

 22 21  0  0  1  0  0  0  0  0999 V2000
   19.8596  -13.0518  -21.9539 C   0  0  0  0  0  0  0  0  0  0  0  0
   19.4664  -13.7821  -20.3460 S   0  0  0  0  0  0  0  0  0  0  0  0
   20.5050  -13.1108  -19.0319 C   0  0  0  0  0  0  0  0  0  0  0  0
   20.6030  -11.5955  -19.1265 C   0  0  0  0  0  0  0  0  0  0  0  0
   21.4573  -11.0394  -18.0093 C   0  0  2  0  0  0  0  0  0  0  0  0
   21.4250  -12.0047  -16.9263 N   0  0  0  0  0  0  0  0  0  0  0  0
   20.8731   -9.7299  -17.5717 C   0  0  0  0  0  0  0  0  0  0  0  0
   20.8286   -8.7519  -18.3592 O   0  0  0  0  0  0  0  0  0  0  0  0
   19.3603   -9.1645  -13.6924 O   0  0  0  0  0  0  0  0  0  0  0  0
   18.7742   -8.5118  -14.7731 C   0  0  0  0  0  0  0  0  0  0  0  0
   19.8621   -8.2418  -15.8191 C   0  0  2  0  0  0  0  0  0  0  0  0
   20.3525   -9.5358  -16.2707 N   0  0  0  0  0  0  0  0  0  0  0  0
   20.9393   -7.4055  -15.2676 C   0  0  0  0  0  0  0  0  0  0  0  0
   21.9748   -7.9451  -14.8294 O   0  0  0  0  0  0  0  0  0  0  0  0
   22.7497   -2.7338  -15.1487 C   0  0  0  0  0  0  0  0  0  0  0  0
   21.6302   -3.6796  -15.4346 C   0  0  2  0  0  0  0  0  0  0  0  0
   20.3168   -3.1332  -14.8788 C   0  0  0  0  0  0  0  0  0  0  0  0
   21.8020   -5.0565  -14.8720 C   0  0  2  0  0  0  0  0  0  0  0  0
   20.7817   -5.9997  -15.2438 N   0  0  0  0  0  0  0  0  0  0  0  0
   22.0134   -5.0666  -13.3903 C   0  0  0  0  0  0  0  0  0  0  0  0
   21.0830   -5.4083  -12.6369 O   0  0  0  0  0  0  0  0  0  0  0  0
   23.2253   -4.7027  -12.8353 O   0  0  0  0  0  0  0  0  0  0  0  0
  2  1  1  0
  3  2  1  0
  4  5  1  0
  4  3  1  0
  5  6  1  1
  7  5  1  0
  8  7  2  0
 11 10  1  1
 10  9  1  0
 11 13  1  0
 11 12  1  0
 12  7  1  0
 13 19  1  0
 14 13  2  0
 16 15  1  1
 16 17  1  0
 18 20  1  0
 18 16  1  0
 18 19  1  1
 20 22  1  0
 21 20  2  0
M  END
$$$$
