MSV.pdb
     RDKit          3D

 22 21  0  0  1  0  0  0  0  0999 V2000
   30.0318  -20.6651  -11.1079 C   0  0  0  0  0  0  0  0  0  0  0  0
   29.3030  -22.2974  -10.8290 S   0  0  0  0  0  0  0  0  0  0  0  0
   27.5456  -22.1893  -10.4339 C   0  0  0  0  0  0  0  0  0  0  0  0
   26.9805  -20.8258  -10.8031 C   0  0  0  0  0  0  0  0  0  0  0  0
   26.1000  -20.9209  -12.0290 C   0  0  2  0  0  0  0  0  0  0  0  0
   26.6626  -21.9531  -12.8797 N   0  0  0  0  0  0  0  0  0  0  0  0
   26.1112  -19.5934  -12.7258 C   0  0  0  0  0  0  0  0  0  0  0  0
   25.5683  -18.5889  -12.2015 O   0  0  0  0  0  0  0  0  0  0  0  0
   27.7566  -19.1226  -16.5519 O   0  0  0  0  0  0  0  0  0  0  0  0
   27.9700  -18.1318  -15.5977 C   0  0  0  0  0  0  0  0  0  0  0  0
   26.7680  -18.1141  -14.6462 C   0  0  2  0  0  0  0  0  0  0  0  0
   26.7239  -19.4116  -13.9878 N   0  0  0  0  0  0  0  0  0  0  0  0
   25.5198  -17.8180  -15.3659 C   0  0  0  0  0  0  0  0  0  0  0  0
   24.7820  -18.7552  -15.7305 O   0  0  0  0  0  0  0  0  0  0  0  0
   21.9848  -14.5507  -16.4487 C   0  0  0  0  0  0  0  0  0  0  0  0
   23.1089  -15.1065  -15.6382 C   0  0  2  0  0  0  0  0  0  0  0  0
   23.9786  -13.9772  -15.0896 C   0  0  0  0  0  0  0  0  0  0  0  0
   24.0202  -16.0409  -16.3719 C   0  0  2  0  0  0  0  0  0  0  0  0
   25.1766  -16.4717  -15.6330 N   0  0  0  0  0  0  0  0  0  0  0  0
   24.4172  -15.5378  -17.7244 C   0  0  0  0  0  0  0  0  0  0  0  0
   23.5739  -15.4977  -18.6394 O   0  0  0  0  0  0  0  0  0  0  0  0
   25.7067  -15.1140  -17.9831 O   0  0  0  0  0  0  0  0  0  0  0  0
  2  1  1  0
  3  2  1  0
  4  5  1  0
  4  3  1  0
  5  6  1  6
  7  5  1  0
  8  7  2  0
 11 10  1  6
 10  9  1  0
 11 13  1  0
 11 12  1  0
 12  7  1  0
 13 19  1  0
 14 13  2  0
 16 15  1  6
 16 17  1  0
 18 20  1  0
 18 16  1  0
 18 19  1  1
 20 22  1  0
 21 20  2  0
M  END
$$$$
