MSV.pdb
     RDKit          3D

 22 21  0  0  1  0  0  0  0  0999 V2000
   16.2559  -16.3447  -13.7971 C   0  0  0  0  0  0  0  0  0  0  0  0
   16.7656  -14.6098  -13.8589 S   0  0  0  0  0  0  0  0  0  0  0  0
   16.6605  -13.9384  -15.5305 C   0  0  0  0  0  0  0  0  0  0  0  0
   17.1318  -12.4924  -15.5743 C   0  0  0  0  0  0  0  0  0  0  0  0
   17.0809  -11.9511  -16.9855 C   0  0  2  0  0  0  0  0  0  0  0  0
   17.7490  -12.9171  -17.8376 N   0  0  0  0  0  0  0  0  0  0  0  0
   17.7951  -10.6332  -17.0145 C   0  0  0  0  0  0  0  0  0  0  0  0
   19.0501  -10.5826  -16.9852 O   0  0  0  0  0  0  0  0  0  0  0  0
   15.7767   -7.0177  -16.6568 O   0  0  0  0  0  0  0  0  0  0  0  0
   16.7436   -7.0962  -17.6550 C   0  0  0  0  0  0  0  0  0  0  0  0
   17.7917   -8.1307  -17.2288 C   0  0  2  0  0  0  0  0  0  0  0  0
   17.1002   -9.4024  -17.0747 N   0  0  0  0  0  0  0  0  0  0  0  0
   18.4759   -7.7216  -15.9925 C   0  0  0  0  0  0  0  0  0  0  0  0
   18.0320   -8.0983  -14.8895 O   0  0  0  0  0  0  0  0  0  0  0  0
   22.3570   -7.8809  -15.1088 C   0  0  0  0  0  0  0  0  0  0  0  0
   21.8360   -6.4837  -15.0326 C   0  0  2  0  0  0  0  0  0  0  0  0
   22.4050   -5.7695  -13.8083 C   0  0  0  0  0  0  0  0  0  0  0  0
   20.3456   -6.3644  -14.9529 C   0  0  2  0  0  0  0  0  0  0  0  0
   19.6287   -6.9057  -16.0762 N   0  0  0  0  0  0  0  0  0  0  0  0
   19.8799   -4.9743  -14.6516 C   0  0  0  0  0  0  0  0  0  0  0  0
   19.5601   -4.2152  -15.5851 O   0  0  0  0  0  0  0  0  0  0  0  0
   19.7963   -4.5106  -13.3526 O   0  0  0  0  0  0  0  0  0  0  0  0
  2  1  1  0
  3  2  1  0
  4  5  1  0
  4  3  1  0
  5  6  1  6
  7  5  1  0
  8  7  2  0
 11 10  1  1
 10  9  1  0
 11 13  1  0
 11 12  1  0
 12  7  1  0
 13 19  1  0
 14 13  2  0
 16 15  1  1
 16 17  1  0
 18 20  1  0
 18 16  1  0
 18 19  1  6
 20 22  1  0
 21 20  2  0
M  END
$$$$
