MSV.pdb
     RDKit          3D

 22 21  0  0  1  0  0  0  0  0999 V2000
   22.6418   -2.8422  -16.8069 C   0  0  0  0  0  0  0  0  0  0  0  0
   23.4921   -3.8138  -15.5394 S   0  0  0  0  0  0  0  0  0  0  0  0
   22.4580   -5.1543  -14.9151 C   0  0  0  0  0  0  0  0  0  0  0  0
   21.6716   -5.8130  -16.0387 C   0  0  0  0  0  0  0  0  0  0  0  0
   20.7681   -6.8995  -15.4999 C   0  0  2  0  0  0  0  0  0  0  0  0
   20.3661   -6.4972  -14.1649 N   0  0  0  0  0  0  0  0  0  0  0  0
   21.5419   -8.1830  -15.4578 C   0  0  0  0  0  0  0  0  0  0  0  0
   21.9974   -8.6224  -14.3725 O   0  0  0  0  0  0  0  0  0  0  0  0
   20.6672  -11.7666  -16.7023 O   0  0  0  0  0  0  0  0  0  0  0  0
   21.6850  -11.1982  -17.4631 C   0  0  0  0  0  0  0  0  0  0  0  0
   22.4729  -10.2344  -16.5684 C   0  0  2  0  0  0  0  0  0  0  0  0
   21.7925   -8.9485  -16.6207 N   0  0  0  0  0  0  0  0  0  0  0  0
   23.8767  -10.1334  -16.9960 C   0  0  0  0  0  0  0  0  0  0  0  0
   24.2177   -9.2259  -17.7806 O   0  0  0  0  0  0  0  0  0  0  0  0
   28.5594  -11.5731  -15.9552 C   0  0  0  0  0  0  0  0  0  0  0  0
   27.0880  -11.6864  -15.7282 C   0  0  2  0  0  0  0  0  0  0  0  0
   26.6716  -13.1543  -15.6589 C   0  0  0  0  0  0  0  0  0  0  0  0
   26.2320  -11.0398  -16.7729 C   0  0  2  0  0  0  0  0  0  0  0  0
   24.8185  -11.0700  -16.5085 N   0  0  0  0  0  0  0  0  0  0  0  0
   26.5191  -11.5298  -18.1576 C   0  0  0  0  0  0  0  0  0  0  0  0
   25.8737  -12.4896  -18.6183 O   0  0  0  0  0  0  0  0  0  0  0  0
   27.4906  -10.9379  -18.9419 O   0  0  0  0  0  0  0  0  0  0  0  0
  2  1  1  0
  3  2  1  0
  4  5  1  0
  4  3  1  0
  5  6  1  1
  7  5  1  0
  8  7  2  0
 11 10  1  6
 10  9  1  0
 11 13  1  0
 11 12  1  0
 12  7  1  0
 13 19  1  0
 14 13  2  0
 16 15  1  6
 16 17  1  0
 18 20  1  0
 18 16  1  0
 18 19  1  1
 20 22  1  0
 21 20  2  0
M  END
$$$$
