MSV.pdb
     RDKit          3D

 22 21  0  0  1  0  0  0  0  0999 V2000
   19.2544  -30.7457   -7.4786 C   0  0  0  0  0  0  0  0  0  0  0  0
   19.4934  -29.7448   -8.9667 S   0  0  0  0  0  0  0  0  0  0  0  0
   20.6955  -30.4872  -10.0892 C   0  0  0  0  0  0  0  0  0  0  0  0
   21.4444  -31.6290   -9.4180 C   0  0  0  0  0  0  0  0  0  0  0  0
   22.5260  -32.1715  -10.3252 C   0  0  2  0  0  0  0  0  0  0  0  0
   21.8664  -32.9448  -11.3608 N   0  0  0  0  0  0  0  0  0  0  0  0
   23.4366  -33.0409   -9.5111 C   0  0  0  0  0  0  0  0  0  0  0  0
   23.1370  -34.2375   -9.2722 O   0  0  0  0  0  0  0  0  0  0  0  0
   27.7254  -33.5239   -7.3228 O   0  0  0  0  0  0  0  0  0  0  0  0
   26.8621  -32.6910   -8.0288 C   0  0  0  0  0  0  0  0  0  0  0  0
   25.4916  -33.3737   -8.1059 C   0  0  2  0  0  0  0  0  0  0  0  0
   24.6577  -32.5624   -8.9808 N   0  0  0  0  0  0  0  0  0  0  0  0
   24.8971  -33.5337   -6.7700 C   0  0  0  0  0  0  0  0  0  0  0  0
   24.3483  -32.5585   -6.2193 O   0  0  0  0  0  0  0  0  0  0  0  0
   22.7868  -36.7237   -3.6609 C   0  0  0  0  0  0  0  0  0  0  0  0
   23.5908  -36.4449   -4.8877 C   0  0  2  0  0  0  0  0  0  0  0  0
   24.6490  -37.5279   -5.0880 C   0  0  0  0  0  0  0  0  0  0  0  0
   24.3071  -35.1300   -4.8932 C   0  0  2  0  0  0  0  0  0  0  0  0
   24.9583  -34.7945   -6.1310 N   0  0  0  0  0  0  0  0  0  0  0  0
   25.2488  -34.9660   -3.7416 C   0  0  0  0  0  0  0  0  0  0  0  0
   26.4743  -35.0870   -3.9250 O   0  0  0  0  0  0  0  0  0  0  0  0
   24.7868  -34.6817   -2.4707 O   0  0  0  0  0  0  0  0  0  0  0  0
  2  1  1  0
  3  2  1  0
  4  5  1  0
  4  3  1  0
  5  6  1  6
  7  5  1  0
  8  7  2  0
 11 10  1  1
 10  9  1  0
 11 13  1  0
 11 12  1  0
 12  7  1  0
 13 19  1  0
 14 13  2  0
 16 15  1  1
 16 17  1  0
 18 20  1  0
 18 16  1  0
 18 19  1  6
 20 22  1  0
 21 20  2  0
M  END
$$$$
