MSV.pdb
     RDKit          3D

 22 21  0  0  1  0  0  0  0  0999 V2000
   28.2060  -16.4357  -16.7058 C   0  0  0  0  0  0  0  0  0  0  0  0
   28.5386  -17.5418  -18.0984 S   0  0  0  0  0  0  0  0  0  0  0  0
   27.1174  -18.5859  -18.4808 C   0  0  0  0  0  0  0  0  0  0  0  0
   25.9893  -18.3682  -17.4834 C   0  0  0  0  0  0  0  0  0  0  0  0
   25.7654  -19.6059  -16.6437 C   0  0  2  0  0  0  0  0  0  0  0  0
   25.7342  -20.7376  -17.5514 N   0  0  0  0  0  0  0  0  0  0  0  0
   24.4562  -19.4631  -15.9272 C   0  0  0  0  0  0  0  0  0  0  0  0
   24.3826  -18.8281  -14.8455 O   0  0  0  0  0  0  0  0  0  0  0  0
   21.0992  -21.5871  -17.1000 O   0  0  0  0  0  0  0  0  0  0  0  0
   20.8890  -20.2535  -16.7614 C   0  0  0  0  0  0  0  0  0  0  0  0
   21.9771  -19.8327  -15.7668 C   0  0  2  0  0  0  0  0  0  0  0  0
   23.2596  -20.0283  -16.4271 N   0  0  0  0  0  0  0  0  0  0  0  0
   21.8804  -20.5957  -14.5129 C   0  0  0  0  0  0  0  0  0  0  0  0
   22.5620  -21.6300  -14.3671 O   0  0  0  0  0  0  0  0  0  0  0  0
   20.8350  -20.5350   -9.6999 C   0  0  0  0  0  0  0  0  0  0  0  0
   20.9615  -19.8668  -11.0291 C   0  0  2  0  0  0  0  0  0  0  0  0
   19.8952  -18.7844  -11.1843 C   0  0  0  0  0  0  0  0  0  0  0  0
   20.8348  -20.7758  -12.2122 C   0  0  2  0  0  0  0  0  0  0  0  0
   21.0133  -20.1421  -13.4910 N   0  0  0  0  0  0  0  0  0  0  0  0
   19.5793  -21.5902  -12.1990 C   0  0  0  0  0  0  0  0  0  0  0  0
   18.6444  -21.2948  -12.9663 O   0  0  0  0  0  0  0  0  0  0  0  0
   19.4323  -22.6698  -11.3491 O   0  0  0  0  0  0  0  0  0  0  0  0
  2  1  1  0
  3  2  1  0
  4  5  1  0
  4  3  1  0
  5  6  1  6
  7  5  1  0
  8  7  2  0
 11 10  1  6
 10  9  1  0
 11 13  1  0
 11 12  1  0
 12  7  1  0
 13 19  1  0
 14 13  2  0
 16 15  1  1
 16 17  1  0
 18 20  1  0
 18 16  1  0
 18 19  1  6
 20 22  1  0
 21 20  2  0
M  END
$$$$
