MSV.pdb
     RDKit          3D

 22 21  0  0  1  0  0  0  0  0999 V2000
   28.6462  -18.7720  -22.4359 C   0  0  0  0  0  0  0  0  0  0  0  0
   27.4911  -18.7257  -21.0441 S   0  0  0  0  0  0  0  0  0  0  0  0
   28.2301  -17.9666  -19.5834 C   0  0  0  0  0  0  0  0  0  0  0  0
   27.2082  -17.8093  -18.4673 C   0  0  0  0  0  0  0  0  0  0  0  0
   26.9837  -19.1229  -17.7524 C   0  0  2  0  0  0  0  0  0  0  0  0
   26.4763  -20.0623  -18.7352 N   0  0  0  0  0  0  0  0  0  0  0  0
   25.9810  -18.9035  -16.6596 C   0  0  0  0  0  0  0  0  0  0  0  0
   26.1889  -18.0520  -15.7595 O   0  0  0  0  0  0  0  0  0  0  0  0
   21.4193  -19.2058  -15.2925 O   0  0  0  0  0  0  0  0  0  0  0  0
   22.4011  -19.4041  -16.2591 C   0  0  0  0  0  0  0  0  0  0  0  0
   23.7690  -19.3754  -15.5675 C   0  0  2  0  0  0  0  0  0  0  0  0
   24.7716  -19.6341  -16.5907 N   0  0  0  0  0  0  0  0  0  0  0  0
   23.8351  -20.3535  -14.4708 C   0  0  0  0  0  0  0  0  0  0  0  0
   23.9268  -21.5691  -14.7344 O   0  0  0  0  0  0  0  0  0  0  0  0
   26.3720  -20.4927  -11.6336 C   0  0  0  0  0  0  0  0  0  0  0  0
   25.0072  -20.4100  -11.0338 C   0  0  2  0  0  0  0  0  0  0  0  0
   24.8891  -21.3629   -9.8461 C   0  0  0  0  0  0  0  0  0  0  0  0
   23.8821  -20.7353  -11.9667 C   0  0  2  0  0  0  0  0  0  0  0  0
   23.7935  -19.8972  -13.1322 N   0  0  0  0  0  0  0  0  0  0  0  0
   22.5546  -20.8260  -11.2814 C   0  0  0  0  0  0  0  0  0  0  0  0
   21.7954  -19.8393  -11.2746 O   0  0  0  0  0  0  0  0  0  0  0  0
   22.1492  -21.9872  -10.6517 O   0  0  0  0  0  0  0  0  0  0  0  0
  2  1  1  0
  3  2  1  0
  4  5  1  0
  4  3  1  0
  5  6  1  6
  7  5  1  0
  8  7  2  0
 11 10  1  6
 10  9  1  0
 11 13  1  0
 11 12  1  0
 12  7  1  0
 13 19  1  0
 14 13  2  0
 16 15  1  6
 16 17  1  0
 18 20  1  0
 18 16  1  0
 18 19  1  6
 20 22  1  0
 21 20  2  0
M  END
$$$$
