MSV.pdb
     RDKit          3D

 22 21  0  0  1  0  0  0  0  0999 V2000
   15.8254   -9.4948  -20.3674 C   0  0  0  0  0  0  0  0  0  0  0  0
   17.3851  -10.0414  -21.1035 S   0  0  0  0  0  0  0  0  0  0  0  0
   18.3059  -11.1279  -19.9954 C   0  0  0  0  0  0  0  0  0  0  0  0
   18.7876  -10.3777  -18.7625 C   0  0  0  0  0  0  0  0  0  0  0  0
   19.5458  -11.2985  -17.8328 C   0  0  2  0  0  0  0  0  0  0  0  0
   18.6465  -12.3802  -17.4765 N   0  0  0  0  0  0  0  0  0  0  0  0
   19.9481  -10.5194  -16.6168 C   0  0  0  0  0  0  0  0  0  0  0  0
   19.0815  -10.0842  -15.8178 O   0  0  0  0  0  0  0  0  0  0  0  0
   23.8911  -10.1681  -15.6390 O   0  0  0  0  0  0  0  0  0  0  0  0
   22.9743  -10.0238  -14.6016 C   0  0  0  0  0  0  0  0  0  0  0  0
   21.6881   -9.4199  -15.1775 C   0  0  2  0  0  0  0  0  0  0  0  0
   21.3020  -10.2408  -16.3159 N   0  0  0  0  0  0  0  0  0  0  0  0
   21.8798   -8.0108  -15.5532 C   0  0  0  0  0  0  0  0  0  0  0  0
   22.1834   -7.7225  -16.7281 O   0  0  0  0  0  0  0  0  0  0  0  0
   20.9342   -3.4720  -15.7872 C   0  0  0  0  0  0  0  0  0  0  0  0
   20.7441   -4.9272  -15.5119 C   0  0  2  0  0  0  0  0  0  0  0  0
   19.4938   -5.1495  -14.6633 C   0  0  0  0  0  0  0  0  0  0  0  0
   21.8794   -5.5926  -14.7975 C   0  0  2  0  0  0  0  0  0  0  0  0
   21.7161   -7.0039  -14.5729 N   0  0  0  0  0  0  0  0  0  0  0  0
   22.2661   -4.8990  -13.5289 C   0  0  0  0  0  0  0  0  0  0  0  0
   21.9895   -5.4196  -12.4323 O   0  0  0  0  0  0  0  0  0  0  0  0
   22.9273   -3.6858  -13.5464 O   0  0  0  0  0  0  0  0  0  0  0  0
  2  1  1  0
  3  2  1  0
  4  5  1  0
  4  3  1  0
  5  6  1  1
  7  5  1  0
  8  7  2  0
 11 10  1  6
 10  9  1  0
 11 13  1  0
 11 12  1  0
 12  7  1  0
 13 19  1  0
 14 13  2  0
 16 15  1  1
 16 17  1  0
 18 20  1  0
 18 16  1  0
 18 19  1  1
 20 22  1  0
 21 20  2  0
M  END
$$$$
