MSV.pdb
     RDKit          3D

 22 21  0  0  1  0  0  0  0  0999 V2000
   28.9663  -14.3208  -15.6809 C   0  0  0  0  0  0  0  0  0  0  0  0
   27.9291  -12.8529  -15.8881 S   0  0  0  0  0  0  0  0  0  0  0  0
   26.2453  -13.2836  -16.3732 C   0  0  0  0  0  0  0  0  0  0  0  0
   25.3669  -12.0454  -16.4740 C   0  0  0  0  0  0  0  0  0  0  0  0
   23.9620  -12.4136  -16.8954 C   0  0  2  0  0  0  0  0  0  0  0  0
   24.0610  -13.0647  -18.1885 N   0  0  0  0  0  0  0  0  0  0  0  0
   23.1510  -11.1565  -16.9940 C   0  0  0  0  0  0  0  0  0  0  0  0
   23.2654  -10.3952  -17.9870 O   0  0  0  0  0  0  0  0  0  0  0  0
   20.1692  -10.4826  -14.3119 O   0  0  0  0  0  0  0  0  0  0  0  0
   20.0365   -9.8902  -15.5645 C   0  0  0  0  0  0  0  0  0  0  0  0
   21.4378   -9.5578  -16.0899 C   0  0  2  0  0  0  0  0  0  0  0  0
   22.2326  -10.7731  -15.9886 N   0  0  0  0  0  0  0  0  0  0  0  0
   22.0388   -8.4419  -15.3433 C   0  0  0  0  0  0  0  0  0  0  0  0
   22.8058   -8.6814  -14.3894 O   0  0  0  0  0  0  0  0  0  0  0  0
   23.2364   -3.6125  -15.4920 C   0  0  0  0  0  0  0  0  0  0  0  0
   22.5656   -4.8067  -16.0864 C   0  0  2  0  0  0  0  0  0  0  0  0
   21.2168   -4.4157  -16.6869 C   0  0  0  0  0  0  0  0  0  0  0  0
   22.3078   -5.9316  -15.1323 C   0  0  2  0  0  0  0  0  0  0  0  0
   21.7356   -7.1126  -15.7210 N   0  0  0  0  0  0  0  0  0  0  0  0
   21.5279   -5.5145  -13.9249 C   0  0  0  0  0  0  0  0  0  0  0  0
   20.3386   -5.8639  -13.8080 O   0  0  0  0  0  0  0  0  0  0  0  0
   22.1007   -4.7453  -12.9302 O   0  0  0  0  0  0  0  0  0  0  0  0
  2  1  1  0
  3  2  1  0
  4  5  1  0
  4  3  1  0
  5  6  1  6
  7  5  1  0
  8  7  2  0
 11 10  1  1
 10  9  1  0
 11 13  1  0
 11 12  1  0
 12  7  1  0
 13 19  1  0
 14 13  2  0
 16 15  1  1
 16 17  1  0
 18 20  1  0
 18 16  1  0
 18 19  1  6
 20 22  1  0
 21 20  2  0
M  END
$$$$
