MSV.pdb
     RDKit          3D

 22 21  0  0  1  0  0  0  0  0999 V2000
   24.5138  -26.1472  -17.9225 C   0  0  0  0  0  0  0  0  0  0  0  0
   26.1674  -25.9986  -18.6413 S   0  0  0  0  0  0  0  0  0  0  0  0
   27.1036  -24.6470  -17.8977 C   0  0  0  0  0  0  0  0  0  0  0  0
   26.1787  -23.5559  -17.3792 C   0  0  0  0  0  0  0  0  0  0  0  0
   26.9698  -22.4394  -16.7351 C   0  0  2  0  0  0  0  0  0  0  0  0
   28.0102  -23.0594  -15.9359 N   0  0  0  0  0  0  0  0  0  0  0  0
   26.0428  -21.6376  -15.8716 C   0  0  0  0  0  0  0  0  0  0  0  0
   25.8065  -21.9859  -14.6878 O   0  0  0  0  0  0  0  0  0  0  0  0
   24.3766  -18.2241  -17.3619 O   0  0  0  0  0  0  0  0  0  0  0  0
   24.5638  -18.2427  -15.9827 C   0  0  0  0  0  0  0  0  0  0  0  0
   24.4891  -19.6982  -15.5071 C   0  0  2  0  0  0  0  0  0  0  0  0
   25.3995  -20.4687  -16.3417 N   0  0  0  0  0  0  0  0  0  0  0  0
   23.1125  -20.2126  -15.5718 C   0  0  0  0  0  0  0  0  0  0  0  0
   22.7182  -20.7884  -16.6055 O   0  0  0  0  0  0  0  0  0  0  0  0
   21.4143  -22.6209  -13.1773 C   0  0  0  0  0  0  0  0  0  0  0  0
   20.5614  -21.3982  -13.2605 C   0  0  2  0  0  0  0  0  0  0  0  0
   19.0911  -21.7839  -13.4092 C   0  0  0  0  0  0  0  0  0  0  0  0
   20.8855  -20.4729  -14.3923 C   0  0  2  0  0  0  0  0  0  0  0  0
   22.2572  -20.0449  -14.4574 N   0  0  0  0  0  0  0  0  0  0  0  0
   19.9628  -19.2976  -14.4766 C   0  0  0  0  0  0  0  0  0  0  0  0
   20.3290  -18.1931  -14.0338 O   0  0  0  0  0  0  0  0  0  0  0  0
   18.7053  -19.4105  -15.0379 O   0  0  0  0  0  0  0  0  0  0  0  0
  2  1  1  0
  3  2  1  0
  4  5  1  0
  4  3  1  0
  5  6  1  1
  7  5  1  0
  8  7  2  0
 11 10  1  6
 10  9  1  0
 11 13  1  0
 11 12  1  0
 12  7  1  0
 13 19  1  0
 14 13  2  0
 16 15  1  6
 16 17  1  0
 18 20  1  0
 18 16  1  0
 18 19  1  1
 20 22  1  0
 21 20  2  0
M  END
$$$$
