MSV.pdb
     RDKit          3D

 22 21  0  0  1  0  0  0  0  0999 V2000
   18.8185   -7.5331  -21.7866 C   0  0  0  0  0  0  0  0  0  0  0  0
   19.7258   -8.9978  -22.3385 S   0  0  0  0  0  0  0  0  0  0  0  0
   19.8838  -10.2243  -21.0244 C   0  0  0  0  0  0  0  0  0  0  0  0
   19.9342   -9.5621  -19.6556 C   0  0  0  0  0  0  0  0  0  0  0  0
   20.1811  -10.5856  -18.5699 C   0  0  2  0  0  0  0  0  0  0  0  0
   19.0969  -11.5478  -18.6359 N   0  0  0  0  0  0  0  0  0  0  0  0
   20.1873   -9.8817  -17.2463 C   0  0  0  0  0  0  0  0  0  0  0  0
   19.1100   -9.5577  -16.6867 O   0  0  0  0  0  0  0  0  0  0  0  0
   23.6518   -9.5274  -15.0705 O   0  0  0  0  0  0  0  0  0  0  0  0
   22.4284   -9.5249  -14.4068 C   0  0  0  0  0  0  0  0  0  0  0  0
   21.3946   -8.8381  -15.3068 C   0  0  2  0  0  0  0  0  0  0  0  0
   21.3883   -9.5532  -16.5747 N   0  0  0  0  0  0  0  0  0  0  0  0
   21.7009   -7.4099  -15.4807 C   0  0  0  0  0  0  0  0  0  0  0  0
   22.4786   -7.0528  -16.3880 O   0  0  0  0  0  0  0  0  0  0  0  0
   18.9842   -4.5454  -15.6142 C   0  0  0  0  0  0  0  0  0  0  0  0
   20.0230   -4.2351  -14.5876 C   0  0  2  0  0  0  0  0  0  0  0  0
   20.4261   -2.7640  -14.6661 C   0  0  0  0  0  0  0  0  0  0  0  0
   21.2823   -5.0381  -14.6947 C   0  0  2  0  0  0  0  0  0  0  0  0
   21.1065   -6.4633  -14.6134 N   0  0  0  0  0  0  0  0  0  0  0  0
   22.3531   -4.5851  -13.7523 C   0  0  0  0  0  0  0  0  0  0  0  0
   22.4294   -5.0902  -12.6169 O   0  0  0  0  0  0  0  0  0  0  0  0
   23.2651   -3.6127  -14.1152 O   0  0  0  0  0  0  0  0  0  0  0  0
  2  1  1  0
  3  2  1  0
  4  5  1  0
  4  3  1  0
  5  6  1  1
  7  5  1  0
  8  7  2  0
 11 10  1  1
 10  9  1  0
 11 13  1  0
 11 12  1  0
 12  7  1  0
 13 19  1  0
 14 13  2  0
 16 15  1  6
 16 17  1  0
 18 20  1  0
 18 16  1  0
 18 19  1  1
 20 22  1  0
 21 20  2  0
M  END
$$$$
