MSV.pdb
     RDKit          3D

 22 21  0  0  1  0  0  0  0  0999 V2000
   29.2125  -21.8508   -4.3123 C   0  0  0  0  0  0  0  0  0  0  0  0
   27.9942  -20.5497   -4.0021 S   0  0  0  0  0  0  0  0  0  0  0  0
   27.9900  -19.3079   -5.3113 C   0  0  0  0  0  0  0  0  0  0  0  0
   27.6764  -19.9327   -6.6626 C   0  0  0  0  0  0  0  0  0  0  0  0
   27.8089  -18.9134   -7.7719 C   0  0  2  0  0  0  0  0  0  0  0  0
   27.2148  -17.6798   -7.2914 N   0  0  0  0  0  0  0  0  0  0  0  0
   27.0747  -19.4234   -8.9755 C   0  0  0  0  0  0  0  0  0  0  0  0
   25.8671  -19.1309   -9.1622 O   0  0  0  0  0  0  0  0  0  0  0  0
   28.4860  -22.3127  -11.5068 O   0  0  0  0  0  0  0  0  0  0  0  0
   28.2864  -21.0796  -12.1207 C   0  0  0  0  0  0  0  0  0  0  0  0
   27.2293  -20.3098  -11.3204 C   0  0  2  0  0  0  0  0  0  0  0  0
   27.6971  -20.2462   -9.9434 N   0  0  0  0  0  0  0  0  0  0  0  0
   25.9083  -20.9483  -11.4253 C   0  0  0  0  0  0  0  0  0  0  0  0
   25.5649  -21.7958  -10.5771 O   0  0  0  0  0  0  0  0  0  0  0  0
   21.3039  -20.4470  -13.2044 C   0  0  0  0  0  0  0  0  0  0  0  0
   22.7310  -20.0112  -13.1510 C   0  0  2  0  0  0  0  0  0  0  0  0
   23.2118  -19.5922  -14.5387 C   0  0  0  0  0  0  0  0  0  0  0  0
   23.6927  -21.0438  -12.6502 C   0  0  2  0  0  0  0  0  0  0  0  0
   25.0478  -20.5892  -12.4893 N   0  0  0  0  0  0  0  0  0  0  0  0
   23.6544  -22.3167  -13.4364 C   0  0  0  0  0  0  0  0  0  0  0  0
   24.6042  -22.6066  -14.1873 O   0  0  0  0  0  0  0  0  0  0  0  0
   22.5820  -23.1836  -13.3480 O   0  0  0  0  0  0  0  0  0  0  0  0
  2  1  1  0
  3  2  1  0
  4  5  1  0
  4  3  1  0
  5  6  1  1
  7  5  1  0
  8  7  2  0
 11 10  1  6
 10  9  1  0
 11 13  1  0
 11 12  1  0
 12  7  1  0
 13 19  1  0
 14 13  2  0
 16 15  1  6
 16 17  1  0
 18 20  1  0
 18 16  1  0
 18 19  1  6
 20 22  1  0
 21 20  2  0
M  END
$$$$
