MSV.pdb
     RDKit          3D

 22 21  0  0  1  0  0  0  0  0999 V2000
   27.6461  -18.4929   -6.9304 C   0  0  0  0  0  0  0  0  0  0  0  0
   28.4709  -20.0901   -6.7254 S   0  0  0  0  0  0  0  0  0  0  0  0
   28.0946  -21.2190   -8.0820 C   0  0  0  0  0  0  0  0  0  0  0  0
   27.1031  -20.5995   -9.0555 C   0  0  0  0  0  0  0  0  0  0  0  0
   26.8580  -21.5169  -10.2326 C   0  0  2  0  0  0  0  0  0  0  0  0
   28.1466  -21.7756  -10.8476 N   0  0  0  0  0  0  0  0  0  0  0  0
   25.9405  -20.8220  -11.1933 C   0  0  0  0  0  0  0  0  0  0  0  0
   25.9308  -19.5685  -11.2788 O   0  0  0  0  0  0  0  0  0  0  0  0
   24.1209  -23.0250  -14.0192 O   0  0  0  0  0  0  0  0  0  0  0  0
   24.3550  -21.6889  -14.3314 C   0  0  0  0  0  0  0  0  0  0  0  0
   24.2412  -20.8670  -13.0422 C   0  0  2  0  0  0  0  0  0  0  0  0
   25.0549  -21.5338  -12.0361 N   0  0  0  0  0  0  0  0  0  0  0  0
   22.8399  -20.7303  -12.6163 C   0  0  0  0  0  0  0  0  0  0  0  0
   22.4019  -21.4526  -11.6987 O   0  0  0  0  0  0  0  0  0  0  0  0
   20.5000  -17.3340  -11.8654 C   0  0  0  0  0  0  0  0  0  0  0  0
   20.1394  -18.1686  -13.0498 C   0  0  2  0  0  0  0  0  0  0  0  0
   18.6234  -18.2094  -13.2304 C   0  0  0  0  0  0  0  0  0  0  0  0
   20.6096  -19.5891  -12.9934 C   0  0  2  0  0  0  0  0  0  0  0  0
   22.0108  -19.7793  -13.2566 N   0  0  0  0  0  0  0  0  0  0  0  0
   19.7861  -20.5172  -13.8302 C   0  0  0  0  0  0  0  0  0  0  0  0
   18.7532  -21.0239  -13.3547 O   0  0  0  0  0  0  0  0  0  0  0  0
   20.1481  -20.8270  -15.1273 O   0  0  0  0  0  0  0  0  0  0  0  0
  2  1  1  0
  3  2  1  0
  4  5  1  0
  4  3  1  0
  5  6  1  6
  7  5  1  0
  8  7  2  0
 11 10  1  6
 10  9  1  0
 11 13  1  0
 11 12  1  0
 12  7  1  0
 13 19  1  0
 14 13  2  0
 16 15  1  1
 16 17  1  0
 18 20  1  0
 18 16  1  0
 18 19  1  6
 20 22  1  0
 21 20  2  0
M  END
$$$$
