MSV.pdb
     RDKit          3D

 22 21  0  0  1  0  0  0  0  0999 V2000
   24.7504  -20.2184   -7.3181 C   0  0  0  0  0  0  0  0  0  0  0  0
   26.4463  -19.9291   -7.8780 S   0  0  0  0  0  0  0  0  0  0  0  0
   26.8457  -20.9056   -9.3419 C   0  0  0  0  0  0  0  0  0  0  0  0
   25.8884  -20.6022  -10.4848 C   0  0  0  0  0  0  0  0  0  0  0  0
   26.2035  -21.4552  -11.6933 C   0  0  2  0  0  0  0  0  0  0  0  0
   27.6333  -21.3602  -11.9216 N   0  0  0  0  0  0  0  0  0  0  0  0
   25.4409  -20.9167  -12.8664 C   0  0  0  0  0  0  0  0  0  0  0  0
   25.7604  -19.8207  -13.3911 O   0  0  0  0  0  0  0  0  0  0  0  0
   24.2308  -23.3408  -15.3311 O   0  0  0  0  0  0  0  0  0  0  0  0
   24.1590  -22.0286  -15.7899 C   0  0  0  0  0  0  0  0  0  0  0  0
   23.6738  -21.1422  -14.6369 C   0  0  2  0  0  0  0  0  0  0  0  0
   24.3417  -21.6064  -13.4296 N   0  0  0  0  0  0  0  0  0  0  0  0
   22.2091  -21.1852  -14.5082 C   0  0  0  0  0  0  0  0  0  0  0  0
   21.6895  -21.8879  -13.6184 O   0  0  0  0  0  0  0  0  0  0  0  0
   17.8579  -19.0884  -15.7619 C   0  0  0  0  0  0  0  0  0  0  0  0
   19.3509  -19.1003  -15.7562 C   0  0  2  0  0  0  0  0  0  0  0  0
   19.8918  -18.6826  -17.1221 C   0  0  0  0  0  0  0  0  0  0  0  0
   19.9748  -20.4208  -15.4259 C   0  0  2  0  0  0  0  0  0  0  0  0
   21.4129  -20.4268  -15.3985 N   0  0  0  0  0  0  0  0  0  0  0  0
   19.4597  -21.5445  -16.2697 C   0  0  0  0  0  0  0  0  0  0  0  0
   20.1231  -21.9353  -17.2480 O   0  0  0  0  0  0  0  0  0  0  0  0
   18.2567  -22.1623  -15.9864 O   0  0  0  0  0  0  0  0  0  0  0  0
  2  1  1  0
  3  2  1  0
  4  5  1  0
  4  3  1  0
  5  6  1  6
  7  5  1  0
  8  7  2  0
 11 10  1  6
 10  9  1  0
 11 13  1  0
 11 12  1  0
 12  7  1  0
 13 19  1  0
 14 13  2  0
 16 15  1  6
 16 17  1  0
 18 20  1  0
 18 16  1  0
 18 19  1  6
 20 22  1  0
 21 20  2  0
M  END
$$$$
