MSV.pdb
     RDKit          3D

 22 21  0  0  1  0  0  0  0  0999 V2000
   29.0282  -11.5935  -16.7902 C   0  0  0  0  0  0  0  0  0  0  0  0
   28.5334  -12.9353  -15.6820 S   0  0  0  0  0  0  0  0  0  0  0  0
   26.7918  -13.3631  -15.8815 C   0  0  0  0  0  0  0  0  0  0  0  0
   25.9679  -12.1478  -16.2803 C   0  0  0  0  0  0  0  0  0  0  0  0
   24.5343  -12.5373  -16.5632 C   0  0  2  0  0  0  0  0  0  0  0  0
   24.5600  -13.5022  -17.6467 N   0  0  0  0  0  0  0  0  0  0  0  0
   23.7784  -11.3066  -16.9653 C   0  0  0  0  0  0  0  0  0  0  0  0
   24.1798  -10.5886  -17.9150 O   0  0  0  0  0  0  0  0  0  0  0  0
   20.1477  -10.5488  -15.3020 O   0  0  0  0  0  0  0  0  0  0  0  0
   20.3840   -9.9903  -16.5549 C   0  0  0  0  0  0  0  0  0  0  0  0
   21.8822   -9.6862  -16.6708 C   0  0  2  0  0  0  0  0  0  0  0  0
   22.5953  -10.9010  -16.3041 N   0  0  0  0  0  0  0  0  0  0  0  0
   22.2640   -8.5455  -15.8240 C   0  0  0  0  0  0  0  0  0  0  0  0
   22.7036   -8.7514  -14.6751 O   0  0  0  0  0  0  0  0  0  0  0  0
   24.1552   -5.2018  -17.2465 C   0  0  0  0  0  0  0  0  0  0  0  0
   22.9403   -4.8935  -16.4352 C   0  0  2  0  0  0  0  0  0  0  0  0
   23.2169   -3.7319  -15.4829 C   0  0  0  0  0  0  0  0  0  0  0  0
   22.4276   -6.0271  -15.6021 C   0  0  2  0  0  0  0  0  0  0  0  0
   22.1257   -7.2311  -16.3288 N   0  0  0  0  0  0  0  0  0  0  0  0
   21.2798   -5.6413  -14.7225 C   0  0  0  0  0  0  0  0  0  0  0  0
   20.1135   -5.7695  -15.1389 O   0  0  0  0  0  0  0  0  0  0  0  0
   21.4857   -5.1425  -13.4505 O   0  0  0  0  0  0  0  0  0  0  0  0
  2  1  1  0
  3  2  1  0
  4  5  1  0
  4  3  1  0
  5  6  1  6
  7  5  1  0
  8  7  2  0
 11 10  1  1
 10  9  1  0
 11 13  1  0
 11 12  1  0
 12  7  1  0
 13 19  1  0
 14 13  2  0
 16 15  1  1
 16 17  1  0
 18 20  1  0
 18 16  1  0
 18 19  1  6
 20 22  1  0
 21 20  2  0
M  END
$$$$
