YNT.pdb
     RDKit          3D

 28 28  0  0  1  0  0  0  0  0999 V2000
    5.5145  -11.0606   27.3682 O   0  0  0  0  0  0  0  0  0  0  0  0
    6.2584  -12.0808   26.7951 C   0  0  0  0  0  0  0  0  0  0  0  0
    6.6666  -11.9237   25.4701 C   0  0  0  0  0  0  0  0  0  0  0  0
    7.4130  -12.9137   24.8471 C   0  0  0  0  0  0  0  0  0  0  0  0
    7.7357  -14.0352   25.5547 C   0  0  0  0  0  0  0  0  0  0  0  0
    8.5338  -15.1243   24.9365 C   0  0  0  0  0  0  0  0  0  0  0  0
    7.6747  -15.9703   24.0205 C   0  0  2  0  0  0  0  0  0  0  0  0
    6.7488  -16.7850   24.7683 N   0  0  0  0  0  0  0  0  0  0  0  0
    8.5430  -16.7969   23.1599 C   0  0  0  0  0  0  0  0  0  0  0  0
    8.6914  -18.0377   23.4134 O   0  0  0  0  0  0  0  0  0  0  0  0
    7.3297  -14.1951   26.8782 C   0  0  0  0  0  0  0  0  0  0  0  0
    6.5961  -13.2243   27.4936 C   0  0  0  0  0  0  0  0  0  0  0  0
   10.3775  -18.5363   18.1321 N   0  0  0  0  0  0  0  0  0  0  0  0
   10.9107  -17.4149   18.8235 C   0  0  0  0  0  0  0  0  0  0  0  0
   12.1313  -17.1222   18.5684 O   0  0  0  0  0  0  0  0  0  0  0  0
   10.1123  -16.6284   19.7808 C   0  0  0  0  0  0  0  0  0  0  0  0
   10.0654  -17.1650   21.1685 C   0  0  2  0  0  0  0  0  0  0  0  0
    9.2513  -16.2999   22.0314 N   0  0  0  0  0  0  0  0  0  0  0  0
   11.3563  -17.4730   21.7980 C   0  0  0  0  0  0  0  0  0  0  0  0
   12.1007  -18.3299   21.2168 O   0  0  0  0  0  0  0  0  0  0  0  0
   14.3444  -15.4784   22.2328 C   0  0  0  0  0  0  0  0  0  0  0  0
   14.0898  -16.0667   23.6002 C   0  0  1  0  0  0  0  0  0  0  0  0
   13.6048  -15.0888   24.4341 O   0  0  0  0  0  0  0  0  0  0  0  0
   13.1729  -17.2722   23.5278 C   0  0  2  0  0  0  0  0  0  0  0  0
   11.8805  -16.9274   22.9785 N   0  0  0  0  0  0  0  0  0  0  0  0
   13.1453  -17.8839   24.8505 C   0  0  0  0  0  0  0  0  0  0  0  0
   12.0640  -17.9348   25.4770 O   0  0  0  0  0  0  0  0  0  0  0  0
   14.2976  -18.3997   25.4025 O   0  0  0  0  0  0  0  0  0  0  0  0
  1  2  1  0
  2 12  2  0
  3  4  2  0
  3  2  1  0
  4  5  1  0
  5  6  1  0
  5 11  2  0
  7  8  1  1
  7  6  1  0
  9  7  1  0
  9 10  2  0
 12 11  1  0
 13 14  1  0
 14 16  1  0
 14 15  2  0
 17 16  1  6
 17 18  1  0
 17 19  1  0
 18  9  1  0
 19 20  2  0
 19 25  1  0
 22 21  1  6
 22 23  1  0
 24 22  1  0
 24 25  1  1
 26 28  1  0
 26 24  1  0
 27 26  2  0
M  END
$$$$
