YNT.pdb
     RDKit          3D

 28 28  0  0  1  0  0  0  0  0999 V2000
    5.5632  -10.1827   26.9049 O   0  0  0  0  0  0  0  0  0  0  0  0
    6.0080  -11.4563   26.5845 C   0  0  0  0  0  0  0  0  0  0  0  0
    7.2138  -11.5697   25.8916 C   0  0  0  0  0  0  0  0  0  0  0  0
    7.7055  -12.8202   25.5453 C   0  0  0  0  0  0  0  0  0  0  0  0
    6.9881  -13.9271   25.8954 C   0  0  0  0  0  0  0  0  0  0  0  0
    7.4697  -15.2890   25.5508 C   0  0  0  0  0  0  0  0  0  0  0  0
    6.7114  -15.8459   24.3645 C   0  0  2  0  0  0  0  0  0  0  0  0
    5.9467  -17.0138   24.7273 N   0  0  0  0  0  0  0  0  0  0  0  0
    7.6590  -16.1428   23.2729 C   0  0  0  0  0  0  0  0  0  0  0  0
    8.1294  -17.3209   23.1438 O   0  0  0  0  0  0  0  0  0  0  0  0
    5.7836  -13.8173   26.5876 C   0  0  0  0  0  0  0  0  0  0  0  0
    5.2974  -12.5901   26.9295 C   0  0  0  0  0  0  0  0  0  0  0  0
    7.1657  -13.0834   19.4703 N   0  0  0  0  0  0  0  0  0  0  0  0
    7.8767  -14.3132   19.5144 C   0  0  0  0  0  0  0  0  0  0  0  0
    7.3506  -15.2929   18.8789 O   0  0  0  0  0  0  0  0  0  0  0  0
    9.1472  -14.4615   20.2469 C   0  0  0  0  0  0  0  0  0  0  0  0
    9.1459  -15.4816   21.3310 C   0  0  2  0  0  0  0  0  0  0  0  0
    8.1037  -15.1840   22.3214 N   0  0  0  0  0  0  0  0  0  0  0  0
   10.4342  -15.7473   21.9849 C   0  0  0  0  0  0  0  0  0  0  0  0
   10.5685  -15.3583   23.1919 O   0  0  0  0  0  0  0  0  0  0  0  0
   11.3699  -17.3886   24.2695 C   0  0  0  0  0  0  0  0  0  0  0  0
   12.2863  -17.9288   23.1974 C   0  0  1  0  0  0  0  0  0  0  0  0
   11.6895  -19.0054   22.5878 O   0  0  0  0  0  0  0  0  0  0  0  0
   12.6845  -16.8512   22.2079 C   0  0  2  0  0  0  0  0  0  0  0  0
   11.5520  -16.3912   21.4354 N   0  0  0  0  0  0  0  0  0  0  0  0
   13.8050  -17.3623   21.4284 C   0  0  0  0  0  0  0  0  0  0  0  0
   13.6357  -17.6275   20.2179 O   0  0  0  0  0  0  0  0  0  0  0  0
   15.0354  -17.5501   22.0194 O   0  0  0  0  0  0  0  0  0  0  0  0
  1  2  1  0
  2 12  2  0
  3  4  2  0
  3  2  1  0
  4  5  1  0
  5  6  1  0
  5 11  2  0
  7  8  1  1
  7  6  1  0
  9  7  1  0
  9 10  2  0
 12 11  1  0
 13 14  1  0
 14 16  1  0
 14 15  2  0
 17 16  1  6
 17 18  1  0
 17 19  1  0
 18  9  1  0
 19 20  2  0
 19 25  1  0
 22 21  1  1
 22 23  1  0
 24 22  1  0
 24 25  1  6
 26 28  1  0
 26 24  1  0
 27 26  2  0
M  END
$$$$
