YNT.pdb
     RDKit          3D

 28 28  0  0  1  0  0  0  0  0999 V2000
    5.8963  -11.8275   28.4006 O   0  0  0  0  0  0  0  0  0  0  0  0
    6.4640  -12.4517   27.3002 C   0  0  0  0  0  0  0  0  0  0  0  0
    7.6336  -13.1859   27.4997 C   0  0  0  0  0  0  0  0  0  0  0  0
    8.2441  -13.8307   26.4334 C   0  0  0  0  0  0  0  0  0  0  0  0
    7.6783  -13.7307   25.1955 C   0  0  0  0  0  0  0  0  0  0  0  0
    8.2897  -14.4023   24.0205 C   0  0  0  0  0  0  0  0  0  0  0  0
    7.2723  -15.2610   23.2993 C   0  0  2  0  0  0  0  0  0  0  0  0
    7.0683  -16.5185   23.9755 N   0  0  0  0  0  0  0  0  0  0  0  0
    7.7059  -15.4663   21.9037 C   0  0  0  0  0  0  0  0  0  0  0  0
    8.0989  -16.6185   21.5244 O   0  0  0  0  0  0  0  0  0  0  0  0
    6.5101  -12.9983   24.9929 C   0  0  0  0  0  0  0  0  0  0  0  0
    5.9076  -12.3634   26.0384 C   0  0  0  0  0  0  0  0  0  0  0  0
    7.1979  -14.2791   16.3801 N   0  0  0  0  0  0  0  0  0  0  0  0
    8.1381  -13.6547   17.2439 C   0  0  0  0  0  0  0  0  0  0  0  0
    9.2213  -13.2442   16.6974 O   0  0  0  0  0  0  0  0  0  0  0  0
    7.8891  -13.4853   18.6868 C   0  0  0  0  0  0  0  0  0  0  0  0
    8.0910  -14.7031   19.5187 C   0  0  2  0  0  0  0  0  0  0  0  0
    7.7200  -14.4438   20.9155 N   0  0  0  0  0  0  0  0  0  0  0  0
    9.4091  -15.3459   19.4339 C   0  0  0  0  0  0  0  0  0  0  0  0
    9.6260  -16.1053   18.4328 O   0  0  0  0  0  0  0  0  0  0  0  0
   12.7709  -13.8024   19.1046 C   0  0  0  0  0  0  0  0  0  0  0  0
   12.8938  -14.8290   20.2054 C   0  0  1  0  0  0  0  0  0  0  0  0
   12.9635  -14.1896   21.4192 O   0  0  0  0  0  0  0  0  0  0  0  0
   11.7693  -15.8445   20.1502 C   0  0  2  0  0  0  0  0  0  0  0  0
   10.4776  -15.2209   20.3332 N   0  0  0  0  0  0  0  0  0  0  0  0
   12.0888  -16.9063   21.0963 C   0  0  0  0  0  0  0  0  0  0  0  0
   11.3260  -17.1093   22.0664 O   0  0  0  0  0  0  0  0  0  0  0  0
   13.2180  -17.6765   20.9222 O   0  0  0  0  0  0  0  0  0  0  0  0
  1  2  1  0
  2 12  2  0
  3  4  2  0
  3  2  1  0
  4  5  1  0
  5  6  1  0
  5 11  2  0
  7  8  1  1
  7  6  1  0
  9  7  1  0
  9 10  2  0
 12 11  1  0
 13 14  1  0
 14 16  1  0
 14 15  2  0
 17 16  1  6
 17 18  1  0
 17 19  1  0
 18  9  1  0
 19 20  2  0
 19 25  1  0
 22 21  1  6
 22 23  1  0
 24 22  1  0
 24 25  1  1
 26 28  1  0
 26 24  1  0
 27 26  2  0
M  END
$$$$
