YNT.pdb
     RDKit          3D

 28 28  0  0  1  0  0  0  0  0999 V2000
    8.0441  -13.1831   15.8947 O   0  0  0  0  0  0  0  0  0  0  0  0
    7.7969  -13.5580   17.2066 C   0  0  0  0  0  0  0  0  0  0  0  0
    8.0765  -12.6319   18.2121 C   0  0  0  0  0  0  0  0  0  0  0  0
    7.8482  -12.9547   19.5422 C   0  0  0  0  0  0  0  0  0  0  0  0
    7.3480  -14.1888   19.8411 C   0  0  0  0  0  0  0  0  0  0  0  0
    7.0838  -14.5848   21.2478 C   0  0  0  0  0  0  0  0  0  0  0  0
    8.3783  -14.8575   21.9844 C   0  0  2  0  0  0  0  0  0  0  0  0
    9.2901  -15.6336   21.1804 N   0  0  0  0  0  0  0  0  0  0  0  0
    8.0817  -15.5329   23.2626 C   0  0  0  0  0  0  0  0  0  0  0  0
    7.1781  -15.0666   24.0320 O   0  0  0  0  0  0  0  0  0  0  0  0
    7.0676  -15.1159   18.8393 C   0  0  0  0  0  0  0  0  0  0  0  0
    7.2906  -14.8022   17.5312 C   0  0  0  0  0  0  0  0  0  0  0  0
    6.9425  -20.0909   26.6007 N   0  0  0  0  0  0  0  0  0  0  0  0
    8.1663  -19.4837   26.2091 C   0  0  0  0  0  0  0  0  0  0  0  0
    9.1404  -19.5934   27.0335 O   0  0  0  0  0  0  0  0  0  0  0  0
    8.3149  -18.7669   24.9297 C   0  0  0  0  0  0  0  0  0  0  0  0
    8.4917  -17.2929   25.0383 C   0  0  2  0  0  0  0  0  0  0  0  0
    8.7487  -16.7032   23.7184 N   0  0  0  0  0  0  0  0  0  0  0  0
    9.4696  -16.8193   26.0268 C   0  0  0  0  0  0  0  0  0  0  0  0
   10.7044  -16.9699   25.7464 O   0  0  0  0  0  0  0  0  0  0  0  0
    9.8782  -13.2661   27.6502 C   0  0  0  0  0  0  0  0  0  0  0  0
    9.8488  -14.3398   28.7120 C   0  0  1  0  0  0  0  0  0  0  0  0
    8.6151  -14.3500   29.3158 O   0  0  0  0  0  0  0  0  0  0  0  0
   10.2274  -15.6949   28.1466 C   0  0  2  0  0  0  0  0  0  0  0  0
    9.2061  -16.2077   27.2608 N   0  0  0  0  0  0  0  0  0  0  0  0
   10.5710  -16.5591   29.2689 C   0  0  0  0  0  0  0  0  0  0  0  0
    9.9188  -17.6106   29.4514 O   0  0  0  0  0  0  0  0  0  0  0  0
   11.6025  -16.2205   30.1174 O   0  0  0  0  0  0  0  0  0  0  0  0
  1  2  1  0
  2 12  2  0
  3  4  2  0
  3  2  1  0
  4  5  1  0
  5  6  1  0
  5 11  2  0
  7  8  1  6
  7  6  1  0
  9  7  1  0
  9 10  2  0
 12 11  1  0
 13 14  1  0
 14 16  1  0
 14 15  2  0
 17 16  1  6
 17 18  1  0
 17 19  1  0
 18  9  1  0
 19 20  2  0
 19 25  1  0
 22 21  1  6
 22 23  1  0
 24 22  1  0
 24 25  1  1
 26 28  1  0
 26 24  1  0
 27 26  2  0
M  END
$$$$
