YNT.pdb
     RDKit          3D

 28 28  0  0  1  0  0  0  0  0999 V2000
    7.4020  -13.9715   15.3534 O   0  0  0  0  0  0  0  0  0  0  0  0
    7.6449  -13.7785   16.7049 C   0  0  0  0  0  0  0  0  0  0  0  0
    8.8524  -13.1826   17.0707 C   0  0  0  0  0  0  0  0  0  0  0  0
    9.1472  -12.9659   18.4092 C   0  0  0  0  0  0  0  0  0  0  0  0
    8.2360  -13.3460   19.3514 C   0  0  0  0  0  0  0  0  0  0  0  0
    8.5006  -13.1358   20.7974 C   0  0  0  0  0  0  0  0  0  0  0  0
    9.2628  -14.3059   21.3827 C   0  0  2  0  0  0  0  0  0  0  0  0
    8.9488  -15.5361   20.6985 N   0  0  0  0  0  0  0  0  0  0  0  0
    8.9737  -14.4060   22.8265 C   0  0  0  0  0  0  0  0  0  0  0  0
    9.4297  -13.5250   23.6275 O   0  0  0  0  0  0  0  0  0  0  0  0
    7.0290  -13.9412   18.9893 C   0  0  0  0  0  0  0  0  0  0  0  0
    6.7361  -14.1557   17.6750 C   0  0  0  0  0  0  0  0  0  0  0  0
    6.0004  -14.2918   27.2602 N   0  0  0  0  0  0  0  0  0  0  0  0
    6.0386  -15.5001   26.5129 C   0  0  0  0  0  0  0  0  0  0  0  0
    5.6966  -16.5632   27.1402 O   0  0  0  0  0  0  0  0  0  0  0  0
    6.4472  -15.5370   25.0971 C   0  0  0  0  0  0  0  0  0  0  0  0
    7.9150  -15.4975   24.8530 C   0  0  2  0  0  0  0  0  0  0  0  0
    8.1997  -15.4445   23.4135 N   0  0  0  0  0  0  0  0  0  0  0  0
    8.7190  -16.5357   25.5116 C   0  0  0  0  0  0  0  0  0  0  0  0
    8.6114  -16.6432   26.7777 O   0  0  0  0  0  0  0  0  0  0  0  0
    8.6761  -20.3325   25.2538 C   0  0  0  0  0  0  0  0  0  0  0  0
   10.0827  -19.8426   25.0034 C   0  0  1  0  0  0  0  0  0  0  0  0
   10.3377  -19.8594   23.6538 O   0  0  0  0  0  0  0  0  0  0  0  0
   10.3164  -18.4770   25.6193 C   0  0  2  0  0  0  0  0  0  0  0  0
    9.6025  -17.4409   24.9067 N   0  0  0  0  0  0  0  0  0  0  0  0
   11.7572  -18.2826   25.7240 C   0  0  0  0  0  0  0  0  0  0  0  0
   12.2866  -17.3134   25.1368 O   0  0  0  0  0  0  0  0  0  0  0  0
   12.5252  -19.1568   26.4619 O   0  0  0  0  0  0  0  0  0  0  0  0
  1  2  1  0
  2 12  2  0
  3  4  2  0
  3  2  1  0
  4  5  1  0
  5  6  1  0
  5 11  2  0
  7  8  1  6
  7  6  1  0
  9  7  1  0
  9 10  2  0
 12 11  1  0
 13 14  1  0
 14 16  1  0
 14 15  2  0
 17 16  1  6
 17 18  1  0
 17 19  1  0
 18  9  1  0
 19 20  2  0
 19 25  1  0
 22 21  1  6
 22 23  1  0
 24 22  1  0
 24 25  1  6
 26 28  1  0
 26 24  1  0
 27 26  2  0
M  END
$$$$
