YNT.pdb
     RDKit          3D

 28 28  0  0  1  0  0  0  0  0999 V2000
    8.4790  -12.8427   17.8996 O   0  0  0  0  0  0  0  0  0  0  0  0
    8.2242  -13.3620   19.1599 C   0  0  0  0  0  0  0  0  0  0  0  0
    9.2353  -14.0999   19.7765 C   0  0  0  0  0  0  0  0  0  0  0  0
    9.0340  -14.6426   21.0376 C   0  0  0  0  0  0  0  0  0  0  0  0
    7.8341  -14.4394   21.6553 C   0  0  0  0  0  0  0  0  0  0  0  0
    7.5669  -14.9967   23.0056 C   0  0  0  0  0  0  0  0  0  0  0  0
    7.1869  -16.4599   22.9205 C   0  0  2  0  0  0  0  0  0  0  0  0
    5.7632  -16.6449   23.0582 N   0  0  0  0  0  0  0  0  0  0  0  0
    7.9282  -17.2191   23.9463 C   0  0  0  0  0  0  0  0  0  0  0  0
    7.3391  -17.5798   25.0180 O   0  0  0  0  0  0  0  0  0  0  0  0
    6.8224  -13.7028   21.0422 C   0  0  0  0  0  0  0  0  0  0  0  0
    7.0167  -13.1680   19.8031 C   0  0  0  0  0  0  0  0  0  0  0  0
   10.6904  -21.2003   25.9559 N   0  0  0  0  0  0  0  0  0  0  0  0
   11.5178  -20.2590   25.2856 C   0  0  0  0  0  0  0  0  0  0  0  0
   12.7681  -20.3108   25.5586 O   0  0  0  0  0  0  0  0  0  0  0  0
   10.9765  -19.2761   24.3298 C   0  0  0  0  0  0  0  0  0  0  0  0
   10.0170  -18.2907   24.8991 C   0  0  2  0  0  0  0  0  0  0  0  0
    9.2955  -17.5918   23.8281 N   0  0  0  0  0  0  0  0  0  0  0  0
   10.5562  -17.3391   25.8796 C   0  0  0  0  0  0  0  0  0  0  0  0
   11.7742  -16.9867   25.7437 O   0  0  0  0  0  0  0  0  0  0  0  0
   10.2468  -13.5122   28.8718 C   0  0  0  0  0  0  0  0  0  0  0  0
    9.5607  -14.6003   28.0804 C   0  0  1  0  0  0  0  0  0  0  0  0
    9.0899  -14.0778   26.9004 O   0  0  0  0  0  0  0  0  0  0  0  0
   10.4726  -15.7919   27.8623 C   0  0  2  0  0  0  0  0  0  0  0  0
    9.8821  -16.7581   26.9632 N   0  0  0  0  0  0  0  0  0  0  0  0
   10.8447  -16.3067   29.1742 C   0  0  0  0  0  0  0  0  0  0  0  0
   10.5142  -17.4711   29.4890 O   0  0  0  0  0  0  0  0  0  0  0  0
   11.5524  -15.5187   30.0555 O   0  0  0  0  0  0  0  0  0  0  0  0
  1  2  1  0
  2 12  2  0
  3  4  2  0
  3  2  1  0
  4  5  1  0
  5  6  1  0
  5 11  2  0
  7  8  1  1
  7  6  1  0
  9  7  1  0
  9 10  2  0
 12 11  1  0
 13 14  1  0
 14 16  1  0
 14 15  2  0
 17 16  1  6
 17 18  1  0
 17 19  1  0
 18  9  1  0
 19 20  2  0
 19 25  1  0
 22 21  1  6
 22 23  1  0
 24 22  1  0
 24 25  1  6
 26 28  1  0
 26 24  1  0
 27 26  2  0
M  END
$$$$
