YNT.pdb
     RDKit          3D

 28 28  0  0  1  0  0  0  0  0999 V2000
   10.3438  -14.2522   30.0326 O   0  0  0  0  0  0  0  0  0  0  0  0
   10.1969  -14.4507   28.6681 C   0  0  0  0  0  0  0  0  0  0  0  0
   11.0961  -15.3091   28.0346 C   0  0  0  0  0  0  0  0  0  0  0  0
   10.9951  -15.5437   26.6706 C   0  0  0  0  0  0  0  0  0  0  0  0
   10.0041  -14.9202   25.9695 C   0  0  0  0  0  0  0  0  0  0  0  0
    9.8503  -15.1373   24.5085 C   0  0  0  0  0  0  0  0  0  0  0  0
    8.6886  -16.0645   24.2195 C   0  0  2  0  0  0  0  0  0  0  0  0
    8.9464  -17.3998   24.6998 N   0  0  0  0  0  0  0  0  0  0  0  0
    8.4071  -16.0604   22.7709 C   0  0  0  0  0  0  0  0  0  0  0  0
    8.7498  -17.0583   22.0550 O   0  0  0  0  0  0  0  0  0  0  0  0
    9.1043  -14.0625   26.5993 C   0  0  0  0  0  0  0  0  0  0  0  0
    9.2005  -13.8297   27.9394 C   0  0  0  0  0  0  0  0  0  0  0  0
    6.6949  -12.5689   18.0578 N   0  0  0  0  0  0  0  0  0  0  0  0
    6.4386  -13.7759   18.7629 C   0  0  0  0  0  0  0  0  0  0  0  0
    6.0016  -14.7563   18.0641 O   0  0  0  0  0  0  0  0  0  0  0  0
    6.6601  -13.9012   20.2148 C   0  0  0  0  0  0  0  0  0  0  0  0
    7.6137  -14.9670   20.6274 C   0  0  2  0  0  0  0  0  0  0  0  0
    7.7615  -14.9930   22.0881 N   0  0  0  0  0  0  0  0  0  0  0  0
    8.9247  -14.9685   19.9648 C   0  0  0  0  0  0  0  0  0  0  0  0
    8.9366  -15.0507   18.6923 O   0  0  0  0  0  0  0  0  0  0  0  0
   11.4007  -12.5165   19.4219 C   0  0  0  0  0  0  0  0  0  0  0  0
   12.2204  -13.6842   19.9174 C   0  0  1  0  0  0  0  0  0  0  0  0
   12.6840  -13.4118   21.1814 O   0  0  0  0  0  0  0  0  0  0  0  0
   11.4386  -14.9819   19.8551 C   0  0  2  0  0  0  0  0  0  0  0  0
   10.1862  -14.8852   20.5712 N   0  0  0  0  0  0  0  0  0  0  0  0
   12.3265  -16.0516   20.2931 C   0  0  0  0  0  0  0  0  0  0  0  0
   13.3562  -16.3007   19.6283 O   0  0  0  0  0  0  0  0  0  0  0  0
   12.0337  -16.7785   21.4264 O   0  0  0  0  0  0  0  0  0  0  0  0
  1  2  1  0
  2 12  2  0
  3  4  2  0
  3  2  1  0
  4  5  1  0
  5  6  1  0
  5 11  2  0
  7  8  1  6
  7  6  1  0
  9  7  1  0
  9 10  2  0
 12 11  1  0
 13 14  1  0
 14 16  1  0
 14 15  2  0
 17 16  1  1
 17 18  1  0
 17 19  1  0
 18  9  1  0
 19 20  2  0
 19 25  1  0
 22 21  1  1
 22 23  1  0
 24 22  1  0
 24 25  1  1
 26 28  1  0
 26 24  1  0
 27 26  2  0
M  END
$$$$
