YNT.pdb
     RDKit          3D

 28 28  0  0  1  0  0  0  0  0999 V2000
    5.3007  -11.2791   28.4049 O   0  0  0  0  0  0  0  0  0  0  0  0
    6.1383  -11.9232   27.5070 C   0  0  0  0  0  0  0  0  0  0  0  0
    5.5521  -12.7504   26.5483 C   0  0  0  0  0  0  0  0  0  0  0  0
    6.3432  -13.4195   25.6253 C   0  0  0  0  0  0  0  0  0  0  0  0
    7.6965  -13.2509   25.6768 C   0  0  0  0  0  0  0  0  0  0  0  0
    8.5889  -13.9422   24.7119 C   0  0  0  0  0  0  0  0  0  0  0  0
    7.9141  -15.1689   24.1354 C   0  0  2  0  0  0  0  0  0  0  0  0
    7.8944  -16.2556   25.0834 N   0  0  0  0  0  0  0  0  0  0  0  0
    8.5936  -15.5598   22.8851 C   0  0  0  0  0  0  0  0  0  0  0  0
    9.0085  -14.6616   22.0807 O   0  0  0  0  0  0  0  0  0  0  0  0
    8.2850  -12.4253   26.6329 C   0  0  0  0  0  0  0  0  0  0  0  0
    7.5107  -11.7663   27.5415 C   0  0  0  0  0  0  0  0  0  0  0  0
   11.0634  -18.2403   19.0317 N   0  0  0  0  0  0  0  0  0  0  0  0
   10.6577  -19.1379   20.0562 C   0  0  0  0  0  0  0  0  0  0  0  0
   11.0321  -20.3553   19.9214 O   0  0  0  0  0  0  0  0  0  0  0  0
    9.8523  -18.7014   21.2109 C   0  0  0  0  0  0  0  0  0  0  0  0
    9.4967  -17.2561   21.2340 C   0  0  2  0  0  0  0  0  0  0  0  0
    8.8294  -16.9067   22.4943 N   0  0  0  0  0  0  0  0  0  0  0  0
    8.7445  -16.7458   20.0801 C   0  0  0  0  0  0  0  0  0  0  0  0
    7.5785  -17.2236   19.8845 O   0  0  0  0  0  0  0  0  0  0  0  0
    7.5064  -13.3386   19.4022 C   0  0  0  0  0  0  0  0  0  0  0  0
    8.1770  -13.7819   18.1236 C   0  0  1  0  0  0  0  0  0  0  0  0
    9.3745  -13.1234   17.9850 O   0  0  0  0  0  0  0  0  0  0  0  0
    8.3358  -15.2888   18.0695 C   0  0  2  0  0  0  0  0  0  0  0  0
    9.1581  -15.7780   19.1536 N   0  0  0  0  0  0  0  0  0  0  0  0
    8.7980  -15.6346   16.7311 C   0  0  0  0  0  0  0  0  0  0  0  0
    9.9163  -16.1772   16.5928 O   0  0  0  0  0  0  0  0  0  0  0  0
    8.0108  -15.3664   15.6324 O   0  0  0  0  0  0  0  0  0  0  0  0
  1  2  1  0
  2 12  2  0
  3  4  2  0
  3  2  1  0
  4  5  1  0
  5  6  1  0
  5 11  2  0
  7  8  1  1
  7  6  1  0
  9  7  1  0
  9 10  2  0
 12 11  1  0
 13 14  1  0
 14 16  1  0
 14 15  2  0
 17 16  1  6
 17 18  1  0
 17 19  1  0
 18  9  1  0
 19 20  2  0
 19 25  1  0
 22 21  1  1
 22 23  1  0
 24 22  1  0
 24 25  1  1
 26 28  1  0
 26 24  1  0
 27 26  2  0
M  END
$$$$
