YNT.pdb
     RDKit          3D

 28 28  0  0  1  0  0  0  0  0999 V2000
    9.3918  -13.3547   17.2995 O   0  0  0  0  0  0  0  0  0  0  0  0
    9.2041  -13.4722   18.6683 C   0  0  0  0  0  0  0  0  0  0  0  0
    7.8933  -13.5300   19.1431 C   0  0  0  0  0  0  0  0  0  0  0  0
    7.6478  -13.6474   20.5038 C   0  0  0  0  0  0  0  0  0  0  0  0
    8.7095  -13.7044   21.3594 C   0  0  0  0  0  0  0  0  0  0  0  0
    8.5029  -13.8315   22.8245 C   0  0  0  0  0  0  0  0  0  0  0  0
    8.0226  -15.2218   23.1835 C   0  0  2  0  0  0  0  0  0  0  0  0
    7.3218  -15.2294   24.4441 N   0  0  0  0  0  0  0  0  0  0  0  0
    9.1718  -16.1474   23.2029 C   0  0  0  0  0  0  0  0  0  0  0  0
    9.7766  -16.3852   24.2999 O   0  0  0  0  0  0  0  0  0  0  0  0
   10.0198  -13.6470   20.8884 C   0  0  0  0  0  0  0  0  0  0  0  0
   10.2648  -13.5317   19.5520 C   0  0  0  0  0  0  0  0  0  0  0  0
   12.5144  -20.0660   22.4543 N   0  0  0  0  0  0  0  0  0  0  0  0
   11.2285  -20.2574   21.8800 C   0  0  0  0  0  0  0  0  0  0  0  0
   10.9625  -21.4422   21.4728 O   0  0  0  0  0  0  0  0  0  0  0  0
   10.2511  -19.1610   21.7561 C   0  0  0  0  0  0  0  0  0  0  0  0
   10.7533  -17.8103   22.1292 C   0  0  2  0  0  0  0  0  0  0  0  0
    9.6744  -16.8172   22.0535 N   0  0  0  0  0  0  0  0  0  0  0  0
   11.9542  -17.3386   21.4271 C   0  0  0  0  0  0  0  0  0  0  0  0
   12.9721  -18.1068   21.4287 O   0  0  0  0  0  0  0  0  0  0  0  0
   11.8528  -15.4953   17.9342 C   0  0  0  0  0  0  0  0  0  0  0  0
   12.9429  -14.8938   18.7889 C   0  0  1  0  0  0  0  0  0  0  0  0
   12.5685  -13.6327   19.1843 O   0  0  0  0  0  0  0  0  0  0  0  0
   13.2903  -15.7887   19.9626 C   0  0  2  0  0  0  0  0  0  0  0  0
   12.1193  -16.1273   20.7403 N   0  0  0  0  0  0  0  0  0  0  0  0
   14.3664  -15.1433   20.7043 C   0  0  0  0  0  0  0  0  0  0  0  0
   14.1827  -14.8358   21.9026 O   0  0  0  0  0  0  0  0  0  0  0  0
   15.5711  -14.8763   20.0911 O   0  0  0  0  0  0  0  0  0  0  0  0
  1  2  1  0
  2 12  2  0
  3  4  2  0
  3  2  1  0
  4  5  1  0
  5  6  1  0
  5 11  2  0
  7  8  1  1
  7  6  1  0
  9  7  1  0
  9 10  2  0
 12 11  1  0
 13 14  1  0
 14 16  1  0
 14 15  2  0
 17 16  1  6
 17 18  1  0
 17 19  1  0
 18  9  1  0
 19 20  2  0
 19 25  1  0
 22 21  1  1
 22 23  1  0
 24 22  1  0
 24 25  1  1
 26 28  1  0
 26 24  1  0
 27 26  2  0
M  END
$$$$
