YNT.pdb
     RDKit          3D

 28 28  0  0  1  0  0  0  0  0999 V2000
    9.2486  -11.7907   19.3767 O   0  0  0  0  0  0  0  0  0  0  0  0
    8.4975  -12.9533   19.4611 C   0  0  0  0  0  0  0  0  0  0  0  0
    8.0166  -13.3280   20.7162 C   0  0  0  0  0  0  0  0  0  0  0  0
    7.2598  -14.4823   20.8581 C   0  0  0  0  0  0  0  0  0  0  0  0
    6.9991  -15.2360   19.7507 C   0  0  0  0  0  0  0  0  0  0  0  0
    6.1930  -16.4796   19.8464 C   0  0  0  0  0  0  0  0  0  0  0  0
    6.9877  -17.6765   19.3685 C   0  0  2  0  0  0  0  0  0  0  0  0
    6.1597  -18.8528   19.2642 N   0  0  0  0  0  0  0  0  0  0  0  0
    8.1282  -17.9019   20.2776 C   0  0  0  0  0  0  0  0  0  0  0  0
    8.8009  -18.9820   20.1958 O   0  0  0  0  0  0  0  0  0  0  0  0
    7.4778  -14.8645   18.4958 C   0  0  0  0  0  0  0  0  0  0  0  0
    8.2218  -13.7308   18.3526 C   0  0  0  0  0  0  0  0  0  0  0  0
   11.2878  -18.3538   18.6834 N   0  0  0  0  0  0  0  0  0  0  0  0
   11.1327  -18.2814   20.0943 C   0  0  0  0  0  0  0  0  0  0  0  0
   11.1745  -19.3954   20.7249 O   0  0  0  0  0  0  0  0  0  0  0  0
   10.9347  -17.0023   20.7994 C   0  0  0  0  0  0  0  0  0  0  0  0
    9.8930  -17.0117   21.8626 C   0  0  2  0  0  0  0  0  0  0  0  0
    8.5492  -16.9765   21.2718 N   0  0  0  0  0  0  0  0  0  0  0  0
   10.0285  -16.0059   22.9245 C   0  0  0  0  0  0  0  0  0  0  0  0
   11.2067  -15.7477   23.3383 O   0  0  0  0  0  0  0  0  0  0  0  0
    7.1416  -13.3183   24.6886 C   0  0  0  0  0  0  0  0  0  0  0  0
    7.5245  -14.6046   25.3814 C   0  0  1  0  0  0  0  0  0  0  0  0
    6.5625  -15.5553   25.1416 O   0  0  0  0  0  0  0  0  0  0  0  0
    8.9096  -15.0676   24.9738 C   0  0  2  0  0  0  0  0  0  0  0  0
    9.0029  -15.2799   23.5466 N   0  0  0  0  0  0  0  0  0  0  0  0
    9.2486  -16.2200   25.7993 C   0  0  0  0  0  0  0  0  0  0  0  0
    9.3941  -17.3376   25.2569 O   0  0  0  0  0  0  0  0  0  0  0  0
    9.4070  -16.0781   27.1607 O   0  0  0  0  0  0  0  0  0  0  0  0
  1  2  1  0
  2 12  2  0
  3  4  2  0
  3  2  1  0
  4  5  1  0
  5  6  1  0
  5 11  2  0
  7  8  1  1
  7  6  1  0
  9  7  1  0
  9 10  2  0
 12 11  1  0
 13 14  1  0
 14 16  1  0
 14 15  2  0
 17 16  1  6
 17 18  1  0
 17 19  1  0
 18  9  1  0
 19 20  2  0
 19 25  1  0
 22 21  1  6
 22 23  1  0
 24 22  1  0
 24 25  1  6
 26 28  1  0
 26 24  1  0
 27 26  2  0
M  END
$$$$
