YNT.pdb
     RDKit          3D

 28 28  0  0  1  0  0  0  0  0999 V2000
    6.7865  -12.8425   16.2811 O   0  0  0  0  0  0  0  0  0  0  0  0
    7.0085  -13.3760   17.5416 C   0  0  0  0  0  0  0  0  0  0  0  0
    6.7442  -14.7331   17.7300 C   0  0  0  0  0  0  0  0  0  0  0  0
    6.9486  -15.3188   18.9712 C   0  0  0  0  0  0  0  0  0  0  0  0
    7.4103  -14.5429   19.9946 C   0  0  0  0  0  0  0  0  0  0  0  0
    7.6476  -15.1196   21.3423 C   0  0  0  0  0  0  0  0  0  0  0  0
    9.1176  -15.0659   21.7015 C   0  0  2  0  0  0  0  0  0  0  0  0
    9.9416  -15.5728   20.6318 N   0  0  0  0  0  0  0  0  0  0  0  0
    9.3436  -15.8138   22.9535 C   0  0  0  0  0  0  0  0  0  0  0  0
    8.4845  -15.7518   23.8936 O   0  0  0  0  0  0  0  0  0  0  0  0
    7.6754  -13.1873   19.8097 C   0  0  0  0  0  0  0  0  0  0  0  0
    7.4757  -12.6084   18.5914 C   0  0  0  0  0  0  0  0  0  0  0  0
   11.9020  -19.6540   21.9882 N   0  0  0  0  0  0  0  0  0  0  0  0
   11.1257  -19.4639   23.1634 C   0  0  0  0  0  0  0  0  0  0  0  0
   10.0358  -20.1330   23.2347 O   0  0  0  0  0  0  0  0  0  0  0  0
   11.5432  -18.5514   24.2430 C   0  0  0  0  0  0  0  0  0  0  0  0
   10.6666  -17.3673   24.4554 C   0  0  2  0  0  0  0  0  0  0  0  0
   10.4845  -16.6257   23.2012 N   0  0  0  0  0  0  0  0  0  0  0  0
   11.0366  -16.4639   25.5530 C   0  0  0  0  0  0  0  0  0  0  0  0
   11.9418  -15.5973   25.3172 O   0  0  0  0  0  0  0  0  0  0  0  0
    9.9254  -13.4583   26.8009 C   0  0  0  0  0  0  0  0  0  0  0  0
    9.9137  -14.3599   28.0125 C   0  0  1  0  0  0  0  0  0  0  0  0
    8.6342  -14.8071   28.2355 O   0  0  0  0  0  0  0  0  0  0  0  0
   10.9076  -15.4965   27.8724 C   0  0  2  0  0  0  0  0  0  0  0  0
   10.5037  -16.4355   26.8497 N   0  0  0  0  0  0  0  0  0  0  0  0
   11.1121  -16.0676   29.1978 C   0  0  0  0  0  0  0  0  0  0  0  0
   10.8046  -17.2627   29.4014 O   0  0  0  0  0  0  0  0  0  0  0  0
   11.6383  -15.2987   30.2129 O   0  0  0  0  0  0  0  0  0  0  0  0
  1  2  1  0
  2 12  2  0
  3  4  2  0
  3  2  1  0
  4  5  1  0
  5  6  1  0
  5 11  2  0
  7  8  1  6
  7  6  1  0
  9  7  1  0
  9 10  2  0
 12 11  1  0
 13 14  1  0
 14 16  1  0
 14 15  2  0
 17 16  1  6
 17 18  1  0
 17 19  1  0
 18  9  1  0
 19 20  2  0
 19 25  1  0
 22 21  1  6
 22 23  1  0
 24 22  1  0
 24 25  1  6
 26 28  1  0
 26 24  1  0
 27 26  2  0
M  END
$$$$
