YNT.pdb
     RDKit          3D

 28 28  0  0  1  0  0  0  0  0999 V2000
    7.8693  -12.3645   18.1144 O   0  0  0  0  0  0  0  0  0  0  0  0
    7.8471  -13.0026   19.3453 C   0  0  0  0  0  0  0  0  0  0  0  0
    6.6059  -13.2134   19.9469 C   0  0  0  0  0  0  0  0  0  0  0  0
    6.5254  -13.8470   21.1788 C   0  0  0  0  0  0  0  0  0  0  0  0
    7.6789  -14.2554   21.7830 C   0  0  0  0  0  0  0  0  0  0  0  0
    7.6493  -14.9395   23.1008 C   0  0  0  0  0  0  0  0  0  0  0  0
    7.8423  -16.4325   22.9387 C   0  0  2  0  0  0  0  0  0  0  0  0
    6.5989  -17.1461   23.0967 N   0  0  0  0  0  0  0  0  0  0  0  0
    8.8569  -16.9028   23.9017 C   0  0  0  0  0  0  0  0  0  0  0  0
    8.4929  -17.3536   25.0375 O   0  0  0  0  0  0  0  0  0  0  0  0
    8.9201  -14.0465   21.1847 C   0  0  0  0  0  0  0  0  0  0  0  0
    9.0030  -13.4243   19.9743 C   0  0  0  0  0  0  0  0  0  0  0  0
   12.7851  -18.6149   21.6019 N   0  0  0  0  0  0  0  0  0  0  0  0
   12.4050  -18.8138   22.9569 C   0  0  0  0  0  0  0  0  0  0  0  0
   11.9619  -19.9782   23.2541 O   0  0  0  0  0  0  0  0  0  0  0  0
   12.5114  -17.7470   23.9685 C   0  0  0  0  0  0  0  0  0  0  0  0
   11.2363  -17.3690   24.6369 C   0  0  2  0  0  0  0  0  0  0  0  0
   10.2570  -16.8914   23.6526 N   0  0  0  0  0  0  0  0  0  0  0  0
   11.3387  -16.4415   25.7714 C   0  0  0  0  0  0  0  0  0  0  0  0
   11.7170  -15.2499   25.5202 O   0  0  0  0  0  0  0  0  0  0  0  0
   10.6452  -13.7347   26.7560 C   0  0  0  0  0  0  0  0  0  0  0  0
   10.2188  -14.5623   27.9452 C   0  0  1  0  0  0  0  0  0  0  0  0
    8.9155  -14.9627   27.7780 O   0  0  0  0  0  0  0  0  0  0  0  0
   11.1574  -15.7301   28.1783 C   0  0  2  0  0  0  0  0  0  0  0  0
   11.0627  -16.7104   27.1196 N   0  0  0  0  0  0  0  0  0  0  0  0
   10.9042  -16.2364   29.5215 C   0  0  0  0  0  0  0  0  0  0  0  0
   10.4662  -17.3994   29.6629 O   0  0  0  0  0  0  0  0  0  0  0  0
   11.1454  -15.4421   30.6212 O   0  0  0  0  0  0  0  0  0  0  0  0
  1  2  1  0
  2 12  2  0
  3  4  2  0
  3  2  1  0
  4  5  1  0
  5  6  1  0
  5 11  2  0
  7  8  1  1
  7  6  1  0
  9  7  1  0
  9 10  2  0
 12 11  1  0
 13 14  1  0
 14 16  1  0
 14 15  2  0
 17 16  1  6
 17 18  1  0
 17 19  1  0
 18  9  1  0
 19 20  2  0
 19 25  1  0
 22 21  1  6
 22 23  1  0
 24 22  1  0
 24 25  1  6
 26 28  1  0
 26 24  1  0
 27 26  2  0
M  END
$$$$
