YNT.pdb
     RDKit          3D

 28 28  0  0  1  0  0  0  0  0999 V2000
    7.5836  -12.5884   27.2381 O   0  0  0  0  0  0  0  0  0  0  0  0
    7.3588  -13.3604   26.1084 C   0  0  0  0  0  0  0  0  0  0  0  0
    6.7797  -14.6177   26.2837 C   0  0  0  0  0  0  0  0  0  0  0  0
    6.5328  -15.4320   25.1876 C   0  0  0  0  0  0  0  0  0  0  0  0
    6.8669  -14.9781   23.9447 C   0  0  0  0  0  0  0  0  0  0  0  0
    6.6229  -15.8084   22.7379 C   0  0  0  0  0  0  0  0  0  0  0  0
    7.8765  -15.9195   21.8962 C   0  0  2  0  0  0  0  0  0  0  0  0
    7.6153  -16.5880   20.6452 N   0  0  0  0  0  0  0  0  0  0  0  0
    8.9246  -16.6153   22.6677 C   0  0  0  0  0  0  0  0  0  0  0  0
    8.6889  -17.7659   23.1640 O   0  0  0  0  0  0  0  0  0  0  0  0
    7.4453  -13.7228   23.7662 C   0  0  0  0  0  0  0  0  0  0  0  0
    7.6893  -12.9200   24.8410 C   0  0  0  0  0  0  0  0  0  0  0  0
   11.9341  -18.6394   21.0338 N   0  0  0  0  0  0  0  0  0  0  0  0
   12.2902  -17.3223   21.4317 C   0  0  0  0  0  0  0  0  0  0  0  0
   12.4284  -16.4657   20.4896 O   0  0  0  0  0  0  0  0  0  0  0  0
   12.4910  -16.9546   22.8449 C   0  0  0  0  0  0  0  0  0  0  0  0
   11.2491  -16.8212   23.6545 C   0  0  2  0  0  0  0  0  0  0  0  0
   10.2213  -16.0836   22.9091 N   0  0  0  0  0  0  0  0  0  0  0  0
   11.4043  -16.2824   25.0122 C   0  0  0  0  0  0  0  0  0  0  0  0
   12.5825  -15.9683   25.3855 O   0  0  0  0  0  0  0  0  0  0  0  0
   10.0677  -13.3288   27.2211 C   0  0  0  0  0  0  0  0  0  0  0  0
    9.7366  -14.6574   27.8583 C   0  0  1  0  0  0  0  0  0  0  0  0
    8.4077  -14.9410   27.6569 O   0  0  0  0  0  0  0  0  0  0  0  0
   10.6463  -15.7607   27.3543 C   0  0  2  0  0  0  0  0  0  0  0  0
   10.3969  -16.0641   25.9627 N   0  0  0  0  0  0  0  0  0  0  0  0
   10.5205  -16.8873   28.2705 C   0  0  0  0  0  0  0  0  0  0  0  0
   10.0388  -17.9632   27.8524 O   0  0  0  0  0  0  0  0  0  0  0  0
   10.9282  -16.7669   29.5812 O   0  0  0  0  0  0  0  0  0  0  0  0
  1  2  1  0
  2 12  2  0
  3  4  2  0
  3  2  1  0
  4  5  1  0
  5  6  1  0
  5 11  2  0
  7  8  1  6
  7  6  1  0
  9  7  1  0
  9 10  2  0
 12 11  1  0
 13 14  1  0
 14 16  1  0
 14 15  2  0
 17 16  1  6
 17 18  1  0
 17 19  1  0
 18  9  1  0
 19 20  2  0
 19 25  1  0
 22 21  1  6
 22 23  1  0
 24 22  1  0
 24 25  1  6
 26 28  1  0
 26 24  1  0
 27 26  2  0
M  END
$$$$
