YNT.pdb
     RDKit          3D

 28 28  0  0  1  0  0  0  0  0999 V2000
    8.4708  -12.1907   16.9789 O   0  0  0  0  0  0  0  0  0  0  0  0
    8.1553  -12.7222   18.2202 C   0  0  0  0  0  0  0  0  0  0  0  0
    6.8329  -13.1050   18.4474 C   0  0  0  0  0  0  0  0  0  0  0  0
    6.4618  -13.6425   19.6717 C   0  0  0  0  0  0  0  0  0  0  0  0
    7.4127  -13.7867   20.6400 C   0  0  0  0  0  0  0  0  0  0  0  0
    7.0697  -14.3577   21.9673 C   0  0  0  0  0  0  0  0  0  0  0  0
    7.4082  -15.8324   22.0246 C   0  0  2  0  0  0  0  0  0  0  0  0
    6.5405  -16.6071   21.1718 N   0  0  0  0  0  0  0  0  0  0  0  0
    7.3396  -16.2969   23.4237 C   0  0  0  0  0  0  0  0  0  0  0  0
    6.2143  -16.6144   23.9324 O   0  0  0  0  0  0  0  0  0  0  0  0
    8.7343  -13.4056   20.4162 C   0  0  0  0  0  0  0  0  0  0  0  0
    9.1025  -12.8771   19.2143 C   0  0  0  0  0  0  0  0  0  0  0  0
    6.3738  -19.1429   27.5365 N   0  0  0  0  0  0  0  0  0  0  0  0
    7.6214  -19.0458   26.8627 C   0  0  0  0  0  0  0  0  0  0  0  0
    8.6228  -19.5902   27.4469 O   0  0  0  0  0  0  0  0  0  0  0  0
    7.7637  -18.3599   25.5658 C   0  0  0  0  0  0  0  0  0  0  0  0
    8.3810  -17.0065   25.6216 C   0  0  2  0  0  0  0  0  0  0  0  0
    8.4697  -16.4216   24.2777 N   0  0  0  0  0  0  0  0  0  0  0  0
    9.6635  -16.8978   26.3296 C   0  0  0  0  0  0  0  0  0  0  0  0
   10.6245  -16.3281   25.7146 O   0  0  0  0  0  0  0  0  0  0  0  0
   10.0678  -14.4302   27.5859 C   0  0  0  0  0  0  0  0  0  0  0  0
   10.2174  -15.2421   28.8506 C   0  0  1  0  0  0  0  0  0  0  0  0
    9.0100  -15.2954   29.5034 O   0  0  0  0  0  0  0  0  0  0  0  0
   10.7826  -16.6200   28.5662 C   0  0  2  0  0  0  0  0  0  0  0  0
    9.9638  -17.3484   27.6230 N   0  0  0  0  0  0  0  0  0  0  0  0
   10.9958  -17.2809   29.8477 C   0  0  0  0  0  0  0  0  0  0  0  0
   10.3317  -18.3039   30.1247 O   0  0  0  0  0  0  0  0  0  0  0  0
   11.9186  -16.7835   30.7419 O   0  0  0  0  0  0  0  0  0  0  0  0
  1  2  1  0
  2 12  2  0
  3  4  2  0
  3  2  1  0
  4  5  1  0
  5  6  1  0
  5 11  2  0
  7  8  1  6
  7  6  1  0
  9  7  1  0
  9 10  2  0
 12 11  1  0
 13 14  1  0
 14 16  1  0
 14 15  2  0
 17 16  1  6
 17 18  1  0
 17 19  1  0
 18  9  1  0
 19 20  2  0
 19 25  1  0
 22 21  1  6
 22 23  1  0
 24 22  1  0
 24 25  1  6
 26 28  1  0
 26 24  1  0
 27 26  2  0
M  END
$$$$
