GID.pdb
     RDKit          3D

 21 20  0  0  1  0  0  0  0  0999 V2000
   17.7848  -25.4102   -5.0735 N   0  0  0  0  0  0  0  0  0  0  0  0
   17.4856  -26.5370   -4.2404 C   0  0  0  0  0  0  0  0  0  0  0  0
   18.7199  -27.0383   -3.5411 C   0  0  0  0  0  0  0  0  0  0  0  0
   19.8267  -26.6341   -3.9592 O   0  0  0  0  0  0  0  0  0  0  0  0
   20.2978  -25.5351    0.9128 C   0  0  0  0  0  0  0  0  0  0  0  0
   20.1487  -26.1861   -0.4211 C   0  0  0  0  0  0  0  0  0  0  0  0
   19.8113  -27.6346   -0.4157 C   0  0  2  0  0  0  0  0  0  0  0  0
   20.4776  -28.3474    0.7415 C   0  0  0  0  0  0  0  0  0  0  0  0
   19.6870  -28.3526   -1.6814 C   0  0  2  0  0  0  0  0  0  0  0  0
   18.5426  -27.9356   -2.4552 N   0  0  0  0  0  0  0  0  0  0  0  0
   19.9482  -29.7991   -1.7363 C   0  0  0  0  0  0  0  0  0  0  0  0
   19.0645  -30.6737   -1.7612 O   0  0  0  0  0  0  0  0  0  0  0  0
   21.2918  -30.2480   -1.7577 N   0  0  0  0  0  0  0  0  0  0  0  0
   21.6468  -31.6689   -1.8613 C   0  0  1  0  0  0  0  0  0  0  0  0
   23.0959  -31.7534   -2.2174 C   0  0  0  0  0  0  0  0  0  0  0  0
   23.3203  -32.0459   -3.6393 C   0  0  0  0  0  0  0  0  0  0  0  0
   22.3838  -32.2139   -4.4332 O   0  0  0  0  0  0  0  0  0  0  0  0
   21.3442  -32.3493   -0.5873 C   0  0  0  0  0  0  0  0  0  0  0  0
   20.9203  -33.6455   -0.4341 O   0  0  0  0  0  0  0  0  0  0  0  0
   24.6167  -32.1500   -4.1716 O   0  0  0  0  0  0  0  0  0  0  0  0
   21.4867  -31.6762    0.4892 O   0  0  0  0  0  0  0  0  0  0  0  0
  1  2  1  0
  2  3  1  0
  3 10  1  0
  3  4  2  0
  6  7  1  0
  6  5  1  0
  7  8  1  1
  9  7  1  0
  9 10  1  1
 11  9  1  0
 11 13  1  0
 12 11  2  0
 14 15  1  1
 14 13  1  0
 14 18  1  0
 16 20  1  0
 16 15  1  0
 17 16  2  0
 18 19  1  0
 21 18  2  0
M  END
$$$$
