GID.pdb
     RDKit          3D

 21 20  0  0  1  0  0  0  0  0999 V2000
   25.9198  -12.6412  -16.1037 N   0  0  0  0  0  0  0  0  0  0  0  0
   24.7162  -12.8492  -15.3542 C   0  0  0  0  0  0  0  0  0  0  0  0
   23.6455  -11.8752  -15.7651 C   0  0  0  0  0  0  0  0  0  0  0  0
   23.8640  -11.1646  -16.7703 O   0  0  0  0  0  0  0  0  0  0  0  0
   19.4162  -13.8482  -16.6796 C   0  0  0  0  0  0  0  0  0  0  0  0
   20.2526  -12.6262  -16.8593 C   0  0  0  0  0  0  0  0  0  0  0  0
   20.1837  -11.6123  -15.7734 C   0  0  2  0  0  0  0  0  0  0  0  0
   18.9052  -10.8064  -15.8573 C   0  0  0  0  0  0  0  0  0  0  0  0
   21.3998  -10.9238  -15.3490 C   0  0  2  0  0  0  0  0  0  0  0  0
   22.4614  -11.8303  -14.9831 N   0  0  0  0  0  0  0  0  0  0  0  0
   21.3105   -9.7332  -14.4899 C   0  0  0  0  0  0  0  0  0  0  0  0
   21.0405   -9.7593  -13.2763 O   0  0  0  0  0  0  0  0  0  0  0  0
   21.5390   -8.4592  -15.0660 N   0  0  0  0  0  0  0  0  0  0  0  0
   21.4703   -7.2173  -14.2859 C   0  0  1  0  0  0  0  0  0  0  0  0
   22.4196   -6.2391  -14.8989 C   0  0  0  0  0  0  0  0  0  0  0  0
   22.4325   -4.9430  -14.2077 C   0  0  0  0  0  0  0  0  0  0  0  0
   22.3375   -4.8525  -12.9755 O   0  0  0  0  0  0  0  0  0  0  0  0
   20.0824   -6.7160  -14.2737 C   0  0  0  0  0  0  0  0  0  0  0  0
   19.4450   -6.1018  -13.2251 O   0  0  0  0  0  0  0  0  0  0  0  0
   22.5540   -3.7349  -14.9152 O   0  0  0  0  0  0  0  0  0  0  0  0
   19.3934   -6.8618  -15.3396 O   0  0  0  0  0  0  0  0  0  0  0  0
  1  2  1  0
  2  3  1  0
  3 10  1  0
  3  4  2  0
  6  7  1  0
  6  5  1  0
  7  8  1  6
  9  7  1  0
  9 10  1  1
 11  9  1  0
 11 13  1  0
 12 11  2  0
 14 15  1  6
 14 13  1  0
 14 18  1  0
 16 20  1  0
 16 15  1  0
 17 16  2  0
 18 19  1  0
 21 18  2  0
M  END
$$$$
