GID.pdb
     RDKit          3D

 21 20  0  0  1  0  0  0  0  0999 V2000
   25.8179  -25.0660  -16.4525 N   0  0  0  0  0  0  0  0  0  0  0  0
   26.4572  -23.7967  -16.6361 C   0  0  0  0  0  0  0  0  0  0  0  0
   25.7618  -22.7194  -15.8489 C   0  0  0  0  0  0  0  0  0  0  0  0
   24.8627  -23.0716  -15.0547 O   0  0  0  0  0  0  0  0  0  0  0  0
   26.9541  -16.9368  -15.6909 C   0  0  0  0  0  0  0  0  0  0  0  0
   27.1413  -18.4026  -15.8943 C   0  0  0  0  0  0  0  0  0  0  0  0
   26.5226  -19.2954  -14.8784 C   0  0  2  0  0  0  0  0  0  0  0  0
   27.5129  -19.6573  -13.7922 C   0  0  0  0  0  0  0  0  0  0  0  0
   25.5656  -20.3152  -15.2991 C   0  0  2  0  0  0  0  0  0  0  0  0
   26.1745  -21.3779  -16.0623 N   0  0  0  0  0  0  0  0  0  0  0  0
   24.2344  -19.9205  -15.7844 C   0  0  0  0  0  0  0  0  0  0  0  0
   24.0070  -19.4514  -16.9135 O   0  0  0  0  0  0  0  0  0  0  0  0
   23.1220  -20.0719  -14.9200 N   0  0  0  0  0  0  0  0  0  0  0  0
   21.7547  -19.7242  -15.3263 C   0  0  1  0  0  0  0  0  0  0  0  0
   21.4088  -20.5511  -16.5223 C   0  0  0  0  0  0  0  0  0  0  0  0
   20.0527  -20.2930  -17.0245 C   0  0  0  0  0  0  0  0  0  0  0  0
   19.5983  -19.1455  -17.1349 O   0  0  0  0  0  0  0  0  0  0  0  0
   20.8292  -19.9560  -14.2005 C   0  0  0  0  0  0  0  0  0  0  0  0
   21.1641  -20.4001  -12.9460 O   0  0  0  0  0  0  0  0  0  0  0  0
   19.1994  -21.3421  -17.4067 O   0  0  0  0  0  0  0  0  0  0  0  0
   19.5887  -19.7240  -14.3995 O   0  0  0  0  0  0  0  0  0  0  0  0
  1  2  1  0
  2  3  1  0
  3 10  1  0
  3  4  2  0
  6  7  1  0
  6  5  1  0
  7  8  1  6
  9  7  1  0
  9 10  1  6
 11  9  1  0
 11 13  1  0
 12 11  2  0
 14 15  1  6
 14 13  1  0
 14 18  1  0
 16 20  1  0
 16 15  1  0
 17 16  2  0
 18 19  1  0
 21 18  2  0
M  END
$$$$
