GID.pdb
     RDKit          3D

 21 20  0  0  1  0  0  0  0  0999 V2000
   44.5490  -11.0112   -5.6725 N   0  0  0  0  0  0  0  0  0  0  0  0
   43.2351  -10.5753   -5.3020 C   0  0  0  0  0  0  0  0  0  0  0  0
   42.5024   -9.9959   -6.4815 C   0  0  0  0  0  0  0  0  0  0  0  0
   43.1695   -9.7349   -7.5062 O   0  0  0  0  0  0  0  0  0  0  0  0
   37.4009  -10.3738   -9.5750 C   0  0  0  0  0  0  0  0  0  0  0  0
   38.4212   -9.4364   -9.0224 C   0  0  0  0  0  0  0  0  0  0  0  0
   39.3457   -9.9937   -7.9994 C   0  0  2  0  0  0  0  0  0  0  0  0
   38.6299  -10.9662   -7.0867 C   0  0  0  0  0  0  0  0  0  0  0  0
   40.3773   -9.1404   -7.4158 C   0  0  2  0  0  0  0  0  0  0  0  0
   41.1046   -9.7855   -6.3493 N   0  0  0  0  0  0  0  0  0  0  0  0
   40.1043   -7.7154   -7.1737 C   0  0  0  0  0  0  0  0  0  0  0  0
   39.4640   -7.2763   -6.2022 O   0  0  0  0  0  0  0  0  0  0  0  0
   40.5905   -6.7617   -8.1017 N   0  0  0  0  0  0  0  0  0  0  0  0
   40.3302   -5.3234   -7.9637 C   0  0  1  0  0  0  0  0  0  0  0  0
   41.5870   -4.5954   -8.3160 C   0  0  0  0  0  0  0  0  0  0  0  0
   41.5541   -3.1774   -7.9337 C   0  0  0  0  0  0  0  0  0  0  0  0
   40.5634   -2.6629   -7.3958 O   0  0  0  0  0  0  0  0  0  0  0  0
   39.2002   -4.9389   -8.8314 C   0  0  0  0  0  0  0  0  0  0  0  0
   38.6204   -5.7102   -9.8072 O   0  0  0  0  0  0  0  0  0  0  0  0
   42.6519   -2.3301   -8.1611 O   0  0  0  0  0  0  0  0  0  0  0  0
   38.7016   -3.7739   -8.6688 O   0  0  0  0  0  0  0  0  0  0  0  0
  1  2  1  0
  2  3  1  0
  3 10  1  0
  3  4  2  0
  6  7  1  0
  6  5  1  0
  7  8  1  1
  9  7  1  0
  9 10  1  1
 11  9  1  0
 11 13  1  0
 12 11  2  0
 14 15  1  6
 14 13  1  0
 14 18  1  0
 16 20  1  0
 16 15  1  0
 17 16  2  0
 18 19  1  0
 21 18  2  0
M  END
$$$$
