GID.pdb
     RDKit          3D

 21 20  0  0  1  0  0  0  0  0999 V2000
   13.5450  -12.2013  -15.3330 N   0  0  0  0  0  0  0  0  0  0  0  0
   14.6361  -13.1266  -15.4159 C   0  0  0  0  0  0  0  0  0  0  0  0
   15.9563  -12.4263  -15.2417 C   0  0  0  0  0  0  0  0  0  0  0  0
   16.2446  -12.0101  -14.0985 O   0  0  0  0  0  0  0  0  0  0  0  0
   19.9519  -14.1742  -14.9837 C   0  0  0  0  0  0  0  0  0  0  0  0
   19.2182  -13.8602  -16.2440 C   0  0  0  0  0  0  0  0  0  0  0  0
   19.1853  -12.4300  -16.6510 C   0  0  2  0  0  0  0  0  0  0  0  0
   20.5659  -11.8122  -16.5912 C   0  0  0  0  0  0  0  0  0  0  0  0
   18.0462  -11.5973  -16.2743 C   0  0  2  0  0  0  0  0  0  0  0  0
   16.7834  -12.2865  -16.3872 N   0  0  0  0  0  0  0  0  0  0  0  0
   17.9948  -10.1876  -16.6909 C   0  0  0  0  0  0  0  0  0  0  0  0
   17.8917   -9.8049  -17.8697 O   0  0  0  0  0  0  0  0  0  0  0  0
   18.0718   -9.1807  -15.6971 N   0  0  0  0  0  0  0  0  0  0  0  0
   17.9385   -7.7524  -16.0098 C   0  0  1  0  0  0  0  0  0  0  0  0
   17.3833   -7.0697  -14.8017 C   0  0  0  0  0  0  0  0  0  0  0  0
   15.9177   -7.1369  -14.7285 C   0  0  0  0  0  0  0  0  0  0  0  0
   15.2363   -7.6537  -15.6251 O   0  0  0  0  0  0  0  0  0  0  0  0
   19.2514   -7.2071  -16.4055 C   0  0  0  0  0  0  0  0  0  0  0  0
   19.4749   -6.0933  -17.1754 O   0  0  0  0  0  0  0  0  0  0  0  0
   15.2128   -6.6149  -13.6305 O   0  0  0  0  0  0  0  0  0  0  0  0
   20.2933   -7.8237  -15.9975 O   0  0  0  0  0  0  0  0  0  0  0  0
  1  2  1  0
  2  3  1  0
  3 10  1  0
  3  4  2  0
  6  7  1  0
  6  5  1  0
  7  8  1  1
  9  7  1  0
  9 10  1  6
 11  9  1  0
 11 13  1  0
 12 11  2  0
 14 15  1  1
 14 13  1  0
 14 18  1  0
 16 20  1  0
 16 15  1  0
 17 16  2  0
 18 19  1  0
 21 18  2  0
M  END
$$$$
