GID.pdb
     RDKit          3D

 21 20  0  0  1  0  0  0  0  0999 V2000
   21.2491  -21.9029  -13.6654 N   0  0  0  0  0  0  0  0  0  0  0  0
   21.6697  -21.3996  -14.9395 C   0  0  0  0  0  0  0  0  0  0  0  0
   21.8302  -19.9040  -14.9065 C   0  0  0  0  0  0  0  0  0  0  0  0
   20.9500  -19.2401  -14.3168 O   0  0  0  0  0  0  0  0  0  0  0  0
   26.3290  -15.8181  -14.8547 C   0  0  0  0  0  0  0  0  0  0  0  0
   25.0522  -16.2244  -15.5105 C   0  0  0  0  0  0  0  0  0  0  0  0
   24.4445  -17.4982  -15.0416 C   0  0  2  0  0  0  0  0  0  0  0  0
   25.5002  -18.5611  -14.8248 C   0  0  0  0  0  0  0  0  0  0  0  0
   23.1490  -17.9183  -15.5691 C   0  0  2  0  0  0  0  0  0  0  0  0
   22.9697  -19.3500  -15.5471 N   0  0  0  0  0  0  0  0  0  0  0  0
   22.5946  -17.2668  -16.7656 C   0  0  0  0  0  0  0  0  0  0  0  0
   22.7954  -17.6485  -17.9321 O   0  0  0  0  0  0  0  0  0  0  0  0
   21.7777  -16.1211  -16.6004 N   0  0  0  0  0  0  0  0  0  0  0  0
   21.1201  -15.4520  -17.7298 C   0  0  1  0  0  0  0  0  0  0  0  0
   19.7716  -14.9996  -17.2709 C   0  0  0  0  0  0  0  0  0  0  0  0
   19.0139  -14.3025  -18.3189 C   0  0  0  0  0  0  0  0  0  0  0  0
   18.9820  -13.0663  -18.3970 O   0  0  0  0  0  0  0  0  0  0  0  0
   21.9570  -14.3297  -18.1962 C   0  0  0  0  0  0  0  0  0  0  0  0
   21.9852  -13.8033  -19.4633 O   0  0  0  0  0  0  0  0  0  0  0  0
   18.2838  -15.0089  -19.2899 O   0  0  0  0  0  0  0  0  0  0  0  0
   22.7385  -13.7836  -17.3458 O   0  0  0  0  0  0  0  0  0  0  0  0
  1  2  1  0
  2  3  1  0
  3 10  1  0
  3  4  2  0
  6  7  1  0
  6  5  1  0
  7  8  1  6
  9  7  1  0
  9 10  1  6
 11  9  1  0
 11 13  1  0
 12 11  2  0
 14 15  1  1
 14 13  1  0
 14 18  1  0
 16 20  1  0
 16 15  1  0
 17 16  2  0
 18 19  1  0
 21 18  2  0
M  END
$$$$
