GID.pdb
     RDKit          3D

 21 20  0  0  1  0  0  0  0  0999 V2000
   20.6197  -13.3622  -17.6320 N   0  0  0  0  0  0  0  0  0  0  0  0
   21.1134  -12.0968  -18.0887 C   0  0  0  0  0  0  0  0  0  0  0  0
   21.7359  -11.3180  -16.9619 C   0  0  0  0  0  0  0  0  0  0  0  0
   21.1614  -11.3465  -15.8517 O   0  0  0  0  0  0  0  0  0  0  0  0
   26.7001  -11.5433  -15.3127 C   0  0  0  0  0  0  0  0  0  0  0  0
   25.2550  -11.3399  -15.6215 C   0  0  0  0  0  0  0  0  0  0  0  0
   24.8256   -9.9402  -15.8830 C   0  0  2  0  0  0  0  0  0  0  0  0
   25.5027   -8.9738  -14.9349 C   0  0  0  0  0  0  0  0  0  0  0  0
   23.4426   -9.6678  -16.2652 C   0  0  2  0  0  0  0  0  0  0  0  0
   22.9322  -10.6046  -17.2370 N   0  0  0  0  0  0  0  0  0  0  0  0
   22.9975   -8.2828  -16.4821 C   0  0  0  0  0  0  0  0  0  0  0  0
   23.2161   -7.6265  -17.5155 O   0  0  0  0  0  0  0  0  0  0  0  0
   22.2731   -7.6314  -15.4533 N   0  0  0  0  0  0  0  0  0  0  0  0
   21.8424   -6.2316  -15.5570 C   0  0  1  0  0  0  0  0  0  0  0  0
   20.3497   -6.2167  -15.6304 C   0  0  0  0  0  0  0  0  0  0  0  0
   19.7921   -4.8586  -15.6822 C   0  0  0  0  0  0  0  0  0  0  0  0
   19.2612   -4.3264  -14.6972 O   0  0  0  0  0  0  0  0  0  0  0  0
   22.3524   -5.4693  -14.4009 C   0  0  0  0  0  0  0  0  0  0  0  0
   22.5976   -4.1199  -14.3562 O   0  0  0  0  0  0  0  0  0  0  0  0
   19.8343   -4.0922  -16.8594 O   0  0  0  0  0  0  0  0  0  0  0  0
   22.5943   -6.1180  -13.3272 O   0  0  0  0  0  0  0  0  0  0  0  0
  1  2  1  0
  2  3  1  0
  3 10  1  0
  3  4  2  0
  6  7  1  0
  6  5  1  0
  7  8  1  1
  9  7  1  0
  9 10  1  6
 11  9  1  0
 11 13  1  0
 12 11  2  0
 14 15  1  1
 14 13  1  0
 14 18  1  0
 16 20  1  0
 16 15  1  0
 17 16  2  0
 18 19  1  0
 21 18  2  0
M  END
$$$$
