GID.pdb
     RDKit          3D

 21 20  0  0  1  0  0  0  0  0999 V2000
   21.5819  -10.7303  -19.5238 N   0  0  0  0  0  0  0  0  0  0  0  0
   20.3823  -10.1180  -19.0342 C   0  0  0  0  0  0  0  0  0  0  0  0
   20.5486   -9.6590  -17.6110 C   0  0  0  0  0  0  0  0  0  0  0  0
   19.5323   -9.2407  -17.0151 O   0  0  0  0  0  0  0  0  0  0  0  0
   23.1630  -12.6955  -14.2202 C   0  0  0  0  0  0  0  0  0  0  0  0
   22.2898  -11.7035  -14.9120 C   0  0  0  0  0  0  0  0  0  0  0  0
   22.7301  -10.2839  -14.8577 C   0  0  2  0  0  0  0  0  0  0  0  0
   23.1250   -9.8868  -13.4514 C   0  0  0  0  0  0  0  0  0  0  0  0
   22.0591   -9.2867  -15.6873 C   0  0  2  0  0  0  0  0  0  0  0  0
   21.8479   -9.7325  -17.0434 N   0  0  0  0  0  0  0  0  0  0  0  0
   22.4298   -7.8675  -15.5777 C   0  0  0  0  0  0  0  0  0  0  0  0
   23.4738   -7.3747  -16.0401 O   0  0  0  0  0  0  0  0  0  0  0  0
   21.5539   -6.9854  -14.8980 N   0  0  0  0  0  0  0  0  0  0  0  0
   21.8790   -5.5720  -14.6696 C   0  0  1  0  0  0  0  0  0  0  0  0
   20.8828   -4.7469  -15.4181 C   0  0  0  0  0  0  0  0  0  0  0  0
   21.1139   -3.3030  -15.2781 C   0  0  0  0  0  0  0  0  0  0  0  0
   22.2516   -2.8126  -15.3022 O   0  0  0  0  0  0  0  0  0  0  0  0
   21.8643   -5.2879  -13.2216 C   0  0  0  0  0  0  0  0  0  0  0  0
   21.4711   -6.1454  -12.2249 O   0  0  0  0  0  0  0  0  0  0  0  0
   20.0488   -2.4020  -15.1091 O   0  0  0  0  0  0  0  0  0  0  0  0
   22.2539   -4.1315  -12.8435 O   0  0  0  0  0  0  0  0  0  0  0  0
  1  2  1  0
  2  3  1  0
  3 10  1  0
  3  4  2  0
  6  7  1  0
  6  5  1  0
  7  8  1  1
  9  7  1  0
  9 10  1  6
 11  9  1  0
 11 13  1  0
 12 11  2  0
 14 15  1  6
 14 13  1  0
 14 18  1  0
 16 20  1  0
 16 15  1  0
 17 16  2  0
 18 19  1  0
 21 18  2  0
M  END
$$$$
