GID.pdb
     RDKit          3D

 21 20  0  0  1  0  0  0  0  0999 V2000
   20.4056  -16.3939  -15.4384 N   0  0  0  0  0  0  0  0  0  0  0  0
   19.1787  -15.9556  -14.8416 C   0  0  0  0  0  0  0  0  0  0  0  0
   18.6352  -14.7423  -15.5460 C   0  0  0  0  0  0  0  0  0  0  0  0
   19.3064  -14.2718  -16.4901 O   0  0  0  0  0  0  0  0  0  0  0  0
   14.6267  -15.6225  -17.1876 C   0  0  0  0  0  0  0  0  0  0  0  0
   15.4067  -14.3820  -17.4668 C   0  0  0  0  0  0  0  0  0  0  0  0
   15.5036  -13.3980  -16.3558 C   0  0  2  0  0  0  0  0  0  0  0  0
   14.5261  -12.2582  -16.5475 C   0  0  0  0  0  0  0  0  0  0  0  0
   16.8074  -13.0906  -15.7740 C   0  0  2  0  0  0  0  0  0  0  0  0
   17.3980  -14.2157  -15.0901 N   0  0  0  0  0  0  0  0  0  0  0  0
   17.0281  -11.8015  -15.1008 C   0  0  0  0  0  0  0  0  0  0  0  0
   16.7350  -11.5670  -13.9152 O   0  0  0  0  0  0  0  0  0  0  0  0
   17.6084  -10.7393  -15.8372 N   0  0  0  0  0  0  0  0  0  0  0  0
   17.8835   -9.4255  -15.2424 C   0  0  1  0  0  0  0  0  0  0  0  0
   18.7912   -8.6846  -16.1702 C   0  0  0  0  0  0  0  0  0  0  0  0
   19.1026   -7.3267  -15.7041 C   0  0  0  0  0  0  0  0  0  0  0  0
   18.7235   -6.9053  -14.6022 O   0  0  0  0  0  0  0  0  0  0  0  0
   16.6136   -8.7096  -15.0135 C   0  0  0  0  0  0  0  0  0  0  0  0
   15.6058   -8.5219  -15.9258 O   0  0  0  0  0  0  0  0  0  0  0  0
   19.8507   -6.4342  -16.4905 O   0  0  0  0  0  0  0  0  0  0  0  0
   16.4195   -8.2090  -13.8542 O   0  0  0  0  0  0  0  0  0  0  0  0
  1  2  1  0
  2  3  1  0
  3 10  1  0
  3  4  2  0
  6  7  1  0
  6  5  1  0
  7  8  1  6
  9  7  1  0
  9 10  1  1
 11  9  1  0
 11 13  1  0
 12 11  2  0
 14 15  1  6
 14 13  1  0
 14 18  1  0
 16 20  1  0
 16 15  1  0
 17 16  2  0
 18 19  1  0
 21 18  2  0
M  END
$$$$
