IAT.pdb
     RDKit          3D

 21 20  0  0  1  0  0  0  0  0999 V2000
    5.6610  -11.1272   26.4385 C   0  0  0  0  0  0  0  0  0  0  0  0
    5.4073  -12.4597   25.8005 C   0  0  0  0  0  0  0  0  0  0  0  0
    6.6909  -13.2238   25.5606 C   0  0  2  0  0  0  0  0  0  0  0  0
    7.7074  -12.4103   24.8152 C   0  0  0  0  0  0  0  0  0  0  0  0
    6.4680  -14.5637   24.9506 C   0  0  2  0  0  0  0  0  0  0  0  0
    5.4506  -15.2386   25.7717 N   0  0  0  0  0  0  0  0  0  0  0  0
    7.6489  -15.4248   24.8996 C   0  0  0  0  0  0  0  0  0  0  0  0
    7.9433  -16.1331   25.8920 O   0  0  0  0  0  0  0  0  0  0  0  0
   10.1941  -16.5097   22.3814 C   0  0  0  0  0  0  0  0  0  0  0  0
    9.5950  -16.4087   23.7755 C   0  0  2  0  0  0  0  0  0  0  0  0
    8.4925  -15.4986   23.7615 N   0  0  0  0  0  0  0  0  0  0  0  0
   10.6318  -16.0606   24.7694 C   0  0  0  0  0  0  0  0  0  0  0  0
   11.6634  -15.3849   24.5318 O   0  0  0  0  0  0  0  0  0  0  0  0
   11.1297  -13.9506   27.5710 C   0  0  0  0  0  0  0  0  0  0  0  0
   11.0005  -15.3320   28.1328 C   0  0  1  0  0  0  0  0  0  0  0  0
    9.7101  -15.6194   28.5761 O   0  0  0  0  0  0  0  0  0  0  0  0
   11.4600  -16.3920   27.1238 C   0  0  2  0  0  0  0  0  0  0  0  0
   10.4459  -16.5278   26.0987 N   0  0  0  0  0  0  0  0  0  0  0  0
   11.6413  -17.6619   27.8643 C   0  0  0  0  0  0  0  0  0  0  0  0
   12.6796  -17.7692   28.7578 O   0  0  0  0  0  0  0  0  0  0  0  0
   10.8593  -18.5988   27.6669 O   0  0  0  0  0  0  0  0  0  0  0  0
  2  1  1  0
  3  2  1  0
  3  4  1  6
  5  3  1  0
  5  7  1  0
  5  6  1  1
  7  8  2  0
 10  9  1  6
 11 10  1  0
 11  7  1  0
 12 10  1  0
 12 18  1  0
 13 12  2  0
 15 14  1  6
 15 16  1  0
 17 18  1  6
 17 15  1  0
 19 17  1  0
 20 19  1  0
 21 19  2  0
M  END
$$$$
