IAT.pdb
     RDKit          3D

 21 20  0  0  1  0  0  0  0  0999 V2000
    8.0638  -11.6212   19.5448 C   0  0  0  0  0  0  0  0  0  0  0  0
    7.4326  -12.9459   19.8507 C   0  0  0  0  0  0  0  0  0  0  0  0
    8.4675  -14.0321   20.0464 C   0  0  2  0  0  0  0  0  0  0  0  0
    9.5071  -14.0302   18.9647 C   0  0  0  0  0  0  0  0  0  0  0  0
    7.8683  -15.3776   20.2649 C   0  0  2  0  0  0  0  0  0  0  0  0
    6.9483  -15.2509   21.4062 N   0  0  0  0  0  0  0  0  0  0  0  0
    8.8258  -16.4387   20.5743 C   0  0  0  0  0  0  0  0  0  0  0  0
    9.2657  -16.5558   21.7430 O   0  0  0  0  0  0  0  0  0  0  0  0
    9.8748  -19.6510   19.1263 C   0  0  0  0  0  0  0  0  0  0  0  0
   10.1278  -18.4404   20.0111 C   0  0  2  0  0  0  0  0  0  0  0  0
    9.2894  -17.3583   19.5987 N   0  0  0  0  0  0  0  0  0  0  0  0
   11.5647  -18.0954   20.0320 C   0  0  0  0  0  0  0  0  0  0  0  0
   12.5005  -18.9077   20.2358 O   0  0  0  0  0  0  0  0  0  0  0  0
   14.6751  -14.3472   18.9322 C   0  0  0  0  0  0  0  0  0  0  0  0
   13.3027  -14.9445   18.9467 C   0  0  1  0  0  0  0  0  0  0  0  0
   12.7570  -15.0825   17.6711 O   0  0  0  0  0  0  0  0  0  0  0  0
   13.2870  -16.2937   19.6761 C   0  0  2  0  0  0  0  0  0  0  0  0
   11.9140  -16.7369   19.8032 N   0  0  0  0  0  0  0  0  0  0  0  0
   13.9047  -16.0874   21.0064 C   0  0  0  0  0  0  0  0  0  0  0  0
   15.2699  -15.9591   21.0938 O   0  0  0  0  0  0  0  0  0  0  0  0
   13.1851  -16.0346   22.0102 O   0  0  0  0  0  0  0  0  0  0  0  0
  2  1  1  0
  3  2  1  0
  3  4  1  6
  5  3  1  0
  5  7  1  0
  5  6  1  1
  7  8  2  0
 10  9  1  6
 11 10  1  0
 11  7  1  0
 12 10  1  0
 12 18  1  0
 13 12  2  0
 15 14  1  6
 15 16  1  0
 17 18  1  1
 17 15  1  0
 19 17  1  0
 20 19  1  0
 21 19  2  0
M  END
$$$$
