IAT.pdb
     RDKit          3D

 21 20  0  0  1  0  0  0  0  0999 V2000
    7.8245  -12.0929   26.9085 C   0  0  0  0  0  0  0  0  0  0  0  0
    7.2961  -13.4890   27.0443 C   0  0  0  0  0  0  0  0  0  0  0  0
    7.4589  -14.2807   25.7654 C   0  0  2  0  0  0  0  0  0  0  0  0
    6.9916  -13.5190   24.5604 C   0  0  0  0  0  0  0  0  0  0  0  0
    6.8715  -15.6467   25.8450 C   0  0  2  0  0  0  0  0  0  0  0  0
    7.4816  -16.3025   27.0123 N   0  0  0  0  0  0  0  0  0  0  0  0
    7.1118  -16.4928   24.6766 C   0  0  0  0  0  0  0  0  0  0  0  0
    8.2036  -17.1000   24.5647 O   0  0  0  0  0  0  0  0  0  0  0  0
    5.0977  -18.0460   21.9734 C   0  0  0  0  0  0  0  0  0  0  0  0
    6.4092  -17.6168   22.6122 C   0  0  2  0  0  0  0  0  0  0  0  0
    6.1525  -16.6628   23.6456 N   0  0  0  0  0  0  0  0  0  0  0  0
    7.3590  -17.1329   21.5886 C   0  0  0  0  0  0  0  0  0  0  0  0
    7.7687  -17.8024   20.6082 O   0  0  0  0  0  0  0  0  0  0  0  0
    6.9610  -13.7646   19.8689 C   0  0  0  0  0  0  0  0  0  0  0  0
    8.3287  -13.7841   20.4768 C   0  0  1  0  0  0  0  0  0  0  0  0
    8.4268  -12.9898   21.6187 O   0  0  0  0  0  0  0  0  0  0  0  0
    8.7820  -15.2157   20.7895 C   0  0  2  0  0  0  0  0  0  0  0  0
    7.8468  -15.8050   21.7253 N   0  0  0  0  0  0  0  0  0  0  0  0
   10.1402  -15.1343   21.3749 C   0  0  0  0  0  0  0  0  0  0  0  0
   11.1786  -14.6960   20.5891 O   0  0  0  0  0  0  0  0  0  0  0  0
   10.3154  -15.4604   22.5544 O   0  0  0  0  0  0  0  0  0  0  0  0
  2  1  1  0
  3  2  1  0
  3  4  1  6
  5  3  1  0
  5  7  1  0
  5  6  1  1
  7  8  2  0
 10  9  1  6
 11 10  1  0
 11  7  1  0
 12 10  1  0
 12 18  1  0
 13 12  2  0
 15 14  1  1
 15 16  1  0
 17 18  1  1
 17 15  1  0
 19 17  1  0
 20 19  1  0
 21 19  2  0
M  END
$$$$
