IAT.pdb
     RDKit          3D

 21 20  0  0  1  0  0  0  0  0999 V2000
    7.7271  -11.6342   19.0211 C   0  0  0  0  0  0  0  0  0  0  0  0
    7.6643  -13.1098   18.7652 C   0  0  0  0  0  0  0  0  0  0  0  0
    7.8447  -13.9109   20.0359 C   0  0  2  0  0  0  0  0  0  0  0  0
    9.0815  -13.5160   20.7876 C   0  0  0  0  0  0  0  0  0  0  0  0
    7.7493  -15.3809   19.8184 C   0  0  2  0  0  0  0  0  0  0  0  0
    6.4253  -15.6366   19.2299 N   0  0  0  0  0  0  0  0  0  0  0  0
    7.8692  -16.1945   21.0277 C   0  0  0  0  0  0  0  0  0  0  0  0
    6.9544  -16.1691   21.8854 O   0  0  0  0  0  0  0  0  0  0  0  0
   10.0065  -18.9579   22.3095 C   0  0  0  0  0  0  0  0  0  0  0  0
    9.0045  -17.8248   22.4671 C   0  0  2  0  0  0  0  0  0  0  0  0
    8.9903  -17.0257   21.2817 N   0  0  0  0  0  0  0  0  0  0  0  0
    9.2767  -17.0493   23.6953 C   0  0  0  0  0  0  0  0  0  0  0  0
   10.2324  -16.2490   23.8483 O   0  0  0  0  0  0  0  0  0  0  0  0
    7.2136  -14.5331   25.5901 C   0  0  0  0  0  0  0  0  0  0  0  0
    7.3190  -15.7774   26.4154 C   0  0  1  0  0  0  0  0  0  0  0  0
    6.1939  -16.5944   26.3122 O   0  0  0  0  0  0  0  0  0  0  0  0
    8.5831  -16.5740   26.0685 C   0  0  2  0  0  0  0  0  0  0  0  0
    8.3860  -17.2235   24.7891 N   0  0  0  0  0  0  0  0  0  0  0  0
    8.7902  -17.5704   27.1446 C   0  0  0  0  0  0  0  0  0  0  0  0
    9.1577  -17.1338   28.3945 O   0  0  0  0  0  0  0  0  0  0  0  0
    8.6296  -18.7718   26.9012 O   0  0  0  0  0  0  0  0  0  0  0  0
  2  1  1  0
  3  2  1  0
  3  4  1  6
  5  3  1  0
  5  7  1  0
  5  6  1  1
  7  8  2  0
 10  9  1  6
 11 10  1  0
 11  7  1  0
 12 10  1  0
 12 18  1  0
 13 12  2  0
 15 14  1  6
 15 16  1  0
 17 18  1  6
 17 15  1  0
 19 17  1  0
 20 19  1  0
 21 19  2  0
M  END
$$$$
