IAT.pdb
     RDKit          3D

 21 20  0  0  1  0  0  0  0  0999 V2000
    7.8909  -11.9205   19.9950 C   0  0  0  0  0  0  0  0  0  0  0  0
    8.2953  -13.1421   19.2263 C   0  0  0  0  0  0  0  0  0  0  0  0
    8.1917  -14.3967   20.0655 C   0  0  2  0  0  0  0  0  0  0  0  0
    8.9108  -14.2667   21.3757 C   0  0  0  0  0  0  0  0  0  0  0  0
    8.5708  -15.6300   19.3221 C   0  0  2  0  0  0  0  0  0  0  0  0
    7.7621  -15.6487   18.0931 N   0  0  0  0  0  0  0  0  0  0  0  0
    8.3309  -16.8824   20.0379 C   0  0  0  0  0  0  0  0  0  0  0  0
    7.2406  -17.0580   20.6324 O   0  0  0  0  0  0  0  0  0  0  0  0
    9.0239  -20.3242   20.0235 C   0  0  0  0  0  0  0  0  0  0  0  0
    9.0126  -19.0779   20.8948 C   0  0  2  0  0  0  0  0  0  0  0  0
    9.2892  -17.9269   20.0931 N   0  0  0  0  0  0  0  0  0  0  0  0
    9.9319  -19.2298   22.0418 C   0  0  0  0  0  0  0  0  0  0  0  0
    9.9280  -20.1917   22.8492 O   0  0  0  0  0  0  0  0  0  0  0  0
   13.7904  -18.7923   21.9143 C   0  0  0  0  0  0  0  0  0  0  0  0
   13.2051  -17.7801   22.8488 C   0  0  1  0  0  0  0  0  0  0  0  0
   13.1265  -16.5055   22.2888 O   0  0  0  0  0  0  0  0  0  0  0  0
   11.8260  -18.2189   23.3570 C   0  0  2  0  0  0  0  0  0  0  0  0
   10.8962  -18.2060   22.2466 N   0  0  0  0  0  0  0  0  0  0  0  0
   11.4132  -17.2598   24.4075 C   0  0  0  0  0  0  0  0  0  0  0  0
   12.0373  -17.3032   25.6309 O   0  0  0  0  0  0  0  0  0  0  0  0
   10.5190  -16.4409   24.1670 O   0  0  0  0  0  0  0  0  0  0  0  0
  2  1  1  0
  3  2  1  0
  3  4  1  1
  5  3  1  0
  5  7  1  0
  5  6  1  6
  7  8  2  0
 10  9  1  6
 11 10  1  0
 11  7  1  0
 12 10  1  0
 12 18  1  0
 13 12  2  0
 15 14  1  6
 15 16  1  0
 17 18  1  6
 17 15  1  0
 19 17  1  0
 20 19  1  0
 21 19  2  0
M  END
$$$$
