IAT.pdb
     RDKit          3D

 21 20  0  0  1  0  0  0  0  0999 V2000
    7.9927  -12.0022   26.7657 C   0  0  0  0  0  0  0  0  0  0  0  0
    7.2683  -13.3141   26.7939 C   0  0  0  0  0  0  0  0  0  0  0  0
    7.5322  -14.1311   25.5481 C   0  0  2  0  0  0  0  0  0  0  0  0
    7.3166  -13.3401   24.2918 C   0  0  0  0  0  0  0  0  0  0  0  0
    6.8088  -15.4326   25.5388 C   0  0  2  0  0  0  0  0  0  0  0  0
    7.1835  -16.1340   26.7767 N   0  0  0  0  0  0  0  0  0  0  0  0
    7.1256  -16.3087   24.4115 C   0  0  0  0  0  0  0  0  0  0  0  0
    8.1832  -16.9828   24.4281 O   0  0  0  0  0  0  0  0  0  0  0  0
    5.3475  -17.9315   21.6326 C   0  0  0  0  0  0  0  0  0  0  0  0
    6.6171  -17.3844   22.2660 C   0  0  2  0  0  0  0  0  0  0  0  0
    6.2793  -16.4349   23.2801 N   0  0  0  0  0  0  0  0  0  0  0  0
    7.5283  -16.8443   21.2355 C   0  0  0  0  0  0  0  0  0  0  0  0
    7.9647  -17.4859   20.2481 O   0  0  0  0  0  0  0  0  0  0  0  0
    6.7904  -13.3614   19.8082 C   0  0  0  0  0  0  0  0  0  0  0  0
    8.2298  -13.3805   20.2183 C   0  0  1  0  0  0  0  0  0  0  0  0
    8.4727  -12.6514   21.3818 O   0  0  0  0  0  0  0  0  0  0  0  0
    8.7477  -14.8155   20.3774 C   0  0  2  0  0  0  0  0  0  0  0  0
    7.9429  -15.4919   21.3736 N   0  0  0  0  0  0  0  0  0  0  0  0
   10.1636  -14.7327   20.8042 C   0  0  0  0  0  0  0  0  0  0  0  0
   11.0980  -14.2489   19.9206 O   0  0  0  0  0  0  0  0  0  0  0  0
   10.4789  -15.0983   21.9422 O   0  0  0  0  0  0  0  0  0  0  0  0
  2  1  1  0
  3  2  1  0
  3  4  1  6
  5  3  1  0
  5  7  1  0
  5  6  1  1
  7  8  2  0
 10  9  1  6
 11 10  1  0
 11  7  1  0
 12 10  1  0
 12 18  1  0
 13 12  2  0
 15 14  1  1
 15 16  1  0
 17 18  1  1
 17 15  1  0
 19 17  1  0
 20 19  1  0
 21 19  2  0
M  END
$$$$
