IAT.pdb
     RDKit          3D

 21 20  0  0  1  0  0  0  0  0999 V2000
    6.9325  -11.1306   26.7681 C   0  0  0  0  0  0  0  0  0  0  0  0
    7.0526  -12.5564   27.2150 C   0  0  0  0  0  0  0  0  0  0  0  0
    7.3546  -13.4860   26.0602 C   0  0  2  0  0  0  0  0  0  0  0  0
    6.4462  -13.2534   24.8891 C   0  0  0  0  0  0  0  0  0  0  0  0
    7.4166  -14.9180   26.4636 C   0  0  2  0  0  0  0  0  0  0  0  0
    8.4112  -15.0106   27.5439 N   0  0  0  0  0  0  0  0  0  0  0  0
    7.8159  -15.8429   25.4036 C   0  0  0  0  0  0  0  0  0  0  0  0
    9.0165  -15.8932   25.0442 O   0  0  0  0  0  0  0  0  0  0  0  0
    6.7341  -18.9190   23.8139 C   0  0  0  0  0  0  0  0  0  0  0  0
    7.3608  -17.5389   23.6903 C   0  0  2  0  0  0  0  0  0  0  0  0
    6.8942  -16.7010   24.7506 N   0  0  0  0  0  0  0  0  0  0  0  0
    7.1239  -16.9723   22.3461 C   0  0  0  0  0  0  0  0  0  0  0  0
    6.0635  -17.0979   21.6850 O   0  0  0  0  0  0  0  0  0  0  0  0
    7.0057  -13.5758   21.3738 C   0  0  0  0  0  0  0  0  0  0  0  0
    8.1533  -14.1100   20.5750 C   0  0  1  0  0  0  0  0  0  0  0  0
    9.3940  -13.7359   21.0897 O   0  0  0  0  0  0  0  0  0  0  0  0
    8.0776  -15.6358   20.4374 C   0  0  2  0  0  0  0  0  0  0  0  0
    8.1800  -16.2265   21.7558 N   0  0  0  0  0  0  0  0  0  0  0  0
    9.2042  -16.0610   19.5750 C   0  0  0  0  0  0  0  0  0  0  0  0
    9.1611  -15.7715   18.2326 O   0  0  0  0  0  0  0  0  0  0  0  0
   10.1592  -16.6662   20.0752 O   0  0  0  0  0  0  0  0  0  0  0  0
  2  1  1  0
  3  2  1  0
  3  4  1  6
  5  3  1  0
  5  7  1  0
  5  6  1  1
  7  8  2  0
 10  9  1  6
 11 10  1  0
 11  7  1  0
 12 10  1  0
 12 18  1  0
 13 12  2  0
 15 14  1  1
 15 16  1  0
 17 18  1  1
 17 15  1  0
 19 17  1  0
 20 19  1  0
 21 19  2  0
M  END
$$$$
