IAT.pdb
     RDKit          3D

 21 20  0  0  1  0  0  0  0  0999 V2000
    5.8477  -11.4423   26.9134 C   0  0  0  0  0  0  0  0  0  0  0  0
    5.5823  -12.6933   26.1314 C   0  0  0  0  0  0  0  0  0  0  0  0
    6.8556  -13.4561   25.8382 C   0  0  2  0  0  0  0  0  0  0  0  0
    7.9119  -12.5863   25.2231 C   0  0  0  0  0  0  0  0  0  0  0  0
    6.6220  -14.7085   25.0674 C   0  0  2  0  0  0  0  0  0  0  0  0
    5.5472  -15.4371   25.7593 N   0  0  0  0  0  0  0  0  0  0  0  0
    7.7780  -15.5988   24.9683 C   0  0  0  0  0  0  0  0  0  0  0  0
    8.0127  -16.4154   25.8910 O   0  0  0  0  0  0  0  0  0  0  0  0
   10.4256  -16.4780   22.4765 C   0  0  0  0  0  0  0  0  0  0  0  0
    9.7817  -16.4721   23.8542 C   0  0  2  0  0  0  0  0  0  0  0  0
    8.6622  -15.5830   23.8592 N   0  0  0  0  0  0  0  0  0  0  0  0
   10.7801  -16.1656   24.8999 C   0  0  0  0  0  0  0  0  0  0  0  0
   11.9249  -15.6937   24.6905 O   0  0  0  0  0  0  0  0  0  0  0  0
   10.8803  -13.7929   27.7338 C   0  0  0  0  0  0  0  0  0  0  0  0
   10.7328  -15.1715   28.2979 C   0  0  1  0  0  0  0  0  0  0  0  0
    9.4120  -15.4929   28.6082 O   0  0  0  0  0  0  0  0  0  0  0  0
   11.3257  -16.2278   27.3570 C   0  0  2  0  0  0  0  0  0  0  0  0
   10.4149  -16.4259   26.2485 N   0  0  0  0  0  0  0  0  0  0  0  0
   11.4927  -17.4754   28.1377 C   0  0  0  0  0  0  0  0  0  0  0  0
   12.4292  -17.5115   29.1425 O   0  0  0  0  0  0  0  0  0  0  0  0
   10.7903  -18.4577   27.8734 O   0  0  0  0  0  0  0  0  0  0  0  0
  2  1  1  0
  3  2  1  0
  3  4  1  6
  5  3  1  0
  5  7  1  0
  5  6  1  1
  7  8  2  0
 10  9  1  6
 11 10  1  0
 11  7  1  0
 12 10  1  0
 12 18  1  0
 13 12  2  0
 15 14  1  6
 15 16  1  0
 17 18  1  6
 17 15  1  0
 19 17  1  0
 20 19  1  0
 21 19  2  0
M  END
$$$$
