IAT.pdb
     RDKit          3D

 21 20  0  0  1  0  0  0  0  0999 V2000
    6.9877  -12.6757   25.8237 C   0  0  0  0  0  0  0  0  0  0  0  0
    6.8207  -14.1362   26.1170 C   0  0  0  0  0  0  0  0  0  0  0  0
    7.9291  -14.6645   27.0008 C   0  0  2  0  0  0  0  0  0  0  0  0
    9.2909  -14.3678   26.4457 C   0  0  0  0  0  0  0  0  0  0  0  0
    7.7556  -16.0988   27.3612 C   0  0  2  0  0  0  0  0  0  0  0  0
    8.7458  -16.3949   28.4084 N   0  0  0  0  0  0  0  0  0  0  0  0
    7.9653  -17.0424   26.2637 C   0  0  0  0  0  0  0  0  0  0  0  0
    9.1076  -17.5219   26.0678 O   0  0  0  0  0  0  0  0  0  0  0  0
    5.8820  -19.0865   23.9590 C   0  0  0  0  0  0  0  0  0  0  0  0
    7.1878  -18.4533   24.4134 C   0  0  2  0  0  0  0  0  0  0  0  0
    6.9202  -17.4486   25.3947 N   0  0  0  0  0  0  0  0  0  0  0  0
    7.9605  -17.9540   23.2569 C   0  0  0  0  0  0  0  0  0  0  0  0
    8.4658  -18.6733   22.3599 O   0  0  0  0  0  0  0  0  0  0  0  0
    6.7716  -14.8761   21.2904 C   0  0  0  0  0  0  0  0  0  0  0  0
    8.2004  -14.6352   21.6656 C   0  0  1  0  0  0  0  0  0  0  0  0
    8.3445  -13.6771   22.6683 O   0  0  0  0  0  0  0  0  0  0  0  0
    8.8986  -15.9378   22.0763 C   0  0  2  0  0  0  0  0  0  0  0  0
    8.1459  -16.5488   23.1523 N   0  0  0  0  0  0  0  0  0  0  0  0
   10.2687  -15.5881   22.5173 C   0  0  0  0  0  0  0  0  0  0  0  0
   11.1820  -15.1663   21.5815 O   0  0  0  0  0  0  0  0  0  0  0  0
   10.5655  -15.6812   23.7138 O   0  0  0  0  0  0  0  0  0  0  0  0
  2  1  1  0
  3  2  1  0
  3  4  1  6
  5  3  1  0
  5  7  1  0
  5  6  1  1
  7  8  2  0
 10  9  1  6
 11 10  1  0
 11  7  1  0
 12 10  1  0
 12 18  1  0
 13 12  2  0
 15 14  1  1
 15 16  1  0
 17 18  1  1
 17 15  1  0
 19 17  1  0
 20 19  1  0
 21 19  2  0
M  END
$$$$
