IAT.pdb
     RDKit          3D

 21 20  0  0  1  0  0  0  0  0999 V2000
    6.0271  -11.1161   27.0460 C   0  0  0  0  0  0  0  0  0  0  0  0
    5.5318  -12.3806   26.4116 C   0  0  0  0  0  0  0  0  0  0  0  0
    6.6381  -13.1229   25.6945 C   0  0  2  0  0  0  0  0  0  0  0  0
    7.3673  -12.2513   24.7152 C   0  0  0  0  0  0  0  0  0  0  0  0
    6.1855  -14.4081   25.0938 C   0  0  2  0  0  0  0  0  0  0  0  0
    5.6473  -15.2232   26.1941 N   0  0  0  0  0  0  0  0  0  0  0  0
    7.2327  -15.1834   24.4297 C   0  0  0  0  0  0  0  0  0  0  0  0
    7.9375  -15.9754   25.1000 O   0  0  0  0  0  0  0  0  0  0  0  0
    8.4742  -15.7609   20.9417 C   0  0  0  0  0  0  0  0  0  0  0  0
    8.4529  -15.9621   22.4489 C   0  0  2  0  0  0  0  0  0  0  0  0
    7.4942  -15.0810   23.0393 N   0  0  0  0  0  0  0  0  0  0  0  0
    9.8095  -15.8205   23.0176 C   0  0  0  0  0  0  0  0  0  0  0  0
   10.7297  -15.1205   22.5272 O   0  0  0  0  0  0  0  0  0  0  0  0
   10.7132  -15.2099   26.8952 C   0  0  0  0  0  0  0  0  0  0  0  0
   11.1895  -16.5305   26.3761 C   0  0  1  0  0  0  0  0  0  0  0  0
   10.3471  -17.5862   26.7229 O   0  0  0  0  0  0  0  0  0  0  0  0
   11.3920  -16.4947   24.8561 C   0  0  2  0  0  0  0  0  0  0  0  0
   10.0944  -16.5330   24.2138 N   0  0  0  0  0  0  0  0  0  0  0  0
   12.2033  -17.6778   24.4874 C   0  0  0  0  0  0  0  0  0  0  0  0
   13.5462  -17.6808   24.7778 O   0  0  0  0  0  0  0  0  0  0  0  0
   11.6610  -18.6374   23.9277 O   0  0  0  0  0  0  0  0  0  0  0  0
  2  1  1  0
  3  2  1  0
  3  4  1  6
  5  3  1  0
  5  7  1  0
  5  6  1  1
  7  8  2  0
 10  9  1  6
 11 10  1  0
 11  7  1  0
 12 10  1  0
 12 18  1  0
 13 12  2  0
 15 14  1  6
 15 16  1  0
 17 18  1  6
 17 15  1  0
 19 17  1  0
 20 19  1  0
 21 19  2  0
M  END
$$$$
