IAT.pdb
     RDKit          3D

 21 20  0  0  1  0  0  0  0  0999 V2000
    5.9505  -11.6534   26.9054 C   0  0  0  0  0  0  0  0  0  0  0  0
    5.7098  -12.8031   25.9742 C   0  0  0  0  0  0  0  0  0  0  0  0
    6.9759  -13.5870   25.7066 C   0  0  2  0  0  0  0  0  0  0  0  0
    8.0812  -12.7210   25.1785 C   0  0  0  0  0  0  0  0  0  0  0  0
    6.7473  -14.7992   24.8727 C   0  0  2  0  0  0  0  0  0  0  0  0
    5.5791  -15.4898   25.4410 N   0  0  0  0  0  0  0  0  0  0  0  0
    7.8599  -15.7477   24.8416 C   0  0  0  0  0  0  0  0  0  0  0  0
    8.0242  -16.5425   25.7980 O   0  0  0  0  0  0  0  0  0  0  0  0
   10.5768  -16.8128   22.5017 C   0  0  0  0  0  0  0  0  0  0  0  0
    9.8917  -16.7058   23.8552 C   0  0  2  0  0  0  0  0  0  0  0  0
    8.7785  -15.8134   23.7626 N   0  0  0  0  0  0  0  0  0  0  0  0
   10.8600  -16.3302   24.9065 C   0  0  0  0  0  0  0  0  0  0  0  0
   11.9189  -15.6823   24.7162 O   0  0  0  0  0  0  0  0  0  0  0  0
   10.3175  -14.0490   27.6359 C   0  0  0  0  0  0  0  0  0  0  0  0
   10.5013  -15.3978   28.2582 C   0  0  1  0  0  0  0  0  0  0  0  0
    9.2935  -16.0244   28.5629 O   0  0  0  0  0  0  0  0  0  0  0  0
   11.3605  -16.3101   27.3739 C   0  0  2  0  0  0  0  0  0  0  0  0
   10.5692  -16.7346   26.2375 N   0  0  0  0  0  0  0  0  0  0  0  0
   11.7721  -17.4696   28.1985 C   0  0  0  0  0  0  0  0  0  0  0  0
   12.6711  -17.2751   29.2191 O   0  0  0  0  0  0  0  0  0  0  0  0
   11.3021  -18.5869   27.9555 O   0  0  0  0  0  0  0  0  0  0  0  0
  2  1  1  0
  3  2  1  0
  3  4  1  6
  5  3  1  0
  5  7  1  0
  5  6  1  1
  7  8  2  0
 10  9  1  6
 11 10  1  0
 11  7  1  0
 12 10  1  0
 12 18  1  0
 13 12  2  0
 15 14  1  6
 15 16  1  0
 17 18  1  6
 17 15  1  0
 19 17  1  0
 20 19  1  0
 21 19  2  0
M  END
$$$$
