IAT.pdb
     RDKit          3D

 21 20  0  0  1  0  0  0  0  0999 V2000
    7.0833  -12.1191   19.5661 C   0  0  0  0  0  0  0  0  0  0  0  0
    7.4779  -13.5594   19.6953 C   0  0  0  0  0  0  0  0  0  0  0  0
    7.7668  -13.9385   21.1313 C   0  0  2  0  0  0  0  0  0  0  0  0
    8.7174  -12.9844   21.7922 C   0  0  0  0  0  0  0  0  0  0  0  0
    8.1785  -15.3609   21.2886 C   0  0  2  0  0  0  0  0  0  0  0  0
    7.0835  -16.1807   20.7466 N   0  0  0  0  0  0  0  0  0  0  0  0
    8.4199  -15.7865   22.6667 C   0  0  0  0  0  0  0  0  0  0  0  0
    9.4421  -15.3820   23.2706 O   0  0  0  0  0  0  0  0  0  0  0  0
    6.5540  -17.3425   25.4572 C   0  0  0  0  0  0  0  0  0  0  0  0
    7.8383  -16.9972   24.7196 C   0  0  2  0  0  0  0  0  0  0  0  0
    7.5380  -16.6501   23.3656 N   0  0  0  0  0  0  0  0  0  0  0  0
    8.8247  -18.0910   24.8409 C   0  0  0  0  0  0  0  0  0  0  0  0
    8.7419  -19.2061   24.2691 O   0  0  0  0  0  0  0  0  0  0  0  0
   13.3808  -19.3594   26.0445 C   0  0  0  0  0  0  0  0  0  0  0  0
   12.3254  -18.3719   25.6555 C   0  0  1  0  0  0  0  0  0  0  0  0
   12.4001  -17.9971   24.3146 O   0  0  0  0  0  0  0  0  0  0  0  0
   10.9209  -18.8968   25.9790 C   0  0  2  0  0  0  0  0  0  0  0  0
    9.9559  -17.8619   25.6702 N   0  0  0  0  0  0  0  0  0  0  0  0
   10.8941  -19.2362   27.4206 C   0  0  0  0  0  0  0  0  0  0  0  0
   11.3090  -20.4841   27.8185 O   0  0  0  0  0  0  0  0  0  0  0  0
   10.5008  -18.3952   28.2368 O   0  0  0  0  0  0  0  0  0  0  0  0
  2  1  1  0
  3  2  1  0
  3  4  1  6
  5  3  1  0
  5  7  1  0
  5  6  1  1
  7  8  2  0
 10  9  1  6
 11 10  1  0
 11  7  1  0
 12 10  1  0
 12 18  1  0
 13 12  2  0
 15 14  1  6
 15 16  1  0
 17 18  1  1
 17 15  1  0
 19 17  1  0
 20 19  1  0
 21 19  2  0
M  END
$$$$
