IAT.pdb
     RDKit          3D

 21 20  0  0  1  0  0  0  0  0999 V2000
    7.7269  -11.7925   26.8677 C   0  0  0  0  0  0  0  0  0  0  0  0
    7.4536  -13.1887   27.3397 C   0  0  0  0  0  0  0  0  0  0  0  0
    7.6223  -14.2027   26.2296 C   0  0  2  0  0  0  0  0  0  0  0  0
    6.8730  -13.8181   24.9881 C   0  0  0  0  0  0  0  0  0  0  0  0
    7.3363  -15.5979   26.6641 C   0  0  2  0  0  0  0  0  0  0  0  0
    8.1212  -15.8296   27.8869 N   0  0  0  0  0  0  0  0  0  0  0  0
    7.6952  -16.6335   25.6959 C   0  0  0  0  0  0  0  0  0  0  0  0
    8.8766  -17.0515   25.6442 O   0  0  0  0  0  0  0  0  0  0  0  0
    5.9420  -19.0951   23.5465 C   0  0  0  0  0  0  0  0  0  0  0  0
    7.1607  -18.2873   23.9645 C   0  0  2  0  0  0  0  0  0  0  0  0
    6.7546  -17.1979   24.7965 N   0  0  0  0  0  0  0  0  0  0  0  0
    7.9421  -17.8652   22.7833 C   0  0  0  0  0  0  0  0  0  0  0  0
    8.4765  -18.6425   21.9542 O   0  0  0  0  0  0  0  0  0  0  0  0
    6.6236  -14.8586   20.7353 C   0  0  0  0  0  0  0  0  0  0  0  0
    8.0814  -14.6323   20.9881 C   0  0  1  0  0  0  0  0  0  0  0  0
    8.3206  -13.6281   21.9254 O   0  0  0  0  0  0  0  0  0  0  0  0
    8.7838  -15.9282   21.4126 C   0  0  2  0  0  0  0  0  0  0  0  0
    8.1007  -16.4691   22.5696 N   0  0  0  0  0  0  0  0  0  0  0  0
   10.1886  -15.5875   21.7354 C   0  0  0  0  0  0  0  0  0  0  0  0
   11.0316  -15.2068   20.7194 O   0  0  0  0  0  0  0  0  0  0  0  0
   10.5767  -15.6512   22.9074 O   0  0  0  0  0  0  0  0  0  0  0  0
  2  1  1  0
  3  2  1  0
  3  4  1  6
  5  3  1  0
  5  7  1  0
  5  6  1  1
  7  8  2  0
 10  9  1  6
 11 10  1  0
 11  7  1  0
 12 10  1  0
 12 18  1  0
 13 12  2  0
 15 14  1  1
 15 16  1  0
 17 18  1  1
 17 15  1  0
 19 17  1  0
 20 19  1  0
 21 19  2  0
M  END
$$$$
