IAT.pdb
     RDKit          3D

 21 20  0  0  1  0  0  0  0  0999 V2000
    7.5560  -11.7245   18.7481 C   0  0  0  0  0  0  0  0  0  0  0  0
    7.9421  -13.1093   18.3238 C   0  0  0  0  0  0  0  0  0  0  0  0
    8.4463  -13.9356   19.4866 C   0  0  2  0  0  0  0  0  0  0  0  0
    9.5973  -13.2824   20.1930 C   0  0  0  0  0  0  0  0  0  0  0  0
    8.7262  -15.3513   19.1195 C   0  0  2  0  0  0  0  0  0  0  0  0
    7.4849  -15.8927   18.5442 N   0  0  0  0  0  0  0  0  0  0  0  0
    9.1194  -16.2133   20.2334 C   0  0  0  0  0  0  0  0  0  0  0  0
    8.2720  -16.5288   21.1027 O   0  0  0  0  0  0  0  0  0  0  0  0
   12.0249  -18.3180   21.2423 C   0  0  0  0  0  0  0  0  0  0  0  0
   10.7356  -17.5545   21.5016 C   0  0  2  0  0  0  0  0  0  0  0  0
   10.4366  -16.7189   20.3807 N   0  0  0  0  0  0  0  0  0  0  0  0
   10.8088  -16.8179   22.7807 C   0  0  0  0  0  0  0  0  0  0  0  0
   11.6456  -15.9216   23.0521 O   0  0  0  0  0  0  0  0  0  0  0  0
    8.2209  -14.7621   24.6725 C   0  0  0  0  0  0  0  0  0  0  0  0
    8.4982  -16.0175   25.4388 C   0  0  1  0  0  0  0  0  0  0  0  0
    7.5274  -16.9991   25.2428 O   0  0  0  0  0  0  0  0  0  0  0  0
    9.8882  -16.5776   25.1117 C   0  0  2  0  0  0  0  0  0  0  0  0
    9.8567  -17.1508   23.7820 N   0  0  0  0  0  0  0  0  0  0  0  0
   10.2028  -17.6083   26.1279 C   0  0  0  0  0  0  0  0  0  0  0  0
   10.4591  -17.2138   27.4189 O   0  0  0  0  0  0  0  0  0  0  0  0
   10.2294  -18.7996   25.7989 O   0  0  0  0  0  0  0  0  0  0  0  0
  2  1  1  0
  3  2  1  0
  3  4  1  6
  5  3  1  0
  5  7  1  0
  5  6  1  1
  7  8  2  0
 10  9  1  6
 11 10  1  0
 11  7  1  0
 12 10  1  0
 12 18  1  0
 13 12  2  0
 15 14  1  6
 15 16  1  0
 17 18  1  6
 17 15  1  0
 19 17  1  0
 20 19  1  0
 21 19  2  0
M  END
$$$$
