IAT.pdb
     RDKit          3D

 21 20  0  0  1  0  0  0  0  0999 V2000
    4.9809  -22.4713   22.9910 C   0  0  0  0  0  0  0  0  0  0  0  0
    4.5998  -21.1219   23.5207 C   0  0  0  0  0  0  0  0  0  0  0  0
    5.7829  -20.1800   23.5688 C   0  0  2  0  0  0  0  0  0  0  0  0
    6.4592  -20.1827   24.9079 C   0  0  0  0  0  0  0  0  0  0  0  0
    5.4567  -18.8073   23.0927 C   0  0  2  0  0  0  0  0  0  0  0  0
    5.0757  -18.9298   21.6768 N   0  0  0  0  0  0  0  0  0  0  0  0
    6.5536  -17.8443   23.1820 C   0  0  0  0  0  0  0  0  0  0  0  0
    7.4721  -17.8696   22.3282 O   0  0  0  0  0  0  0  0  0  0  0  0
    7.4751  -14.8266   25.1809 C   0  0  0  0  0  0  0  0  0  0  0  0
    7.7586  -15.9886   24.2418 C   0  0  2  0  0  0  0  0  0  0  0  0
    6.6301  -16.8657   24.2060 N   0  0  0  0  0  0  0  0  0  0  0  0
    9.0187  -16.6671   24.6102 C   0  0  0  0  0  0  0  0  0  0  0  0
    9.1904  -17.3635   25.6412 O   0  0  0  0  0  0  0  0  0  0  0  0
   11.2259  -18.1314   21.5505 C   0  0  0  0  0  0  0  0  0  0  0  0
   12.0548  -17.3599   22.5294 C   0  0  1  0  0  0  0  0  0  0  0  0
   12.3983  -16.0898   22.0680 O   0  0  0  0  0  0  0  0  0  0  0  0
   11.3591  -17.2557   23.8924 C   0  0  2  0  0  0  0  0  0  0  0  0
   10.1228  -16.5194   23.7276 N   0  0  0  0  0  0  0  0  0  0  0  0
   12.2816  -16.5477   24.8097 C   0  0  0  0  0  0  0  0  0  0  0  0
   13.4144  -17.1932   25.2436 O   0  0  0  0  0  0  0  0  0  0  0  0
   12.0181  -15.3942   25.1675 O   0  0  0  0  0  0  0  0  0  0  0  0
  2  1  1  0
  3  2  1  0
  3  4  1  1
  5  3  1  0
  5  7  1  0
  5  6  1  6
  7  8  2  0
 10  9  1  1
 11 10  1  0
 11  7  1  0
 12 10  1  0
 12 18  1  0
 13 12  2  0
 15 14  1  6
 15 16  1  0
 17 18  1  6
 17 15  1  0
 19 17  1  0
 20 19  1  0
 21 19  2  0
M  END
$$$$
