KQP.pdb
     RDKit          3D

 26 26  0  0  1  0  0  0  0  0999 V2000
    7.5185  -17.4427   19.8887 N   0  0  0  0  0  0  0  0  0  0  0  0
    7.6093  -16.1313   20.4430 C   0  0  1  0  0  0  0  0  0  0  0  0
    7.0204  -15.1553   19.4533 C   0  0  0  0  0  0  0  0  0  0  0  0
    8.1465  -14.6005   18.6112 C   0  0  0  0  0  0  0  0  0  0  0  0
    7.6361  -13.6136   17.5829 C   0  0  0  0  0  0  0  0  0  0  0  0
    8.8143  -13.0805   16.7771 C   0  0  0  0  0  0  0  0  0  0  0  0
    8.5133  -13.0082   15.3805 N   0  0  0  0  0  0  0  0  0  0  0  0
    7.0689  -15.9946   21.7917 C   0  0  0  0  0  0  0  0  0  0  0  0
    5.8463  -16.1943   22.0030 O   0  0  0  0  0  0  0  0  0  0  0  0
    5.8262  -19.4052   25.3585 N   0  0  0  0  0  0  0  0  0  0  0  0
    7.1560  -18.9932   25.6976 C   0  0  0  0  0  0  0  0  0  0  0  0
    7.7674  -19.5924   26.6165 O   0  0  0  0  0  0  0  0  0  0  0  0
    7.7679  -17.8663   24.9470 C   0  0  0  0  0  0  0  0  0  0  0  0
    6.7152  -16.7999   24.7773 C   0  0  0  0  0  0  0  0  0  0  0  0
    7.3045  -15.5035   24.2499 C   0  0  2  0  0  0  0  0  0  0  0  0
    7.8602  -15.6338   22.9472 N   0  0  0  0  0  0  0  0  0  0  0  0
    8.2621  -14.9479   25.2025 C   0  0  0  0  0  0  0  0  0  0  0  0
    9.4863  -15.3208   24.9652 O   0  0  0  0  0  0  0  0  0  0  0  0
    8.0754  -14.1011   26.2998 N   0  0  0  0  0  0  0  0  0  0  0  0
    6.7345  -13.7308   26.7993 C   0  0  0  0  0  0  0  0  0  0  0  0
    6.8882  -12.3599   27.3797 C   0  0  0  0  0  0  0  0  0  0  0  0
    8.3322  -12.0114   27.1876 C   0  0  0  0  0  0  0  0  0  0  0  0
    8.9633  -13.4213   27.1935 C   0  0  1  0  0  0  0  0  0  0  0  0
    8.9155  -13.9848   28.5761 C   0  0  0  0  0  0  0  0  0  0  0  0
    9.8440  -13.5847   29.5268 O   0  0  0  0  0  0  0  0  0  0  0  0
    8.0612  -14.8268   28.9510 O   0  0  0  0  0  0  0  0  0  0  0  0
  2  1  1  6
  3  2  1  0
  4  3  1  0
  4  5  1  0
  5  6  1  0
  6  7  1  0
  8  2  1  0
  8  9  2  0
 10 11  1  0
 11 12  2  0
 11 13  1  0
 13 14  1  0
 15 14  1  1
 15 16  1  0
 16  8  1  0
 17 15  1  0
 18 17  2  0
 19 17  1  0
 19 23  1  0
 20 19  1  0
 20 21  1  0
 21 22  1  0
 23 22  1  0
 24 25  1  0
 23 24  1  1
 26 24  2  0
M  END
$$$$
