KQP.pdb
     RDKit          3D

 26 26  0  0  1  0  0  0  0  0999 V2000
    6.4296  -16.6539   19.8613 N   0  0  0  0  0  0  0  0  0  0  0  0
    7.4018  -15.9302   20.6139 C   0  0  1  0  0  0  0  0  0  0  0  0
    7.6404  -14.6048   19.9319 C   0  0  0  0  0  0  0  0  0  0  0  0
    7.9196  -14.8702   18.4702 C   0  0  0  0  0  0  0  0  0  0  0  0
    8.0524  -13.5811   17.6877 C   0  0  0  0  0  0  0  0  0  0  0  0
    8.2972  -13.9123   16.2207 C   0  0  0  0  0  0  0  0  0  0  0  0
    8.5287  -12.7350   15.4418 N   0  0  0  0  0  0  0  0  0  0  0  0
    7.1123  -15.8110   22.0393 C   0  0  0  0  0  0  0  0  0  0  0  0
    6.0966  -15.1790   22.4245 O   0  0  0  0  0  0  0  0  0  0  0  0
    8.2946  -19.5153   27.8622 N   0  0  0  0  0  0  0  0  0  0  0  0
    7.1818  -18.9778   27.1370 C   0  0  0  0  0  0  0  0  0  0  0  0
    6.1567  -19.6852   26.9754 O   0  0  0  0  0  0  0  0  0  0  0  0
    7.2799  -17.5963   26.5990 C   0  0  0  0  0  0  0  0  0  0  0  0
    7.5051  -17.6958   25.1113 C   0  0  0  0  0  0  0  0  0  0  0  0
    7.5811  -16.3267   24.4587 C   0  0  2  0  0  0  0  0  0  0  0  0
    7.9337  -16.3848   23.0821 N   0  0  0  0  0  0  0  0  0  0  0  0
    8.4651  -15.4439   25.2153 C   0  0  0  0  0  0  0  0  0  0  0  0
    9.6883  -15.4503   24.7706 O   0  0  0  0  0  0  0  0  0  0  0  0
    8.2106  -14.6151   26.3127 N   0  0  0  0  0  0  0  0  0  0  0  0
    6.8774  -14.5178   26.9434 C   0  0  0  0  0  0  0  0  0  0  0  0
    6.7907  -13.1246   27.4831 C   0  0  0  0  0  0  0  0  0  0  0  0
    8.1006  -12.4865   27.1362 C   0  0  0  0  0  0  0  0  0  0  0  0
    9.0161  -13.7300   27.0982 C   0  0  1  0  0  0  0  0  0  0  0  0
    9.2264  -14.2387   28.4870 C   0  0  0  0  0  0  0  0  0  0  0  0
   10.1180  -13.6007   29.3379 O   0  0  0  0  0  0  0  0  0  0  0  0
    8.6298  -15.2411   28.9545 O   0  0  0  0  0  0  0  0  0  0  0  0
  2  1  1  6
  3  2  1  0
  4  3  1  0
  4  5  1  0
  5  6  1  0
  6  7  1  0
  8  2  1  0
  8  9  2  0
 10 11  1  0
 11 12  2  0
 11 13  1  0
 13 14  1  0
 15 14  1  1
 15 16  1  0
 16  8  1  0
 17 15  1  0
 18 17  2  0
 19 17  1  0
 19 23  1  0
 20 19  1  0
 20 21  1  0
 21 22  1  0
 23 22  1  0
 24 25  1  0
 23 24  1  1
 26 24  2  0
M  END
$$$$
