KQP.pdb
     RDKit          3D

 26 26  0  0  1  0  0  0  0  0999 V2000
    5.9416  -16.4070   19.9278 N   0  0  0  0  0  0  0  0  0  0  0  0
    6.7505  -15.5953   20.7775 C   0  0  1  0  0  0  0  0  0  0  0  0
    6.5694  -14.1531   20.3699 C   0  0  0  0  0  0  0  0  0  0  0  0
    7.4382  -13.8921   19.1608 C   0  0  0  0  0  0  0  0  0  0  0  0
    8.6981  -13.1407   19.5347 C   0  0  0  0  0  0  0  0  0  0  0  0
    9.4928  -12.8409   18.2696 C   0  0  0  0  0  0  0  0  0  0  0  0
   10.7421  -12.2093   18.5642 N   0  0  0  0  0  0  0  0  0  0  0  0
    6.5668  -15.8268   22.2066 C   0  0  0  0  0  0  0  0  0  0  0  0
    5.4571  -15.5866   22.7455 O   0  0  0  0  0  0  0  0  0  0  0  0
    8.8192  -19.8349   26.3861 N   0  0  0  0  0  0  0  0  0  0  0  0
    7.8800  -19.0415   27.1220 C   0  0  0  0  0  0  0  0  0  0  0  0
    7.3840  -19.5033   28.1794 O   0  0  0  0  0  0  0  0  0  0  0  0
    7.5241  -17.6943   26.6062 C   0  0  0  0  0  0  0  0  0  0  0  0
    7.7730  -17.6896   25.1189 C   0  0  0  0  0  0  0  0  0  0  0  0
    7.4721  -16.3358   24.5002 C   0  0  2  0  0  0  0  0  0  0  0  0
    7.6006  -16.3300   23.0838 N   0  0  0  0  0  0  0  0  0  0  0  0
    8.2769  -15.2918   25.1290 C   0  0  0  0  0  0  0  0  0  0  0  0
    9.4150  -15.0989   24.5276 O   0  0  0  0  0  0  0  0  0  0  0  0
    8.0237  -14.4885   26.2455 N   0  0  0  0  0  0  0  0  0  0  0  0
    6.7224  -14.4882   26.9462 C   0  0  0  0  0  0  0  0  0  0  0  0
    6.5674  -13.1074   27.5020 C   0  0  0  0  0  0  0  0  0  0  0  0
    7.8093  -12.3771   27.0923 C   0  0  0  0  0  0  0  0  0  0  0  0
    8.8060  -13.5531   26.9954 C   0  0  1  0  0  0  0  0  0  0  0  0
    9.1247  -14.0528   28.3666 C   0  0  0  0  0  0  0  0  0  0  0  0
   10.0755  -13.4057   29.1433 O   0  0  0  0  0  0  0  0  0  0  0  0
    8.5709  -15.0554   28.8838 O   0  0  0  0  0  0  0  0  0  0  0  0
  2  1  1  6
  3  2  1  0
  4  3  1  0
  4  5  1  0
  5  6  1  0
  6  7  1  0
  8  2  1  0
  8  9  2  0
 10 11  1  0
 11 12  2  0
 11 13  1  0
 13 14  1  0
 15 14  1  1
 15 16  1  0
 16  8  1  0
 17 15  1  0
 18 17  2  0
 19 17  1  0
 19 23  1  0
 20 19  1  0
 20 21  1  0
 21 22  1  0
 23 22  1  0
 24 25  1  0
 23 24  1  1
 26 24  2  0
M  END
$$$$
