KQP.pdb
     RDKit          3D

 26 26  0  0  1  0  0  0  0  0999 V2000
   11.4383  -17.3813   19.7392 N   0  0  0  0  0  0  0  0  0  0  0  0
   10.8938  -17.6171   21.0366 C   0  0  1  0  0  0  0  0  0  0  0  0
   11.8486  -18.5039   21.7987 C   0  0  0  0  0  0  0  0  0  0  0  0
   11.6010  -19.9345   21.3781 C   0  0  0  0  0  0  0  0  0  0  0  0
   12.0552  -20.9119   22.4413 C   0  0  0  0  0  0  0  0  0  0  0  0
   11.9173  -22.3312   21.9042 C   0  0  0  0  0  0  0  0  0  0  0  0
   12.3076  -23.3067   22.8749 N   0  0  0  0  0  0  0  0  0  0  0  0
   10.5015  -16.4160   21.7668 C   0  0  0  0  0  0  0  0  0  0  0  0
   11.3777  -15.6098   22.1691 O   0  0  0  0  0  0  0  0  0  0  0  0
    7.7162  -12.4153   20.9994 N   0  0  0  0  0  0  0  0  0  0  0  0
    7.6277  -13.8141   20.7015 C   0  0  0  0  0  0  0  0  0  0  0  0
    8.2954  -14.2802   19.7454 O   0  0  0  0  0  0  0  0  0  0  0  0
    6.7450  -14.6681   21.5379 C   0  0  0  0  0  0  0  0  0  0  0  0
    7.3046  -14.6770   22.9382 C   0  0  0  0  0  0  0  0  0  0  0  0
    8.7878  -15.0024   22.9517 C   0  0  2  0  0  0  0  0  0  0  0  0
    9.1321  -16.0681   22.0750 N   0  0  0  0  0  0  0  0  0  0  0  0
    9.2500  -15.2426   24.3163 C   0  0  0  0  0  0  0  0  0  0  0  0
   10.0756  -16.2453   24.4018 O   0  0  0  0  0  0  0  0  0  0  0  0
    8.9530  -14.5825   25.5129 N   0  0  0  0  0  0  0  0  0  0  0  0
    7.7571  -13.7292   25.6747 C   0  0  0  0  0  0  0  0  0  0  0  0
    8.1443  -12.6822   26.6715 C   0  0  0  0  0  0  0  0  0  0  0  0
    9.5610  -12.9972   27.0420 C   0  0  0  0  0  0  0  0  0  0  0  0
    9.5815  -14.5222   26.7976 C   0  0  1  0  0  0  0  0  0  0  0  0
    8.7780  -15.2087   27.8535 C   0  0  0  0  0  0  0  0  0  0  0  0
    9.3355  -15.4701   29.0972 O   0  0  0  0  0  0  0  0  0  0  0  0
    7.5887  -15.5790   27.6867 O   0  0  0  0  0  0  0  0  0  0  0  0
  2  1  1  6
  3  2  1  0
  4  3  1  0
  4  5  1  0
  5  6  1  0
  6  7  1  0
  8  2  1  0
  8  9  2  0
 10 11  1  0
 11 12  2  0
 11 13  1  0
 13 14  1  0
 15 14  1  1
 15 16  1  0
 16  8  1  0
 17 15  1  0
 18 17  2  0
 19 17  1  0
 19 23  1  0
 20 19  1  0
 20 21  1  0
 21 22  1  0
 23 22  1  0
 24 25  1  0
 23 24  1  1
 26 24  2  0
M  END
$$$$
