KQP.pdb
     RDKit          3D

 26 26  0  0  1  0  0  0  0  0999 V2000
    8.5691  -16.3107   20.6358 N   0  0  0  0  0  0  0  0  0  0  0  0
    9.0489  -14.9673   20.6519 C   0  0  1  0  0  0  0  0  0  0  0  0
    8.2292  -14.1583   19.6760 C   0  0  0  0  0  0  0  0  0  0  0  0
    8.5039  -14.6793   18.2839 C   0  0  0  0  0  0  0  0  0  0  0  0
    8.3420  -13.5925   17.2426 C   0  0  0  0  0  0  0  0  0  0  0  0
    8.4958  -14.2049   15.8559 C   0  0  0  0  0  0  0  0  0  0  0  0
    8.1931  -13.2630   14.8227 N   0  0  0  0  0  0  0  0  0  0  0  0
    9.1440  -14.3638   21.9772 C   0  0  0  0  0  0  0  0  0  0  0  0
    9.2618  -13.1181   22.0945 O   0  0  0  0  0  0  0  0  0  0  0  0
    5.8466  -12.5819   25.8477 N   0  0  0  0  0  0  0  0  0  0  0  0
    5.7432  -14.0089   25.7695 C   0  0  0  0  0  0  0  0  0  0  0  0
    4.6699  -14.5649   26.1103 O   0  0  0  0  0  0  0  0  0  0  0  0
    6.9147  -14.7845   25.2858 C   0  0  0  0  0  0  0  0  0  0  0  0
    8.0194  -13.8059   24.9759 C   0  0  0  0  0  0  0  0  0  0  0  0
    9.2746  -14.5073   24.4875 C   0  0  2  0  0  0  0  0  0  0  0  0
    9.1121  -15.1156   23.2122 N   0  0  0  0  0  0  0  0  0  0  0  0
    9.7592  -15.4530   25.4895 C   0  0  0  0  0  0  0  0  0  0  0  0
   10.0776  -16.6087   24.9824 O   0  0  0  0  0  0  0  0  0  0  0  0
    9.9302  -15.3157   26.8707 N   0  0  0  0  0  0  0  0  0  0  0  0
    9.0021  -14.5321   27.7128 C   0  0  0  0  0  0  0  0  0  0  0  0
    9.8340  -14.0009   28.8378 C   0  0  0  0  0  0  0  0  0  0  0  0
   11.2158  -14.5205   28.5842 C   0  0  0  0  0  0  0  0  0  0  0  0
   10.8894  -15.8157   27.8084 C   0  0  1  0  0  0  0  0  0  0  0  0
   10.2980  -16.8216   28.7410 C   0  0  0  0  0  0  0  0  0  0  0  0
    8.9522  -17.1494   28.6542 O   0  0  0  0  0  0  0  0  0  0  0  0
   10.9594  -17.4130   29.6311 O   0  0  0  0  0  0  0  0  0  0  0  0
  2  1  1  1
  3  2  1  0
  4  3  1  0
  4  5  1  0
  5  6  1  0
  6  7  1  0
  8  2  1  0
  8  9  2  0
 10 11  1  0
 11 12  2  0
 11 13  1  0
 13 14  1  0
 15 14  1  1
 15 16  1  0
 16  8  1  0
 17 15  1  0
 18 17  2  0
 19 17  1  0
 19 23  1  0
 20 19  1  0
 20 21  1  0
 21 22  1  0
 23 22  1  0
 24 25  1  0
 23 24  1  1
 26 24  2  0
M  END
$$$$
