KQP.pdb
     RDKit          3D

 26 26  0  0  1  0  0  0  0  0999 V2000
    6.7166  -17.9614   20.6785 N   0  0  0  0  0  0  0  0  0  0  0  0
    7.3378  -16.7858   21.1957 C   0  0  1  0  0  0  0  0  0  0  0  0
    6.9500  -15.6190   20.3199 C   0  0  0  0  0  0  0  0  0  0  0  0
    8.1030  -14.6417   20.2989 C   0  0  0  0  0  0  0  0  0  0  0  0
    7.8000  -13.4448   19.4228 C   0  0  0  0  0  0  0  0  0  0  0  0
    8.9475  -12.4478   19.5279 C   0  0  0  0  0  0  0  0  0  0  0  0
    8.7661  -11.3346   18.6480 N   0  0  0  0  0  0  0  0  0  0  0  0
    7.1167  -16.5483   22.6185 C   0  0  0  0  0  0  0  0  0  0  0  0
    5.9669  -16.2624   23.0375 O   0  0  0  0  0  0  0  0  0  0  0  0
    5.9313  -19.1422   27.3181 N   0  0  0  0  0  0  0  0  0  0  0  0
    7.0567  -19.6598   26.5980 C   0  0  0  0  0  0  0  0  0  0  0  0
    7.4108  -20.8496   26.7878 O   0  0  0  0  0  0  0  0  0  0  0  0
    7.7688  -18.7667   25.6476 C   0  0  0  0  0  0  0  0  0  0  0  0
    7.0844  -17.4232   25.6766 C   0  0  0  0  0  0  0  0  0  0  0  0
    7.9173  -16.3503   24.9974 C   0  0  2  0  0  0  0  0  0  0  0  0
    8.1563  -16.6189   23.6213 N   0  0  0  0  0  0  0  0  0  0  0  0
    9.1563  -16.1164   25.7346 C   0  0  0  0  0  0  0  0  0  0  0  0
   10.1953  -16.6498   25.1601 O   0  0  0  0  0  0  0  0  0  0  0  0
    9.3951  -15.4280   26.9283 N   0  0  0  0  0  0  0  0  0  0  0  0
    8.3149  -14.7831   27.7041 C   0  0  0  0  0  0  0  0  0  0  0  0
    8.9539  -13.6124   28.3830 C   0  0  0  0  0  0  0  0  0  0  0  0
   10.3909  -13.6502   27.9621 C   0  0  0  0  0  0  0  0  0  0  0  0
   10.5675  -15.1631   27.7058 C   0  0  1  0  0  0  0  0  0  0  0  0
   10.5602  -15.8951   29.0081 C   0  0  0  0  0  0  0  0  0  0  0  0
   11.6717  -15.8565   29.8382 O   0  0  0  0  0  0  0  0  0  0  0  0
    9.5811  -16.5678   29.4183 O   0  0  0  0  0  0  0  0  0  0  0  0
  2  1  1  6
  3  2  1  0
  4  3  1  0
  4  5  1  0
  5  6  1  0
  6  7  1  0
  8  2  1  0
  8  9  2  0
 10 11  1  0
 11 12  2  0
 11 13  1  0
 13 14  1  0
 15 14  1  1
 15 16  1  0
 16  8  1  0
 17 15  1  0
 18 17  2  0
 19 17  1  0
 19 23  1  0
 20 19  1  0
 20 21  1  0
 21 22  1  0
 23 22  1  0
 24 25  1  0
 23 24  1  1
 26 24  2  0
M  END
$$$$
