KQP.pdb
     RDKit          3D

 26 26  0  0  1  0  0  0  0  0999 V2000
    8.5933  -15.4806   20.2137 N   0  0  0  0  0  0  0  0  0  0  0  0
    8.5850  -14.2610   20.9538 C   0  0  1  0  0  0  0  0  0  0  0  0
    7.6692  -13.2865   20.2534 C   0  0  0  0  0  0  0  0  0  0  0  0
    8.3138  -12.8911   18.9445 C   0  0  0  0  0  0  0  0  0  0  0  0
    7.8336  -13.7630   17.8039 C   0  0  0  0  0  0  0  0  0  0  0  0
    8.4505  -13.2648   16.5028 C   0  0  0  0  0  0  0  0  0  0  0  0
    8.1458  -14.1299   15.4050 N   0  0  0  0  0  0  0  0  0  0  0  0
    8.3038  -14.4077   22.3783 C   0  0  0  0  0  0  0  0  0  0  0  0
    8.2597  -13.3933   23.1188 O   0  0  0  0  0  0  0  0  0  0  0  0
    6.8890  -19.6474   24.3603 N   0  0  0  0  0  0  0  0  0  0  0  0
    6.0329  -18.8814   23.5040 C   0  0  0  0  0  0  0  0  0  0  0  0
    5.3312  -19.4759   22.6488 O   0  0  0  0  0  0  0  0  0  0  0  0
    6.0051  -17.4038   23.6583 C   0  0  0  0  0  0  0  0  0  0  0  0
    6.9725  -17.0366   24.7553 C   0  0  0  0  0  0  0  0  0  0  0  0
    7.7646  -15.7866   24.4147 C   0  0  2  0  0  0  0  0  0  0  0  0
    8.0629  -15.6768   23.0285 N   0  0  0  0  0  0  0  0  0  0  0  0
    8.9637  -15.6950   25.2435 C   0  0  0  0  0  0  0  0  0  0  0  0
   10.0273  -16.1496   24.6467 O   0  0  0  0  0  0  0  0  0  0  0  0
    9.1438  -15.2086   26.5423 N   0  0  0  0  0  0  0  0  0  0  0  0
    8.0154  -14.7755   27.3929 C   0  0  0  0  0  0  0  0  0  0  0  0
    8.5689  -13.7015   28.2759 C   0  0  0  0  0  0  0  0  0  0  0  0
   10.0098  -13.5764   27.8865 C   0  0  0  0  0  0  0  0  0  0  0  0
   10.2878  -15.0086   27.3794 C   0  0  1  0  0  0  0  0  0  0  0  0
   10.3140  -15.9527   28.5368 C   0  0  0  0  0  0  0  0  0  0  0  0
   11.4454  -16.0497   29.3347 O   0  0  0  0  0  0  0  0  0  0  0  0
    9.3467  -16.6918   28.8490 O   0  0  0  0  0  0  0  0  0  0  0  0
  2  1  1  6
  3  2  1  0
  4  3  1  0
  4  5  1  0
  5  6  1  0
  6  7  1  0
  8  2  1  0
  8  9  2  0
 10 11  1  0
 11 12  2  0
 11 13  1  0
 13 14  1  0
 15 14  1  6
 15 16  1  0
 16  8  1  0
 17 15  1  0
 18 17  2  0
 19 17  1  0
 19 23  1  0
 20 19  1  0
 20 21  1  0
 21 22  1  0
 23 22  1  0
 24 25  1  0
 23 24  1  1
 26 24  2  0
M  END
$$$$
