KQP.pdb
     RDKit          3D

 26 26  0  0  1  0  0  0  0  0999 V2000
    7.2844  -17.0463   19.8585 N   0  0  0  0  0  0  0  0  0  0  0  0
    7.6387  -15.7967   20.4486 C   0  0  1  0  0  0  0  0  0  0  0  0
    7.0831  -14.6894   19.5860 C   0  0  0  0  0  0  0  0  0  0  0  0
    7.9910  -14.5236   18.3889 C   0  0  0  0  0  0  0  0  0  0  0  0
    7.5139  -13.4105   17.4806 C   0  0  0  0  0  0  0  0  0  0  0  0
    8.4773  -13.2779   16.3075 C   0  0  0  0  0  0  0  0  0  0  0  0
    8.0997  -12.2151   15.4275 N   0  0  0  0  0  0  0  0  0  0  0  0
    7.2977  -15.6648   21.8614 C   0  0  0  0  0  0  0  0  0  0  0  0
    6.2389  -15.0791   22.2012 O   0  0  0  0  0  0  0  0  0  0  0  0
    7.5705  -19.9213   26.0369 N   0  0  0  0  0  0  0  0  0  0  0  0
    7.2306  -18.8438   26.9180 C   0  0  0  0  0  0  0  0  0  0  0  0
    6.9163  -19.1003   28.1066 O   0  0  0  0  0  0  0  0  0  0  0  0
    7.2620  -17.4543   26.3925 C   0  0  0  0  0  0  0  0  0  0  0  0
    7.5963  -17.5244   24.9237 C   0  0  0  0  0  0  0  0  0  0  0  0
    7.6972  -16.1432   24.3008 C   0  0  2  0  0  0  0  0  0  0  0  0
    8.1135  -16.1745   22.9412 N   0  0  0  0  0  0  0  0  0  0  0  0
    8.5417  -15.2720   25.1139 C   0  0  0  0  0  0  0  0  0  0  0  0
    9.8025  -15.3538   24.8010 O   0  0  0  0  0  0  0  0  0  0  0  0
    8.2173  -14.3877   26.1477 N   0  0  0  0  0  0  0  0  0  0  0  0
    6.8228  -14.1246   26.5607 C   0  0  0  0  0  0  0  0  0  0  0  0
    6.8135  -12.7149   27.0631 C   0  0  0  0  0  0  0  0  0  0  0  0
    8.2254  -12.2364   26.9176 C   0  0  0  0  0  0  0  0  0  0  0  0
    8.9878  -13.5743   27.0387 C   0  0  1  0  0  0  0  0  0  0  0  0
    8.9222  -14.0614   28.4493 C   0  0  0  0  0  0  0  0  0  0  0  0
    9.7762  -13.5384   29.4102 O   0  0  0  0  0  0  0  0  0  0  0  0
    8.1175  -14.9442   28.8399 O   0  0  0  0  0  0  0  0  0  0  0  0
  2  1  1  6
  3  2  1  0
  4  3  1  0
  4  5  1  0
  5  6  1  0
  6  7  1  0
  8  2  1  0
  8  9  2  0
 10 11  1  0
 11 12  2  0
 11 13  1  0
 13 14  1  0
 15 14  1  1
 15 16  1  0
 16  8  1  0
 17 15  1  0
 18 17  2  0
 19 17  1  0
 19 23  1  0
 20 19  1  0
 20 21  1  0
 21 22  1  0
 23 22  1  0
 24 25  1  0
 23 24  1  1
 26 24  2  0
M  END
$$$$
