KQP.pdb
     RDKit          3D

 26 26  0  0  1  0  0  0  0  0999 V2000
    6.9509  -16.5620   19.6036 N   0  0  0  0  0  0  0  0  0  0  0  0
    7.2510  -15.4475   20.4420 C   0  0  1  0  0  0  0  0  0  0  0  0
    6.6127  -14.2173   19.8436 C   0  0  0  0  0  0  0  0  0  0  0  0
    7.6345  -13.1034   19.8541 C   0  0  0  0  0  0  0  0  0  0  0  0
    8.9373  -13.5397   19.2184 C   0  0  0  0  0  0  0  0  0  0  0  0
    9.9679  -12.4295   19.3833 C   0  0  0  0  0  0  0  0  0  0  0  0
   11.2611  -12.8326   18.9233 N   0  0  0  0  0  0  0  0  0  0  0  0
    6.9405  -15.6393   21.8550 C   0  0  0  0  0  0  0  0  0  0  0  0
    5.7436  -15.6970   22.2340 O   0  0  0  0  0  0  0  0  0  0  0  0
    6.0622  -19.9328   26.0492 N   0  0  0  0  0  0  0  0  0  0  0  0
    7.2392  -19.1622   26.3210 C   0  0  0  0  0  0  0  0  0  0  0  0
    8.2597  -19.7403   26.7700 O   0  0  0  0  0  0  0  0  0  0  0  0
    7.2112  -17.6995   26.0609 C   0  0  0  0  0  0  0  0  0  0  0  0
    7.5507  -17.4831   24.6076 C   0  0  0  0  0  0  0  0  0  0  0  0
    7.6078  -16.0072   24.2546 C   0  0  2  0  0  0  0  0  0  0  0  0
    7.9399  -15.7732   22.8916 N   0  0  0  0  0  0  0  0  0  0  0  0
    8.4973  -15.2935   25.1671 C   0  0  0  0  0  0  0  0  0  0  0  0
    9.7557  -15.4542   24.8760 O   0  0  0  0  0  0  0  0  0  0  0  0
    8.2169  -14.4864   26.2742 N   0  0  0  0  0  0  0  0  0  0  0  0
    6.8379  -14.2156   26.7321 C   0  0  0  0  0  0  0  0  0  0  0  0
    6.8807  -12.8515   27.3462 C   0  0  0  0  0  0  0  0  0  0  0  0
    8.3046  -12.4056   27.2143 C   0  0  0  0  0  0  0  0  0  0  0  0
    9.0263  -13.7712   27.2138 C   0  0  1  0  0  0  0  0  0  0  0  0
    8.9672  -14.3686   28.5817 C   0  0  0  0  0  0  0  0  0  0  0  0
    9.8006  -13.8983   29.5868 O   0  0  0  0  0  0  0  0  0  0  0  0
    8.1862  -15.3017   28.8961 O   0  0  0  0  0  0  0  0  0  0  0  0
  2  1  1  6
  3  2  1  0
  4  3  1  0
  4  5  1  0
  5  6  1  0
  6  7  1  0
  8  2  1  0
  8  9  2  0
 10 11  1  0
 11 12  2  0
 11 13  1  0
 13 14  1  0
 15 14  1  1
 15 16  1  0
 16  8  1  0
 17 15  1  0
 18 17  2  0
 19 17  1  0
 19 23  1  0
 20 19  1  0
 20 21  1  0
 21 22  1  0
 23 22  1  0
 24 25  1  0
 23 24  1  1
 26 24  2  0
M  END
$$$$
