KQP.pdb
     RDKit          3D

 26 26  0  0  1  0  0  0  0  0999 V2000
    6.4951  -15.6859   20.4651 N   0  0  0  0  0  0  0  0  0  0  0  0
    7.4000  -14.9142   21.2530 C   0  0  1  0  0  0  0  0  0  0  0  0
    7.3729  -13.4909   20.7506 C   0  0  0  0  0  0  0  0  0  0  0  0
    7.7958  -13.4952   19.2994 C   0  0  0  0  0  0  0  0  0  0  0  0
    9.2697  -13.8081   19.1519 C   0  0  0  0  0  0  0  0  0  0  0  0
    9.6775  -13.6095   17.6972 C   0  0  0  0  0  0  0  0  0  0  0  0
   11.0700  -13.8678   17.4959 N   0  0  0  0  0  0  0  0  0  0  0  0
    7.2116  -15.0289   22.6957 C   0  0  0  0  0  0  0  0  0  0  0  0
    6.2711  -14.4139   23.2584 O   0  0  0  0  0  0  0  0  0  0  0  0
    6.4264  -19.0517   27.0776 N   0  0  0  0  0  0  0  0  0  0  0  0
    7.3509  -19.4304   26.0504 C   0  0  0  0  0  0  0  0  0  0  0  0
    7.8374  -20.5882   26.0608 O   0  0  0  0  0  0  0  0  0  0  0  0
    7.7032  -18.4358   25.0043 C   0  0  0  0  0  0  0  0  0  0  0  0
    7.0012  -17.1443   25.3410 C   0  0  0  0  0  0  0  0  0  0  0  0
    7.8345  -15.9329   24.9615 C   0  0  2  0  0  0  0  0  0  0  0  0
    8.0541  -15.8250   23.5604 N   0  0  0  0  0  0  0  0  0  0  0  0
    9.0844  -15.9105   25.7167 C   0  0  0  0  0  0  0  0  0  0  0  0
   10.1209  -16.2110   24.9890 O   0  0  0  0  0  0  0  0  0  0  0  0
    9.3358  -15.6246   27.0624 N   0  0  0  0  0  0  0  0  0  0  0  0
    8.2555  -15.4901   28.0620 C   0  0  0  0  0  0  0  0  0  0  0  0
    8.7655  -14.5121   29.0735 C   0  0  0  0  0  0  0  0  0  0  0  0
   10.1355  -14.1352   28.5998 C   0  0  0  0  0  0  0  0  0  0  0  0
   10.5267  -15.4152   27.8288 C   0  0  1  0  0  0  0  0  0  0  0  0
   10.7790  -16.5246   28.7968 C   0  0  0  0  0  0  0  0  0  0  0  0
   11.9588  -16.5611   29.5267 O   0  0  0  0  0  0  0  0  0  0  0  0
    9.9667  -17.4612   29.0031 O   0  0  0  0  0  0  0  0  0  0  0  0
  2  1  1  6
  3  2  1  0
  4  3  1  0
  4  5  1  0
  5  6  1  0
  6  7  1  0
  8  2  1  0
  8  9  2  0
 10 11  1  0
 11 12  2  0
 11 13  1  0
 13 14  1  0
 15 14  1  6
 15 16  1  0
 16  8  1  0
 17 15  1  0
 18 17  2  0
 19 17  1  0
 19 23  1  0
 20 19  1  0
 20 21  1  0
 21 22  1  0
 23 22  1  0
 24 25  1  0
 23 24  1  1
 26 24  2  0
M  END
$$$$
