KQP.pdb
     RDKit          3D

 26 26  0  0  1  0  0  0  0  0999 V2000
    6.2936  -17.2104   20.0966 N   0  0  0  0  0  0  0  0  0  0  0  0
    6.9884  -16.1791   20.7958 C   0  0  1  0  0  0  0  0  0  0  0  0
    6.6678  -14.8592   20.1371 C   0  0  0  0  0  0  0  0  0  0  0  0
    7.9350  -14.3253   19.5096 C   0  0  0  0  0  0  0  0  0  0  0  0
    7.6650  -13.7058   18.1549 C   0  0  0  0  0  0  0  0  0  0  0  0
    8.9561  -13.0997   17.6185 C   0  0  0  0  0  0  0  0  0  0  0  0
    8.7628  -12.4813   16.3432 N   0  0  0  0  0  0  0  0  0  0  0  0
    6.7903  -16.1748   22.2416 C   0  0  0  0  0  0  0  0  0  0  0  0
    5.6775  -15.8447   22.7234 O   0  0  0  0  0  0  0  0  0  0  0  0
    7.9135  -20.1552   26.4892 N   0  0  0  0  0  0  0  0  0  0  0  0
    7.6892  -19.0481   27.3707 C   0  0  0  0  0  0  0  0  0  0  0  0
    7.5972  -19.2573   28.6057 O   0  0  0  0  0  0  0  0  0  0  0  0
    7.5729  -17.6852   26.7905 C   0  0  0  0  0  0  0  0  0  0  0  0
    7.7213  -17.8067   25.2948 C   0  0  0  0  0  0  0  0  0  0  0  0
    7.6112  -16.4584   24.6049 C   0  0  2  0  0  0  0  0  0  0  0  0
    7.8129  -16.5341   23.1990 N   0  0  0  0  0  0  0  0  0  0  0  0
    8.4974  -15.4835   25.2352 C   0  0  0  0  0  0  0  0  0  0  0  0
    9.7280  -15.5764   24.8213 O   0  0  0  0  0  0  0  0  0  0  0  0
    8.2386  -14.4926   26.1876 N   0  0  0  0  0  0  0  0  0  0  0  0
    6.8821  -14.2285   26.7118 C   0  0  0  0  0  0  0  0  0  0  0  0
    6.8589  -12.7697   27.0452 C   0  0  0  0  0  0  0  0  0  0  0  0
    8.2257  -12.2653   26.6973 C   0  0  0  0  0  0  0  0  0  0  0  0
    9.0568  -13.5526   26.8920 C   0  0  1  0  0  0  0  0  0  0  0  0
    9.1557  -13.8684   28.3487 C   0  0  0  0  0  0  0  0  0  0  0  0
    8.4457  -14.9344   28.8830 O   0  0  0  0  0  0  0  0  0  0  0  0
    9.8635  -13.2111   29.1528 O   0  0  0  0  0  0  0  0  0  0  0  0
  2  1  1  6
  3  2  1  0
  4  3  1  0
  4  5  1  0
  5  6  1  0
  6  7  1  0
  8  2  1  0
  8  9  2  0
 10 11  1  0
 11 12  2  0
 11 13  1  0
 13 14  1  0
 15 14  1  1
 15 16  1  0
 16  8  1  0
 17 15  1  0
 18 17  2  0
 19 17  1  0
 19 23  1  0
 20 19  1  0
 20 21  1  0
 21 22  1  0
 23 22  1  0
 24 25  1  0
 23 24  1  1
 26 24  2  0
M  END
$$$$
