KQP.pdb
     RDKit          3D

 26 26  0  0  1  0  0  0  0  0999 V2000
    6.4792  -17.2017   19.8250 N   0  0  0  0  0  0  0  0  0  0  0  0
    7.2053  -16.2059   20.5437 C   0  0  1  0  0  0  0  0  0  0  0  0
    7.0786  -14.8974   19.8018 C   0  0  0  0  0  0  0  0  0  0  0  0
    8.0132  -14.9362   18.6144 C   0  0  0  0  0  0  0  0  0  0  0  0
    7.8287  -13.7264   17.7233 C   0  0  0  0  0  0  0  0  0  0  0  0
    8.7728  -13.8369   16.5323 C   0  0  0  0  0  0  0  0  0  0  0  0
    8.6272  -12.7325   15.6348 N   0  0  0  0  0  0  0  0  0  0  0  0
    6.8763  -16.1085   21.9622 C   0  0  0  0  0  0  0  0  0  0  0  0
    5.6746  -16.0901   22.3297 O   0  0  0  0  0  0  0  0  0  0  0  0
    7.9882  -19.8799   26.0322 N   0  0  0  0  0  0  0  0  0  0  0  0
    7.4586  -18.8994   26.9329 C   0  0  0  0  0  0  0  0  0  0  0  0
    7.1861  -19.2348   28.1121 O   0  0  0  0  0  0  0  0  0  0  0  0
    7.2495  -17.5140   26.4383 C   0  0  0  0  0  0  0  0  0  0  0  0
    7.6314  -17.4828   24.9797 C   0  0  0  0  0  0  0  0  0  0  0  0
    7.5192  -16.0852   24.3963 C   0  0  2  0  0  0  0  0  0  0  0  0
    7.8621  -16.0284   23.0172 N   0  0  0  0  0  0  0  0  0  0  0  0
    8.2866  -15.1314   25.1930 C   0  0  0  0  0  0  0  0  0  0  0  0
    9.5269  -15.0347   24.8101 O   0  0  0  0  0  0  0  0  0  0  0  0
    7.9084  -14.3275   26.2730 N   0  0  0  0  0  0  0  0  0  0  0  0
    6.5570  -14.3807   26.8690 C   0  0  0  0  0  0  0  0  0  0  0  0
    6.2942  -13.0020   27.3887 C   0  0  0  0  0  0  0  0  0  0  0  0
    7.5294  -12.2185   27.0664 C   0  0  0  0  0  0  0  0  0  0  0  0
    8.5843  -13.3468   27.0671 C   0  0  1  0  0  0  0  0  0  0  0  0
    8.8160  -13.8139   28.4670 C   0  0  0  0  0  0  0  0  0  0  0  0
    9.6350  -13.0876   29.3201 O   0  0  0  0  0  0  0  0  0  0  0  0
    8.3015  -14.8573   28.9425 O   0  0  0  0  0  0  0  0  0  0  0  0
  2  1  1  6
  3  2  1  0
  4  3  1  0
  4  5  1  0
  5  6  1  0
  6  7  1  0
  8  2  1  0
  8  9  2  0
 10 11  1  0
 11 12  2  0
 11 13  1  0
 13 14  1  0
 15 14  1  1
 15 16  1  0
 16  8  1  0
 17 15  1  0
 18 17  2  0
 19 17  1  0
 19 23  1  0
 20 19  1  0
 20 21  1  0
 21 22  1  0
 23 22  1  0
 24 25  1  0
 23 24  1  1
 26 24  2  0
M  END
$$$$
