KQP.pdb
     RDKit          3D

 26 26  0  0  1  0  0  0  0  0999 V2000
    6.7491  -17.1069   20.0589 N   0  0  0  0  0  0  0  0  0  0  0  0
    7.0093  -15.8372   20.6552 C   0  0  1  0  0  0  0  0  0  0  0  0
    6.2249  -14.7894   19.9031 C   0  0  0  0  0  0  0  0  0  0  0  0
    7.1190  -13.5878   19.6986 C   0  0  0  0  0  0  0  0  0  0  0  0
    8.1830  -13.8590   18.6564 C   0  0  0  0  0  0  0  0  0  0  0  0
    9.1253  -12.6637   18.5844 C   0  0  0  0  0  0  0  0  0  0  0  0
   10.1873  -12.8799   17.6508 N   0  0  0  0  0  0  0  0  0  0  0  0
    6.8176  -15.7858   22.1011 C   0  0  0  0  0  0  0  0  0  0  0  0
    5.7395  -15.3502   22.5778 O   0  0  0  0  0  0  0  0  0  0  0  0
    7.4018  -20.1396   25.9784 N   0  0  0  0  0  0  0  0  0  0  0  0
    7.3745  -19.0998   26.9640 C   0  0  0  0  0  0  0  0  0  0  0  0
    7.3975  -19.4088   28.1811 O   0  0  0  0  0  0  0  0  0  0  0  0
    7.3195  -17.6862   26.5097 C   0  0  0  0  0  0  0  0  0  0  0  0
    7.5475  -17.6718   25.0191 C   0  0  0  0  0  0  0  0  0  0  0  0
    7.5527  -16.2591   24.4621 C   0  0  2  0  0  0  0  0  0  0  0  0
    7.8086  -16.2128   23.0638 N   0  0  0  0  0  0  0  0  0  0  0  0
    8.4717  -15.4113   25.2170 C   0  0  0  0  0  0  0  0  0  0  0  0
    9.6974  -15.4836   24.7853 O   0  0  0  0  0  0  0  0  0  0  0  0
    8.2476  -14.5570   26.3014 N   0  0  0  0  0  0  0  0  0  0  0  0
    6.9113  -14.3723   26.9052 C   0  0  0  0  0  0  0  0  0  0  0  0
    6.8994  -12.9708   27.4300 C   0  0  0  0  0  0  0  0  0  0  0  0
    8.2520  -12.4170   27.1023 C   0  0  0  0  0  0  0  0  0  0  0  0
    9.0906  -13.7141   27.0939 C   0  0  1  0  0  0  0  0  0  0  0  0
    9.2436  -14.2198   28.4912 C   0  0  0  0  0  0  0  0  0  0  0  0
   10.1874  -13.6574   29.3391 O   0  0  0  0  0  0  0  0  0  0  0  0
    8.5511  -15.1534   28.9689 O   0  0  0  0  0  0  0  0  0  0  0  0
  2  1  1  6
  3  2  1  0
  4  3  1  0
  4  5  1  0
  5  6  1  0
  6  7  1  0
  8  2  1  0
  8  9  2  0
 10 11  1  0
 11 12  2  0
 11 13  1  0
 13 14  1  0
 15 14  1  1
 15 16  1  0
 16  8  1  0
 17 15  1  0
 18 17  2  0
 19 17  1  0
 19 23  1  0
 20 19  1  0
 20 21  1  0
 21 22  1  0
 23 22  1  0
 24 25  1  0
 23 24  1  1
 26 24  2  0
M  END
$$$$
