KQP.pdb
     RDKit          3D

 26 26  0  0  1  0  0  0  0  0999 V2000
   10.3668  -16.9728   19.8733 N   0  0  0  0  0  0  0  0  0  0  0  0
   10.1799  -17.4427   21.2073 C   0  0  1  0  0  0  0  0  0  0  0  0
   11.2157  -18.5047   21.4866 C   0  0  0  0  0  0  0  0  0  0  0  0
   10.5745  -19.8566   21.2724 C   0  0  0  0  0  0  0  0  0  0  0  0
   10.8531  -20.7924   22.4293 C   0  0  0  0  0  0  0  0  0  0  0  0
   10.1807  -22.1327   22.1583 C   0  0  0  0  0  0  0  0  0  0  0  0
   10.4443  -23.0791   23.1982 N   0  0  0  0  0  0  0  0  0  0  0  0
   10.1236  -16.3983   22.2252 C   0  0  0  0  0  0  0  0  0  0  0  0
   11.0928  -15.6124   22.3747 O   0  0  0  0  0  0  0  0  0  0  0  0
    5.2027  -14.1657   25.4915 N   0  0  0  0  0  0  0  0  0  0  0  0
    6.2748  -13.3519   25.9831 C   0  0  0  0  0  0  0  0  0  0  0  0
    6.0066  -12.3317   26.6646 O   0  0  0  0  0  0  0  0  0  0  0  0
    7.6726  -13.7453   25.6679 C   0  0  0  0  0  0  0  0  0  0  0  0
    7.6230  -14.8014   24.5927 C   0  0  0  0  0  0  0  0  0  0  0  0
    9.0133  -15.2353   24.1626 C   0  0  2  0  0  0  0  0  0  0  0  0
    8.9974  -16.1896   23.1081 N   0  0  0  0  0  0  0  0  0  0  0  0
    9.7864  -15.6992   25.3116 C   0  0  0  0  0  0  0  0  0  0  0  0
   10.5391  -16.7243   25.0345 O   0  0  0  0  0  0  0  0  0  0  0  0
    9.8437  -15.2278   26.6270 N   0  0  0  0  0  0  0  0  0  0  0  0
    8.8957  -14.2236   27.1538 C   0  0  0  0  0  0  0  0  0  0  0  0
    9.6569  -13.4604   28.1919 C   0  0  0  0  0  0  0  0  0  0  0  0
   11.0207  -14.0795   28.2136 C   0  0  0  0  0  0  0  0  0  0  0  0
   10.6840  -15.5139   27.7501 C   0  0  1  0  0  0  0  0  0  0  0  0
    9.9516  -16.2315   28.8365 C   0  0  0  0  0  0  0  0  0  0  0  0
   10.6460  -16.7688   29.9113 O   0  0  0  0  0  0  0  0  0  0  0  0
    8.7046  -16.3877   28.8443 O   0  0  0  0  0  0  0  0  0  0  0  0
  2  1  1  6
  3  2  1  0
  4  3  1  0
  4  5  1  0
  5  6  1  0
  6  7  1  0
  8  2  1  0
  8  9  2  0
 10 11  1  0
 11 12  2  0
 11 13  1  0
 13 14  1  0
 15 14  1  1
 15 16  1  0
 16  8  1  0
 17 15  1  0
 18 17  2  0
 19 17  1  0
 19 23  1  0
 20 19  1  0
 20 21  1  0
 21 22  1  0
 23 22  1  0
 24 25  1  0
 23 24  1  1
 26 24  2  0
M  END
$$$$
