VHT.pdb
     RDKit          3D

 25 25  0  0  1  0  0  0  0  0999 V2000
   19.7410  -13.5390  -18.9272 C   0  0  0  0  0  0  0  0  0  0  0  0
   21.1307  -13.7474  -18.4402 C   0  0  2  0  0  0  0  0  0  0  0  0
   21.2907  -15.1920  -17.9469 C   0  0  0  0  0  0  0  0  0  0  0  0
   21.6107  -12.8083  -17.3848 C   0  0  2  0  0  0  0  0  0  0  0  0
   20.7955  -13.0561  -16.1739 N   0  0  0  0  0  0  0  0  0  0  0  0
   21.5716  -11.3815  -17.7443 C   0  0  0  0  0  0  0  0  0  0  0  0
   22.2695  -10.9910  -18.7192 O   0  0  0  0  0  0  0  0  0  0  0  0
   20.7974  -10.4531  -17.0548 N   0  0  0  0  0  0  0  0  0  0  0  0
   20.7683   -9.0225  -17.3945 C   0  0  1  0  0  0  0  0  0  0  0  0
   19.3388   -8.7741  -17.8973 C   0  0  0  0  0  0  0  0  0  0  0  0
   19.2765   -8.9134  -19.3705 C   0  0  0  0  0  0  0  0  0  0  0  0
   20.2977   -9.1931  -20.2598 C   0  0  0  0  0  0  0  0  0  0  0  0
   19.7793   -9.2251  -21.5080 N   0  0  0  0  0  0  0  0  0  0  0  0
   18.4661   -8.9738  -21.4235 C   0  0  0  0  0  0  0  0  0  0  0  0
   18.1736   -8.7864  -20.1211 N   0  0  0  0  0  0  0  0  0  0  0  0
   20.9678   -8.2553  -16.1414 C   0  0  0  0  0  0  0  0  0  0  0  0
   20.5933   -8.7126  -15.0331 O   0  0  0  0  0  0  0  0  0  0  0  0
   22.7833   -4.2144  -13.8453 C   0  0  0  0  0  0  0  0  0  0  0  0
   22.6378   -4.9796  -15.1442 C   0  0  1  0  0  0  0  0  0  0  0  0
   23.8442   -5.2600  -15.7477 O   0  0  0  0  0  0  0  0  0  0  0  0
   21.7914   -6.2064  -14.9042 C   0  0  2  0  0  0  0  0  0  0  0  0
   21.5853   -6.9738  -16.1129 N   0  0  0  0  0  0  0  0  0  0  0  0
   20.4787   -5.8796  -14.3257 C   0  0  0  0  0  0  0  0  0  0  0  0
   19.4368   -5.3269  -15.0594 O   0  0  0  0  0  0  0  0  0  0  0  0
   20.2509   -6.0959  -13.1152 O   0  0  0  0  0  0  0  0  0  0  0  0
  2  1  1  1
  2  3  1  0
  4  6  1  0
  4  2  1  0
  4  5  1  1
  6  7  2  0
  8  9  1  0
  8  6  1  0
  9 10  1  1
 10 11  1  0
 11 12  2  0
 13 12  1  0
 14 13  1  0
 15 14  2  0
 15 11  1  0
 16  9  1  0
 17 16  2  0
 19 18  1  1
 19 20  1  0
 19 21  1  0
 21 22  1  6
 22 16  1  0
 23 21  1  0
 23 24  1  0
 25 23  2  0
M  END
$$$$
