VHT.pdb
     RDKit          3D

 25 25  0  0  1  0  0  0  0  0999 V2000
   22.1177  -15.1895  -17.6321 C   0  0  0  0  0  0  0  0  0  0  0  0
   22.8219  -13.8973  -17.8476 C   0  0  2  0  0  0  0  0  0  0  0  0
   23.8851  -13.7040  -16.7577 C   0  0  0  0  0  0  0  0  0  0  0  0
   21.9632  -12.6794  -17.9224 C   0  0  2  0  0  0  0  0  0  0  0  0
   21.9185  -12.2610  -19.3420 N   0  0  0  0  0  0  0  0  0  0  0  0
   22.3863  -11.5555  -17.0713 C   0  0  0  0  0  0  0  0  0  0  0  0
   22.3998  -11.7236  -15.8216 O   0  0  0  0  0  0  0  0  0  0  0  0
   22.7713  -10.3227  -17.5898 N   0  0  0  0  0  0  0  0  0  0  0  0
   23.0355   -9.1458  -16.7485 C   0  0  1  0  0  0  0  0  0  0  0  0
   24.4299   -8.6683  -17.1796 C   0  0  0  0  0  0  0  0  0  0  0  0
   25.4813   -9.4599  -16.5003 C   0  0  0  0  0  0  0  0  0  0  0  0
   25.3394  -10.4965  -15.5962 C   0  0  0  0  0  0  0  0  0  0  0  0
   26.5717  -10.9215  -15.2379 N   0  0  0  0  0  0  0  0  0  0  0  0
   27.4772  -10.1812  -15.8912 C   0  0  0  0  0  0  0  0  0  0  0  0
   26.8027   -9.2980  -16.6539 N   0  0  0  0  0  0  0  0  0  0  0  0
   22.0469   -8.1009  -17.1081 C   0  0  0  0  0  0  0  0  0  0  0  0
   21.9200   -7.7072  -18.2941 O   0  0  0  0  0  0  0  0  0  0  0  0
   18.4768   -8.2236  -17.1563 C   0  0  0  0  0  0  0  0  0  0  0  0
   18.7719   -7.0853  -16.2017 C   0  0  1  0  0  0  0  0  0  0  0  0
   18.5850   -7.4229  -14.8792 O   0  0  0  0  0  0  0  0  0  0  0  0
   20.1507   -6.5422  -16.4897 C   0  0  2  0  0  0  0  0  0  0  0  0
   21.1924   -7.4866  -16.1505 N   0  0  0  0  0  0  0  0  0  0  0  0
   20.4156   -5.2778  -15.7857 C   0  0  0  0  0  0  0  0  0  0  0  0
   19.7120   -4.1054  -16.0301 O   0  0  0  0  0  0  0  0  0  0  0  0
   21.3121   -5.2156  -14.9160 O   0  0  0  0  0  0  0  0  0  0  0  0
  2  1  1  1
  2  3  1  0
  4  6  1  0
  4  2  1  0
  4  5  1  6
  6  7  2  0
  8  9  1  0
  8  6  1  0
  9 10  1  6
 10 11  1  0
 11 12  2  0
 13 12  1  0
 14 13  1  0
 15 14  2  0
 15 11  1  0
 16  9  1  0
 17 16  2  0
 19 18  1  6
 19 20  1  0
 19 21  1  0
 21 22  1  1
 22 16  1  0
 23 21  1  0
 23 24  1  0
 25 23  2  0
M  END
$$$$
