VHT.pdb
     RDKit          3D

 25 25  0  0  1  0  0  0  0  0999 V2000
   27.7051  -10.0924  -17.6241 C   0  0  0  0  0  0  0  0  0  0  0  0
   27.4257  -10.4867  -16.2175 C   0  0  2  0  0  0  0  0  0  0  0  0
   28.5889  -11.3319  -15.6806 C   0  0  0  0  0  0  0  0  0  0  0  0
   26.1398  -11.2030  -15.9733 C   0  0  2  0  0  0  0  0  0  0  0  0
   26.2507  -12.5336  -16.6132 N   0  0  0  0  0  0  0  0  0  0  0  0
   24.9309  -10.5081  -16.4447 C   0  0  0  0  0  0  0  0  0  0  0  0
   24.4451  -10.8424  -17.5593 O   0  0  0  0  0  0  0  0  0  0  0  0
   24.3063   -9.5038  -15.7111 N   0  0  0  0  0  0  0  0  0  0  0  0
   23.0772   -8.8308  -16.1571 C   0  0  1  0  0  0  0  0  0  0  0  0
   22.1592   -8.8480  -14.9262 C   0  0  0  0  0  0  0  0  0  0  0  0
   21.2976  -10.0527  -14.9395 C   0  0  0  0  0  0  0  0  0  0  0  0
   21.2782  -11.0958  -15.8470 C   0  0  0  0  0  0  0  0  0  0  0  0
   20.3282  -11.9776  -15.4628 N   0  0  0  0  0  0  0  0  0  0  0  0
   19.7550  -11.5155  -14.3435 C   0  0  0  0  0  0  0  0  0  0  0  0
   20.3522  -10.3469  -14.0365 N   0  0  0  0  0  0  0  0  0  0  0  0
   23.4200   -7.4226  -16.4704 C   0  0  0  0  0  0  0  0  0  0  0  0
   24.2470   -6.7847  -15.7727 O   0  0  0  0  0  0  0  0  0  0  0  0
   24.9509   -5.9631  -19.6343 C   0  0  0  0  0  0  0  0  0  0  0  0
   23.6055   -5.3015  -19.4191 C   0  0  1  0  0  0  0  0  0  0  0  0
   22.6213   -5.7886  -20.2509 O   0  0  0  0  0  0  0  0  0  0  0  0
   23.2431   -5.3807  -17.9557 C   0  0  2  0  0  0  0  0  0  0  0  0
   22.8449   -6.7144  -17.5622 N   0  0  0  0  0  0  0  0  0  0  0  0
   22.1697   -4.4431  -17.5906 C   0  0  0  0  0  0  0  0  0  0  0  0
   22.3518   -3.0686  -17.5064 O   0  0  0  0  0  0  0  0  0  0  0  0
   21.0211   -4.8671  -17.3359 O   0  0  0  0  0  0  0  0  0  0  0  0
  2  1  1  6
  2  3  1  0
  4  6  1  0
  4  2  1  0
  4  5  1  6
  6  7  2  0
  8  9  1  0
  8  6  1  0
  9 10  1  1
 10 11  1  0
 11 12  2  0
 13 12  1  0
 14 13  1  0
 15 14  2  0
 15 11  1  0
 16  9  1  0
 17 16  2  0
 19 18  1  1
 19 20  1  0
 19 21  1  0
 21 22  1  6
 22 16  1  0
 23 21  1  0
 23 24  1  0
 25 23  2  0
M  END
$$$$
