VHT.pdb
     RDKit          3D

 25 25  0  0  1  0  0  0  0  0999 V2000
   37.8150  -27.8425  -18.2428 C   0  0  0  0  0  0  0  0  0  0  0  0
   36.7218  -27.9947  -17.2459 C   0  0  2  0  0  0  0  0  0  0  0  0
   37.3240  -28.1350  -15.8411 C   0  0  0  0  0  0  0  0  0  0  0  0
   35.7581  -29.1085  -17.4844 C   0  0  2  0  0  0  0  0  0  0  0  0
   34.5176  -28.7807  -16.7456 N   0  0  0  0  0  0  0  0  0  0  0  0
   36.2372  -30.4489  -17.1097 C   0  0  0  0  0  0  0  0  0  0  0  0
   37.3109  -30.8655  -17.6233 O   0  0  0  0  0  0  0  0  0  0  0  0
   35.5559  -31.2682  -16.2146 N   0  0  0  0  0  0  0  0  0  0  0  0
   36.0491  -32.5910  -15.8026 C   0  0  1  0  0  0  0  0  0  0  0  0
   34.9947  -33.1047  -14.8115 C   0  0  0  0  0  0  0  0  0  0  0  0
   35.5381  -33.1098  -13.4337 C   0  0  0  0  0  0  0  0  0  0  0  0
   36.7895  -32.7204  -12.9928 C   0  0  0  0  0  0  0  0  0  0  0  0
   36.8439  -32.8973  -11.6536 N   0  0  0  0  0  0  0  0  0  0  0  0
   35.6644  -33.3850  -11.2466 C   0  0  0  0  0  0  0  0  0  0  0  0
   34.8809  -33.5094  -12.3363 N   0  0  0  0  0  0  0  0  0  0  0  0
   36.0415  -33.4694  -16.9971 C   0  0  0  0  0  0  0  0  0  0  0  0
   35.1410  -33.3744  -17.8676 O   0  0  0  0  0  0  0  0  0  0  0  0
   38.2930  -36.8957  -19.8155 C   0  0  0  0  0  0  0  0  0  0  0  0
   38.3792  -35.9805  -18.6118 C   0  0  1  0  0  0  0  0  0  0  0  0
   39.3959  -35.0554  -18.7043 O   0  0  0  0  0  0  0  0  0  0  0  0
   37.0263  -35.3575  -18.3655 C   0  0  2  0  0  0  0  0  0  0  0  0
   37.0358  -34.4598  -17.2313 N   0  0  0  0  0  0  0  0  0  0  0  0
   35.9728  -36.3636  -18.1594 C   0  0  0  0  0  0  0  0  0  0  0  0
   35.5117  -36.7407  -16.9045 O   0  0  0  0  0  0  0  0  0  0  0  0
   35.4411  -36.9304  -19.1391 O   0  0  0  0  0  0  0  0  0  0  0  0
  2  1  1  6
  2  3  1  0
  4  6  1  0
  4  2  1  0
  4  5  1  1
  6  7  2  0
  8  9  1  0
  8  6  1  0
  9 10  1  1
 10 11  1  0
 11 12  2  0
 13 12  1  0
 14 13  1  0
 15 14  2  0
 15 11  1  0
 16  9  1  0
 17 16  2  0
 19 18  1  6
 19 20  1  0
 19 21  1  0
 21 22  1  1
 22 16  1  0
 23 21  1  0
 23 24  1  0
 25 23  2  0
M  END
$$$$
