VHT.pdb
     RDKit          3D

 25 25  0  0  1  0  0  0  0  0999 V2000
   17.0988  -15.5358  -17.6086 C   0  0  0  0  0  0  0  0  0  0  0  0
   17.8215  -14.2684  -17.8977 C   0  0  2  0  0  0  0  0  0  0  0  0
   19.2682  -14.5831  -18.3022 C   0  0  0  0  0  0  0  0  0  0  0  0
   17.8229  -13.2443  -16.8126 C   0  0  2  0  0  0  0  0  0  0  0  0
   16.4167  -13.0493  -16.3919 N   0  0  0  0  0  0  0  0  0  0  0  0
   18.4351  -11.9528  -17.1644 C   0  0  0  0  0  0  0  0  0  0  0  0
   19.6716  -11.9241  -17.4097 O   0  0  0  0  0  0  0  0  0  0  0  0
   17.7057  -10.7699  -17.2379 N   0  0  0  0  0  0  0  0  0  0  0  0
   18.3095   -9.4755  -17.5881 C   0  0  1  0  0  0  0  0  0  0  0  0
   17.1895   -8.7086  -18.3062 C   0  0  0  0  0  0  0  0  0  0  0  0
   17.2621   -8.9345  -19.7682 C   0  0  0  0  0  0  0  0  0  0  0  0
   18.2117   -9.6312  -20.4926 C   0  0  0  0  0  0  0  0  0  0  0  0
   17.8750   -9.5762  -21.8008 N   0  0  0  0  0  0  0  0  0  0  0  0
   16.7444   -8.8663  -21.9135 C   0  0  0  0  0  0  0  0  0  0  0  0
   16.3829   -8.4826  -20.6729 N   0  0  0  0  0  0  0  0  0  0  0  0
   18.6304   -8.7687  -16.3248 C   0  0  0  0  0  0  0  0  0  0  0  0
   17.8097   -8.7318  -15.3746 O   0  0  0  0  0  0  0  0  0  0  0  0
   20.9568   -9.6084  -13.7857 C   0  0  0  0  0  0  0  0  0  0  0  0
   21.4070   -8.2239  -14.2034 C   0  0  1  0  0  0  0  0  0  0  0  0
   22.5448   -8.2339  -14.9801 O   0  0  0  0  0  0  0  0  0  0  0  0
   20.2499   -7.5008  -14.8494 C   0  0  2  0  0  0  0  0  0  0  0  0
   19.8667   -8.0980  -16.1099 N   0  0  0  0  0  0  0  0  0  0  0  0
   20.5321   -6.0741  -15.0723 C   0  0  0  0  0  0  0  0  0  0  0  0
   20.7209   -5.1626  -14.0413 O   0  0  0  0  0  0  0  0  0  0  0  0
   20.6139   -5.6211  -16.2351 O   0  0  0  0  0  0  0  0  0  0  0  0
  2  1  1  1
  2  3  1  0
  4  6  1  0
  4  2  1  0
  4  5  1  6
  6  7  2  0
  8  9  1  0
  8  6  1  0
  9 10  1  6
 10 11  1  0
 11 12  2  0
 13 12  1  0
 14 13  1  0
 15 14  2  0
 15 11  1  0
 16  9  1  0
 17 16  2  0
 19 18  1  6
 19 20  1  0
 19 21  1  0
 21 22  1  6
 22 16  1  0
 23 21  1  0
 23 24  1  0
 25 23  2  0
M  END
$$$$
