VHT.pdb
     RDKit          3D

 25 25  0  0  1  0  0  0  0  0999 V2000
   22.6795  -11.4320  -19.8957 C   0  0  0  0  0  0  0  0  0  0  0  0
   21.9638  -10.3528  -19.1642 C   0  0  2  0  0  0  0  0  0  0  0  0
   22.9647   -9.2699  -18.7385 C   0  0  0  0  0  0  0  0  0  0  0  0
   21.1594  -10.7755  -17.9807 C   0  0  2  0  0  0  0  0  0  0  0  0
   20.1222  -11.7131  -18.4678 N   0  0  0  0  0  0  0  0  0  0  0  0
   20.5406   -9.6814  -17.2148 C   0  0  0  0  0  0  0  0  0  0  0  0
   19.6915   -8.9512  -17.7945 O   0  0  0  0  0  0  0  0  0  0  0  0
   20.8533   -9.4247  -15.8833 N   0  0  0  0  0  0  0  0  0  0  0  0
   20.1892   -8.3793  -15.0903 C   0  0  1  0  0  0  0  0  0  0  0  0
   19.6236   -9.1209  -13.8704 C   0  0  0  0  0  0  0  0  0  0  0  0
   18.3262   -9.7527  -14.2040 C   0  0  0  0  0  0  0  0  0  0  0  0
   17.6390   -9.7424  -15.4039 C   0  0  0  0  0  0  0  0  0  0  0  0
   16.4976  -10.4500  -15.2475 N   0  0  0  0  0  0  0  0  0  0  0  0
   16.4529  -10.9008  -13.9868 C   0  0  0  0  0  0  0  0  0  0  0  0
   17.5683  -10.4709  -13.3641 N   0  0  0  0  0  0  0  0  0  0  0  0
   21.2314   -7.4326  -14.6256 C   0  0  0  0  0  0  0  0  0  0  0  0
   22.3080   -7.8450  -14.1271 O   0  0  0  0  0  0  0  0  0  0  0  0
   23.5925   -5.5380  -16.2986 C   0  0  0  0  0  0  0  0  0  0  0  0
   22.7735   -4.4758  -15.5951 C   0  0  1  0  0  0  0  0  0  0  0  0
   21.8778   -3.8407  -16.4273 O   0  0  0  0  0  0  0  0  0  0  0  0
   22.1268   -5.0786  -14.3715 C   0  0  2  0  0  0  0  0  0  0  0  0
   21.0829   -6.0202  -14.7121 N   0  0  0  0  0  0  0  0  0  0  0  0
   21.5643   -4.0588  -13.4724 C   0  0  0  0  0  0  0  0  0  0  0  0
   22.3390   -3.1221  -12.8002 O   0  0  0  0  0  0  0  0  0  0  0  0
   20.3304   -4.0004  -13.2779 O   0  0  0  0  0  0  0  0  0  0  0  0
  2  1  1  1
  2  3  1  0
  4  6  1  0
  4  2  1  0
  4  5  1  6
  6  7  2  0
  8  9  1  0
  8  6  1  0
  9 10  1  1
 10 11  1  0
 11 12  2  0
 13 12  1  0
 14 13  1  0
 15 14  2  0
 15 11  1  0
 16  9  1  0
 17 16  2  0
 19 18  1  6
 19 20  1  0
 19 21  1  0
 21 22  1  6
 22 16  1  0
 23 21  1  0
 23 24  1  0
 25 23  2  0
M  END
$$$$
