VHT.pdb
     RDKit          3D

 25 25  0  0  1  0  0  0  0  0999 V2000
   24.8717  -11.5144  -16.5750 C   0  0  0  0  0  0  0  0  0  0  0  0
   23.9402  -12.2711  -15.6965 C   0  0  2  0  0  0  0  0  0  0  0  0
   24.5255  -13.6590  -15.4020 C   0  0  0  0  0  0  0  0  0  0  0  0
   22.5392  -12.4192  -16.1880 C   0  0  2  0  0  0  0  0  0  0  0  0
   22.5855  -13.2811  -17.3910 N   0  0  0  0  0  0  0  0  0  0  0  0
   21.8392  -11.1597  -16.4881 C   0  0  0  0  0  0  0  0  0  0  0  0
   21.9792  -10.6562  -17.6357 O   0  0  0  0  0  0  0  0  0  0  0  0
   21.0323  -10.5081  -15.5601 N   0  0  0  0  0  0  0  0  0  0  0  0
   20.3581   -9.2314  -15.8396 C   0  0  1  0  0  0  0  0  0  0  0  0
   18.9210   -9.4358  -15.3388 C   0  0  0  0  0  0  0  0  0  0  0  0
   18.0990   -8.2362  -15.6199 C   0  0  0  0  0  0  0  0  0  0  0  0
   18.4764   -7.0447  -16.2113 C   0  0  0  0  0  0  0  0  0  0  0  0
   17.3959   -6.2338  -16.2641 N   0  0  0  0  0  0  0  0  0  0  0  0
   16.3567   -6.8840  -15.7236 C   0  0  0  0  0  0  0  0  0  0  0  0
   16.7965   -8.0979  -15.3366 N   0  0  0  0  0  0  0  0  0  0  0  0
   21.0034   -8.1869  -15.0082 C   0  0  0  0  0  0  0  0  0  0  0  0
   21.4066   -8.4392  -13.8457 O   0  0  0  0  0  0  0  0  0  0  0  0
   22.8532   -5.0040  -16.8485 C   0  0  0  0  0  0  0  0  0  0  0  0
   23.1986   -5.4240  -15.4349 C   0  0  1  0  0  0  0  0  0  0  0  0
   23.9167   -4.4719  -14.7453 O   0  0  0  0  0  0  0  0  0  0  0  0
   21.9377   -5.8517  -14.7233 C   0  0  2  0  0  0  0  0  0  0  0  0
   21.2045   -6.8543  -15.4645 N   0  0  0  0  0  0  0  0  0  0  0  0
   21.0377   -4.7215  -14.4454 C   0  0  0  0  0  0  0  0  0  0  0  0
   21.3427   -3.7045  -13.5496 O   0  0  0  0  0  0  0  0  0  0  0  0
   19.9331   -4.6369  -15.0254 O   0  0  0  0  0  0  0  0  0  0  0  0
  2  1  1  6
  2  3  1  0
  4  6  1  0
  4  2  1  0
  4  5  1  6
  6  7  2  0
  8  9  1  0
  8  6  1  0
  9 10  1  1
 10 11  1  0
 11 12  2  0
 13 12  1  0
 14 13  1  0
 15 14  2  0
 15 11  1  0
 16  9  1  0
 17 16  2  0
 19 18  1  6
 19 20  1  0
 19 21  1  0
 21 22  1  6
 22 16  1  0
 23 21  1  0
 23 24  1  0
 25 23  2  0
M  END
$$$$
