VHT.pdb
     RDKit          3D

 25 25  0  0  1  0  0  0  0  0999 V2000
   20.9183  -17.4834  -15.7395 C   0  0  0  0  0  0  0  0  0  0  0  0
   21.1970  -16.0743  -16.1251 C   0  0  2  0  0  0  0  0  0  0  0  0
   21.5086  -15.2502  -14.8683 C   0  0  0  0  0  0  0  0  0  0  0  0
   20.1400  -15.3835  -16.9199 C   0  0  2  0  0  0  0  0  0  0  0  0
   19.9424  -16.1667  -18.1608 N   0  0  0  0  0  0  0  0  0  0  0  0
   20.4134  -13.9738  -17.2432 C   0  0  0  0  0  0  0  0  0  0  0  0
   21.3946  -13.7109  -17.9904 O   0  0  0  0  0  0  0  0  0  0  0  0
   19.6344  -12.9266  -16.7602 N   0  0  0  0  0  0  0  0  0  0  0  0
   19.8553  -11.5224  -17.1370 C   0  0  1  0  0  0  0  0  0  0  0  0
   18.4683  -11.0116  -17.5535 C   0  0  0  0  0  0  0  0  0  0  0  0
   18.2002  -11.3399  -18.9727 C   0  0  0  0  0  0  0  0  0  0  0  0
   19.0183  -11.9811  -19.8847 C   0  0  0  0  0  0  0  0  0  0  0  0
   18.3603  -12.0644  -21.0628 N   0  0  0  0  0  0  0  0  0  0  0  0
   17.1572  -11.4946  -20.9126 C   0  0  0  0  0  0  0  0  0  0  0  0
   17.0725  -11.0589  -19.6399 N   0  0  0  0  0  0  0  0  0  0  0  0
   20.2825  -10.7890  -15.9212 C   0  0  0  0  0  0  0  0  0  0  0  0
   19.7589  -11.0231  -14.8038 O   0  0  0  0  0  0  0  0  0  0  0  0
   23.3426  -10.8752  -14.0794 C   0  0  0  0  0  0  0  0  0  0  0  0
   23.2176   -9.4149  -14.4611 C   0  0  1  0  0  0  0  0  0  0  0  0
   24.0747   -9.0425  -15.4733 O   0  0  0  0  0  0  0  0  0  0  0  0
   21.7709   -9.1031  -14.7595 C   0  0  2  0  0  0  0  0  0  0  0  0
   21.2956   -9.7901  -15.9403 N   0  0  0  0  0  0  0  0  0  0  0  0
   21.5290   -7.6614  -14.9256 C   0  0  0  0  0  0  0  0  0  0  0  0
   21.1629   -7.0825  -16.1340 O   0  0  0  0  0  0  0  0  0  0  0  0
   21.6489   -6.8851  -13.9525 O   0  0  0  0  0  0  0  0  0  0  0  0
  2  1  1  1
  2  3  1  0
  4  6  1  0
  4  2  1  0
  4  5  1  6
  6  7  2  0
  8  9  1  0
  8  6  1  0
  9 10  1  1
 10 11  1  0
 11 12  2  0
 13 12  1  0
 14 13  1  0
 15 14  2  0
 15 11  1  0
 16  9  1  0
 17 16  2  0
 19 18  1  6
 19 20  1  0
 19 21  1  0
 21 22  1  6
 22 16  1  0
 23 21  1  0
 23 24  1  0
 25 23  2  0
M  END
$$$$
