VHT.pdb
     RDKit          3D

 25 25  0  0  1  0  0  0  0  0999 V2000
   19.1929  -12.7365  -18.7210 C   0  0  0  0  0  0  0  0  0  0  0  0
   20.3529  -12.1982  -19.4803 C   0  0  2  0  0  0  0  0  0  0  0  0
   21.0856  -13.3495  -20.1827 C   0  0  0  0  0  0  0  0  0  0  0  0
   21.3354  -11.3881  -18.7027 C   0  0  2  0  0  0  0  0  0  0  0  0
   22.0481  -12.3159  -17.7953 N   0  0  0  0  0  0  0  0  0  0  0  0
   20.7650  -10.2653  -17.9408 C   0  0  0  0  0  0  0  0  0  0  0  0
   20.1936   -9.3391  -18.5778 O   0  0  0  0  0  0  0  0  0  0  0  0
   20.8301  -10.1881  -16.5528 N   0  0  0  0  0  0  0  0  0  0  0  0
   20.1748   -9.1245  -15.7768 C   0  0  1  0  0  0  0  0  0  0  0  0
   19.5155   -9.8563  -14.5988 C   0  0  0  0  0  0  0  0  0  0  0  0
   18.1374  -10.2690  -14.9514 C   0  0  0  0  0  0  0  0  0  0  0  0
   17.4431  -10.0594  -16.1287 C   0  0  0  0  0  0  0  0  0  0  0  0
   16.2151  -10.6108  -16.0034 N   0  0  0  0  0  0  0  0  0  0  0  0
   16.1232  -11.1576  -14.7839 C   0  0  0  0  0  0  0  0  0  0  0  0
   17.2962  -10.9434  -14.1555 N   0  0  0  0  0  0  0  0  0  0  0  0
   21.2341   -8.2333  -15.2454 C   0  0  0  0  0  0  0  0  0  0  0  0
   22.3123   -8.6993  -14.8006 O   0  0  0  0  0  0  0  0  0  0  0  0
   23.3818   -5.8517  -16.8982 C   0  0  0  0  0  0  0  0  0  0  0  0
   22.6334   -5.0217  -15.8760 C   0  0  1  0  0  0  0  0  0  0  0  0
   21.6332   -4.2520  -16.4283 O   0  0  0  0  0  0  0  0  0  0  0  0
   22.1488   -5.9224  -14.7656 C   0  0  2  0  0  0  0  0  0  0  0  0
   21.1008   -6.8173  -15.2051 N   0  0  0  0  0  0  0  0  0  0  0  0
   21.6632   -5.1670  -13.6001 C   0  0  0  0  0  0  0  0  0  0  0  0
   22.4953   -4.4318  -12.7656 O   0  0  0  0  0  0  0  0  0  0  0  0
   20.4459   -5.1623  -13.3137 O   0  0  0  0  0  0  0  0  0  0  0  0
  2  1  1  1
  2  3  1  0
  4  6  1  0
  4  2  1  0
  4  5  1  1
  6  7  2  0
  8  9  1  0
  8  6  1  0
  9 10  1  1
 10 11  1  0
 11 12  2  0
 13 12  1  0
 14 13  1  0
 15 14  2  0
 15 11  1  0
 16  9  1  0
 17 16  2  0
 19 18  1  6
 19 20  1  0
 19 21  1  0
 21 22  1  6
 22 16  1  0
 23 21  1  0
 23 24  1  0
 25 23  2  0
M  END
$$$$
