VHT.pdb
     RDKit          3D

 25 25  0  0  1  0  0  0  0  0999 V2000
   38.5420   -8.8736   -6.5587 C   0  0  0  0  0  0  0  0  0  0  0  0
   38.3946  -10.1521   -7.3041 C   0  0  2  0  0  0  0  0  0  0  0  0
   38.2287  -11.3097   -6.3101 C   0  0  0  0  0  0  0  0  0  0  0  0
   39.4804  -10.4835   -8.2723 C   0  0  2  0  0  0  0  0  0  0  0  0
   40.7477  -10.5366   -7.5086 N   0  0  0  0  0  0  0  0  0  0  0  0
   39.6100   -9.5639   -9.4144 C   0  0  0  0  0  0  0  0  0  0  0  0
   40.6906   -8.9287   -9.5513 O   0  0  0  0  0  0  0  0  0  0  0  0
   38.5924   -9.3713  -10.3441 N   0  0  0  0  0  0  0  0  0  0  0  0
   38.7116   -8.4507  -11.4847 C   0  0  1  0  0  0  0  0  0  0  0  0
   37.7771   -9.0365  -12.5530 C   0  0  0  0  0  0  0  0  0  0  0  0
   38.4942  -10.0381  -13.3754 C   0  0  0  0  0  0  0  0  0  0  0  0
   39.8339  -10.3796  -13.3543 C   0  0  0  0  0  0  0  0  0  0  0  0
   40.0428  -11.3439  -14.2786 N   0  0  0  0  0  0  0  0  0  0  0  0
   38.8739  -11.6135  -14.8750 C   0  0  0  0  0  0  0  0  0  0  0  0
   37.9422  -10.8145  -14.3180 N   0  0  0  0  0  0  0  0  0  0  0  0
   38.1775   -7.1338  -11.0615 C   0  0  0  0  0  0  0  0  0  0  0  0
   37.0477   -7.0339  -10.5219 O   0  0  0  0  0  0  0  0  0  0  0  0
   40.6341   -3.6012  -11.2695 C   0  0  0  0  0  0  0  0  0  0  0  0
   39.6579   -3.8585  -10.1405 C   0  0  1  0  0  0  0  0  0  0  0  0
   39.2822   -2.7121   -9.4752 O   0  0  0  0  0  0  0  0  0  0  0  0
   38.4876   -4.6524  -10.6689 C   0  0  2  0  0  0  0  0  0  0  0  0
   38.8970   -5.9186  -11.2358 N   0  0  0  0  0  0  0  0  0  0  0  0
   37.7166   -3.9124  -11.6801 C   0  0  0  0  0  0  0  0  0  0  0  0
   37.0152   -2.7459  -11.4031 O   0  0  0  0  0  0  0  0  0  0  0  0
   37.6662   -4.3229  -12.8603 O   0  0  0  0  0  0  0  0  0  0  0  0
  2  1  1  1
  2  3  1  0
  4  6  1  0
  4  2  1  0
  4  5  1  1
  6  7  2  0
  8  9  1  0
  8  6  1  0
  9 10  1  6
 10 11  1  0
 11 12  2  0
 13 12  1  0
 14 13  1  0
 15 14  2  0
 15 11  1  0
 16  9  1  0
 17 16  2  0
 19 18  1  6
 19 20  1  0
 19 21  1  0
 21 22  1  6
 22 16  1  0
 23 21  1  0
 23 24  1  0
 25 23  2  0
M  END
$$$$
