VHT.pdb
     RDKit          3D

 25 25  0  0  1  0  0  0  0  0999 V2000
   16.0957  -12.8839  -18.3460 C   0  0  0  0  0  0  0  0  0  0  0  0
   16.8555  -13.4951  -17.2230 C   0  0  2  0  0  0  0  0  0  0  0  0
   15.9976  -14.5757  -16.5507 C   0  0  0  0  0  0  0  0  0  0  0  0
   17.3720  -12.5566  -16.1844 C   0  0  2  0  0  0  0  0  0  0  0  0
   16.2015  -12.0386  -15.4404 N   0  0  0  0  0  0  0  0  0  0  0  0
   18.1897  -11.4425  -16.6911 C   0  0  0  0  0  0  0  0  0  0  0  0
   19.2610  -11.7145  -17.2980 O   0  0  0  0  0  0  0  0  0  0  0  0
   17.8271  -10.1087  -16.5285 N   0  0  0  0  0  0  0  0  0  0  0  0
   18.6150   -8.9914  -17.0701 C   0  0  1  0  0  0  0  0  0  0  0  0
   17.6334   -8.2273  -17.9704 C   0  0  0  0  0  0  0  0  0  0  0  0
   17.5388   -8.8741  -19.2995 C   0  0  0  0  0  0  0  0  0  0  0  0
   18.4729   -8.9039  -20.3186 C   0  0  0  0  0  0  0  0  0  0  0  0
   17.9569   -9.6104  -21.3493 N   0  0  0  0  0  0  0  0  0  0  0  0
   16.7298  -10.0218  -21.0034 C   0  0  0  0  0  0  0  0  0  0  0  0
   16.4880   -9.5684  -19.7573 N   0  0  0  0  0  0  0  0  0  0  0  0
   18.9961   -8.1146  -15.9367 C   0  0  0  0  0  0  0  0  0  0  0  0
   18.1395   -7.7096  -15.1122 O   0  0  0  0  0  0  0  0  0  0  0  0
   20.6871   -8.8602  -13.0192 C   0  0  0  0  0  0  0  0  0  0  0  0
   21.5648   -7.7667  -13.5919 C   0  0  1  0  0  0  0  0  0  0  0  0
   22.7353   -8.2417  -14.1416 O   0  0  0  0  0  0  0  0  0  0  0  0
   20.7519   -6.9303  -14.5504 C   0  0  2  0  0  0  0  0  0  0  0  0
   20.3330   -7.6822  -15.7129 N   0  0  0  0  0  0  0  0  0  0  0  0
   21.4742   -5.7308  -15.0021 C   0  0  0  0  0  0  0  0  0  0  0  0
   21.8297   -4.6889  -14.1551 O   0  0  0  0  0  0  0  0  0  0  0  0
   21.8022   -5.6063  -16.2025 O   0  0  0  0  0  0  0  0  0  0  0  0
  2  1  1  6
  2  3  1  0
  4  6  1  0
  4  2  1  0
  4  5  1  6
  6  7  2  0
  8  9  1  0
  8  6  1  0
  9 10  1  6
 10 11  1  0
 11 12  2  0
 13 12  1  0
 14 13  1  0
 15 14  2  0
 15 11  1  0
 16  9  1  0
 17 16  2  0
 19 18  1  6
 19 20  1  0
 19 21  1  0
 21 22  1  6
 22 16  1  0
 23 21  1  0
 23 24  1  0
 25 23  2  0
M  END
$$$$
