VHT.pdb
     RDKit          3D

 25 25  0  0  1  0  0  0  0  0999 V2000
   11.9654  -17.0194    1.5201 C   0  0  0  0  0  0  0  0  0  0  0  0
   10.8839  -16.7356    2.5009 C   0  0  2  0  0  0  0  0  0  0  0  0
   10.4233  -15.2793    2.3503 C   0  0  0  0  0  0  0  0  0  0  0  0
   11.2002  -17.0088    3.9333 C   0  0  2  0  0  0  0  0  0  0  0  0
   11.8769  -15.8061    4.4698 N   0  0  0  0  0  0  0  0  0  0  0  0
   12.0161  -18.2083    4.1819 C   0  0  0  0  0  0  0  0  0  0  0  0
   11.5616  -19.3269    3.8181 O   0  0  0  0  0  0  0  0  0  0  0  0
   13.2630  -18.1554    4.7976 N   0  0  0  0  0  0  0  0  0  0  0  0
   14.0328  -19.3564    5.1552 C   0  0  1  0  0  0  0  0  0  0  0  0
   15.3221  -19.2492    4.3279 C   0  0  0  0  0  0  0  0  0  0  0  0
   15.2382  -20.1086    3.1246 C   0  0  0  0  0  0  0  0  0  0  0  0
   14.2392  -20.9907    2.7560 C   0  0  0  0  0  0  0  0  0  0  0  0
   14.5852  -21.5591    1.5791 N   0  0  0  0  0  0  0  0  0  0  0  0
   15.7694  -21.0580    1.2033 C   0  0  0  0  0  0  0  0  0  0  0  0
   16.1549  -20.1790    2.1496 N   0  0  0  0  0  0  0  0  0  0  0  0
   14.3847  -19.2576    6.5922 C   0  0  0  0  0  0  0  0  0  0  0  0
   14.6511  -18.1499    7.1211 O   0  0  0  0  0  0  0  0  0  0  0  0
   14.1140  -20.8930   11.1692 C   0  0  0  0  0  0  0  0  0  0  0  0
   13.6824  -20.9415    9.7182 C   0  0  1  0  0  0  0  0  0  0  0  0
   12.4330  -20.4017    9.5047 O   0  0  0  0  0  0  0  0  0  0  0  0
   14.7566  -20.3170    8.8608 C   0  0  2  0  0  0  0  0  0  0  0  0
   14.4427  -20.3907    7.4507 N   0  0  0  0  0  0  0  0  0  0  0  0
   16.0772  -20.9273    9.0805 C   0  0  0  0  0  0  0  0  0  0  0  0
   16.9645  -20.4967   10.0585 O   0  0  0  0  0  0  0  0  0  0  0  0
   16.4559  -21.8847    8.3707 O   0  0  0  0  0  0  0  0  0  0  0  0
  2  1  1  6
  2  3  1  0
  4  6  1  0
  4  2  1  0
  4  5  1  6
  6  7  2  0
  8  9  1  0
  8  6  1  0
  9 10  1  6
 10 11  1  0
 11 12  2  0
 13 12  1  0
 14 13  1  0
 15 14  2  0
 15 11  1  0
 16  9  1  0
 17 16  2  0
 19 18  1  1
 19 20  1  0
 19 21  1  0
 21 22  1  6
 22 16  1  0
 23 21  1  0
 23 24  1  0
 25 23  2  0
M  END
$$$$
