VHT.pdb
     RDKit          3D

 25 25  0  0  1  0  0  0  0  0999 V2000
   17.2873  -14.1108    2.4761 C   0  0  0  0  0  0  0  0  0  0  0  0
   17.2847  -14.8718    3.7540 C   0  0  2  0  0  0  0  0  0  0  0  0
   17.7977  -13.9733    4.8876 C   0  0  0  0  0  0  0  0  0  0  0  0
   18.0418  -16.1575    3.7609 C   0  0  2  0  0  0  0  0  0  0  0  0
   17.5201  -16.9795    2.6453 N   0  0  0  0  0  0  0  0  0  0  0  0
   17.9886  -16.9145    5.0221 C   0  0  0  0  0  0  0  0  0  0  0  0
   18.1705  -16.2903    6.1025 O   0  0  0  0  0  0  0  0  0  0  0  0
   17.7449  -18.2840    5.0676 N   0  0  0  0  0  0  0  0  0  0  0  0
   17.4663  -19.0081    6.3169 C   0  0  1  0  0  0  0  0  0  0  0  0
   16.7241  -20.2763    5.8708 C   0  0  0  0  0  0  0  0  0  0  0  0
   15.3084  -19.9671    5.5645 C   0  0  0  0  0  0  0  0  0  0  0  0
   14.3731  -19.3163    6.3478 C   0  0  0  0  0  0  0  0  0  0  0  0
   13.2091  -19.2584    5.6625 N   0  0  0  0  0  0  0  0  0  0  0  0
   13.3908  -19.8533    4.4760 C   0  0  0  0  0  0  0  0  0  0  0  0
   14.6688  -20.2790    4.4289 N   0  0  0  0  0  0  0  0  0  0  0  0
   18.7660  -19.4059    6.9093 C   0  0  0  0  0  0  0  0  0  0  0  0
   19.7684  -19.6294    6.1862 O   0  0  0  0  0  0  0  0  0  0  0  0
   21.9299  -19.2345   10.6049 C   0  0  0  0  0  0  0  0  0  0  0  0
   20.6060  -18.8407    9.9834 C   0  0  1  0  0  0  0  0  0  0  0  0
   20.5834  -17.5392    9.5321 O   0  0  0  0  0  0  0  0  0  0  0  0
   20.2391  -19.8474    8.9199 C   0  0  2  0  0  0  0  0  0  0  0  0
   18.9595  -19.5578    8.3108 N   0  0  0  0  0  0  0  0  0  0  0  0
   20.2130  -21.2254    9.4349 C   0  0  0  0  0  0  0  0  0  0  0  0
   21.2699  -22.1151    9.2903 O   0  0  0  0  0  0  0  0  0  0  0  0
   19.2057  -21.6542   10.0393 O   0  0  0  0  0  0  0  0  0  0  0  0
  2  1  1  6
  2  3  1  0
  4  6  1  0
  4  2  1  0
  4  5  1  6
  6  7  2  0
  8  9  1  0
  8  6  1  0
  9 10  1  6
 10 11  1  0
 11 12  2  0
 13 12  1  0
 14 13  1  0
 15 14  2  0
 15 11  1  0
 16  9  1  0
 17 16  2  0
 19 18  1  6
 19 20  1  0
 19 21  1  0
 21 22  1  1
 22 16  1  0
 23 21  1  0
 23 24  1  0
 25 23  2  0
M  END
$$$$
