ILS.pdb
     RDKit          3D

 23 22  0  0  1  0  0  0  0  0999 V2000
    7.8984  -11.8582   20.3261 C   0  0  0  0  0  0  0  0  0  0  0  0
    7.6916  -13.1596   21.0253 C   0  0  0  0  0  0  0  0  0  0  0  0
    8.5213  -14.2971   20.4466 C   0  0  2  0  0  0  0  0  0  0  0  0
    8.1056  -14.4504   19.0241 C   0  0  0  0  0  0  0  0  0  0  0  0
    8.4009  -15.5211   21.3002 C   0  0  2  0  0  0  0  0  0  0  0  0
    6.9761  -15.9128   21.1951 N   0  0  0  0  0  0  0  0  0  0  0  0
    8.6725  -15.3235   22.7319 C   0  0  0  0  0  0  0  0  0  0  0  0
    9.8750  -15.1693   23.1153 O   0  0  0  0  0  0  0  0  0  0  0  0
    8.1852  -12.3403   26.1301 C   0  0  0  0  0  0  0  0  0  0  0  0
    6.8945  -13.0380   25.6851 C   0  0  2  0  0  0  0  0  0  0  0  0
    5.7763  -12.3572   26.4422 C   0  0  0  0  0  0  0  0  0  0  0  0
    7.0416  -14.4761   25.9878 C   0  0  0  0  0  0  0  0  0  0  0  0
    8.0463  -15.2332   25.1497 C   0  0  2  0  0  0  0  0  0  0  0  0
    7.6836  -15.2828   23.7672 N   0  0  0  0  0  0  0  0  0  0  0  0
    8.4728  -16.5188   25.7397 C   0  0  0  0  0  0  0  0  0  0  0  0
    7.6121  -17.3397   26.2205 O   0  0  0  0  0  0  0  0  0  0  0  0
   12.3154  -18.0537   25.1072 O   0  0  0  0  0  0  0  0  0  0  0  0
   11.2307  -18.8804   25.3681 C   0  0  0  0  0  0  0  0  0  0  0  0
   10.2077  -18.2690   26.2599 C   0  0  2  0  0  0  0  0  0  0  0  0
    9.8350  -16.9294   25.8170 N   0  0  0  0  0  0  0  0  0  0  0  0
   10.6902  -18.1872   27.6728 C   0  0  0  0  0  0  0  0  0  0  0  0
   11.0538  -19.2686   28.2045 O   0  0  0  0  0  0  0  0  0  0  0  0
   10.7290  -16.9704   28.3505 O   0  0  0  0  0  0  0  0  0  0  0  0
  1  2  1  0
  2  3  1  0
  3  5  1  0
  3  4  1  6
  5  7  1  0
  5  6  1  1
  7  8  2  0
 10  9  1  1
 10 12  1  0
 11 10  1  0
 13 12  1  1
 14 13  1  0
 14  7  1  0
 15 16  2  0
 15 13  1  0
 17 18  1  0
 19 18  1  6
 19 21  1  0
 19 20  1  0
 20 15  1  0
 21 23  1  0
 22 21  2  0
M  END
$$$$
