ILS.pdb
     RDKit          3D

 23 22  0  0  1  0  0  0  0  0999 V2000
    4.1153  -21.0931   23.9867 C   0  0  0  0  0  0  0  0  0  0  0  0
    5.2572  -20.3755   24.6241 C   0  0  0  0  0  0  0  0  0  0  0  0
    5.7259  -19.1608   23.8355 C   0  0  2  0  0  0  0  0  0  0  0  0
    5.9893  -19.6276   22.4453 C   0  0  0  0  0  0  0  0  0  0  0  0
    6.8717  -18.4939   24.5310 C   0  0  2  0  0  0  0  0  0  0  0  0
    6.5082  -18.5254   25.9667 N   0  0  0  0  0  0  0  0  0  0  0  0
    7.0839  -17.0798   24.1876 C   0  0  0  0  0  0  0  0  0  0  0  0
    6.9280  -16.7086   22.9815 O   0  0  0  0  0  0  0  0  0  0  0  0
    5.6189  -12.9654   25.3519 C   0  0  0  0  0  0  0  0  0  0  0  0
    6.6368  -13.6709   26.2558 C   0  0  2  0  0  0  0  0  0  0  0  0
    6.6531  -12.8860   27.5484 C   0  0  0  0  0  0  0  0  0  0  0  0
    7.9290  -13.6850   25.5406 C   0  0  0  0  0  0  0  0  0  0  0  0
    8.2056  -14.9037   24.6902 C   0  0  2  0  0  0  0  0  0  0  0  0
    7.4569  -16.0481   25.1085 N   0  0  0  0  0  0  0  0  0  0  0  0
    9.6408  -15.1440   24.4346 C   0  0  0  0  0  0  0  0  0  0  0  0
   10.3947  -14.2082   23.9856 O   0  0  0  0  0  0  0  0  0  0  0  0
   11.4082  -18.2439   26.0935 O   0  0  0  0  0  0  0  0  0  0  0  0
   12.3019  -17.6395   25.2194 C   0  0  0  0  0  0  0  0  0  0  0  0
   11.6802  -16.6185   24.3323 C   0  0  2  0  0  0  0  0  0  0  0  0
   10.2754  -16.3995   24.6610 N   0  0  0  0  0  0  0  0  0  0  0  0
   11.7777  -17.0104   22.8925 C   0  0  0  0  0  0  0  0  0  0  0  0
   10.6909  -17.1273   22.2685 O   0  0  0  0  0  0  0  0  0  0  0  0
   13.0141  -17.2308   22.2891 O   0  0  0  0  0  0  0  0  0  0  0  0
  1  2  1  0
  2  3  1  0
  3  5  1  0
  3  4  1  6
  5  7  1  0
  5  6  1  1
  7  8  2  0
 10  9  1  6
 10 12  1  0
 11 10  1  0
 13 12  1  1
 14 13  1  0
 14  7  1  0
 15 16  2  0
 15 13  1  0
 17 18  1  0
 19 18  1  1
 19 21  1  0
 19 20  1  0
 20 15  1  0
 21 23  1  0
 22 21  2  0
M  END
$$$$
