ILS.pdb
     RDKit          3D

 23 22  0  0  1  0  0  0  0  0999 V2000
    6.1771  -21.3183   28.1673 C   0  0  0  0  0  0  0  0  0  0  0  0
    7.1376  -20.2413   27.7891 C   0  0  0  0  0  0  0  0  0  0  0  0
    6.6635  -19.3895   26.6201 C   0  0  2  0  0  0  0  0  0  0  0  0
    6.1485  -20.3298   25.5854 C   0  0  0  0  0  0  0  0  0  0  0  0
    7.7476  -18.4570   26.1768 C   0  0  2  0  0  0  0  0  0  0  0  0
    8.2159  -17.8072   27.4229 N   0  0  0  0  0  0  0  0  0  0  0  0
    7.3222  -17.3735   25.2782 C   0  0  0  0  0  0  0  0  0  0  0  0
    6.6755  -17.6661   24.2232 O   0  0  0  0  0  0  0  0  0  0  0  0
    5.6386  -13.3046   26.4403 C   0  0  0  0  0  0  0  0  0  0  0  0
    7.1618  -13.4122   26.3014 C   0  0  2  0  0  0  0  0  0  0  0  0
    7.7195  -12.1309   26.8796 C   0  0  0  0  0  0  0  0  0  0  0  0
    7.4628  -13.6106   24.8691 C   0  0  0  0  0  0  0  0  0  0  0  0
    7.5534  -15.0449   24.4006 C   0  0  2  0  0  0  0  0  0  0  0  0
    7.5697  -15.9778   25.4843 N   0  0  0  0  0  0  0  0  0  0  0  0
    8.5712  -15.2712   23.3539 C   0  0  0  0  0  0  0  0  0  0  0  0
    8.5335  -14.6218   22.2481 O   0  0  0  0  0  0  0  0  0  0  0  0
   12.3251  -15.3150   21.1253 O   0  0  0  0  0  0  0  0  0  0  0  0
   11.3220  -15.1502   22.0712 C   0  0  0  0  0  0  0  0  0  0  0  0
   10.6171  -16.4118   22.4282 C   0  0  2  0  0  0  0  0  0  0  0  0
    9.6401  -16.2033   23.4918 N   0  0  0  0  0  0  0  0  0  0  0  0
   11.5773  -17.4722   22.8636 C   0  0  0  0  0  0  0  0  0  0  0  0
   11.4896  -17.8504   24.0609 O   0  0  0  0  0  0  0  0  0  0  0  0
   12.5133  -18.0028   21.9783 O   0  0  0  0  0  0  0  0  0  0  0  0
  1  2  1  0
  2  3  1  0
  3  5  1  0
  3  4  1  6
  5  7  1  0
  5  6  1  1
  7  8  2  0
 10  9  1  6
 10 12  1  0
 11 10  1  0
 13 12  1  1
 14 13  1  0
 14  7  1  0
 15 16  2  0
 15 13  1  0
 17 18  1  0
 19 18  1  1
 19 21  1  0
 19 20  1  0
 20 15  1  0
 21 23  1  0
 22 21  2  0
M  END
$$$$
