ILS.pdb
     RDKit          3D

 23 22  0  0  1  0  0  0  0  0999 V2000
    6.9925  -12.8730   18.6333 C   0  0  0  0  0  0  0  0  0  0  0  0
    7.1089  -14.0708   19.5148 C   0  0  0  0  0  0  0  0  0  0  0  0
    8.1809  -13.9326   20.5867 C   0  0  2  0  0  0  0  0  0  0  0  0
    9.4389  -13.5467   19.8879 C   0  0  0  0  0  0  0  0  0  0  0  0
    8.2495  -15.1725   21.4230 C   0  0  2  0  0  0  0  0  0  0  0  0
    6.8639  -15.6963   21.4312 N   0  0  0  0  0  0  0  0  0  0  0  0
    8.6238  -14.9668   22.8301 C   0  0  0  0  0  0  0  0  0  0  0  0
    9.8458  -14.7673   23.1198 O   0  0  0  0  0  0  0  0  0  0  0  0
    7.6484  -11.8639   25.9002 C   0  0  0  0  0  0  0  0  0  0  0  0
    6.5743  -12.9467   25.7429 C   0  0  2  0  0  0  0  0  0  0  0  0
    5.3927  -12.4764   26.5612 C   0  0  0  0  0  0  0  0  0  0  0  0
    7.1602  -14.2217   26.2042 C   0  0  0  0  0  0  0  0  0  0  0  0
    8.1817  -14.8549   25.2874 C   0  0  2  0  0  0  0  0  0  0  0  0
    7.7175  -14.9656   23.9393 N   0  0  0  0  0  0  0  0  0  0  0  0
    8.8145  -16.0694   25.8417 C   0  0  0  0  0  0  0  0  0  0  0  0
    9.0998  -16.1514   27.0898 O   0  0  0  0  0  0  0  0  0  0  0  0
   10.0807  -19.2909   23.4229 O   0  0  0  0  0  0  0  0  0  0  0  0
    9.6726  -19.5677   24.7209 C   0  0  0  0  0  0  0  0  0  0  0  0
    9.7505  -18.3989   25.6395 C   0  0  2  0  0  0  0  0  0  0  0  0
    9.1465  -17.2077   25.0516 N   0  0  0  0  0  0  0  0  0  0  0  0
   11.1651  -18.0842   26.0079 C   0  0  0  0  0  0  0  0  0  0  0  0
   11.5980  -16.9557   25.6568 O   0  0  0  0  0  0  0  0  0  0  0  0
   11.9489  -19.0028   26.7031 O   0  0  0  0  0  0  0  0  0  0  0  0
  1  2  1  0
  2  3  1  0
  3  5  1  0
  3  4  1  6
  5  7  1  0
  5  6  1  1
  7  8  2  0
 10  9  1  1
 10 12  1  0
 11 10  1  0
 13 12  1  1
 14 13  1  0
 14  7  1  0
 15 16  2  0
 15 13  1  0
 17 18  1  0
 19 18  1  6
 19 21  1  0
 19 20  1  0
 20 15  1  0
 21 23  1  0
 22 21  2  0
M  END
$$$$
