ILS.pdb
     RDKit          3D

 23 22  0  0  1  0  0  0  0  0999 V2000
    7.6150  -18.2818   18.9169 C   0  0  0  0  0  0  0  0  0  0  0  0
    7.2622  -16.9808   19.5559 C   0  0  0  0  0  0  0  0  0  0  0  0
    7.9015  -16.7840   20.9232 C   0  0  2  0  0  0  0  0  0  0  0  0
    7.6175  -18.0164   21.7108 C   0  0  0  0  0  0  0  0  0  0  0  0
    7.4458  -15.4958   21.5349 C   0  0  2  0  0  0  0  0  0  0  0  0
    7.8557  -14.4543   20.5644 N   0  0  0  0  0  0  0  0  0  0  0  0
    8.0797  -15.1435   22.8142 C   0  0  0  0  0  0  0  0  0  0  0  0
    9.3325  -14.9276   22.8422 O   0  0  0  0  0  0  0  0  0  0  0  0
    8.0487  -11.7408   25.6602 C   0  0  0  0  0  0  0  0  0  0  0  0
    6.8439  -12.6796   25.7946 C   0  0  2  0  0  0  0  0  0  0  0  0
    5.8865  -11.9879   26.7391 C   0  0  0  0  0  0  0  0  0  0  0  0
    7.3471  -13.9779   26.2874 C   0  0  0  0  0  0  0  0  0  0  0  0
    8.1172  -14.8144   25.2914 C   0  0  2  0  0  0  0  0  0  0  0  0
    7.4017  -15.0122   24.0690 N   0  0  0  0  0  0  0  0  0  0  0  0
    8.7279  -16.0280   25.8720 C   0  0  0  0  0  0  0  0  0  0  0  0
    8.0193  -17.0697   26.1139 O   0  0  0  0  0  0  0  0  0  0  0  0
   11.8140  -17.7565   24.7121 O   0  0  0  0  0  0  0  0  0  0  0  0
   11.9144  -17.7688   26.0969 C   0  0  0  0  0  0  0  0  0  0  0  0
   10.6735  -17.3342   26.7950 C   0  0  2  0  0  0  0  0  0  0  0  0
   10.1114  -16.1271   26.1981 N   0  0  0  0  0  0  0  0  0  0  0  0
   10.9225  -17.0771   28.2469 C   0  0  0  0  0  0  0  0  0  0  0  0
   10.6411  -15.9249   28.6684 O   0  0  0  0  0  0  0  0  0  0  0  0
   11.4390  -18.0711   29.0754 O   0  0  0  0  0  0  0  0  0  0  0  0
  1  2  1  0
  2  3  1  0
  3  5  1  0
  3  4  1  1
  5  7  1  0
  5  6  1  6
  7  8  2  0
 10  9  1  1
 10 12  1  0
 11 10  1  0
 13 12  1  1
 14 13  1  0
 14  7  1  0
 15 16  2  0
 15 13  1  0
 17 18  1  0
 19 18  1  6
 19 21  1  0
 19 20  1  0
 20 15  1  0
 21 23  1  0
 22 21  2  0
M  END
$$$$
