ILS.pdb
     RDKit          3D

 23 22  0  0  1  0  0  0  0  0999 V2000
    7.0851  -12.5806   18.8132 C   0  0  0  0  0  0  0  0  0  0  0  0
    7.3530  -13.8284   19.5858 C   0  0  0  0  0  0  0  0  0  0  0  0
    8.3416  -13.6343   20.7269 C   0  0  2  0  0  0  0  0  0  0  0  0
    9.5983  -13.1111   20.1212 C   0  0  0  0  0  0  0  0  0  0  0  0
    8.4739  -14.8932   21.5262 C   0  0  2  0  0  0  0  0  0  0  0  0
    7.1282  -15.5106   21.4786 N   0  0  0  0  0  0  0  0  0  0  0  0
    8.7957  -14.7085   22.9491 C   0  0  0  0  0  0  0  0  0  0  0  0
    9.9892  -14.4186   23.2783 O   0  0  0  0  0  0  0  0  0  0  0  0
    8.0791  -11.8960   26.3326 C   0  0  0  0  0  0  0  0  0  0  0  0
    6.8655  -12.7827   26.0293 C   0  0  2  0  0  0  0  0  0  0  0  0
    5.7463  -12.2615   26.9027 C   0  0  0  0  0  0  0  0  0  0  0  0
    7.2549  -14.1786   26.3143 C   0  0  0  0  0  0  0  0  0  0  0  0
    8.2947  -14.7800   25.3966 C   0  0  2  0  0  0  0  0  0  0  0  0
    7.8663  -14.8232   24.0329 N   0  0  0  0  0  0  0  0  0  0  0  0
    8.9003  -16.0258   25.9105 C   0  0  0  0  0  0  0  0  0  0  0  0
    9.0980  -16.1914   27.1673 O   0  0  0  0  0  0  0  0  0  0  0  0
    9.3352  -19.5233   23.5834 O   0  0  0  0  0  0  0  0  0  0  0  0
    9.2701  -19.5434   24.9702 C   0  0  0  0  0  0  0  0  0  0  0  0
    9.8553  -18.3380   25.6186 C   0  0  2  0  0  0  0  0  0  0  0  0
    9.2994  -17.1051   25.0704 N   0  0  0  0  0  0  0  0  0  0  0  0
   11.3423  -18.3002   25.4654 C   0  0  0  0  0  0  0  0  0  0  0  0
   11.8171  -17.3127   24.8460 O   0  0  0  0  0  0  0  0  0  0  0  0
   12.1451  -19.3127   25.9867 O   0  0  0  0  0  0  0  0  0  0  0  0
  1  2  1  0
  2  3  1  0
  3  5  1  0
  3  4  1  6
  5  7  1  0
  5  6  1  1
  7  8  2  0
 10  9  1  1
 10 12  1  0
 11 10  1  0
 13 12  1  1
 14 13  1  0
 14  7  1  0
 15 16  2  0
 15 13  1  0
 17 18  1  0
 19 18  1  6
 19 21  1  0
 19 20  1  0
 20 15  1  0
 21 23  1  0
 22 21  2  0
M  END
$$$$
