ILS.pdb
     RDKit          3D

 23 22  0  0  1  0  0  0  0  0999 V2000
   10.2566  -14.0837   29.0735 C   0  0  0  0  0  0  0  0  0  0  0  0
    9.0823  -14.6275   28.3313 C   0  0  0  0  0  0  0  0  0  0  0  0
    9.4231  -15.1125   26.9292 C   0  0  2  0  0  0  0  0  0  0  0  0
   10.3087  -14.0797   26.3216 C   0  0  0  0  0  0  0  0  0  0  0  0
    8.1750  -15.4356   26.1681 C   0  0  2  0  0  0  0  0  0  0  0  0
    7.5684  -16.5677   26.9061 N   0  0  0  0  0  0  0  0  0  0  0  0
    8.3781  -15.9010   24.7880 C   0  0  0  0  0  0  0  0  0  0  0  0
    8.3905  -17.1509   24.5548 O   0  0  0  0  0  0  0  0  0  0  0  0
    6.0983  -13.8855   21.4046 C   0  0  0  0  0  0  0  0  0  0  0  0
    7.5596  -13.4862   21.6416 C   0  0  2  0  0  0  0  0  0  0  0  0
    7.7829  -12.2355   20.8211 C   0  0  0  0  0  0  0  0  0  0  0  0
    8.4020  -14.6311   21.2403 C   0  0  0  0  0  0  0  0  0  0  0  0
    8.7764  -15.5992   22.3392 C   0  0  2  0  0  0  0  0  0  0  0  0
    8.5650  -15.0573   23.6457 N   0  0  0  0  0  0  0  0  0  0  0  0
   10.0780  -16.2671   22.1329 C   0  0  0  0  0  0  0  0  0  0  0  0
   10.3186  -16.9206   21.0555 O   0  0  0  0  0  0  0  0  0  0  0  0
   14.7156  -16.3359   22.2205 O   0  0  0  0  0  0  0  0  0  0  0  0
   13.4469  -15.8159   22.4395 C   0  0  0  0  0  0  0  0  0  0  0  0
   12.4335  -16.8385   22.8177 C   0  0  2  0  0  0  0  0  0  0  0  0
   11.1327  -16.2360   23.0905 N   0  0  0  0  0  0  0  0  0  0  0  0
   12.8612  -17.6155   24.0216 C   0  0  0  0  0  0  0  0  0  0  0  0
   12.1602  -17.4750   25.0575 O   0  0  0  0  0  0  0  0  0  0  0  0
   13.9788  -18.4465   23.9818 O   0  0  0  0  0  0  0  0  0  0  0  0
  1  2  1  0
  2  3  1  0
  3  5  1  0
  3  4  1  6
  5  7  1  0
  5  6  1  1
  7  8  2  0
 10  9  1  6
 10 12  1  0
 11 10  1  0
 13 12  1  6
 14 13  1  0
 14  7  1  0
 15 16  2  0
 15 13  1  0
 17 18  1  0
 19 18  1  1
 19 21  1  0
 19 20  1  0
 20 15  1  0
 21 23  1  0
 22 21  2  0
M  END
$$$$
