ILS.pdb
     RDKit          3D

 23 22  0  0  1  0  0  0  0  0999 V2000
    7.9430  -11.9270   20.2636 C   0  0  0  0  0  0  0  0  0  0  0  0
    7.7795  -13.1749   21.0644 C   0  0  0  0  0  0  0  0  0  0  0  0
    8.5406  -14.3642   20.4956 C   0  0  2  0  0  0  0  0  0  0  0  0
    8.1004  -14.5180   19.0805 C   0  0  0  0  0  0  0  0  0  0  0  0
    8.3657  -15.5662   21.3707 C   0  0  2  0  0  0  0  0  0  0  0  0
    6.9185  -15.8744   21.2994 N   0  0  0  0  0  0  0  0  0  0  0  0
    8.6774  -15.3639   22.7936 C   0  0  0  0  0  0  0  0  0  0  0  0
    9.8947  -15.2890   23.1531 O   0  0  0  0  0  0  0  0  0  0  0  0
    8.3780  -12.2865   26.0302 C   0  0  0  0  0  0  0  0  0  0  0  0
    7.0371  -12.9603   25.7157 C   0  0  2  0  0  0  0  0  0  0  0  0
    6.0001  -12.2089   26.5201 C   0  0  0  0  0  0  0  0  0  0  0  0
    7.1637  -14.3874   26.0751 C   0  0  0  0  0  0  0  0  0  0  0  0
    8.1028  -15.2079   25.2208 C   0  0  2  0  0  0  0  0  0  0  0  0
    7.7134  -15.2352   23.8451 N   0  0  0  0  0  0  0  0  0  0  0  0
    8.4564  -16.5178   25.8058 C   0  0  0  0  0  0  0  0  0  0  0  0
    7.5604  -17.4152   25.9994 O   0  0  0  0  0  0  0  0  0  0  0  0
   11.1274  -18.5626   24.4893 O   0  0  0  0  0  0  0  0  0  0  0  0
   11.2181  -18.8152   25.8517 C   0  0  0  0  0  0  0  0  0  0  0  0
   10.1157  -18.2136   26.6509 C   0  0  2  0  0  0  0  0  0  0  0  0
    9.7829  -16.8702   26.1884 N   0  0  0  0  0  0  0  0  0  0  0  0
   10.4655  -18.1451   28.1031 C   0  0  0  0  0  0  0  0  0  0  0  0
   10.4472  -17.0025   28.6308 O   0  0  0  0  0  0  0  0  0  0  0  0
   10.7921  -19.2946   28.8195 O   0  0  0  0  0  0  0  0  0  0  0  0
  1  2  1  0
  2  3  1  0
  3  5  1  0
  3  4  1  6
  5  7  1  0
  5  6  1  1
  7  8  2  0
 10  9  1  1
 10 12  1  0
 11 10  1  0
 13 12  1  1
 14 13  1  0
 14  7  1  0
 15 16  2  0
 15 13  1  0
 17 18  1  0
 19 18  1  6
 19 21  1  0
 19 20  1  0
 20 15  1  0
 21 23  1  0
 22 21  2  0
M  END
$$$$
