ILS.pdb
     RDKit          3D

 23 22  0  0  1  0  0  0  0  0999 V2000
    8.0654  -19.3587   19.0852 C   0  0  0  0  0  0  0  0  0  0  0  0
    7.9765  -17.8850   19.2987 C   0  0  0  0  0  0  0  0  0  0  0  0
    8.2444  -17.4637   20.7367 C   0  0  2  0  0  0  0  0  0  0  0  0
    7.3398  -18.2766   21.5974 C   0  0  0  0  0  0  0  0  0  0  0  0
    8.1245  -15.9782   20.8791 C   0  0  2  0  0  0  0  0  0  0  0  0
    9.1421  -15.4295   19.9529 N   0  0  0  0  0  0  0  0  0  0  0  0
    8.4435  -15.4423   22.2109 C   0  0  0  0  0  0  0  0  0  0  0  0
    9.6162  -15.6037   22.6752 O   0  0  0  0  0  0  0  0  0  0  0  0
    5.9154  -12.2807   26.9204 C   0  0  0  0  0  0  0  0  0  0  0  0
    7.1492  -13.0483   26.4311 C   0  0  2  0  0  0  0  0  0  0  0  0
    8.3282  -12.1345   26.6806 C   0  0  0  0  0  0  0  0  0  0  0  0
    6.9301  -13.3777   25.0080 C   0  0  0  0  0  0  0  0  0  0  0  0
    7.8766  -14.3910   24.4062 C   0  0  2  0  0  0  0  0  0  0  0  0
    7.5350  -14.7314   23.0599 N   0  0  0  0  0  0  0  0  0  0  0  0
    8.1747  -15.5344   25.2930 C   0  0  0  0  0  0  0  0  0  0  0  0
    7.2410  -16.3186   25.6918 O   0  0  0  0  0  0  0  0  0  0  0  0
   11.7932  -17.3589   25.2599 O   0  0  0  0  0  0  0  0  0  0  0  0
   10.6678  -17.9760   25.7896 C   0  0  0  0  0  0  0  0  0  0  0  0
    9.7634  -17.0509   26.5259 C   0  0  2  0  0  0  0  0  0  0  0  0
    9.4860  -15.8410   25.7587 N   0  0  0  0  0  0  0  0  0  0  0  0
   10.3407  -16.6559   27.8475 C   0  0  0  0  0  0  0  0  0  0  0  0
   10.4827  -15.4219   28.0508 O   0  0  0  0  0  0  0  0  0  0  0  0
   10.6972  -17.6155   28.7926 O   0  0  0  0  0  0  0  0  0  0  0  0
  1  2  1  0
  2  3  1  0
  3  5  1  0
  3  4  1  1
  5  7  1  0
  5  6  1  6
  7  8  2  0
 10  9  1  6
 10 12  1  0
 11 10  1  0
 13 12  1  1
 14 13  1  0
 14  7  1  0
 15 16  2  0
 15 13  1  0
 17 18  1  0
 19 18  1  6
 19 21  1  0
 19 20  1  0
 20 15  1  0
 21 23  1  0
 22 21  2  0
M  END
$$$$
