ILS.pdb
     RDKit          3D

 23 22  0  0  1  0  0  0  0  0999 V2000
    6.0384  -22.5018   24.0919 C   0  0  0  0  0  0  0  0  0  0  0  0
    5.4194  -21.1914   23.7384 C   0  0  0  0  0  0  0  0  0  0  0  0
    6.3304  -20.0004   24.0005 C   0  0  2  0  0  0  0  0  0  0  0  0
    6.8142  -20.1311   25.4036 C   0  0  0  0  0  0  0  0  0  0  0  0
    5.6300  -18.7204   23.6653 C   0  0  2  0  0  0  0  0  0  0  0  0
    5.3666  -18.8072   22.2101 N   0  0  0  0  0  0  0  0  0  0  0  0
    6.4168  -17.4955   23.8723 C   0  0  0  0  0  0  0  0  0  0  0  0
    7.4202  -17.2738   23.1234 O   0  0  0  0  0  0  0  0  0  0  0  0
    6.5233  -12.2225   27.1514 C   0  0  0  0  0  0  0  0  0  0  0  0
    7.2972  -13.1392   26.1966 C   0  0  2  0  0  0  0  0  0  0  0  0
    7.6715  -12.2774   25.0115 C   0  0  0  0  0  0  0  0  0  0  0  0
    6.4155  -14.2763   25.8628 C   0  0  0  0  0  0  0  0  0  0  0  0
    7.0538  -15.4094   25.0925 C   0  0  2  0  0  0  0  0  0  0  0  0
    6.1523  -16.4956   24.8632 N   0  0  0  0  0  0  0  0  0  0  0  0
    8.3934  -15.7906   25.5857 C   0  0  0  0  0  0  0  0  0  0  0  0
    8.5572  -16.2106   26.7867 O   0  0  0  0  0  0  0  0  0  0  0  0
   12.0438  -15.4817   23.3214 O   0  0  0  0  0  0  0  0  0  0  0  0
   11.6851  -16.6437   23.9913 C   0  0  0  0  0  0  0  0  0  0  0  0
   10.7969  -16.4139   25.1636 C   0  0  2  0  0  0  0  0  0  0  0  0
    9.5699  -15.7205   24.7851 N   0  0  0  0  0  0  0  0  0  0  0  0
   11.4859  -15.6186   26.2261 C   0  0  0  0  0  0  0  0  0  0  0  0
   10.9157  -14.5573   26.5903 O   0  0  0  0  0  0  0  0  0  0  0  0
   12.6946  -16.0441   26.7732 O   0  0  0  0  0  0  0  0  0  0  0  0
  1  2  1  0
  2  3  1  0
  3  5  1  0
  3  4  1  1
  5  7  1  0
  5  6  1  6
  7  8  2  0
 10  9  1  1
 10 12  1  0
 11 10  1  0
 13 12  1  1
 14 13  1  0
 14  7  1  0
 15 16  2  0
 15 13  1  0
 17 18  1  0
 19 18  1  6
 19 21  1  0
 19 20  1  0
 20 15  1  0
 21 23  1  0
 22 21  2  0
M  END
$$$$
