KLW.pdb
     RDKit          3D

 32 33  0  0  1  0  0  0  0  0999 V2000
    7.1926  -17.7179   21.0743 N   0  0  0  0  0  0  0  0  0  0  0  0
    8.3864  -17.3038   20.3540 C   0  0  1  0  0  0  0  0  0  0  0  0
    8.0836  -16.8208   18.9951 C   0  0  0  0  0  0  0  0  0  0  0  0
    7.3199  -17.6293   18.0478 C   0  0  0  0  0  0  0  0  0  0  0  0
    8.0369  -18.3237   16.9775 C   0  0  0  0  0  0  0  0  0  0  0  0
    7.2985  -19.1136   15.9751 C   0  0  0  0  0  0  0  0  0  0  0  0
    7.3200  -18.5114   14.6486 N   0  0  0  0  0  0  0  0  0  0  0  0
    8.9836  -16.0952   21.0863 C   0  0  0  0  0  0  0  0  0  0  0  0
    9.9914  -15.5103   20.6207 O   0  0  0  0  0  0  0  0  0  0  0  0
    7.9428  -11.9067   25.0272 C   0  0  0  0  0  0  0  0  0  0  0  0
    7.6605  -13.4476   25.0567 C   0  0  1  0  0  0  0  0  0  0  0  0
    6.3725  -13.5587   25.8033 C   0  0  0  0  0  0  0  0  0  0  0  0
    7.6495  -13.8292   23.6377 C   0  0  0  0  0  0  0  0  0  0  0  0
    8.8030  -14.4847   22.9992 C   0  0  2  0  0  0  0  0  0  0  0  0
    8.3455  -15.7019   22.2764 N   0  0  0  0  0  0  0  0  0  0  0  0
    9.9152  -14.9443   23.8529 C   0  0  0  0  0  0  0  0  0  0  0  0
   10.7470  -14.1905   24.4288 O   0  0  0  0  0  0  0  0  0  0  0  0
   10.1486  -16.3428   24.1047 N   0  0  0  0  0  0  0  0  0  0  0  0
   11.1364  -16.8413   25.0428 C   0  0  1  0  0  0  0  0  0  0  0  0
   10.5685  -17.8074   26.0023 C   0  0  0  0  0  0  0  0  0  0  0  0
    9.5455  -17.2003   26.8687 C   0  0  0  0  0  0  0  0  0  0  0  0
    8.1835  -17.5046   26.9360 C   0  0  0  0  0  0  0  0  0  0  0  0
    7.5588  -16.7064   27.8164 N   0  0  0  0  0  0  0  0  0  0  0  0
    8.4828  -15.8790   28.3345 C   0  0  0  0  0  0  0  0  0  0  0  0
    8.3601  -14.8802   29.2969 C   0  0  0  0  0  0  0  0  0  0  0  0
    9.5105  -14.2056   29.6476 C   0  0  0  0  0  0  0  0  0  0  0  0
   10.7341  -14.4810   29.0932 C   0  0  0  0  0  0  0  0  0  0  0  0
   10.8498  -15.4674   28.1427 C   0  0  0  0  0  0  0  0  0  0  0  0
    9.7034  -16.1544   27.7783 C   0  0  0  0  0  0  0  0  0  0  0  0
   12.3886  -17.2510   24.4275 C   0  0  0  0  0  0  0  0  0  0  0  0
   13.4104  -17.5692   25.0422 O   0  0  0  0  0  0  0  0  0  0  0  0
   12.4407  -17.2877   23.0275 O   0  0  0  0  0  0  0  0  0  0  0  0
  2  1  1  1
  2  3  1  0
  3  4  1  0
  5  4  1  0
  6  5  1  0
  7  6  1  0
  8  2  1  0
  9  8  2  0
 11 10  1  6
 11 13  1  0
 12 11  1  0
 14 13  1  1
 14 16  1  0
 14 15  1  0
 15  8  1  0
 16 17  2  0
 18 16  1  0
 18 19  1  0
 19 20  1  6
 20 21  1  0
 21 29  1  0
 22 21  2  0
 22 23  1  0
 23 24  1  0
 24 25  2  0
 25 26  1  0
 27 26  2  0
 28 27  1  0
 29 28  2  0
 29 24  1  0
 30 32  1  0
 30 19  1  0
 31 30  2  0
M  END
$$$$
