KLW.pdb
     RDKit          3D

 32 33  0  0  1  0  0  0  0  0999 V2000
    8.9229  -18.8794   20.1814 N   0  0  0  0  0  0  0  0  0  0  0  0
   10.3097  -18.5003   19.9607 C   0  0  1  0  0  0  0  0  0  0  0  0
   10.6235  -18.3237   18.5317 C   0  0  0  0  0  0  0  0  0  0  0  0
   10.9236  -19.4628   17.6676 C   0  0  0  0  0  0  0  0  0  0  0  0
   10.5695  -20.8066   18.1267 C   0  0  0  0  0  0  0  0  0  0  0  0
   10.9968  -21.9928   17.3623 C   0  0  0  0  0  0  0  0  0  0  0  0
   10.5918  -23.2463   17.9848 N   0  0  0  0  0  0  0  0  0  0  0  0
   10.5277  -17.1198   20.5935 C   0  0  0  0  0  0  0  0  0  0  0  0
   11.6185  -16.5194   20.4375 O   0  0  0  0  0  0  0  0  0  0  0  0
    6.2833  -13.5873   20.8523 C   0  0  0  0  0  0  0  0  0  0  0  0
    7.7418  -14.0539   20.5204 C   0  0  1  0  0  0  0  0  0  0  0  0
    8.3859  -12.8316   19.9548 C   0  0  0  0  0  0  0  0  0  0  0  0
    8.2528  -14.5486   21.8063 C   0  0  0  0  0  0  0  0  0  0  0  0
    9.5556  -15.2256   21.9174 C   0  0  2  0  0  0  0  0  0  0  0  0
    9.4567  -16.5917   21.3367 N   0  0  0  0  0  0  0  0  0  0  0  0
   10.1362  -15.4233   23.2593 C   0  0  0  0  0  0  0  0  0  0  0  0
   11.1234  -14.7892   23.7233 O   0  0  0  0  0  0  0  0  0  0  0  0
    9.6022  -16.3933   24.1800 N   0  0  0  0  0  0  0  0  0  0  0  0
   10.0563  -16.5433   25.5495 C   0  0  1  0  0  0  0  0  0  0  0  0
    8.9405  -16.7040   26.5011 C   0  0  0  0  0  0  0  0  0  0  0  0
    7.7653  -15.9014   26.1265 C   0  0  0  0  0  0  0  0  0  0  0  0
    6.5890  -16.3336   25.5085 C   0  0  0  0  0  0  0  0  0  0  0  0
    5.7603  -15.3013   25.2842 N   0  0  0  0  0  0  0  0  0  0  0  0
    6.3661  -14.1927   25.7434 C   0  0  0  0  0  0  0  0  0  0  0  0
    5.9281  -12.8712   25.7691 C   0  0  0  0  0  0  0  0  0  0  0  0
    6.7759  -11.9429   26.3358 C   0  0  0  0  0  0  0  0  0  0  0  0
    8.0000  -12.2730   26.8584 C   0  0  0  0  0  0  0  0  0  0  0  0
    8.4282  -13.5790   26.8297 C   0  0  0  0  0  0  0  0  0  0  0  0
    7.5889  -14.5243   26.2631 C   0  0  0  0  0  0  0  0  0  0  0  0
   11.1459  -17.4919   25.7151 C   0  0  0  0  0  0  0  0  0  0  0  0
   11.7502  -17.7009   26.7708 O   0  0  0  0  0  0  0  0  0  0  0  0
   11.5418  -18.2265   24.5893 O   0  0  0  0  0  0  0  0  0  0  0  0
  2  1  1  6
  2  3  1  0
  3  4  1  0
  5  4  1  0
  6  5  1  0
  7  6  1  0
  8  2  1  0
  9  8  2  0
 11 10  1  1
 11 13  1  0
 12 11  1  0
 14 13  1  1
 14 16  1  0
 14 15  1  0
 15  8  1  0
 16 17  2  0
 18 16  1  0
 18 19  1  0
 19 20  1  1
 20 21  1  0
 21 29  1  0
 22 21  2  0
 22 23  1  0
 23 24  1  0
 24 25  2  0
 25 26  1  0
 27 26  2  0
 28 27  1  0
 29 28  2  0
 29 24  1  0
 30 32  1  0
 30 19  1  0
 31 30  2  0
M  END
$$$$
