KLW.pdb
     RDKit          3D

 32 33  0  0  1  0  0  0  0  0999 V2000
   10.2542  -18.4816   17.9166 N   0  0  0  0  0  0  0  0  0  0  0  0
    9.7788  -18.7889   19.2564 C   0  0  1  0  0  0  0  0  0  0  0  0
   10.5776  -19.8415   19.9086 C   0  0  0  0  0  0  0  0  0  0  0  0
   10.8443  -21.1183   19.2505 C   0  0  0  0  0  0  0  0  0  0  0  0
   11.5436  -22.1632   19.9994 C   0  0  0  0  0  0  0  0  0  0  0  0
   11.8372  -23.4635   19.3692 C   0  0  0  0  0  0  0  0  0  0  0  0
   12.7163  -24.3003   20.1752 N   0  0  0  0  0  0  0  0  0  0  0  0
    9.9753  -17.5394   20.1246 C   0  0  0  0  0  0  0  0  0  0  0  0
   11.1004  -16.9878   20.1911 O   0  0  0  0  0  0  0  0  0  0  0  0
    6.5586  -13.2156   19.7700 C   0  0  0  0  0  0  0  0  0  0  0  0
    7.9915  -13.8021   20.0103 C   0  0  1  0  0  0  0  0  0  0  0  0
    8.7733  -12.6348   20.5150 C   0  0  0  0  0  0  0  0  0  0  0  0
    7.7635  -14.9127   20.9452 C   0  0  0  0  0  0  0  0  0  0  0  0
    8.8710  -15.7316   21.4656 C   0  0  2  0  0  0  0  0  0  0  0  0
    8.8451  -17.0710   20.8188 N   0  0  0  0  0  0  0  0  0  0  0  0
    8.9238  -16.0090   22.9138 C   0  0  0  0  0  0  0  0  0  0  0  0
    7.9222  -16.2419   23.6448 O   0  0  0  0  0  0  0  0  0  0  0  0
   10.1701  -16.0357   23.6347 N   0  0  0  0  0  0  0  0  0  0  0  0
   10.2664  -16.0534   25.0820 C   0  0  1  0  0  0  0  0  0  0  0  0
    9.9749  -14.7387   25.6845 C   0  0  0  0  0  0  0  0  0  0  0  0
    8.5311  -14.5058   25.8485 C   0  0  0  0  0  0  0  0  0  0  0  0
    7.4850  -15.4102   25.6483 C   0  0  0  0  0  0  0  0  0  0  0  0
    6.2970  -14.8193   25.8533 N   0  0  0  0  0  0  0  0  0  0  0  0
    6.5371  -13.5394   26.1867 C   0  0  0  0  0  0  0  0  0  0  0  0
    5.6556  -12.5131   26.5160 C   0  0  0  0  0  0  0  0  0  0  0  0
    6.2104  -11.2935   26.8420 C   0  0  0  0  0  0  0  0  0  0  0  0
    7.5631  -11.0687   26.8508 C   0  0  0  0  0  0  0  0  0  0  0  0
    8.4292  -12.0850   26.5240 C   0  0  0  0  0  0  0  0  0  0  0  0
    7.8883  -13.3166   26.1931 C   0  0  0  0  0  0  0  0  0  0  0  0
    9.5936  -17.1792   25.7099 C   0  0  0  0  0  0  0  0  0  0  0  0
    8.8372  -17.9654   25.1327 O   0  0  0  0  0  0  0  0  0  0  0  0
    9.8206  -17.3890   27.0768 O   0  0  0  0  0  0  0  0  0  0  0  0
  2  1  1  6
  2  3  1  0
  3  4  1  0
  5  4  1  0
  6  5  1  0
  7  6  1  0
  8  2  1  0
  9  8  2  0
 11 10  1  1
 11 13  1  0
 12 11  1  0
 14 13  1  1
 14 16  1  0
 14 15  1  0
 15  8  1  0
 16 17  2  0
 18 16  1  0
 18 19  1  0
 19 20  1  1
 20 21  1  0
 21 29  1  0
 22 21  2  0
 22 23  1  0
 23 24  1  0
 24 25  2  0
 25 26  1  0
 27 26  2  0
 28 27  1  0
 29 28  2  0
 29 24  1  0
 30 32  1  0
 30 19  1  0
 31 30  2  0
M  END
$$$$
