KLW.pdb
     RDKit          3D

 32 33  0  0  1  0  0  0  0  0999 V2000
    8.7961  -19.1155   20.1412 N   0  0  0  0  0  0  0  0  0  0  0  0
   10.1945  -18.7936   19.9038 C   0  0  1  0  0  0  0  0  0  0  0  0
   10.5102  -18.6842   18.4685 C   0  0  0  0  0  0  0  0  0  0  0  0
   10.3123  -19.8060   17.5537 C   0  0  0  0  0  0  0  0  0  0  0  0
   10.6738  -19.6376   16.1456 C   0  0  0  0  0  0  0  0  0  0  0  0
   10.3869  -20.7043   15.1689 C   0  0  0  0  0  0  0  0  0  0  0  0
   10.6373  -20.2972   13.7926 N   0  0  0  0  0  0  0  0  0  0  0  0
   10.4619  -17.3977   20.4815 C   0  0  0  0  0  0  0  0  0  0  0  0
   11.6207  -16.9169   20.4586 O   0  0  0  0  0  0  0  0  0  0  0  0
    6.4438  -13.4105   20.3573 C   0  0  0  0  0  0  0  0  0  0  0  0
    7.8383  -14.0638   20.0678 C   0  0  1  0  0  0  0  0  0  0  0  0
    8.6440  -12.9437   19.4977 C   0  0  0  0  0  0  0  0  0  0  0  0
    8.2548  -14.5941   21.3734 C   0  0  0  0  0  0  0  0  0  0  0  0
    9.5157  -15.3345   21.5461 C   0  0  2  0  0  0  0  0  0  0  0  0
    9.3557  -16.7175   21.0217 N   0  0  0  0  0  0  0  0  0  0  0  0
   10.0535  -15.5042   22.9096 C   0  0  0  0  0  0  0  0  0  0  0  0
   10.9701  -14.8036   23.4203 O   0  0  0  0  0  0  0  0  0  0  0  0
    9.5565  -16.5224   23.7984 N   0  0  0  0  0  0  0  0  0  0  0  0
    9.9831  -16.6704   25.1769 C   0  0  1  0  0  0  0  0  0  0  0  0
    9.7200  -15.4634   25.9833 C   0  0  0  0  0  0  0  0  0  0  0  0
    8.2841  -15.1549   26.0770 C   0  0  0  0  0  0  0  0  0  0  0  0
    7.2031  -16.0125   25.8570 C   0  0  0  0  0  0  0  0  0  0  0  0
    6.0388  -15.3578   25.9927 N   0  0  0  0  0  0  0  0  0  0  0  0
    6.3289  -14.0817   26.2997 C   0  0  0  0  0  0  0  0  0  0  0  0
    5.4871  -13.0037   26.5606 C   0  0  0  0  0  0  0  0  0  0  0  0
    6.0884  -11.8034   26.8757 C   0  0  0  0  0  0  0  0  0  0  0  0
    7.4492  -11.6452   26.9376 C   0  0  0  0  0  0  0  0  0  0  0  0
    8.2759  -12.7124   26.6782 C   0  0  0  0  0  0  0  0  0  0  0  0
    7.6881  -13.9256   26.3591 C   0  0  0  0  0  0  0  0  0  0  0  0
    9.5766  -17.9223   25.7949 C   0  0  0  0  0  0  0  0  0  0  0  0
    9.8303  -18.2555   26.9560 O   0  0  0  0  0  0  0  0  0  0  0  0
    8.8396  -18.8215   25.0125 O   0  0  0  0  0  0  0  0  0  0  0  0
  2  1  1  6
  2  3  1  0
  3  4  1  0
  5  4  1  0
  6  5  1  0
  7  6  1  0
  8  2  1  0
  9  8  2  0
 11 10  1  1
 11 13  1  0
 12 11  1  0
 14 13  1  1
 14 16  1  0
 14 15  1  0
 15  8  1  0
 16 17  2  0
 18 16  1  0
 18 19  1  0
 19 20  1  1
 20 21  1  0
 21 29  1  0
 22 21  2  0
 22 23  1  0
 23 24  1  0
 24 25  2  0
 25 26  1  0
 27 26  2  0
 28 27  1  0
 29 28  2  0
 29 24  1  0
 30 32  1  0
 30 19  1  0
 31 30  2  0
M  END
$$$$
