KLW.pdb
     RDKit          3D

 32 33  0  0  1  0  0  0  0  0999 V2000
    8.7082  -18.7958   20.3370 N   0  0  0  0  0  0  0  0  0  0  0  0
   10.0378  -18.3283   19.9777 C   0  0  1  0  0  0  0  0  0  0  0  0
   10.2013  -18.1631   18.5226 C   0  0  0  0  0  0  0  0  0  0  0  0
    9.9916  -19.2745   17.5978 C   0  0  0  0  0  0  0  0  0  0  0  0
   10.1763  -19.0416   16.1648 C   0  0  0  0  0  0  0  0  0  0  0  0
    9.9537  -20.1316   15.1970 C   0  0  0  0  0  0  0  0  0  0  0  0
   10.2933  -19.7567   13.8307 N   0  0  0  0  0  0  0  0  0  0  0  0
   10.2178  -16.9222   20.5645 C   0  0  0  0  0  0  0  0  0  0  0  0
   11.2578  -16.2645   20.3189 O   0  0  0  0  0  0  0  0  0  0  0  0
    6.1331  -13.3308   20.4698 C   0  0  0  0  0  0  0  0  0  0  0  0
    7.5997  -13.8559   20.3015 C   0  0  1  0  0  0  0  0  0  0  0  0
    8.3524  -12.6598   19.8202 C   0  0  0  0  0  0  0  0  0  0  0  0
    7.9418  -14.3735   21.6336 C   0  0  0  0  0  0  0  0  0  0  0  0
    9.2227  -15.0487   21.9007 C   0  0  2  0  0  0  0  0  0  0  0  0
    9.1720  -16.4379   21.3708 N   0  0  0  0  0  0  0  0  0  0  0  0
    9.6673  -15.1910   23.3003 C   0  0  0  0  0  0  0  0  0  0  0  0
   10.2709  -14.3035   23.9636 O   0  0  0  0  0  0  0  0  0  0  0  0
    9.4395  -16.4005   24.0479 N   0  0  0  0  0  0  0  0  0  0  0  0
    9.9605  -16.6369   25.3810 C   0  0  1  0  0  0  0  0  0  0  0  0
    8.8922  -16.8259   26.3806 C   0  0  0  0  0  0  0  0  0  0  0  0
    7.7716  -15.8921   26.1856 C   0  0  0  0  0  0  0  0  0  0  0  0
    6.5065  -16.1635   25.6582 C   0  0  0  0  0  0  0  0  0  0  0  0
    5.7656  -15.0456   25.5947 N   0  0  0  0  0  0  0  0  0  0  0  0
    6.5170  -14.0382   26.0714 C   0  0  0  0  0  0  0  0  0  0  0  0
    6.2148  -12.6892   26.2382 C   0  0  0  0  0  0  0  0  0  0  0  0
    7.1983  -11.8915   26.7841 C   0  0  0  0  0  0  0  0  0  0  0  0
    8.4273  -12.3730   27.1559 C   0  0  0  0  0  0  0  0  0  0  0  0
    8.7210  -13.7054   26.9883 C   0  0  0  0  0  0  0  0  0  0  0  0
    7.7443  -14.5208   26.4403 C   0  0  0  0  0  0  0  0  0  0  0  0
   11.0331  -17.6172   25.4359 C   0  0  0  0  0  0  0  0  0  0  0  0
   11.4463  -18.2714   24.4743 O   0  0  0  0  0  0  0  0  0  0  0  0
   11.6462  -17.8375   26.6767 O   0  0  0  0  0  0  0  0  0  0  0  0
  2  1  1  6
  2  3  1  0
  3  4  1  0
  5  4  1  0
  6  5  1  0
  7  6  1  0
  8  2  1  0
  9  8  2  0
 11 10  1  1
 11 13  1  0
 12 11  1  0
 14 13  1  1
 14 16  1  0
 14 15  1  0
 15  8  1  0
 16 17  2  0
 18 16  1  0
 18 19  1  0
 19 20  1  1
 20 21  1  0
 21 29  1  0
 22 21  2  0
 22 23  1  0
 23 24  1  0
 24 25  2  0
 25 26  1  0
 27 26  2  0
 28 27  1  0
 29 28  2  0
 29 24  1  0
 30 32  1  0
 30 19  1  0
 31 30  2  0
M  END
$$$$
