KLW.pdb
     RDKit          3D

 32 33  0  0  1  0  0  0  0  0999 V2000
    9.8972  -18.9964   20.0194 N   0  0  0  0  0  0  0  0  0  0  0  0
   11.1284  -18.2757   20.3028 C   0  0  1  0  0  0  0  0  0  0  0  0
   11.9104  -17.9985   19.0850 C   0  0  0  0  0  0  0  0  0  0  0  0
   12.3807  -19.0745   18.2160 C   0  0  0  0  0  0  0  0  0  0  0  0
   11.7357  -19.2614   16.9156 C   0  0  0  0  0  0  0  0  0  0  0  0
   12.2278  -20.2887   15.9794 C   0  0  0  0  0  0  0  0  0  0  0  0
   11.5643  -20.2411   14.6832 N   0  0  0  0  0  0  0  0  0  0  0  0
   10.7503  -16.8972   20.8600 C   0  0  0  0  0  0  0  0  0  0  0  0
   11.6153  -15.9922   20.9450 O   0  0  0  0  0  0  0  0  0  0  0  0
    8.4941  -12.6995   20.5328 C   0  0  0  0  0  0  0  0  0  0  0  0
    7.3759  -13.5175   21.2646 C   0  0  1  0  0  0  0  0  0  0  0  0
    6.1241  -13.1240   20.5527 C   0  0  0  0  0  0  0  0  0  0  0  0
    7.8160  -14.9129   21.1280 C   0  0  0  0  0  0  0  0  0  0  0  0
    8.9767  -15.4384   21.8660 C   0  0  2  0  0  0  0  0  0  0  0  0
    9.4121  -16.7240   21.2569 N   0  0  0  0  0  0  0  0  0  0  0  0
    8.8254  -15.7305   23.3043 C   0  0  0  0  0  0  0  0  0  0  0  0
    7.8009  -15.4708   23.9934 O   0  0  0  0  0  0  0  0  0  0  0  0
    9.8754  -16.3578   24.0642 N   0  0  0  0  0  0  0  0  0  0  0  0
   10.1266  -16.0923   25.4680 C   0  0  1  0  0  0  0  0  0  0  0  0
    8.9782  -16.4442   26.3246 C   0  0  0  0  0  0  0  0  0  0  0  0
    7.7972  -15.6109   26.0477 C   0  0  0  0  0  0  0  0  0  0  0  0
    6.6321  -15.9688   25.3646 C   0  0  0  0  0  0  0  0  0  0  0  0
    5.7934  -14.9246   25.2711 N   0  0  0  0  0  0  0  0  0  0  0  0
    6.3817  -13.8811   25.8809 C   0  0  0  0  0  0  0  0  0  0  0  0
    5.9280  -12.5795   26.0782 C   0  0  0  0  0  0  0  0  0  0  0  0
    6.7594  -11.7265   26.7730 C   0  0  0  0  0  0  0  0  0  0  0  0
    7.9823  -12.1108   27.2602 C   0  0  0  0  0  0  0  0  0  0  0  0
    8.4261  -13.3967   27.0620 C   0  0  0  0  0  0  0  0  0  0  0  0
    7.6033  -14.2664   26.3651 C   0  0  0  0  0  0  0  0  0  0  0  0
   11.4156  -16.5691   25.9429 C   0  0  0  0  0  0  0  0  0  0  0  0
   12.2429  -17.1778   25.2584 O   0  0  0  0  0  0  0  0  0  0  0  0
   11.7455  -16.3189   27.2817 O   0  0  0  0  0  0  0  0  0  0  0  0
  2  1  1  6
  2  3  1  0
  3  4  1  0
  5  4  1  0
  6  5  1  0
  7  6  1  0
  8  2  1  0
  9  8  2  0
 11 10  1  6
 11 13  1  0
 12 11  1  0
 14 13  1  6
 14 16  1  0
 14 15  1  0
 15  8  1  0
 16 17  2  0
 18 16  1  0
 18 19  1  0
 19 20  1  1
 20 21  1  0
 21 29  1  0
 22 21  2  0
 22 23  1  0
 23 24  1  0
 24 25  2  0
 25 26  1  0
 27 26  2  0
 28 27  1  0
 29 28  2  0
 29 24  1  0
 30 32  1  0
 30 19  1  0
 31 30  2  0
M  END
$$$$
