KLW.pdb
     RDKit          3D

 32 33  0  0  1  0  0  0  0  0999 V2000
    8.2610  -19.6125   20.4125 N   0  0  0  0  0  0  0  0  0  0  0  0
    9.5145  -19.5148   19.6814 C   0  0  1  0  0  0  0  0  0  0  0  0
    9.3788  -19.9328   18.2748 C   0  0  0  0  0  0  0  0  0  0  0  0
    8.1880  -19.6107   17.4922 C   0  0  0  0  0  0  0  0  0  0  0  0
    8.3304  -18.7511   16.3163 C   0  0  0  0  0  0  0  0  0  0  0  0
    7.1491  -18.3807   15.5153 C   0  0  0  0  0  0  0  0  0  0  0  0
    7.0389  -19.1434   14.2788 N   0  0  0  0  0  0  0  0  0  0  0  0
    9.9129  -18.0343   19.6239 C   0  0  0  0  0  0  0  0  0  0  0  0
   10.8238  -17.6558   18.8484 O   0  0  0  0  0  0  0  0  0  0  0  0
    6.4730  -13.3389   19.8947 C   0  0  0  0  0  0  0  0  0  0  0  0
    7.9775  -13.7031   19.6519 C   0  0  1  0  0  0  0  0  0  0  0  0
    8.7210  -12.5404   20.2213 C   0  0  0  0  0  0  0  0  0  0  0  0
    8.1379  -14.9986   20.3267 C   0  0  0  0  0  0  0  0  0  0  0  0
    9.4355  -15.6924   20.3808 C   0  0  2  0  0  0  0  0  0  0  0  0
    9.2108  -17.1601   20.4731 N   0  0  0  0  0  0  0  0  0  0  0  0
   10.3583  -15.3780   21.4884 C   0  0  0  0  0  0  0  0  0  0  0  0
   11.0990  -14.3584   21.5483 O   0  0  0  0  0  0  0  0  0  0  0  0
   10.4921  -16.2437   22.6313 N   0  0  0  0  0  0  0  0  0  0  0  0
   10.0299  -15.9013   23.9630 C   0  0  1  0  0  0  0  0  0  0  0  0
    8.9133  -14.9374   23.9440 C   0  0  0  0  0  0  0  0  0  0  0  0
    8.5700  -14.4517   25.2901 C   0  0  0  0  0  0  0  0  0  0  0  0
    9.0948  -14.8694   26.5158 C   0  0  0  0  0  0  0  0  0  0  0  0
    8.5012  -14.2258   27.5336 N   0  0  0  0  0  0  0  0  0  0  0  0
    7.5929  -13.3883   27.0042 C   0  0  0  0  0  0  0  0  0  0  0  0
    6.7299  -12.4869   27.6221 C   0  0  0  0  0  0  0  0  0  0  0  0
    5.9182  -11.7348   26.7993 C   0  0  0  0  0  0  0  0  0  0  0  0
    5.9353  -11.8453   25.4326 C   0  0  0  0  0  0  0  0  0  0  0  0
    6.7884  -12.7373   24.8274 C   0  0  0  0  0  0  0  0  0  0  0  0
    7.6103  -13.5015   25.6396 C   0  0  0  0  0  0  0  0  0  0  0  0
    9.8382  -17.0458   24.8394 C   0  0  0  0  0  0  0  0  0  0  0  0
    9.3011  -18.1078   24.5122 O   0  0  0  0  0  0  0  0  0  0  0  0
   10.2984  -16.9357   26.1585 O   0  0  0  0  0  0  0  0  0  0  0  0
  2  1  1  1
  2  3  1  0
  3  4  1  0
  5  4  1  0
  6  5  1  0
  7  6  1  0
  8  2  1  0
  9  8  2  0
 11 10  1  1
 11 13  1  0
 12 11  1  0
 14 13  1  1
 14 16  1  0
 14 15  1  0
 15  8  1  0
 16 17  2  0
 18 16  1  0
 18 19  1  0
 19 20  1  6
 20 21  1  0
 21 29  1  0
 22 21  2  0
 22 23  1  0
 23 24  1  0
 24 25  2  0
 25 26  1  0
 27 26  2  0
 28 27  1  0
 29 28  2  0
 29 24  1  0
 30 32  1  0
 30 19  1  0
 31 30  2  0
M  END
$$$$
