KLW.pdb
     RDKit          3D

 32 33  0  0  1  0  0  0  0  0999 V2000
    8.9306  -19.0024   20.3440 N   0  0  0  0  0  0  0  0  0  0  0  0
   10.2816  -18.5036   20.1405 C   0  0  1  0  0  0  0  0  0  0  0  0
   10.6037  -18.3189   18.7144 C   0  0  0  0  0  0  0  0  0  0  0  0
   10.5201  -19.4232   17.7616 C   0  0  0  0  0  0  0  0  0  0  0  0
   10.8672  -19.1727   16.3621 C   0  0  0  0  0  0  0  0  0  0  0  0
   10.8089  -20.2639   15.3721 C   0  0  0  0  0  0  0  0  0  0  0  0
    9.4752  -20.8333   15.2316 N   0  0  0  0  0  0  0  0  0  0  0  0
   10.3641  -17.1007   20.7560 C   0  0  0  0  0  0  0  0  0  0  0  0
   11.3942  -16.4018   20.5975 O   0  0  0  0  0  0  0  0  0  0  0  0
    5.9084  -13.8472   20.5973 C   0  0  0  0  0  0  0  0  0  0  0  0
    7.4064  -14.2601   20.3963 C   0  0  1  0  0  0  0  0  0  0  0  0
    8.0505  -13.0183   19.8750 C   0  0  0  0  0  0  0  0  0  0  0  0
    7.8232  -14.7254   21.7265 C   0  0  0  0  0  0  0  0  0  0  0  0
    9.1709  -15.2637   21.9755 C   0  0  2  0  0  0  0  0  0  0  0  0
    9.2434  -16.6671   21.4869 N   0  0  0  0  0  0  0  0  0  0  0  0
    9.6634  -15.3184   23.3652 C   0  0  0  0  0  0  0  0  0  0  0  0
   10.4259  -14.4665   23.8987 O   0  0  0  0  0  0  0  0  0  0  0  0
    9.2996  -16.3898   24.2560 N   0  0  0  0  0  0  0  0  0  0  0  0
   10.0196  -16.7076   25.4745 C   0  0  1  0  0  0  0  0  0  0  0  0
    9.2714  -16.3302   26.6886 C   0  0  0  0  0  0  0  0  0  0  0  0
    8.0515  -15.5671   26.3797 C   0  0  0  0  0  0  0  0  0  0  0  0
    6.8133  -16.0574   25.9568 C   0  0  0  0  0  0  0  0  0  0  0  0
    5.9533  -15.0514   25.7308 N   0  0  0  0  0  0  0  0  0  0  0  0
    6.5993  -13.9032   25.9972 C   0  0  0  0  0  0  0  0  0  0  0  0
    6.1547  -12.5849   25.9409 C   0  0  0  0  0  0  0  0  0  0  0  0
    7.0557  -11.6055   26.3023 C   0  0  0  0  0  0  0  0  0  0  0  0
    8.3374  -11.8835   26.7030 C   0  0  0  0  0  0  0  0  0  0  0  0
    8.7718  -13.1866   26.7560 C   0  0  0  0  0  0  0  0  0  0  0  0
    7.8793  -14.1828   26.3953 C   0  0  0  0  0  0  0  0  0  0  0  0
   10.5919  -18.0442   25.4967 C   0  0  0  0  0  0  0  0  0  0  0  0
   10.3882  -18.9173   24.6484 O   0  0  0  0  0  0  0  0  0  0  0  0
   11.4408  -18.3676   26.5638 O   0  0  0  0  0  0  0  0  0  0  0  0
  2  1  1  6
  2  3  1  0
  3  4  1  0
  5  4  1  0
  6  5  1  0
  7  6  1  0
  8  2  1  0
  9  8  2  0
 11 10  1  1
 11 13  1  0
 12 11  1  0
 14 13  1  1
 14 16  1  0
 14 15  1  0
 15  8  1  0
 16 17  2  0
 18 16  1  0
 18 19  1  0
 19 20  1  1
 20 21  1  0
 21 29  1  0
 22 21  2  0
 22 23  1  0
 23 24  1  0
 24 25  2  0
 25 26  1  0
 27 26  2  0
 28 27  1  0
 29 28  2  0
 29 24  1  0
 30 32  1  0
 30 19  1  0
 31 30  2  0
M  END
$$$$
