KLW.pdb
     RDKit          3D

 32 33  0  0  1  0  0  0  0  0999 V2000
    9.0428  -16.1345   19.1045 N   0  0  0  0  0  0  0  0  0  0  0  0
    8.3550  -16.7516   20.2277 C   0  0  1  0  0  0  0  0  0  0  0  0
    8.5194  -18.2158   20.2518 C   0  0  0  0  0  0  0  0  0  0  0  0
    8.7736  -18.9776   19.0313 C   0  0  0  0  0  0  0  0  0  0  0  0
    7.7236  -19.8605   18.5216 C   0  0  0  0  0  0  0  0  0  0  0  0
    7.8903  -20.5490   17.2285 C   0  0  0  0  0  0  0  0  0  0  0  0
    6.8045  -21.4745   16.9331 N   0  0  0  0  0  0  0  0  0  0  0  0
    9.0167  -16.2517   21.5184 C   0  0  0  0  0  0  0  0  0  0  0  0
   10.2445  -15.9937   21.5388 O   0  0  0  0  0  0  0  0  0  0  0  0
    6.1888  -13.3691   25.6819 C   0  0  0  0  0  0  0  0  0  0  0  0
    7.1192  -13.6575   24.4545 C   0  0  1  0  0  0  0  0  0  0  0  0
    8.0935  -12.5266   24.4738 C   0  0  0  0  0  0  0  0  0  0  0  0
    7.6462  -15.0028   24.7226 C   0  0  0  0  0  0  0  0  0  0  0  0
    8.7329  -15.5871   23.9191 C   0  0  2  0  0  0  0  0  0  0  0  0
    8.1802  -16.1083   22.6400 N   0  0  0  0  0  0  0  0  0  0  0  0
    9.5048  -16.7096   24.4858 C   0  0  0  0  0  0  0  0  0  0  0  0
    9.2269  -17.9309   24.3339 O   0  0  0  0  0  0  0  0  0  0  0  0
   10.6802  -16.4914   25.2886 N   0  0  0  0  0  0  0  0  0  0  0  0
   11.5297  -17.5576   25.7844 C   0  0  1  0  0  0  0  0  0  0  0  0
   12.5426  -17.0749   26.7421 C   0  0  0  0  0  0  0  0  0  0  0  0
   11.9551  -16.7071   28.0403 C   0  0  0  0  0  0  0  0  0  0  0  0
   11.8845  -17.4788   29.2030 C   0  0  0  0  0  0  0  0  0  0  0  0
   11.2334  -16.8199   30.1748 N   0  0  0  0  0  0  0  0  0  0  0  0
   10.8719  -15.6247   29.6771 C   0  0  0  0  0  0  0  0  0  0  0  0
   10.1961  -14.5655   30.2772 C   0  0  0  0  0  0  0  0  0  0  0  0
    9.9885  -13.4403   29.5075 C   0  0  0  0  0  0  0  0  0  0  0  0
   10.4150  -13.3373   28.2082 C   0  0  0  0  0  0  0  0  0  0  0  0
   11.0810  -14.3862   27.6200 C   0  0  0  0  0  0  0  0  0  0  0  0
   11.2970  -15.5246   28.3792 C   0  0  0  0  0  0  0  0  0  0  0  0
   10.8078  -18.7485   26.2026 C   0  0  0  0  0  0  0  0  0  0  0  0
    9.5890  -18.8110   26.3877 O   0  0  0  0  0  0  0  0  0  0  0  0
   11.5524  -19.9171   26.4123 O   0  0  0  0  0  0  0  0  0  0  0  0
  2  1  1  6
  2  3  1  0
  3  4  1  0
  5  4  1  0
  6  5  1  0
  7  6  1  0
  8  2  1  0
  9  8  2  0
 11 10  1  1
 11 13  1  0
 12 11  1  0
 14 13  1  1
 14 16  1  0
 14 15  1  0
 15  8  1  0
 16 17  2  0
 18 16  1  0
 18 19  1  0
 19 20  1  1
 20 21  1  0
 21 29  1  0
 22 21  2  0
 22 23  1  0
 23 24  1  0
 24 25  2  0
 25 26  1  0
 27 26  2  0
 28 27  1  0
 29 28  2  0
 29 24  1  0
 30 32  1  0
 30 19  1  0
 31 30  2  0
M  END
$$$$
