KLW.pdb
     RDKit          3D

 32 33  0  0  1  0  0  0  0  0999 V2000
    8.0051  -18.8886   20.6022 N   0  0  0  0  0  0  0  0  0  0  0  0
    9.3245  -18.7517   20.0056 C   0  0  1  0  0  0  0  0  0  0  0  0
    9.2739  -18.7080   18.5335 C   0  0  0  0  0  0  0  0  0  0  0  0
    8.6527  -19.7782   17.7570 C   0  0  0  0  0  0  0  0  0  0  0  0
    8.6317  -19.6676   16.2978 C   0  0  0  0  0  0  0  0  0  0  0  0
    7.9468  -20.6871   15.4820 C   0  0  0  0  0  0  0  0  0  0  0  0
    7.9136  -20.3525   14.0644 N   0  0  0  0  0  0  0  0  0  0  0  0
    9.8946  -17.3916   20.4286 C   0  0  0  0  0  0  0  0  0  0  0  0
   10.9965  -17.0003   19.9735 O   0  0  0  0  0  0  0  0  0  0  0  0
    6.6031  -13.2093   20.5091 C   0  0  0  0  0  0  0  0  0  0  0  0
    7.8348  -14.1299   20.2079 C   0  0  1  0  0  0  0  0  0  0  0  0
    8.6120  -13.3622   19.1905 C   0  0  0  0  0  0  0  0  0  0  0  0
    8.4585  -14.3228   21.5245 C   0  0  0  0  0  0  0  0  0  0  0  0
    9.5627  -15.2748   21.7303 C   0  0  2  0  0  0  0  0  0  0  0  0
    9.1231  -16.6392   21.3325 N   0  0  0  0  0  0  0  0  0  0  0  0
   10.1136  -15.4335   23.0899 C   0  0  0  0  0  0  0  0  0  0  0  0
   10.9351  -14.6470   23.6361 O   0  0  0  0  0  0  0  0  0  0  0  0
    9.7437  -16.5413   23.9322 N   0  0  0  0  0  0  0  0  0  0  0  0
   10.1759  -16.6894   25.3090 C   0  0  1  0  0  0  0  0  0  0  0  0
    9.8321  -15.5191   26.1389 C   0  0  0  0  0  0  0  0  0  0  0  0
    8.4100  -15.1557   26.0323 C   0  0  0  0  0  0  0  0  0  0  0  0
    7.3333  -15.9809   25.6974 C   0  0  0  0  0  0  0  0  0  0  0  0
    6.1888  -15.2802   25.6579 N   0  0  0  0  0  0  0  0  0  0  0  0
    6.4876  -14.0053   25.9616 C   0  0  0  0  0  0  0  0  0  0  0  0
    5.6633  -12.8889   26.0760 C   0  0  0  0  0  0  0  0  0  0  0  0
    6.2662  -11.7008   26.4312 C   0  0  0  0  0  0  0  0  0  0  0  0
    7.6125  -11.5899   26.6677 C   0  0  0  0  0  0  0  0  0  0  0  0
    8.4221  -12.6948   26.5526 C   0  0  0  0  0  0  0  0  0  0  0  0
    7.8325  -13.8964   26.1956 C   0  0  0  0  0  0  0  0  0  0  0  0
    9.8511  -17.9777   25.8999 C   0  0  0  0  0  0  0  0  0  0  0  0
    9.1166  -18.8277   25.3887 O   0  0  0  0  0  0  0  0  0  0  0  0
   10.4151  -18.2790   27.1469 O   0  0  0  0  0  0  0  0  0  0  0  0
  2  1  1  1
  2  3  1  0
  3  4  1  0
  5  4  1  0
  6  5  1  0
  7  6  1  0
  8  2  1  0
  9  8  2  0
 11 10  1  1
 11 13  1  0
 12 11  1  0
 14 13  1  1
 14 16  1  0
 14 15  1  0
 15  8  1  0
 16 17  2  0
 18 16  1  0
 18 19  1  0
 19 20  1  1
 20 21  1  0
 21 29  1  0
 22 21  2  0
 22 23  1  0
 23 24  1  0
 24 25  2  0
 25 26  1  0
 27 26  2  0
 28 27  1  0
 29 28  2  0
 29 24  1  0
 30 32  1  0
 30 19  1  0
 31 30  2  0
M  END
$$$$
