KLW.pdb
     RDKit          3D

 32 33  0  0  1  0  0  0  0  0999 V2000
    8.6892  -18.6021   20.0981 N   0  0  0  0  0  0  0  0  0  0  0  0
   10.0646  -18.1579   19.9358 C   0  0  1  0  0  0  0  0  0  0  0  0
   10.4306  -17.9678   18.5211 C   0  0  0  0  0  0  0  0  0  0  0  0
    9.4199  -17.7205   17.4956 C   0  0  0  0  0  0  0  0  0  0  0  0
    9.8435  -17.6307   16.0977 C   0  0  0  0  0  0  0  0  0  0  0  0
    9.1663  -16.7052   15.1708 C   0  0  0  0  0  0  0  0  0  0  0  0
    9.7291  -16.7333   13.8273 N   0  0  0  0  0  0  0  0  0  0  0  0
   10.1897  -16.7680   20.5734 C   0  0  0  0  0  0  0  0  0  0  0  0
   11.3022  -16.1890   20.6109 O   0  0  0  0  0  0  0  0  0  0  0  0
    6.4782  -12.7716   19.7164 C   0  0  0  0  0  0  0  0  0  0  0  0
    7.8357  -13.5514   19.7808 C   0  0  1  0  0  0  0  0  0  0  0  0
    8.8538  -12.5237   19.4120 C   0  0  0  0  0  0  0  0  0  0  0  0
    7.8752  -14.0736   21.1539 C   0  0  0  0  0  0  0  0  0  0  0  0
    9.0290  -14.8323   21.6649 C   0  0  2  0  0  0  0  0  0  0  0  0
    9.0108  -16.2071   21.0967 N   0  0  0  0  0  0  0  0  0  0  0  0
    9.1582  -15.0242   23.1221 C   0  0  0  0  0  0  0  0  0  0  0  0
    8.7702  -14.2042   23.9990 O   0  0  0  0  0  0  0  0  0  0  0  0
    9.7611  -16.2071   23.6796 N   0  0  0  0  0  0  0  0  0  0  0  0
    9.9684  -16.4159   25.1001 C   0  0  1  0  0  0  0  0  0  0  0  0
    8.7548  -16.9024   25.7834 C   0  0  0  0  0  0  0  0  0  0  0  0
    7.6359  -15.9519   25.6814 C   0  0  0  0  0  0  0  0  0  0  0  0
    6.4249  -16.1172   25.0043 C   0  0  0  0  0  0  0  0  0  0  0  0
    5.6696  -15.0112   25.0995 N   0  0  0  0  0  0  0  0  0  0  0  0
    6.3583  -14.1161   25.8284 C   0  0  0  0  0  0  0  0  0  0  0  0
    6.0163  -12.8280   26.2319 C   0  0  0  0  0  0  0  0  0  0  0  0
    6.9346  -12.1515   27.0068 C   0  0  0  0  0  0  0  0  0  0  0  0
    8.1377  -12.6934   27.3801 C   0  0  0  0  0  0  0  0  0  0  0  0
    8.4710  -13.9651   26.9784 C   0  0  0  0  0  0  0  0  0  0  0  0
    7.5599  -14.6585   26.1986 C   0  0  0  0  0  0  0  0  0  0  0  0
   11.1872  -17.1398   25.4239 C   0  0  0  0  0  0  0  0  0  0  0  0
   11.9537  -17.6438   24.5982 O   0  0  0  0  0  0  0  0  0  0  0  0
   11.5185  -17.2768   26.7787 O   0  0  0  0  0  0  0  0  0  0  0  0
  2  1  1  6
  2  3  1  0
  3  4  1  0
  5  4  1  0
  6  5  1  0
  7  6  1  0
  8  2  1  0
  9  8  2  0
 11 10  1  1
 11 13  1  0
 12 11  1  0
 14 13  1  1
 14 16  1  0
 14 15  1  0
 15  8  1  0
 16 17  2  0
 18 16  1  0
 18 19  1  0
 19 20  1  6
 20 21  1  0
 21 29  1  0
 22 21  2  0
 22 23  1  0
 23 24  1  0
 24 25  2  0
 25 26  1  0
 27 26  2  0
 28 27  1  0
 29 28  2  0
 29 24  1  0
 30 32  1  0
 30 19  1  0
 31 30  2  0
M  END
$$$$
