KLW.pdb
     RDKit          3D

 32 33  0  0  1  0  0  0  0  0999 V2000
   10.0725  -17.9712   17.7087 N   0  0  0  0  0  0  0  0  0  0  0  0
    9.5996  -18.3445   19.0325 C   0  0  1  0  0  0  0  0  0  0  0  0
   10.3420  -19.4875   19.5929 C   0  0  0  0  0  0  0  0  0  0  0  0
   10.4652  -20.7497   18.8677 C   0  0  0  0  0  0  0  0  0  0  0  0
   11.0509  -21.9015   19.5549 C   0  0  0  0  0  0  0  0  0  0  0  0
   11.1853  -23.1954   18.8607 C   0  0  0  0  0  0  0  0  0  0  0  0
    9.9186  -23.6983   18.3456 N   0  0  0  0  0  0  0  0  0  0  0  0
    9.8858  -17.1746   19.9829 C   0  0  0  0  0  0  0  0  0  0  0  0
   11.0237  -16.6465   20.0085 O   0  0  0  0  0  0  0  0  0  0  0  0
    6.3052  -13.1524   20.2659 C   0  0  0  0  0  0  0  0  0  0  0  0
    7.6868  -13.8772   20.1213 C   0  0  1  0  0  0  0  0  0  0  0  0
    8.6501  -12.7618   19.8834 C   0  0  0  0  0  0  0  0  0  0  0  0
    7.8231  -14.6258   21.3785 C   0  0  0  0  0  0  0  0  0  0  0  0
    8.9620  -15.5248   21.6291 C   0  0  2  0  0  0  0  0  0  0  0  0
    8.8204  -16.7499   20.7970 N   0  0  0  0  0  0  0  0  0  0  0  0
    9.1816  -16.0200   23.0016 C   0  0  0  0  0  0  0  0  0  0  0  0
    8.7335  -17.1061   23.4613 O   0  0  0  0  0  0  0  0  0  0  0  0
    9.9533  -15.2737   23.9614 N   0  0  0  0  0  0  0  0  0  0  0  0
   10.2667  -15.7526   25.2944 C   0  0  1  0  0  0  0  0  0  0  0  0
    9.0880  -16.3046   25.9889 C   0  0  0  0  0  0  0  0  0  0  0  0
    7.9204  -15.4127   25.9051 C   0  0  0  0  0  0  0  0  0  0  0  0
    6.6626  -15.6897   25.3632 C   0  0  0  0  0  0  0  0  0  0  0  0
    5.8671  -14.6100   25.4264 N   0  0  0  0  0  0  0  0  0  0  0  0
    6.5751  -13.6225   26.0014 C   0  0  0  0  0  0  0  0  0  0  0  0
    6.2098  -12.3158   26.3143 C   0  0  0  0  0  0  0  0  0  0  0  0
    7.1608  -11.5323   26.9333 C   0  0  0  0  0  0  0  0  0  0  0  0
    8.4171  -11.9884   27.2403 C   0  0  0  0  0  0  0  0  0  0  0  0
    8.7732  -13.2790   26.9284 C   0  0  0  0  0  0  0  0  0  0  0  0
    7.8297  -14.0794   26.3053 C   0  0  0  0  0  0  0  0  0  0  0  0
   11.4627  -16.5765   25.3652 C   0  0  0  0  0  0  0  0  0  0  0  0
   11.9039  -17.0998   26.3923 O   0  0  0  0  0  0  0  0  0  0  0  0
   12.1706  -16.7942   24.1755 O   0  0  0  0  0  0  0  0  0  0  0  0
  2  1  1  6
  2  3  1  0
  3  4  1  0
  5  4  1  0
  6  5  1  0
  7  6  1  0
  8  2  1  0
  9  8  2  0
 11 10  1  1
 11 13  1  0
 12 11  1  0
 14 13  1  1
 14 16  1  0
 14 15  1  0
 15  8  1  0
 16 17  2  0
 18 16  1  0
 18 19  1  0
 19 20  1  6
 20 21  1  0
 21 29  1  0
 22 21  2  0
 22 23  1  0
 23 24  1  0
 24 25  2  0
 25 26  1  0
 27 26  2  0
 28 27  1  0
 29 28  2  0
 29 24  1  0
 30 32  1  0
 30 19  1  0
 31 30  2  0
M  END
$$$$
