KLW.pdb
     RDKit          3D

 32 33  0  0  1  0  0  0  0  0999 V2000
    9.0241  -18.8803   20.1219 N   0  0  0  0  0  0  0  0  0  0  0  0
   10.1515  -18.1919   19.5131 C   0  0  1  0  0  0  0  0  0  0  0  0
    9.9279  -17.9005   18.0860 C   0  0  0  0  0  0  0  0  0  0  0  0
    9.5412  -18.9469   17.1426 C   0  0  0  0  0  0  0  0  0  0  0  0
    9.3267  -18.5859   15.7407 C   0  0  0  0  0  0  0  0  0  0  0  0
    8.8464  -19.5924   14.7761 C   0  0  0  0  0  0  0  0  0  0  0  0
    9.6218  -20.8255   14.8078 N   0  0  0  0  0  0  0  0  0  0  0  0
   10.2862  -16.8202   20.1869 C   0  0  0  0  0  0  0  0  0  0  0  0
   11.1864  -16.0248   19.8241 O   0  0  0  0  0  0  0  0  0  0  0  0
    6.0973  -13.5404   20.8048 C   0  0  0  0  0  0  0  0  0  0  0  0
    7.5522  -14.0156   20.4693 C   0  0  1  0  0  0  0  0  0  0  0  0
    8.2219  -12.7804   19.9647 C   0  0  0  0  0  0  0  0  0  0  0  0
    8.0401  -14.5737   21.7381 C   0  0  0  0  0  0  0  0  0  0  0  0
    9.3729  -15.1881   21.8565 C   0  0  2  0  0  0  0  0  0  0  0  0
    9.3627  -16.5261   21.2062 N   0  0  0  0  0  0  0  0  0  0  0  0
    9.9241  -15.4241   23.2046 C   0  0  0  0  0  0  0  0  0  0  0  0
   11.0107  -14.9507   23.6372 O   0  0  0  0  0  0  0  0  0  0  0  0
    9.2397  -16.2454   24.1694 N   0  0  0  0  0  0  0  0  0  0  0  0
    9.7954  -16.6114   25.4584 C   0  0  1  0  0  0  0  0  0  0  0  0
    8.7801  -16.6264   26.5285 C   0  0  0  0  0  0  0  0  0  0  0  0
    7.6411  -15.7429   26.2320 C   0  0  0  0  0  0  0  0  0  0  0  0
    6.4256  -16.0780   25.6296 C   0  0  0  0  0  0  0  0  0  0  0  0
    5.6495  -14.9922   25.4840 N   0  0  0  0  0  0  0  0  0  0  0  0
    6.3286  -13.9435   25.9799 C   0  0  0  0  0  0  0  0  0  0  0  0
    5.9657  -12.6035   26.0865 C   0  0  0  0  0  0  0  0  0  0  0  0
    6.8794  -11.7533   26.6729 C   0  0  0  0  0  0  0  0  0  0  0  0
    8.0976  -12.1760   27.1397 C   0  0  0  0  0  0  0  0  0  0  0  0
    8.4516  -13.4999   27.0313 C   0  0  0  0  0  0  0  0  0  0  0  0
    7.5453  -14.3674   26.4438 C   0  0  0  0  0  0  0  0  0  0  0  0
   10.6668  -17.7749   25.4226 C   0  0  0  0  0  0  0  0  0  0  0  0
   10.8101  -18.5244   24.4524 O   0  0  0  0  0  0  0  0  0  0  0  0
   11.4018  -18.0695   26.5789 O   0  0  0  0  0  0  0  0  0  0  0  0
  2  1  1  1
  2  3  1  0
  3  4  1  0
  5  4  1  0
  6  5  1  0
  7  6  1  0
  8  2  1  0
  9  8  2  0
 11 10  1  1
 11 13  1  0
 12 11  1  0
 14 13  1  1
 14 16  1  0
 14 15  1  0
 15  8  1  0
 16 17  2  0
 18 16  1  0
 18 19  1  0
 19 20  1  1
 20 21  1  0
 21 29  1  0
 22 21  2  0
 22 23  1  0
 23 24  1  0
 24 25  2  0
 25 26  1  0
 27 26  2  0
 28 27  1  0
 29 28  2  0
 29 24  1  0
 30 32  1  0
 30 19  1  0
 31 30  2  0
M  END
$$$$
