KLW.pdb
     RDKit          3D

 32 33  0  0  1  0  0  0  0  0999 V2000
    8.7084  -19.6005   20.7265 N   0  0  0  0  0  0  0  0  0  0  0  0
    9.9515  -19.1033   20.1582 C   0  0  1  0  0  0  0  0  0  0  0  0
    9.9895  -19.2317   18.6907 C   0  0  0  0  0  0  0  0  0  0  0  0
    9.6048  -20.4716   18.0206 C   0  0  0  0  0  0  0  0  0  0  0  0
    9.6245  -20.5161   16.5579 C   0  0  0  0  0  0  0  0  0  0  0  0
    9.1844  -21.7279   15.8424 C   0  0  0  0  0  0  0  0  0  0  0  0
   10.1076  -22.8447   15.9946 N   0  0  0  0  0  0  0  0  0  0  0  0
   10.0253  -17.5954   20.4316 C   0  0  0  0  0  0  0  0  0  0  0  0
   10.9445  -16.9069   19.9263 O   0  0  0  0  0  0  0  0  0  0  0  0
    8.1796  -12.9770   20.2468 C   0  0  0  0  0  0  0  0  0  0  0  0
    7.3441  -13.6347   21.3977 C   0  0  1  0  0  0  0  0  0  0  0  0
    5.9424  -13.2124   21.1052 C   0  0  0  0  0  0  0  0  0  0  0  0
    7.6526  -15.0667   21.2807 C   0  0  0  0  0  0  0  0  0  0  0  0
    9.0008  -15.5963   21.5449 C   0  0  2  0  0  0  0  0  0  0  0  0
    9.0254  -17.0565   21.2611 N   0  0  0  0  0  0  0  0  0  0  0  0
    9.5575  -15.4632   22.9048 C   0  0  0  0  0  0  0  0  0  0  0  0
   10.2503  -14.4911   23.3132 O   0  0  0  0  0  0  0  0  0  0  0  0
    9.3467  -16.4713   23.9113 N   0  0  0  0  0  0  0  0  0  0  0  0
    9.9736  -16.4510   25.2193 C   0  0  1  0  0  0  0  0  0  0  0  0
    8.9916  -16.5141   26.3184 C   0  0  0  0  0  0  0  0  0  0  0  0
    7.8754  -15.5744   26.1264 C   0  0  0  0  0  0  0  0  0  0  0  0
    6.5647  -15.8625   25.7375 C   0  0  0  0  0  0  0  0  0  0  0  0
    5.8415  -14.7369   25.6254 N   0  0  0  0  0  0  0  0  0  0  0  0
    6.6494  -13.7079   25.9339 C   0  0  0  0  0  0  0  0  0  0  0  0
    6.3874  -12.3415   25.9900 C   0  0  0  0  0  0  0  0  0  0  0  0
    7.4288  -11.5206   26.3684 C   0  0  0  0  0  0  0  0  0  0  0  0
    8.6764  -11.9959   26.6813 C   0  0  0  0  0  0  0  0  0  0  0  0
    8.9303  -13.3457   26.6235 C   0  0  0  0  0  0  0  0  0  0  0  0
    7.8951  -14.1845   26.2442 C   0  0  0  0  0  0  0  0  0  0  0  0
   11.1031  -17.3571   25.3524 C   0  0  0  0  0  0  0  0  0  0  0  0
   11.4807  -18.1521   24.4870 O   0  0  0  0  0  0  0  0  0  0  0  0
   11.8195  -17.3266   26.5565 O   0  0  0  0  0  0  0  0  0  0  0  0
  2  1  1  6
  2  3  1  0
  3  4  1  0
  5  4  1  0
  6  5  1  0
  7  6  1  0
  8  2  1  0
  9  8  2  0
 11 10  1  6
 11 13  1  0
 12 11  1  0
 14 13  1  1
 14 16  1  0
 14 15  1  0
 15  8  1  0
 16 17  2  0
 18 16  1  0
 18 19  1  0
 19 20  1  1
 20 21  1  0
 21 29  1  0
 22 21  2  0
 22 23  1  0
 23 24  1  0
 24 25  2  0
 25 26  1  0
 27 26  2  0
 28 27  1  0
 29 28  2  0
 29 24  1  0
 30 32  1  0
 30 19  1  0
 31 30  2  0
M  END
$$$$
