CLI.pdb
     RDKit          3D

 23 22  0  0  1  0  0  0  0  0999 V2000
    6.5227  -19.4678   21.3453 N   0  0  0  0  0  0  0  0  0  0  0  0
    6.3982  -18.3675   22.2476 C   0  0  1  0  0  0  0  0  0  0  0  0
    6.2685  -18.9079   23.6563 C   0  0  0  0  0  0  0  0  0  0  0  0
    5.7933  -17.6277   24.8156 S   0  0  0  0  0  0  0  0  0  0  0  0
    7.5845  -17.4629   22.1934 C   0  0  0  0  0  0  0  0  0  0  0  0
    8.7569  -17.9149   22.2016 O   0  0  0  0  0  0  0  0  0  0  0  0
    8.5955  -14.3137   19.3246 C   0  0  0  0  0  0  0  0  0  0  0  0
    7.3347  -14.0030   20.1594 C   0  0  2  0  0  0  0  0  0  0  0  0
    6.6468  -12.8185   19.5191 C   0  0  0  0  0  0  0  0  0  0  0  0
    7.7737  -13.6980   21.5715 C   0  0  0  0  0  0  0  0  0  0  0  0
    8.2748  -15.0140   22.1839 C   0  0  2  0  0  0  0  0  0  0  0  0
    7.3333  -16.0757   22.1323 N   0  0  0  0  0  0  0  0  0  0  0  0
    8.9908  -14.8401   23.4328 C   0  0  0  0  0  0  0  0  0  0  0  0
   10.2205  -14.4810   23.4863 O   0  0  0  0  0  0  0  0  0  0  0  0
    6.2030  -12.0888   26.4684 C   0  0  0  0  0  0  0  0  0  0  0  0
    7.3755  -12.7626   25.7577 C   0  0  0  0  0  0  0  0  0  0  0  0
    7.9540  -13.8057   26.6612 C   0  0  2  0  0  0  0  0  0  0  0  0
    8.6377  -13.1508   27.8506 C   0  0  0  0  0  0  0  0  0  0  0  0
    8.9276  -14.7051   25.9502 C   0  0  2  0  0  0  0  0  0  0  0  0
    8.3372  -15.0663   24.6724 N   0  0  0  0  0  0  0  0  0  0  0  0
    9.3539  -15.8501   26.7355 C   0  0  0  0  0  0  0  0  0  0  0  0
   10.3317  -15.7235   27.6989 O   0  0  0  0  0  0  0  0  0  0  0  0
    8.8402  -16.9739   26.5512 O   0  0  0  0  0  0  0  0  0  0  0  0
  2  3  1  0
  2  1  1  6
  3  4  1  0
  5  2  1  0
  6  5  2  0
  8  7  1  6
  8 10  1  0
  9  8  1  0
 11 10  1  1
 11 12  1  0
 12  5  1  0
 13 11  1  0
 13 20  1  0
 14 13  2  0
 15 16  1  0
 16 17  1  0
 17 19  1  0
 17 18  1  1
 19 20  1  6
 19 21  1  0
 21 22  1  0
 23 21  2  0
M  END
$$$$
