CLI.pdb
     RDKit          3D

 23 22  0  0  1  0  0  0  0  0999 V2000
    6.2065  -19.6115   22.3949 N   0  0  0  0  0  0  0  0  0  0  0  0
    5.9729  -18.2270   22.6575 C   0  0  1  0  0  0  0  0  0  0  0  0
    5.5763  -18.0692   24.1104 C   0  0  0  0  0  0  0  0  0  0  0  0
    6.8080  -18.7607   25.2120 S   0  0  0  0  0  0  0  0  0  0  0  0
    7.1876  -17.3971   22.4040 C   0  0  0  0  0  0  0  0  0  0  0  0
    8.3333  -17.9099   22.3431 O   0  0  0  0  0  0  0  0  0  0  0  0
    9.0306  -14.2114   19.5880 C   0  0  0  0  0  0  0  0  0  0  0  0
    7.5600  -13.9732   19.9925 C   0  0  2  0  0  0  0  0  0  0  0  0
    7.0565  -12.7897   19.1974 C   0  0  0  0  0  0  0  0  0  0  0  0
    7.5224  -13.7051   21.4779 C   0  0  0  0  0  0  0  0  0  0  0  0
    7.9821  -14.9902   22.1815 C   0  0  2  0  0  0  0  0  0  0  0  0
    6.9949  -16.0095   22.2352 N   0  0  0  0  0  0  0  0  0  0  0  0
    8.7366  -14.7513   23.3966 C   0  0  0  0  0  0  0  0  0  0  0  0
    9.8930  -14.1974   23.4006 O   0  0  0  0  0  0  0  0  0  0  0  0
    6.0091  -12.2196   26.5925 C   0  0  0  0  0  0  0  0  0  0  0  0
    7.1484  -12.8706   25.8100 C   0  0  0  0  0  0  0  0  0  0  0  0
    7.7883  -13.9167   26.6674 C   0  0  2  0  0  0  0  0  0  0  0  0
    8.4388  -13.2752   27.8824 C   0  0  0  0  0  0  0  0  0  0  0  0
    8.8081  -14.7289   25.9173 C   0  0  2  0  0  0  0  0  0  0  0  0
    8.2064  -15.1315   24.6572 N   0  0  0  0  0  0  0  0  0  0  0  0
    9.3540  -15.8385   26.6790 C   0  0  0  0  0  0  0  0  0  0  0  0
    9.0989  -17.1425   26.3123 O   0  0  0  0  0  0  0  0  0  0  0  0
   10.0669  -15.6299   27.6836 O   0  0  0  0  0  0  0  0  0  0  0  0
  2  3  1  0
  2  1  1  1
  3  4  1  0
  5  2  1  0
  6  5  2  0
  8  7  1  6
  8 10  1  0
  9  8  1  0
 11 10  1  1
 11 12  1  0
 12  5  1  0
 13 11  1  0
 13 20  1  0
 14 13  2  0
 15 16  1  0
 16 17  1  0
 17 19  1  0
 17 18  1  1
 19 20  1  6
 19 21  1  0
 21 22  1  0
 23 21  2  0
M  END
$$$$
