CLI.pdb
     RDKit          3D

 23 22  0  0  1  0  0  0  0  0999 V2000
   10.6475  -16.3887   19.8879 N   0  0  0  0  0  0  0  0  0  0  0  0
    9.5659  -16.6479   20.7842 C   0  0  1  0  0  0  0  0  0  0  0  0
    9.5201  -18.1340   21.0718 C   0  0  0  0  0  0  0  0  0  0  0  0
    8.8982  -19.0607   19.6706 S   0  0  0  0  0  0  0  0  0  0  0  0
    9.7241  -15.9188   22.0772 C   0  0  0  0  0  0  0  0  0  0  0  0
   10.8583  -15.6272   22.5331 O   0  0  0  0  0  0  0  0  0  0  0  0
    5.7698  -13.4144   26.2449 C   0  0  0  0  0  0  0  0  0  0  0  0
    7.1803  -13.6526   25.6647 C   0  0  2  0  0  0  0  0  0  0  0  0
    7.7853  -12.2982   25.3715 C   0  0  0  0  0  0  0  0  0  0  0  0
    7.0352  -14.4827   24.4118 C   0  0  0  0  0  0  0  0  0  0  0  0
    8.4219  -15.0558   24.0855 C   0  0  2  0  0  0  0  0  0  0  0  0
    8.5440  -15.5698   22.7674 N   0  0  0  0  0  0  0  0  0  0  0  0
    8.9854  -15.8608   25.1519 C   0  0  0  0  0  0  0  0  0  0  0  0
    8.9277  -17.1416   25.1625 O   0  0  0  0  0  0  0  0  0  0  0  0
   10.3429  -12.8835   29.4873 C   0  0  0  0  0  0  0  0  0  0  0  0
   10.7470  -13.7592   28.3025 C   0  0  0  0  0  0  0  0  0  0  0  0
   10.2706  -15.1561   28.5487 C   0  0  2  0  0  0  0  0  0  0  0  0
   11.1124  -15.8162   29.6287 C   0  0  0  0  0  0  0  0  0  0  0  0
   10.2946  -15.9987   27.3029 C   0  0  2  0  0  0  0  0  0  0  0  0
    9.6388  -15.2420   26.2497 N   0  0  0  0  0  0  0  0  0  0  0  0
    9.7491  -17.3327   27.4831 C   0  0  0  0  0  0  0  0  0  0  0  0
   10.5781  -18.4303   27.5737 O   0  0  0  0  0  0  0  0  0  0  0  0
    8.5147  -17.5096   27.5593 O   0  0  0  0  0  0  0  0  0  0  0  0
  2  3  1  0
  2  1  1  6
  3  4  1  0
  5  2  1  0
  6  5  2  0
  8  7  1  6
  8 10  1  0
  9  8  1  0
 11 10  1  1
 11 12  1  0
 12  5  1  0
 13 11  1  0
 13 20  1  0
 14 13  2  0
 15 16  1  0
 16 17  1  0
 17 19  1  0
 17 18  1  1
 19 20  1  6
 19 21  1  0
 21 22  1  0
 23 21  2  0
M  END
$$$$
