CLI.pdb
     RDKit          3D

 23 22  0  0  1  0  0  0  0  0999 V2000
    6.9596  -19.7085   21.3214 N   0  0  0  0  0  0  0  0  0  0  0  0
    6.6610  -18.5798   22.1444 C   0  0  1  0  0  0  0  0  0  0  0  0
    6.4645  -19.0564   23.5683 C   0  0  0  0  0  0  0  0  0  0  0  0
    5.8338  -17.7524   24.6221 S   0  0  0  0  0  0  0  0  0  0  0  0
    7.7603  -17.5700   22.1290 C   0  0  0  0  0  0  0  0  0  0  0  0
    8.9681  -17.9121   22.1862 O   0  0  0  0  0  0  0  0  0  0  0  0
    8.8802  -14.1471   19.4431 C   0  0  0  0  0  0  0  0  0  0  0  0
    7.4658  -14.0341   20.0511 C   0  0  2  0  0  0  0  0  0  0  0  0
    6.7673  -12.8820   19.3648 C   0  0  0  0  0  0  0  0  0  0  0  0
    7.6136  -13.7941   21.5345 C   0  0  0  0  0  0  0  0  0  0  0  0
    8.2206  -15.0677   22.1407 C   0  0  2  0  0  0  0  0  0  0  0  0
    7.3853  -16.2122   22.0472 N   0  0  0  0  0  0  0  0  0  0  0  0
    8.8840  -14.8491   23.4114 C   0  0  0  0  0  0  0  0  0  0  0  0
   10.0553  -14.3361   23.5063 O   0  0  0  0  0  0  0  0  0  0  0  0
    6.0241  -12.2287   26.3881 C   0  0  0  0  0  0  0  0  0  0  0  0
    7.2192  -12.8980   25.7116 C   0  0  0  0  0  0  0  0  0  0  0  0
    7.7428  -13.9746   26.6093 C   0  0  2  0  0  0  0  0  0  0  0  0
    8.3383  -13.3660   27.8686 C   0  0  0  0  0  0  0  0  0  0  0  0
    8.7698  -14.8389   25.9306 C   0  0  2  0  0  0  0  0  0  0  0  0
    8.2422  -15.2040   24.6267 N   0  0  0  0  0  0  0  0  0  0  0  0
    9.1967  -15.9792   26.7226 C   0  0  0  0  0  0  0  0  0  0  0  0
    8.9049  -17.2664   26.3249 O   0  0  0  0  0  0  0  0  0  0  0  0
    9.8380  -15.8129   27.7817 O   0  0  0  0  0  0  0  0  0  0  0  0
  2  3  1  0
  2  1  1  6
  3  4  1  0
  5  2  1  0
  6  5  2  0
  8  7  1  6
  8 10  1  0
  9  8  1  0
 11 10  1  1
 11 12  1  0
 12  5  1  0
 13 11  1  0
 13 20  1  0
 14 13  2  0
 15 16  1  0
 16 17  1  0
 17 19  1  0
 17 18  1  1
 19 20  1  6
 19 21  1  0
 21 22  1  0
 23 21  2  0
M  END
$$$$
