CLI.pdb
     RDKit          3D

 23 22  0  0  1  0  0  0  0  0999 V2000
    8.8812  -19.6786   21.3167 N   0  0  0  0  0  0  0  0  0  0  0  0
    8.1921  -18.7254   22.1272 C   0  0  1  0  0  0  0  0  0  0  0  0
    7.9896  -19.3177   23.5061 C   0  0  0  0  0  0  0  0  0  0  0  0
    6.4646  -20.2519   23.6082 S   0  0  0  0  0  0  0  0  0  0  0  0
    8.9577  -17.4514   22.2654 C   0  0  0  0  0  0  0  0  0  0  0  0
   10.2142  -17.4348   22.2534 O   0  0  0  0  0  0  0  0  0  0  0  0
    8.7634  -13.6100   19.9622 C   0  0  0  0  0  0  0  0  0  0  0  0
    7.4529  -13.9799   20.6893 C   0  0  2  0  0  0  0  0  0  0  0  0
    6.3818  -13.0278   20.2070 C   0  0  0  0  0  0  0  0  0  0  0  0
    7.6902  -13.8478   22.1746 C   0  0  0  0  0  0  0  0  0  0  0  0
    8.6951  -14.9391   22.5711 C   0  0  2  0  0  0  0  0  0  0  0  0
    8.2096  -16.2638   22.4103 N   0  0  0  0  0  0  0  0  0  0  0  0
    9.4107  -14.6537   23.7996 C   0  0  0  0  0  0  0  0  0  0  0  0
    9.9677  -13.5229   24.0343 O   0  0  0  0  0  0  0  0  0  0  0  0
    8.1729  -12.0969   27.0562 C   0  0  0  0  0  0  0  0  0  0  0  0
    9.1392  -12.9978   26.2891 C   0  0  0  0  0  0  0  0  0  0  0  0
    8.9821  -14.4032   26.7781 C   0  0  2  0  0  0  0  0  0  0  0  0
    9.1083  -14.4503   28.2923 C   0  0  0  0  0  0  0  0  0  0  0  0
    9.9804  -15.3419   26.1578 C   0  0  2  0  0  0  0  0  0  0  0  0
    9.5214  -15.6423   24.8121 N   0  0  0  0  0  0  0  0  0  0  0  0
   10.2509  -16.5254   26.9551 C   0  0  0  0  0  0  0  0  0  0  0  0
   11.1937  -16.5014   27.9605 O   0  0  0  0  0  0  0  0  0  0  0  0
    9.6319  -17.5896   26.7431 O   0  0  0  0  0  0  0  0  0  0  0  0
  2  3  1  0
  2  1  1  6
  3  4  1  0
  5  2  1  0
  6  5  2  0
  8  7  1  6
  8 10  1  0
  9  8  1  0
 11 10  1  1
 11 12  1  0
 12  5  1  0
 13 11  1  0
 13 20  1  0
 14 13  2  0
 15 16  1  0
 16 17  1  0
 17 19  1  0
 17 18  1  1
 19 20  1  6
 19 21  1  0
 21 22  1  0
 23 21  2  0
M  END
$$$$
