CLI.pdb
     RDKit          3D

 23 22  0  0  1  0  0  0  0  0999 V2000
    7.5151  -19.6121   21.2321 N   0  0  0  0  0  0  0  0  0  0  0  0
    7.0846  -18.5996   22.1431 C   0  0  1  0  0  0  0  0  0  0  0  0
    6.8954  -19.2252   23.5092 C   0  0  0  0  0  0  0  0  0  0  0  0
    5.9774  -18.1496   24.6088 S   0  0  0  0  0  0  0  0  0  0  0  0
    8.0801  -17.4936   22.2611 C   0  0  0  0  0  0  0  0  0  0  0  0
    9.2981  -17.7244   22.4668 O   0  0  0  0  0  0  0  0  0  0  0  0
    8.8269  -14.0048   19.5344 C   0  0  0  0  0  0  0  0  0  0  0  0
    7.4289  -13.9975   20.1891 C   0  0  2  0  0  0  0  0  0  0  0  0
    6.6206  -12.9077   19.5216 C   0  0  0  0  0  0  0  0  0  0  0  0
    7.6066  -13.7367   21.6656 C   0  0  0  0  0  0  0  0  0  0  0  0
    8.3196  -14.9605   22.2587 C   0  0  2  0  0  0  0  0  0  0  0  0
    7.5948  -16.1749   22.1315 N   0  0  0  0  0  0  0  0  0  0  0  0
    8.9419  -14.7063   23.5436 C   0  0  0  0  0  0  0  0  0  0  0  0
    9.9854  -13.9736   23.6792 O   0  0  0  0  0  0  0  0  0  0  0  0
    5.8552  -12.5331   26.3597 C   0  0  0  0  0  0  0  0  0  0  0  0
    7.2007  -13.0131   25.8184 C   0  0  0  0  0  0  0  0  0  0  0  0
    7.7091  -14.1149   26.6940 C   0  0  2  0  0  0  0  0  0  0  0  0
    8.1628  -13.5559   28.0328 C   0  0  0  0  0  0  0  0  0  0  0  0
    8.8365  -14.8804   26.0572 C   0  0  2  0  0  0  0  0  0  0  0  0
    8.4023  -15.2741   24.7274 N   0  0  0  0  0  0  0  0  0  0  0  0
    9.3231  -15.9892   26.8593 C   0  0  0  0  0  0  0  0  0  0  0  0
   10.2167  -15.7803   27.8879 O   0  0  0  0  0  0  0  0  0  0  0  0
    8.9390  -17.1557   26.6305 O   0  0  0  0  0  0  0  0  0  0  0  0
  2  3  1  0
  2  1  1  6
  3  4  1  0
  5  2  1  0
  6  5  2  0
  8  7  1  6
  8 10  1  0
  9  8  1  0
 11 10  1  1
 11 12  1  0
 12  5  1  0
 13 11  1  0
 13 20  1  0
 14 13  2  0
 15 16  1  0
 16 17  1  0
 17 19  1  0
 17 18  1  1
 19 20  1  6
 19 21  1  0
 21 22  1  0
 23 21  2  0
M  END
$$$$
