CLI.pdb
     RDKit          3D

 23 22  0  0  1  0  0  0  0  0999 V2000
   10.1469  -16.1574   19.7024 N   0  0  0  0  0  0  0  0  0  0  0  0
    9.1935  -16.5450   20.6929 C   0  0  1  0  0  0  0  0  0  0  0  0
    9.3066  -18.0384   20.9166 C   0  0  0  0  0  0  0  0  0  0  0  0
    8.3453  -18.9620   19.7200 S   0  0  0  0  0  0  0  0  0  0  0  0
    9.4253  -15.8510   21.9940 C   0  0  0  0  0  0  0  0  0  0  0  0
   10.5850  -15.5991   22.4074 O   0  0  0  0  0  0  0  0  0  0  0  0
    5.7047  -13.3408   26.3706 C   0  0  0  0  0  0  0  0  0  0  0  0
    7.0860  -13.6011   25.7324 C   0  0  2  0  0  0  0  0  0  0  0  0
    7.7151  -12.2559   25.4471 C   0  0  0  0  0  0  0  0  0  0  0  0
    6.8728  -14.3977   24.4676 C   0  0  0  0  0  0  0  0  0  0  0  0
    8.2334  -14.9880   24.0697 C   0  0  2  0  0  0  0  0  0  0  0  0
    8.2849  -15.4889   22.7420 N   0  0  0  0  0  0  0  0  0  0  0  0
    8.8343  -15.8131   25.0997 C   0  0  0  0  0  0  0  0  0  0  0  0
    8.6903  -17.0865   25.1439 O   0  0  0  0  0  0  0  0  0  0  0  0
   10.7215  -12.9498   29.3891 C   0  0  0  0  0  0  0  0  0  0  0  0
   10.8882  -13.7914   28.1251 C   0  0  0  0  0  0  0  0  0  0  0  0
   10.3651  -15.1685   28.3883 C   0  0  2  0  0  0  0  0  0  0  0  0
   11.2234  -15.8666   29.4308 C   0  0  0  0  0  0  0  0  0  0  0  0
   10.3022  -16.0068   27.1410 C   0  0  2  0  0  0  0  0  0  0  0  0
    9.6245  -15.2242   26.1212 N   0  0  0  0  0  0  0  0  0  0  0  0
    9.7202  -17.3220   27.3437 C   0  0  0  0  0  0  0  0  0  0  0  0
   10.5059  -18.4544   27.3249 O   0  0  0  0  0  0  0  0  0  0  0  0
    8.4930  -17.4505   27.5392 O   0  0  0  0  0  0  0  0  0  0  0  0
  2  3  1  0
  2  1  1  6
  3  4  1  0
  5  2  1  0
  6  5  2  0
  8  7  1  6
  8 10  1  0
  9  8  1  0
 11 10  1  1
 11 12  1  0
 12  5  1  0
 13 11  1  0
 13 20  1  0
 14 13  2  0
 15 16  1  0
 16 17  1  0
 17 19  1  0
 17 18  1  1
 19 20  1  6
 19 21  1  0
 21 22  1  0
 23 21  2  0
M  END
$$$$
