CLI.pdb
     RDKit          3D

 23 22  0  0  1  0  0  0  0  0999 V2000
    6.4192  -19.3008   21.4369 N   0  0  0  0  0  0  0  0  0  0  0  0
    6.3675  -18.2228   22.3725 C   0  0  1  0  0  0  0  0  0  0  0  0
    6.2858  -18.7980   23.7710 C   0  0  0  0  0  0  0  0  0  0  0  0
    5.9445  -17.5302   24.9896 S   0  0  0  0  0  0  0  0  0  0  0  0
    7.5758  -17.3504   22.2877 C   0  0  0  0  0  0  0  0  0  0  0  0
    8.7355  -17.8339   22.2633 O   0  0  0  0  0  0  0  0  0  0  0  0
    8.9149  -14.2419   19.5043 C   0  0  0  0  0  0  0  0  0  0  0  0
    7.5857  -13.9055   20.2136 C   0  0  2  0  0  0  0  0  0  0  0  0
    6.9832  -12.7122   19.5068 C   0  0  0  0  0  0  0  0  0  0  0  0
    7.8930  -13.6015   21.6603 C   0  0  0  0  0  0  0  0  0  0  0  0
    8.3272  -14.9196   22.3174 C   0  0  2  0  0  0  0  0  0  0  0  0
    7.3607  -15.9568   22.2359 N   0  0  0  0  0  0  0  0  0  0  0  0
    8.9854  -14.7435   23.5974 C   0  0  0  0  0  0  0  0  0  0  0  0
   10.1141  -14.1484   23.7239 O   0  0  0  0  0  0  0  0  0  0  0  0
    6.1692  -12.3046   26.6379 C   0  0  0  0  0  0  0  0  0  0  0  0
    7.3582  -12.9672   25.9444 C   0  0  0  0  0  0  0  0  0  0  0  0
    7.8621  -14.0812   26.8071 C   0  0  2  0  0  0  0  0  0  0  0  0
    8.4403  -13.5259   28.0986 C   0  0  0  0  0  0  0  0  0  0  0  0
    8.8957  -14.9237   26.1111 C   0  0  2  0  0  0  0  0  0  0  0  0
    8.3865  -15.2359   24.7864 N   0  0  0  0  0  0  0  0  0  0  0  0
    9.3057  -16.0955   26.8649 C   0  0  0  0  0  0  0  0  0  0  0  0
   10.2472  -15.9990   27.8672 O   0  0  0  0  0  0  0  0  0  0  0  0
    8.8107  -17.2155   26.6174 O   0  0  0  0  0  0  0  0  0  0  0  0
  2  3  1  0
  2  1  1  6
  3  4  1  0
  5  2  1  0
  6  5  2  0
  8  7  1  6
  8 10  1  0
  9  8  1  0
 11 10  1  1
 11 12  1  0
 12  5  1  0
 13 11  1  0
 13 20  1  0
 14 13  2  0
 15 16  1  0
 16 17  1  0
 17 19  1  0
 17 18  1  1
 19 20  1  6
 19 21  1  0
 21 22  1  0
 23 21  2  0
M  END
$$$$
