CLI.pdb
     RDKit          3D

 23 22  0  0  1  0  0  0  0  0999 V2000
    9.3279  -15.7182   19.7238 N   0  0  0  0  0  0  0  0  0  0  0  0
    8.6191  -16.2422   20.8478 C   0  0  1  0  0  0  0  0  0  0  0  0
    8.8740  -17.7327   20.9298 C   0  0  0  0  0  0  0  0  0  0  0  0
    7.7729  -18.5297   22.0965 S   0  0  0  0  0  0  0  0  0  0  0  0
    9.0589  -15.6141   22.1286 C   0  0  0  0  0  0  0  0  0  0  0  0
   10.2401  -15.2192   22.2956 O   0  0  0  0  0  0  0  0  0  0  0  0
    7.9416  -12.2682   24.9079 C   0  0  0  0  0  0  0  0  0  0  0  0
    6.7092  -13.1545   24.6271 C   0  0  2  0  0  0  0  0  0  0  0  0
    5.5255  -12.5193   25.3213 C   0  0  0  0  0  0  0  0  0  0  0  0
    6.9963  -14.5362   25.1638 C   0  0  0  0  0  0  0  0  0  0  0  0
    8.2789  -15.0302   24.4790 C   0  0  2  0  0  0  0  0  0  0  0  0
    8.0902  -15.4819   23.1461 N   0  0  0  0  0  0  0  0  0  0  0  0
    9.1151  -15.8525   25.3319 C   0  0  0  0  0  0  0  0  0  0  0  0
    9.3286  -17.0966   25.1070 O   0  0  0  0  0  0  0  0  0  0  0  0
   10.2638  -13.2446   29.9144 C   0  0  0  0  0  0  0  0  0  0  0  0
   10.7292  -13.9179   28.6244 C   0  0  0  0  0  0  0  0  0  0  0  0
   10.4963  -15.3917   28.7368 C   0  0  2  0  0  0  0  0  0  0  0  0
   11.5224  -16.0169   29.6680 C   0  0  0  0  0  0  0  0  0  0  0  0
   10.5375  -16.0829   27.4014 C   0  0  2  0  0  0  0  0  0  0  0  0
    9.7440  -15.2931   26.4750 N   0  0  0  0  0  0  0  0  0  0  0  0
   10.1497  -17.4817   27.4496 C   0  0  0  0  0  0  0  0  0  0  0  0
    8.8225  -17.8462   27.5272 O   0  0  0  0  0  0  0  0  0  0  0  0
   11.0149  -18.3824   27.4216 O   0  0  0  0  0  0  0  0  0  0  0  0
  2  3  1  0
  2  1  1  6
  3  4  1  0
  5  2  1  0
  6  5  2  0
  8  7  1  1
  8 10  1  0
  9  8  1  0
 11 10  1  1
 11 12  1  0
 12  5  1  0
 13 11  1  0
 13 20  1  0
 14 13  2  0
 15 16  1  0
 16 17  1  0
 17 19  1  0
 17 18  1  1
 19 20  1  6
 19 21  1  0
 21 22  1  0
 23 21  2  0
M  END
$$$$
