CAG.pdb
     RDKit          3D

 16 15  0  0  1  0  0  0  0  0999 V2000
    8.3574  -13.6371   15.7139 N   0  0  0  0  0  0  0  0  0  0  0  0
    7.4828  -14.2159   16.7014 C   0  0  1  0  0  0  0  0  0  0  0  0
    7.1614  -15.6375   16.2970 C   0  0  0  0  0  0  0  0  0  0  0  0
    8.7506  -16.4698   15.9805 S   0  0  0  0  0  0  0  0  0  0  0  0
    8.1835  -14.1581   18.0088 C   0  0  0  0  0  0  0  0  0  0  0  0
    9.4386  -14.1747   18.0540 O   0  0  0  0  0  0  0  0  0  0  0  0
    7.2160  -13.6175   21.6526 C   0  0  0  0  0  0  0  0  0  0  0  0
    8.1339  -14.0189   20.5266 C   0  0  2  0  0  0  0  0  0  0  0  0
    7.4663  -14.0818   19.2584 N   0  0  0  0  0  0  0  0  0  0  0  0
    8.8395  -15.2809   20.7776 C   0  0  0  0  0  0  0  0  0  0  0  0
    8.3203  -16.3526   20.3718 O   0  0  0  0  0  0  0  0  0  0  0  0
   10.0959  -15.3422   21.4660 N   0  0  0  0  0  0  0  0  0  0  0  0
   10.6438  -16.6300   21.7596 C   0  0  0  0  0  0  0  0  0  0  0  0
   11.8731  -16.5695   22.5905 C   0  0  0  0  0  0  0  0  0  0  0  0
   12.4669  -15.4651   22.6533 O   0  0  0  0  0  0  0  0  0  0  0  0
   12.3716  -17.6614   23.2791 O   0  0  0  0  0  0  0  0  0  0  0  0
  2  1  1  6
  2  3  1  0
  3  4  1  0
  5  2  1  0
  6  5  2  0
  8  7  1  1
  8  9  1  0
  9  5  1  0
 10  8  1  0
 11 10  2  0
 12 10  1  0
 13 14  1  0
 13 12  1  0
 14 16  1  0
 15 14  2  0
M  END
$$$$
