CAG.pdb
     RDKit          3D

 16 15  0  0  1  0  0  0  0  0999 V2000
    4.8049  -15.7763   20.9567 N   0  0  0  0  0  0  0  0  0  0  0  0
    5.7207  -16.6079   21.6949 C   0  0  1  0  0  0  0  0  0  0  0  0
    6.1042  -17.7936   20.8379 C   0  0  0  0  0  0  0  0  0  0  0  0
    6.9188  -18.9982   21.9351 S   0  0  0  0  0  0  0  0  0  0  0  0
    6.8985  -15.7750   22.0452 C   0  0  0  0  0  0  0  0  0  0  0  0
    7.5033  -15.1295   21.1536 O   0  0  0  0  0  0  0  0  0  0  0  0
    8.4431  -14.2181   25.0656 C   0  0  0  0  0  0  0  0  0  0  0  0
    8.5621  -14.9216   23.7380 C   0  0  2  0  0  0  0  0  0  0  0  0
    7.3886  -15.6739   23.3984 N   0  0  0  0  0  0  0  0  0  0  0  0
    9.7465  -15.7829   23.6440 C   0  0  0  0  0  0  0  0  0  0  0  0
    9.6593  -16.9731   24.0425 O   0  0  0  0  0  0  0  0  0  0  0  0
   10.9984  -15.3235   23.1168 N   0  0  0  0  0  0  0  0  0  0  0  0
   12.0720  -16.2620   23.0100 C   0  0  0  0  0  0  0  0  0  0  0  0
   12.8392  -16.4224   24.2713 C   0  0  0  0  0  0  0  0  0  0  0  0
   13.9129  -15.7797   24.3732 O   0  0  0  0  0  0  0  0  0  0  0  0
   12.4202  -17.2355   25.3098 O   0  0  0  0  0  0  0  0  0  0  0  0
  2  1  1  6
  2  3  1  0
  3  4  1  0
  5  2  1  0
  6  5  2  0
  8  7  1  1
  8  9  1  0
  9  5  1  0
 10  8  1  0
 11 10  2  0
 12 10  1  0
 13 14  1  0
 13 12  1  0
 14 16  1  0
 15 14  2  0
M  END
$$$$
