CAG.pdb
     RDKit          3D

 16 15  0  0  1  0  0  0  0  0999 V2000
   -0.5888  -27.9615   30.0437 N   0  0  0  0  0  0  0  0  0  0  0  0
   -1.3126  -26.9447   30.7631 C   0  0  1  0  0  0  0  0  0  0  0  0
   -0.3343  -25.8972   31.2461 C   0  0  0  0  0  0  0  0  0  0  0  0
    0.4257  -26.5453   32.7696 S   0  0  0  0  0  0  0  0  0  0  0  0
   -2.3216  -26.3732   29.8364 C   0  0  0  0  0  0  0  0  0  0  0  0
   -2.1625  -26.4663   28.5940 O   0  0  0  0  0  0  0  0  0  0  0  0
   -5.0634  -26.4254   28.5667 C   0  0  0  0  0  0  0  0  0  0  0  0
   -4.5697  -25.3007   29.4401 C   0  0  2  0  0  0  0  0  0  0  0  0
   -3.5047  -25.6999   30.3145 N   0  0  0  0  0  0  0  0  0  0  0  0
   -5.6370  -24.6625   30.2194 C   0  0  0  0  0  0  0  0  0  0  0  0
   -6.1769  -25.3154   31.1495 O   0  0  0  0  0  0  0  0  0  0  0  0
   -6.0891  -23.3259   29.9641 N   0  0  0  0  0  0  0  0  0  0  0  0
   -7.0612  -22.7608   30.8475 C   0  0  0  0  0  0  0  0  0  0  0  0
   -7.6549  -21.4988   30.3373 C   0  0  0  0  0  0  0  0  0  0  0  0
   -7.1176  -20.9817   29.3272 O   0  0  0  0  0  0  0  0  0  0  0  0
   -8.7513  -20.8910   30.9232 O   0  0  0  0  0  0  0  0  0  0  0  0
  2  1  1  6
  2  3  1  0
  3  4  1  0
  5  2  1  0
  6  5  2  0
  8  7  1  1
  8  9  1  0
  9  5  1  0
 10  8  1  0
 11 10  2  0
 12 10  1  0
 13 14  1  0
 13 12  1  0
 14 16  1  0
 15 14  2  0
M  END
$$$$
