CAG.pdb
     RDKit          3D

 16 15  0  0  1  0  0  0  0  0999 V2000
    8.5210  -12.8235   18.6222 N   0  0  0  0  0  0  0  0  0  0  0  0
    9.0014  -14.1806   18.6751 C   0  0  1  0  0  0  0  0  0  0  0  0
   10.5009  -14.1612   18.8722 C   0  0  0  0  0  0  0  0  0  0  0  0
   10.8328  -13.0838   20.3032 S   0  0  0  0  0  0  0  0  0  0  0  0
    8.3052  -14.8584   19.7973 C   0  0  0  0  0  0  0  0  0  0  0  0
    7.7885  -14.1819   20.7209 O   0  0  0  0  0  0  0  0  0  0  0  0
    6.5281  -17.9375   20.6045 C   0  0  0  0  0  0  0  0  0  0  0  0
    7.6089  -16.9639   20.9988 C   0  0  2  0  0  0  0  0  0  0  0  0
    8.1947  -16.2950   19.8729 N   0  0  0  0  0  0  0  0  0  0  0  0
    8.6643  -17.5717   21.8175 C   0  0  0  0  0  0  0  0  0  0  0  0
    8.3305  -18.2726   22.8075 O   0  0  0  0  0  0  0  0  0  0  0  0
   10.0595  -17.3993   21.5352 N   0  0  0  0  0  0  0  0  0  0  0  0
   11.0080  -17.9654   22.4434 C   0  0  0  0  0  0  0  0  0  0  0  0
   11.6922  -16.9513   23.2854 C   0  0  0  0  0  0  0  0  0  0  0  0
   11.0662  -16.5220   24.2854 O   0  0  0  0  0  0  0  0  0  0  0  0
   12.9629  -16.4771   23.0107 O   0  0  0  0  0  0  0  0  0  0  0  0
  2  1  1  1
  2  3  1  0
  3  4  1  0
  5  2  1  0
  6  5  2  0
  8  7  1  6
  8  9  1  0
  9  5  1  0
 10  8  1  0
 11 10  2  0
 12 10  1  0
 13 14  1  0
 13 12  1  0
 14 16  1  0
 15 14  2  0
M  END
$$$$
