CAG.pdb
     RDKit          3D

 16 15  0  0  1  0  0  0  0  0999 V2000
    0.8132  -20.6022   21.2901 N   0  0  0  0  0  0  0  0  0  0  0  0
    1.4334  -19.7229   22.2478 C   0  0  1  0  0  0  0  0  0  0  0  0
    0.8535  -20.0033   23.6164 C   0  0  0  0  0  0  0  0  0  0  0  0
   -0.7065  -19.0696   23.7315 S   0  0  0  0  0  0  0  0  0  0  0  0
    2.8957  -19.9745   22.2050 C   0  0  0  0  0  0  0  0  0  0  0  0
    3.3313  -21.1378   22.0189 O   0  0  0  0  0  0  0  0  0  0  0  0
    5.9818  -18.1197   21.4362 C   0  0  0  0  0  0  0  0  0  0  0  0
    5.2741  -19.1395   22.2909 C   0  0  2  0  0  0  0  0  0  0  0  0
    3.8596  -18.9140   22.3721 N   0  0  0  0  0  0  0  0  0  0  0  0
    5.8357  -19.2514   23.6421 C   0  0  0  0  0  0  0  0  0  0  0  0
    6.0137  -18.2001   24.3097 O   0  0  0  0  0  0  0  0  0  0  0  0
    6.1896  -20.5096   24.2319 N   0  0  0  0  0  0  0  0  0  0  0  0
    7.5647  -20.7466   24.5447 C   0  0  0  0  0  0  0  0  0  0  0  0
    7.8967  -20.4839   25.9681 C   0  0  0  0  0  0  0  0  0  0  0  0
    8.3591  -19.3506   26.2476 O   0  0  0  0  0  0  0  0  0  0  0  0
    7.7178  -21.4225   26.9692 O   0  0  0  0  0  0  0  0  0  0  0  0
  2  1  1  6
  2  3  1  0
  3  4  1  0
  5  2  1  0
  6  5  2  0
  8  7  1  1
  8  9  1  0
  9  5  1  0
 10  8  1  0
 11 10  2  0
 12 10  1  0
 13 14  1  0
 13 12  1  0
 14 16  1  0
 15 14  2  0
M  END
$$$$
