CAG.pdb
     RDKit          3D

 16 15  0  0  1  0  0  0  0  0999 V2000
    8.4099  -16.0271   15.0487 N   0  0  0  0  0  0  0  0  0  0  0  0
    7.6695  -16.2859   16.2570 C   0  0  1  0  0  0  0  0  0  0  0  0
    7.6124  -17.7801   16.4850 C   0  0  0  0  0  0  0  0  0  0  0  0
    6.7186  -18.0428   18.0505 S   0  0  0  0  0  0  0  0  0  0  0  0
    8.3629  -15.5837   17.3659 C   0  0  0  0  0  0  0  0  0  0  0  0
    9.5963  -15.7433   17.5413 O   0  0  0  0  0  0  0  0  0  0  0  0
    7.4605  -12.9807   20.0021 C   0  0  0  0  0  0  0  0  0  0  0  0
    8.3187  -14.0405   19.3604 C   0  0  2  0  0  0  0  0  0  0  0  0
    7.6627  -14.7053   18.2714 N   0  0  0  0  0  0  0  0  0  0  0  0
    8.8219  -15.0341   20.3159 C   0  0  0  0  0  0  0  0  0  0  0  0
    8.0333  -15.9203   20.7350 O   0  0  0  0  0  0  0  0  0  0  0  0
   10.1748  -15.0361   20.7909 N   0  0  0  0  0  0  0  0  0  0  0  0
   10.5342  -15.9790   21.8041 C   0  0  0  0  0  0  0  0  0  0  0  0
   11.9573  -15.8829   22.2174 C   0  0  0  0  0  0  0  0  0  0  0  0
   12.3312  -16.6268   23.1572 O   0  0  0  0  0  0  0  0  0  0  0  0
   12.8600  -15.0232   21.6165 O   0  0  0  0  0  0  0  0  0  0  0  0
  2  1  1  6
  2  3  1  0
  3  4  1  0
  5  2  1  0
  6  5  2  0
  8  7  1  1
  8  9  1  0
  9  5  1  0
 10  8  1  0
 11 10  2  0
 12 10  1  0
 13 14  1  0
 13 12  1  0
 14 16  1  0
 15 14  2  0
M  END
$$$$
