CAG.pdb
     RDKit          3D

 16 15  0  0  1  0  0  0  0  0999 V2000
    6.3174  -17.1316   20.3343 N   0  0  0  0  0  0  0  0  0  0  0  0
    5.6919  -16.7942   21.5873 C   0  0  1  0  0  0  0  0  0  0  0  0
    5.0097  -18.0255   22.1406 C   0  0  0  0  0  0  0  0  0  0  0  0
    3.7433  -18.5189   20.9276 S   0  0  0  0  0  0  0  0  0  0  0  0
    6.7532  -16.2944   22.4970 C   0  0  0  0  0  0  0  0  0  0  0  0
    7.9054  -16.7928   22.4573 O   0  0  0  0  0  0  0  0  0  0  0  0
    7.2099  -13.4915   25.0212 C   0  0  0  0  0  0  0  0  0  0  0  0
    7.4738  -14.8567   24.4399 C   0  0  2  0  0  0  0  0  0  0  0  0
    6.5105  -15.2357   23.4467 N   0  0  0  0  0  0  0  0  0  0  0  0
    7.5753  -15.9089   25.4578 C   0  0  0  0  0  0  0  0  0  0  0  0
    6.5157  -16.4206   25.9032 O   0  0  0  0  0  0  0  0  0  0  0  0
    8.8320  -16.3773   25.9651 N   0  0  0  0  0  0  0  0  0  0  0  0
    8.8208  -17.4347   26.9276 C   0  0  0  0  0  0  0  0  0  0  0  0
   10.1690  -17.7593   27.4590 C   0  0  0  0  0  0  0  0  0  0  0  0
   11.1169  -17.7851   26.6362 O   0  0  0  0  0  0  0  0  0  0  0  0
   10.4077  -18.0268   28.7956 O   0  0  0  0  0  0  0  0  0  0  0  0
  2  1  1  6
  2  3  1  0
  3  4  1  0
  5  2  1  0
  6  5  2  0
  8  7  1  1
  8  9  1  0
  9  5  1  0
 10  8  1  0
 11 10  2  0
 12 10  1  0
 13 14  1  0
 13 12  1  0
 14 16  1  0
 15 14  2  0
M  END
$$$$
