CAG.pdb
     RDKit          3D

 16 15  0  0  1  0  0  0  0  0999 V2000
    1.0697  -20.4431   20.7662 N   0  0  0  0  0  0  0  0  0  0  0  0
    1.4828  -19.5632   21.8293 C   0  0  1  0  0  0  0  0  0  0  0  0
    0.8989  -20.0625   23.1322 C   0  0  0  0  0  0  0  0  0  0  0  0
   -0.6155  -19.0973   23.4378 S   0  0  0  0  0  0  0  0  0  0  0  0
    2.9671  -19.5581   21.8547 C   0  0  0  0  0  0  0  0  0  0  0  0
    3.6032  -20.6405   21.8184 O   0  0  0  0  0  0  0  0  0  0  0  0
    5.7538  -17.0008   21.5657 C   0  0  0  0  0  0  0  0  0  0  0  0
    5.1596  -18.3189   21.9911 C   0  0  2  0  0  0  0  0  0  0  0  0
    3.7267  -18.3333   21.9209 N   0  0  0  0  0  0  0  0  0  0  0  0
    5.5939  -18.7451   23.3265 C   0  0  0  0  0  0  0  0  0  0  0  0
    5.1338  -18.1426   24.3306 O   0  0  0  0  0  0  0  0  0  0  0  0
    6.5208  -19.8195   23.5333 N   0  0  0  0  0  0  0  0  0  0  0  0
    6.9455  -20.0979   24.8701 C   0  0  0  0  0  0  0  0  0  0  0  0
    8.4093  -19.9417   25.0655 C   0  0  0  0  0  0  0  0  0  0  0  0
    8.9321  -20.5848   26.0086 O   0  0  0  0  0  0  0  0  0  0  0  0
    9.1944  -19.1322   24.2634 O   0  0  0  0  0  0  0  0  0  0  0  0
  2  1  1  6
  2  3  1  0
  3  4  1  0
  5  2  1  0
  6  5  2  0
  8  7  1  1
  8  9  1  0
  9  5  1  0
 10  8  1  0
 11 10  2  0
 12 10  1  0
 13 14  1  0
 13 12  1  0
 14 16  1  0
 15 14  2  0
M  END
$$$$
