CAG.pdb
     RDKit          3D

 16 15  0  0  1  0  0  0  0  0999 V2000
    9.4007  -16.6433   19.0362 N   0  0  0  0  0  0  0  0  0  0  0  0
    8.4297  -16.7504   20.0949 C   0  0  1  0  0  0  0  0  0  0  0  0
    8.4432  -18.1651   20.6297 C   0  0  0  0  0  0  0  0  0  0  0  0
    7.2426  -18.2249   21.9985 S   0  0  0  0  0  0  0  0  0  0  0  0
    8.7954  -15.7610   21.1394 C   0  0  0  0  0  0  0  0  0  0  0  0
   10.0032  -15.5261   21.3916 O   0  0  0  0  0  0  0  0  0  0  0  0
    7.0242  -13.1036   23.1810 C   0  0  0  0  0  0  0  0  0  0  0  0
    8.1412  -14.0748   22.8973 C   0  0  2  0  0  0  0  0  0  0  0  0
    7.7983  -15.0416   21.8943 N   0  0  0  0  0  0  0  0  0  0  0  0
    8.6304  -14.7607   24.0989 C   0  0  0  0  0  0  0  0  0  0  0  0
    8.9822  -14.0668   25.0876 O   0  0  0  0  0  0  0  0  0  0  0  0
    8.7236  -16.1885   24.1919 N   0  0  0  0  0  0  0  0  0  0  0  0
    9.0792  -16.7621   25.4527 C   0  0  0  0  0  0  0  0  0  0  0  0
   10.4817  -17.2477   25.5021 C   0  0  0  0  0  0  0  0  0  0  0  0
   11.1845  -17.0707   24.4768 O   0  0  0  0  0  0  0  0  0  0  0  0
   11.0243  -17.8721   26.6115 O   0  0  0  0  0  0  0  0  0  0  0  0
  2  1  1  6
  2  3  1  0
  3  4  1  0
  5  2  1  0
  6  5  2  0
  8  7  1  1
  8  9  1  0
  9  5  1  0
 10  8  1  0
 11 10  2  0
 12 10  1  0
 13 14  1  0
 13 12  1  0
 14 16  1  0
 15 14  2  0
M  END
$$$$
