CAG.pdb
     RDKit          3D

 16 15  0  0  1  0  0  0  0  0999 V2000
   10.1163  -16.9887   28.5865 N   0  0  0  0  0  0  0  0  0  0  0  0
   10.1439  -15.8367   27.7221 C   0  0  1  0  0  0  0  0  0  0  0  0
   11.3639  -15.0061   28.0530 C   0  0  0  0  0  0  0  0  0  0  0  0
   10.8250  -13.7163   29.2211 S   0  0  0  0  0  0  0  0  0  0  0  0
   10.1732  -16.3285   26.3218 C   0  0  0  0  0  0  0  0  0  0  0  0
   10.4876  -17.5197   26.0771 O   0  0  0  0  0  0  0  0  0  0  0  0
    8.8257  -15.1864   22.9951 C   0  0  0  0  0  0  0  0  0  0  0  0
    9.7894  -15.9619   23.8561 C   0  0  2  0  0  0  0  0  0  0  0  0
    9.8482  -15.4755   25.2045 N   0  0  0  0  0  0  0  0  0  0  0  0
   11.1434  -16.0273   23.2941 C   0  0  0  0  0  0  0  0  0  0  0  0
   11.2738  -16.1352   22.0474 O   0  0  0  0  0  0  0  0  0  0  0  0
   12.3231  -15.9731   24.1074 N   0  0  0  0  0  0  0  0  0  0  0  0
   13.5956  -16.0021   23.4556 C   0  0  0  0  0  0  0  0  0  0  0  0
   14.7336  -15.7613   24.3787 C   0  0  0  0  0  0  0  0  0  0  0  0
   14.4802  -15.7510   25.6083 O   0  0  0  0  0  0  0  0  0  0  0  0
   16.0293  -15.5535   23.9393 O   0  0  0  0  0  0  0  0  0  0  0  0
  2  1  1  1
  2  3  1  0
  3  4  1  0
  5  2  1  0
  6  5  2  0
  8  7  1  6
  8  9  1  0
  9  5  1  0
 10  8  1  0
 11 10  2  0
 12 10  1  0
 13 14  1  0
 13 12  1  0
 14 16  1  0
 15 14  2  0
M  END
$$$$
