CAG.pdb
     RDKit          3D

 16 15  0  0  1  0  0  0  0  0999 V2000
    5.9665  -19.3981   23.6079 N   0  0  0  0  0  0  0  0  0  0  0  0
    6.4225  -18.1178   24.0853 C   0  0  1  0  0  0  0  0  0  0  0  0
    7.3690  -18.3368   25.2445 C   0  0  0  0  0  0  0  0  0  0  0  0
    7.5338  -16.7382   26.1025 S   0  0  0  0  0  0  0  0  0  0  0  0
    7.0875  -17.4282   22.9513 C   0  0  0  0  0  0  0  0  0  0  0  0
    7.8751  -18.0586   22.2031 O   0  0  0  0  0  0  0  0  0  0  0  0
    6.8942  -14.0393   21.2386 C   0  0  0  0  0  0  0  0  0  0  0  0
    7.5579  -15.3368   21.6225 C   0  0  2  0  0  0  0  0  0  0  0  0
    6.8614  -16.0320   22.6664 N   0  0  0  0  0  0  0  0  0  0  0  0
    8.9696  -15.1775   21.9904 C   0  0  0  0  0  0  0  0  0  0  0  0
    9.7831  -14.7990   21.1085 O   0  0  0  0  0  0  0  0  0  0  0  0
    9.4592  -15.4356   23.3132 N   0  0  0  0  0  0  0  0  0  0  0  0
   10.8159  -15.0950   23.6104 C   0  0  0  0  0  0  0  0  0  0  0  0
   11.7633  -16.2188   23.3985 C   0  0  0  0  0  0  0  0  0  0  0  0
   11.2944  -17.2785   22.9153 O   0  0  0  0  0  0  0  0  0  0  0  0
   13.1096  -16.1378   23.7080 O   0  0  0  0  0  0  0  0  0  0  0  0
  2  1  1  6
  2  3  1  0
  3  4  1  0
  5  2  1  0
  6  5  2  0
  8  7  1  1
  8  9  1  0
  9  5  1  0
 10  8  1  0
 11 10  2  0
 12 10  1  0
 13 14  1  0
 13 12  1  0
 14 16  1  0
 15 14  2  0
M  END
$$$$
