CAG.pdb
     RDKit          3D

 16 15  0  0  1  0  0  0  0  0999 V2000
    9.3487  -16.0555   28.7692 N   0  0  0  0  0  0  0  0  0  0  0  0
    8.9395  -15.1633   27.7149 C   0  0  1  0  0  0  0  0  0  0  0  0
    9.4944  -13.7850   27.9976 C   0  0  0  0  0  0  0  0  0  0  0  0
    8.5843  -12.6196   26.9336 S   0  0  0  0  0  0  0  0  0  0  0  0
    9.4545  -15.7151   26.4366 C   0  0  0  0  0  0  0  0  0  0  0  0
   10.5534  -16.3227   26.4081 O   0  0  0  0  0  0  0  0  0  0  0  0
    8.2042  -16.0486   22.8487 C   0  0  0  0  0  0  0  0  0  0  0  0
    9.2307  -16.0840   23.9517 C   0  0  2  0  0  0  0  0  0  0  0  0
    8.7285  -15.5794   25.1972 N   0  0  0  0  0  0  0  0  0  0  0  0
   10.4773  -15.3923   23.6040 C   0  0  0  0  0  0  0  0  0  0  0  0
   10.5447  -14.1480   23.7776 O   0  0  0  0  0  0  0  0  0  0  0  0
   11.6210  -16.0763   23.0747 N   0  0  0  0  0  0  0  0  0  0  0  0
   12.7922  -15.3095   22.7830 C   0  0  0  0  0  0  0  0  0  0  0  0
   13.8696  -16.1046   22.1407 C   0  0  0  0  0  0  0  0  0  0  0  0
   14.3733  -17.0355   22.8160 O   0  0  0  0  0  0  0  0  0  0  0  0
   14.3239  -15.8592   20.8568 O   0  0  0  0  0  0  0  0  0  0  0  0
  2  1  1  1
  2  3  1  0
  3  4  1  0
  5  2  1  0
  6  5  2  0
  8  7  1  6
  8  9  1  0
  9  5  1  0
 10  8  1  0
 11 10  2  0
 12 10  1  0
 13 14  1  0
 13 12  1  0
 14 16  1  0
 15 14  2  0
M  END
$$$$
