CAG.pdb
     RDKit          3D

 16 15  0  0  1  0  0  0  0  0999 V2000
    5.4016  -18.1607   19.6709 N   0  0  0  0  0  0  0  0  0  0  0  0
    5.2010  -16.9615   20.4433 C   0  0  1  0  0  0  0  0  0  0  0  0
    4.9690  -17.3436   21.8883 C   0  0  0  0  0  0  0  0  0  0  0  0
    6.5895  -17.8058   22.5802 S   0  0  0  0  0  0  0  0  0  0  0  0
    6.4116  -16.1176   20.2822 C   0  0  0  0  0  0  0  0  0  0  0  0
    7.4976  -16.6338   19.9194 O   0  0  0  0  0  0  0  0  0  0  0  0
    7.1619  -12.4092   20.0991 C   0  0  0  0  0  0  0  0  0  0  0  0
    7.5311  -13.8576   20.2926 C   0  0  2  0  0  0  0  0  0  0  0  0
    6.3920  -14.6965   20.5307 N   0  0  0  0  0  0  0  0  0  0  0  0
    8.5276  -14.0642   21.3499 C   0  0  0  0  0  0  0  0  0  0  0  0
    9.6471  -13.5004   21.2414 O   0  0  0  0  0  0  0  0  0  0  0  0
    8.2773  -14.8818   22.5010 N   0  0  0  0  0  0  0  0  0  0  0  0
    9.2449  -14.8812   23.5539 C   0  0  0  0  0  0  0  0  0  0  0  0
   10.3156  -15.8933   23.3679 C   0  0  0  0  0  0  0  0  0  0  0  0
   10.2470  -16.6166   22.3440 O   0  0  0  0  0  0  0  0  0  0  0  0
   11.3582  -16.0603   24.2624 O   0  0  0  0  0  0  0  0  0  0  0  0
  2  1  1  6
  2  3  1  0
  3  4  1  0
  5  2  1  0
  6  5  2  0
  8  7  1  1
  8  9  1  0
  9  5  1  0
 10  8  1  0
 11 10  2  0
 12 10  1  0
 13 14  1  0
 13 12  1  0
 14 16  1  0
 15 14  2  0
M  END
$$$$
