CAG.pdb
     RDKit          3D

 16 15  0  0  1  0  0  0  0  0999 V2000
    5.4889  -13.3310   26.0368 N   0  0  0  0  0  0  0  0  0  0  0  0
    6.8420  -13.4987   25.5719 C   0  0  1  0  0  0  0  0  0  0  0  0
    7.7848  -12.8708   26.5742 C   0  0  0  0  0  0  0  0  0  0  0  0
    7.4911  -11.0737   26.5232 S   0  0  0  0  0  0  0  0  0  0  0  0
    7.0859  -14.9551   25.4207 C   0  0  0  0  0  0  0  0  0  0  0  0
    6.7686  -15.7478   26.3419 O   0  0  0  0  0  0  0  0  0  0  0  0
    7.2256  -17.3923   22.7292 C   0  0  0  0  0  0  0  0  0  0  0  0
    7.8270  -16.9240   24.0294 C   0  0  2  0  0  0  0  0  0  0  0  0
    7.6861  -15.5108   24.2321 N   0  0  0  0  0  0  0  0  0  0  0  0
    9.2343  -17.3088   24.1875 C   0  0  0  0  0  0  0  0  0  0  0  0
    9.4992  -18.4391   24.6723 O   0  0  0  0  0  0  0  0  0  0  0  0
   10.3191  -16.4494   23.8120 N   0  0  0  0  0  0  0  0  0  0  0  0
   11.6508  -16.8653   24.1259 C   0  0  0  0  0  0  0  0  0  0  0  0
   12.6939  -15.9829   23.5440 C   0  0  0  0  0  0  0  0  0  0  0  0
   13.8728  -16.1526   23.9409 O   0  0  0  0  0  0  0  0  0  0  0  0
   12.4159  -15.0062   22.6038 O   0  0  0  0  0  0  0  0  0  0  0  0
  2  1  1  1
  2  3  1  0
  3  4  1  0
  5  2  1  0
  6  5  2  0
  8  7  1  6
  8  9  1  0
  9  5  1  0
 10  8  1  0
 11 10  2  0
 12 10  1  0
 13 14  1  0
 13 12  1  0
 14 16  1  0
 15 14  2  0
M  END
$$$$
