CAG.pdb
     RDKit          3D

 16 15  0  0  1  0  0  0  0  0999 V2000
   -5.0615  -23.1313   30.0485 N   0  0  0  0  0  0  0  0  0  0  0  0
   -4.9510  -22.8186   28.6467 C   0  0  1  0  0  0  0  0  0  0  0  0
   -3.6041  -22.1788   28.3929 C   0  0  0  0  0  0  0  0  0  0  0  0
   -3.5925  -20.5952   29.2933 S   0  0  0  0  0  0  0  0  0  0  0  0
   -5.1119  -24.0864   27.8914 C   0  0  0  0  0  0  0  0  0  0  0  0
   -4.8236  -25.1837   28.4303 O   0  0  0  0  0  0  0  0  0  0  0  0
   -6.8790  -25.2102   24.7556 C   0  0  0  0  0  0  0  0  0  0  0  0
   -5.8142  -25.3341   25.8150 C   0  0  2  0  0  0  0  0  0  0  0  0
   -5.5966  -24.1110   26.5327 N   0  0  0  0  0  0  0  0  0  0  0  0
   -4.5372  -25.8369   25.2954 C   0  0  0  0  0  0  0  0  0  0  0  0
   -4.5306  -26.9232   24.6608 O   0  0  0  0  0  0  0  0  0  0  0  0
   -3.2973  -25.1410   25.4816 N   0  0  0  0  0  0  0  0  0  0  0  0
   -2.1150  -25.6999   24.9033 C   0  0  0  0  0  0  0  0  0  0  0  0
   -1.2901  -26.4621   25.8750 C   0  0  0  0  0  0  0  0  0  0  0  0
   -1.7924  -26.6792   27.0049 O   0  0  0  0  0  0  0  0  0  0  0  0
   -0.0202  -26.9281   25.5830 O   0  0  0  0  0  0  0  0  0  0  0  0
  2  1  1  1
  2  3  1  0
  3  4  1  0
  5  2  1  0
  6  5  2  0
  8  7  1  6
  8  9  1  0
  9  5  1  0
 10  8  1  0
 11 10  2  0
 12 10  1  0
 13 14  1  0
 13 12  1  0
 14 16  1  0
 15 14  2  0
M  END
$$$$
