CAG.pdb
     RDKit          3D

 16 15  0  0  1  0  0  0  0  0999 V2000
    6.2525  -18.2462   18.9942 N   0  0  0  0  0  0  0  0  0  0  0  0
    6.4437  -17.3508   20.1063 C   0  0  1  0  0  0  0  0  0  0  0  0
    6.9087  -18.1499   21.3034 C   0  0  0  0  0  0  0  0  0  0  0  0
    6.5215  -17.1603   22.7830 S   0  0  0  0  0  0  0  0  0  0  0  0
    7.4460  -16.3355   19.6963 C   0  0  0  0  0  0  0  0  0  0  0  0
    8.4544  -16.6767   19.0297 O   0  0  0  0  0  0  0  0  0  0  0  0
    7.6884  -12.5557   19.6211 C   0  0  0  0  0  0  0  0  0  0  0  0
    8.2614  -13.9496   19.6346 C   0  0  2  0  0  0  0  0  0  0  0  0
    7.3069  -14.9411   20.0396 N   0  0  0  0  0  0  0  0  0  0  0  0
    9.4749  -14.0682   20.4513 C   0  0  0  0  0  0  0  0  0  0  0  0
   10.4840  -13.3873   20.1336 O   0  0  0  0  0  0  0  0  0  0  0  0
    9.5572  -14.9280   21.5959 N   0  0  0  0  0  0  0  0  0  0  0  0
   10.7301  -14.8580   22.4110 C   0  0  0  0  0  0  0  0  0  0  0  0
   11.7518  -15.8763   22.0581 C   0  0  0  0  0  0  0  0  0  0  0  0
   11.5045  -16.6178   21.0757 O   0  0  0  0  0  0  0  0  0  0  0  0
   12.9356  -16.0300   22.7583 O   0  0  0  0  0  0  0  0  0  0  0  0
  2  1  1  6
  2  3  1  0
  3  4  1  0
  5  2  1  0
  6  5  2  0
  8  7  1  1
  8  9  1  0
  9  5  1  0
 10  8  1  0
 11 10  2  0
 12 10  1  0
 13 14  1  0
 13 12  1  0
 14 16  1  0
 15 14  2  0
M  END
$$$$
