DQS.pdb
     RDKit          3D

 24 23  0  0  1  0  0  0  0  0999 V2000
    9.8258  -15.8183   19.8694 N   0  0  0  0  0  0  0  0  0  0  0  0
    8.9447  -16.3153   20.8830 C   0  0  1  0  0  0  0  0  0  0  0  0
    9.0694  -17.8211   20.9017 C   0  0  0  0  0  0  0  0  0  0  0  0
    8.5286  -18.4251   19.6604 C   0  0  0  0  0  0  0  0  0  0  0  0
    7.2719  -18.6178   19.5352 O   0  0  0  0  0  0  0  0  0  0  0  0
    9.2776  -15.7982   22.2345 C   0  0  0  0  0  0  0  0  0  0  0  0
   10.4461  -15.8144   22.6977 O   0  0  0  0  0  0  0  0  0  0  0  0
    9.3013  -18.8135   18.5815 O   0  0  0  0  0  0  0  0  0  0  0  0
    5.6447  -12.2402   26.0118 N   0  0  0  0  0  0  0  0  0  0  0  0
    6.7858  -12.4568   26.8260 C   0  0  0  0  0  0  0  0  0  0  0  0
    6.8264  -11.8249   27.9280 O   0  0  0  0  0  0  0  0  0  0  0  0
    7.8767  -13.3819   26.3996 C   0  0  0  0  0  0  0  0  0  0  0  0
    7.5447  -13.8371   24.9947 C   0  0  0  0  0  0  0  0  0  0  0  0
    8.5484  -14.7754   24.4163 C   0  0  2  0  0  0  0  0  0  0  0  0
    8.3045  -15.2443   23.1097 N   0  0  0  0  0  0  0  0  0  0  0  0
    8.6761  -15.9365   25.3326 C   0  0  0  0  0  0  0  0  0  0  0  0
    7.7674  -16.8006   25.4645 O   0  0  0  0  0  0  0  0  0  0  0  0
   11.3319  -18.0808   25.2403 O   0  0  0  0  0  0  0  0  0  0  0  0
   11.3912  -17.8748   26.6091 C   0  0  0  0  0  0  0  0  0  0  0  0
   10.0998  -17.1708   27.0144 C   0  0  2  0  0  0  0  0  0  0  0  0
    9.8698  -16.0755   26.0871 N   0  0  0  0  0  0  0  0  0  0  0  0
   10.2649  -16.6528   28.3869 C   0  0  0  0  0  0  0  0  0  0  0  0
   10.1853  -15.4340   28.6458 O   0  0  0  0  0  0  0  0  0  0  0  0
   10.5142  -17.5278   29.4192 O   0  0  0  0  0  0  0  0  0  0  0  0
  2  1  1  6
  2  3  1  0
  4  3  1  0
  5  4  2  0
  6  2  1  0
  7  6  2  0
  8  4  1  0
  9 10  1  0
 10 11  2  0
 10 12  1  0
 12 13  1  0
 14 13  1  1
 14 15  1  0
 15  6  1  0
 16 14  1  0
 17 16  2  0
 18 19  1  0
 20 19  1  6
 20 21  1  0
 21 16  1  0
 22 20  1  0
 22 24  1  0
 23 22  2  0
M  END
$$$$
