DQS.pdb
     RDKit          3D

 24 23  0  0  1  0  0  0  0  0999 V2000
   11.4201  -18.6603   21.4189 N   0  0  0  0  0  0  0  0  0  0  0  0
   11.4962  -17.3798   22.0555 C   0  0  1  0  0  0  0  0  0  0  0  0
   11.5749  -16.3314   20.9702 C   0  0  0  0  0  0  0  0  0  0  0  0
   12.8439  -16.4326   20.2101 C   0  0  0  0  0  0  0  0  0  0  0  0
   13.9488  -16.6093   20.8267 O   0  0  0  0  0  0  0  0  0  0  0  0
   10.3124  -17.0914   22.9042 C   0  0  0  0  0  0  0  0  0  0  0  0
    9.1465  -17.4313   22.5797 O   0  0  0  0  0  0  0  0  0  0  0  0
   12.9368  -16.3486   18.8331 O   0  0  0  0  0  0  0  0  0  0  0  0
    9.9299  -18.2094   28.7194 N   0  0  0  0  0  0  0  0  0  0  0  0
   10.4638  -16.8988   28.6226 C   0  0  0  0  0  0  0  0  0  0  0  0
   10.9517  -16.4034   29.6866 O   0  0  0  0  0  0  0  0  0  0  0  0
   10.4476  -16.1497   27.3318 C   0  0  0  0  0  0  0  0  0  0  0  0
    9.5110  -16.8921   26.4029 C   0  0  0  0  0  0  0  0  0  0  0  0
    9.3501  -16.2433   25.0705 C   0  0  2  0  0  0  0  0  0  0  0  0
   10.4028  -16.4103   24.1483 N   0  0  0  0  0  0  0  0  0  0  0  0
    9.1214  -14.7926   25.2885 C   0  0  0  0  0  0  0  0  0  0  0  0
   10.0666  -13.9662   25.4050 O   0  0  0  0  0  0  0  0  0  0  0  0
    5.2826  -13.6800   26.1952 O   0  0  0  0  0  0  0  0  0  0  0  0
    5.9545  -12.7501   25.4184 C   0  0  0  0  0  0  0  0  0  0  0  0
    7.4459  -12.9428   25.6756 C   0  0  2  0  0  0  0  0  0  0  0  0
    7.7850  -14.3221   25.3675 N   0  0  0  0  0  0  0  0  0  0  0  0
    7.7120  -12.6565   27.0991 C   0  0  0  0  0  0  0  0  0  0  0  0
    8.0645  -13.5498   27.8968 O   0  0  0  0  0  0  0  0  0  0  0  0
    7.5711  -11.3723   27.5729 O   0  0  0  0  0  0  0  0  0  0  0  0
  2  1  1  6
  2  3  1  0
  4  3  1  0
  5  4  2  0
  6  2  1  0
  7  6  2  0
  8  4  1  0
  9 10  1  0
 10 11  2  0
 10 12  1  0
 12 13  1  0
 14 13  1  1
 14 15  1  0
 15  6  1  0
 16 14  1  0
 17 16  2  0
 18 19  1  0
 20 19  1  1
 20 21  1  0
 21 16  1  0
 22 20  1  0
 22 24  1  0
 23 22  2  0
M  END
$$$$
