DQS.pdb
     RDKit          3D

 24 23  0  0  1  0  0  0  0  0999 V2000
   -2.2283  -26.1301   28.1500 N   0  0  0  0  0  0  0  0  0  0  0  0
   -2.2873  -25.4869   29.4281 C   0  0  1  0  0  0  0  0  0  0  0  0
   -0.9157  -24.9264   29.7239 C   0  0  0  0  0  0  0  0  0  0  0  0
    0.0738  -26.0070   29.9511 C   0  0  0  0  0  0  0  0  0  0  0  0
   -0.2880  -27.1039   30.4971 O   0  0  0  0  0  0  0  0  0  0  0  0
   -3.2690  -24.3734   29.4636 C   0  0  0  0  0  0  0  0  0  0  0  0
   -3.4184  -23.6331   30.4685 O   0  0  0  0  0  0  0  0  0  0  0  0
    1.4107  -25.9249   29.6077 O   0  0  0  0  0  0  0  0  0  0  0  0
   -5.0721  -21.0497   24.6097 N   0  0  0  0  0  0  0  0  0  0  0  0
   -3.8841  -20.8800   25.3658 C   0  0  0  0  0  0  0  0  0  0  0  0
   -2.9493  -20.2178   24.8153 O   0  0  0  0  0  0  0  0  0  0  0  0
   -3.7504  -21.4545   26.7369 C   0  0  0  0  0  0  0  0  0  0  0  0
   -5.0393  -22.1903   27.0342 C   0  0  0  0  0  0  0  0  0  0  0  0
   -5.0064  -22.9657   28.3070 C   0  0  2  0  0  0  0  0  0  0  0  0
   -4.1153  -24.0560   28.3669 N   0  0  0  0  0  0  0  0  0  0  0  0
   -6.3822  -23.4471   28.5895 C   0  0  0  0  0  0  0  0  0  0  0  0
   -6.8546  -24.4950   28.0712 O   0  0  0  0  0  0  0  0  0  0  0  0
   -7.6885  -24.2275   31.7646 O   0  0  0  0  0  0  0  0  0  0  0  0
   -8.4097  -24.4509   30.6029 C   0  0  0  0  0  0  0  0  0  0  0  0
   -8.5264  -23.1118   29.8813 C   0  0  2  0  0  0  0  0  0  0  0  0
   -7.1933  -22.6956   29.4788 N   0  0  0  0  0  0  0  0  0  0  0  0
   -9.1079  -22.1296   30.8173 C   0  0  0  0  0  0  0  0  0  0  0  0
   -8.4585  -21.1458   31.2286 O   0  0  0  0  0  0  0  0  0  0  0  0
  -10.4018  -22.2915   31.2568 O   0  0  0  0  0  0  0  0  0  0  0  0
  2  1  1  6
  2  3  1  0
  4  3  1  0
  5  4  2  0
  6  2  1  0
  7  6  2  0
  8  4  1  0
  9 10  1  0
 10 11  2  0
 10 12  1  0
 12 13  1  0
 14 13  1  6
 14 15  1  0
 15  6  1  0
 16 14  1  0
 17 16  2  0
 18 19  1  0
 20 19  1  1
 20 21  1  0
 21 16  1  0
 22 20  1  0
 22 24  1  0
 23 22  2  0
M  END
$$$$
