DQS.pdb
     RDKit          3D

 24 23  0  0  1  0  0  0  0  0999 V2000
   10.2067  -18.9084   21.5942 N   0  0  0  0  0  0  0  0  0  0  0  0
   10.3799  -17.4877   21.5468 C   0  0  1  0  0  0  0  0  0  0  0  0
    9.6763  -16.9804   20.3096 C   0  0  0  0  0  0  0  0  0  0  0  0
   10.3282  -17.4762   19.0737 C   0  0  0  0  0  0  0  0  0  0  0  0
   11.3447  -18.2464   19.1491 O   0  0  0  0  0  0  0  0  0  0  0  0
    9.8045  -16.8012   22.7310 C   0  0  0  0  0  0  0  0  0  0  0  0
    9.6504  -15.5548   22.7837 O   0  0  0  0  0  0  0  0  0  0  0  0
    9.9118  -17.1628   17.7930 O   0  0  0  0  0  0  0  0  0  0  0  0
    7.3066  -21.2028   27.1736 N   0  0  0  0  0  0  0  0  0  0  0  0
    7.2481  -19.8103   26.9097 C   0  0  0  0  0  0  0  0  0  0  0  0
    6.2385  -19.1870   27.3652 O   0  0  0  0  0  0  0  0  0  0  0  0
    8.3234  -19.1234   26.1353 C   0  0  0  0  0  0  0  0  0  0  0  0
    7.8003  -17.7484   25.7789 C   0  0  0  0  0  0  0  0  0  0  0  0
    8.7788  -16.9116   25.0275 C   0  0  2  0  0  0  0  0  0  0  0  0
    9.3824  -17.4968   23.8963 N   0  0  0  0  0  0  0  0  0  0  0  0
    9.8380  -16.4789   25.9736 C   0  0  0  0  0  0  0  0  0  0  0  0
   10.9533  -17.0613   26.0569 O   0  0  0  0  0  0  0  0  0  0  0  0
    8.7204  -13.4983   28.3359 O   0  0  0  0  0  0  0  0  0  0  0  0
   10.0990  -13.4604   28.2030 C   0  0  0  0  0  0  0  0  0  0  0  0
   10.5478  -14.8533   27.7715 C   0  0  2  0  0  0  0  0  0  0  0  0
    9.5810  -15.3653   26.8147 N   0  0  0  0  0  0  0  0  0  0  0  0
   10.5912  -15.7179   28.9672 C   0  0  0  0  0  0  0  0  0  0  0  0
    9.8226  -16.6921   29.1048 O   0  0  0  0  0  0  0  0  0  0  0  0
   11.5000  -15.4531   29.9659 O   0  0  0  0  0  0  0  0  0  0  0  0
  2  1  1  1
  2  3  1  0
  4  3  1  0
  5  4  2  0
  6  2  1  0
  7  6  2  0
  8  4  1  0
  9 10  1  0
 10 11  2  0
 10 12  1  0
 12 13  1  0
 14 13  1  1
 14 15  1  0
 15  6  1  0
 16 14  1  0
 17 16  2  0
 18 19  1  0
 20 19  1  1
 20 21  1  0
 21 16  1  0
 22 20  1  0
 22 24  1  0
 23 22  2  0
M  END
$$$$
