DQS.pdb
     RDKit          3D

 24 23  0  0  1  0  0  0  0  0999 V2000
   10.7910  -18.5272   16.4998 N   0  0  0  0  0  0  0  0  0  0  0  0
    9.7669  -18.4192   17.4948 C   0  0  1  0  0  0  0  0  0  0  0  0
    9.4233  -19.8173   17.9536 C   0  0  0  0  0  0  0  0  0  0  0  0
    8.5735  -20.5195   16.9621 C   0  0  0  0  0  0  0  0  0  0  0  0
    9.1043  -21.0762   15.9420 O   0  0  0  0  0  0  0  0  0  0  0  0
   10.1973  -17.6283   18.6756 C   0  0  0  0  0  0  0  0  0  0  0  0
   11.3452  -17.7297   19.1777 O   0  0  0  0  0  0  0  0  0  0  0  0
    7.1980  -20.6276   17.0517 O   0  0  0  0  0  0  0  0  0  0  0  0
    7.0927  -12.7272   21.0151 N   0  0  0  0  0  0  0  0  0  0  0  0
    7.9525  -12.6245   19.8915 C   0  0  0  0  0  0  0  0  0  0  0  0
    7.7920  -11.6097   19.1434 O   0  0  0  0  0  0  0  0  0  0  0  0
    8.9888  -13.6618   19.6124 C   0  0  0  0  0  0  0  0  0  0  0  0
    8.8819  -14.6983   20.7104 C   0  0  0  0  0  0  0  0  0  0  0  0
    9.6926  -15.9237   20.4581 C   0  0  2  0  0  0  0  0  0  0  0  0
    9.3482  -16.6954   19.3302 N   0  0  0  0  0  0  0  0  0  0  0  0
    9.6254  -16.7787   21.6700 C   0  0  0  0  0  0  0  0  0  0  0  0
    8.5919  -17.4279   21.9866 O   0  0  0  0  0  0  0  0  0  0  0  0
   11.9925  -19.4719   24.6779 O   0  0  0  0  0  0  0  0  0  0  0  0
   11.9445  -18.7139   23.5191 C   0  0  0  0  0  0  0  0  0  0  0  0
   10.8254  -17.6922   23.6960 C   0  0  2  0  0  0  0  0  0  0  0  0
   10.7721  -16.8662   22.5013 N   0  0  0  0  0  0  0  0  0  0  0  0
   11.1363  -16.8634   24.8774 C   0  0  0  0  0  0  0  0  0  0  0  0
   11.4171  -15.6511   24.7770 O   0  0  0  0  0  0  0  0  0  0  0  0
   11.1195  -17.4313   26.1307 O   0  0  0  0  0  0  0  0  0  0  0  0
  2  1  1  6
  2  3  1  0
  4  3  1  0
  5  4  2  0
  6  2  1  0
  7  6  2  0
  8  4  1  0
  9 10  1  0
 10 11  2  0
 10 12  1  0
 12 13  1  0
 14 13  1  1
 14 15  1  0
 15  6  1  0
 16 14  1  0
 17 16  2  0
 18 19  1  0
 20 19  1  6
 20 21  1  0
 21 16  1  0
 22 20  1  0
 22 24  1  0
 23 22  2  0
M  END
$$$$
