DQS.pdb
     RDKit          3D

 24 23  0  0  1  0  0  0  0  0999 V2000
   11.3758  -16.2871   14.7807 N   0  0  0  0  0  0  0  0  0  0  0  0
   10.8696  -15.6778   15.9737 C   0  0  1  0  0  0  0  0  0  0  0  0
    9.4016  -16.0206   16.0770 C   0  0  0  0  0  0  0  0  0  0  0  0
    8.6529  -15.5632   14.8819 C   0  0  0  0  0  0  0  0  0  0  0  0
    9.2707  -15.0074   13.9116 O   0  0  0  0  0  0  0  0  0  0  0  0
   11.5541  -16.1628   17.1988 C   0  0  0  0  0  0  0  0  0  0  0  0
   12.1474  -17.2698   17.2508 O   0  0  0  0  0  0  0  0  0  0  0  0
    7.2856  -15.6928   14.7216 O   0  0  0  0  0  0  0  0  0  0  0  0
   16.4389  -14.5439   19.9253 N   0  0  0  0  0  0  0  0  0  0  0  0
   15.6616  -14.0476   18.8476 C   0  0  0  0  0  0  0  0  0  0  0  0
   16.2987  -13.5216   17.8818 O   0  0  0  0  0  0  0  0  0  0  0  0
   14.1722  -14.1437   18.8588 C   0  0  0  0  0  0  0  0  0  0  0  0
   13.8212  -15.4801   19.4769 C   0  0  0  0  0  0  0  0  0  0  0  0
   12.3552  -15.7407   19.5479 C   0  0  2  0  0  0  0  0  0  0  0  0
   11.5936  -15.4159   18.4073 N   0  0  0  0  0  0  0  0  0  0  0  0
   11.8124  -15.0069   20.7189 C   0  0  0  0  0  0  0  0  0  0  0  0
   11.1652  -13.9308   20.6055 O   0  0  0  0  0  0  0  0  0  0  0  0
    8.9876  -16.8158   23.4670 O   0  0  0  0  0  0  0  0  0  0  0  0
    9.9219  -16.6230   22.4623 C   0  0  0  0  0  0  0  0  0  0  0  0
   10.9810  -15.6709   23.0095 C   0  0  2  0  0  0  0  0  0  0  0  0
   12.0327  -15.5418   22.0147 N   0  0  0  0  0  0  0  0  0  0  0  0
   11.5236  -16.2472   24.2555 C   0  0  0  0  0  0  0  0  0  0  0  0
   12.5828  -16.9080   24.2699 O   0  0  0  0  0  0  0  0  0  0  0  0
   10.8523  -16.0582   25.4417 O   0  0  0  0  0  0  0  0  0  0  0  0
  2  1  1  6
  2  3  1  0
  4  3  1  0
  5  4  2  0
  6  2  1  0
  7  6  2  0
  8  4  1  0
  9 10  1  0
 10 11  2  0
 10 12  1  0
 12 13  1  0
 14 13  1  6
 14 15  1  0
 15  6  1  0
 16 14  1  0
 17 16  2  0
 18 19  1  0
 20 19  1  6
 20 21  1  0
 21 16  1  0
 22 20  1  0
 22 24  1  0
 23 22  2  0
M  END
$$$$
