DQS.pdb
     RDKit          3D

 24 23  0  0  1  0  0  0  0  0999 V2000
    9.8702  -18.9858   18.9217 N   0  0  0  0  0  0  0  0  0  0  0  0
   11.1432  -18.3315   18.9660 C   0  0  1  0  0  0  0  0  0  0  0  0
   11.6528  -18.2221   17.5478 C   0  0  0  0  0  0  0  0  0  0  0  0
   11.6762  -19.5441   16.8769 C   0  0  0  0  0  0  0  0  0  0  0  0
   11.3527  -19.6443   15.6450 O   0  0  0  0  0  0  0  0  0  0  0  0
   11.0652  -16.9664   19.5452 C   0  0  0  0  0  0  0  0  0  0  0  0
   12.0561  -16.1948   19.5982 O   0  0  0  0  0  0  0  0  0  0  0  0
   12.0335  -20.7270   17.4972 O   0  0  0  0  0  0  0  0  0  0  0  0
    6.5438  -12.8122   19.3923 N   0  0  0  0  0  0  0  0  0  0  0  0
    7.4561  -13.2156   18.3838 C   0  0  0  0  0  0  0  0  0  0  0  0
    7.1905  -12.8480   17.1965 O   0  0  0  0  0  0  0  0  0  0  0  0
    8.6628  -14.0303   18.7125 C   0  0  0  0  0  0  0  0  0  0  0  0
    8.6273  -14.2892   20.2034 C   0  0  0  0  0  0  0  0  0  0  0  0
    9.7384  -15.1572   20.6872 C   0  0  2  0  0  0  0  0  0  0  0  0
    9.8669  -16.4244   20.0839 N   0  0  0  0  0  0  0  0  0  0  0  0
    9.5829  -15.3312   22.1535 C   0  0  0  0  0  0  0  0  0  0  0  0
    8.4745  -15.1970   22.7394 O   0  0  0  0  0  0  0  0  0  0  0  0
   10.5086  -18.1989   23.8181 O   0  0  0  0  0  0  0  0  0  0  0  0
    9.8947  -17.2121   24.5723 C   0  0  0  0  0  0  0  0  0  0  0  0
   10.6794  -15.9227   24.3504 C   0  0  2  0  0  0  0  0  0  0  0  0
   10.7293  -15.6622   22.9214 N   0  0  0  0  0  0  0  0  0  0  0  0
   12.0429  -16.1119   24.8837 C   0  0  0  0  0  0  0  0  0  0  0  0
   13.0479  -16.1017   24.1431 O   0  0  0  0  0  0  0  0  0  0  0  0
   12.2248  -16.3059   26.2337 O   0  0  0  0  0  0  0  0  0  0  0  0
  2  1  1  6
  2  3  1  0
  4  3  1  0
  5  4  2  0
  6  2  1  0
  7  6  2  0
  8  4  1  0
  9 10  1  0
 10 11  2  0
 10 12  1  0
 12 13  1  0
 14 13  1  6
 14 15  1  0
 15  6  1  0
 16 14  1  0
 17 16  2  0
 18 19  1  0
 20 19  1  6
 20 21  1  0
 21 16  1  0
 22 20  1  0
 22 24  1  0
 23 22  2  0
M  END
$$$$
