DQS.pdb
     RDKit          3D

 24 23  0  0  1  0  0  0  0  0999 V2000
   12.3620  -19.2891   21.4916 N   0  0  0  0  0  0  0  0  0  0  0  0
   12.1826  -17.8775   21.6523 C   0  0  1  0  0  0  0  0  0  0  0  0
   11.5471  -17.3485   20.3876 C   0  0  0  0  0  0  0  0  0  0  0  0
   12.5491  -17.1773   19.3083 C   0  0  0  0  0  0  0  0  0  0  0  0
   13.7854  -17.4022   19.5389 O   0  0  0  0  0  0  0  0  0  0  0  0
   11.3021  -17.5393   22.7991 C   0  0  0  0  0  0  0  0  0  0  0  0
   10.1877  -16.9758   22.6551 O   0  0  0  0  0  0  0  0  0  0  0  0
   12.2463  -16.7786   18.0194 O   0  0  0  0  0  0  0  0  0  0  0  0
   11.2834  -22.2241   26.9054 N   0  0  0  0  0  0  0  0  0  0  0  0
   10.5718  -21.0008   27.0011 C   0  0  0  0  0  0  0  0  0  0  0  0
   10.0395  -20.7389   28.1251 O   0  0  0  0  0  0  0  0  0  0  0  0
   10.4607  -20.0766   25.8344 C   0  0  0  0  0  0  0  0  0  0  0  0
   10.8620  -18.7009   26.3218 C   0  0  0  0  0  0  0  0  0  0  0  0
   10.8064  -17.6512   25.2649 C   0  0  2  0  0  0  0  0  0  0  0  0
   11.6477  -17.8256   24.1476 N   0  0  0  0  0  0  0  0  0  0  0  0
   11.1062  -16.3423   25.8984 C   0  0  0  0  0  0  0  0  0  0  0  0
   12.2821  -15.9093   26.0386 O   0  0  0  0  0  0  0  0  0  0  0  0
    7.8642  -14.1109   27.0248 O   0  0  0  0  0  0  0  0  0  0  0  0
    8.9970  -13.3903   26.6825 C   0  0  0  0  0  0  0  0  0  0  0  0
   10.2031  -14.2640   27.0136 C   0  0  2  0  0  0  0  0  0  0  0  0
   10.0236  -15.5508   26.3623 N   0  0  0  0  0  0  0  0  0  0  0  0
   10.2629  -14.4362   28.4785 C   0  0  0  0  0  0  0  0  0  0  0  0
   10.4625  -13.4735   29.2480 O   0  0  0  0  0  0  0  0  0  0  0  0
   10.0957  -15.6883   29.0241 O   0  0  0  0  0  0  0  0  0  0  0  0
  2  1  1  6
  2  3  1  0
  4  3  1  0
  5  4  2  0
  6  2  1  0
  7  6  2  0
  8  4  1  0
  9 10  1  0
 10 11  2  0
 10 12  1  0
 12 13  1  0
 14 13  1  1
 14 15  1  0
 15  6  1  0
 16 14  1  0
 17 16  2  0
 18 19  1  0
 20 19  1  1
 20 21  1  0
 21 16  1  0
 22 20  1  0
 22 24  1  0
 23 22  2  0
M  END
$$$$
