DQS.pdb
     RDKit          3D

 24 23  0  0  1  0  0  0  0  0999 V2000
    8.0887  -19.0983   16.2693 N   0  0  0  0  0  0  0  0  0  0  0  0
    7.4071  -18.4017   17.3186 C   0  0  1  0  0  0  0  0  0  0  0  0
    7.0644  -19.4090   18.3914 C   0  0  0  0  0  0  0  0  0  0  0  0
    6.0020  -20.3400   17.9411 C   0  0  0  0  0  0  0  0  0  0  0  0
    5.5731  -20.2908   16.7387 O   0  0  0  0  0  0  0  0  0  0  0  0
    8.2356  -17.3297   17.9262 C   0  0  0  0  0  0  0  0  0  0  0  0
    9.4911  -17.3256   17.8637 O   0  0  0  0  0  0  0  0  0  0  0  0
    5.4115  -21.2971   18.7456 O   0  0  0  0  0  0  0  0  0  0  0  0
   11.0841  -12.8808   19.8250 N   0  0  0  0  0  0  0  0  0  0  0  0
    9.7902  -12.6727   19.2821 C   0  0  0  0  0  0  0  0  0  0  0  0
    9.7345  -12.3390   18.0570 O   0  0  0  0  0  0  0  0  0  0  0  0
    8.5643  -12.8400   20.1169 C   0  0  0  0  0  0  0  0  0  0  0  0
    7.7114  -13.8925   19.4418 C   0  0  0  0  0  0  0  0  0  0  0  0
    8.4079  -15.1968   19.2526 C   0  0  2  0  0  0  0  0  0  0  0  0
    7.6768  -16.2252   18.6246 N   0  0  0  0  0  0  0  0  0  0  0  0
    8.8684  -15.6710   20.5821 C   0  0  0  0  0  0  0  0  0  0  0  0
    8.0711  -15.9327   21.5232 O   0  0  0  0  0  0  0  0  0  0  0  0
   11.6048  -18.1213   20.8065 O   0  0  0  0  0  0  0  0  0  0  0  0
   10.9486  -17.8183   21.9886 C   0  0  0  0  0  0  0  0  0  0  0  0
   10.8209  -16.2995   22.0557 C   0  0  2  0  0  0  0  0  0  0  0  0
   10.2613  -15.8352   20.7972 N   0  0  0  0  0  0  0  0  0  0  0  0
   12.1674  -15.7292   22.2580 C   0  0  0  0  0  0  0  0  0  0  0  0
   12.7365  -15.0531   21.3762 O   0  0  0  0  0  0  0  0  0  0  0  0
   12.8247  -15.9416   23.4481 O   0  0  0  0  0  0  0  0  0  0  0  0
  2  1  1  6
  2  3  1  0
  4  3  1  0
  5  4  2  0
  6  2  1  0
  7  6  2  0
  8  4  1  0
  9 10  1  0
 10 11  2  0
 10 12  1  0
 12 13  1  0
 14 13  1  1
 14 15  1  0
 15  6  1  0
 16 14  1  0
 17 16  2  0
 18 19  1  0
 20 19  1  6
 20 21  1  0
 21 16  1  0
 22 20  1  0
 22 24  1  0
 23 22  2  0
M  END
$$$$
