DQS.pdb
     RDKit          3D

 24 23  0  0  1  0  0  0  0  0999 V2000
   15.0292  -14.1316   18.3267 N   0  0  0  0  0  0  0  0  0  0  0  0
   13.7527  -14.7704   18.2121 C   0  0  1  0  0  0  0  0  0  0  0  0
   13.9952  -16.2262   17.8882 C   0  0  0  0  0  0  0  0  0  0  0  0
   14.4786  -16.3987   16.4972 C   0  0  0  0  0  0  0  0  0  0  0  0
   14.9484  -15.4006   15.8528 O   0  0  0  0  0  0  0  0  0  0  0  0
   12.9591  -14.6922   19.4646 C   0  0  0  0  0  0  0  0  0  0  0  0
   13.4913  -14.6024   20.5999 O   0  0  0  0  0  0  0  0  0  0  0  0
   14.4638  -17.5982   15.8097 O   0  0  0  0  0  0  0  0  0  0  0  0
    6.8282  -13.1996   20.0942 N   0  0  0  0  0  0  0  0  0  0  0  0
    7.6571  -13.1492   18.9442 C   0  0  0  0  0  0  0  0  0  0  0  0
    7.1229  -12.7129   17.8767 O   0  0  0  0  0  0  0  0  0  0  0  0
    9.0825  -13.5890   18.9975 C   0  0  0  0  0  0  0  0  0  0  0  0
    9.3527  -14.0373   20.4177 C   0  0  0  0  0  0  0  0  0  0  0  0
   10.7280  -14.5737   20.6250 C   0  0  2  0  0  0  0  0  0  0  0  0
   11.5381  -14.7120   19.4799 N   0  0  0  0  0  0  0  0  0  0  0  0
   10.6125  -15.8912   21.2996 C   0  0  0  0  0  0  0  0  0  0  0  0
   10.2040  -16.9252   20.7048 O   0  0  0  0  0  0  0  0  0  0  0  0
   13.2575  -17.0492   23.4176 O   0  0  0  0  0  0  0  0  0  0  0  0
   12.2393  -17.9678   23.2198 C   0  0  0  0  0  0  0  0  0  0  0  0
   10.9204  -17.2277   23.4204 C   0  0  2  0  0  0  0  0  0  0  0  0
   10.9778  -15.9858   22.6675 N   0  0  0  0  0  0  0  0  0  0  0  0
   10.7612  -16.9456   24.8607 C   0  0  0  0  0  0  0  0  0  0  0  0
   10.7193  -15.7791   25.3035 O   0  0  0  0  0  0  0  0  0  0  0  0
   10.6550  -17.9894   25.7510 O   0  0  0  0  0  0  0  0  0  0  0  0
  2  1  1  1
  2  3  1  0
  4  3  1  0
  5  4  2  0
  6  2  1  0
  7  6  2  0
  8  4  1  0
  9 10  1  0
 10 11  2  0
 10 12  1  0
 12 13  1  0
 14 13  1  6
 14 15  1  0
 15  6  1  0
 16 14  1  0
 17 16  2  0
 18 19  1  0
 20 19  1  1
 20 21  1  0
 21 16  1  0
 22 20  1  0
 22 24  1  0
 23 22  2  0
M  END
$$$$
