DQS.pdb
     RDKit          3D

 24 23  0  0  1  0  0  0  0  0999 V2000
   10.7698  -18.6521   21.1630 N   0  0  0  0  0  0  0  0  0  0  0  0
   11.9681  -19.3807   21.4532 C   0  0  1  0  0  0  0  0  0  0  0  0
   12.8007  -19.4156   20.1928 C   0  0  0  0  0  0  0  0  0  0  0  0
   12.0688  -20.0628   19.0776 C   0  0  0  0  0  0  0  0  0  0  0  0
   11.3324  -21.0828   19.2997 O   0  0  0  0  0  0  0  0  0  0  0  0
   12.7724  -18.7530   22.5320 C   0  0  0  0  0  0  0  0  0  0  0  0
   12.9938  -17.5165   22.5806 O   0  0  0  0  0  0  0  0  0  0  0  0
   12.1175  -19.6381   17.7626 O   0  0  0  0  0  0  0  0  0  0  0  0
   13.2576  -20.6166   28.3562 N   0  0  0  0  0  0  0  0  0  0  0  0
   12.3489  -19.6295   27.8958 C   0  0  0  0  0  0  0  0  0  0  0  0
   11.3474  -19.3871   28.6399 O   0  0  0  0  0  0  0  0  0  0  0  0
   12.5681  -18.9187   26.6018 C   0  0  0  0  0  0  0  0  0  0  0  0
   13.8539  -19.4596   26.0140 C   0  0  0  0  0  0  0  0  0  0  0  0
   14.1375  -18.9648   24.6367 C   0  0  2  0  0  0  0  0  0  0  0  0
   13.3541  -19.4979   23.5934 N   0  0  0  0  0  0  0  0  0  0  0  0
   15.5713  -19.2142   24.3431 C   0  0  0  0  0  0  0  0  0  0  0  0
   15.9716  -20.2481   23.7425 O   0  0  0  0  0  0  0  0  0  0  0  0
   17.6933  -16.5276   21.8091 O   0  0  0  0  0  0  0  0  0  0  0  0
   16.7448  -17.0046   22.6993 C   0  0  0  0  0  0  0  0  0  0  0  0
   17.4993  -17.6580   23.8532 C   0  0  2  0  0  0  0  0  0  0  0  0
   16.5250  -18.2480   24.7560 N   0  0  0  0  0  0  0  0  0  0  0  0
   18.2757  -16.6138   24.5502 C   0  0  0  0  0  0  0  0  0  0  0  0
   17.7360  -15.7982   25.3262 O   0  0  0  0  0  0  0  0  0  0  0  0
   19.6339  -16.5260   24.3473 O   0  0  0  0  0  0  0  0  0  0  0  0
  2  1  1  6
  2  3  1  0
  4  3  1  0
  5  4  2  0
  6  2  1  0
  7  6  2  0
  8  4  1  0
  9 10  1  0
 10 11  2  0
 10 12  1  0
 12 13  1  0
 14 13  1  1
 14 15  1  0
 15  6  1  0
 16 14  1  0
 17 16  2  0
 18 19  1  0
 20 19  1  6
 20 21  1  0
 21 16  1  0
 22 20  1  0
 22 24  1  0
 23 22  2  0
M  END
$$$$
