DQS.pdb
     RDKit          3D

 24 23  0  0  1  0  0  0  0  0999 V2000
    9.6169  -13.2403   18.4177 N   0  0  0  0  0  0  0  0  0  0  0  0
   10.0123  -14.3117   19.2816 C   0  0  1  0  0  0  0  0  0  0  0  0
   11.4328  -14.0455   19.7227 C   0  0  0  0  0  0  0  0  0  0  0  0
   12.3947  -14.2705   18.6171 C   0  0  0  0  0  0  0  0  0  0  0  0
   12.5264  -15.4348   18.1082 O   0  0  0  0  0  0  0  0  0  0  0  0
    9.1559  -14.4183   20.4900 C   0  0  0  0  0  0  0  0  0  0  0  0
    8.7858  -13.4141   21.1494 O   0  0  0  0  0  0  0  0  0  0  0  0
   13.1945  -13.2858   18.0670 O   0  0  0  0  0  0  0  0  0  0  0  0
    5.2339  -19.1340   21.6710 N   0  0  0  0  0  0  0  0  0  0  0  0
    5.0137  -18.3194   22.8112 C   0  0  0  0  0  0  0  0  0  0  0  0
    4.0513  -18.6531   23.5714 O   0  0  0  0  0  0  0  0  0  0  0  0
    5.8748  -17.1333   23.0932 C   0  0  0  0  0  0  0  0  0  0  0  0
    6.8868  -17.0464   21.9709 C   0  0  0  0  0  0  0  0  0  0  0  0
    7.7352  -15.8218   22.0229 C   0  0  2  0  0  0  0  0  0  0  0  0
    8.6868  -15.6609   20.9957 N   0  0  0  0  0  0  0  0  0  0  0  0
    8.4289  -15.7967   23.3354 C   0  0  0  0  0  0  0  0  0  0  0  0
    9.5946  -16.2496   23.4960 O   0  0  0  0  0  0  0  0  0  0  0  0
    8.2195  -13.7326   27.6938 O   0  0  0  0  0  0  0  0  0  0  0  0
    7.6187  -13.9068   26.4575 C   0  0  0  0  0  0  0  0  0  0  0  0
    8.3890  -15.0072   25.7341 C   0  0  2  0  0  0  0  0  0  0  0  0
    7.7497  -15.2394   24.4497 N   0  0  0  0  0  0  0  0  0  0  0  0
    8.3367  -16.2298   26.5598 C   0  0  0  0  0  0  0  0  0  0  0  0
    8.9004  -16.2993   27.6716 O   0  0  0  0  0  0  0  0  0  0  0  0
    7.6504  -17.3313   26.1023 O   0  0  0  0  0  0  0  0  0  0  0  0
  2  1  1  6
  2  3  1  0
  4  3  1  0
  5  4  2  0
  6  2  1  0
  7  6  2  0
  8  4  1  0
  9 10  1  0
 10 11  2  0
 10 12  1  0
 12 13  1  0
 14 13  1  6
 14 15  1  0
 15  6  1  0
 16 14  1  0
 17 16  2  0
 18 19  1  0
 20 19  1  1
 20 21  1  0
 21 16  1  0
 22 20  1  0
 22 24  1  0
 23 22  2  0
M  END
$$$$
