RRN.pdb
     RDKit          3D

 31 30  0  0  1  0  0  0  0  0999 V2000
   21.6628  -31.7920  -15.9585 N   0  0  0  0  0  0  0  0  0  0  0  0
   20.3888  -32.1534  -16.5311 C   0  0  0  0  0  0  0  0  0  0  0  0
   20.2243  -33.3996  -16.7852 N   0  0  0  0  0  0  0  0  0  0  0  0
   19.4069  -31.1570  -16.7813 N   0  0  0  0  0  0  0  0  0  0  0  0
   19.7969  -29.7419  -16.6735 C   0  0  0  0  0  0  0  0  0  0  0  0
   19.3016  -29.2038  -15.3809 C   0  0  0  0  0  0  0  0  0  0  0  0
   19.1326  -27.7377  -15.2750 C   0  0  0  0  0  0  0  0  0  0  0  0
   20.3817  -26.9359  -15.1385 C   0  0  2  0  0  0  0  0  0  0  0  0
   21.3814  -27.6007  -14.3243 N   0  0  0  0  0  0  0  0  0  0  0  0
   20.1543  -25.5907  -14.5797 C   0  0  0  0  0  0  0  0  0  0  0  0
   19.3003  -25.4429  -13.6745 O   0  0  0  0  0  0  0  0  0  0  0  0
   19.3136  -33.7250  -17.1567 N   0  0  0  0  0  0  0  0  0  0  0  0
   25.9421  -21.3928  -14.1064 C   0  0  0  0  0  0  0  0  0  0  0  0
   24.7066  -20.6933  -14.0029 N   0  0  0  0  0  0  0  0  0  0  0  0
   24.3298  -20.2138  -12.8885 N   0  0  0  0  0  0  0  0  0  0  0  0
   23.8490  -20.5022  -15.1336 C   0  0  0  0  0  0  0  0  0  0  0  0
   22.5763  -19.8699  -15.0039 C   0  0  0  0  0  0  0  0  0  0  0  0
   21.5036  -20.7510  -14.3773 C   0  0  0  0  0  0  0  0  0  0  0  0
   21.6550  -22.1094  -14.9634 C   0  0  2  0  0  0  0  0  0  0  0  0
   20.6064  -23.0933  -14.4863 N   0  0  0  0  0  0  0  0  0  0  0  0
   20.8443  -24.4256  -14.9990 C   0  0  0  0  0  0  0  0  0  0  0  0
   19.2342  -22.6210  -14.8392 O   0  0  0  0  0  0  0  0  0  0  0  0
   18.8125  -22.6879  -16.0266 N   0  0  0  0  0  0  0  0  0  0  0  0
   23.3923  -19.7704  -12.7986 C   0  0  0  0  0  0  0  0  0  0  0  0
   13.8560  -21.4995  -13.2335 O   0  0  0  0  0  0  0  0  0  0  0  0
   15.0074  -20.7067  -13.0156 C   0  0  0  0  0  0  0  0  0  0  0  0
   14.8967  -19.4684  -13.0104 C   0  0  1  0  0  0  0  0  0  0  0  0
   16.3352  -21.3214  -12.7947 N   0  0  0  0  0  0  0  0  0  0  0  0
   17.0924  -21.5222  -14.0953 C   0  0  0  0  0  0  0  0  0  0  0  0
   18.3967  -22.0901  -13.8209 O   0  0  0  0  0  0  0  0  0  0  0  0
   17.2038  -20.2481  -14.8495 O   0  0  0  0  0  0  0  0  0  0  0  0
  2  1  1  0
  2  3  2  0
  4  2  1  0
  5  4  1  0
  6  5  1  0
  7  8  1  0
  7  6  1  0
  8  9  1  1
  8 10  1  0
 10 20  1  0
 11 10  2  0
 13 12  1  0
 14 13  2  0
 15 13  1  0
 16 15  1  0
 17 16  1  0
 18 17  1  0
 19 18  1  1
 19 21  1  0
 20 19  1  0
 21 28  1  0
 21 22  2  0
 23 24  1  0
 24 25  2  0
 26 24  1  0
 27 26  1  1
 27 29  1  0
 28 27  1  0
 29 30  2  0
 29 31  1  0
M  END
$$$$
