RRN.pdb
     RDKit          3D

 31 30  0  0  1  0  0  0  0  0999 V2000
   22.1300  -19.3701  -18.9733 N   0  0  0  0  0  0  0  0  0  0  0  0
   22.6726  -20.5058  -18.2682 C   0  0  0  0  0  0  0  0  0  0  0  0
   23.7821  -20.9647  -18.7188 N   0  0  0  0  0  0  0  0  0  0  0  0
   21.9859  -21.0496  -17.1490 N   0  0  0  0  0  0  0  0  0  0  0  0
   20.5340  -20.8335  -17.0412 C   0  0  0  0  0  0  0  0  0  0  0  0
   20.0485  -21.4498  -15.7803 C   0  0  0  0  0  0  0  0  0  0  0  0
   21.0525  -21.7308  -14.7305 C   0  0  0  0  0  0  0  0  0  0  0  0
   21.0919  -23.1268  -14.2095 C   0  0  2  0  0  0  0  0  0  0  0  0
   21.4647  -24.0890  -15.2289 N   0  0  0  0  0  0  0  0  0  0  0  0
   19.8176  -23.5628  -13.6100 C   0  0  0  0  0  0  0  0  0  0  0  0
   18.8972  -23.9648  -14.3595 O   0  0  0  0  0  0  0  0  0  0  0  0
   24.2624  -20.4638  -19.4880 N   0  0  0  0  0  0  0  0  0  0  0  0
   18.1799  -25.5401   -5.2870 C   0  0  0  0  0  0  0  0  0  0  0  0
   18.2957  -26.4526   -6.3734 N   0  0  0  0  0  0  0  0  0  0  0  0
   18.7070  -27.6384   -6.1769 N   0  0  0  0  0  0  0  0  0  0  0  0
   17.9575  -26.0792   -7.7137 C   0  0  0  0  0  0  0  0  0  0  0  0
   17.4168  -24.7931   -8.0141 C   0  0  0  0  0  0  0  0  0  0  0  0
   17.1235  -24.5700   -9.4918 C   0  0  0  0  0  0  0  0  0  0  0  0
   18.4163  -24.2445  -10.1509 C   0  0  1  0  0  0  0  0  0  0  0  0
   18.2763  -23.9046  -11.6205 N   0  0  0  0  0  0  0  0  0  0  0  0
   19.5489  -23.5613  -12.2181 C   0  0  0  0  0  0  0  0  0  0  0  0
   17.2785  -22.8115  -11.8209 O   0  0  0  0  0  0  0  0  0  0  0  0
   17.5384  -21.6267  -11.4732 N   0  0  0  0  0  0  0  0  0  0  0  0
   18.7619  -28.3122   -6.9685 C   0  0  0  0  0  0  0  0  0  0  0  0
   13.6076  -20.3093  -15.6866 O   0  0  0  0  0  0  0  0  0  0  0  0
   13.9169  -20.7053  -14.3640 C   0  0  0  0  0  0  0  0  0  0  0  0
   13.2898  -20.1969  -13.4185 C   0  0  2  0  0  0  0  0  0  0  0  0
   14.9684  -21.7088  -14.0865 N   0  0  0  0  0  0  0  0  0  0  0  0
   14.9938  -22.1164  -12.6242 C   0  0  0  0  0  0  0  0  0  0  0  0
   16.0216  -23.1150  -12.4111 O   0  0  0  0  0  0  0  0  0  0  0  0
   13.6629  -22.6057  -12.1839 O   0  0  0  0  0  0  0  0  0  0  0  0
  2  1  1  0
  2  3  2  0
  4  2  1  0
  5  4  1  0
  6  5  1  0
  7  8  1  0
  7  6  1  0
  8  9  1  6
  8 10  1  0
 10 20  1  0
 11 10  2  0
 13 12  1  0
 14 13  2  0
 15 13  1  0
 16 15  1  0
 17 16  1  0
 18 17  1  0
 19 18  1  6
 19 21  1  0
 20 19  1  0
 21 28  1  0
 21 22  2  0
 23 24  1  0
 24 25  2  0
 26 24  1  0
 27 26  1  6
 27 29  1  0
 28 27  1  0
 29 30  2  0
 29 31  1  0
M  END
$$$$
