RRN.pdb
     RDKit          3D

 31 30  0  0  1  0  0  0  0  0999 V2000
   28.4677  -26.3646  -16.3749 N   0  0  0  0  0  0  0  0  0  0  0  0
   27.2514  -27.0670  -16.7044 C   0  0  0  0  0  0  0  0  0  0  0  0
   27.1953  -28.2923  -16.3298 N   0  0  0  0  0  0  0  0  0  0  0  0
   26.2066  -26.4027  -17.4021 N   0  0  0  0  0  0  0  0  0  0  0  0
   25.7555  -25.0907  -16.9108 C   0  0  0  0  0  0  0  0  0  0  0  0
   25.9451  -25.0373  -15.4389 C   0  0  0  0  0  0  0  0  0  0  0  0
   25.4115  -23.8549  -14.7272 C   0  0  0  0  0  0  0  0  0  0  0  0
   24.0600  -23.3853  -15.1453 C   0  0  2  0  0  0  0  0  0  0  0  0
   23.7364  -22.0774  -14.6081 N   0  0  0  0  0  0  0  0  0  0  0  0
   22.9779  -24.3152  -14.7743 C   0  0  0  0  0  0  0  0  0  0  0  0
   23.0711  -25.5212  -15.1022 O   0  0  0  0  0  0  0  0  0  0  0  0
   26.3534  -28.8527  -16.5546 N   0  0  0  0  0  0  0  0  0  0  0  0
   18.9653  -25.7208   -7.7576 C   0  0  0  0  0  0  0  0  0  0  0  0
   18.2540  -26.5676   -8.6539 N   0  0  0  0  0  0  0  0  0  0  0  0
   17.6789  -27.6172   -8.2281 N   0  0  0  0  0  0  0  0  0  0  0  0
   18.1567  -26.2763  -10.0525 C   0  0  0  0  0  0  0  0  0  0  0  0
   19.0556  -25.3680  -10.6878 C   0  0  0  0  0  0  0  0  0  0  0  0
   18.7611  -25.1293  -12.1629 C   0  0  0  0  0  0  0  0  0  0  0  0
   19.8045  -24.2005  -12.6732 C   0  0  2  0  0  0  0  0  0  0  0  0
   20.7623  -24.8475  -13.6525 N   0  0  0  0  0  0  0  0  0  0  0  0
   21.8134  -23.9393  -14.0586 C   0  0  0  0  0  0  0  0  0  0  0  0
   20.0293  -25.3826  -14.8387 O   0  0  0  0  0  0  0  0  0  0  0  0
   19.6124  -24.6093  -15.7444 N   0  0  0  0  0  0  0  0  0  0  0  0
   17.1470  -28.2262   -8.8837 C   0  0  0  0  0  0  0  0  0  0  0  0
   19.8322  -30.3911  -18.2963 O   0  0  0  0  0  0  0  0  0  0  0  0
   19.3002  -29.2046  -17.7386 C   0  0  0  0  0  0  0  0  0  0  0  0
   18.4478  -28.5650  -18.3788 C   0  0  1  0  0  0  0  0  0  0  0  0
   19.7379  -28.7130  -16.4132 N   0  0  0  0  0  0  0  0  0  0  0  0
   19.1015  -27.3800  -16.0626 C   0  0  0  0  0  0  0  0  0  0  0  0
   19.8011  -26.7816  -14.9439 O   0  0  0  0  0  0  0  0  0  0  0  0
   17.6539  -27.5398  -15.7737 O   0  0  0  0  0  0  0  0  0  0  0  0
  2  1  1  0
  2  3  2  0
  4  2  1  0
  5  4  1  0
  6  5  1  0
  7  8  1  0
  7  6  1  0
  8  9  1  1
  8 10  1  0
 10 20  1  0
 11 10  2  0
 13 12  1  0
 14 13  2  0
 15 13  1  0
 16 15  1  0
 17 16  1  0
 18 17  1  0
 19 18  1  1
 19 21  1  0
 20 19  1  0
 21 28  1  0
 21 22  2  0
 23 24  1  0
 24 25  2  0
 26 24  1  0
 27 26  1  1
 27 29  1  0
 28 27  1  0
 29 30  2  0
 29 31  1  0
M  END
$$$$
