RRN.pdb
     RDKit          3D

 31 30  0  0  1  0  0  0  0  0999 V2000
   31.7231  -20.4523  -10.8783 N   0  0  0  0  0  0  0  0  0  0  0  0
   31.8706  -21.4882  -11.8716 C   0  0  0  0  0  0  0  0  0  0  0  0
   32.6907  -22.4296  -11.5789 N   0  0  0  0  0  0  0  0  0  0  0  0
   31.1331  -21.4280  -13.0850 N   0  0  0  0  0  0  0  0  0  0  0  0
   30.1847  -20.3191  -13.2778 C   0  0  0  0  0  0  0  0  0  0  0  0
   29.1170  -20.4154  -12.2500 C   0  0  0  0  0  0  0  0  0  0  0  0
   27.7169  -20.4602  -12.7265 C   0  0  0  0  0  0  0  0  0  0  0  0
   27.0130  -21.7669  -12.5894 C   0  0  2  0  0  0  0  0  0  0  0  0
   27.1825  -22.6133  -13.7552 N   0  0  0  0  0  0  0  0  0  0  0  0
   25.5687  -21.6279  -12.3284 C   0  0  0  0  0  0  0  0  0  0  0  0
   24.7584  -21.8243  -13.2641 O   0  0  0  0  0  0  0  0  0  0  0  0
   32.8683  -23.1801  -12.2707 N   0  0  0  0  0  0  0  0  0  0  0  0
   19.9008  -23.1726   -7.0675 C   0  0  0  0  0  0  0  0  0  0  0  0
   19.1930  -22.4889   -8.0960 N   0  0  0  0  0  0  0  0  0  0  0  0
   17.9630  -22.2056   -7.9521 N   0  0  0  0  0  0  0  0  0  0  0  0
   19.8277  -22.0961   -9.3180 C   0  0  0  0  0  0  0  0  0  0  0  0
   21.2490  -22.0688   -9.4431 C   0  0  0  0  0  0  0  0  0  0  0  0
   21.8885  -20.7594   -9.0003 C   0  0  0  0  0  0  0  0  0  0  0  0
   23.3350  -20.8428   -9.3360 C   0  0  2  0  0  0  0  0  0  0  0  0
   23.5993  -21.1725  -10.7908 N   0  0  0  0  0  0  0  0  0  0  0  0
   25.0151  -21.2806  -11.0705 C   0  0  0  0  0  0  0  0  0  0  0  0
   22.9511  -20.1709  -11.6895 O   0  0  0  0  0  0  0  0  0  0  0  0
   23.4131  -19.0015  -11.7945 N   0  0  0  0  0  0  0  0  0  0  0  0
   17.4439  -21.7217   -8.7137 C   0  0  0  0  0  0  0  0  0  0  0  0
   19.8496  -18.1556  -15.3318 O   0  0  0  0  0  0  0  0  0  0  0  0
   20.9589  -18.9458  -15.7148 C   0  0  0  0  0  0  0  0  0  0  0  0
   21.3054  -18.9631  -16.9086 C   0  0  1  0  0  0  0  0  0  0  0  0
   21.7109  -19.7487  -14.7251 N   0  0  0  0  0  0  0  0  0  0  0  0
   21.1172  -19.6361  -13.3323 C   0  0  0  0  0  0  0  0  0  0  0  0
   21.7992  -20.5450  -12.4334 O   0  0  0  0  0  0  0  0  0  0  0  0
   19.6546  -19.8911  -13.3540 O   0  0  0  0  0  0  0  0  0  0  0  0
  2  1  1  0
  2  3  2  0
  4  2  1  0
  5  4  1  0
  6  5  1  0
  7  8  1  0
  7  6  1  0
  8  9  1  6
  8 10  1  0
 10 20  1  0
 11 10  2  0
 13 12  1  0
 14 13  2  0
 15 13  1  0
 16 15  1  0
 17 16  1  0
 18 17  1  0
 19 18  1  1
 19 21  1  0
 20 19  1  0
 21 28  1  0
 21 22  2  0
 23 24  1  0
 24 25  2  0
 26 24  1  0
 27 26  1  6
 27 29  1  0
 28 27  1  0
 29 30  2  0
 29 31  1  0
M  END
$$$$
