RRN.pdb
     RDKit          3D

 31 30  0  0  1  0  0  0  0  0999 V2000
   36.5035   -5.5808  -14.4805 N   0  0  0  0  0  0  0  0  0  0  0  0
   36.1385   -4.2577  -14.9250 C   0  0  0  0  0  0  0  0  0  0  0  0
   36.7033   -3.2858  -14.3076 N   0  0  0  0  0  0  0  0  0  0  0  0
   35.2066   -4.0891  -15.9846 N   0  0  0  0  0  0  0  0  0  0  0  0
   34.7851   -5.2758  -16.7465 C   0  0  0  0  0  0  0  0  0  0  0  0
   33.3514   -5.5430  -16.4661 C   0  0  0  0  0  0  0  0  0  0  0  0
   32.7351   -6.7121  -17.1315 C   0  0  0  0  0  0  0  0  0  0  0  0
   32.4090   -7.8747  -16.2576 C   0  0  2  0  0  0  0  0  0  0  0  0
   33.5788   -8.4111  -15.5884 N   0  0  0  0  0  0  0  0  0  0  0  0
   31.7445   -8.9773  -16.9762 C   0  0  0  0  0  0  0  0  0  0  0  0
   32.3331  -10.0788  -17.0810 O   0  0  0  0  0  0  0  0  0  0  0  0
   36.5267   -2.3147  -14.6226 N   0  0  0  0  0  0  0  0  0  0  0  0
   23.3652  -10.0696  -16.2184 C   0  0  0  0  0  0  0  0  0  0  0  0
   24.2136  -10.7428  -15.2946 N   0  0  0  0  0  0  0  0  0  0  0  0
   23.7280  -11.2931  -14.2577 N   0  0  0  0  0  0  0  0  0  0  0  0
   25.6293  -10.8281  -15.4920 C   0  0  0  0  0  0  0  0  0  0  0  0
   26.2510  -10.2968  -16.6615 C   0  0  0  0  0  0  0  0  0  0  0  0
   27.7602  -10.4956  -16.7099 C   0  0  0  0  0  0  0  0  0  0  0  0
   28.2455   -9.8620  -17.9649 C   0  0  2  0  0  0  0  0  0  0  0  0
   29.7417   -9.9889  -18.1660 N   0  0  0  0  0  0  0  0  0  0  0  0
   30.4613   -8.8831  -17.5711 C   0  0  0  0  0  0  0  0  0  0  0  0
   30.0738  -10.1256  -19.6157 O   0  0  0  0  0  0  0  0  0  0  0  0
   30.0476   -9.1240  -20.3826 N   0  0  0  0  0  0  0  0  0  0  0  0
   24.3537  -11.7655  -13.5730 C   0  0  0  0  0  0  0  0  0  0  0  0
   31.6638  -12.2501  -24.0925 O   0  0  0  0  0  0  0  0  0  0  0  0
   31.9716  -13.1634  -23.0567 C   0  0  0  0  0  0  0  0  0  0  0  0
   32.6301  -14.1831  -23.3258 C   0  0  2  0  0  0  0  0  0  0  0  0
   31.5262  -12.9287  -21.6652 N   0  0  0  0  0  0  0  0  0  0  0  0
   30.7772  -11.6159  -21.5216 C   0  0  0  0  0  0  0  0  0  0  0  0
   30.4230  -11.4026  -20.1331 O   0  0  0  0  0  0  0  0  0  0  0  0
   29.5785  -11.5874  -22.3974 O   0  0  0  0  0  0  0  0  0  0  0  0
  2  1  1  0
  2  3  2  0
  4  2  1  0
  5  4  1  0
  6  5  1  0
  7  8  1  0
  7  6  1  0
  8  9  1  6
  8 10  1  0
 10 20  1  0
 11 10  2  0
 13 12  1  0
 14 13  2  0
 15 13  1  0
 16 15  1  0
 17 16  1  0
 18 17  1  0
 19 18  1  1
 19 21  1  0
 20 19  1  0
 21 28  1  0
 21 22  2  0
 23 24  1  0
 24 25  2  0
 26 24  1  0
 27 26  1  6
 27 29  1  0
 28 27  1  0
 29 30  2  0
 29 31  1  0
M  END
$$$$
