RRN.pdb
     RDKit          3D

 31 30  0  0  1  0  0  0  0  0999 V2000
   17.7265  -13.2447  -16.6546 N   0  0  0  0  0  0  0  0  0  0  0  0
   18.3117  -13.2228  -17.9731 C   0  0  0  0  0  0  0  0  0  0  0  0
   18.4308  -12.0651  -18.5119 N   0  0  0  0  0  0  0  0  0  0  0  0
   18.7164  -14.4334  -18.5979 N   0  0  0  0  0  0  0  0  0  0  0  0
   18.7773  -15.6588  -17.7849 C   0  0  0  0  0  0  0  0  0  0  0  0
   20.1473  -15.7995  -17.2291 C   0  0  0  0  0  0  0  0  0  0  0  0
   20.4633  -17.0529  -16.5092 C   0  0  0  0  0  0  0  0  0  0  0  0
   21.2760  -18.0565  -17.2536 C   0  0  2  0  0  0  0  0  0  0  0  0
   21.6113  -17.6147  -18.5940 N   0  0  0  0  0  0  0  0  0  0  0  0
   20.6263  -19.3761  -17.3537 C   0  0  0  0  0  0  0  0  0  0  0  0
   19.9752  -19.6583  -18.3867 O   0  0  0  0  0  0  0  0  0  0  0  0
   18.8145  -11.9899  -19.4713 N   0  0  0  0  0  0  0  0  0  0  0  0
   25.4702  -23.6813  -15.9797 C   0  0  0  0  0  0  0  0  0  0  0  0
   24.2911  -24.2994  -15.4757 N   0  0  0  0  0  0  0  0  0  0  0  0
   24.2729  -24.7926  -14.3052 N   0  0  0  0  0  0  0  0  0  0  0  0
   23.0928  -24.3893  -16.2543 C   0  0  0  0  0  0  0  0  0  0  0  0
   22.9993  -23.7942  -17.5480 C   0  0  0  0  0  0  0  0  0  0  0  0
   22.0245  -22.6268  -17.6280 C   0  0  0  0  0  0  0  0  0  0  0  0
   21.0501  -22.7927  -16.5168 C   0  0  2  0  0  0  0  0  0  0  0  0
   20.0411  -21.6664  -16.4251 N   0  0  0  0  0  0  0  0  0  0  0  0
   20.6837  -20.3720  -16.3466 C   0  0  0  0  0  0  0  0  0  0  0  0
   19.1145  -21.8748  -15.2724 O   0  0  0  0  0  0  0  0  0  0  0  0
   19.4473  -21.5314  -14.1047 N   0  0  0  0  0  0  0  0  0  0  0  0
   23.3905  -25.1827  -13.9143 C   0  0  0  0  0  0  0  0  0  0  0  0
   14.2140  -22.3847  -16.9442 O   0  0  0  0  0  0  0  0  0  0  0  0
   14.9395  -22.1288  -15.7568 C   0  0  0  0  0  0  0  0  0  0  0  0
   15.0301  -20.9597  -15.3437 C   0  0  1  0  0  0  0  0  0  0  0  0
   15.5898  -23.2222  -15.0008 N   0  0  0  0  0  0  0  0  0  0  0  0
   16.9285  -22.7972  -14.4245 C   0  0  0  0  0  0  0  0  0  0  0  0
   17.8429  -22.4681  -15.4990 O   0  0  0  0  0  0  0  0  0  0  0  0
   17.4874  -23.8514  -13.5409 O   0  0  0  0  0  0  0  0  0  0  0  0
  2  1  1  0
  2  3  2  0
  4  2  1  0
  5  4  1  0
  6  5  1  0
  7  8  1  0
  7  6  1  0
  8  9  1  6
  8 10  1  0
 10 20  1  0
 11 10  2  0
 13 12  1  0
 14 13  2  0
 15 13  1  0
 16 15  1  0
 17 16  1  0
 18 17  1  0
 19 18  1  6
 19 21  1  0
 20 19  1  0
 21 28  1  0
 21 22  2  0
 23 24  1  0
 24 25  2  0
 26 24  1  0
 27 26  1  1
 27 29  1  0
 28 27  1  0
 29 30  2  0
 29 31  1  0
M  END
$$$$
