RRN.pdb
     RDKit          3D

 31 30  0  0  1  0  0  0  0  0999 V2000
   16.8491  -24.3765   -7.7674 N   0  0  0  0  0  0  0  0  0  0  0  0
   18.1142  -24.9849   -8.1004 C   0  0  0  0  0  0  0  0  0  0  0  0
   18.7176  -25.5806   -7.1383 N   0  0  0  0  0  0  0  0  0  0  0  0
   18.6219  -24.9038   -9.4253 N   0  0  0  0  0  0  0  0  0  0  0  0
   18.9553  -23.5782   -9.9712 C   0  0  0  0  0  0  0  0  0  0  0  0
   18.3446  -23.4456  -11.3185 C   0  0  0  0  0  0  0  0  0  0  0  0
   18.5224  -22.1559  -12.0214 C   0  0  0  0  0  0  0  0  0  0  0  0
   19.1918  -21.0695  -11.2512 C   0  0  2  0  0  0  0  0  0  0  0  0
   18.2531  -20.0797  -10.7579 N   0  0  0  0  0  0  0  0  0  0  0  0
   20.2378  -20.3687  -12.0183 C   0  0  0  0  0  0  0  0  0  0  0  0
   19.9737  -19.2582  -12.5357 O   0  0  0  0  0  0  0  0  0  0  0  0
   19.6426  -26.0139   -7.3114 N   0  0  0  0  0  0  0  0  0  0  0  0
   27.0581  -23.0335  -15.7327 C   0  0  0  0  0  0  0  0  0  0  0  0
   27.5456  -21.6998  -15.6331 N   0  0  0  0  0  0  0  0  0  0  0  0
   28.2439  -21.1982  -16.5682 N   0  0  0  0  0  0  0  0  0  0  0  0
   27.2730  -20.8786  -14.4922 C   0  0  0  0  0  0  0  0  0  0  0  0
   26.2071  -21.1832  -13.5935 C   0  0  0  0  0  0  0  0  0  0  0  0
   24.9223  -20.4124  -13.8665 C   0  0  0  0  0  0  0  0  0  0  0  0
   23.9132  -20.8788  -12.8786 C   0  0  1  0  0  0  0  0  0  0  0  0
   22.5456  -20.2566  -13.0726 N   0  0  0  0  0  0  0  0  0  0  0  0
   21.5492  -20.8678  -12.2193 C   0  0  0  0  0  0  0  0  0  0  0  0
   22.1322  -20.3172  -14.5066 O   0  0  0  0  0  0  0  0  0  0  0  0
   21.7424  -21.4008  -15.0222 N   0  0  0  0  0  0  0  0  0  0  0  0
   28.5317  -20.1985  -16.5293 C   0  0  0  0  0  0  0  0  0  0  0  0
   19.5075  -17.3644  -18.7669 O   0  0  0  0  0  0  0  0  0  0  0  0
   20.8682  -17.5737  -18.4403 C   0  0  0  0  0  0  0  0  0  0  0  0
   21.7019  -17.6712  -19.3574 C   0  0  1  0  0  0  0  0  0  0  0  0
   21.3154  -17.6782  -17.0336 N   0  0  0  0  0  0  0  0  0  0  0  0
   21.7281  -19.0938  -16.6718 C   0  0  0  0  0  0  0  0  0  0  0  0
   22.1806  -19.1363  -15.2961 O   0  0  0  0  0  0  0  0  0  0  0  0
   22.7700  -19.5994  -17.6010 O   0  0  0  0  0  0  0  0  0  0  0  0
  2  1  1  0
  2  3  2  0
  4  2  1  0
  5  4  1  0
  6  5  1  0
  7  8  1  0
  7  6  1  0
  8  9  1  6
  8 10  1  0
 10 20  1  0
 11 10  2  0
 13 12  1  0
 14 13  2  0
 15 13  1  0
 16 15  1  0
 17 16  1  0
 18 17  1  0
 19 18  1  1
 19 21  1  0
 20 19  1  0
 21 28  1  0
 21 22  2  0
 23 24  1  0
 24 25  2  0
 26 24  1  0
 27 26  1  1
 27 29  1  0
 28 27  1  0
 29 30  2  0
 29 31  1  0
M  END
$$$$
