RRN.pdb
     RDKit          3D

 31 30  0  0  1  0  0  0  0  0999 V2000
   20.7844  -22.4529   -6.5828 N   0  0  0  0  0  0  0  0  0  0  0  0
   20.5665  -21.7452   -7.8210 C   0  0  0  0  0  0  0  0  0  0  0  0
   19.4531  -21.9828   -8.4114 N   0  0  0  0  0  0  0  0  0  0  0  0
   21.5522  -20.8502   -8.3180 N   0  0  0  0  0  0  0  0  0  0  0  0
   22.8670  -21.3917   -8.6980 C   0  0  0  0  0  0  0  0  0  0  0  0
   23.8821  -20.3136   -8.5848 C   0  0  0  0  0  0  0  0  0  0  0  0
   24.7217  -20.0431   -9.7726 C   0  0  0  0  0  0  0  0  0  0  0  0
   24.7154  -21.0851  -10.8384 C   0  0  2  0  0  0  0  0  0  0  0  0
   25.7841  -22.0522  -10.6750 N   0  0  0  0  0  0  0  0  0  0  0  0
   24.8039  -20.5281  -12.2005 C   0  0  0  0  0  0  0  0  0  0  0  0
   24.5251  -19.3202  -12.3845 O   0  0  0  0  0  0  0  0  0  0  0  0
   19.2272  -21.4794   -9.2882 N   0  0  0  0  0  0  0  0  0  0  0  0
   29.1471  -23.7052  -16.4172 C   0  0  0  0  0  0  0  0  0  0  0  0
   28.7354  -23.4303  -17.7519 N   0  0  0  0  0  0  0  0  0  0  0  0
   28.8864  -24.3011  -18.6643 N   0  0  0  0  0  0  0  0  0  0  0  0
   28.1413  -22.1798  -18.1174 C   0  0  0  0  0  0  0  0  0  0  0  0
   27.7674  -21.2173  -17.1323 C   0  0  0  0  0  0  0  0  0  0  0  0
   26.2631  -21.0653  -16.9489 C   0  0  0  0  0  0  0  0  0  0  0  0
   25.9140  -21.6983  -15.6493 C   0  0  2  0  0  0  0  0  0  0  0  0
   25.1887  -20.7671  -14.6995 N   0  0  0  0  0  0  0  0  0  0  0  0
   25.1889  -21.2729  -13.3435 C   0  0  0  0  0  0  0  0  0  0  0  0
   23.7967  -20.5037  -15.1723 O   0  0  0  0  0  0  0  0  0  0  0  0
   22.8593  -21.3039  -14.9017 N   0  0  0  0  0  0  0  0  0  0  0  0
   28.6424  -24.0748  -19.6507 C   0  0  0  0  0  0  0  0  0  0  0  0
   20.2082  -15.8754  -16.9150 O   0  0  0  0  0  0  0  0  0  0  0  0
   20.8080  -17.1143  -17.2421 C   0  0  0  0  0  0  0  0  0  0  0  0
   20.2151  -17.8880  -18.0138 C   0  0  1  0  0  0  0  0  0  0  0  0
   22.1222  -17.5046  -16.6851 N   0  0  0  0  0  0  0  0  0  0  0  0
   22.2044  -18.9960  -16.4131 C   0  0  0  0  0  0  0  0  0  0  0  0
   23.5298  -19.3354  -15.9366 O   0  0  0  0  0  0  0  0  0  0  0  0
   21.8462  -19.7791  -17.6227 O   0  0  0  0  0  0  0  0  0  0  0  0
  2  1  1  0
  2  3  2  0
  4  2  1  0
  5  4  1  0
  6  5  1  0
  7  8  1  0
  7  6  1  0
  8  9  1  1
  8 10  1  0
 10 20  1  0
 11 10  2  0
 13 12  1  0
 14 13  2  0
 15 13  1  0
 16 15  1  0
 17 16  1  0
 18 17  1  0
 19 18  1  1
 19 21  1  0
 20 19  1  0
 21 28  1  0
 21 22  2  0
 23 24  1  0
 24 25  2  0
 26 24  1  0
 27 26  1  6
 27 29  1  0
 28 27  1  0
 29 30  2  0
 29 31  1  0
M  END
$$$$
