RRN.pdb
     RDKit          3D

 31 30  0  0  1  0  0  0  0  0999 V2000
   29.5590  -23.8160  -17.1163 N   0  0  0  0  0  0  0  0  0  0  0  0
   28.6609  -22.6911  -17.2138 C   0  0  0  0  0  0  0  0  0  0  0  0
   28.4826  -22.2197  -18.3930 N   0  0  0  0  0  0  0  0  0  0  0  0
   28.0352  -22.1704  -16.0488 N   0  0  0  0  0  0  0  0  0  0  0  0
   26.8246  -22.8371  -15.5426 C   0  0  0  0  0  0  0  0  0  0  0  0
   25.6300  -22.1466  -16.0918 C   0  0  0  0  0  0  0  0  0  0  0  0
   24.6559  -21.5988  -15.1222 C   0  0  0  0  0  0  0  0  0  0  0  0
   24.0888  -22.5634  -14.1375 C   0  0  2  0  0  0  0  0  0  0  0  0
   23.8249  -23.8637  -14.7236 N   0  0  0  0  0  0  0  0  0  0  0  0
   22.8480  -22.0860  -13.5002 C   0  0  0  0  0  0  0  0  0  0  0  0
   22.8614  -20.9978  -12.8789 O   0  0  0  0  0  0  0  0  0  0  0  0
   27.9846  -21.3185  -18.5084 N   0  0  0  0  0  0  0  0  0  0  0  0
   18.8659  -18.8277  -17.1274 C   0  0  0  0  0  0  0  0  0  0  0  0
   18.4084  -20.1718  -17.0258 N   0  0  0  0  0  0  0  0  0  0  0  0
   18.3616  -20.9153  -18.0548 N   0  0  0  0  0  0  0  0  0  0  0  0
   17.9887  -20.7354  -15.7782 C   0  0  0  0  0  0  0  0  0  0  0  0
   18.0559  -19.9885  -14.5640 C   0  0  0  0  0  0  0  0  0  0  0  0
   19.2198  -20.3723  -13.6599 C   0  0  0  0  0  0  0  0  0  0  0  0
   19.3484  -21.8529  -13.7159 C   0  0  2  0  0  0  0  0  0  0  0  0
   20.4262  -22.4004  -12.8029 N   0  0  0  0  0  0  0  0  0  0  0  0
   21.6133  -22.7813  -13.5380 C   0  0  0  0  0  0  0  0  0  0  0  0
   19.9077  -23.5439  -11.9940 O   0  0  0  0  0  0  0  0  0  0  0  0
   19.8588  -24.7085  -12.4772 N   0  0  0  0  0  0  0  0  0  0  0  0
   18.0232  -21.8967  -17.9777 C   0  0  0  0  0  0  0  0  0  0  0  0
   17.8818  -26.1759   -7.9544 O   0  0  0  0  0  0  0  0  0  0  0  0
   18.3624  -24.9352   -7.4734 C   0  0  0  0  0  0  0  0  0  0  0  0
   18.4339  -24.7492   -6.2462 C   0  0  2  0  0  0  0  0  0  0  0  0
   18.7794  -23.8593   -8.3999 N   0  0  0  0  0  0  0  0  0  0  0  0
   18.9107  -24.3578   -9.8279 C   0  0  0  0  0  0  0  0  0  0  0  0
   19.4647  -23.3118  -10.6635 O   0  0  0  0  0  0  0  0  0  0  0  0
   17.6041  -24.8329  -10.3490 O   0  0  0  0  0  0  0  0  0  0  0  0
  2  1  1  0
  2  3  2  0
  4  2  1  0
  5  4  1  0
  6  5  1  0
  7  8  1  0
  7  6  1  0
  8  9  1  6
  8 10  1  0
 10 20  1  0
 11 10  2  0
 13 12  1  0
 14 13  2  0
 15 13  1  0
 16 15  1  0
 17 16  1  0
 18 17  1  0
 19 18  1  1
 19 21  1  0
 20 19  1  0
 21 28  1  0
 21 22  2  0
 23 24  1  0
 24 25  2  0
 26 24  1  0
 27 26  1  6
 27 29  1  0
 28 27  1  0
 29 30  2  0
 29 31  1  0
M  END
$$$$
