RRN.pdb
     RDKit          3D

 31 30  0  0  1  0  0  0  0  0999 V2000
   23.3778  -20.2566  -16.6993 N   0  0  0  0  0  0  0  0  0  0  0  0
   24.2714  -21.1883  -16.0552 C   0  0  0  0  0  0  0  0  0  0  0  0
   24.2586  -22.3846  -16.5171 N   0  0  0  0  0  0  0  0  0  0  0  0
   25.0964  -20.7629  -14.9789 N   0  0  0  0  0  0  0  0  0  0  0  0
   24.7960  -21.2553  -13.6248 C   0  0  0  0  0  0  0  0  0  0  0  0
   23.7881  -20.3610  -13.0005 C   0  0  0  0  0  0  0  0  0  0  0  0
   24.0313  -19.9320  -11.6055 C   0  0  0  0  0  0  0  0  0  0  0  0
   23.5722  -20.8644  -10.5371 C   0  0  2  0  0  0  0  0  0  0  0  0
   24.1481  -22.1889  -10.6716 N   0  0  0  0  0  0  0  0  0  0  0  0
   22.1060  -21.0049  -10.4747 C   0  0  0  0  0  0  0  0  0  0  0  0
   21.4088  -20.0021  -10.1935 O   0  0  0  0  0  0  0  0  0  0  0  0
   23.7780  -22.5758  -17.4148 N   0  0  0  0  0  0  0  0  0  0  0  0
   16.1998  -22.9573  -15.9073 C   0  0  0  0  0  0  0  0  0  0  0  0
   16.8934  -21.8428  -15.3566 N   0  0  0  0  0  0  0  0  0  0  0  0
   17.0837  -20.7961  -16.0508 N   0  0  0  0  0  0  0  0  0  0  0  0
   17.3976  -21.8532  -14.0164 C   0  0  0  0  0  0  0  0  0  0  0  0
   17.2895  -23.0113  -13.1896 C   0  0  0  0  0  0  0  0  0  0  0  0
   17.8277  -22.8214  -11.7776 C   0  0  0  0  0  0  0  0  0  0  0  0
   19.2865  -22.5574  -11.8966 C   0  0  1  0  0  0  0  0  0  0  0  0
   19.9817  -22.3942  -10.5605 N   0  0  0  0  0  0  0  0  0  0  0  0
   21.4097  -22.2162  -10.7140 C   0  0  0  0  0  0  0  0  0  0  0  0
   19.6796  -23.5465   -9.6595 O   0  0  0  0  0  0  0  0  0  0  0  0
   20.1238  -24.6999   -9.9135 N   0  0  0  0  0  0  0  0  0  0  0  0
   17.5871  -19.9811  -15.6433 C   0  0  0  0  0  0  0  0  0  0  0  0
   16.7632  -24.6990   -4.2977 O   0  0  0  0  0  0  0  0  0  0  0  0
   17.8227  -24.8174   -5.2277 C   0  0  0  0  0  0  0  0  0  0  0  0
   18.5711  -25.8084   -5.1686 C   0  0  2  0  0  0  0  0  0  0  0  0
   18.0558  -23.7880   -6.2649 N   0  0  0  0  0  0  0  0  0  0  0  0
   18.5765  -24.3906   -7.5575 C   0  0  0  0  0  0  0  0  0  0  0  0
   18.8811  -23.3358   -8.5027 O   0  0  0  0  0  0  0  0  0  0  0  0
   17.6052  -25.3611   -8.1226 O   0  0  0  0  0  0  0  0  0  0  0  0
  2  1  1  0
  2  3  2  0
  4  2  1  0
  5  4  1  0
  6  5  1  0
  7  8  1  0
  7  6  1  0
  8  9  1  6
  8 10  1  0
 10 20  1  0
 11 10  2  0
 13 12  1  0
 14 13  2  0
 15 13  1  0
 16 15  1  0
 17 16  1  0
 18 17  1  0
 19 18  1  6
 19 21  1  0
 20 19  1  0
 21 28  1  0
 21 22  2  0
 23 24  1  0
 24 25  2  0
 26 24  1  0
 27 26  1  6
 27 29  1  0
 28 27  1  0
 29 30  2  0
 29 31  1  0
M  END
$$$$
