RRN.pdb
     RDKit          3D

 31 30  0  0  1  0  0  0  0  0999 V2000
   30.4582  -20.5666  -20.2131 N   0  0  0  0  0  0  0  0  0  0  0  0
   29.9540  -21.6210  -19.3673 C   0  0  0  0  0  0  0  0  0  0  0  0
   30.5445  -22.7543  -19.4756 N   0  0  0  0  0  0  0  0  0  0  0  0
   28.8682  -21.3742  -18.4842 N   0  0  0  0  0  0  0  0  0  0  0  0
   28.2582  -20.0347  -18.4762 C   0  0  0  0  0  0  0  0  0  0  0  0
   27.3087  -19.9456  -17.3377 C   0  0  0  0  0  0  0  0  0  0  0  0
   27.8765  -20.0071  -15.9728 C   0  0  0  0  0  0  0  0  0  0  0  0
   27.6358  -21.2662  -15.2123 C   0  0  2  0  0  0  0  0  0  0  0  0
   27.7071  -22.4451  -16.0545 N   0  0  0  0  0  0  0  0  0  0  0  0
   26.3421  -21.2838  -14.5057 C   0  0  0  0  0  0  0  0  0  0  0  0
   25.3463  -21.7947  -15.0696 O   0  0  0  0  0  0  0  0  0  0  0  0
   30.1828  -23.5669  -18.9444 N   0  0  0  0  0  0  0  0  0  0  0  0
   22.6931  -22.2036   -6.8885 C   0  0  0  0  0  0  0  0  0  0  0  0
   21.7526  -21.6485   -7.8016 N   0  0  0  0  0  0  0  0  0  0  0  0
   20.5242  -21.9647   -7.7320 N   0  0  0  0  0  0  0  0  0  0  0  0
   22.1448  -20.7232   -8.8216 C   0  0  0  0  0  0  0  0  0  0  0  0
   23.4183  -20.8140   -9.4592 C   0  0  0  0  0  0  0  0  0  0  0  0
   23.6471  -19.7713  -10.5454 C   0  0  0  0  0  0  0  0  0  0  0  0
   24.9691  -20.0630  -11.1612 C   0  0  1  0  0  0  0  0  0  0  0  0
   24.8697  -20.7562  -12.5046 N   0  0  0  0  0  0  0  0  0  0  0  0
   26.1350  -20.7540  -13.2073 C   0  0  0  0  0  0  0  0  0  0  0  0
   23.7926  -20.1456  -13.3399 O   0  0  0  0  0  0  0  0  0  0  0  0
   23.8777  -18.9493  -13.7318 N   0  0  0  0  0  0  0  0  0  0  0  0
   19.8386  -21.5543   -8.3992 C   0  0  0  0  0  0  0  0  0  0  0  0
   19.5019  -19.6916  -16.2332 O   0  0  0  0  0  0  0  0  0  0  0  0
   20.0421  -20.9912  -16.3776 C   0  0  0  0  0  0  0  0  0  0  0  0
   19.5868  -21.7406  -17.2589 C   0  0  2  0  0  0  0  0  0  0  0  0
   21.1340  -21.4730  -15.5027 N   0  0  0  0  0  0  0  0  0  0  0  0
   21.5776  -20.4128  -14.5106 C   0  0  0  0  0  0  0  0  0  0  0  0
   22.6592  -20.9264  -13.6948 O   0  0  0  0  0  0  0  0  0  0  0  0
   20.4389  -19.9547  -13.6751 O   0  0  0  0  0  0  0  0  0  0  0  0
  2  1  1  0
  2  3  2  0
  4  2  1  0
  5  4  1  0
  6  5  1  0
  7  8  1  0
  7  6  1  0
  8  9  1  6
  8 10  1  0
 10 20  1  0
 11 10  2  0
 13 12  1  0
 14 13  2  0
 15 13  1  0
 16 15  1  0
 17 16  1  0
 18 17  1  0
 19 18  1  1
 19 21  1  0
 20 19  1  0
 21 28  1  0
 21 22  2  0
 23 24  1  0
 24 25  2  0
 26 24  1  0
 27 26  1  1
 27 29  1  0
 28 27  1  0
 29 30  2  0
 29 31  1  0
M  END
$$$$
