RRN.pdb
     RDKit          3D

 31 30  0  0  1  0  0  0  0  0999 V2000
   19.6189  -32.3187   -3.1071 N   0  0  0  0  0  0  0  0  0  0  0  0
   18.8036  -32.8517   -4.1714 C   0  0  0  0  0  0  0  0  0  0  0  0
   19.2126  -33.9504   -4.6912 N   0  0  0  0  0  0  0  0  0  0  0  0
   17.6287  -32.1678   -4.5855 N   0  0  0  0  0  0  0  0  0  0  0  0
   17.5621  -30.7089   -4.4022 C   0  0  0  0  0  0  0  0  0  0  0  0
   17.4616  -30.4108   -2.9508 C   0  0  0  0  0  0  0  0  0  0  0  0
   17.3457  -28.9898   -2.5552 C   0  0  0  0  0  0  0  0  0  0  0  0
   18.5139  -28.1186   -2.8681 C   0  0  2  0  0  0  0  0  0  0  0  0
   19.4259  -27.9899   -1.7474 N   0  0  0  0  0  0  0  0  0  0  0  0
   18.1317  -26.7642   -3.3074 C   0  0  0  0  0  0  0  0  0  0  0  0
   18.1128  -25.8337   -2.4682 O   0  0  0  0  0  0  0  0  0  0  0  0
   18.7055  -34.3462   -5.5034 N   0  0  0  0  0  0  0  0  0  0  0  0
   19.4830  -24.9971  -11.2494 C   0  0  0  0  0  0  0  0  0  0  0  0
   18.4595  -24.1831  -10.6870 N   0  0  0  0  0  0  0  0  0  0  0  0
   17.6483  -23.5581  -11.4386 N   0  0  0  0  0  0  0  0  0  0  0  0
   18.3023  -24.0370   -9.2712 C   0  0  0  0  0  0  0  0  0  0  0  0
   19.1707  -24.7004   -8.3535 C   0  0  0  0  0  0  0  0  0  0  0  0
   18.9027  -24.3693   -6.8914 C   0  0  0  0  0  0  0  0  0  0  0  0
   17.5598  -24.9145   -6.5577 C   0  0  2  0  0  0  0  0  0  0  0  0
   17.3424  -25.1171   -5.0721 N   0  0  0  0  0  0  0  0  0  0  0  0
   17.7755  -26.4279   -4.6376 C   0  0  0  0  0  0  0  0  0  0  0  0
   15.9145  -24.8765   -4.7059 O   0  0  0  0  0  0  0  0  0  0  0  0
   15.0393  -25.7654   -4.8962 N   0  0  0  0  0  0  0  0  0  0  0  0
   16.8766  -22.9956  -11.0241 C   0  0  0  0  0  0  0  0  0  0  0  0
   12.2341  -22.4784   -1.2908 O   0  0  0  0  0  0  0  0  0  0  0  0
   12.8518  -21.7441   -2.3305 C   0  0  0  0  0  0  0  0  0  0  0  0
   12.2409  -20.7899   -2.8422 C   0  0  1  0  0  0  0  0  0  0  0  0
   14.2056  -22.0893   -2.8180 N   0  0  0  0  0  0  0  0  0  0  0  0
   14.2022  -23.3538   -3.6584 C   0  0  0  0  0  0  0  0  0  0  0  0
   15.5420  -23.6288   -4.1363 O   0  0  0  0  0  0  0  0  0  0  0  0
   13.2377  -23.2446   -4.7820 O   0  0  0  0  0  0  0  0  0  0  0  0
  2  1  1  0
  2  3  2  0
  4  2  1  0
  5  4  1  0
  6  5  1  0
  7  8  1  0
  7  6  1  0
  8  9  1  1
  8 10  1  0
 10 20  1  0
 11 10  2  0
 13 12  1  0
 14 13  2  0
 15 13  1  0
 16 15  1  0
 17 16  1  0
 18 17  1  0
 19 18  1  1
 19 21  1  0
 20 19  1  0
 21 28  1  0
 21 22  2  0
 23 24  1  0
 24 25  2  0
 26 24  1  0
 27 26  1  6
 27 29  1  0
 28 27  1  0
 29 30  2  0
 29 31  1  0
M  END
$$$$
