MFF.pdb
     RDKit          3D

 31 32  0  0  1  0  0  0  0  0999 V2000
    9.4540  -21.6643   20.5813 C   0  0  0  0  0  0  0  0  0  0  0  0
    9.7795  -21.2730   18.8571 S   0  0  0  0  0  0  0  0  0  0  0  0
   10.1211  -19.5215   18.5945 C   0  0  0  0  0  0  0  0  0  0  0  0
   10.0086  -18.7456   19.9027 C   0  0  0  0  0  0  0  0  0  0  0  0
   10.3184  -17.3057   19.5714 C   0  0  2  0  0  0  0  0  0  0  0  0
   11.7116  -17.2655   19.1745 N   0  0  0  0  0  0  0  0  0  0  0  0
   10.0590  -16.3812   20.6729 C   0  0  0  0  0  0  0  0  0  0  0  0
   11.0248  -16.0617   21.4118 O   0  0  0  0  0  0  0  0  0  0  0  0
    8.7940  -15.8152   20.9721 N   0  0  0  0  0  0  0  0  0  0  0  0
    8.5223  -15.3286   22.2825 C   0  0  1  0  0  0  0  0  0  0  0  0
    7.2371  -14.5392   22.3732 C   0  0  0  0  0  0  0  0  0  0  0  0
    6.9811  -13.9543   23.7001 C   0  0  0  0  0  0  0  0  0  0  0  0
    6.2282  -14.6565   24.6155 C   0  0  0  0  0  0  0  0  0  0  0  0
    5.9700  -14.1250   25.8804 C   0  0  0  0  0  0  0  0  0  0  0  0
    6.4739  -12.8796   26.2223 C   0  0  0  0  0  0  0  0  0  0  0  0
    7.2200  -12.1752   25.3251 C   0  0  0  0  0  0  0  0  0  0  0  0
    7.4651  -12.7237   24.0703 C   0  0  0  0  0  0  0  0  0  0  0  0
    8.4949  -16.3747   23.3202 C   0  0  0  0  0  0  0  0  0  0  0  0
    8.9131  -17.5190   23.0183 O   0  0  0  0  0  0  0  0  0  0  0  0
    8.0284  -16.1889   24.6473 N   0  0  0  0  0  0  0  0  0  0  0  0
    8.9024  -16.4103   25.8097 C   0  0  1  0  0  0  0  0  0  0  0  0
    9.5029  -15.0805   26.1530 C   0  0  0  0  0  0  0  0  0  0  0  0
   10.2808  -15.0617   27.4055 C   0  0  0  0  0  0  0  0  0  0  0  0
    9.7804  -14.3868   28.4974 C   0  0  0  0  0  0  0  0  0  0  0  0
   10.4503  -14.3300   29.7039 C   0  0  0  0  0  0  0  0  0  0  0  0
   11.6606  -14.9628   29.8410 C   0  0  0  0  0  0  0  0  0  0  0  0
   12.1739  -15.6455   28.7482 C   0  0  0  0  0  0  0  0  0  0  0  0
   11.4955  -15.6938   27.5517 C   0  0  0  0  0  0  0  0  0  0  0  0
    8.0690  -16.9409   26.9152 C   0  0  0  0  0  0  0  0  0  0  0  0
    7.4009  -16.0814   27.7744 O   0  0  0  0  0  0  0  0  0  0  0  0
    7.9373  -18.1753   27.1148 O   0  0  0  0  0  0  0  0  0  0  0  0
  2  1  1  0
  3  4  1  0
  3  2  1  0
  5  4  1  0
  5  6  1  1
  7  5  1  0
  7  8  2  0
  9  7  1  0
 10  9  1  0
 10 11  1  6
 12 11  1  0
 12 17  1  0
 13 12  2  0
 14 13  1  0
 14 15  2  0
 15 16  1  0
 16 17  2  0
 18 10  1  0
 19 18  2  0
 20 18  1  0
 21 20  1  0
 21 29  1  0
 21 22  1  1
 23 22  1  0
 23 24  2  0
 25 24  1  0
 26 25  2  0
 27 28  2  0
 27 26  1  0
 28 23  1  0
 29 30  1  0
 31 29  2  0
M  END
$$$$
