MFF.pdb
     RDKit          3D

 31 32  0  0  1  0  0  0  0  0999 V2000
   11.4690  -19.7821   25.3082 C   0  0  0  0  0  0  0  0  0  0  0  0
   11.5549  -20.8992   23.9022 S   0  0  0  0  0  0  0  0  0  0  0  0
    9.9260  -21.4094   23.3195 C   0  0  0  0  0  0  0  0  0  0  0  0
    9.4336  -20.4857   22.2103 C   0  0  0  0  0  0  0  0  0  0  0  0
    8.0568  -20.0229   22.6218 C   0  0  2  0  0  0  0  0  0  0  0  0
    7.1382  -20.5218   21.6181 N   0  0  0  0  0  0  0  0  0  0  0  0
    7.9432  -18.5730   22.7637 C   0  0  0  0  0  0  0  0  0  0  0  0
    8.1869  -17.8629   21.7552 O   0  0  0  0  0  0  0  0  0  0  0  0
    7.5772  -17.9043   23.9591 N   0  0  0  0  0  0  0  0  0  0  0  0
    7.5978  -16.4815   24.0154 C   0  0  1  0  0  0  0  0  0  0  0  0
    6.5905  -15.9063   24.9836 C   0  0  0  0  0  0  0  0  0  0  0  0
    6.7262  -14.4568   25.2046 C   0  0  0  0  0  0  0  0  0  0  0  0
    6.5220  -13.9424   26.4662 C   0  0  0  0  0  0  0  0  0  0  0  0
    6.6439  -12.5719   26.7032 C   0  0  0  0  0  0  0  0  0  0  0  0
    6.9732  -11.7176   25.6624 C   0  0  0  0  0  0  0  0  0  0  0  0
    7.1775  -12.2145   24.4098 C   0  0  0  0  0  0  0  0  0  0  0  0
    7.0510  -13.5834   24.1959 C   0  0  0  0  0  0  0  0  0  0  0  0
    8.9191  -15.9100   24.3310 C   0  0  0  0  0  0  0  0  0  0  0  0
    9.1214  -14.7014   24.0597 O   0  0  0  0  0  0  0  0  0  0  0  0
    9.9917  -16.6254   24.9234 N   0  0  0  0  0  0  0  0  0  0  0  0
   11.3193  -16.0169   25.1004 C   0  0  1  0  0  0  0  0  0  0  0  0
   11.7608  -16.3511   26.4934 C   0  0  0  0  0  0  0  0  0  0  0  0
   11.0017  -15.6710   27.5591 C   0  0  0  0  0  0  0  0  0  0  0  0
   10.6779  -16.3675   28.7028 C   0  0  0  0  0  0  0  0  0  0  0  0
    9.9736  -15.7954   29.7440 C   0  0  0  0  0  0  0  0  0  0  0  0
    9.5722  -14.4857   29.6559 C   0  0  0  0  0  0  0  0  0  0  0  0
    9.8929  -13.7748   28.5090 C   0  0  0  0  0  0  0  0  0  0  0  0
   10.5953  -14.3576   27.4789 C   0  0  0  0  0  0  0  0  0  0  0  0
   12.2276  -16.5944   24.0808 C   0  0  0  0  0  0  0  0  0  0  0  0
   11.7731  -17.5545   23.1891 O   0  0  0  0  0  0  0  0  0  0  0  0
   13.4306  -16.2412   23.9860 O   0  0  0  0  0  0  0  0  0  0  0  0
  2  1  1  0
  3  4  1  0
  3  2  1  0
  5  4  1  0
  5  6  1  6
  7  5  1  0
  7  8  2  0
  9  7  1  0
 10  9  1  0
 10 11  1  1
 12 11  1  0
 12 17  1  0
 13 12  2  0
 14 13  1  0
 14 15  2  0
 15 16  1  0
 16 17  2  0
 18 10  1  0
 19 18  2  0
 20 18  1  0
 21 20  1  0
 21 29  1  0
 21 22  1  1
 23 22  1  0
 23 24  2  0
 25 24  1  0
 26 25  2  0
 27 28  2  0
 27 26  1  0
 28 23  1  0
 29 30  1  0
 31 29  2  0
M  END
$$$$
