MFF.pdb
     RDKit          3D

 31 32  0  0  1  0  0  0  0  0999 V2000
   11.2214  -22.2877   22.8466 C   0  0  0  0  0  0  0  0  0  0  0  0
    9.7644  -22.9255   22.0084 S   0  0  0  0  0  0  0  0  0  0  0  0
    8.8317  -21.6367   21.1585 C   0  0  0  0  0  0  0  0  0  0  0  0
    9.0728  -20.2771   21.8060 C   0  0  0  0  0  0  0  0  0  0  0  0
    8.1981  -19.2929   21.0674 C   0  0  2  0  0  0  0  0  0  0  0  0
    8.6173  -19.3302   19.6806 N   0  0  0  0  0  0  0  0  0  0  0  0
    8.2648  -17.9338   21.6000 C   0  0  0  0  0  0  0  0  0  0  0  0
    9.2152  -17.2014   21.2244 O   0  0  0  0  0  0  0  0  0  0  0  0
    7.3337  -17.3770   22.5127 N   0  0  0  0  0  0  0  0  0  0  0  0
    7.6394  -16.1633   23.1920 C   0  0  1  0  0  0  0  0  0  0  0  0
    6.4205  -15.4672   23.7513 C   0  0  0  0  0  0  0  0  0  0  0  0
    6.7163  -14.2133   24.4644 C   0  0  0  0  0  0  0  0  0  0  0  0
    7.4036  -13.2113   23.8151 C   0  0  0  0  0  0  0  0  0  0  0  0
    7.6974  -12.0127   24.4680 C   0  0  0  0  0  0  0  0  0  0  0  0
    7.2959  -11.8252   25.7815 C   0  0  0  0  0  0  0  0  0  0  0  0
    6.6155  -12.8092   26.4345 C   0  0  0  0  0  0  0  0  0  0  0  0
    6.3331  -13.9956   25.7650 C   0  0  0  0  0  0  0  0  0  0  0  0
    8.6243  -16.3121   24.2781 C   0  0  0  0  0  0  0  0  0  0  0  0
    8.2480  -16.0846   25.4537 O   0  0  0  0  0  0  0  0  0  0  0  0
    9.9783  -16.6962   24.0983 N   0  0  0  0  0  0  0  0  0  0  0  0
   11.0400  -16.2232   25.0000 C   0  0  1  0  0  0  0  0  0  0  0  0
   10.6611  -16.6713   26.3793 C   0  0  0  0  0  0  0  0  0  0  0  0
   10.3709  -15.5767   27.3238 C   0  0  0  0  0  0  0  0  0  0  0  0
   10.5262  -15.7962   28.6750 C   0  0  0  0  0  0  0  0  0  0  0  0
   10.2780  -14.8177   29.6176 C   0  0  0  0  0  0  0  0  0  0  0  0
    9.8605  -13.5739   29.2141 C   0  0  0  0  0  0  0  0  0  0  0  0
    9.7009  -13.3418   27.8560 C   0  0  0  0  0  0  0  0  0  0  0  0
    9.9519  -14.3262   26.9276 C   0  0  0  0  0  0  0  0  0  0  0  0
   12.3200  -16.8259   24.5567 C   0  0  0  0  0  0  0  0  0  0  0  0
   13.5183  -16.4636   25.1536 O   0  0  0  0  0  0  0  0  0  0  0  0
   12.3688  -17.6780   23.6334 O   0  0  0  0  0  0  0  0  0  0  0  0
  2  1  1  0
  3  4  1  0
  3  2  1  0
  5  4  1  0
  5  6  1  6
  7  5  1  0
  7  8  2  0
  9  7  1  0
 10  9  1  0
 10 11  1  1
 12 11  1  0
 12 17  1  0
 13 12  2  0
 14 13  1  0
 14 15  2  0
 15 16  1  0
 16 17  2  0
 18 10  1  0
 19 18  2  0
 20 18  1  0
 21 20  1  0
 21 29  1  0
 21 22  1  1
 23 22  1  0
 23 24  2  0
 25 24  1  0
 26 25  2  0
 27 28  2  0
 27 26  1  0
 28 23  1  0
 29 30  1  0
 31 29  2  0
M  END
$$$$
