MFF.pdb
     RDKit          3D

 31 32  0  0  1  0  0  0  0  0999 V2000
   10.6481  -21.8649   20.2688 C   0  0  0  0  0  0  0  0  0  0  0  0
   10.9813  -21.2700   18.6053 S   0  0  0  0  0  0  0  0  0  0  0  0
   10.5398  -19.5349   18.3863 C   0  0  0  0  0  0  0  0  0  0  0  0
   10.2755  -18.8691   19.7327 C   0  0  0  0  0  0  0  0  0  0  0  0
    9.8426  -17.4548   19.4304 C   0  0  2  0  0  0  0  0  0  0  0  0
   10.8399  -16.9015   18.5364 N   0  0  0  0  0  0  0  0  0  0  0  0
    9.6845  -16.6223   20.6209 C   0  0  0  0  0  0  0  0  0  0  0  0
   10.7246  -16.1743   21.1670 O   0  0  0  0  0  0  0  0  0  0  0  0
    8.4404  -16.2806   21.2087 N   0  0  0  0  0  0  0  0  0  0  0  0
    8.4054  -15.5936   22.4556 C   0  0  1  0  0  0  0  0  0  0  0  0
    7.0531  -14.9994   22.7736 C   0  0  0  0  0  0  0  0  0  0  0  0
    6.9928  -14.2947   24.0652 C   0  0  0  0  0  0  0  0  0  0  0  0
    7.6767  -13.1091   24.2220 C   0  0  0  0  0  0  0  0  0  0  0  0
    7.6368  -12.4209   25.4360 C   0  0  0  0  0  0  0  0  0  0  0  0
    6.9036  -12.9317   26.4958 C   0  0  0  0  0  0  0  0  0  0  0  0
    6.2229  -14.1039   26.3529 C   0  0  0  0  0  0  0  0  0  0  0  0
    6.2763  -14.7732   25.1345 C   0  0  0  0  0  0  0  0  0  0  0  0
    8.8321  -16.4103   23.6057 C   0  0  0  0  0  0  0  0  0  0  0  0
    8.3298  -17.5527   23.7394 O   0  0  0  0  0  0  0  0  0  0  0  0
    9.7757  -16.0032   24.5841 N   0  0  0  0  0  0  0  0  0  0  0  0
   10.3839  -16.9655   25.5158 C   0  0  1  0  0  0  0  0  0  0  0  0
   11.4399  -16.2186   26.2734 C   0  0  0  0  0  0  0  0  0  0  0  0
   10.9257  -15.3343   27.3356 C   0  0  0  0  0  0  0  0  0  0  0  0
   10.7703  -15.8346   28.6098 C   0  0  0  0  0  0  0  0  0  0  0  0
   10.2991  -15.0650   29.6553 C   0  0  0  0  0  0  0  0  0  0  0  0
    9.9677  -13.7508   29.4378 C   0  0  0  0  0  0  0  0  0  0  0  0
   10.1202  -13.2365   28.1588 C   0  0  0  0  0  0  0  0  0  0  0  0
   10.5911  -14.0150   27.1262 C   0  0  0  0  0  0  0  0  0  0  0  0
    9.3172  -17.4727   26.4119 C   0  0  0  0  0  0  0  0  0  0  0  0
    9.5658  -18.5179   27.2889 O   0  0  0  0  0  0  0  0  0  0  0  0
    8.1596  -16.9816   26.4116 O   0  0  0  0  0  0  0  0  0  0  0  0
  2  1  1  0
  3  4  1  0
  3  2  1  0
  5  4  1  0
  5  6  1  6
  7  5  1  0
  7  8  2  0
  9  7  1  0
 10  9  1  0
 10 11  1  1
 12 11  1  0
 12 17  1  0
 13 12  2  0
 14 13  1  0
 14 15  2  0
 15 16  1  0
 16 17  2  0
 18 10  1  0
 19 18  2  0
 20 18  1  0
 21 20  1  0
 21 29  1  0
 21 22  1  1
 23 22  1  0
 23 24  2  0
 25 24  1  0
 26 25  2  0
 27 28  2  0
 27 26  1  0
 28 23  1  0
 29 30  1  0
 31 29  2  0
M  END
$$$$
