MFF.pdb
     RDKit          3D

 31 32  0  0  1  0  0  0  0  0999 V2000
    6.6333  -21.1684   25.4720 C   0  0  0  0  0  0  0  0  0  0  0  0
    5.2670  -21.3702   24.3211 S   0  0  0  0  0  0  0  0  0  0  0  0
    5.4714  -20.3897   22.8211 C   0  0  0  0  0  0  0  0  0  0  0  0
    6.5920  -19.3690   22.9895 C   0  0  0  0  0  0  0  0  0  0  0  0
    6.6656  -18.5998   21.6926 C   0  0  2  0  0  0  0  0  0  0  0  0
    7.0291  -19.5568   20.6668 N   0  0  0  0  0  0  0  0  0  0  0  0
    7.6065  -17.4823   21.7257 C   0  0  0  0  0  0  0  0  0  0  0  0
    8.7824  -17.6923   21.3334 O   0  0  0  0  0  0  0  0  0  0  0  0
    7.2911  -16.1732   22.1692 N   0  0  0  0  0  0  0  0  0  0  0  0
    8.3280  -15.2164   22.3625 C   0  0  1  0  0  0  0  0  0  0  0  0
    7.9499  -13.8248   21.9113 C   0  0  0  0  0  0  0  0  0  0  0  0
    7.6328  -13.7213   20.4771 C   0  0  0  0  0  0  0  0  0  0  0  0
    8.6209  -13.3534   19.5903 C   0  0  0  0  0  0  0  0  0  0  0  0
    8.3472  -13.2473   18.2254 C   0  0  0  0  0  0  0  0  0  0  0  0
    7.0710  -13.5134   17.7540 C   0  0  0  0  0  0  0  0  0  0  0  0
    6.0851  -13.8780   18.6216 C   0  0  0  0  0  0  0  0  0  0  0  0
    6.3797  -13.9778   19.9776 C   0  0  0  0  0  0  0  0  0  0  0  0
    8.8208  -15.1336   23.7489 C   0  0  0  0  0  0  0  0  0  0  0  0
    8.2258  -14.3658   24.5438 O   0  0  0  0  0  0  0  0  0  0  0  0
    9.9262  -15.8606   24.2617 N   0  0  0  0  0  0  0  0  0  0  0  0
   10.5340  -15.5259   25.5589 C   0  0  1  0  0  0  0  0  0  0  0  0
    9.4734  -15.7402   26.5962 C   0  0  0  0  0  0  0  0  0  0  0  0
    9.8711  -15.3723   27.9677 C   0  0  0  0  0  0  0  0  0  0  0  0
   10.1967  -16.3677   28.8628 C   0  0  0  0  0  0  0  0  0  0  0  0
   10.5825  -16.0988   30.1614 C   0  0  0  0  0  0  0  0  0  0  0  0
   10.6506  -14.7986   30.5961 C   0  0  0  0  0  0  0  0  0  0  0  0
   10.3251  -13.7883   29.7032 C   0  0  0  0  0  0  0  0  0  0  0  0
    9.9422  -14.0707   28.4118 C   0  0  0  0  0  0  0  0  0  0  0  0
   11.6963  -16.4229   25.7653 C   0  0  0  0  0  0  0  0  0  0  0  0
   11.6179  -17.7698   25.4442 O   0  0  0  0  0  0  0  0  0  0  0  0
   12.7848  -16.0030   26.2341 O   0  0  0  0  0  0  0  0  0  0  0  0
  2  1  1  0
  3  4  1  0
  3  2  1  0
  5  4  1  0
  5  6  1  6
  7  5  1  0
  7  8  2  0
  9  7  1  0
 10  9  1  0
 10 11  1  1
 12 11  1  0
 12 17  1  0
 13 12  2  0
 14 13  1  0
 14 15  2  0
 15 16  1  0
 16 17  2  0
 18 10  1  0
 19 18  2  0
 20 18  1  0
 21 20  1  0
 21 29  1  0
 21 22  1  1
 23 22  1  0
 23 24  2  0
 25 24  1  0
 26 25  2  0
 27 28  2  0
 27 26  1  0
 28 23  1  0
 29 30  1  0
 31 29  2  0
M  END
$$$$
