MFF.pdb
     RDKit          3D

 31 32  0  0  1  0  0  0  0  0999 V2000
   10.7717  -23.5339   19.7103 C   0  0  0  0  0  0  0  0  0  0  0  0
   10.7924  -22.2061   20.9222 S   0  0  0  0  0  0  0  0  0  0  0  0
   10.0126  -20.6978   20.3139 C   0  0  0  0  0  0  0  0  0  0  0  0
   10.0165  -19.6148   21.3877 C   0  0  0  0  0  0  0  0  0  0  0  0
    9.2866  -18.4309   20.8008 C   0  0  2  0  0  0  0  0  0  0  0  0
    9.9395  -18.1274   19.5431 N   0  0  0  0  0  0  0  0  0  0  0  0
    9.2648  -17.2617   21.6770 C   0  0  0  0  0  0  0  0  0  0  0  0
   10.2349  -16.4641   21.6169 O   0  0  0  0  0  0  0  0  0  0  0  0
    8.2270  -16.9582   22.5940 N   0  0  0  0  0  0  0  0  0  0  0  0
    8.3030  -15.7824   23.3938 C   0  0  1  0  0  0  0  0  0  0  0  0
    6.9730  -15.3709   23.9807 C   0  0  0  0  0  0  0  0  0  0  0  0
    7.0172  -14.1198   24.7560 C   0  0  0  0  0  0  0  0  0  0  0  0
    6.4775  -14.0892   26.0232 C   0  0  0  0  0  0  0  0  0  0  0  0
    6.5057  -12.9161   26.7795 C   0  0  0  0  0  0  0  0  0  0  0  0
    7.0811  -11.7694   26.2545 C   0  0  0  0  0  0  0  0  0  0  0  0
    7.6182  -11.7871   25.0019 C   0  0  0  0  0  0  0  0  0  0  0  0
    7.5794  -12.9669   24.2656 C   0  0  0  0  0  0  0  0  0  0  0  0
    9.2858  -15.8613   24.4892 C   0  0  0  0  0  0  0  0  0  0  0  0
    9.6067  -14.7982   25.0742 O   0  0  0  0  0  0  0  0  0  0  0  0
    9.9043  -17.0562   24.9395 N   0  0  0  0  0  0  0  0  0  0  0  0
   11.0779  -17.0299   25.8262 C   0  0  1  0  0  0  0  0  0  0  0  0
   10.5531  -16.9633   27.2287 C   0  0  0  0  0  0  0  0  0  0  0  0
   10.3508  -15.5971   27.7456 C   0  0  0  0  0  0  0  0  0  0  0  0
    9.2721  -15.3409   28.5634 C   0  0  0  0  0  0  0  0  0  0  0  0
    9.0217  -14.0882   29.0884 C   0  0  0  0  0  0  0  0  0  0  0  0
    9.8666  -13.0465   28.7968 C   0  0  0  0  0  0  0  0  0  0  0  0
   10.9560  -13.2931   27.9745 C   0  0  0  0  0  0  0  0  0  0  0  0
   11.1935  -14.5466   27.4583 C   0  0  0  0  0  0  0  0  0  0  0  0
   11.8598  -18.2668   25.5883 C   0  0  0  0  0  0  0  0  0  0  0  0
   11.4015  -19.2369   24.7095 O   0  0  0  0  0  0  0  0  0  0  0  0
   12.9551  -18.4824   26.1670 O   0  0  0  0  0  0  0  0  0  0  0  0
  2  1  1  0
  3  4  1  0
  3  2  1  0
  5  4  1  0
  5  6  1  6
  7  5  1  0
  7  8  2  0
  9  7  1  0
 10  9  1  0
 10 11  1  1
 12 11  1  0
 12 17  1  0
 13 12  2  0
 14 13  1  0
 14 15  2  0
 15 16  1  0
 16 17  2  0
 18 10  1  0
 19 18  2  0
 20 18  1  0
 21 20  1  0
 21 29  1  0
 21 22  1  1
 23 22  1  0
 23 24  2  0
 25 24  1  0
 26 25  2  0
 27 28  2  0
 27 26  1  0
 28 23  1  0
 29 30  1  0
 31 29  2  0
M  END
$$$$
