MFF.pdb
     RDKit          3D

 31 32  0  0  1  0  0  0  0  0999 V2000
   12.0042  -21.8710   20.4278 C   0  0  0  0  0  0  0  0  0  0  0  0
   11.8466  -21.1992   18.7677 S   0  0  0  0  0  0  0  0  0  0  0  0
   10.7649  -19.7574   18.7013 C   0  0  0  0  0  0  0  0  0  0  0  0
   11.2094  -18.7000   19.7064 C   0  0  0  0  0  0  0  0  0  0  0  0
   10.1672  -17.6085   19.6647 C   0  0  2  0  0  0  0  0  0  0  0  0
   10.5558  -16.7094   18.5966 N   0  0  0  0  0  0  0  0  0  0  0  0
   10.0191  -16.8901   20.9284 C   0  0  0  0  0  0  0  0  0  0  0  0
   10.9331  -16.0940   21.2626 O   0  0  0  0  0  0  0  0  0  0  0  0
    8.9168  -17.0243   21.8099 N   0  0  0  0  0  0  0  0  0  0  0  0
    8.8925  -16.3017   23.0368 C   0  0  1  0  0  0  0  0  0  0  0  0
    7.5016  -15.8942   23.4638 C   0  0  0  0  0  0  0  0  0  0  0  0
    7.4701  -14.8140   24.4640 C   0  0  0  0  0  0  0  0  0  0  0  0
    8.2594  -13.6996   24.2818 C   0  0  0  0  0  0  0  0  0  0  0  0
    8.2490  -12.6611   25.2149 C   0  0  0  0  0  0  0  0  0  0  0  0
    7.4386  -12.7482   26.3362 C   0  0  0  0  0  0  0  0  0  0  0  0
    6.6534  -13.8456   26.5276 C   0  0  0  0  0  0  0  0  0  0  0  0
    6.6792  -14.8688   25.5852 C   0  0  0  0  0  0  0  0  0  0  0  0
    9.5331  -17.0043   24.1627 C   0  0  0  0  0  0  0  0  0  0  0  0
   10.3838  -17.8893   23.9013 O   0  0  0  0  0  0  0  0  0  0  0  0
    9.2615  -16.7569   25.5333 N   0  0  0  0  0  0  0  0  0  0  0  0
   10.0164  -17.4290   26.6022 C   0  0  1  0  0  0  0  0  0  0  0  0
    9.5138  -16.8684   27.8984 C   0  0  0  0  0  0  0  0  0  0  0  0
    9.5472  -15.3968   27.9862 C   0  0  0  0  0  0  0  0  0  0  0  0
    9.0230  -14.7780   29.1000 C   0  0  0  0  0  0  0  0  0  0  0  0
    9.0235  -13.4055   29.2539 C   0  0  0  0  0  0  0  0  0  0  0  0
    9.5613  -12.6106   28.2726 C   0  0  0  0  0  0  0  0  0  0  0  0
   10.0920  -13.2229   27.1469 C   0  0  0  0  0  0  0  0  0  0  0  0
   10.0849  -14.5920   27.0067 C   0  0  0  0  0  0  0  0  0  0  0  0
    9.7624  -18.8858   26.4962 C   0  0  0  0  0  0  0  0  0  0  0  0
    8.7749  -19.3736   25.6535 O   0  0  0  0  0  0  0  0  0  0  0  0
   10.4237  -19.7257   27.1583 O   0  0  0  0  0  0  0  0  0  0  0  0
  2  1  1  0
  3  4  1  0
  3  2  1  0
  5  4  1  0
  5  6  1  6
  7  5  1  0
  7  8  2  0
  9  7  1  0
 10  9  1  0
 10 11  1  1
 12 11  1  0
 12 17  1  0
 13 12  2  0
 14 13  1  0
 14 15  2  0
 15 16  1  0
 16 17  2  0
 18 10  1  0
 19 18  2  0
 20 18  1  0
 21 20  1  0
 21 29  1  0
 21 22  1  1
 23 22  1  0
 23 24  2  0
 25 24  1  0
 26 25  2  0
 27 28  2  0
 27 26  1  0
 28 23  1  0
 29 30  1  0
 31 29  2  0
M  END
$$$$
