MFF.pdb
     RDKit          3D

 31 32  0  0  1  0  0  0  0  0999 V2000
   11.1438  -22.1630   21.0498 C   0  0  0  0  0  0  0  0  0  0  0  0
   10.8606  -21.9668   19.2853 S   0  0  0  0  0  0  0  0  0  0  0  0
   10.3020  -20.3076   18.8514 C   0  0  0  0  0  0  0  0  0  0  0  0
   10.4900  -19.3491   20.0227 C   0  0  0  0  0  0  0  0  0  0  0  0
    9.8621  -18.0407   19.6068 C   0  0  2  0  0  0  0  0  0  0  0  0
   10.7153  -17.4842   18.5761 N   0  0  0  0  0  0  0  0  0  0  0  0
    9.6863  -17.0976   20.7091 C   0  0  0  0  0  0  0  0  0  0  0  0
   10.6698  -16.3861   21.0363 O   0  0  0  0  0  0  0  0  0  0  0  0
    8.4842  -16.9245   21.4406 N   0  0  0  0  0  0  0  0  0  0  0  0
    8.4479  -16.0365   22.5533 C   0  0  1  0  0  0  0  0  0  0  0  0
    7.0481  -15.6222   22.9429 C   0  0  0  0  0  0  0  0  0  0  0  0
    6.9952  -14.5477   23.9483 C   0  0  0  0  0  0  0  0  0  0  0  0
    6.4828  -14.8155   25.1988 C   0  0  0  0  0  0  0  0  0  0  0  0
    6.4206  -13.8149   26.1705 C   0  0  0  0  0  0  0  0  0  0  0  0
    6.8774  -12.5391   25.8785 C   0  0  0  0  0  0  0  0  0  0  0  0
    7.3863  -12.2619   24.6449 C   0  0  0  0  0  0  0  0  0  0  0  0
    7.4390  -13.2738   23.6916 C   0  0  0  0  0  0  0  0  0  0  0  0
    9.1284  -16.5492   23.7558 C   0  0  0  0  0  0  0  0  0  0  0  0
    8.8420  -17.7058   24.1503 O   0  0  0  0  0  0  0  0  0  0  0  0
   10.0917  -15.8314   24.5108 N   0  0  0  0  0  0  0  0  0  0  0  0
   10.9974  -16.5109   25.4500 C   0  0  1  0  0  0  0  0  0  0  0  0
   11.6651  -15.4362   26.2538 C   0  0  0  0  0  0  0  0  0  0  0  0
   10.8953  -14.9752   27.4240 C   0  0  0  0  0  0  0  0  0  0  0  0
   10.1353  -13.8308   27.3200 C   0  0  0  0  0  0  0  0  0  0  0  0
    9.3852  -13.3417   28.3714 C   0  0  0  0  0  0  0  0  0  0  0  0
    9.3831  -14.0055   29.5729 C   0  0  0  0  0  0  0  0  0  0  0  0
   10.1445  -15.1589   29.6889 C   0  0  0  0  0  0  0  0  0  0  0  0
   10.8874  -15.6350   28.6327 C   0  0  0  0  0  0  0  0  0  0  0  0
   10.1833  -17.4111   26.3015 C   0  0  0  0  0  0  0  0  0  0  0  0
    8.7985  -17.3944   26.2290 O   0  0  0  0  0  0  0  0  0  0  0  0
   10.7098  -18.2144   27.1129 O   0  0  0  0  0  0  0  0  0  0  0  0
  2  1  1  0
  3  4  1  0
  3  2  1  0
  5  4  1  0
  5  6  1  6
  7  5  1  0
  7  8  2  0
  9  7  1  0
 10  9  1  0
 10 11  1  1
 12 11  1  0
 12 17  1  0
 13 12  2  0
 14 13  1  0
 14 15  2  0
 15 16  1  0
 16 17  2  0
 18 10  1  0
 19 18  2  0
 20 18  1  0
 21 20  1  0
 21 29  1  0
 21 22  1  1
 23 22  1  0
 23 24  2  0
 25 24  1  0
 26 25  2  0
 27 28  2  0
 27 26  1  0
 28 23  1  0
 29 30  1  0
 31 29  2  0
M  END
$$$$
