MFF.pdb
     RDKit          3D

 31 32  0  0  1  0  0  0  0  0999 V2000
   12.7638  -21.2474   20.8419 C   0  0  0  0  0  0  0  0  0  0  0  0
   12.5221  -20.8516   19.1049 S   0  0  0  0  0  0  0  0  0  0  0  0
   11.7667  -19.2322   18.8598 C   0  0  0  0  0  0  0  0  0  0  0  0
   10.5040  -19.0902   19.7032 C   0  0  0  0  0  0  0  0  0  0  0  0
    9.9592  -17.7101   19.4247 C   0  0  2  0  0  0  0  0  0  0  0  0
   10.9032  -17.0676   18.5324 N   0  0  0  0  0  0  0  0  0  0  0  0
    9.7457  -16.9096   20.6284 C   0  0  0  0  0  0  0  0  0  0  0  0
   10.6983  -16.1986   21.0380 O   0  0  0  0  0  0  0  0  0  0  0  0
    8.5393  -16.8747   21.3723 N   0  0  0  0  0  0  0  0  0  0  0  0
    8.4570  -16.0961   22.5618 C   0  0  1  0  0  0  0  0  0  0  0  0
    7.0578  -15.6137   22.8656 C   0  0  0  0  0  0  0  0  0  0  0  0
    6.9625  -14.7504   24.0547 C   0  0  0  0  0  0  0  0  0  0  0  0
    7.3548  -13.4326   23.9677 C   0  0  0  0  0  0  0  0  0  0  0  0
    7.2752  -12.5925   25.0799 C   0  0  0  0  0  0  0  0  0  0  0  0
    6.7978  -13.0848   26.2847 C   0  0  0  0  0  0  0  0  0  0  0  0
    6.4068  -14.3867   26.3833 C   0  0  0  0  0  0  0  0  0  0  0  0
    6.4944  -15.2063   25.2625 C   0  0  0  0  0  0  0  0  0  0  0  0
    8.9824  -16.7715   23.7617 C   0  0  0  0  0  0  0  0  0  0  0  0
    8.6029  -17.9450   23.9944 O   0  0  0  0  0  0  0  0  0  0  0  0
    9.8929  -16.1943   24.6842 N   0  0  0  0  0  0  0  0  0  0  0  0
   10.6878  -17.0229   25.6038 C   0  0  1  0  0  0  0  0  0  0  0  0
   11.7997  -16.1543   26.1098 C   0  0  0  0  0  0  0  0  0  0  0  0
   11.4066  -15.2061   27.1685 C   0  0  0  0  0  0  0  0  0  0  0  0
   11.0391  -13.9248   26.8204 C   0  0  0  0  0  0  0  0  0  0  0  0
   10.6548  -12.9845   27.7562 C   0  0  0  0  0  0  0  0  0  0  0  0
   10.6311  -13.3188   29.0873 C   0  0  0  0  0  0  0  0  0  0  0  0
   10.9990  -14.6062   29.4491 C   0  0  0  0  0  0  0  0  0  0  0  0
   11.3799  -15.5333   28.5059 C   0  0  0  0  0  0  0  0  0  0  0  0
    9.7974  -17.4734   26.7004 C   0  0  0  0  0  0  0  0  0  0  0  0
    8.4735  -17.0638   26.7520 O   0  0  0  0  0  0  0  0  0  0  0  0
   10.2028  -18.2345   27.6155 O   0  0  0  0  0  0  0  0  0  0  0  0
  2  1  1  0
  3  4  1  0
  3  2  1  0
  5  4  1  0
  5  6  1  6
  7  5  1  0
  7  8  2  0
  9  7  1  0
 10  9  1  0
 10 11  1  1
 12 11  1  0
 12 17  1  0
 13 12  2  0
 14 13  1  0
 14 15  2  0
 15 16  1  0
 16 17  2  0
 18 10  1  0
 19 18  2  0
 20 18  1  0
 21 20  1  0
 21 29  1  0
 21 22  1  1
 23 22  1  0
 23 24  2  0
 25 24  1  0
 26 25  2  0
 27 28  2  0
 27 26  1  0
 28 23  1  0
 29 30  1  0
 31 29  2  0
M  END
$$$$
