MFF.pdb
     RDKit          3D

 31 32  0  0  1  0  0  0  0  0999 V2000
    8.2256  -12.4534   18.8400 C   0  0  0  0  0  0  0  0  0  0  0  0
    7.5327  -13.8453   17.9374 S   0  0  0  0  0  0  0  0  0  0  0  0
    8.7803  -15.0615   17.4708 C   0  0  0  0  0  0  0  0  0  0  0  0
   10.0147  -14.9390   18.3581 C   0  0  0  0  0  0  0  0  0  0  0  0
   10.0092  -16.1468   19.2639 C   0  0  2  0  0  0  0  0  0  0  0  0
    8.9211  -16.9924   18.8153 N   0  0  0  0  0  0  0  0  0  0  0  0
    9.8688  -15.8173   20.6805 C   0  0  0  0  0  0  0  0  0  0  0  0
   10.7964  -15.1686   21.2278 O   0  0  0  0  0  0  0  0  0  0  0  0
    8.7598  -16.1760   21.4876 N   0  0  0  0  0  0  0  0  0  0  0  0
    8.6886  -15.7336   22.8393 C   0  0  1  0  0  0  0  0  0  0  0  0
    7.2774  -15.4638   23.3071 C   0  0  0  0  0  0  0  0  0  0  0  0
    7.1901  -14.5798   24.4815 C   0  0  0  0  0  0  0  0  0  0  0  0
    7.5153  -13.2474   24.3515 C   0  0  0  0  0  0  0  0  0  0  0  0
    7.4416  -12.3875   25.4490 C   0  0  0  0  0  0  0  0  0  0  0  0
    7.0381  -12.8749   26.6824 C   0  0  0  0  0  0  0  0  0  0  0  0
    6.7139  -14.1912   26.8236 C   0  0  0  0  0  0  0  0  0  0  0  0
    6.7943  -15.0303   25.7169 C   0  0  0  0  0  0  0  0  0  0  0  0
    9.3285  -16.6437   23.8058 C   0  0  0  0  0  0  0  0  0  0  0  0
    9.1828  -17.8794   23.6413 O   0  0  0  0  0  0  0  0  0  0  0  0
   10.1043  -16.2293   24.9192 N   0  0  0  0  0  0  0  0  0  0  0  0
   10.9297  -17.1799   25.6803 C   0  0  1  0  0  0  0  0  0  0  0  0
   11.8152  -16.3608   26.5702 C   0  0  0  0  0  0  0  0  0  0  0  0
   11.1000  -15.5594   27.5805 C   0  0  0  0  0  0  0  0  0  0  0  0
   11.0169  -16.0273   28.8736 C   0  0  0  0  0  0  0  0  0  0  0  0
   10.3679  -15.3297   29.8734 C   0  0  0  0  0  0  0  0  0  0  0  0
    9.7774  -14.1236   29.5890 C   0  0  0  0  0  0  0  0  0  0  0  0
    9.8550  -13.6429   28.2903 C   0  0  0  0  0  0  0  0  0  0  0  0
   10.5050  -14.3487   27.3038 C   0  0  0  0  0  0  0  0  0  0  0  0
   10.0207  -18.0536   26.4604 C   0  0  0  0  0  0  0  0  0  0  0  0
    8.6449  -17.8996   26.3767 O   0  0  0  0  0  0  0  0  0  0  0  0
   10.4559  -18.9568   27.2192 O   0  0  0  0  0  0  0  0  0  0  0  0
  2  1  1  0
  3  4  1  0
  3  2  1  0
  5  4  1  0
  5  6  1  6
  7  5  1  0
  7  8  2  0
  9  7  1  0
 10  9  1  0
 10 11  1  1
 12 11  1  0
 12 17  1  0
 13 12  2  0
 14 13  1  0
 14 15  2  0
 15 16  1  0
 16 17  2  0
 18 10  1  0
 19 18  2  0
 20 18  1  0
 21 20  1  0
 21 29  1  0
 21 22  1  1
 23 22  1  0
 23 24  2  0
 25 24  1  0
 26 25  2  0
 27 28  2  0
 27 26  1  0
 28 23  1  0
 29 30  1  0
 31 29  2  0
M  END
$$$$
