MFF.pdb
     RDKit          3D

 31 32  0  0  1  0  0  0  0  0999 V2000
    8.6633  -21.3519   20.4898 C   0  0  0  0  0  0  0  0  0  0  0  0
    7.1758  -22.3147   20.7943 S   0  0  0  0  0  0  0  0  0  0  0  0
    5.8817  -21.3561   21.6064 C   0  0  0  0  0  0  0  0  0  0  0  0
    6.2407  -19.8741   21.6323 C   0  0  0  0  0  0  0  0  0  0  0  0
    5.2358  -19.2086   22.5413 C   0  0  2  0  0  0  0  0  0  0  0  0
    4.0079  -19.0905   21.7806 N   0  0  0  0  0  0  0  0  0  0  0  0
    5.6702  -17.9067   23.0431 C   0  0  0  0  0  0  0  0  0  0  0  0
    5.7222  -16.9505   22.2284 O   0  0  0  0  0  0  0  0  0  0  0  0
    6.0391  -17.6402   24.3858 N   0  0  0  0  0  0  0  0  0  0  0  0
    6.7010  -16.4232   24.7155 C   0  0  1  0  0  0  0  0  0  0  0  0
    6.5638  -16.0428   26.1713 C   0  0  0  0  0  0  0  0  0  0  0  0
    6.9952  -14.6688   26.4787 C   0  0  0  0  0  0  0  0  0  0  0  0
    8.2719  -14.4492   26.9476 C   0  0  0  0  0  0  0  0  0  0  0  0
    8.7063  -13.1566   27.2472 C   0  0  0  0  0  0  0  0  0  0  0  0
    7.8484  -12.0818   27.0728 C   0  0  0  0  0  0  0  0  0  0  0  0
    6.5830  -12.2864   26.6097 C   0  0  0  0  0  0  0  0  0  0  0  0
    6.1708  -13.5826   26.3173 C   0  0  0  0  0  0  0  0  0  0  0  0
    8.1327  -16.4022   24.3665 C   0  0  0  0  0  0  0  0  0  0  0  0
    8.7988  -17.4524   24.5361 O   0  0  0  0  0  0  0  0  0  0  0  0
    8.8249  -15.2771   23.8486 N   0  0  0  0  0  0  0  0  0  0  0  0
   10.1287  -15.4143   23.1813 C   0  0  1  0  0  0  0  0  0  0  0  0
   10.3241  -14.1727   22.3645 C   0  0  0  0  0  0  0  0  0  0  0  0
    9.2105  -13.8554   21.4515 C   0  0  0  0  0  0  0  0  0  0  0  0
    9.0052  -14.6457   20.3418 C   0  0  0  0  0  0  0  0  0  0  0  0
    7.9805  -14.4124   19.4456 C   0  0  0  0  0  0  0  0  0  0  0  0
    7.1239  -13.3595   19.6500 C   0  0  0  0  0  0  0  0  0  0  0  0
    7.3211  -12.5573   20.7641 C   0  0  0  0  0  0  0  0  0  0  0  0
    8.3465  -12.8014   21.6491 C   0  0  0  0  0  0  0  0  0  0  0  0
   11.1677  -15.5537   24.2297 C   0  0  0  0  0  0  0  0  0  0  0  0
   12.4919  -15.7852   23.8888 O   0  0  0  0  0  0  0  0  0  0  0  0
   10.8925  -15.4690   25.4536 O   0  0  0  0  0  0  0  0  0  0  0  0
  2  1  1  0
  3  4  1  0
  3  2  1  0
  5  4  1  0
  5  6  1  6
  7  5  1  0
  7  8  2  0
  9  7  1  0
 10  9  1  0
 10 11  1  1
 12 11  1  0
 12 17  1  0
 13 12  2  0
 14 13  1  0
 14 15  2  0
 15 16  1  0
 16 17  2  0
 18 10  1  0
 19 18  2  0
 20 18  1  0
 21 20  1  0
 21 29  1  0
 21 22  1  1
 23 22  1  0
 23 24  2  0
 25 24  1  0
 26 25  2  0
 27 28  2  0
 27 26  1  0
 28 23  1  0
 29 30  1  0
 31 29  2  0
M  END
$$$$
