MFF.pdb
     RDKit          3D

 31 32  0  0  1  0  0  0  0  0999 V2000
    7.5421  -18.0024   28.2470 C   0  0  0  0  0  0  0  0  0  0  0  0
    8.0972  -19.6372   27.7455 S   0  0  0  0  0  0  0  0  0  0  0  0
    7.9354  -19.9117   25.9702 C   0  0  0  0  0  0  0  0  0  0  0  0
    6.4740  -19.8334   25.5408 C   0  0  0  0  0  0  0  0  0  0  0  0
    6.4625  -19.9914   24.0395 C   0  0  2  0  0  0  0  0  0  0  0  0
    7.1695  -21.2229   23.7501 N   0  0  0  0  0  0  0  0  0  0  0  0
    7.0580  -18.8636   23.3262 C   0  0  0  0  0  0  0  0  0  0  0  0
    8.1458  -19.0562   22.7258 O   0  0  0  0  0  0  0  0  0  0  0  0
    6.4984  -17.5627   23.2603 N   0  0  0  0  0  0  0  0  0  0  0  0
    7.2022  -16.5161   22.5992 C   0  0  1  0  0  0  0  0  0  0  0  0
    6.3501  -15.2971   22.3327 C   0  0  0  0  0  0  0  0  0  0  0  0
    7.0111  -14.2664   21.5148 C   0  0  0  0  0  0  0  0  0  0  0  0
    7.2191  -14.4978   20.1727 C   0  0  0  0  0  0  0  0  0  0  0  0
    7.8438  -13.5377   19.3744 C   0  0  0  0  0  0  0  0  0  0  0  0
    8.2601  -12.3394   19.9334 C   0  0  0  0  0  0  0  0  0  0  0  0
    8.0600  -12.0990   21.2600 C   0  0  0  0  0  0  0  0  0  0  0  0
    7.4355  -13.0694   22.0370 C   0  0  0  0  0  0  0  0  0  0  0  0
    8.4261  -16.0799   23.2947 C   0  0  0  0  0  0  0  0  0  0  0  0
    9.2819  -15.4366   22.6397 O   0  0  0  0  0  0  0  0  0  0  0  0
    8.7167  -16.3322   24.6604 N   0  0  0  0  0  0  0  0  0  0  0  0
    9.8374  -15.6695   25.3453 C   0  0  1  0  0  0  0  0  0  0  0  0
    9.2959  -15.1415   26.6395 C   0  0  0  0  0  0  0  0  0  0  0  0
    8.3551  -14.0148   26.4987 C   0  0  0  0  0  0  0  0  0  0  0  0
    7.0007  -14.2573   26.5702 C   0  0  0  0  0  0  0  0  0  0  0  0
    6.0611  -13.2520   26.4520 C   0  0  0  0  0  0  0  0  0  0  0  0
    6.4709  -11.9567   26.2559 C   0  0  0  0  0  0  0  0  0  0  0  0
    7.8321  -11.7010   26.1825 C   0  0  0  0  0  0  0  0  0  0  0  0
    8.7575  -12.7126   26.3019 C   0  0  0  0  0  0  0  0  0  0  0  0
   10.9019  -16.6781   25.5636 C   0  0  0  0  0  0  0  0  0  0  0  0
   10.6984  -18.0077   25.2257 O   0  0  0  0  0  0  0  0  0  0  0  0
   12.0166  -16.3716   26.0579 O   0  0  0  0  0  0  0  0  0  0  0  0
  2  1  1  0
  3  4  1  0
  3  2  1  0
  5  4  1  0
  5  6  1  1
  7  5  1  0
  7  8  2  0
  9  7  1  0
 10  9  1  0
 10 11  1  1
 12 11  1  0
 12 17  1  0
 13 12  2  0
 14 13  1  0
 14 15  2  0
 15 16  1  0
 16 17  2  0
 18 10  1  0
 19 18  2  0
 20 18  1  0
 21 20  1  0
 21 29  1  0
 21 22  1  1
 23 22  1  0
 23 24  2  0
 25 24  1  0
 26 25  2  0
 27 28  2  0
 27 26  1  0
 28 23  1  0
 29 30  1  0
 31 29  2  0
M  END
$$$$
