MFF.pdb
     RDKit          3D

 31 32  0  0  1  0  0  0  0  0999 V2000
   13.1142  -21.0223   21.6508 C   0  0  0  0  0  0  0  0  0  0  0  0
   11.8349  -21.4178   20.4511 S   0  0  0  0  0  0  0  0  0  0  0  0
   11.0978  -19.9474   19.7110 C   0  0  0  0  0  0  0  0  0  0  0  0
   10.9969  -18.8194   20.7324 C   0  0  0  0  0  0  0  0  0  0  0  0
    9.8550  -17.9398   20.2836 C   0  0  2  0  0  0  0  0  0  0  0  0
   10.1987  -17.4636   18.9587 N   0  0  0  0  0  0  0  0  0  0  0  0
    9.5823  -16.8251   21.1882 C   0  0  0  0  0  0  0  0  0  0  0  0
   10.4372  -15.9063   21.2631 O   0  0  0  0  0  0  0  0  0  0  0  0
    8.4205  -16.7017   21.9914 N   0  0  0  0  0  0  0  0  0  0  0  0
    8.3030  -15.6241   22.9149 C   0  0  1  0  0  0  0  0  0  0  0  0
    6.9203  -15.4942   23.5100 C   0  0  0  0  0  0  0  0  0  0  0  0
    6.7889  -14.4115   24.4994 C   0  0  0  0  0  0  0  0  0  0  0  0
    6.2754  -14.6928   25.7464 C   0  0  0  0  0  0  0  0  0  0  0  0
    6.1398  -13.6849   26.7030 C   0  0  0  0  0  0  0  0  0  0  0  0
    6.5240  -12.3880   26.3992 C   0  0  0  0  0  0  0  0  0  0  0  0
    7.0333  -12.0974   25.1689 C   0  0  0  0  0  0  0  0  0  0  0  0
    7.1598  -13.1169   24.2307 C   0  0  0  0  0  0  0  0  0  0  0  0
    9.2779  -15.6678   24.0192 C   0  0  0  0  0  0  0  0  0  0  0  0
    9.3348  -14.6852   24.7979 O   0  0  0  0  0  0  0  0  0  0  0  0
   10.1667  -16.7441   24.2744 N   0  0  0  0  0  0  0  0  0  0  0  0
   10.9932  -16.7893   25.4905 C   0  0  1  0  0  0  0  0  0  0  0  0
   10.0453  -16.8520   26.6500 C   0  0  0  0  0  0  0  0  0  0  0  0
   10.1239  -15.7036   27.5716 C   0  0  0  0  0  0  0  0  0  0  0  0
   10.6144  -15.8958   28.8447 C   0  0  0  0  0  0  0  0  0  0  0  0
   10.7217  -14.8674   29.7602 C   0  0  0  0  0  0  0  0  0  0  0  0
   10.3309  -13.5994   29.4086 C   0  0  0  0  0  0  0  0  0  0  0  0
    9.8357  -13.3942   28.1294 C   0  0  0  0  0  0  0  0  0  0  0  0
    9.7342  -14.4285   27.2271 C   0  0  0  0  0  0  0  0  0  0  0  0
   11.8531  -17.9948   25.4156 C   0  0  0  0  0  0  0  0  0  0  0  0
   11.2944  -19.2641   25.4034 O   0  0  0  0  0  0  0  0  0  0  0  0
   13.1067  -17.9147   25.3612 O   0  0  0  0  0  0  0  0  0  0  0  0
  2  1  1  0
  3  4  1  0
  3  2  1  0
  5  4  1  0
  5  6  1  6
  7  5  1  0
  7  8  2  0
  9  7  1  0
 10  9  1  0
 10 11  1  1
 12 11  1  0
 12 17  1  0
 13 12  2  0
 14 13  1  0
 14 15  2  0
 15 16  1  0
 16 17  2  0
 18 10  1  0
 19 18  2  0
 20 18  1  0
 21 20  1  0
 21 29  1  0
 21 22  1  1
 23 22  1  0
 23 24  2  0
 25 24  1  0
 26 25  2  0
 27 28  2  0
 27 26  1  0
 28 23  1  0
 29 30  1  0
 31 29  2  0
M  END
$$$$
