MFF.pdb
     RDKit          3D

 31 32  0  0  1  0  0  0  0  0999 V2000
   14.6784  -20.2130   21.2781 C   0  0  0  0  0  0  0  0  0  0  0  0
   14.6231  -19.0820   19.8817 S   0  0  0  0  0  0  0  0  0  0  0  0
   13.0077  -18.3054   19.6800 C   0  0  0  0  0  0  0  0  0  0  0  0
   12.5948  -17.5752   20.9537 C   0  0  0  0  0  0  0  0  0  0  0  0
   11.1870  -17.0812   20.7236 C   0  0  2  0  0  0  0  0  0  0  0  0
   11.2552  -16.1437   19.6206 N   0  0  0  0  0  0  0  0  0  0  0  0
   10.5821  -16.4633   21.9016 C   0  0  0  0  0  0  0  0  0  0  0  0
   11.3131  -16.2742   22.9068 O   0  0  0  0  0  0  0  0  0  0  0  0
    9.2263  -16.0594   21.9960 N   0  0  0  0  0  0  0  0  0  0  0  0
    8.7105  -15.5760   23.2322 C   0  0  1  0  0  0  0  0  0  0  0  0
    7.4229  -14.8002   23.0809 C   0  0  0  0  0  0  0  0  0  0  0  0
    6.9923  -14.1019   24.3038 C   0  0  0  0  0  0  0  0  0  0  0  0
    6.1189  -14.7258   25.1675 C   0  0  0  0  0  0  0  0  0  0  0  0
    5.6945  -14.0862   26.3337 C   0  0  0  0  0  0  0  0  0  0  0  0
    6.1535  -12.8119   26.6289 C   0  0  0  0  0  0  0  0  0  0  0  0
    7.0177  -12.1844   25.7821 C   0  0  0  0  0  0  0  0  0  0  0  0
    7.4279  -12.8400   24.6257 C   0  0  0  0  0  0  0  0  0  0  0  0
    8.5014  -16.6227   24.2484 C   0  0  0  0  0  0  0  0  0  0  0  0
    8.2163  -17.7803   23.8559 O   0  0  0  0  0  0  0  0  0  0  0  0
    8.5977  -16.4234   25.6499 N   0  0  0  0  0  0  0  0  0  0  0  0
    8.6154  -17.5548   26.5900 C   0  0  1  0  0  0  0  0  0  0  0  0
    8.8179  -16.9727   27.9564 C   0  0  0  0  0  0  0  0  0  0  0  0
    9.7822  -15.8586   28.0136 C   0  0  0  0  0  0  0  0  0  0  0  0
    9.3222  -14.5836   28.2602 C   0  0  0  0  0  0  0  0  0  0  0  0
   10.1662  -13.4927   28.3327 C   0  0  0  0  0  0  0  0  0  0  0  0
   11.5166  -13.6638   28.1555 C   0  0  0  0  0  0  0  0  0  0  0  0
   11.9909  -14.9432   27.9068 C   0  0  0  0  0  0  0  0  0  0  0  0
   11.1383  -16.0214   27.8372 C   0  0  0  0  0  0  0  0  0  0  0  0
    7.3175  -18.2629   26.4793 C   0  0  0  0  0  0  0  0  0  0  0  0
    7.0833  -19.4290   27.1925 O   0  0  0  0  0  0  0  0  0  0  0  0
    6.3901  -17.8396   25.7432 O   0  0  0  0  0  0  0  0  0  0  0  0
  2  1  1  0
  3  4  1  0
  3  2  1  0
  5  4  1  0
  5  6  1  6
  7  5  1  0
  7  8  2  0
  9  7  1  0
 10  9  1  0
 10 11  1  6
 12 11  1  0
 12 17  1  0
 13 12  2  0
 14 13  1  0
 14 15  2  0
 15 16  1  0
 16 17  2  0
 18 10  1  0
 19 18  2  0
 20 18  1  0
 21 20  1  0
 21 29  1  0
 21 22  1  1
 23 22  1  0
 23 24  2  0
 25 24  1  0
 26 25  2  0
 27 28  2  0
 27 26  1  0
 28 23  1  0
 29 30  1  0
 31 29  2  0
M  END
$$$$
