MFF.pdb
     RDKit          3D

 31 32  0  0  1  0  0  0  0  0999 V2000
    6.6646  -20.9838   20.0000 C   0  0  0  0  0  0  0  0  0  0  0  0
    8.3975  -21.2309   19.5897 S   0  0  0  0  0  0  0  0  0  0  0  0
    9.1845  -19.7324   18.9665 C   0  0  0  0  0  0  0  0  0  0  0  0
    9.8785  -18.9758   20.0943 C   0  0  0  0  0  0  0  0  0  0  0  0
    9.7568  -17.5086   19.7604 C   0  0  2  0  0  0  0  0  0  0  0  0
   10.8833  -17.1860   18.9077 N   0  0  0  0  0  0  0  0  0  0  0  0
    9.7215  -16.6403   20.9352 C   0  0  0  0  0  0  0  0  0  0  0  0
   10.8182  -16.2973   21.4456 O   0  0  0  0  0  0  0  0  0  0  0  0
    8.5378  -16.1538   21.5453 N   0  0  0  0  0  0  0  0  0  0  0  0
    8.6043  -15.4937   22.8053 C   0  0  1  0  0  0  0  0  0  0  0  0
    7.2791  -14.9213   23.2516 C   0  0  0  0  0  0  0  0  0  0  0  0
    7.3614  -14.0782   24.4561 C   0  0  0  0  0  0  0  0  0  0  0  0
    6.2259  -13.4542   24.9244 C   0  0  0  0  0  0  0  0  0  0  0  0
    6.2761  -12.6491   26.0639 C   0  0  0  0  0  0  0  0  0  0  0  0
    7.4774  -12.4732   26.7330 C   0  0  0  0  0  0  0  0  0  0  0  0
    8.6075  -13.0851   26.2793 C   0  0  0  0  0  0  0  0  0  0  0  0
    8.5349  -13.8831   25.1420 C   0  0  0  0  0  0  0  0  0  0  0  0
    9.1362  -16.3296   23.8963 C   0  0  0  0  0  0  0  0  0  0  0  0
    8.6955  -17.4988   24.0150 O   0  0  0  0  0  0  0  0  0  0  0  0
   10.1174  -15.9130   24.8328 N   0  0  0  0  0  0  0  0  0  0  0  0
   10.8484  -16.8809   25.6653 C   0  0  1  0  0  0  0  0  0  0  0  0
   11.8087  -16.0881   26.4997 C   0  0  0  0  0  0  0  0  0  0  0  0
   11.1896  -15.3498   27.6160 C   0  0  0  0  0  0  0  0  0  0  0  0
   10.8275  -14.0333   27.4322 C   0  0  0  0  0  0  0  0  0  0  0  0
   10.2390  -13.2808   28.4297 C   0  0  0  0  0  0  0  0  0  0  0  0
    9.9974  -13.8467   29.6567 C   0  0  0  0  0  0  0  0  0  0  0  0
   10.3577  -15.1716   29.8529 C   0  0  0  0  0  0  0  0  0  0  0  0
   10.9435  -15.9098   28.8498 C   0  0  0  0  0  0  0  0  0  0  0  0
    9.8604  -17.6053   26.5003 C   0  0  0  0  0  0  0  0  0  0  0  0
    8.5071  -17.3164   26.4081 O   0  0  0  0  0  0  0  0  0  0  0  0
   10.2063  -18.4985   27.3149 O   0  0  0  0  0  0  0  0  0  0  0  0
  2  1  1  0
  3  4  1  0
  3  2  1  0
  5  4  1  0
  5  6  1  6
  7  5  1  0
  7  8  2  0
  9  7  1  0
 10  9  1  0
 10 11  1  1
 12 11  1  0
 12 17  1  0
 13 12  2  0
 14 13  1  0
 14 15  2  0
 15 16  1  0
 16 17  2  0
 18 10  1  0
 19 18  2  0
 20 18  1  0
 21 20  1  0
 21 29  1  0
 21 22  1  1
 23 22  1  0
 23 24  2  0
 25 24  1  0
 26 25  2  0
 27 28  2  0
 27 26  1  0
 28 23  1  0
 29 30  1  0
 31 29  2  0
M  END
$$$$
