LCD.pdb
     RDKit          3D

 23 22  0  0  1  0  0  0  0  0999 V2000
   18.8004  -13.5377  -20.0660 C   0  0  0  0  0  0  0  0  0  0  0  0
   19.4299  -14.1861  -18.8346 C   0  0  2  0  0  0  0  0  0  0  0  0
   18.6856  -15.4588  -18.4977 C   0  0  0  0  0  0  0  0  0  0  0  0
   19.5151  -13.2094  -17.6956 C   0  0  0  0  0  0  0  0  0  0  0  0
   20.2517  -11.9876  -18.0966 C   0  0  2  0  0  0  0  0  0  0  0  0
   21.5696  -12.2990  -18.5453 N   0  0  0  0  0  0  0  0  0  0  0  0
   20.2830  -10.9562  -17.0077 C   0  0  0  0  0  0  0  0  0  0  0  0
   19.2286  -10.7282  -16.3630 O   0  0  0  0  0  0  0  0  0  0  0  0
   21.4573  -10.2397  -16.6905 N   0  0  0  0  0  0  0  0  0  0  0  0
   21.4675   -9.2138  -15.6238 C   0  0  1  0  0  0  0  0  0  0  0  0
   22.9204   -8.9926  -15.1975 C   0  0  0  0  0  0  0  0  0  0  0  0
   23.4885  -10.3119  -14.1391 S   0  0  0  0  0  0  0  0  0  0  0  0
   20.9381   -7.9782  -16.2545 C   0  0  0  0  0  0  0  0  0  0  0  0
   20.8673   -7.8697  -17.5337 O   0  0  0  0  0  0  0  0  0  0  0  0
   20.4819   -6.8577  -15.5051 N   0  0  0  0  0  0  0  0  0  0  0  0
   19.8674   -5.7206  -16.1991 C   0  0  1  0  0  0  0  0  0  0  0  0
   18.6949   -6.2197  -16.9920 C   0  0  0  0  0  0  0  0  0  0  0  0
   17.9125   -5.1020  -17.5524 C   0  0  0  0  0  0  0  0  0  0  0  0
   18.5159   -4.1844  -18.1564 O   0  0  0  0  0  0  0  0  0  0  0  0
   19.5573   -4.6309  -15.2615 C   0  0  0  0  0  0  0  0  0  0  0  0
   19.4355   -4.8889  -13.9111 O   0  0  0  0  0  0  0  0  0  0  0  0
   16.5331   -5.0157  -17.4434 O   0  0  0  0  0  0  0  0  0  0  0  0
   19.4017   -3.4668  -15.6752 O   0  0  0  0  0  0  0  0  0  0  0  0
  2  1  1  6
  2  3  1  0
  4  2  1  0
  4  5  1  0
  5  7  1  0
  5  6  1  1
  7  8  2  0
  9  7  1  0
  9 10  1  0
 10 11  1  6
 12 11  1  0
 13 14  2  0
 13 10  1  0
 15 13  1  0
 16 15  1  0
 16 17  1  1
 17 18  1  0
 18 19  2  0
 18 22  1  0
 20 16  1  0
 21 20  1  0
 23 20  2  0
M  END
$$$$
