LCD.pdb
     RDKit          3D

 23 22  0  0  1  0  0  0  0  0999 V2000
   20.5213  -13.3594  -17.8793 C   0  0  0  0  0  0  0  0  0  0  0  0
   19.3311  -12.8084  -18.6621 C   0  0  2  0  0  0  0  0  0  0  0  0
   19.7418  -12.5578  -20.0959 C   0  0  0  0  0  0  0  0  0  0  0  0
   18.7452  -11.6063  -17.9763 C   0  0  0  0  0  0  0  0  0  0  0  0
   18.3195  -11.9364  -16.5957 C   0  0  2  0  0  0  0  0  0  0  0  0
   17.2080  -12.8305  -16.5943 N   0  0  0  0  0  0  0  0  0  0  0  0
   18.0269  -10.7118  -15.7800 C   0  0  0  0  0  0  0  0  0  0  0  0
   17.0254  -10.0138  -16.0786 O   0  0  0  0  0  0  0  0  0  0  0  0
   18.8415  -10.3253  -14.6937 N   0  0  0  0  0  0  0  0  0  0  0  0
   18.5211   -9.1321  -13.8789 C   0  0  1  0  0  0  0  0  0  0  0  0
   18.3490   -9.5854  -12.4276 C   0  0  0  0  0  0  0  0  0  0  0  0
   18.2990   -8.1885  -11.3186 S   0  0  0  0  0  0  0  0  0  0  0  0
   19.7069   -8.2451  -13.9881 C   0  0  0  0  0  0  0  0  0  0  0  0
   20.8943   -8.7357  -14.0378 O   0  0  0  0  0  0  0  0  0  0  0  0
   19.6131   -6.8262  -14.0459 N   0  0  0  0  0  0  0  0  0  0  0  0
   20.8279   -6.0242  -14.2278 C   0  0  1  0  0  0  0  0  0  0  0  0
   21.5014   -6.4557  -15.4978 C   0  0  0  0  0  0  0  0  0  0  0  0
   22.6785   -5.6168  -15.7915 C   0  0  0  0  0  0  0  0  0  0  0  0
   23.2448   -5.0174  -14.8474 O   0  0  0  0  0  0  0  0  0  0  0  0
   20.5320   -4.5860  -14.1460 C   0  0  0  0  0  0  0  0  0  0  0  0
   19.2321   -4.1517  -13.9821 O   0  0  0  0  0  0  0  0  0  0  0  0
   23.1932   -5.4574  -17.0689 O   0  0  0  0  0  0  0  0  0  0  0  0
   21.4488   -3.7470  -14.2235 O   0  0  0  0  0  0  0  0  0  0  0  0
  2  1  1  1
  2  3  1  0
  4  2  1  0
  4  5  1  0
  5  7  1  0
  5  6  1  6
  7  8  2  0
  9  7  1  0
  9 10  1  0
 10 11  1  1
 12 11  1  0
 13 14  2  0
 13 10  1  0
 15 13  1  0
 16 15  1  0
 16 17  1  6
 17 18  1  0
 18 19  2  0
 18 22  1  0
 20 16  1  0
 21 20  1  0
 23 20  2  0
M  END
$$$$
