LCD.pdb
     RDKit          3D

 23 22  0  0  1  0  0  0  0  0999 V2000
   20.6883  -17.0057  -17.9325 C   0  0  0  0  0  0  0  0  0  0  0  0
   19.9456  -15.9880  -18.7959 C   0  0  2  0  0  0  0  0  0  0  0  0
   19.4671  -16.6560  -20.0655 C   0  0  0  0  0  0  0  0  0  0  0  0
   20.7863  -14.7644  -19.0298 C   0  0  0  0  0  0  0  0  0  0  0  0
   20.1540  -13.5631  -18.4356 C   0  0  2  0  0  0  0  0  0  0  0  0
   18.7830  -13.4559  -18.8151 N   0  0  0  0  0  0  0  0  0  0  0  0
   20.9027  -12.3041  -18.7597 C   0  0  0  0  0  0  0  0  0  0  0  0
   22.1286  -12.2454  -18.4896 O   0  0  0  0  0  0  0  0  0  0  0  0
   20.2707  -11.1911  -19.3553 N   0  0  0  0  0  0  0  0  0  0  0  0
   21.0222   -9.9536  -19.6625 C   0  0  1  0  0  0  0  0  0  0  0  0
   20.3872   -9.3117  -20.8978 C   0  0  0  0  0  0  0  0  0  0  0  0
   21.0847   -7.7005  -21.2163 S   0  0  0  0  0  0  0  0  0  0  0  0
   20.8308   -9.0690  -18.4854 C   0  0  0  0  0  0  0  0  0  0  0  0
   19.8918   -9.2952  -17.6369 O   0  0  0  0  0  0  0  0  0  0  0  0
   21.6546   -7.9389  -18.2209 N   0  0  0  0  0  0  0  0  0  0  0  0
   21.3792   -7.0964  -17.0519 C   0  0  1  0  0  0  0  0  0  0  0  0
   21.5670   -7.9209  -15.8119 C   0  0  0  0  0  0  0  0  0  0  0  0
   21.3740   -7.1099  -14.5951 C   0  0  0  0  0  0  0  0  0  0  0  0
   22.2442   -6.2611  -14.2897 O   0  0  0  0  0  0  0  0  0  0  0  0
   22.1698   -5.8571  -17.0925 C   0  0  0  0  0  0  0  0  0  0  0  0
   23.1024   -5.6595  -18.0906 O   0  0  0  0  0  0  0  0  0  0  0  0
   20.2700   -7.2409  -13.7668 O   0  0  0  0  0  0  0  0  0  0  0  0
   22.0065   -4.9751  -16.2288 O   0  0  0  0  0  0  0  0  0  0  0  0
  2  1  1  6
  2  3  1  0
  4  2  1  0
  4  5  1  0
  5  7  1  0
  5  6  1  6
  7  8  2  0
  9  7  1  0
  9 10  1  0
 10 11  1  6
 12 11  1  0
 13 14  2  0
 13 10  1  0
 15 13  1  0
 16 15  1  0
 16 17  1  1
 17 18  1  0
 18 19  2  0
 18 22  1  0
 20 16  1  0
 21 20  1  0
 23 20  2  0
M  END
$$$$
