LCD.pdb
     RDKit          3D

 23 22  0  0  1  0  0  0  0  0999 V2000
   18.7918  -12.6357  -19.2367 C   0  0  0  0  0  0  0  0  0  0  0  0
   18.7793  -13.2269  -17.8284 C   0  0  2  0  0  0  0  0  0  0  0  0
   17.3560  -13.2942  -17.3214 C   0  0  0  0  0  0  0  0  0  0  0  0
   19.7153  -12.4785  -16.9216 C   0  0  0  0  0  0  0  0  0  0  0  0
   21.0856  -12.4422  -17.4845 C   0  0  2  0  0  0  0  0  0  0  0  0
   21.6917  -13.7334  -17.4607 N   0  0  0  0  0  0  0  0  0  0  0  0
   21.9556  -11.4262  -16.8051 C   0  0  0  0  0  0  0  0  0  0  0  0
   22.2974  -11.6265  -15.6125 O   0  0  0  0  0  0  0  0  0  0  0  0
   22.3967  -10.2590  -17.4654 N   0  0  0  0  0  0  0  0  0  0  0  0
   23.2877   -9.2863  -16.7943 C   0  0  1  0  0  0  0  0  0  0  0  0
   24.6154   -9.2616  -17.5547 C   0  0  0  0  0  0  0  0  0  0  0  0
   25.7008   -7.9988  -16.9136 S   0  0  0  0  0  0  0  0  0  0  0  0
   22.6120   -7.9707  -16.9257 C   0  0  0  0  0  0  0  0  0  0  0  0
   22.0579   -7.6221  -18.0323 O   0  0  0  0  0  0  0  0  0  0  0  0
   22.5313   -7.0291  -15.8616 N   0  0  0  0  0  0  0  0  0  0  0  0
   21.8456   -5.7496  -16.0736 C   0  0  1  0  0  0  0  0  0  0  0  0
   21.4340   -5.1995  -14.7392 C   0  0  0  0  0  0  0  0  0  0  0  0
   20.5980   -3.9939  -14.8917 C   0  0  0  0  0  0  0  0  0  0  0  0
   21.1426   -2.8672  -14.8198 O   0  0  0  0  0  0  0  0  0  0  0  0
   22.6620   -4.8385  -16.8897 C   0  0  0  0  0  0  0  0  0  0  0  0
   22.0812   -4.1037  -17.9035 O   0  0  0  0  0  0  0  0  0  0  0  0
   19.2303   -4.0456  -15.1122 O   0  0  0  0  0  0  0  0  0  0  0  0
   23.8828   -4.7206  -16.6750 O   0  0  0  0  0  0  0  0  0  0  0  0
  2  1  1  6
  2  3  1  0
  4  2  1  0
  4  5  1  0
  5  7  1  0
  5  6  1  1
  7  8  2  0
  9  7  1  0
  9 10  1  0
 10 11  1  6
 12 11  1  0
 13 14  2  0
 13 10  1  0
 15 13  1  0
 16 15  1  0
 16 17  1  1
 17 18  1  0
 18 19  2  0
 18 22  1  0
 20 16  1  0
 21 20  1  0
 23 20  2  0
M  END
$$$$
