LCD.pdb
     RDKit          3D

 23 22  0  0  1  0  0  0  0  0999 V2000
   18.2526  -14.8969  -17.8189 C   0  0  0  0  0  0  0  0  0  0  0  0
   19.6318  -15.3882  -17.3840 C   0  0  2  0  0  0  0  0  0  0  0  0
   19.5148  -16.7855  -16.8172 C   0  0  0  0  0  0  0  0  0  0  0  0
   20.2852  -14.4052  -16.4538 C   0  0  0  0  0  0  0  0  0  0  0  0
   20.3517  -13.0571  -17.0658 C   0  0  2  0  0  0  0  0  0  0  0  0
   21.0497  -13.0848  -18.3096 N   0  0  0  0  0  0  0  0  0  0  0  0
   20.9438  -12.0373  -16.1384 C   0  0  0  0  0  0  0  0  0  0  0  0
   20.5243  -11.9833  -14.9550 O   0  0  0  0  0  0  0  0  0  0  0  0
   21.9522  -11.1426  -16.5572 N   0  0  0  0  0  0  0  0  0  0  0  0
   22.4666  -10.0874  -15.6559 C   0  0  1  0  0  0  0  0  0  0  0  0
   23.9619   -9.9189  -15.9336 C   0  0  0  0  0  0  0  0  0  0  0  0
   24.7808   -9.1027  -14.5746 S   0  0  0  0  0  0  0  0  0  0  0  0
   21.7442   -8.8483  -16.0403 C   0  0  0  0  0  0  0  0  0  0  0  0
   21.5351   -8.5641  -17.2766 O   0  0  0  0  0  0  0  0  0  0  0  0
   21.2440   -7.9142  -15.0901 N   0  0  0  0  0  0  0  0  0  0  0  0
   20.5361   -6.7154  -15.5526 C   0  0  1  0  0  0  0  0  0  0  0  0
   19.5229   -6.3272  -14.5157 C   0  0  0  0  0  0  0  0  0  0  0  0
   18.7990   -5.1028  -14.9063 C   0  0  0  0  0  0  0  0  0  0  0  0
   17.8834   -5.1873  -15.7582 O   0  0  0  0  0  0  0  0  0  0  0  0
   21.4805   -5.6496  -15.9197 C   0  0  0  0  0  0  0  0  0  0  0  0
   21.2718   -4.8972  -17.0579 O   0  0  0  0  0  0  0  0  0  0  0  0
   19.0831   -3.8546  -14.3740 O   0  0  0  0  0  0  0  0  0  0  0  0
   22.4759   -5.4153  -15.2093 O   0  0  0  0  0  0  0  0  0  0  0  0
  2  1  1  1
  2  3  1  0
  4  2  1  0
  4  5  1  0
  5  7  1  0
  5  6  1  6
  7  8  2  0
  9  7  1  0
  9 10  1  0
 10 11  1  6
 12 11  1  0
 13 14  2  0
 13 10  1  0
 15 13  1  0
 16 15  1  0
 16 17  1  1
 17 18  1  0
 18 19  2  0
 18 22  1  0
 20 16  1  0
 21 20  1  0
 23 20  2  0
M  END
$$$$
