LCD.pdb
     RDKit          3D

 23 22  0  0  1  0  0  0  0  0999 V2000
   17.0206  -11.6100  -16.6069 C   0  0  0  0  0  0  0  0  0  0  0  0
   18.1121  -12.1631  -15.6928 C   0  0  2  0  0  0  0  0  0  0  0  0
   17.6261  -13.4376  -15.0395 C   0  0  0  0  0  0  0  0  0  0  0  0
   18.5800  -11.1184  -14.7191 C   0  0  0  0  0  0  0  0  0  0  0  0
   19.0162   -9.8906  -15.4251 C   0  0  2  0  0  0  0  0  0  0  0  0
   20.1302  -10.1494  -16.2778 N   0  0  0  0  0  0  0  0  0  0  0  0
   19.3111   -8.7628  -14.4807 C   0  0  0  0  0  0  0  0  0  0  0  0
   18.5275   -8.5614  -13.5191 O   0  0  0  0  0  0  0  0  0  0  0  0
   20.4375   -7.9275  -14.6430 N   0  0  0  0  0  0  0  0  0  0  0  0
   20.6684   -6.7670  -13.7539 C   0  0  1  0  0  0  0  0  0  0  0  0
   22.1793   -6.6055  -13.5736 C   0  0  0  0  0  0  0  0  0  0  0  0
   22.5644   -5.1124  -12.6758 S   0  0  0  0  0  0  0  0  0  0  0  0
   20.1237   -5.5931  -14.4818 C   0  0  0  0  0  0  0  0  0  0  0  0
   20.3777   -5.4154  -15.7296 O   0  0  0  0  0  0  0  0  0  0  0  0
   19.3015   -4.6091  -13.8642 N   0  0  0  0  0  0  0  0  0  0  0  0
   18.7452   -3.5168  -14.6701 C   0  0  1  0  0  0  0  0  0  0  0  0
   17.4208   -3.1178  -14.0875 C   0  0  0  0  0  0  0  0  0  0  0  0
   16.7924   -2.0401  -14.8745 C   0  0  0  0  0  0  0  0  0  0  0  0
   16.9767   -2.0099  -16.1139 O   0  0  0  0  0  0  0  0  0  0  0  0
   19.7111   -2.4171  -14.8130 C   0  0  0  0  0  0  0  0  0  0  0  0
   19.6148   -1.5404  -15.8747 O   0  0  0  0  0  0  0  0  0  0  0  0
   16.0025   -1.0521  -14.3071 O   0  0  0  0  0  0  0  0  0  0  0  0
   20.6239   -2.2658  -13.9797 O   0  0  0  0  0  0  0  0  0  0  0  0
  2  1  1  1
  2  3  1  0
  4  2  1  0
  4  5  1  0
  5  7  1  0
  5  6  1  1
  7  8  2  0
  9  7  1  0
  9 10  1  0
 10 11  1  6
 12 11  1  0
 13 14  2  0
 13 10  1  0
 15 13  1  0
 16 15  1  0
 16 17  1  1
 17 18  1  0
 18 19  2  0
 18 22  1  0
 20 16  1  0
 21 20  1  0
 23 20  2  0
M  END
$$$$
