LCD.pdb
     RDKit          3D

 23 22  0  0  1  0  0  0  0  0999 V2000
   17.1122   -9.2858  -17.4640 C   0  0  0  0  0  0  0  0  0  0  0  0
   16.9322  -10.3704  -16.4038 C   0  0  2  0  0  0  0  0  0  0  0  0
   15.4584  -10.6537  -16.2161 C   0  0  0  0  0  0  0  0  0  0  0  0
   17.6501  -10.0074  -15.1344 C   0  0  0  0  0  0  0  0  0  0  0  0
   19.0611   -9.6450  -15.4064 C   0  0  2  0  0  0  0  0  0  0  0  0
   19.9004  -10.7984  -15.4210 N   0  0  0  0  0  0  0  0  0  0  0  0
   19.5804   -8.6129  -14.4495 C   0  0  0  0  0  0  0  0  0  0  0  0
   19.5274   -8.8528  -13.2171 O   0  0  0  0  0  0  0  0  0  0  0  0
   20.1229   -7.3876  -14.8939 N   0  0  0  0  0  0  0  0  0  0  0  0
   20.5564   -6.3463  -13.9357 C   0  0  1  0  0  0  0  0  0  0  0  0
   22.0864   -6.3231  -13.9261 C   0  0  0  0  0  0  0  0  0  0  0  0
   22.7032   -4.9547  -12.9613 S   0  0  0  0  0  0  0  0  0  0  0  0
   20.0406   -5.0647  -14.4800 C   0  0  0  0  0  0  0  0  0  0  0  0
   20.2041   -4.7616  -15.7187 O   0  0  0  0  0  0  0  0  0  0  0  0
   19.3450   -4.1083  -13.6882 N   0  0  0  0  0  0  0  0  0  0  0  0
   18.8928   -2.8522  -14.2963 C   0  0  1  0  0  0  0  0  0  0  0  0
   17.5982   -2.4474  -13.6536 C   0  0  0  0  0  0  0  0  0  0  0  0
   17.0831   -1.1918  -14.2313 C   0  0  0  0  0  0  0  0  0  0  0  0
   17.1105   -0.1498  -13.5352 O   0  0  0  0  0  0  0  0  0  0  0  0
   19.9487   -1.8297  -14.2506 C   0  0  0  0  0  0  0  0  0  0  0  0
   19.9653   -0.8053  -15.1755 O   0  0  0  0  0  0  0  0  0  0  0  0
   16.5666   -1.1066  -15.5151 O   0  0  0  0  0  0  0  0  0  0  0  0
   20.8369   -1.8773  -13.3792 O   0  0  0  0  0  0  0  0  0  0  0  0
  2  1  1  6
  2  3  1  0
  4  2  1  0
  4  5  1  0
  5  7  1  0
  5  6  1  1
  7  8  2  0
  9  7  1  0
  9 10  1  0
 10 11  1  6
 12 11  1  0
 13 14  2  0
 13 10  1  0
 15 13  1  0
 16 15  1  0
 16 17  1  1
 17 18  1  0
 18 19  2  0
 18 22  1  0
 20 16  1  0
 21 20  1  0
 23 20  2  0
M  END
$$$$
