LCD.pdb
     RDKit          3D

 23 22  0  0  1  0  0  0  0  0999 V2000
   27.5263  -16.0718  -14.4980 C   0  0  0  0  0  0  0  0  0  0  0  0
   26.8030  -16.8539  -15.5927 C   0  0  2  0  0  0  0  0  0  0  0  0
   25.8477  -15.9360  -16.3222 C   0  0  0  0  0  0  0  0  0  0  0  0
   26.1551  -18.0893  -15.0338 C   0  0  0  0  0  0  0  0  0  0  0  0
   27.1580  -18.9726  -14.3934 C   0  0  2  0  0  0  0  0  0  0  0  0
   28.1720  -19.3633  -15.3177 N   0  0  0  0  0  0  0  0  0  0  0  0
   26.5317  -20.1705  -13.7427 C   0  0  0  0  0  0  0  0  0  0  0  0
   26.5568  -21.2694  -14.3519 O   0  0  0  0  0  0  0  0  0  0  0  0
   25.9186  -20.0962  -12.4732 N   0  0  0  0  0  0  0  0  0  0  0  0
   25.1729  -21.2445  -11.9112 C   0  0  1  0  0  0  0  0  0  0  0  0
   25.3217  -21.2027  -10.3889 C   0  0  0  0  0  0  0  0  0  0  0  0
   26.6367  -20.0998   -9.9007 S   0  0  0  0  0  0  0  0  0  0  0  0
   23.7531  -21.0167  -12.2811 C   0  0  0  0  0  0  0  0  0  0  0  0
   23.3038  -19.8268  -12.4688 O   0  0  0  0  0  0  0  0  0  0  0  0
   22.8154  -22.0738  -12.4511 N   0  0  0  0  0  0  0  0  0  0  0  0
   21.4770  -21.7809  -12.9755 C   0  0  1  0  0  0  0  0  0  0  0  0
   21.2160  -20.3101  -12.8288 C   0  0  0  0  0  0  0  0  0  0  0  0
   19.8674  -19.9550  -13.3091 C   0  0  0  0  0  0  0  0  0  0  0  0
   18.8706  -20.4572  -12.7387 O   0  0  0  0  0  0  0  0  0  0  0  0
   21.3163  -22.3012  -14.3415 C   0  0  0  0  0  0  0  0  0  0  0  0
   22.4207  -22.6936  -15.0706 O   0  0  0  0  0  0  0  0  0  0  0  0
   19.6463  -19.0872  -14.3674 O   0  0  0  0  0  0  0  0  0  0  0  0
   20.1851  -22.3930  -14.8536 O   0  0  0  0  0  0  0  0  0  0  0  0
  2  1  1  1
  2  3  1  0
  4  2  1  0
  4  5  1  0
  5  7  1  0
  5  6  1  6
  7  8  2  0
  9  7  1  0
  9 10  1  0
 10 11  1  1
 12 11  1  0
 13 14  2  0
 13 10  1  0
 15 13  1  0
 16 15  1  0
 16 17  1  6
 17 18  1  0
 18 19  2  0
 18 22  1  0
 20 16  1  0
 21 20  1  0
 23 20  2  0
M  END
$$$$
