LCD.pdb
     RDKit          3D

 23 22  0  0  1  0  0  0  0  0999 V2000
   28.0833  -19.4771  -17.8791 C   0  0  0  0  0  0  0  0  0  0  0  0
   28.8684  -20.4532  -17.0052 C   0  0  2  0  0  0  0  0  0  0  0  0
   29.6923  -21.3678  -17.8839 C   0  0  0  0  0  0  0  0  0  0  0  0
   27.9575  -21.1781  -16.0548 C   0  0  0  0  0  0  0  0  0  0  0  0
   27.2384  -20.2255  -15.1764 C   0  0  2  0  0  0  0  0  0  0  0  0
   28.1476  -19.3979  -14.4529 N   0  0  0  0  0  0  0  0  0  0  0  0
   26.2819  -20.9144  -14.2485 C   0  0  0  0  0  0  0  0  0  0  0  0
   25.5772  -21.8532  -14.6974 O   0  0  0  0  0  0  0  0  0  0  0  0
   26.1530  -20.5384  -12.8939 N   0  0  0  0  0  0  0  0  0  0  0  0
   25.0920  -21.1100  -12.0349 C   0  0  1  0  0  0  0  0  0  0  0  0
   25.3834  -20.6985  -10.5902 C   0  0  0  0  0  0  0  0  0  0  0  0
   27.0198  -21.2078  -10.0935 S   0  0  0  0  0  0  0  0  0  0  0  0
   23.8278  -20.4775  -12.4893 C   0  0  0  0  0  0  0  0  0  0  0  0
   23.8447  -19.3932  -13.1800 O   0  0  0  0  0  0  0  0  0  0  0  0
   22.5423  -21.0157  -12.2006 N   0  0  0  0  0  0  0  0  0  0  0  0
   21.4517  -20.8515  -13.1679 C   0  0  1  0  0  0  0  0  0  0  0  0
   21.9023  -21.3900  -14.4944 C   0  0  0  0  0  0  0  0  0  0  0  0
   21.2320  -20.6957  -15.6099 C   0  0  0  0  0  0  0  0  0  0  0  0
   21.1041  -19.4499  -15.5574 O   0  0  0  0  0  0  0  0  0  0  0  0
   20.2000  -21.4333  -12.6606 C   0  0  0  0  0  0  0  0  0  0  0  0
   19.0690  -20.6515  -12.5384 O   0  0  0  0  0  0  0  0  0  0  0  0
   20.7332  -21.3575  -16.7213 O   0  0  0  0  0  0  0  0  0  0  0  0
   20.1474  -22.6344  -12.3368 O   0  0  0  0  0  0  0  0  0  0  0  0
  2  1  1  6
  2  3  1  0
  4  2  1  0
  4  5  1  0
  5  7  1  0
  5  6  1  1
  7  8  2  0
  9  7  1  0
  9 10  1  0
 10 11  1  1
 12 11  1  0
 13 14  2  0
 13 10  1  0
 15 13  1  0
 16 15  1  0
 16 17  1  6
 17 18  1  0
 18 19  2  0
 18 22  1  0
 20 16  1  0
 21 20  1  0
 23 20  2  0
M  END
$$$$
