LCD.pdb
     RDKit          3D

 23 22  0  0  1  0  0  0  0  0999 V2000
   25.6220  -14.7419  -14.3506 C   0  0  0  0  0  0  0  0  0  0  0  0
   25.7664  -14.7427  -15.8711 C   0  0  2  0  0  0  0  0  0  0  0  0
   27.2307  -14.6573  -16.2396 C   0  0  0  0  0  0  0  0  0  0  0  0
   24.9171  -13.6704  -16.4935 C   0  0  0  0  0  0  0  0  0  0  0  0
   23.4926  -13.8365  -16.1200 C   0  0  2  0  0  0  0  0  0  0  0  0
   22.9793  -15.0883  -16.5723 N   0  0  0  0  0  0  0  0  0  0  0  0
   22.6399  -12.6994  -16.6002 C   0  0  0  0  0  0  0  0  0  0  0  0
   22.5874  -12.4645  -17.8336 O   0  0  0  0  0  0  0  0  0  0  0  0
   21.9004  -11.8918  -15.7093 N   0  0  0  0  0  0  0  0  0  0  0  0
   20.9733  -10.8501  -16.2049 C   0  0  1  0  0  0  0  0  0  0  0  0
   19.5436  -11.3365  -15.9584 C   0  0  0  0  0  0  0  0  0  0  0  0
   19.1093  -12.6537  -17.0809 S   0  0  0  0  0  0  0  0  0  0  0  0
   21.2428   -9.6492  -15.3743 C   0  0  0  0  0  0  0  0  0  0  0  0
   21.3664   -9.7449  -14.0981 O   0  0  0  0  0  0  0  0  0  0  0  0
   21.3816   -8.3422  -15.9202 N   0  0  0  0  0  0  0  0  0  0  0  0
   21.6285   -7.2042  -15.0279 C   0  0  1  0  0  0  0  0  0  0  0  0
   22.1529   -6.0596  -15.8449 C   0  0  0  0  0  0  0  0  0  0  0  0
   22.4402   -4.8855  -14.9994 C   0  0  0  0  0  0  0  0  0  0  0  0
   22.6455   -5.0577  -13.7750 O   0  0  0  0  0  0  0  0  0  0  0  0
   20.4375   -6.8917  -14.2239 C   0  0  0  0  0  0  0  0  0  0  0  0
   20.5664   -6.5580  -12.8908 O   0  0  0  0  0  0  0  0  0  0  0  0
   22.4947   -3.5921  -15.4956 O   0  0  0  0  0  0  0  0  0  0  0  0
   19.3031   -6.9249  -14.7360 O   0  0  0  0  0  0  0  0  0  0  0  0
  2  1  1  1
  2  3  1  0
  4  2  1  0
  4  5  1  0
  5  7  1  0
  5  6  1  6
  7  8  2  0
  9  7  1  0
  9 10  1  0
 10 11  1  1
 12 11  1  0
 13 14  2  0
 13 10  1  0
 15 13  1  0
 16 15  1  0
 16 17  1  6
 17 18  1  0
 18 19  2  0
 18 22  1  0
 20 16  1  0
 21 20  1  0
 23 20  2  0
M  END
$$$$
