LCD.pdb
     RDKit          3D

 23 22  0  0  1  0  0  0  0  0999 V2000
   21.0429  -12.3577  -19.5393 C   0  0  0  0  0  0  0  0  0  0  0  0
   20.4849  -12.9195  -18.2332 C   0  0  2  0  0  0  0  0  0  0  0  0
   19.5929  -14.1035  -18.5327 C   0  0  0  0  0  0  0  0  0  0  0  0
   19.8180  -11.8423  -17.4248 C   0  0  0  0  0  0  0  0  0  0  0  0
   20.7476  -10.7169  -17.1686 C   0  0  2  0  0  0  0  0  0  0  0  0
   21.9004  -11.1488  -16.4478 N   0  0  0  0  0  0  0  0  0  0  0  0
   20.0768   -9.5687  -16.4741 C   0  0  0  0  0  0  0  0  0  0  0  0
   18.9707   -9.1630  -16.9112 O   0  0  0  0  0  0  0  0  0  0  0  0
   20.6518   -8.9361  -15.3506 N   0  0  0  0  0  0  0  0  0  0  0  0
   19.9992   -7.7757  -14.7040 C   0  0  1  0  0  0  0  0  0  0  0  0
   20.4048   -7.7693  -13.2287 C   0  0  0  0  0  0  0  0  0  0  0  0
   19.5185   -9.0176  -12.3121 S   0  0  0  0  0  0  0  0  0  0  0  0
   20.5565   -6.5773  -15.3807 C   0  0  0  0  0  0  0  0  0  0  0  0
   21.7044   -6.6208  -15.9581 O   0  0  0  0  0  0  0  0  0  0  0  0
   19.8744   -5.3295  -15.4372 N   0  0  0  0  0  0  0  0  0  0  0  0
   20.3960   -4.2539  -16.2876 C   0  0  1  0  0  0  0  0  0  0  0  0
   20.5723   -4.7863  -17.6798 C   0  0  0  0  0  0  0  0  0  0  0  0
   20.9286   -3.7102  -18.6235 C   0  0  0  0  0  0  0  0  0  0  0  0
   21.9150   -2.9812  -18.3651 O   0  0  0  0  0  0  0  0  0  0  0  0
   19.5598   -3.0479  -16.1911 C   0  0  0  0  0  0  0  0  0  0  0  0
   20.1451   -1.8006  -16.1103 O   0  0  0  0  0  0  0  0  0  0  0  0
   20.2218   -3.4636  -19.7904 O   0  0  0  0  0  0  0  0  0  0  0  0
   18.3181   -3.1394  -16.1814 O   0  0  0  0  0  0  0  0  0  0  0  0
  2  1  1  6
  2  3  1  0
  4  2  1  0
  4  5  1  0
  5  7  1  0
  5  6  1  1
  7  8  2  0
  9  7  1  0
  9 10  1  0
 10 11  1  1
 12 11  1  0
 13 14  2  0
 13 10  1  0
 15 13  1  0
 16 15  1  0
 16 17  1  6
 17 18  1  0
 18 19  2  0
 18 22  1  0
 20 16  1  0
 21 20  1  0
 23 20  2  0
M  END
$$$$
