LCD.pdb
     RDKit          3D

 23 22  0  0  1  0  0  0  0  0999 V2000
   28.6942  -17.4512  -14.5470 C   0  0  0  0  0  0  0  0  0  0  0  0
   28.0300  -18.1300  -15.7432 C   0  0  2  0  0  0  0  0  0  0  0  0
   27.4374  -17.0792  -16.6554 C   0  0  0  0  0  0  0  0  0  0  0  0
   27.0457  -19.1725  -15.2930 C   0  0  0  0  0  0  0  0  0  0  0  0
   27.6910  -20.1622  -14.3985 C   0  0  2  0  0  0  0  0  0  0  0  0
   28.5970  -20.9983  -15.1162 N   0  0  0  0  0  0  0  0  0  0  0  0
   26.6910  -20.9808  -13.6365 C   0  0  0  0  0  0  0  0  0  0  0  0
   26.2908  -22.0620  -14.1366 O   0  0  0  0  0  0  0  0  0  0  0  0
   26.1910  -20.5712  -12.3814 N   0  0  0  0  0  0  0  0  0  0  0  0
   25.0815  -21.2956  -11.7223 C   0  0  1  0  0  0  0  0  0  0  0  0
   25.1762  -21.0334  -10.2177 C   0  0  0  0  0  0  0  0  0  0  0  0
   26.5854  -20.0098   -9.8303 S   0  0  0  0  0  0  0  0  0  0  0  0
   23.8363  -20.6895  -12.2578 C   0  0  0  0  0  0  0  0  0  0  0  0
   23.6548  -19.4171  -12.2225 O   0  0  0  0  0  0  0  0  0  0  0  0
   22.7849  -21.4559  -12.8345 N   0  0  0  0  0  0  0  0  0  0  0  0
   21.5981  -20.7772  -13.3664 C   0  0  1  0  0  0  0  0  0  0  0  0
   21.6521  -20.8217  -14.8657 C   0  0  0  0  0  0  0  0  0  0  0  0
   20.4215  -20.2695  -15.4626 C   0  0  0  0  0  0  0  0  0  0  0  0
   19.4924  -21.0538  -15.7671 O   0  0  0  0  0  0  0  0  0  0  0  0
   20.3658  -21.3234  -12.7785 C   0  0  0  0  0  0  0  0  0  0  0  0
   19.2229  -20.5519  -12.7176 O   0  0  0  0  0  0  0  0  0  0  0  0
   20.2405  -18.9166  -15.7053 O   0  0  0  0  0  0  0  0  0  0  0  0
   20.3405  -22.4849  -12.3306 O   0  0  0  0  0  0  0  0  0  0  0  0
  2  1  1  1
  2  3  1  0
  4  2  1  0
  4  5  1  0
  5  7  1  0
  5  6  1  6
  7  8  2  0
  9  7  1  0
  9 10  1  0
 10 11  1  1
 12 11  1  0
 13 14  2  0
 13 10  1  0
 15 13  1  0
 16 15  1  0
 16 17  1  6
 17 18  1  0
 18 19  2  0
 18 22  1  0
 20 16  1  0
 21 20  1  0
 23 20  2  0
M  END
$$$$
