LCD.pdb
     RDKit          3D

 23 22  0  0  1  0  0  0  0  0999 V2000
   17.9880  -14.8502  -20.1813 C   0  0  0  0  0  0  0  0  0  0  0  0
   18.9688  -15.6960  -19.3716 C   0  0  2  0  0  0  0  0  0  0  0  0
   18.3561  -17.0500  -19.0908 C   0  0  0  0  0  0  0  0  0  0  0  0
   19.4221  -14.9641  -18.1398 C   0  0  0  0  0  0  0  0  0  0  0  0
   19.9739  -13.6328  -18.4850 C   0  0  2  0  0  0  0  0  0  0  0  0
   21.0903  -13.7453  -19.3659 N   0  0  0  0  0  0  0  0  0  0  0  0
   20.3261  -12.8276  -17.2691 C   0  0  0  0  0  0  0  0  0  0  0  0
   19.5363  -12.8352  -16.2917 O   0  0  0  0  0  0  0  0  0  0  0  0
   21.5128  -12.0667  -17.1948 N   0  0  0  0  0  0  0  0  0  0  0  0
   21.8132  -11.2241  -16.0157 C   0  0  1  0  0  0  0  0  0  0  0  0
   23.3205  -11.2913  -15.7608 C   0  0  0  0  0  0  0  0  0  0  0  0
   23.7841  -10.2737  -14.3703 S   0  0  0  0  0  0  0  0  0  0  0  0
   21.4335   -9.8427  -16.4062 C   0  0  0  0  0  0  0  0  0  0  0  0
   21.7533   -9.3726  -17.5593 O   0  0  0  0  0  0  0  0  0  0  0  0
   20.7058   -8.9665  -15.5529 N   0  0  0  0  0  0  0  0  0  0  0  0
   20.4020   -7.6028  -16.0001 C   0  0  1  0  0  0  0  0  0  0  0  0
   19.2743   -7.0655  -15.1680 C   0  0  0  0  0  0  0  0  0  0  0  0
   18.0072   -7.7558  -15.4733 C   0  0  0  0  0  0  0  0  0  0  0  0
   17.8405   -8.2351  -16.6195 O   0  0  0  0  0  0  0  0  0  0  0  0
   21.6112   -6.7660  -16.0118 C   0  0  0  0  0  0  0  0  0  0  0  0
   22.7306   -7.1515  -15.3022 O   0  0  0  0  0  0  0  0  0  0  0  0
   16.9843   -7.9018  -14.5490 O   0  0  0  0  0  0  0  0  0  0  0  0
   21.6379   -5.7035  -16.6605 O   0  0  0  0  0  0  0  0  0  0  0  0
  2  1  1  1
  2  3  1  0
  4  2  1  0
  4  5  1  0
  5  7  1  0
  5  6  1  6
  7  8  2  0
  9  7  1  0
  9 10  1  0
 10 11  1  6
 12 11  1  0
 13 14  2  0
 13 10  1  0
 15 13  1  0
 16 15  1  0
 16 17  1  1
 17 18  1  0
 18 19  2  0
 18 22  1  0
 20 16  1  0
 21 20  1  0
 23 20  2  0
M  END
$$$$
