RRR.pdb
     RDKit          3D

 34 33  0  0  1  0  0  0  0  0999 V2000
   27.2326  -20.4342  -14.8935 N   0  0  0  0  0  0  0  0  0  0  0  0
   27.3605  -19.2426  -15.6395 C   0  0  0  0  0  0  0  0  0  0  0  0
   28.0217  -18.2772  -15.1256 N   0  0  0  0  0  0  0  0  0  0  0  0
   26.7891  -19.0719  -16.9306 N   0  0  0  0  0  0  0  0  0  0  0  0
   25.9604  -20.1122  -17.5017 C   0  0  0  0  0  0  0  0  0  0  0  0
   24.5100  -19.7786  -17.2449 C   0  0  0  0  0  0  0  0  0  0  0  0
   23.6749  -19.9146  -18.4684 C   0  0  0  0  0  0  0  0  0  0  0  0
   23.6858  -21.3474  -18.9433 C   0  0  2  0  0  0  0  0  0  0  0  0
   22.7461  -21.3937  -20.0608 N   0  0  0  0  0  0  0  0  0  0  0  0
   23.2410  -22.2623  -17.8549 C   0  0  0  0  0  0  0  0  0  0  0  0
   22.0301  -22.2521  -17.5286 O   0  0  0  0  0  0  0  0  0  0  0  0
   28.2110  -17.3665  -15.5504 N   0  0  0  0  0  0  0  0  0  0  0  0
   28.0973  -28.9235  -15.5917 C   0  0  0  0  0  0  0  0  0  0  0  0
   27.3441  -29.0040  -16.8297 N   0  0  0  0  0  0  0  0  0  0  0  0
   27.4966  -29.9837  -17.6214 N   0  0  0  0  0  0  0  0  0  0  0  0
   26.4260  -27.9884  -17.1766 C   0  0  0  0  0  0  0  0  0  0  0  0
   25.9531  -26.9458  -16.3773 C   0  0  0  0  0  0  0  0  0  0  0  0
   24.9369  -25.9936  -16.8835 C   0  0  0  0  0  0  0  0  0  0  0  0
   24.7191  -25.0067  -15.7193 C   0  0  2  0  0  0  0  0  0  0  0  0
   23.7267  -23.9322  -16.0782 N   0  0  0  0  0  0  0  0  0  0  0  0
   24.1317  -23.1358  -17.1854 C   0  0  0  0  0  0  0  0  0  0  0  0
   23.3114  -23.0821  -14.9542 O   0  0  0  0  0  0  0  0  0  0  0  0
   24.1137  -22.2030  -14.5360 N   0  0  0  0  0  0  0  0  0  0  0  0
   27.0078  -30.1256  -18.4849 C   0  0  0  0  0  0  0  0  0  0  0  0
   19.0057  -17.9280  -17.5994 N   0  0  0  0  0  0  0  0  0  0  0  0
   20.0919  -17.7592  -16.6638 N   0  0  0  0  0  0  0  0  0  0  0  0
   20.8520  -16.7206  -16.7167 C   0  0  0  0  0  0  0  0  0  0  0  0
   20.3445  -18.7316  -15.6673 C   0  0  0  0  0  0  0  0  0  0  0  0
   21.0752  -18.3807  -14.4137 C   0  0  0  0  0  0  0  0  0  0  0  0
   21.1186  -19.6266  -13.6278 C   0  0  1  0  0  0  0  0  0  0  0  0
   21.5720  -20.8974  -14.1401 N   0  0  0  0  0  0  0  0  0  0  0  0
   21.6567  -22.1326  -13.3252 C   0  0  0  0  0  0  0  0  0  0  0  0
   22.0631  -23.1932  -14.3127 O   0  0  0  0  0  0  0  0  0  0  0  0
   20.3720  -22.5956  -12.7869 O   0  0  0  0  0  0  0  0  0  0  0  0
  1  2  1  0
  2  3  2  0
  4  2  1  0
  5  4  1  0
  6  5  1  0
  7  6  1  0
  8  7  1  0
  8  9  1  6
 10 20  1  0
 10  8  1  0
 11 10  2  0
 13 12  1  0
 14 13  2  0
 15 13  1  0
 16 15  1  0
 17 16  1  0
 17 18  1  0
 19 18  1  6
 19 20  1  0
 21 31  1  0
 21 19  1  0
 22 21  2  0
 23 24  1  0
 24 25  2  0
 26 27  1  0
 26 24  1  0
 27 28  1  0
 28 29  1  0
 30 29  1  6
 30 31  1  0
 30 32  1  0
 32 33  1  0
 34 32  2  0
M  END
$$$$
