RRR.pdb
     RDKit          3D

 34 33  0  0  1  0  0  0  0  0999 V2000
   18.0227  -20.2468  -16.0592 N   0  0  0  0  0  0  0  0  0  0  0  0
   17.1157  -21.2783  -15.7328 C   0  0  0  0  0  0  0  0  0  0  0  0
   16.2345  -21.6031  -16.5995 N   0  0  0  0  0  0  0  0  0  0  0  0
   17.1410  -21.9673  -14.4890 N   0  0  0  0  0  0  0  0  0  0  0  0
   18.3022  -21.8735  -13.6300 C   0  0  0  0  0  0  0  0  0  0  0  0
   18.8625  -23.2589  -13.4115 C   0  0  0  0  0  0  0  0  0  0  0  0
   20.0976  -23.2434  -12.5826 C   0  0  0  0  0  0  0  0  0  0  0  0
   20.5958  -24.6530  -12.3737 C   0  0  2  0  0  0  0  0  0  0  0  0
   20.5934  -25.2665  -13.6993 N   0  0  0  0  0  0  0  0  0  0  0  0
   19.6880  -25.3978  -11.4569 C   0  0  0  0  0  0  0  0  0  0  0  0
   18.5201  -25.6395  -11.8452 O   0  0  0  0  0  0  0  0  0  0  0  0
   15.5485  -22.3580  -16.5261 N   0  0  0  0  0  0  0  0  0  0  0  0
   16.8871  -31.5338  -11.7652 C   0  0  0  0  0  0  0  0  0  0  0  0
   18.2941  -31.6211  -12.1100 N   0  0  0  0  0  0  0  0  0  0  0  0
   18.7507  -32.6300  -12.7293 N   0  0  0  0  0  0  0  0  0  0  0  0
   19.1831  -30.5811  -11.7595 C   0  0  0  0  0  0  0  0  0  0  0  0
   19.1276  -29.7397  -10.6467 C   0  0  0  0  0  0  0  0  0  0  0  0
   20.1468  -28.6857  -10.4324 C   0  0  0  0  0  0  0  0  0  0  0  0
   19.7333  -28.0126   -9.1084 C   0  0  2  0  0  0  0  0  0  0  0  0
   19.2485  -26.6037   -9.3277 N   0  0  0  0  0  0  0  0  0  0  0  0
   20.0975  -25.8393  -10.1755 C   0  0  0  0  0  0  0  0  0  0  0  0
   18.9444  -25.8622   -8.0961 O   0  0  0  0  0  0  0  0  0  0  0  0
   19.8676  -25.1984   -7.5499 N   0  0  0  0  0  0  0  0  0  0  0  0
   19.6924  -32.7470  -13.0523 C   0  0  0  0  0  0  0  0  0  0  0  0
   14.4701  -22.7331   -2.0179 N   0  0  0  0  0  0  0  0  0  0  0  0
   13.4802  -22.6174   -3.0620 N   0  0  0  0  0  0  0  0  0  0  0  0
   12.7072  -21.5890   -3.1262 C   0  0  0  0  0  0  0  0  0  0  0  0
   13.3382  -23.6317   -4.0384 C   0  0  0  0  0  0  0  0  0  0  0  0
   14.2971  -24.7735   -4.1108 C   0  0  0  0  0  0  0  0  0  0  0  0
   15.4178  -24.2878   -4.9354 C   0  0  2  0  0  0  0  0  0  0  0  0
   16.0473  -25.0522   -5.9855 N   0  0  0  0  0  0  0  0  0  0  0  0
   17.5152  -25.1684   -6.1547 C   0  0  0  0  0  0  0  0  0  0  0  0
   17.6753  -25.8506   -7.4868 O   0  0  0  0  0  0  0  0  0  0  0  0
   18.1692  -26.0654   -5.1944 O   0  0  0  0  0  0  0  0  0  0  0  0
  1  2  1  0
  2  3  2  0
  4  2  1  0
  5  4  1  0
  6  5  1  0
  7  6  1  0
  8  7  1  0
  8  9  1  6
 10 20  1  0
 10  8  1  0
 11 10  2  0
 13 12  1  0
 14 13  2  0
 15 13  1  0
 16 15  1  0
 17 16  1  0
 17 18  1  0
 19 18  1  6
 19 20  1  0
 21 31  1  0
 21 19  1  0
 22 21  2  0
 23 24  1  0
 24 25  2  0
 26 27  1  0
 26 24  1  0
 27 28  1  0
 28 29  1  0
 30 29  1  1
 30 31  1  0
 30 32  1  0
 32 33  1  0
 34 32  2  0
M  END
$$$$
