RRR.pdb
     RDKit          3D

 34 33  0  0  1  0  0  0  0  0999 V2000
   25.0758  -17.2217  -21.6769 N   0  0  0  0  0  0  0  0  0  0  0  0
   26.3869  -17.4561  -21.2090 C   0  0  0  0  0  0  0  0  0  0  0  0
   27.3225  -16.6933  -21.6288 N   0  0  0  0  0  0  0  0  0  0  0  0
   26.7089  -18.4975  -20.2957 N   0  0  0  0  0  0  0  0  0  0  0  0
   25.6695  -19.3712  -19.7942 C   0  0  0  0  0  0  0  0  0  0  0  0
   26.2974  -20.4194  -18.9065 C   0  0  0  0  0  0  0  0  0  0  0  0
   25.3270  -21.4728  -18.5046 C   0  0  0  0  0  0  0  0  0  0  0  0
   25.9954  -22.4653  -17.5842 C   0  0  2  0  0  0  0  0  0  0  0  0
   26.3403  -23.6067  -18.4280 N   0  0  0  0  0  0  0  0  0  0  0  0
   25.0619  -22.8852  -16.5018 C   0  0  0  0  0  0  0  0  0  0  0  0
   24.5210  -24.0134  -16.5890 O   0  0  0  0  0  0  0  0  0  0  0  0
   28.3135  -16.7421  -21.3813 N   0  0  0  0  0  0  0  0  0  0  0  0
   25.8155  -19.1085  -10.4697 C   0  0  0  0  0  0  0  0  0  0  0  0
   25.4310  -20.3992   -9.9288 N   0  0  0  0  0  0  0  0  0  0  0  0
   24.7539  -20.4805   -8.8589 N   0  0  0  0  0  0  0  0  0  0  0  0
   25.8067  -21.5917  -10.5858 C   0  0  0  0  0  0  0  0  0  0  0  0
   26.6174  -21.7344  -11.7135 C   0  0  0  0  0  0  0  0  0  0  0  0
   26.0446  -21.6855  -13.0792 C   0  0  0  0  0  0  0  0  0  0  0  0
   24.7385  -22.4986  -12.9791 C   0  0  1  0  0  0  0  0  0  0  0  0
   23.9928  -22.5178  -14.2875 N   0  0  0  0  0  0  0  0  0  0  0  0
   24.7704  -22.0612  -15.3880 C   0  0  0  0  0  0  0  0  0  0  0  0
   22.6892  -21.8406  -14.2592 O   0  0  0  0  0  0  0  0  0  0  0  0
   22.5760  -20.7809  -13.5843 N   0  0  0  0  0  0  0  0  0  0  0  0
   24.4413  -21.3267   -8.4219 C   0  0  0  0  0  0  0  0  0  0  0  0
   18.1262  -26.2235  -10.1787 N   0  0  0  0  0  0  0  0  0  0  0  0
   18.2509  -24.8540   -9.7404 N   0  0  0  0  0  0  0  0  0  0  0  0
   18.0542  -24.5359   -8.5078 C   0  0  0  0  0  0  0  0  0  0  0  0
   18.5929  -23.8308  -10.6561 C   0  0  0  0  0  0  0  0  0  0  0  0
   18.1533  -23.8916  -12.0815 C   0  0  0  0  0  0  0  0  0  0  0  0
   19.3893  -23.7695  -12.8747 C   0  0  2  0  0  0  0  0  0  0  0  0
   20.0786  -22.5258  -13.1223 N   0  0  0  0  0  0  0  0  0  0  0  0
   20.1892  -21.8960  -14.4595 C   0  0  0  0  0  0  0  0  0  0  0  0
   21.5526  -22.3094  -14.9450 O   0  0  0  0  0  0  0  0  0  0  0  0
   20.2284  -20.4288  -14.4397 O   0  0  0  0  0  0  0  0  0  0  0  0
  1  2  1  0
  2  3  2  0
  4  2  1  0
  5  4  1  0
  6  5  1  0
  7  6  1  0
  8  7  1  0
  8  9  1  6
 10 20  1  0
 10  8  1  0
 11 10  2  0
 13 12  1  0
 14 13  2  0
 15 13  1  0
 16 15  1  0
 17 16  1  0
 17 18  1  0
 19 18  1  6
 19 20  1  0
 21 31  1  0
 21 19  1  0
 22 21  2  0
 23 24  1  0
 24 25  2  0
 26 27  1  0
 26 24  1  0
 27 28  1  0
 28 29  1  0
 30 29  1  1
 30 31  1  0
 30 32  1  0
 32 33  1  0
 34 32  2  0
M  END
$$$$
