RRR.pdb
     RDKit          3D

 34 33  0  0  1  0  0  0  0  0999 V2000
   45.3848  -20.4496   -0.5464 N   0  0  0  0  0  0  0  0  0  0  0  0
   46.3225  -20.1830    0.4747 C   0  0  0  0  0  0  0  0  0  0  0  0
   46.4712  -21.0528    1.3992 N   0  0  0  0  0  0  0  0  0  0  0  0
   47.1042  -18.9958    0.5179 N   0  0  0  0  0  0  0  0  0  0  0  0
   47.0513  -18.0509   -0.5773 C   0  0  0  0  0  0  0  0  0  0  0  0
   47.7472  -18.6513   -1.7757 C   0  0  0  0  0  0  0  0  0  0  0  0
   47.8091  -17.7070   -2.9235 C   0  0  0  0  0  0  0  0  0  0  0  0
   48.4760  -18.3725   -4.1030 C   0  0  2  0  0  0  0  0  0  0  0  0
   49.8809  -17.9796   -4.0277 N   0  0  0  0  0  0  0  0  0  0  0  0
   47.8736  -17.8980   -5.3803 C   0  0  0  0  0  0  0  0  0  0  0  0
   48.3654  -16.8820   -5.9271 O   0  0  0  0  0  0  0  0  0  0  0  0
   47.0316  -20.9574    2.2492 N   0  0  0  0  0  0  0  0  0  0  0  0
   43.9877  -23.0395  -10.4729 C   0  0  0  0  0  0  0  0  0  0  0  0
   43.3026  -21.7766  -10.2683 N   0  0  0  0  0  0  0  0  0  0  0  0
   42.0709  -21.6522  -10.5464 N   0  0  0  0  0  0  0  0  0  0  0  0
   43.9982  -20.6594   -9.7557 C   0  0  0  0  0  0  0  0  0  0  0  0
   43.4874  -19.4000   -9.4357 C   0  0  0  0  0  0  0  0  0  0  0  0
   44.3689  -18.3233   -8.9264 C   0  0  0  0  0  0  0  0  0  0  0  0
   45.1617  -18.9833   -7.7808 C   0  0  1  0  0  0  0  0  0  0  0  0
   46.1016  -18.0091   -7.1206 N   0  0  0  0  0  0  0  0  0  0  0  0
   46.7767  -18.5516   -5.9918 C   0  0  0  0  0  0  0  0  0  0  0  0
   45.5025  -16.7091   -6.7892 O   0  0  0  0  0  0  0  0  0  0  0  0
   44.6640  -16.6553   -5.8482 N   0  0  0  0  0  0  0  0  0  0  0  0
   41.5256  -20.8170  -10.4474 C   0  0  0  0  0  0  0  0  0  0  0  0
   48.6304   -8.5116   -5.6420 N   0  0  0  0  0  0  0  0  0  0  0  0
   47.1913   -8.4579   -5.7398 N   0  0  0  0  0  0  0  0  0  0  0  0
   46.5611   -7.3454   -5.5832 C   0  0  0  0  0  0  0  0  0  0  0  0
   46.4416   -9.6269   -6.0109 C   0  0  0  0  0  0  0  0  0  0  0  0
   47.1128  -10.9449   -6.2139 C   0  0  0  0  0  0  0  0  0  0  0  0
   46.0275  -11.8874   -6.5387 C   0  0  1  0  0  0  0  0  0  0  0  0
   46.2202  -13.2951   -6.7926 N   0  0  0  0  0  0  0  0  0  0  0  0
   45.1131  -14.2452   -7.0546 C   0  0  0  0  0  0  0  0  0  0  0  0
   45.8113  -15.5137   -7.4655 O   0  0  0  0  0  0  0  0  0  0  0  0
   44.2691  -13.8942   -8.2031 O   0  0  0  0  0  0  0  0  0  0  0  0
  1  2  1  0
  2  3  2  0
  4  2  1  0
  5  4  1  0
  6  5  1  0
  7  6  1  0
  8  7  1  0
  8  9  1  6
 10 20  1  0
 10  8  1  0
 11 10  2  0
 13 12  1  0
 14 13  2  0
 15 13  1  0
 16 15  1  0
 17 16  1  0
 17 18  1  0
 19 18  1  6
 19 20  1  0
 21 31  1  0
 21 19  1  0
 22 21  2  0
 23 24  1  0
 24 25  2  0
 26 27  1  0
 26 24  1  0
 27 28  1  0
 28 29  1  0
 30 29  1  6
 30 31  1  0
 30 32  1  0
 32 33  1  0
 34 32  2  0
M  END
$$$$
