RRR.pdb
     RDKit          3D

 34 33  0  0  1  0  0  0  0  0999 V2000
   17.0533  -20.4270    2.3067 N   0  0  0  0  0  0  0  0  0  0  0  0
   16.1346  -21.1573    3.0914 C   0  0  0  0  0  0  0  0  0  0  0  0
   15.9723  -22.3981    2.8318 N   0  0  0  0  0  0  0  0  0  0  0  0
   15.3874  -20.5751    4.1522 N   0  0  0  0  0  0  0  0  0  0  0  0
   15.7172  -19.2495    4.6310 C   0  0  0  0  0  0  0  0  0  0  0  0
   16.3181  -19.3635    6.0119 C   0  0  0  0  0  0  0  0  0  0  0  0
   16.5751  -18.0334    6.6265 C   0  0  0  0  0  0  0  0  0  0  0  0
   17.4028  -18.1954    7.8784 C   0  0  2  0  0  0  0  0  0  0  0  0
   16.4871  -18.7297    8.8834 N   0  0  0  0  0  0  0  0  0  0  0  0
   17.9457  -16.8803    8.3200 C   0  0  0  0  0  0  0  0  0  0  0  0
   17.5298  -16.3992    9.4010 O   0  0  0  0  0  0  0  0  0  0  0  0
   15.3805  -23.0603    3.3389 N   0  0  0  0  0  0  0  0  0  0  0  0
   22.2081  -15.1732   13.9317 C   0  0  0  0  0  0  0  0  0  0  0  0
   20.8463  -14.7891   13.6086 N   0  0  0  0  0  0  0  0  0  0  0  0
   19.9591  -14.7163   14.5128 N   0  0  0  0  0  0  0  0  0  0  0  0
   20.4835  -14.4901   12.2769 C   0  0  0  0  0  0  0  0  0  0  0  0
   21.3152  -14.1031   11.2243 C   0  0  0  0  0  0  0  0  0  0  0  0
   20.7606  -13.7854    9.8875 C   0  0  0  0  0  0  0  0  0  0  0  0
   20.1069  -15.1005    9.4185 C   0  0  1  0  0  0  0  0  0  0  0  0
   19.5063  -14.9647    8.0440 N   0  0  0  0  0  0  0  0  0  0  0  0
   18.9079  -16.1643    7.5676 C   0  0  0  0  0  0  0  0  0  0  0  0
   20.4117  -14.4016    7.0331 O   0  0  0  0  0  0  0  0  0  0  0  0
   21.1542  -15.1890    6.3849 N   0  0  0  0  0  0  0  0  0  0  0  0
   18.9922  -14.4920   14.3732 C   0  0  0  0  0  0  0  0  0  0  0  0
   13.4164  -12.1726    3.7027 N   0  0  0  0  0  0  0  0  0  0  0  0
   14.3884  -11.4440    2.9231 N   0  0  0  0  0  0  0  0  0  0  0  0
   14.0178  -10.6829    1.9521 C   0  0  0  0  0  0  0  0  0  0  0  0
   15.7701  -11.5497    3.2095 C   0  0  0  0  0  0  0  0  0  0  0  0
   16.2612  -12.3803    4.3486 C   0  0  0  0  0  0  0  0  0  0  0  0
   17.7105  -12.1230    4.4204 C   0  0  1  0  0  0  0  0  0  0  0  0
   18.5941  -12.7091    5.3996 N   0  0  0  0  0  0  0  0  0  0  0  0
   20.0665  -12.5389    5.3886 C   0  0  0  0  0  0  0  0  0  0  0  0
   20.4996  -13.0264    6.7451 O   0  0  0  0  0  0  0  0  0  0  0  0
   20.5172  -11.1432    5.3315 O   0  0  0  0  0  0  0  0  0  0  0  0
  1  2  1  0
  2  3  2  0
  4  2  1  0
  5  4  1  0
  6  5  1  0
  7  6  1  0
  8  7  1  0
  8  9  1  1
 10 20  1  0
 10  8  1  0
 11 10  2  0
 13 12  1  0
 14 13  2  0
 15 13  1  0
 16 15  1  0
 17 16  1  0
 17 18  1  0
 19 18  1  1
 19 20  1  0
 21 31  1  0
 21 19  1  0
 22 21  2  0
 23 24  1  0
 24 25  2  0
 26 27  1  0
 26 24  1  0
 27 28  1  0
 28 29  1  0
 30 29  1  1
 30 31  1  0
 30 32  1  0
 32 33  1  0
 34 32  2  0
M  END
$$$$
