RRR.pdb
     RDKit          3D

 34 33  0  0  1  0  0  0  0  0999 V2000
   20.7463  -23.6036   -8.1007 N   0  0  0  0  0  0  0  0  0  0  0  0
   19.6395  -23.3660   -8.9442 C   0  0  0  0  0  0  0  0  0  0  0  0
   18.4843  -23.2602   -8.4080 N   0  0  0  0  0  0  0  0  0  0  0  0
   19.7546  -23.2395  -10.3560 N   0  0  0  0  0  0  0  0  0  0  0  0
   20.9780  -22.7356  -10.9430 C   0  0  0  0  0  0  0  0  0  0  0  0
   21.3146  -21.4073  -10.3079 C   0  0  0  0  0  0  0  0  0  0  0  0
   22.5111  -20.7744  -10.9249 C   0  0  0  0  0  0  0  0  0  0  0  0
   23.7295  -21.0355  -10.0727 C   0  0  2  0  0  0  0  0  0  0  0  0
   23.3677  -20.5884   -8.7300 N   0  0  0  0  0  0  0  0  0  0  0  0
   24.8972  -20.2611  -10.5789 C   0  0  0  0  0  0  0  0  0  0  0  0
   24.7567  -19.0288  -10.7651 O   0  0  0  0  0  0  0  0  0  0  0  0
   17.5961  -23.0968   -8.8879 N   0  0  0  0  0  0  0  0  0  0  0  0
   32.4844  -23.5723   -9.8112 C   0  0  0  0  0  0  0  0  0  0  0  0
   31.6587  -22.6584   -9.0435 N   0  0  0  0  0  0  0  0  0  0  0  0
   31.7701  -22.5847   -7.7817 N   0  0  0  0  0  0  0  0  0  0  0  0
   30.7121  -21.8334   -9.6900 C   0  0  0  0  0  0  0  0  0  0  0  0
   29.3361  -22.0354   -9.8135 C   0  0  0  0  0  0  0  0  0  0  0  0
   28.6925  -22.1284  -11.1449 C   0  0  0  0  0  0  0  0  0  0  0  0
   28.4793  -20.6629  -11.5736 C   0  0  1  0  0  0  0  0  0  0  0  0
   27.0288  -20.3701  -11.8539 N   0  0  0  0  0  0  0  0  0  0  0  0
   26.1484  -20.8649  -10.8517 C   0  0  0  0  0  0  0  0  0  0  0  0
   26.5698  -20.7732  -13.1902 O   0  0  0  0  0  0  0  0  0  0  0  0
   25.7800  -21.7522  -13.2852 N   0  0  0  0  0  0  0  0  0  0  0  0
   31.2007  -22.0301   -7.1710 C   0  0  0  0  0  0  0  0  0  0  0  0
   20.7393  -18.8990  -19.7749 N   0  0  0  0  0  0  0  0  0  0  0  0
   21.0515  -18.9772  -18.3679 N   0  0  0  0  0  0  0  0  0  0  0  0
   20.4802  -18.1921  -17.5213 C   0  0  0  0  0  0  0  0  0  0  0  0
   21.9921  -19.9192  -17.8880 C   0  0  0  0  0  0  0  0  0  0  0  0
   22.5489  -19.8193  -16.5065 C   0  0  0  0  0  0  0  0  0  0  0  0
   23.9738  -20.1725  -16.6355 C   0  0  1  0  0  0  0  0  0  0  0  0
   24.9204  -20.1500  -15.5462 N   0  0  0  0  0  0  0  0  0  0  0  0
   26.3401  -20.5545  -15.6786 C   0  0  0  0  0  0  0  0  0  0  0  0
   26.9636  -20.1268  -14.3772 O   0  0  0  0  0  0  0  0  0  0  0  0
   27.0875  -19.8236  -16.7091 O   0  0  0  0  0  0  0  0  0  0  0  0
  1  2  1  0
  2  3  2  0
  4  2  1  0
  5  4  1  0
  6  5  1  0
  7  6  1  0
  8  7  1  0
  8  9  1  1
 10 20  1  0
 10  8  1  0
 11 10  2  0
 13 12  1  0
 14 13  2  0
 15 13  1  0
 16 15  1  0
 17 16  1  0
 17 18  1  0
 19 18  1  1
 19 20  1  0
 21 31  1  0
 21 19  1  0
 22 21  2  0
 23 24  1  0
 24 25  2  0
 26 27  1  0
 26 24  1  0
 27 28  1  0
 28 29  1  0
 30 29  1  6
 30 31  1  0
 30 32  1  0
 32 33  1  0
 34 32  2  0
M  END
$$$$
