RRR.pdb
     RDKit          3D

 34 33  0  0  1  0  0  0  0  0999 V2000
   25.8859  -13.2103  -17.9473 N   0  0  0  0  0  0  0  0  0  0  0  0
   25.1590  -13.3101  -16.7412 C   0  0  0  0  0  0  0  0  0  0  0  0
   24.2262  -12.4631  -16.5273 N   0  0  0  0  0  0  0  0  0  0  0  0
   25.4184  -14.3069  -15.7607 N   0  0  0  0  0  0  0  0  0  0  0  0
   26.5647  -15.1800  -15.8978 C   0  0  0  0  0  0  0  0  0  0  0  0
   26.1791  -16.3631  -16.7537 C   0  0  0  0  0  0  0  0  0  0  0  0
   26.0002  -17.6039  -15.9529 C   0  0  0  0  0  0  0  0  0  0  0  0
   27.1782  -18.5251  -16.1596 C   0  0  2  0  0  0  0  0  0  0  0  0
   26.9316  -19.1908  -17.4363 N   0  0  0  0  0  0  0  0  0  0  0  0
   27.2574  -19.5272  -15.0602 C   0  0  0  0  0  0  0  0  0  0  0  0
   26.3653  -20.4062  -14.9927 O   0  0  0  0  0  0  0  0  0  0  0  0
   23.6404  -12.3911  -15.6922 N   0  0  0  0  0  0  0  0  0  0  0  0
   32.9565  -22.8581  -11.7996 C   0  0  0  0  0  0  0  0  0  0  0  0
   32.8135  -23.4402  -13.1214 N   0  0  0  0  0  0  0  0  0  0  0  0
   33.8144  -23.9298  -13.7282 N   0  0  0  0  0  0  0  0  0  0  0  0
   31.5532  -23.4703  -13.7581 C   0  0  0  0  0  0  0  0  0  0  0  0
   30.4662  -22.6176  -13.5562 C   0  0  0  0  0  0  0  0  0  0  0  0
   30.6418  -21.1465  -13.5305 C   0  0  0  0  0  0  0  0  0  0  0  0
   29.6774  -20.6619  -12.4297 C   0  0  2  0  0  0  0  0  0  0  0  0
   28.2998  -20.3921  -12.9753 N   0  0  0  0  0  0  0  0  0  0  0  0
   28.2980  -19.5209  -14.1001 C   0  0  0  0  0  0  0  0  0  0  0  0
   27.3212  -19.9459  -11.9742 O   0  0  0  0  0  0  0  0  0  0  0  0
   27.0085  -18.7242  -11.9412 N   0  0  0  0  0  0  0  0  0  0  0  0
   33.7966  -24.3914  -14.6178 C   0  0  0  0  0  0  0  0  0  0  0  0
   19.4246  -21.4232  -12.2232 N   0  0  0  0  0  0  0  0  0  0  0  0
   20.5834  -22.0547  -12.8076 N   0  0  0  0  0  0  0  0  0  0  0  0
   20.4822  -23.1878  -13.4119 C   0  0  0  0  0  0  0  0  0  0  0  0
   21.8564  -21.4417  -12.7297 C   0  0  0  0  0  0  0  0  0  0  0  0
   22.0089  -20.0372  -12.2472 C   0  0  0  0  0  0  0  0  0  0  0  0
   23.0289  -20.0998  -11.1854 C   0  0  1  0  0  0  0  0  0  0  0  0
   24.4323  -20.3439  -11.4176 N   0  0  0  0  0  0  0  0  0  0  0  0
   25.4565  -20.3523  -10.3462 C   0  0  0  0  0  0  0  0  0  0  0  0
   26.7098  -20.8078  -11.0440 O   0  0  0  0  0  0  0  0  0  0  0  0
   25.2295  -21.3517   -9.2953 O   0  0  0  0  0  0  0  0  0  0  0  0
  1  2  1  0
  2  3  2  0
  4  2  1  0
  5  4  1  0
  6  5  1  0
  7  6  1  0
  8  7  1  0
  8  9  1  6
 10 20  1  0
 10  8  1  0
 11 10  2  0
 13 12  1  0
 14 13  2  0
 15 13  1  0
 16 15  1  0
 17 16  1  0
 17 18  1  0
 19 18  1  6
 19 20  1  0
 21 31  1  0
 21 19  1  0
 22 21  2  0
 23 24  1  0
 24 25  2  0
 26 27  1  0
 26 24  1  0
 27 28  1  0
 28 29  1  0
 30 29  1  1
 30 31  1  0
 30 32  1  0
 32 33  1  0
 34 32  2  0
M  END
$$$$
