RRR.pdb
     RDKit          3D

 34 33  0  0  1  0  0  0  0  0999 V2000
   27.9022  -21.5820   -3.9351 N   0  0  0  0  0  0  0  0  0  0  0  0
   28.7510  -20.5671   -4.4276 C   0  0  0  0  0  0  0  0  0  0  0  0
   29.9708  -20.5633   -4.0463 N   0  0  0  0  0  0  0  0  0  0  0  0
   28.3096  -19.5557   -5.3247 N   0  0  0  0  0  0  0  0  0  0  0  0
   26.9243  -19.5085   -5.7416 C   0  0  0  0  0  0  0  0  0  0  0  0
   26.6128  -20.7483   -6.5459 C   0  0  0  0  0  0  0  0  0  0  0  0
   25.9100  -20.4331   -7.8185 C   0  0  0  0  0  0  0  0  0  0  0  0
   26.8768  -20.5141   -8.9750 C   0  0  2  0  0  0  0  0  0  0  0  0
   27.8478  -19.4472   -8.7454 N   0  0  0  0  0  0  0  0  0  0  0  0
   26.1663  -20.2981  -10.2665 C   0  0  0  0  0  0  0  0  0  0  0  0
   25.8170  -19.1308  -10.5638 O   0  0  0  0  0  0  0  0  0  0  0  0
   30.6833  -19.8650   -4.2711 N   0  0  0  0  0  0  0  0  0  0  0  0
   26.9113  -19.0196  -17.9507 C   0  0  0  0  0  0  0  0  0  0  0  0
   28.0526  -18.7033  -17.1118 N   0  0  0  0  0  0  0  0  0  0  0  0
   28.9944  -17.9711  -17.5439 N   0  0  0  0  0  0  0  0  0  0  0  0
   28.1355  -19.2082  -15.7954 C   0  0  0  0  0  0  0  0  0  0  0  0
   27.2653  -20.0938  -15.1568 C   0  0  0  0  0  0  0  0  0  0  0  0
   27.5625  -20.6158  -13.8022 C   0  0  0  0  0  0  0  0  0  0  0  0
   26.4406  -21.6369  -13.5274 C   0  0  2  0  0  0  0  0  0  0  0  0
   25.4622  -21.1269  -12.5022 N   0  0  0  0  0  0  0  0  0  0  0  0
   25.8777  -21.3569  -11.1611 C   0  0  0  0  0  0  0  0  0  0  0  0
   24.0779  -21.5782  -12.6993 O   0  0  0  0  0  0  0  0  0  0  0  0
   23.7456  -22.7116  -12.2562 N   0  0  0  0  0  0  0  0  0  0  0  0
   29.7880  -17.6593  -17.0168 C   0  0  0  0  0  0  0  0  0  0  0  0
   16.4004  -17.4869  -15.4631 N   0  0  0  0  0  0  0  0  0  0  0  0
   16.2101  -18.9051  -15.2744 N   0  0  0  0  0  0  0  0  0  0  0  0
   15.0486  -19.4405  -15.4279 C   0  0  0  0  0  0  0  0  0  0  0  0
   17.2965  -19.7385  -14.9171 C   0  0  0  0  0  0  0  0  0  0  0  0
   18.6629  -19.1766  -14.7033 C   0  0  0  0  0  0  0  0  0  0  0  0
   19.4879  -20.3170  -14.2666 C   0  0  2  0  0  0  0  0  0  0  0  0
   20.8911  -20.2295  -13.9404 N   0  0  0  0  0  0  0  0  0  0  0  0
   21.7116  -21.3863  -13.5098 C   0  0  0  0  0  0  0  0  0  0  0  0
   23.0958  -20.8148  -13.3586 O   0  0  0  0  0  0  0  0  0  0  0  0
   21.8515  -22.4424  -14.5196 O   0  0  0  0  0  0  0  0  0  0  0  0
  1  2  1  0
  2  3  2  0
  4  2  1  0
  5  4  1  0
  6  5  1  0
  7  6  1  0
  8  7  1  0
  8  9  1  1
 10 20  1  0
 10  8  1  0
 11 10  2  0
 13 12  1  0
 14 13  2  0
 15 13  1  0
 16 15  1  0
 17 16  1  0
 17 18  1  0
 19 18  1  1
 19 20  1  0
 21 31  1  0
 21 19  1  0
 22 21  2  0
 23 24  1  0
 24 25  2  0
 26 27  1  0
 26 24  1  0
 27 28  1  0
 28 29  1  0
 30 29  1  6
 30 31  1  0
 30 32  1  0
 32 33  1  0
 34 32  2  0
M  END
$$$$
