RRR.pdb
     RDKit          3D

 34 33  0  0  1  0  0  0  0  0999 V2000
   24.4553  -25.4010  -16.4567 N   0  0  0  0  0  0  0  0  0  0  0  0
   23.2917  -24.6229  -16.2733 C   0  0  0  0  0  0  0  0  0  0  0  0
   22.2902  -25.1633  -15.6915 N   0  0  0  0  0  0  0  0  0  0  0  0
   23.1872  -23.2718  -16.7047 N   0  0  0  0  0  0  0  0  0  0  0  0
   24.3471  -22.5865  -17.2340 C   0  0  0  0  0  0  0  0  0  0  0  0
   24.6963  -21.4370  -16.3188 C   0  0  0  0  0  0  0  0  0  0  0  0
   25.7946  -20.5952  -16.8645 C   0  0  0  0  0  0  0  0  0  0  0  0
   27.1321  -21.1793  -16.4785 C   0  0  2  0  0  0  0  0  0  0  0  0
   27.1996  -22.4740  -17.1515 N   0  0  0  0  0  0  0  0  0  0  0  0
   27.2178  -21.3584  -15.0020 C   0  0  0  0  0  0  0  0  0  0  0  0
   26.4533  -22.1918  -14.4598 O   0  0  0  0  0  0  0  0  0  0  0  0
   21.3521  -24.7692  -15.5892 N   0  0  0  0  0  0  0  0  0  0  0  0
   34.1374  -23.9298  -10.8883 C   0  0  0  0  0  0  0  0  0  0  0  0
   33.0781  -23.1520  -11.5042 N   0  0  0  0  0  0  0  0  0  0  0  0
   32.5456  -23.5259  -12.5935 N   0  0  0  0  0  0  0  0  0  0  0  0
   32.6211  -21.9600  -10.9001 C   0  0  0  0  0  0  0  0  0  0  0  0
   31.6133  -21.1016  -11.3438 C   0  0  0  0  0  0  0  0  0  0  0  0
   30.2573  -21.6103  -11.6568 C   0  0  0  0  0  0  0  0  0  0  0  0
   29.4953  -20.3784  -12.1847 C   0  0  2  0  0  0  0  0  0  0  0  0
   28.1671  -20.7596  -12.7836 N   0  0  0  0  0  0  0  0  0  0  0  0
   28.1268  -20.6273  -14.1996 C   0  0  0  0  0  0  0  0  0  0  0  0
   27.0066  -20.1000  -12.1695 O   0  0  0  0  0  0  0  0  0  0  0  0
   26.6394  -18.9822  -12.6243 N   0  0  0  0  0  0  0  0  0  0  0  0
   31.8851  -23.0030  -13.1367 C   0  0  0  0  0  0  0  0  0  0  0  0
   20.2463  -20.4349  -15.2178 N   0  0  0  0  0  0  0  0  0  0  0  0
   20.9195  -21.4231  -14.4094 N   0  0  0  0  0  0  0  0  0  0  0  0
   20.7570  -22.6809  -14.6347 C   0  0  0  0  0  0  0  0  0  0  0  0
   21.7736  -21.0308  -13.3516 C   0  0  0  0  0  0  0  0  0  0  0  0
   21.8176  -19.6154  -12.8790 C   0  0  0  0  0  0  0  0  0  0  0  0
   22.7270  -19.6211  -11.7195 C   0  0  1  0  0  0  0  0  0  0  0  0
   24.1179  -20.0025  -11.7771 N   0  0  0  0  0  0  0  0  0  0  0  0
   25.0411  -19.9323  -10.6198 C   0  0  0  0  0  0  0  0  0  0  0  0
   26.2775  -20.6463  -11.0963 O   0  0  0  0  0  0  0  0  0  0  0  0
   24.6009  -20.6918   -9.4433 O   0  0  0  0  0  0  0  0  0  0  0  0
  1  2  1  0
  2  3  2  0
  4  2  1  0
  5  4  1  0
  6  5  1  0
  7  6  1  0
  8  7  1  0
  8  9  1  6
 10 20  1  0
 10  8  1  0
 11 10  2  0
 13 12  1  0
 14 13  2  0
 15 13  1  0
 16 15  1  0
 17 16  1  0
 17 18  1  0
 19 18  1  6
 19 20  1  0
 21 31  1  0
 21 19  1  0
 22 21  2  0
 23 24  1  0
 24 25  2  0
 26 27  1  0
 26 24  1  0
 27 28  1  0
 28 29  1  0
 30 29  1  1
 30 31  1  0
 30 32  1  0
 32 33  1  0
 34 32  2  0
M  END
$$$$
