RRR.pdb
     RDKit          3D

 34 33  0  0  1  0  0  0  0  0999 V2000
   24.7160  -15.5479  -20.5348 N   0  0  0  0  0  0  0  0  0  0  0  0
   23.8298  -16.0845  -21.4939 C   0  0  0  0  0  0  0  0  0  0  0  0
   23.7275  -15.4893  -22.6202 N   0  0  0  0  0  0  0  0  0  0  0  0
   23.0516  -17.2520  -21.2619 N   0  0  0  0  0  0  0  0  0  0  0  0
   23.1490  -17.9507  -19.9980 C   0  0  0  0  0  0  0  0  0  0  0  0
   24.0592  -19.1439  -20.1673 C   0  0  0  0  0  0  0  0  0  0  0  0
   24.1166  -19.9875  -18.9434 C   0  0  0  0  0  0  0  0  0  0  0  0
   25.1456  -21.0783  -19.1171 C   0  0  2  0  0  0  0  0  0  0  0  0
   24.5499  -22.0292  -20.0524 N   0  0  0  0  0  0  0  0  0  0  0  0
   25.4285  -21.7424  -17.8139 C   0  0  0  0  0  0  0  0  0  0  0  0
   24.5450  -22.4839  -17.3213 O   0  0  0  0  0  0  0  0  0  0  0  0
   23.1003  -15.7335  -23.3901 N   0  0  0  0  0  0  0  0  0  0  0  0
   32.0506  -25.4377  -14.5024 C   0  0  0  0  0  0  0  0  0  0  0  0
   32.1393  -25.0478  -15.8976 N   0  0  0  0  0  0  0  0  0  0  0  0
   32.7621  -25.7682  -16.7360 N   0  0  0  0  0  0  0  0  0  0  0  0
   31.5328  -23.8543  -16.3475 C   0  0  0  0  0  0  0  0  0  0  0  0
   30.5009  -23.1326  -15.7442 C   0  0  0  0  0  0  0  0  0  0  0  0
   29.1025  -23.2544  -16.2188 C   0  0  0  0  0  0  0  0  0  0  0  0
   28.3369  -22.1605  -15.4481 C   0  0  2  0  0  0  0  0  0  0  0  0
   26.8812  -22.1235  -15.8326 N   0  0  0  0  0  0  0  0  0  0  0  0
   26.6511  -21.5671  -17.1216 C   0  0  0  0  0  0  0  0  0  0  0  0
   26.0002  -21.5002  -14.8355 O   0  0  0  0  0  0  0  0  0  0  0  0
   26.0301  -20.2457  -14.7065 N   0  0  0  0  0  0  0  0  0  0  0  0
   32.9519  -25.5308  -17.6912 C   0  0  0  0  0  0  0  0  0  0  0  0
   17.6194  -22.6983  -12.0448 N   0  0  0  0  0  0  0  0  0  0  0  0
   18.2843  -21.6933  -11.2502 N   0  0  0  0  0  0  0  0  0  0  0  0
   17.6235  -20.9724  -10.4118 C   0  0  0  0  0  0  0  0  0  0  0  0
   19.6774  -21.4790  -11.3750 C   0  0  0  0  0  0  0  0  0  0  0  0
   20.4429  -22.0305  -12.5319 C   0  0  0  0  0  0  0  0  0  0  0  0
   21.8298  -21.5733  -12.3334 C   0  0  2  0  0  0  0  0  0  0  0  0
   22.9322  -21.9162  -13.1995 N   0  0  0  0  0  0  0  0  0  0  0  0
   24.3314  -21.4885  -12.9625 C   0  0  0  0  0  0  0  0  0  0  0  0
   25.1203  -22.2264  -14.0106 O   0  0  0  0  0  0  0  0  0  0  0  0
   24.8966  -21.9374  -11.6843 O   0  0  0  0  0  0  0  0  0  0  0  0
  1  2  1  0
  2  3  2  0
  4  2  1  0
  5  4  1  0
  6  5  1  0
  7  6  1  0
  8  7  1  0
  8  9  1  6
 10 20  1  0
 10  8  1  0
 11 10  2  0
 13 12  1  0
 14 13  2  0
 15 13  1  0
 16 15  1  0
 17 16  1  0
 17 18  1  0
 19 18  1  6
 19 20  1  0
 21 31  1  0
 21 19  1  0
 22 21  2  0
 23 24  1  0
 24 25  2  0
 26 27  1  0
 26 24  1  0
 27 28  1  0
 28 29  1  0
 30 29  1  1
 30 31  1  0
 30 32  1  0
 32 33  1  0
 34 32  2  0
M  END
$$$$
