RRR.pdb
     RDKit          3D

 34 33  0  0  1  0  0  0  0  0999 V2000
   26.1804  -31.5098  -17.4309 N   0  0  0  0  0  0  0  0  0  0  0  0
   27.3853  -31.2309  -16.7500 C   0  0  0  0  0  0  0  0  0  0  0  0
   27.8627  -32.1291  -15.9763 N   0  0  0  0  0  0  0  0  0  0  0  0
   28.0863  -30.0013  -16.8880 N   0  0  0  0  0  0  0  0  0  0  0  0
   27.4891  -28.9023  -17.6166 C   0  0  0  0  0  0  0  0  0  0  0  0
   28.4395  -27.7287  -17.5977 C   0  0  0  0  0  0  0  0  0  0  0  0
   28.0565  -26.7093  -16.5843 C   0  0  0  0  0  0  0  0  0  0  0  0
   27.3750  -25.5431  -17.2585 C   0  0  2  0  0  0  0  0  0  0  0  0
   28.4342  -24.5711  -17.5180 N   0  0  0  0  0  0  0  0  0  0  0  0
   26.3398  -24.9540  -16.3636 C   0  0  0  0  0  0  0  0  0  0  0  0
   26.5485  -23.8139  -15.8846 O   0  0  0  0  0  0  0  0  0  0  0  0
   28.7382  -32.0853  -15.4497 N   0  0  0  0  0  0  0  0  0  0  0  0
   23.3661  -20.1840  -20.4090 C   0  0  0  0  0  0  0  0  0  0  0  0
   23.7795  -21.5748  -20.4441 N   0  0  0  0  0  0  0  0  0  0  0  0
   23.9056  -22.1883  -21.5475 N   0  0  0  0  0  0  0  0  0  0  0  0
   24.0482  -22.2724  -19.2458 C   0  0  0  0  0  0  0  0  0  0  0  0
   23.9785  -21.7928  -17.9364 C   0  0  0  0  0  0  0  0  0  0  0  0
   24.3775  -22.6405  -16.7885 C   0  0  0  0  0  0  0  0  0  0  0  0
   23.6260  -23.9683  -17.0099 C   0  0  2  0  0  0  0  0  0  0  0  0
   23.8968  -24.9528  -15.9027 N   0  0  0  0  0  0  0  0  0  0  0  0
   25.1393  -25.6319  -16.0416 C   0  0  0  0  0  0  0  0  0  0  0  0
   22.8096  -25.9095  -15.6546 O   0  0  0  0  0  0  0  0  0  0  0  0
   22.2073  -26.4063  -16.6455 N   0  0  0  0  0  0  0  0  0  0  0  0
   24.1358  -23.1573  -21.6604 C   0  0  0  0  0  0  0  0  0  0  0  0
   18.2834  -25.8587   -8.5402 N   0  0  0  0  0  0  0  0  0  0  0  0
   18.5501  -25.1862   -9.7892 N   0  0  0  0  0  0  0  0  0  0  0  0
   17.9636  -24.0764  -10.0786 C   0  0  0  0  0  0  0  0  0  0  0  0
   19.4628  -25.7319  -10.7228 C   0  0  0  0  0  0  0  0  0  0  0  0
   20.1788  -27.0120  -10.4450 C   0  0  0  0  0  0  0  0  0  0  0  0
   20.9352  -27.3087  -11.6745 C   0  0  2  0  0  0  0  0  0  0  0  0
   20.5668  -26.8424  -12.9898 N   0  0  0  0  0  0  0  0  0  0  0  0
   21.2478  -27.2666  -14.2361 C   0  0  0  0  0  0  0  0  0  0  0  0
   22.3984  -26.3052  -14.3677 O   0  0  0  0  0  0  0  0  0  0  0  0
   20.4572  -27.0728  -15.4576 O   0  0  0  0  0  0  0  0  0  0  0  0
  1  2  1  0
  2  3  2  0
  4  2  1  0
  5  4  1  0
  6  5  1  0
  7  6  1  0
  8  7  1  0
  8  9  1  1
 10 20  1  0
 10  8  1  0
 11 10  2  0
 13 12  1  0
 14 13  2  0
 15 13  1  0
 16 15  1  0
 17 16  1  0
 17 18  1  0
 19 18  1  1
 19 20  1  0
 21 31  1  0
 21 19  1  0
 22 21  2  0
 23 24  1  0
 24 25  2  0
 26 27  1  0
 26 24  1  0
 27 28  1  0
 28 29  1  0
 30 29  1  6
 30 31  1  0
 30 32  1  0
 32 33  1  0
 34 32  2  0
M  END
$$$$
