RRR.pdb
     RDKit          3D

 34 33  0  0  1  0  0  0  0  0999 V2000
   31.9145  -20.7615   -9.7077 N   0  0  0  0  0  0  0  0  0  0  0  0
   31.9733  -22.0012  -10.3804 C   0  0  0  0  0  0  0  0  0  0  0  0
   33.0112  -22.7285  -10.2153 N   0  0  0  0  0  0  0  0  0  0  0  0
   30.9333  -22.4727  -11.2282 N   0  0  0  0  0  0  0  0  0  0  0  0
   29.9071  -21.5640  -11.6933 C   0  0  0  0  0  0  0  0  0  0  0  0
   29.0404  -21.1642  -10.5229 C   0  0  0  0  0  0  0  0  0  0  0  0
   27.6787  -21.7580  -10.6008 C   0  0  0  0  0  0  0  0  0  0  0  0
   26.9135  -21.1440  -11.7481 C   0  0  2  0  0  0  0  0  0  0  0  0
   27.1065  -19.7021  -11.6165 N   0  0  0  0  0  0  0  0  0  0  0  0
   25.4660  -21.4833  -11.6522 C   0  0  0  0  0  0  0  0  0  0  0  0
   25.1457  -22.6903  -11.5355 O   0  0  0  0  0  0  0  0  0  0  0  0
   33.1819  -23.6557  -10.6114 N   0  0  0  0  0  0  0  0  0  0  0  0
   18.1473  -23.2031   -8.4013 C   0  0  0  0  0  0  0  0  0  0  0  0
   19.5553  -22.8581   -8.3304 N   0  0  0  0  0  0  0  0  0  0  0  0
   20.2414  -23.1335   -7.2992 N   0  0  0  0  0  0  0  0  0  0  0  0
   20.1880  -22.2060   -9.4116 C   0  0  0  0  0  0  0  0  0  0  0  0
   20.0734  -20.8688   -9.7967 C   0  0  0  0  0  0  0  0  0  0  0  0
   20.7214  -20.3698  -11.0322 C   0  0  0  0  0  0  0  0  0  0  0  0
   22.2228  -20.3173  -10.6863 C   0  0  1  0  0  0  0  0  0  0  0  0
   23.0736  -20.8281  -11.8193 N   0  0  0  0  0  0  0  0  0  0  0  0
   24.4508  -20.4970  -11.6857 C   0  0  0  0  0  0  0  0  0  0  0  0
   22.5846  -20.4756  -13.1593 O   0  0  0  0  0  0  0  0  0  0  0  0
   22.4066  -19.2572  -13.4336 N   0  0  0  0  0  0  0  0  0  0  0  0
   21.2236  -22.9704   -7.1838 C   0  0  0  0  0  0  0  0  0  0  0  0
   23.1931  -23.7103  -20.9401 N   0  0  0  0  0  0  0  0  0  0  0  0
   21.9380  -23.4609  -20.2723 N   0  0  0  0  0  0  0  0  0  0  0  0
   20.9634  -22.8910  -20.8924 C   0  0  0  0  0  0  0  0  0  0  0  0
   21.7511  -23.8383  -18.9214 C   0  0  0  0  0  0  0  0  0  0  0  0
   20.4832  -23.5219  -18.1996 C   0  0  0  0  0  0  0  0  0  0  0  0
   20.7558  -22.2742  -17.4644 C   0  0  2  0  0  0  0  0  0  0  0  0
   21.5137  -22.2004  -16.2383 N   0  0  0  0  0  0  0  0  0  0  0  0
   21.6996  -20.9545  -15.4572 C   0  0  0  0  0  0  0  0  0  0  0  0
   22.3009  -21.4244  -14.1598 O   0  0  0  0  0  0  0  0  0  0  0  0
   20.4509  -20.2870  -15.0703 O   0  0  0  0  0  0  0  0  0  0  0  0
  1  2  1  0
  2  3  2  0
  4  2  1  0
  5  4  1  0
  6  5  1  0
  7  6  1  0
  8  7  1  0
  8  9  1  1
 10 20  1  0
 10  8  1  0
 11 10  2  0
 13 12  1  0
 14 13  2  0
 15 13  1  0
 16 15  1  0
 17 16  1  0
 17 18  1  0
 19 18  1  1
 19 20  1  0
 21 31  1  0
 21 19  1  0
 22 21  2  0
 23 24  1  0
 24 25  2  0
 26 27  1  0
 26 24  1  0
 27 28  1  0
 28 29  1  0
 30 29  1  1
 30 31  1  0
 30 32  1  0
 32 33  1  0
 34 32  2  0
M  END
$$$$
