RRR.pdb
     RDKit          3D

 34 33  0  0  1  0  0  0  0  0999 V2000
   24.5791  -25.7641  -21.7670 N   0  0  0  0  0  0  0  0  0  0  0  0
   23.6929  -24.6693  -21.6720 C   0  0  0  0  0  0  0  0  0  0  0  0
   23.4759  -23.9759  -22.7235 N   0  0  0  0  0  0  0  0  0  0  0  0
   23.0350  -24.3076  -20.4642 N   0  0  0  0  0  0  0  0  0  0  0  0
   23.8014  -23.8186  -19.3378 C   0  0  0  0  0  0  0  0  0  0  0  0
   24.5959  -24.9621  -18.7530 C   0  0  0  0  0  0  0  0  0  0  0  0
   23.9003  -25.6031  -17.6049 C   0  0  0  0  0  0  0  0  0  0  0  0
   24.0008  -24.7211  -16.3839 C   0  0  2  0  0  0  0  0  0  0  0  0
   25.4314  -24.5236  -16.1639 N   0  0  0  0  0  0  0  0  0  0  0  0
   23.3832  -25.3892  -15.2042 C   0  0  0  0  0  0  0  0  0  0  0  0
   24.0775  -26.2064  -14.5538 O   0  0  0  0  0  0  0  0  0  0  0  0
   22.8458  -23.1755  -22.8132 N   0  0  0  0  0  0  0  0  0  0  0  0
   17.7022  -26.6375   -8.7104 C   0  0  0  0  0  0  0  0  0  0  0  0
   17.3593  -25.5687   -9.6304 N   0  0  0  0  0  0  0  0  0  0  0  0
   16.2155  -25.5235  -10.1777 N   0  0  0  0  0  0  0  0  0  0  0  0
   18.2971  -24.5575   -9.9347 C   0  0  0  0  0  0  0  0  0  0  0  0
   18.9927  -24.3598  -11.1291 C   0  0  0  0  0  0  0  0  0  0  0  0
   19.9951  -25.3428  -11.6028 C   0  0  0  0  0  0  0  0  0  0  0  0
   20.5493  -24.7316  -12.9052 C   0  0  2  0  0  0  0  0  0  0  0  0
   21.5087  -25.6658  -13.5946 N   0  0  0  0  0  0  0  0  0  0  0  0
   22.0519  -25.1321  -14.7964 C   0  0  0  0  0  0  0  0  0  0  0  0
   20.9884  -27.0213  -13.8195 O   0  0  0  0  0  0  0  0  0  0  0  0
   19.9433  -27.1574  -14.5127 N   0  0  0  0  0  0  0  0  0  0  0  0
   15.8996  -24.8280  -10.8268 C   0  0  0  0  0  0  0  0  0  0  0  0
   24.2468  -33.3209  -10.9272 N   0  0  0  0  0  0  0  0  0  0  0  0
   23.2262  -34.0577  -11.6334 N   0  0  0  0  0  0  0  0  0  0  0  0
   22.6064  -35.0341  -11.0660 C   0  0  0  0  0  0  0  0  0  0  0  0
   22.8838  -33.7224  -12.9648 C   0  0  0  0  0  0  0  0  0  0  0  0
   23.5345  -32.5750  -13.6638 C   0  0  0  0  0  0  0  0  0  0  0  0
   22.4337  -31.6620  -14.0194 C   0  0  1  0  0  0  0  0  0  0  0  0
   22.0730  -30.4874  -13.2621 N   0  0  0  0  0  0  0  0  0  0  0  0
   21.0256  -29.5258  -13.6803 C   0  0  0  0  0  0  0  0  0  0  0  0
   21.5918  -28.1834  -13.3024 O   0  0  0  0  0  0  0  0  0  0  0  0
   19.7702  -29.6275  -12.9265 O   0  0  0  0  0  0  0  0  0  0  0  0
  1  2  1  0
  2  3  2  0
  4  2  1  0
  5  4  1  0
  6  5  1  0
  7  6  1  0
  8  7  1  0
  8  9  1  1
 10 20  1  0
 10  8  1  0
 11 10  2  0
 13 12  1  0
 14 13  2  0
 15 13  1  0
 16 15  1  0
 17 16  1  0
 17 18  1  0
 19 18  1  1
 19 20  1  0
 21 31  1  0
 21 19  1  0
 22 21  2  0
 23 24  1  0
 24 25  2  0
 26 27  1  0
 26 24  1  0
 27 28  1  0
 28 29  1  0
 30 29  1  1
 30 31  1  0
 30 32  1  0
 32 33  1  0
 34 32  2  0
M  END
$$$$
