RRR.pdb
     RDKit          3D

 34 33  0  0  1  0  0  0  0  0999 V2000
    8.0550  -19.8478    5.7892 N   0  0  0  0  0  0  0  0  0  0  0  0
    7.4332  -20.9825    5.2246 C   0  0  0  0  0  0  0  0  0  0  0  0
    6.1832  -20.9194    4.9662 N   0  0  0  0  0  0  0  0  0  0  0  0
    8.1341  -22.1849    4.9322 N   0  0  0  0  0  0  0  0  0  0  0  0
    9.5361  -22.3091    5.2701 C   0  0  0  0  0  0  0  0  0  0  0  0
   10.0003  -23.7048    4.9273 C   0  0  0  0  0  0  0  0  0  0  0  0
   11.4385  -23.9145    5.2443 C   0  0  0  0  0  0  0  0  0  0  0  0
   11.8385  -25.3314    4.9110 C   0  0  2  0  0  0  0  0  0  0  0  0
   12.2813  -25.9175    6.1736 N   0  0  0  0  0  0  0  0  0  0  0  0
   12.9492  -25.3413    3.9182 C   0  0  0  0  0  0  0  0  0  0  0  0
   14.0330  -24.7952    4.2345 O   0  0  0  0  0  0  0  0  0  0  0  0
    5.6057  -21.6477    4.5399 N   0  0  0  0  0  0  0  0  0  0  0  0
   15.1389  -31.3141   -1.9290 C   0  0  0  0  0  0  0  0  0  0  0  0
   15.4974  -31.0327   -0.5511 N   0  0  0  0  0  0  0  0  0  0  0  0
   15.8819  -31.9610    0.2236 N   0  0  0  0  0  0  0  0  0  0  0  0
   15.4226  -29.7157   -0.0465 C   0  0  0  0  0  0  0  0  0  0  0  0
   15.1041  -28.5455   -0.7384 C   0  0  0  0  0  0  0  0  0  0  0  0
   15.1600  -27.2231   -0.0723 C   0  0  0  0  0  0  0  0  0  0  0  0
   14.0150  -27.2620    0.9594 C   0  0  1  0  0  0  0  0  0  0  0  0
   13.8879  -25.9567    1.6998 N   0  0  0  0  0  0  0  0  0  0  0  0
   12.8228  -25.9432    2.6429 C   0  0  0  0  0  0  0  0  0  0  0  0
   13.8313  -24.7674    0.8389 O   0  0  0  0  0  0  0  0  0  0  0  0
   12.7919  -24.5710    0.1515 N   0  0  0  0  0  0  0  0  0  0  0  0
   16.0611  -31.8728    1.2059 C   0  0  0  0  0  0  0  0  0  0  0  0
   17.0570  -17.1957    3.2407 N   0  0  0  0  0  0  0  0  0  0  0  0
   15.6427  -17.3541    2.9995 N   0  0  0  0  0  0  0  0  0  0  0  0
   14.8096  -16.4301    3.3334 C   0  0  0  0  0  0  0  0  0  0  0  0
   15.1410  -18.5284    2.3898 C   0  0  0  0  0  0  0  0  0  0  0  0
   16.0536  -19.4992    1.7166 C   0  0  0  0  0  0  0  0  0  0  0  0
   15.1708  -20.5375    1.1559 C   0  0  1  0  0  0  0  0  0  0  0  0
   15.6231  -21.6337    0.3331 N   0  0  0  0  0  0  0  0  0  0  0  0
   14.7253  -22.6758   -0.2190 C   0  0  0  0  0  0  0  0  0  0  0  0
   14.8762  -23.8296    0.7356 O   0  0  0  0  0  0  0  0  0  0  0  0
   15.1423  -23.2107   -1.5208 O   0  0  0  0  0  0  0  0  0  0  0  0
  1  2  1  0
  2  3  2  0
  4  2  1  0
  5  4  1  0
  6  5  1  0
  7  6  1  0
  8  7  1  0
  8  9  1  1
 10 20  1  0
 10  8  1  0
 11 10  2  0
 13 12  1  0
 14 13  2  0
 15 13  1  0
 16 15  1  0
 17 16  1  0
 17 18  1  0
 19 18  1  1
 19 20  1  0
 21 31  1  0
 21 19  1  0
 22 21  2  0
 23 24  1  0
 24 25  2  0
 26 27  1  0
 26 24  1  0
 27 28  1  0
 28 29  1  0
 30 29  1  6
 30 31  1  0
 30 32  1  0
 32 33  1  0
 34 32  2  0
M  END
$$$$
