YHP.pdb
     RDKit          3D

 30 32  0  0  1  0  0  0  0  0999 V2000
    8.7220  -12.7260   16.0592 O   0  0  0  0  0  0  0  0  0  0  0  0
    8.3554  -13.0807   17.3395 C   0  0  0  0  0  0  0  0  0  0  0  0
    9.2825  -13.3908   18.3192 C   0  0  0  0  0  0  0  0  0  0  0  0
    8.9082  -13.7434   19.5930 C   0  0  0  0  0  0  0  0  0  0  0  0
    7.5644  -13.7860   19.8921 C   0  0  0  0  0  0  0  0  0  0  0  0
    7.0784  -14.1626   21.2408 C   0  0  0  0  0  0  0  0  0  0  0  0
    7.1888  -15.6320   21.4295 C   0  0  2  0  0  0  0  0  0  0  0  0
    6.2262  -16.3470   20.5744 N   0  0  0  0  0  0  0  0  0  0  0  0
    6.9704  -16.0822   22.8247 C   0  0  0  0  0  0  0  0  0  0  0  0
    5.9138  -16.6268   23.2362 O   0  0  0  0  0  0  0  0  0  0  0  0
    6.6480  -13.4781   18.9198 C   0  0  0  0  0  0  0  0  0  0  0  0
    7.0165  -13.1254   17.6463 C   0  0  0  0  0  0  0  0  0  0  0  0
    7.9861  -15.9194   23.8292 N   0  0  0  0  0  0  0  0  0  0  0  0
    7.8201  -16.4828   25.1765 C   0  0  1  0  0  0  0  0  0  0  0  0
    7.6875  -17.9883   25.0827 C   0  0  0  0  0  0  0  0  0  0  0  0
    7.6857  -18.6265   26.4181 C   0  0  0  0  0  0  0  0  0  0  0  0
    8.6562  -19.4152   26.9980 C   0  0  0  0  0  0  0  0  0  0  0  0
    8.2449  -19.7932   28.2402 N   0  0  0  0  0  0  0  0  0  0  0  0
    7.0350  -19.2482   28.4328 C   0  0  0  0  0  0  0  0  0  0  0  0
    6.6984  -18.5383   27.3201 N   0  0  0  0  0  0  0  0  0  0  0  0
    9.0457  -16.1894   25.9544 C   0  0  0  0  0  0  0  0  0  0  0  0
   10.1198  -16.8009   25.6086 O   0  0  0  0  0  0  0  0  0  0  0  0
    9.1109  -15.2938   27.0345 N   0  0  0  0  0  0  0  0  0  0  0  0
    8.0230  -14.4874   27.5469 C   0  0  0  0  0  0  0  0  0  0  0  0
    8.7911  -13.2396   28.0241 C   0  0  0  0  0  0  0  0  0  0  0  0
    9.9602  -13.8902   28.7364 C   0  0  0  0  0  0  0  0  0  0  0  0
   10.3070  -15.0280   27.8078 C   0  0  1  0  0  0  0  0  0  0  0  0
   10.8099  -16.2176   28.5017 C   0  0  0  0  0  0  0  0  0  0  0  0
   10.1550  -17.2719   28.5336 O   0  0  0  0  0  0  0  0  0  0  0  0
   12.0384  -16.1773   29.1380 O   0  0  0  0  0  0  0  0  0  0  0  0
  2  1  1  0
  3  2  2  0
  4  3  1  0
  5  4  2  0
  5 11  1  0
  6  5  1  0
  7  6  1  0
  7  8  1  6
  9  7  1  0
  9 10  2  0
 11 12  2  0
 12  2  1  0
 13  9  1  0
 14 15  1  6
 14 13  1  0
 16 15  1  0
 16 17  2  0
 16 20  1  0
 17 18  1  0
 18 19  1  0
 20 19  2  0
 21 14  1  0
 22 21  2  0
 23 27  1  0
 23 21  1  0
 24 23  1  0
 25 24  1  0
 25 26  1  0
 26 27  1  0
 27 28  1  1
 28 29  2  0
 28 30  1  0
M  END
$$$$
