YHP.pdb
     RDKit          3D

 30 32  0  0  1  0  0  0  0  0999 V2000
    9.1271  -12.9405   16.0086 O   0  0  0  0  0  0  0  0  0  0  0  0
    8.4945  -13.3449   17.1642 C   0  0  0  0  0  0  0  0  0  0  0  0
    7.3392  -14.1070   17.1517 C   0  0  0  0  0  0  0  0  0  0  0  0
    6.7152  -14.5057   18.3087 C   0  0  0  0  0  0  0  0  0  0  0  0
    7.2666  -14.1285   19.5131 C   0  0  0  0  0  0  0  0  0  0  0  0
    6.6513  -14.5128   20.8057 C   0  0  0  0  0  0  0  0  0  0  0  0
    7.1410  -15.8515   21.2243 C   0  0  2  0  0  0  0  0  0  0  0  0
    6.4981  -16.9175   20.4374 N   0  0  0  0  0  0  0  0  0  0  0  0
    6.9204  -16.1566   22.6578 C   0  0  0  0  0  0  0  0  0  0  0  0
    5.7899  -16.3469   23.1759 O   0  0  0  0  0  0  0  0  0  0  0  0
    8.4112  -13.3736   19.5228 C   0  0  0  0  0  0  0  0  0  0  0  0
    9.0383  -12.9729   18.3703 C   0  0  0  0  0  0  0  0  0  0  0  0
    8.0209  -16.2579   23.5774 N   0  0  0  0  0  0  0  0  0  0  0  0
    7.7938  -16.3838   25.0241 C   0  0  1  0  0  0  0  0  0  0  0  0
    8.2710  -17.7414   25.4950 C   0  0  0  0  0  0  0  0  0  0  0  0
    7.4277  -18.8368   24.9661 C   0  0  0  0  0  0  0  0  0  0  0  0
    7.4385  -19.4033   23.7095 C   0  0  0  0  0  0  0  0  0  0  0  0
    6.4950  -20.3839   23.6506 N   0  0  0  0  0  0  0  0  0  0  0  0
    5.9039  -20.4287   24.8533 C   0  0  0  0  0  0  0  0  0  0  0  0
    6.4754  -19.4845   25.6514 N   0  0  0  0  0  0  0  0  0  0  0  0
    8.6124  -15.3588   25.7114 C   0  0  0  0  0  0  0  0  0  0  0  0
    9.8779  -15.3798   25.4983 O   0  0  0  0  0  0  0  0  0  0  0  0
    8.1012  -14.3733   26.5718 N   0  0  0  0  0  0  0  0  0  0  0  0
    6.7024  -14.0923   26.8189 C   0  0  0  0  0  0  0  0  0  0  0  0
    6.7545  -12.5718   27.0645 C   0  0  0  0  0  0  0  0  0  0  0  0
    7.9582  -12.4808   27.9811 C   0  0  0  0  0  0  0  0  0  0  0  0
    8.9155  -13.4617   27.3498 C   0  0  1  0  0  0  0  0  0  0  0  0
    9.7709  -14.1521   28.3198 C   0  0  0  0  0  0  0  0  0  0  0  0
   10.6490  -13.5450   28.9538 O   0  0  0  0  0  0  0  0  0  0  0  0
    9.6063  -15.5083   28.5424 O   0  0  0  0  0  0  0  0  0  0  0  0
  2  1  1  0
  3  2  2  0
  4  3  1  0
  5  4  2  0
  5 11  1  0
  6  5  1  0
  7  6  1  0
  7  8  1  6
  9  7  1  0
  9 10  2  0
 11 12  2  0
 12  2  1  0
 13  9  1  0
 14 15  1  1
 14 13  1  0
 16 15  1  0
 16 17  2  0
 16 20  1  0
 17 18  1  0
 18 19  1  0
 20 19  2  0
 21 14  1  0
 22 21  2  0
 23 27  1  0
 23 21  1  0
 24 23  1  0
 25 24  1  0
 25 26  1  0
 26 27  1  0
 27 28  1  1
 28 29  2  0
 28 30  1  0
M  END
$$$$
