YHP.pdb
     RDKit          3D

 30 32  0  0  1  0  0  0  0  0999 V2000
    9.0345  -13.0090   16.0414 O   0  0  0  0  0  0  0  0  0  0  0  0
    8.4818  -13.4030   17.2407 C   0  0  0  0  0  0  0  0  0  0  0  0
    9.0416  -13.0708   18.4621 C   0  0  0  0  0  0  0  0  0  0  0  0
    8.4838  -13.4679   19.6530 C   0  0  0  0  0  0  0  0  0  0  0  0
    7.3309  -14.2205   19.6169 C   0  0  0  0  0  0  0  0  0  0  0  0
    6.6704  -14.6933   20.8567 C   0  0  0  0  0  0  0  0  0  0  0  0
    7.1403  -16.0618   21.1936 C   0  0  2  0  0  0  0  0  0  0  0  0
    6.4513  -17.0723   20.3732 N   0  0  0  0  0  0  0  0  0  0  0  0
    6.9525  -16.4343   22.6158 C   0  0  0  0  0  0  0  0  0  0  0  0
    6.1004  -17.2649   23.0241 O   0  0  0  0  0  0  0  0  0  0  0  0
    6.7782  -14.5482   18.4056 C   0  0  0  0  0  0  0  0  0  0  0  0
    7.3311  -14.1541   17.2136 C   0  0  0  0  0  0  0  0  0  0  0  0
    7.7590  -15.8507   23.6532 N   0  0  0  0  0  0  0  0  0  0  0  0
    7.7837  -16.4199   25.0080 C   0  0  1  0  0  0  0  0  0  0  0  0
    8.2378  -17.8629   24.9424 C   0  0  0  0  0  0  0  0  0  0  0  0
    7.5545  -18.7030   25.9515 C   0  0  0  0  0  0  0  0  0  0  0  0
    7.8384  -18.8412   27.2932 C   0  0  0  0  0  0  0  0  0  0  0  0
    6.9580  -19.7183   27.8507 N   0  0  0  0  0  0  0  0  0  0  0  0
    6.1364  -20.1216   26.8708 C   0  0  0  0  0  0  0  0  0  0  0  0
    6.5036  -19.5005   25.7155 N   0  0  0  0  0  0  0  0  0  0  0  0
    8.7830  -15.6723   25.8052 C   0  0  0  0  0  0  0  0  0  0  0  0
   10.0188  -15.9637   25.6181 O   0  0  0  0  0  0  0  0  0  0  0  0
    8.4717  -14.6739   26.7429 N   0  0  0  0  0  0  0  0  0  0  0  0
    7.1584  -14.1240   27.0061 C   0  0  0  0  0  0  0  0  0  0  0  0
    7.5241  -12.6740   27.3786 C   0  0  0  0  0  0  0  0  0  0  0  0
    8.6992  -12.9145   28.3052 C   0  0  0  0  0  0  0  0  0  0  0  0
    9.4422  -14.0215   27.5983 C   0  0  1  0  0  0  0  0  0  0  0  0
   10.1112  -14.9536   28.5110 C   0  0  0  0  0  0  0  0  0  0  0  0
    9.6797  -16.1039   28.6902 O   0  0  0  0  0  0  0  0  0  0  0  0
   11.2480  -14.5551   29.1929 O   0  0  0  0  0  0  0  0  0  0  0  0
  2  1  1  0
  3  2  2  0
  4  3  1  0
  5  4  2  0
  5 11  1  0
  6  5  1  0
  7  6  1  0
  7  8  1  6
  9  7  1  0
  9 10  2  0
 11 12  2  0
 12  2  1  0
 13  9  1  0
 14 15  1  6
 14 13  1  0
 16 15  1  0
 16 17  2  0
 16 20  1  0
 17 18  1  0
 18 19  1  0
 20 19  2  0
 21 14  1  0
 22 21  2  0
 23 27  1  0
 23 21  1  0
 24 23  1  0
 25 24  1  0
 25 26  1  0
 26 27  1  0
 27 28  1  1
 28 29  2  0
 28 30  1  0
M  END
$$$$
