YHP.pdb
     RDKit          3D

 30 32  0  0  1  0  0  0  0  0999 V2000
    9.8747  -13.9771   15.3353 O   0  0  0  0  0  0  0  0  0  0  0  0
    9.3375  -14.0405   16.6028 C   0  0  0  0  0  0  0  0  0  0  0  0
   10.1063  -14.3009   17.7239 C   0  0  0  0  0  0  0  0  0  0  0  0
    9.5624  -14.3623   18.9838 C   0  0  0  0  0  0  0  0  0  0  0  0
    8.2076  -14.1565   19.1225 C   0  0  0  0  0  0  0  0  0  0  0  0
    7.5431  -14.2118   20.4463 C   0  0  0  0  0  0  0  0  0  0  0  0
    7.5224  -15.6103   20.9473 C   0  0  2  0  0  0  0  0  0  0  0  0
    6.6365  -16.4516   20.1249 N   0  0  0  0  0  0  0  0  0  0  0  0
    7.0853  -15.7428   22.3573 C   0  0  0  0  0  0  0  0  0  0  0  0
    5.8929  -15.6324   22.7427 O   0  0  0  0  0  0  0  0  0  0  0  0
    7.4483  -13.8986   18.0104 C   0  0  0  0  0  0  0  0  0  0  0  0
    7.9864  -13.8362   16.7501 C   0  0  0  0  0  0  0  0  0  0  0  0
    8.0276  -16.0148   23.4085 N   0  0  0  0  0  0  0  0  0  0  0  0
    7.6077  -16.0461   24.8167 C   0  0  1  0  0  0  0  0  0  0  0  0
    7.8427  -17.4301   25.3842 C   0  0  0  0  0  0  0  0  0  0  0  0
    6.9351  -18.4339   24.7845 C   0  0  0  0  0  0  0  0  0  0  0  0
    5.9176  -18.2418   23.8747 C   0  0  0  0  0  0  0  0  0  0  0  0
    5.3363  -19.4404   23.5910 N   0  0  0  0  0  0  0  0  0  0  0  0
    5.9818  -20.3674   24.3134 C   0  0  0  0  0  0  0  0  0  0  0  0
    6.9550  -19.7496   25.0390 N   0  0  0  0  0  0  0  0  0  0  0  0
    8.4601  -15.1014   25.5743 C   0  0  0  0  0  0  0  0  0  0  0  0
    9.7304  -15.2689   25.4996 O   0  0  0  0  0  0  0  0  0  0  0  0
    7.9760  -14.0432   26.3609 N   0  0  0  0  0  0  0  0  0  0  0  0
    6.6070  -13.5757   26.4208 C   0  0  0  0  0  0  0  0  0  0  0  0
    6.8284  -12.0717   26.6735 C   0  0  0  0  0  0  0  0  0  0  0  0
    7.9022  -12.1260   27.7418 C   0  0  0  0  0  0  0  0  0  0  0  0
    8.7950  -13.2349   27.2414 C   0  0  1  0  0  0  0  0  0  0  0  0
    9.4156  -14.0167   28.3152 C   0  0  0  0  0  0  0  0  0  0  0  0
    9.0271  -15.1644   28.5862 O   0  0  0  0  0  0  0  0  0  0  0  0
   10.4567  -13.4755   29.0494 O   0  0  0  0  0  0  0  0  0  0  0  0
  2  1  1  0
  3  2  2  0
  4  3  1  0
  5  4  2  0
  5 11  1  0
  6  5  1  0
  7  6  1  0
  7  8  1  6
  9  7  1  0
  9 10  2  0
 11 12  2  0
 12  2  1  0
 13  9  1  0
 14 15  1  1
 14 13  1  0
 16 15  1  0
 16 17  2  0
 16 20  1  0
 17 18  1  0
 18 19  1  0
 20 19  2  0
 21 14  1  0
 22 21  2  0
 23 27  1  0
 23 21  1  0
 24 23  1  0
 25 24  1  0
 25 26  1  0
 26 27  1  0
 27 28  1  1
 28 29  2  0
 28 30  1  0
M  END
$$$$
