YHP.pdb
     RDKit          3D

 30 32  0  0  1  0  0  0  0  0999 V2000
    9.5959  -12.9157   16.1677 O   0  0  0  0  0  0  0  0  0  0  0  0
    8.8842  -13.2877   17.2877 C   0  0  0  0  0  0  0  0  0  0  0  0
    7.5535  -13.6641   17.2318 C   0  0  0  0  0  0  0  0  0  0  0  0
    6.8516  -14.0334   18.3534 C   0  0  0  0  0  0  0  0  0  0  0  0
    7.5042  -14.0245   19.5662 C   0  0  0  0  0  0  0  0  0  0  0  0
    6.8164  -14.4035   20.8233 C   0  0  0  0  0  0  0  0  0  0  0  0
    7.1612  -15.8012   21.1905 C   0  0  2  0  0  0  0  0  0  0  0  0
    6.3898  -16.7631   20.3852 N   0  0  0  0  0  0  0  0  0  0  0  0
    6.9331  -16.1267   22.6184 C   0  0  0  0  0  0  0  0  0  0  0  0
    5.8198  -16.4600   23.1000 O   0  0  0  0  0  0  0  0  0  0  0  0
    8.8225  -13.6513   19.6189 C   0  0  0  0  0  0  0  0  0  0  0  0
    9.5280  -13.2817   18.5019 C   0  0  0  0  0  0  0  0  0  0  0  0
    8.0054  -16.0806   23.5750 N   0  0  0  0  0  0  0  0  0  0  0  0
    7.7671  -16.3601   24.9982 C   0  0  1  0  0  0  0  0  0  0  0  0
    8.1406  -17.7959   25.3013 C   0  0  0  0  0  0  0  0  0  0  0  0
    7.1436  -18.7502   24.7664 C   0  0  0  0  0  0  0  0  0  0  0  0
    6.0263  -18.4916   24.0017 C   0  0  0  0  0  0  0  0  0  0  0  0
    5.3876  -19.6632   23.7288 N   0  0  0  0  0  0  0  0  0  0  0  0
    6.0962  -20.6391   24.3148 C   0  0  0  0  0  0  0  0  0  0  0  0
    7.1651  -20.0782   24.9458 N   0  0  0  0  0  0  0  0  0  0  0  0
    8.6592  -15.4879   25.7961 C   0  0  0  0  0  0  0  0  0  0  0  0
    9.9178  -15.7337   25.7454 O   0  0  0  0  0  0  0  0  0  0  0  0
    8.2240  -14.4186   26.5963 N   0  0  0  0  0  0  0  0  0  0  0  0
    6.8702  -13.9142   26.6914 C   0  0  0  0  0  0  0  0  0  0  0  0
    7.1388  -12.4173   26.9407 C   0  0  0  0  0  0  0  0  0  0  0  0
    8.2374  -12.5032   27.9815 C   0  0  0  0  0  0  0  0  0  0  0  0
    9.0867  -13.6349   27.4570 C   0  0  1  0  0  0  0  0  0  0  0  0
    9.7126  -14.4357   28.5136 C   0  0  0  0  0  0  0  0  0  0  0  0
   10.5892  -13.9586   29.2523 O   0  0  0  0  0  0  0  0  0  0  0  0
    9.3273  -15.7517   28.7018 O   0  0  0  0  0  0  0  0  0  0  0  0
  2  1  1  0
  3  2  2  0
  4  3  1  0
  5  4  2  0
  5 11  1  0
  6  5  1  0
  7  6  1  0
  7  8  1  6
  9  7  1  0
  9 10  2  0
 11 12  2  0
 12  2  1  0
 13  9  1  0
 14 15  1  6
 14 13  1  0
 16 15  1  0
 16 17  2  0
 16 20  1  0
 17 18  1  0
 18 19  1  0
 20 19  2  0
 21 14  1  0
 22 21  2  0
 23 27  1  0
 23 21  1  0
 24 23  1  0
 25 24  1  0
 25 26  1  0
 26 27  1  0
 27 28  1  1
 28 29  2  0
 28 30  1  0
M  END
$$$$
