YHP.pdb
     RDKit          3D

 30 32  0  0  1  0  0  0  0  0999 V2000
   10.1284  -13.6285   15.3727 O   0  0  0  0  0  0  0  0  0  0  0  0
    9.5372  -13.7373   16.6128 C   0  0  0  0  0  0  0  0  0  0  0  0
   10.2692  -13.9368   17.7703 C   0  0  0  0  0  0  0  0  0  0  0  0
    9.6715  -14.0442   19.0025 C   0  0  0  0  0  0  0  0  0  0  0  0
    8.2995  -13.9488   19.0749 C   0  0  0  0  0  0  0  0  0  0  0  0
    7.5781  -14.0601   20.3650 C   0  0  0  0  0  0  0  0  0  0  0  0
    7.7418  -15.4271   20.9233 C   0  0  2  0  0  0  0  0  0  0  0  0
    7.0548  -16.4243   20.0852 N   0  0  0  0  0  0  0  0  0  0  0  0
    7.2370  -15.5807   22.3083 C   0  0  0  0  0  0  0  0  0  0  0  0
    6.0194  -15.5674   22.6242 O   0  0  0  0  0  0  0  0  0  0  0  0
    7.5766  -13.7512   17.9267 C   0  0  0  0  0  0  0  0  0  0  0  0
    8.1685  -13.6431   16.6938 C   0  0  0  0  0  0  0  0  0  0  0  0
    8.1368  -15.7606   23.4151 N   0  0  0  0  0  0  0  0  0  0  0  0
    7.6321  -15.9478   24.7828 C   0  0  1  0  0  0  0  0  0  0  0  0
    7.7853  -17.3996   25.1844 C   0  0  0  0  0  0  0  0  0  0  0  0
    6.9031  -18.2871   24.3938 C   0  0  0  0  0  0  0  0  0  0  0  0
    7.2174  -19.0597   23.2963 C   0  0  0  0  0  0  0  0  0  0  0  0
    6.1027  -19.7218   22.8789 N   0  0  0  0  0  0  0  0  0  0  0  0
    5.1070  -19.3674   23.7042 C   0  0  0  0  0  0  0  0  0  0  0  0
    5.5993  -18.4933   24.6254 N   0  0  0  0  0  0  0  0  0  0  0  0
    8.4690  -15.1395   25.6990 C   0  0  0  0  0  0  0  0  0  0  0  0
    9.7285  -15.3855   25.7128 O   0  0  0  0  0  0  0  0  0  0  0  0
    7.9812  -14.1299   26.5450 N   0  0  0  0  0  0  0  0  0  0  0  0
    6.6189  -13.6427   26.6021 C   0  0  0  0  0  0  0  0  0  0  0  0
    6.8582  -12.1643   26.9653 C   0  0  0  0  0  0  0  0  0  0  0  0
    7.9016  -12.3126   28.0546 C   0  0  0  0  0  0  0  0  0  0  0  0
    8.7892  -13.4002   27.5010 C   0  0  1  0  0  0  0  0  0  0  0  0
    9.3674  -14.2662   28.5330 C   0  0  0  0  0  0  0  0  0  0  0  0
    8.9559  -15.4242   28.7096 O   0  0  0  0  0  0  0  0  0  0  0  0
   10.3936  -13.7949   29.3335 O   0  0  0  0  0  0  0  0  0  0  0  0
  2  1  1  0
  3  2  2  0
  4  3  1  0
  5  4  2  0
  5 11  1  0
  6  5  1  0
  7  6  1  0
  7  8  1  6
  9  7  1  0
  9 10  2  0
 11 12  2  0
 12  2  1  0
 13  9  1  0
 14 15  1  1
 14 13  1  0
 16 15  1  0
 16 17  2  0
 16 20  1  0
 17 18  1  0
 18 19  1  0
 20 19  2  0
 21 14  1  0
 22 21  2  0
 23 27  1  0
 23 21  1  0
 24 23  1  0
 25 24  1  0
 25 26  1  0
 26 27  1  0
 27 28  1  1
 28 29  2  0
 28 30  1  0
M  END
$$$$
