YHP.pdb
     RDKit          3D

 30 32  0  0  1  0  0  0  0  0999 V2000
    6.8622  -12.9476   16.4775 O   0  0  0  0  0  0  0  0  0  0  0  0
    7.6467  -13.5151   17.4581 C   0  0  0  0  0  0  0  0  0  0  0  0
    8.9316  -13.9675   17.2131 C   0  0  0  0  0  0  0  0  0  0  0  0
    9.7067  -14.5321   18.1967 C   0  0  0  0  0  0  0  0  0  0  0  0
    9.1767  -14.6461   19.4628 C   0  0  0  0  0  0  0  0  0  0  0  0
    9.9457  -15.2487   20.5775 C   0  0  0  0  0  0  0  0  0  0  0  0
    9.2351  -16.4452   21.0976 C   0  0  2  0  0  0  0  0  0  0  0  0
    8.4437  -17.0907   20.0365 N   0  0  0  0  0  0  0  0  0  0  0  0
    8.3216  -16.1632   22.2301 C   0  0  0  0  0  0  0  0  0  0  0  0
    7.1914  -15.6238   22.1113 O   0  0  0  0  0  0  0  0  0  0  0  0
    7.9037  -14.1971   19.7030 C   0  0  0  0  0  0  0  0  0  0  0  0
    7.1255  -13.6325   18.7243 C   0  0  0  0  0  0  0  0  0  0  0  0
    8.6813  -16.4993   23.5809 N   0  0  0  0  0  0  0  0  0  0  0  0
    7.8174  -16.1319   24.7118 C   0  0  1  0  0  0  0  0  0  0  0  0
    7.2969  -17.3871   25.3798 C   0  0  0  0  0  0  0  0  0  0  0  0
    6.5066  -18.2215   24.4471 C   0  0  0  0  0  0  0  0  0  0  0  0
    5.4659  -17.8462   23.6249 C   0  0  0  0  0  0  0  0  0  0  0  0
    5.0249  -18.9336   22.9333 N   0  0  0  0  0  0  0  0  0  0  0  0
    5.7797  -19.9728   23.3185 C   0  0  0  0  0  0  0  0  0  0  0  0
    6.6810  -19.5343   24.2408 N   0  0  0  0  0  0  0  0  0  0  0  0
    8.6406  -15.4049   25.7052 C   0  0  0  0  0  0  0  0  0  0  0  0
    9.8414  -15.8198   25.8874 O   0  0  0  0  0  0  0  0  0  0  0  0
    8.1997  -14.3011   26.4536 N   0  0  0  0  0  0  0  0  0  0  0  0
    6.9044  -13.6614   26.3567 C   0  0  0  0  0  0  0  0  0  0  0  0
    7.2812  -12.2012   26.6740 C   0  0  0  0  0  0  0  0  0  0  0  0
    8.1969  -12.4045   27.8646 C   0  0  0  0  0  0  0  0  0  0  0  0
    8.9975  -13.6142   27.4490 C   0  0  1  0  0  0  0  0  0  0  0  0
    9.3744  -14.4804   28.5703 C   0  0  0  0  0  0  0  0  0  0  0  0
    8.8112  -15.5700   28.7626 O   0  0  0  0  0  0  0  0  0  0  0  0
   10.3771  -14.0867   29.4395 O   0  0  0  0  0  0  0  0  0  0  0  0
  2  1  1  0
  3  2  2  0
  4  3  1  0
  5  4  2  0
  5 11  1  0
  6  5  1  0
  7  6  1  0
  7  8  1  6
  9  7  1  0
  9 10  2  0
 11 12  2  0
 12  2  1  0
 13  9  1  0
 14 15  1  1
 14 13  1  0
 16 15  1  0
 16 17  2  0
 16 20  1  0
 17 18  1  0
 18 19  1  0
 20 19  2  0
 21 14  1  0
 22 21  2  0
 23 27  1  0
 23 21  1  0
 24 23  1  0
 25 24  1  0
 25 26  1  0
 26 27  1  0
 27 28  1  1
 28 29  2  0
 28 30  1  0
M  END
$$$$
