YHP.pdb
     RDKit          3D

 30 32  0  0  1  0  0  0  0  0999 V2000
    8.2160  -22.3778   18.6843 O   0  0  0  0  0  0  0  0  0  0  0  0
    8.8225  -21.4382   19.4897 C   0  0  0  0  0  0  0  0  0  0  0  0
    8.2820  -21.0350   20.6984 C   0  0  0  0  0  0  0  0  0  0  0  0
    8.8935  -20.0976   21.4949 C   0  0  0  0  0  0  0  0  0  0  0  0
   10.0817  -19.5490   21.0659 C   0  0  0  0  0  0  0  0  0  0  0  0
   10.8009  -18.5278   21.8639 C   0  0  0  0  0  0  0  0  0  0  0  0
   10.4024  -17.1656   21.4249 C   0  0  2  0  0  0  0  0  0  0  0  0
   11.4142  -16.5845   20.5262 N   0  0  0  0  0  0  0  0  0  0  0  0
   10.1872  -16.2091   22.5364 C   0  0  0  0  0  0  0  0  0  0  0  0
   11.0840  -15.4709   23.0195 O   0  0  0  0  0  0  0  0  0  0  0  0
   10.6151  -19.9503   19.8683 C   0  0  0  0  0  0  0  0  0  0  0  0
   10.0086  -20.8860   19.0691 C   0  0  0  0  0  0  0  0  0  0  0  0
    8.8972  -16.0594   23.1533 N   0  0  0  0  0  0  0  0  0  0  0  0
    8.6659  -15.0507   24.1970 C   0  0  1  0  0  0  0  0  0  0  0  0
    7.1856  -14.7450   24.2860 C   0  0  0  0  0  0  0  0  0  0  0  0
    6.8897  -13.7515   25.3425 C   0  0  0  0  0  0  0  0  0  0  0  0
    7.7671  -13.0946   26.1784 C   0  0  0  0  0  0  0  0  0  0  0  0
    7.0676  -12.2656   27.0021 N   0  0  0  0  0  0  0  0  0  0  0  0
    5.7722  -12.4030   26.6847 C   0  0  0  0  0  0  0  0  0  0  0  0
    5.6685  -13.3092   25.6732 N   0  0  0  0  0  0  0  0  0  0  0  0
    9.0828  -15.6260   25.4963 C   0  0  0  0  0  0  0  0  0  0  0  0
    9.0397  -16.9035   25.6125 O   0  0  0  0  0  0  0  0  0  0  0  0
    9.5195  -14.8742   26.5995 N   0  0  0  0  0  0  0  0  0  0  0  0
    9.4725  -13.4328   26.7278 C   0  0  0  0  0  0  0  0  0  0  0  0
   10.7286  -13.1800   27.5839 C   0  0  0  0  0  0  0  0  0  0  0  0
   10.5775  -14.2707   28.6254 C   0  0  0  0  0  0  0  0  0  0  0  0
   10.1067  -15.4407   27.7968 C   0  0  1  0  0  0  0  0  0  0  0  0
    9.1885  -16.3326   28.5115 C   0  0  0  0  0  0  0  0  0  0  0  0
    7.9944  -16.4270   28.1848 O   0  0  0  0  0  0  0  0  0  0  0  0
    9.6500  -17.0903   29.5740 O   0  0  0  0  0  0  0  0  0  0  0  0
  2  1  1  0
  3  2  2  0
  4  3  1  0
  5  4  2  0
  5 11  1  0
  6  5  1  0
  7  6  1  0
  7  8  1  6
  9  7  1  0
  9 10  2  0
 11 12  2  0
 12  2  1  0
 13  9  1  0
 14 15  1  1
 14 13  1  0
 16 15  1  0
 16 17  2  0
 16 20  1  0
 17 18  1  0
 18 19  1  0
 20 19  2  0
 21 14  1  0
 22 21  2  0
 23 27  1  0
 23 21  1  0
 24 23  1  0
 25 24  1  0
 25 26  1  0
 26 27  1  0
 27 28  1  1
 28 29  2  0
 28 30  1  0
M  END
$$$$
