YHP.pdb
     RDKit          3D

 30 32  0  0  1  0  0  0  0  0999 V2000
   16.9892  -15.3523   17.9673 O   0  0  0  0  0  0  0  0  0  0  0  0
   15.8631  -14.9296   18.6398 C   0  0  0  0  0  0  0  0  0  0  0  0
   14.8777  -14.1687   18.0351 C   0  0  0  0  0  0  0  0  0  0  0  0
   13.7582  -13.7517   18.7132 C   0  0  0  0  0  0  0  0  0  0  0  0
   13.6239  -14.1085   20.0366 C   0  0  0  0  0  0  0  0  0  0  0  0
   12.4492  -13.6936   20.8396 C   0  0  0  0  0  0  0  0  0  0  0  0
   11.3591  -14.6934   20.7008 C   0  0  2  0  0  0  0  0  0  0  0  0
   10.7598  -14.6364   19.3567 N   0  0  0  0  0  0  0  0  0  0  0  0
   10.2641  -14.5374   21.6874 C   0  0  0  0  0  0  0  0  0  0  0  0
    9.4645  -13.5665   21.7107 O   0  0  0  0  0  0  0  0  0  0  0  0
   14.6014  -14.8624   20.6334 C   0  0  0  0  0  0  0  0  0  0  0  0
   15.7212  -15.2815   19.9608 C   0  0  0  0  0  0  0  0  0  0  0  0
   10.0390  -15.5183   22.7142 N   0  0  0  0  0  0  0  0  0  0  0  0
    9.0759  -15.2773   23.7980 C   0  0  1  0  0  0  0  0  0  0  0  0
    8.0752  -16.4125   23.8474 C   0  0  0  0  0  0  0  0  0  0  0  0
    7.1492  -16.2825   24.9948 C   0  0  0  0  0  0  0  0  0  0  0  0
    6.1688  -15.3375   25.2086 C   0  0  0  0  0  0  0  0  0  0  0  0
    5.5514  -15.5912   26.3959 N   0  0  0  0  0  0  0  0  0  0  0  0
    6.1383  -16.6790   26.9156 C   0  0  0  0  0  0  0  0  0  0  0  0
    7.1111  -17.0967   26.0586 N   0  0  0  0  0  0  0  0  0  0  0  0
    9.8150  -15.2763   25.0813 C   0  0  0  0  0  0  0  0  0  0  0  0
   10.7806  -16.1131   25.2022 O   0  0  0  0  0  0  0  0  0  0  0  0
    9.5335  -14.4276   26.1646 N   0  0  0  0  0  0  0  0  0  0  0  0
    8.6428  -13.2862   26.1509 C   0  0  0  0  0  0  0  0  0  0  0  0
    9.3465  -12.3613   27.1630 C   0  0  0  0  0  0  0  0  0  0  0  0
    9.6683  -13.3511   28.2648 C   0  0  0  0  0  0  0  0  0  0  0  0
   10.1145  -14.5635   27.4848 C   0  0  1  0  0  0  0  0  0  0  0  0
    9.7683  -15.8342   28.1290 C   0  0  0  0  0  0  0  0  0  0  0  0
    8.8986  -16.5828   27.6550 O   0  0  0  0  0  0  0  0  0  0  0  0
   10.4170  -16.2185   29.2898 O   0  0  0  0  0  0  0  0  0  0  0  0
  2  1  1  0
  3  2  2  0
  4  3  1  0
  5  4  2  0
  5 11  1  0
  6  5  1  0
  7  6  1  0
  7  8  1  6
  9  7  1  0
  9 10  2  0
 11 12  2  0
 12  2  1  0
 13  9  1  0
 14 15  1  1
 14 13  1  0
 16 15  1  0
 16 17  2  0
 16 20  1  0
 17 18  1  0
 18 19  1  0
 20 19  2  0
 21 14  1  0
 22 21  2  0
 23 27  1  0
 23 21  1  0
 24 23  1  0
 25 24  1  0
 25 26  1  0
 26 27  1  0
 27 28  1  1
 28 29  2  0
 28 30  1  0
M  END
$$$$
