ETV.pdb
     RDKit          3D

 24 23  0  0  1  0  0  0  0  0999 V2000
   26.4327  -20.6152  -14.7352 N   0  0  0  0  0  0  0  0  0  0  0  0
   25.2021  -21.3760  -15.0271 C   0  0  1  0  0  0  0  0  0  0  0  0
   25.5377  -22.8004  -14.7666 C   0  0  0  0  0  0  0  0  0  0  0  0
   26.6570  -23.2592  -15.6632 C   0  0  0  0  0  0  0  0  0  0  0  0
   26.0011  -23.8597  -16.8672 C   0  0  0  0  0  0  0  0  0  0  0  0
   24.8539  -24.3404  -16.7752 O   0  0  0  0  0  0  0  0  0  0  0  0
   24.1188  -20.8085  -14.2150 C   0  0  0  0  0  0  0  0  0  0  0  0
   24.2475  -19.6393  -13.7029 O   0  0  0  0  0  0  0  0  0  0  0  0
   26.6888  -23.8621  -18.0581 O   0  0  0  0  0  0  0  0  0  0  0  0
   22.5758  -18.8283  -14.7461 C   0  0  0  0  0  0  0  0  0  0  0  0
   21.3939  -19.7226  -14.4732 C   0  0  1  0  0  0  0  0  0  0  0  0
   21.1454  -20.3735  -15.7101 O   0  0  0  0  0  0  0  0  0  0  0  0
   21.6872  -20.7793  -13.4487 C   0  0  2  0  0  0  0  0  0  0  0  0
   22.9006  -21.4487  -13.9343 N   0  0  0  0  0  0  0  0  0  0  0  0
   20.6151  -21.7290  -13.2024 C   0  0  0  0  0  0  0  0  0  0  0  0
   20.4590  -22.6562  -14.0871 O   0  0  0  0  0  0  0  0  0  0  0  0
   18.1650  -21.7380   -9.7558 C   0  0  0  0  0  0  0  0  0  0  0  0
   18.5675  -23.0535  -10.3866 C   0  0  1  0  0  0  0  0  0  0  0  0
   17.4991  -24.0699  -10.1127 C   0  0  0  0  0  0  0  0  0  0  0  0
   18.7179  -22.7810  -11.8625 C   0  0  2  0  0  0  0  0  0  0  0  0
   19.7230  -21.7727  -12.1248 N   0  0  0  0  0  0  0  0  0  0  0  0
   17.4247  -22.2761  -12.4407 C   0  0  0  0  0  0  0  0  0  0  0  0
   16.4715  -23.1810  -12.8353 O   0  0  0  0  0  0  0  0  0  0  0  0
   17.1993  -21.0539  -12.5688 O   0  0  0  0  0  0  0  0  0  0  0  0
  2  1  1  1
  3  2  1  0
  4  3  1  0
  4  5  1  0
  5  6  2  0
  7  2  1  0
  7  8  2  0
  9  5  1  0
 11 10  1  6
 11 12  1  0
 11 13  1  0
 13 14  1  6
 14  7  1  0
 15 21  1  0
 15 13  1  0
 16 15  2  0
 18 17  1  1
 18 20  1  0
 19 18  1  0
 20 21  1  1
 20 22  1  0
 22 23  1  0
 24 22  2  0
M  END
$$$$
