ETV.pdb
     RDKit          3D

 24 23  0  0  1  0  0  0  0  0999 V2000
   20.5658  -13.1053  -16.9089 N   0  0  0  0  0  0  0  0  0  0  0  0
   20.1461  -11.6903  -16.9192 C   0  0  1  0  0  0  0  0  0  0  0  0
   18.7412  -11.6832  -16.4338 C   0  0  0  0  0  0  0  0  0  0  0  0
   17.8420  -12.4254  -17.3865 C   0  0  0  0  0  0  0  0  0  0  0  0
   17.3709  -13.6391  -16.6481 C   0  0  0  0  0  0  0  0  0  0  0  0
   16.9788  -13.5359  -15.4686 O   0  0  0  0  0  0  0  0  0  0  0  0
   21.1110  -10.9289  -16.1164 C   0  0  0  0  0  0  0  0  0  0  0  0
   21.9200  -11.5446  -15.3340 O   0  0  0  0  0  0  0  0  0  0  0  0
   17.3804  -14.8501  -17.2997 O   0  0  0  0  0  0  0  0  0  0  0  0
   23.6590  -10.8410  -15.7625 C   0  0  0  0  0  0  0  0  0  0  0  0
   23.5786   -9.3440  -15.9166 C   0  0  1  0  0  0  0  0  0  0  0  0
   23.6365   -9.1256  -17.3181 O   0  0  0  0  0  0  0  0  0  0  0  0
   22.2830   -8.7757  -15.4161 C   0  0  2  0  0  0  0  0  0  0  0  0
   21.2415   -9.5305  -16.1244 N   0  0  0  0  0  0  0  0  0  0  0  0
   22.1173   -7.3425  -15.5917 C   0  0  0  0  0  0  0  0  0  0  0  0
   22.0581   -6.9195  -16.8100 O   0  0  0  0  0  0  0  0  0  0  0  0
   19.6106   -5.3901  -15.8665 C   0  0  0  0  0  0  0  0  0  0  0  0
   20.2605   -4.6446  -14.7211 C   0  0  1  0  0  0  0  0  0  0  0  0
   19.6685   -5.1272  -13.4302 C   0  0  0  0  0  0  0  0  0  0  0  0
   21.7358   -4.9459  -14.8094 C   0  0  2  0  0  0  0  0  0  0  0  0
   22.0117   -6.3527  -14.6079 N   0  0  0  0  0  0  0  0  0  0  0  0
   22.4931   -4.1915  -13.7516 C   0  0  0  0  0  0  0  0  0  0  0  0
   22.6684   -2.8378  -13.8933 O   0  0  0  0  0  0  0  0  0  0  0  0
   22.9645   -4.7686  -12.7487 O   0  0  0  0  0  0  0  0  0  0  0  0
  2  1  1  1
  3  2  1  0
  4  3  1  0
  4  5  1  0
  5  6  2  0
  7  2  1  0
  7  8  2  0
  9  5  1  0
 11 10  1  6
 11 12  1  0
 11 13  1  0
 13 14  1  6
 14  7  1  0
 15 21  1  0
 15 13  1  0
 16 15  2  0
 18 17  1  6
 18 20  1  0
 19 18  1  0
 20 21  1  1
 20 22  1  0
 22 23  1  0
 24 22  2  0
M  END
$$$$
