ETV.pdb
     RDKit          3D

 24 23  0  0  1  0  0  0  0  0999 V2000
   14.5606  -10.1068  -15.7325 N   0  0  0  0  0  0  0  0  0  0  0  0
   15.7151  -11.0165  -15.8667 C   0  0  1  0  0  0  0  0  0  0  0  0
   15.2405  -12.1489  -16.7044 C   0  0  0  0  0  0  0  0  0  0  0  0
   14.3550  -13.0698  -15.9075 C   0  0  0  0  0  0  0  0  0  0  0  0
   15.2703  -13.8630  -15.0281 C   0  0  0  0  0  0  0  0  0  0  0  0
   15.5399  -13.4536  -13.8812 O   0  0  0  0  0  0  0  0  0  0  0  0
   16.8390  -10.2408  -16.4056 C   0  0  0  0  0  0  0  0  0  0  0  0
   17.1243  -10.3099  -17.6545 O   0  0  0  0  0  0  0  0  0  0  0  0
   15.7933  -15.0386  -15.5136 O   0  0  0  0  0  0  0  0  0  0  0  0
   18.9187   -6.5520  -17.7221 C   0  0  0  0  0  0  0  0  0  0  0  0
   18.0294   -7.6475  -17.1927 C   0  0  1  0  0  0  0  0  0  0  0  0
   17.7076   -8.4290  -18.3333 O   0  0  0  0  0  0  0  0  0  0  0  0
   18.7268   -8.5386  -16.2069 C   0  0  2  0  0  0  0  0  0  0  0  0
   17.6668   -9.3911  -15.6538 N   0  0  0  0  0  0  0  0  0  0  0  0
   19.4659   -7.8563  -15.1580 C   0  0  0  0  0  0  0  0  0  0  0  0
   18.7763   -7.0942  -14.3765 O   0  0  0  0  0  0  0  0  0  0  0  0
   21.6696   -9.5135  -12.6455 C   0  0  0  0  0  0  0  0  0  0  0  0
   22.4963   -8.3423  -13.1306 C   0  0  1  0  0  0  0  0  0  0  0  0
   23.4874   -8.8343  -14.1431 C   0  0  0  0  0  0  0  0  0  0  0  0
   21.5202   -7.3615  -13.7311 C   0  0  2  0  0  0  0  0  0  0  0  0
   20.8362   -7.9166  -14.8799 N   0  0  0  0  0  0  0  0  0  0  0  0
   22.2354   -6.1239  -14.1986 C   0  0  0  0  0  0  0  0  0  0  0  0
   22.6545   -5.2042  -13.2704 O   0  0  0  0  0  0  0  0  0  0  0  0
   22.4564   -5.9155  -15.4105 O   0  0  0  0  0  0  0  0  0  0  0  0
  2  1  1  6
  3  2  1  0
  4  3  1  0
  4  5  1  0
  5  6  2  0
  7  2  1  0
  7  8  2  0
  9  5  1  0
 11 10  1  6
 11 12  1  0
 11 13  1  0
 13 14  1  1
 14  7  1  0
 15 21  1  0
 15 13  1  0
 16 15  2  0
 18 17  1  6
 18 20  1  0
 19 18  1  0
 20 21  1  6
 20 22  1  0
 22 23  1  0
 24 22  2  0
M  END
$$$$
