ETV.pdb
     RDKit          3D

 24 23  0  0  1  0  0  0  0  0999 V2000
   17.0034  -10.7871  -18.4429 N   0  0  0  0  0  0  0  0  0  0  0  0
   17.2009  -10.4712  -17.0147 C   0  0  1  0  0  0  0  0  0  0  0  0
   17.6538  -11.7372  -16.3810 C   0  0  0  0  0  0  0  0  0  0  0  0
   16.5028  -12.6932  -16.2129 C   0  0  0  0  0  0  0  0  0  0  0  0
   15.6741  -12.1477  -15.0921 C   0  0  0  0  0  0  0  0  0  0  0  0
   14.5358  -11.6942  -15.3243 O   0  0  0  0  0  0  0  0  0  0  0  0
   18.1294   -9.3373  -16.9288 C   0  0  0  0  0  0  0  0  0  0  0  0
   19.3818   -9.5179  -17.1404 O   0  0  0  0  0  0  0  0  0  0  0  0
   16.1959  -12.1649  -13.8198 O   0  0  0  0  0  0  0  0  0  0  0  0
   18.5791   -4.3784  -16.8245 C   0  0  0  0  0  0  0  0  0  0  0  0
   17.8310   -5.6825  -16.9296 C   0  0  1  0  0  0  0  0  0  0  0  0
   17.4727   -5.7793  -18.2998 O   0  0  0  0  0  0  0  0  0  0  0  0
   18.6825   -6.8713  -16.5921 C   0  0  2  0  0  0  0  0  0  0  0  0
   17.7629   -8.0156  -16.6267 N   0  0  0  0  0  0  0  0  0  0  0  0
   19.3933   -6.7949  -15.3267 C   0  0  0  0  0  0  0  0  0  0  0  0
   18.6646   -6.8049  -14.2609 O   0  0  0  0  0  0  0  0  0  0  0  0
   21.6850   -9.1217  -13.9252 C   0  0  0  0  0  0  0  0  0  0  0  0
   22.4660   -7.8382  -13.7435 C   0  0  1  0  0  0  0  0  0  0  0  0
   23.5025   -7.7440  -14.8234 C   0  0  0  0  0  0  0  0  0  0  0  0
   21.4584   -6.7192  -13.8333 C   0  0  2  0  0  0  0  0  0  0  0  0
   20.7732   -6.7119  -15.1085 N   0  0  0  0  0  0  0  0  0  0  0  0
   22.1370   -5.3848  -13.6891 C   0  0  0  0  0  0  0  0  0  0  0  0
   22.5661   -4.9847  -12.4486 O   0  0  0  0  0  0  0  0  0  0  0  0
   22.3186   -4.6348  -14.6716 O   0  0  0  0  0  0  0  0  0  0  0  0
  2  1  1  6
  3  2  1  0
  4  3  1  0
  4  5  1  0
  5  6  2  0
  7  2  1  0
  7  8  2  0
  9  5  1  0
 11 10  1  6
 11 12  1  0
 11 13  1  0
 13 14  1  1
 14  7  1  0
 15 21  1  0
 15 13  1  0
 16 15  2  0
 18 17  1  6
 18 20  1  0
 19 18  1  0
 20 21  1  6
 20 22  1  0
 22 23  1  0
 24 22  2  0
M  END
$$$$
