ETV.pdb
     RDKit          3D

 24 23  0  0  1  0  0  0  0  0999 V2000
   19.8392  -13.0774  -17.3252 N   0  0  0  0  0  0  0  0  0  0  0  0
   19.6528  -11.6446  -17.6268 C   0  0  1  0  0  0  0  0  0  0  0  0
   18.2061  -11.3740  -17.4191 C   0  0  0  0  0  0  0  0  0  0  0  0
   17.4517  -11.4700  -18.7186 C   0  0  0  0  0  0  0  0  0  0  0  0
   17.6708  -10.1659  -19.4198 C   0  0  0  0  0  0  0  0  0  0  0  0
   18.3374  -10.1309  -20.4733 O   0  0  0  0  0  0  0  0  0  0  0  0
   20.5806  -10.8825  -16.7820 C   0  0  0  0  0  0  0  0  0  0  0  0
   20.9720  -11.3682  -15.6610 O   0  0  0  0  0  0  0  0  0  0  0  0
   17.1211   -9.0276  -18.8782 O   0  0  0  0  0  0  0  0  0  0  0  0
   24.3620   -7.8911  -16.5052 C   0  0  0  0  0  0  0  0  0  0  0  0
   23.2880   -8.7368  -17.1396 C   0  0  1  0  0  0  0  0  0  0  0  0
   23.8764  -10.0220  -17.2712 O   0  0  0  0  0  0  0  0  0  0  0  0
   22.0693   -8.8758  -16.2748 C   0  0  2  0  0  0  0  0  0  0  0  0
   21.1062   -9.6188  -17.0973 N   0  0  0  0  0  0  0  0  0  0  0  0
   21.5037   -7.6305  -15.7832 C   0  0  0  0  0  0  0  0  0  0  0  0
   20.8531   -6.9202  -16.6429 O   0  0  0  0  0  0  0  0  0  0  0  0
   18.8340   -6.8861  -13.7057 C   0  0  0  0  0  0  0  0  0  0  0  0
   19.9083   -6.0820  -13.0061 C   0  0  1  0  0  0  0  0  0  0  0  0
   20.4101   -6.8639  -11.8286 C   0  0  0  0  0  0  0  0  0  0  0  0
   20.9918   -5.8516  -14.0299 C   0  0  2  0  0  0  0  0  0  0  0  0
   21.5705   -7.0956  -14.4916 N   0  0  0  0  0  0  0  0  0  0  0  0
   22.1100   -5.0363  -13.4410 C   0  0  0  0  0  0  0  0  0  0  0  0
   21.9248   -3.6903  -13.2479 O   0  0  0  0  0  0  0  0  0  0  0  0
   23.2008   -5.5562  -13.1240 O   0  0  0  0  0  0  0  0  0  0  0  0
  2  1  1  1
  3  2  1  0
  4  3  1  0
  4  5  1  0
  5  6  2  0
  7  2  1  0
  7  8  2  0
  9  5  1  0
 11 10  1  1
 11 12  1  0
 11 13  1  0
 13 14  1  6
 14  7  1  0
 15 21  1  0
 15 13  1  0
 16 15  2  0
 18 17  1  6
 18 20  1  0
 19 18  1  0
 20 21  1  1
 20 22  1  0
 22 23  1  0
 24 22  2  0
M  END
$$$$
