ETV.pdb
     RDKit          3D

 24 23  0  0  1  0  0  0  0  0999 V2000
   17.6164  -11.7579  -18.1808 N   0  0  0  0  0  0  0  0  0  0  0  0
   17.6806  -11.1593  -16.8332 C   0  0  1  0  0  0  0  0  0  0  0  0
   18.6138  -12.0161  -16.0558 C   0  0  0  0  0  0  0  0  0  0  0  0
   18.0361  -13.3920  -15.8553 C   0  0  0  0  0  0  0  0  0  0  0  0
   17.2296  -13.3211  -14.5964 C   0  0  0  0  0  0  0  0  0  0  0  0
   17.1599  -12.2493  -13.9623 O   0  0  0  0  0  0  0  0  0  0  0  0
   18.0695   -9.7517  -16.9841 C   0  0  0  0  0  0  0  0  0  0  0  0
   18.9425   -9.4194  -17.8633 O   0  0  0  0  0  0  0  0  0  0  0  0
   16.5763  -14.4534  -14.1693 O   0  0  0  0  0  0  0  0  0  0  0  0
   15.9376   -7.0265  -17.9523 C   0  0  0  0  0  0  0  0  0  0  0  0
   16.5913   -6.5845  -16.6683 C   0  0  1  0  0  0  0  0  0  0  0  0
   15.6859   -6.9841  -15.6505 O   0  0  0  0  0  0  0  0  0  0  0  0
   17.9007   -7.2723  -16.4145 C   0  0  2  0  0  0  0  0  0  0  0  0
   17.5536   -8.6868  -16.2276 N   0  0  0  0  0  0  0  0  0  0  0  0
   18.6724   -6.7588  -15.2950 C   0  0  0  0  0  0  0  0  0  0  0  0
   18.3023   -7.1469  -14.1206 O   0  0  0  0  0  0  0  0  0  0  0  0
   22.3834   -5.6600  -15.7345 C   0  0  0  0  0  0  0  0  0  0  0  0
   21.9899   -5.8395  -14.2842 C   0  0  1  0  0  0  0  0  0  0  0  0
   22.8743   -4.9790  -13.4316 C   0  0  0  0  0  0  0  0  0  0  0  0
   20.5427   -5.4249  -14.1891 C   0  0  2  0  0  0  0  0  0  0  0  0
   19.7721   -5.8936  -15.3213 N   0  0  0  0  0  0  0  0  0  0  0  0
   20.4234   -3.9259  -14.1639 C   0  0  0  0  0  0  0  0  0  0  0  0
   19.9197   -3.2777  -15.2636 O   0  0  0  0  0  0  0  0  0  0  0  0
   20.7714   -3.2595  -13.1661 O   0  0  0  0  0  0  0  0  0  0  0  0
  2  1  1  6
  3  2  1  0
  4  3  1  0
  4  5  1  0
  5  6  2  0
  7  2  1  0
  7  8  2  0
  9  5  1  0
 11 10  1  6
 11 12  1  0
 11 13  1  0
 13 14  1  1
 14  7  1  0
 15 21  1  0
 15 13  1  0
 16 15  2  0
 18 17  1  6
 18 20  1  0
 19 18  1  0
 20 21  1  6
 20 22  1  0
 22 23  1  0
 24 22  2  0
M  END
$$$$
