ETV.pdb
     RDKit          3D

 24 23  0  0  1  0  0  0  0  0999 V2000
   16.3137  -12.3664  -15.3011 N   0  0  0  0  0  0  0  0  0  0  0  0
   17.7042  -11.8825  -15.4051 C   0  0  1  0  0  0  0  0  0  0  0  0
   18.2388  -12.4609  -16.6657 C   0  0  0  0  0  0  0  0  0  0  0  0
   18.3996  -13.9530  -16.5438 C   0  0  0  0  0  0  0  0  0  0  0  0
   18.8830  -14.4260  -17.8791 C   0  0  0  0  0  0  0  0  0  0  0  0
   20.0976  -14.3691  -18.1564 O   0  0  0  0  0  0  0  0  0  0  0  0
   17.6776  -10.4167  -15.3271 C   0  0  0  0  0  0  0  0  0  0  0  0
   16.9526   -9.7450  -16.1449 O   0  0  0  0  0  0  0  0  0  0  0  0
   17.9631  -14.9200  -18.7742 O   0  0  0  0  0  0  0  0  0  0  0  0
   15.9006   -8.3341  -13.9654 C   0  0  0  0  0  0  0  0  0  0  0  0
   17.2224   -7.8584  -13.4195 C   0  0  1  0  0  0  0  0  0  0  0  0
   17.3970   -8.5921  -12.2168 O   0  0  0  0  0  0  0  0  0  0  0  0
   18.3757   -8.1787  -14.3248 C   0  0  2  0  0  0  0  0  0  0  0  0
   18.3988   -9.6450  -14.4014 N   0  0  0  0  0  0  0  0  0  0  0  0
   19.6632   -7.6447  -13.9133 C   0  0  0  0  0  0  0  0  0  0  0  0
   20.3468   -8.3704  -13.0930 O   0  0  0  0  0  0  0  0  0  0  0  0
   21.7581   -5.4224  -16.3547 C   0  0  0  0  0  0  0  0  0  0  0  0
   22.5016   -6.1243  -15.2390 C   0  0  1  0  0  0  0  0  0  0  0  0
   23.8242   -5.4468  -15.0361 C   0  0  0  0  0  0  0  0  0  0  0  0
   21.6225   -6.0164  -14.0180 C   0  0  2  0  0  0  0  0  0  0  0  0
   20.2653   -6.4393  -14.2918 N   0  0  0  0  0  0  0  0  0  0  0  0
   21.5534   -4.5918  -13.5413 C   0  0  0  0  0  0  0  0  0  0  0  0
   20.3913   -3.8838  -13.7194 O   0  0  0  0  0  0  0  0  0  0  0  0
   22.5280   -4.0401  -12.9875 O   0  0  0  0  0  0  0  0  0  0  0  0
  2  1  1  6
  3  2  1  0
  4  3  1  0
  4  5  1  0
  5  6  2  0
  7  2  1  0
  7  8  2  0
  9  5  1  0
 11 10  1  6
 11 12  1  0
 11 13  1  0
 13 14  1  1
 14  7  1  0
 15 21  1  0
 15 13  1  0
 16 15  2  0
 18 17  1  6
 18 20  1  0
 19 18  1  0
 20 21  1  6
 20 22  1  0
 22 23  1  0
 24 22  2  0
M  END
$$$$
