ETV.pdb
     RDKit          3D

 24 23  0  0  1  0  0  0  0  0999 V2000
   17.1308  -13.4924  -15.8275 N   0  0  0  0  0  0  0  0  0  0  0  0
   18.5150  -12.9812  -15.7937 C   0  0  1  0  0  0  0  0  0  0  0  0
   19.3013  -13.8891  -16.6694 C   0  0  0  0  0  0  0  0  0  0  0  0
   19.6858  -15.1440  -15.9316 C   0  0  0  0  0  0  0  0  0  0  0  0
   18.4491  -15.9854  -15.8768 C   0  0  0  0  0  0  0  0  0  0  0  0
   18.1858  -16.7652  -16.8139 O   0  0  0  0  0  0  0  0  0  0  0  0
   18.4826  -11.5682  -16.1910 C   0  0  0  0  0  0  0  0  0  0  0  0
   17.6689  -11.1779  -17.1027 O   0  0  0  0  0  0  0  0  0  0  0  0
   17.6279  -15.8768  -14.7790 O   0  0  0  0  0  0  0  0  0  0  0  0
   16.7266   -9.6157  -16.3337 C   0  0  0  0  0  0  0  0  0  0  0  0
   17.7275   -8.7996  -15.5568 C   0  0  1  0  0  0  0  0  0  0  0  0
   17.5256   -9.1800  -14.2041 O   0  0  0  0  0  0  0  0  0  0  0  0
   19.1479   -9.1221  -15.9178 C   0  0  2  0  0  0  0  0  0  0  0  0
   19.2899  -10.5577  -15.6435 N   0  0  0  0  0  0  0  0  0  0  0  0
   20.1628   -8.3433  -15.2282 C   0  0  0  0  0  0  0  0  0  0  0  0
   20.5213   -8.7745  -14.0653 O   0  0  0  0  0  0  0  0  0  0  0  0
   22.2008   -5.1910  -17.0539 C   0  0  0  0  0  0  0  0  0  0  0  0
   22.9642   -6.1174  -16.1323 C   0  0  1  0  0  0  0  0  0  0  0  0
   24.1187   -5.3668  -15.5376 C   0  0  0  0  0  0  0  0  0  0  0  0
   21.9812   -6.5623  -15.0783 C   0  0  2  0  0  0  0  0  0  0  0  0
   20.8086   -7.1794  -15.6610 N   0  0  0  0  0  0  0  0  0  0  0  0
   21.5058   -5.3867  -14.2698 C   0  0  0  0  0  0  0  0  0  0  0  0
   22.3326   -4.8577  -13.3108 O   0  0  0  0  0  0  0  0  0  0  0  0
   20.3775   -4.8820  -14.4520 O   0  0  0  0  0  0  0  0  0  0  0  0
  2  1  1  6
  3  2  1  0
  4  3  1  0
  4  5  1  0
  5  6  2  0
  7  2  1  0
  7  8  2  0
  9  5  1  0
 11 10  1  6
 11 12  1  0
 11 13  1  0
 13 14  1  1
 14  7  1  0
 15 21  1  0
 15 13  1  0
 16 15  2  0
 18 17  1  6
 18 20  1  0
 19 18  1  0
 20 21  1  6
 20 22  1  0
 22 23  1  0
 24 22  2  0
M  END
$$$$
