ETV.pdb
     RDKit          3D

 24 23  0  0  1  0  0  0  0  0999 V2000
   26.6628  -23.7127  -18.0052 N   0  0  0  0  0  0  0  0  0  0  0  0
   25.7971  -23.6903  -16.8099 C   0  0  1  0  0  0  0  0  0  0  0  0
   25.5890  -25.1139  -16.4365 C   0  0  0  0  0  0  0  0  0  0  0  0
   24.7473  -25.8198  -17.4662 C   0  0  0  0  0  0  0  0  0  0  0  0
   24.4856  -27.1876  -16.9175 C   0  0  0  0  0  0  0  0  0  0  0  0
   23.6989  -27.3336  -15.9608 O   0  0  0  0  0  0  0  0  0  0  0  0
   26.4463  -22.8456  -15.7998 C   0  0  0  0  0  0  0  0  0  0  0  0
   27.5414  -22.2391  -16.0802 O   0  0  0  0  0  0  0  0  0  0  0  0
   25.1255  -28.2603  -17.4928 O   0  0  0  0  0  0  0  0  0  0  0  0
   26.7211  -20.2717  -15.7997 C   0  0  0  0  0  0  0  0  0  0  0  0
   26.0146  -20.2725  -14.4684 C   0  0  1  0  0  0  0  0  0  0  0  0
   24.6340  -20.3105  -14.7967 O   0  0  0  0  0  0  0  0  0  0  0  0
   26.3248  -21.4882  -13.6450 C   0  0  2  0  0  0  0  0  0  0  0  0
   25.9617  -22.6254  -14.5001 N   0  0  0  0  0  0  0  0  0  0  0  0
   25.6615  -21.5572  -12.3537 C   0  0  0  0  0  0  0  0  0  0  0  0
   24.6897  -22.4015  -12.2553 O   0  0  0  0  0  0  0  0  0  0  0  0
   25.0717  -20.2280   -7.6154 C   0  0  0  0  0  0  0  0  0  0  0  0
   25.9158  -20.0758   -8.8623 C   0  0  1  0  0  0  0  0  0  0  0  0
   27.2919  -20.6033   -8.5839 C   0  0  0  0  0  0  0  0  0  0  0  0
   25.2179  -20.8687   -9.9391 C   0  0  2  0  0  0  0  0  0  0  0  0
   25.9389  -20.8249  -11.1937 N   0  0  0  0  0  0  0  0  0  0  0  0
   23.8453  -20.3121  -10.1991 C   0  0  0  0  0  0  0  0  0  0  0  0
   22.7682  -20.8610   -9.5496 O   0  0  0  0  0  0  0  0  0  0  0  0
   23.6644  -19.3628  -10.9909 O   0  0  0  0  0  0  0  0  0  0  0  0
  2  1  1  6
  3  2  1  0
  4  3  1  0
  4  5  1  0
  5  6  2  0
  7  2  1  0
  7  8  2  0
  9  5  1  0
 11 10  1  6
 11 12  1  0
 11 13  1  0
 13 14  1  6
 14  7  1  0
 15 21  1  0
 15 13  1  0
 16 15  2  0
 18 17  1  1
 18 20  1  0
 19 18  1  0
 20 21  1  6
 20 22  1  0
 22 23  1  0
 24 22  2  0
M  END
$$$$
