ETV.pdb
     RDKit          3D

 24 23  0  0  1  0  0  0  0  0999 V2000
   18.1542  -12.8954  -18.3713 N   0  0  0  0  0  0  0  0  0  0  0  0
   17.6632  -11.6681  -17.7146 C   0  0  1  0  0  0  0  0  0  0  0  0
   17.2228  -12.0856  -16.3578 C   0  0  0  0  0  0  0  0  0  0  0  0
   15.9378  -12.8671  -16.4291 C   0  0  0  0  0  0  0  0  0  0  0  0
   15.6187  -13.2652  -15.0220 C   0  0  0  0  0  0  0  0  0  0  0  0
   16.0583  -14.3390  -14.5647 O   0  0  0  0  0  0  0  0  0  0  0  0
   18.7381  -10.6694  -17.7662 C   0  0  0  0  0  0  0  0  0  0  0  0
   19.9541  -11.0452  -17.9267 O   0  0  0  0  0  0  0  0  0  0  0  0
   14.8420  -12.4235  -14.2606 O   0  0  0  0  0  0  0  0  0  0  0  0
   20.0897   -5.9767  -18.4687 C   0  0  0  0  0  0  0  0  0  0  0  0
   19.1541   -7.1582  -18.4756 C   0  0  1  0  0  0  0  0  0  0  0  0
   19.1558   -7.6074  -19.8222 O   0  0  0  0  0  0  0  0  0  0  0  0
   19.6364   -8.2881  -17.6136 C   0  0  2  0  0  0  0  0  0  0  0  0
   18.5555   -9.2813  -17.6545 N   0  0  0  0  0  0  0  0  0  0  0  0
   19.9832   -7.9315  -16.2481 C   0  0  0  0  0  0  0  0  0  0  0  0
   19.0084   -7.5500  -15.4923 O   0  0  0  0  0  0  0  0  0  0  0  0
   21.3376   -9.8656  -13.5278 C   0  0  0  0  0  0  0  0  0  0  0  0
   22.2844   -8.6851  -13.5485 C   0  0  1  0  0  0  0  0  0  0  0  0
   23.5440   -9.0859  -14.2573 C   0  0  0  0  0  0  0  0  0  0  0  0
   21.5590   -7.5798  -14.2747 C   0  0  2  0  0  0  0  0  0  0  0  0
   21.2431   -7.9477  -15.6387 N   0  0  0  0  0  0  0  0  0  0  0  0
   22.4103   -6.3416  -14.3372 C   0  0  0  0  0  0  0  0  0  0  0  0
   22.6161   -5.6144  -13.1918 O   0  0  0  0  0  0  0  0  0  0  0  0
   22.9334   -5.9618  -15.4063 O   0  0  0  0  0  0  0  0  0  0  0  0
  2  1  1  6
  3  2  1  0
  4  3  1  0
  4  5  1  0
  5  6  2  0
  7  2  1  0
  7  8  2  0
  9  5  1  0
 11 10  1  6
 11 12  1  0
 11 13  1  0
 13 14  1  1
 14  7  1  0
 15 21  1  0
 15 13  1  0
 16 15  2  0
 18 17  1  6
 18 20  1  0
 19 18  1  0
 20 21  1  6
 20 22  1  0
 22 23  1  0
 24 22  2  0
M  END
$$$$
