ETV.pdb
     RDKit          3D

 24 23  0  0  1  0  0  0  0  0999 V2000
   22.5961  -22.9083  -19.3324 N   0  0  0  0  0  0  0  0  0  0  0  0
   21.4062  -22.1694  -18.8669 C   0  0  1  0  0  0  0  0  0  0  0  0
   20.2492  -22.7874  -19.5660 C   0  0  0  0  0  0  0  0  0  0  0  0
   20.0730  -22.1928  -20.9380 C   0  0  0  0  0  0  0  0  0  0  0  0
   19.1139  -21.0554  -20.7744 C   0  0  0  0  0  0  0  0  0  0  0  0
   18.1545  -21.1600  -19.9843 O   0  0  0  0  0  0  0  0  0  0  0  0
   21.3833  -22.2313  -17.4003 C   0  0  0  0  0  0  0  0  0  0  0  0
   22.1765  -23.0266  -16.7806 O   0  0  0  0  0  0  0  0  0  0  0  0
   19.3212  -19.9100  -21.5067 O   0  0  0  0  0  0  0  0  0  0  0  0
   22.1247  -19.4758  -15.2347 C   0  0  0  0  0  0  0  0  0  0  0  0
   20.8043  -20.0116  -14.7441 C   0  0  1  0  0  0  0  0  0  0  0  0
   19.8291  -19.2408  -15.4298 O   0  0  0  0  0  0  0  0  0  0  0  0
   20.5894  -21.4520  -15.1062 C   0  0  2  0  0  0  0  0  0  0  0  0
   20.5419  -21.4688  -16.5737 N   0  0  0  0  0  0  0  0  0  0  0  0
   19.4117  -22.0757  -14.5262 C   0  0  0  0  0  0  0  0  0  0  0  0
   18.3653  -22.1317  -15.2803 O   0  0  0  0  0  0  0  0  0  0  0  0
   17.0943  -24.7963  -11.1240 C   0  0  0  0  0  0  0  0  0  0  0  0
   18.4159  -24.2735  -11.6439 C   0  0  1  0  0  0  0  0  0  0  0  0
   19.2040  -25.4196  -12.2052 C   0  0  0  0  0  0  0  0  0  0  0  0
   18.0753  -23.2546  -12.7027 C   0  0  2  0  0  0  0  0  0  0  0  0
   19.2605  -22.6284  -13.2493 N   0  0  0  0  0  0  0  0  0  0  0  0
   17.2229  -22.1582  -12.1257 C   0  0  0  0  0  0  0  0  0  0  0  0
   17.8124  -20.9710  -11.7707 O   0  0  0  0  0  0  0  0  0  0  0  0
   15.9927  -22.3040  -11.9635 O   0  0  0  0  0  0  0  0  0  0  0  0
  2  1  1  6
  3  2  1  0
  4  3  1  0
  4  5  1  0
  5  6  2  0
  7  2  1  0
  7  8  2  0
  9  5  1  0
 11 10  1  6
 11 12  1  0
 11 13  1  0
 13 14  1  6
 14  7  1  0
 15 21  1  0
 15 13  1  0
 16 15  2  0
 18 17  1  6
 18 20  1  0
 19 18  1  0
 20 21  1  1
 20 22  1  0
 22 23  1  0
 24 22  2  0
M  END
$$$$
