ETV.pdb
     RDKit          3D

 24 23  0  0  1  0  0  0  0  0999 V2000
   15.3454  -11.7313  -14.9264 N   0  0  0  0  0  0  0  0  0  0  0  0
   16.7655  -11.3651  -14.7602 C   0  0  1  0  0  0  0  0  0  0  0  0
   17.5080  -12.1615  -15.7720 C   0  0  0  0  0  0  0  0  0  0  0  0
   17.4460  -13.6305  -15.4474 C   0  0  0  0  0  0  0  0  0  0  0  0
   18.2219  -14.3235  -16.5235 C   0  0  0  0  0  0  0  0  0  0  0  0
   19.3445  -13.8935  -16.8558 O   0  0  0  0  0  0  0  0  0  0  0  0
   16.8711   -9.9058  -14.8820 C   0  0  0  0  0  0  0  0  0  0  0  0
   16.0098   -9.2573  -15.5771 O   0  0  0  0  0  0  0  0  0  0  0  0
   17.6702  -15.4320  -17.1220 O   0  0  0  0  0  0  0  0  0  0  0  0
   15.4071   -7.7417  -14.5268 C   0  0  0  0  0  0  0  0  0  0  0  0
   16.5765   -7.2273  -13.7273 C   0  0  1  0  0  0  0  0  0  0  0  0
   16.4352   -7.8387  -12.4540 O   0  0  0  0  0  0  0  0  0  0  0  0
   17.9004   -7.6483  -14.2949 C   0  0  2  0  0  0  0  0  0  0  0  0
   17.8661   -9.1163  -14.2827 N   0  0  0  0  0  0  0  0  0  0  0  0
   19.0711   -7.1352  -13.6032 C   0  0  0  0  0  0  0  0  0  0  0  0
   19.3819   -7.7205  -12.4951 O   0  0  0  0  0  0  0  0  0  0  0  0
   21.7811   -5.6142  -16.0137 C   0  0  0  0  0  0  0  0  0  0  0  0
   22.2023   -6.4017  -14.7919 C   0  0  1  0  0  0  0  0  0  0  0  0
   23.6510   -6.1297  -14.5151 C   0  0  0  0  0  0  0  0  0  0  0  0
   21.3173   -5.9304  -13.6650 C   0  0  2  0  0  0  0  0  0  0  0  0
   19.9132   -6.0835  -13.9821 N   0  0  0  0  0  0  0  0  0  0  0  0
   21.5503   -4.4711  -13.3856 C   0  0  0  0  0  0  0  0  0  0  0  0
   22.6427   -4.0997  -12.6427 O   0  0  0  0  0  0  0  0  0  0  0  0
   20.7734   -3.5917  -13.8144 O   0  0  0  0  0  0  0  0  0  0  0  0
  2  1  1  6
  3  2  1  0
  4  3  1  0
  4  5  1  0
  5  6  2  0
  7  2  1  0
  7  8  2  0
  9  5  1  0
 11 10  1  6
 11 12  1  0
 11 13  1  0
 13 14  1  1
 14  7  1  0
 15 21  1  0
 15 13  1  0
 16 15  2  0
 18 17  1  6
 18 20  1  0
 19 18  1  0
 20 21  1  6
 20 22  1  0
 22 23  1  0
 24 22  2  0
M  END
$$$$
