ETV.pdb
     RDKit          3D

 24 23  0  0  1  0  0  0  0  0999 V2000
   19.8027  -13.1254  -17.3171 N   0  0  0  0  0  0  0  0  0  0  0  0
   19.1168  -11.8204  -17.2458 C   0  0  1  0  0  0  0  0  0  0  0  0
   18.2034  -11.9087  -16.0764 C   0  0  0  0  0  0  0  0  0  0  0  0
   16.8224  -12.3269  -16.5065 C   0  0  0  0  0  0  0  0  0  0  0  0
   15.8997  -11.8902  -15.4117 C   0  0  0  0  0  0  0  0  0  0  0  0
   15.4542  -12.7285  -14.6029 O   0  0  0  0  0  0  0  0  0  0  0  0
   20.1450  -10.7743  -17.1849 C   0  0  0  0  0  0  0  0  0  0  0  0
   21.2757  -10.9534  -17.7639 O   0  0  0  0  0  0  0  0  0  0  0  0
   15.5668  -10.5587  -15.3245 O   0  0  0  0  0  0  0  0  0  0  0  0
   21.6401   -9.3274  -18.8057 C   0  0  0  0  0  0  0  0  0  0  0  0
   21.1842   -8.1369  -18.0018 C   0  0  1  0  0  0  0  0  0  0  0  0
   19.9161   -7.8032  -18.5456 O   0  0  0  0  0  0  0  0  0  0  0  0
   20.9915   -8.4551  -16.5479 C   0  0  2  0  0  0  0  0  0  0  0  0
   20.0034   -9.5413  -16.5275 N   0  0  0  0  0  0  0  0  0  0  0  0
   20.5782   -7.3409  -15.7113 C   0  0  0  0  0  0  0  0  0  0  0  0
   19.3911   -6.8787  -15.9212 O   0  0  0  0  0  0  0  0  0  0  0  0
   20.5052   -7.6400  -12.3437 C   0  0  0  0  0  0  0  0  0  0  0  0
   20.9189   -6.1843  -12.3366 C   0  0  1  0  0  0  0  0  0  0  0  0
   22.3245   -6.0819  -11.8232 C   0  0  0  0  0  0  0  0  0  0  0  0
   20.8068   -5.7106  -13.7643 C   0  0  2  0  0  0  0  0  0  0  0  0
   21.3015   -6.6980  -14.7002 N   0  0  0  0  0  0  0  0  0  0  0  0
   21.6176   -4.4610  -13.9712 C   0  0  0  0  0  0  0  0  0  0  0  0
   21.1429   -3.2690  -13.4845 O   0  0  0  0  0  0  0  0  0  0  0  0
   22.7113   -4.4843  -14.5746 O   0  0  0  0  0  0  0  0  0  0  0  0
  2  1  1  1
  3  2  1  0
  4  3  1  0
  4  5  1  0
  5  6  2  0
  7  2  1  0
  7  8  2  0
  9  5  1  0
 11 10  1  6
 11 12  1  0
 11 13  1  0
 13 14  1  6
 14  7  1  0
 15 21  1  0
 15 13  1  0
 16 15  2  0
 18 17  1  6
 18 20  1  0
 19 18  1  0
 20 21  1  6
 20 22  1  0
 22 23  1  0
 24 22  2  0
M  END
$$$$
