WMY.pdb
     RDKit          3D

 35 37  0  0  1  0  0  0  0  0999 V2000
   28.0772  -22.3666  -10.8901 N   0  0  0  0  0  0  0  0  0  0  0  0
   26.9092  -21.5376  -10.7022 C   0  0  1  0  0  0  0  0  0  0  0  0
   27.2987  -20.2838   -9.9490 C   0  0  0  0  0  0  0  0  0  0  0  0
   28.2142  -20.5293   -8.8151 C   0  0  0  0  0  0  0  0  0  0  0  0
   29.4870  -21.0996   -8.9518 C   0  0  0  0  0  0  0  0  0  0  0  0
   30.0652  -21.1541   -7.7428 N   0  0  0  0  0  0  0  0  0  0  0  0
   29.2452  -20.6485   -6.7928 C   0  0  0  0  0  0  0  0  0  0  0  0
   29.3843  -20.4961   -5.4319 C   0  0  0  0  0  0  0  0  0  0  0  0
   28.3258  -19.9398   -4.7533 C   0  0  0  0  0  0  0  0  0  0  0  0
   27.1672  -19.5426   -5.3710 C   0  0  0  0  0  0  0  0  0  0  0  0
   27.0692  -19.7143   -6.7467 C   0  0  0  0  0  0  0  0  0  0  0  0
   28.0829  -20.2583   -7.4753 C   0  0  0  0  0  0  0  0  0  0  0  0
   26.4489  -21.0896  -12.0427 C   0  0  0  0  0  0  0  0  0  0  0  0
   27.2806  -20.6968  -12.8768 O   0  0  0  0  0  0  0  0  0  0  0  0
   27.4488  -23.9440  -17.4601 C   0  0  0  0  0  0  0  0  0  0  0  0
   26.1254  -24.0742  -16.2057 S   0  0  0  0  0  0  0  0  0  0  0  0
   26.3607  -22.7513  -14.9625 C   0  0  0  0  0  0  0  0  0  0  0  0
   25.2331  -22.9297  -13.9413 C   0  0  0  0  0  0  0  0  0  0  0  0
   24.6741  -21.5183  -13.7099 C   0  0  2  0  0  0  0  0  0  0  0  0
   25.0535  -21.1042  -12.3916 N   0  0  0  0  0  0  0  0  0  0  0  0
   23.2095  -21.4971  -13.8752 C   0  0  0  0  0  0  0  0  0  0  0  0
   22.5118  -22.3243  -13.1928 O   0  0  0  0  0  0  0  0  0  0  0  0
   20.7214  -19.0639   -8.8058 O   0  0  0  0  0  0  0  0  0  0  0  0
   20.6575  -19.1543  -10.1860 C   0  0  0  0  0  0  0  0  0  0  0  0
   21.3539  -18.2766  -11.0028 C   0  0  0  0  0  0  0  0  0  0  0  0
   21.2969  -18.3584  -12.3745 C   0  0  0  0  0  0  0  0  0  0  0  0
   20.5162  -19.3525  -12.9296 C   0  0  0  0  0  0  0  0  0  0  0  0
   20.3592  -19.5162  -14.3907 C   0  0  0  0  0  0  0  0  0  0  0  0
   21.0638  -20.7418  -14.8523 C   0  0  2  0  0  0  0  0  0  0  0  0
   22.5059  -20.6293  -14.7338 N   0  0  0  0  0  0  0  0  0  0  0  0
   20.6825  -21.1686  -16.2099 C   0  0  0  0  0  0  0  0  0  0  0  0
   19.5110  -21.4361  -16.5325 O   0  0  0  0  0  0  0  0  0  0  0  0
   19.8249  -20.2236  -12.1022 C   0  0  0  0  0  0  0  0  0  0  0  0
   19.8835  -20.1399  -10.7318 C   0  0  0  0  0  0  0  0  0  0  0  0
   21.6730  -21.2782  -17.1731 O   0  0  0  0  0  0  0  0  0  0  0  0
  2  1  1  6
  2  3  1  0
  4  3  1  0
  5  4  2  0
  6  5  1  0
  7  6  1  0
  7 12  2  0
  8  9  2  0
  8  7  1  0
  9 10  1  0
 10 11  2  0
 12 11  1  0
 12  4  1  0
 13 14  2  0
 13  2  1  0
 15 16  1  0
 16 17  1  0
 17 18  1  0
 19 18  1  1
 19 20  1  0
 20 13  1  0
 21 19  1  0
 22 21  2  0
 23 24  1  0
 24 34  2  0
 25 24  1  0
 25 26  2  0
 26 27  1  0
 27 33  2  0
 27 28  1  0
 29 28  1  6
 29 30  1  0
 30 21  1  0
 31 29  1  0
 32 31  2  0
 34 33  1  0
 35 31  1  0
M  END
$$$$
