WMY.pdb
     RDKit          3D

 35 37  0  0  1  0  0  0  0  0999 V2000
   27.5922  -22.9241  -16.9960 N   0  0  0  0  0  0  0  0  0  0  0  0
   26.9661  -21.6851  -16.5966 C   0  0  1  0  0  0  0  0  0  0  0  0
   25.9757  -21.2575  -17.6584 C   0  0  0  0  0  0  0  0  0  0  0  0
   26.6076  -20.7339  -18.8874 C   0  0  0  0  0  0  0  0  0  0  0  0
   26.9641  -21.5345  -19.9811 C   0  0  0  0  0  0  0  0  0  0  0  0
   27.4822  -20.7494  -20.9372 N   0  0  0  0  0  0  0  0  0  0  0  0
   27.4946  -19.4548  -20.5440 C   0  0  0  0  0  0  0  0  0  0  0  0
   27.9252  -18.3018  -21.1600 C   0  0  0  0  0  0  0  0  0  0  0  0
   27.7952  -17.1292  -20.4539 C   0  0  0  0  0  0  0  0  0  0  0  0
   27.2650  -17.0722  -19.1900 C   0  0  0  0  0  0  0  0  0  0  0  0
   26.8423  -18.2602  -18.6055 C   0  0  0  0  0  0  0  0  0  0  0  0
   26.9435  -19.4537  -19.2535 C   0  0  0  0  0  0  0  0  0  0  0  0
   26.1695  -21.9525  -15.3704 C   0  0  0  0  0  0  0  0  0  0  0  0
   25.3063  -22.8451  -15.3827 O   0  0  0  0  0  0  0  0  0  0  0  0
   24.7308  -20.3686   -7.8001 C   0  0  0  0  0  0  0  0  0  0  0  0
   25.8697  -20.1440   -9.2123 S   0  0  0  0  0  0  0  0  0  0  0  0
   25.1082  -20.8804  -10.7053 C   0  0  0  0  0  0  0  0  0  0  0  0
   26.1451  -20.7305  -11.8227 C   0  0  0  0  0  0  0  0  0  0  0  0
   25.5224  -21.4230  -13.0436 C   0  0  2  0  0  0  0  0  0  0  0  0
   26.3823  -21.1942  -14.1668 N   0  0  0  0  0  0  0  0  0  0  0  0
   24.1621  -20.9165  -13.3009 C   0  0  0  0  0  0  0  0  0  0  0  0
   24.0334  -19.7139  -13.7178 O   0  0  0  0  0  0  0  0  0  0  0  0
   15.9795  -19.0254  -15.0115 O   0  0  0  0  0  0  0  0  0  0  0  0
   17.1979  -19.6690  -14.8752 C   0  0  0  0  0  0  0  0  0  0  0  0
   17.3497  -20.7633  -14.0375 C   0  0  0  0  0  0  0  0  0  0  0  0
   18.5556  -21.4093  -13.8954 C   0  0  0  0  0  0  0  0  0  0  0  0
   19.6310  -20.9343  -14.6192 C   0  0  0  0  0  0  0  0  0  0  0  0
   20.9795  -21.5330  -14.5231 C   0  0  0  0  0  0  0  0  0  0  0  0
   21.6887  -21.0196  -13.3209 C   0  0  2  0  0  0  0  0  0  0  0  0
   22.9771  -21.6578  -13.1234 N   0  0  0  0  0  0  0  0  0  0  0  0
   20.8830  -21.0757  -12.0887 C   0  0  0  0  0  0  0  0  0  0  0  0
   20.8781  -22.0587  -11.3261 O   0  0  0  0  0  0  0  0  0  0  0  0
   19.4662  -19.8395  -15.4532 C   0  0  0  0  0  0  0  0  0  0  0  0
   18.2602  -19.1958  -15.5935 C   0  0  0  0  0  0  0  0  0  0  0  0
   20.0934  -19.9842  -11.7626 O   0  0  0  0  0  0  0  0  0  0  0  0
  2  1  1  6
  2  3  1  0
  4  3  1  0
  5  4  2  0
  6  5  1  0
  7  6  1  0
  7 12  2  0
  8  9  2  0
  8  7  1  0
  9 10  1  0
 10 11  2  0
 12 11  1  0
 12  4  1  0
 13 14  2  0
 13  2  1  0
 15 16  1  0
 16 17  1  0
 17 18  1  0
 19 18  1  1
 19 20  1  0
 20 13  1  0
 21 19  1  0
 22 21  2  0
 23 24  1  0
 24 34  2  0
 25 24  1  0
 25 26  2  0
 26 27  1  0
 27 33  2  0
 27 28  1  0
 29 28  1  6
 29 30  1  0
 30 21  1  0
 31 29  1  0
 32 31  2  0
 34 33  1  0
 35 31  1  0
M  END
$$$$
