WMY.pdb
     RDKit          3D

 35 37  0  0  1  0  0  0  0  0999 V2000
   26.5557  -22.2140  -15.7406 N   0  0  0  0  0  0  0  0  0  0  0  0
   26.6915  -21.0877  -14.8464 C   0  0  1  0  0  0  0  0  0  0  0  0
   25.8096  -19.9553  -15.3271 C   0  0  0  0  0  0  0  0  0  0  0  0
   26.2841  -19.3174  -16.5729 C   0  0  0  0  0  0  0  0  0  0  0  0
   25.5690  -19.3358  -17.7780 C   0  0  0  0  0  0  0  0  0  0  0  0
   26.2586  -18.6441  -18.6973 N   0  0  0  0  0  0  0  0  0  0  0  0
   27.4074  -18.1581  -18.1733 C   0  0  0  0  0  0  0  0  0  0  0  0
   28.4285  -17.4080  -18.7111 C   0  0  0  0  0  0  0  0  0  0  0  0
   29.4756  -17.0888  -17.8791 C   0  0  0  0  0  0  0  0  0  0  0  0
   29.5346  -17.4828  -16.5665 C   0  0  0  0  0  0  0  0  0  0  0  0
   28.4821  -18.2387  -16.0641 C   0  0  0  0  0  0  0  0  0  0  0  0
   27.4163  -18.5864  -16.8370 C   0  0  0  0  0  0  0  0  0  0  0  0
   26.1584  -21.4934  -13.5194 C   0  0  0  0  0  0  0  0  0  0  0  0
   25.3131  -22.4003  -13.4496 O   0  0  0  0  0  0  0  0  0  0  0  0
   25.9440  -20.5545   -5.7300 C   0  0  0  0  0  0  0  0  0  0  0  0
   26.8301  -20.1533   -7.2779 S   0  0  0  0  0  0  0  0  0  0  0  0
   25.8079  -20.6923   -8.6977 C   0  0  0  0  0  0  0  0  0  0  0  0
   26.6600  -20.4447   -9.9462 C   0  0  0  0  0  0  0  0  0  0  0  0
   25.8519  -21.0404  -11.1082 C   0  0  2  0  0  0  0  0  0  0  0  0
   26.6063  -20.8528  -12.3120 N   0  0  0  0  0  0  0  0  0  0  0  0
   24.5241  -20.4077  -11.2065 C   0  0  0  0  0  0  0  0  0  0  0  0
   24.4568  -19.2078  -11.6449 O   0  0  0  0  0  0  0  0  0  0  0  0
   21.1828  -24.8235  -15.4940 O   0  0  0  0  0  0  0  0  0  0  0  0
   21.3967  -23.6423  -14.8039 C   0  0  0  0  0  0  0  0  0  0  0  0
   22.6104  -22.9749  -14.8683 C   0  0  0  0  0  0  0  0  0  0  0  0
   22.8325  -21.8012  -14.1867 C   0  0  0  0  0  0  0  0  0  0  0  0
   21.8006  -21.2936  -13.4228 C   0  0  0  0  0  0  0  0  0  0  0  0
   21.9367  -20.0550  -12.6269 C   0  0  0  0  0  0  0  0  0  0  0  0
   22.0487  -20.3800  -11.1799 C   0  0  2  0  0  0  0  0  0  0  0  0
   23.3074  -21.0243  -10.8530 N   0  0  0  0  0  0  0  0  0  0  0  0
   20.9119  -21.1581  -10.6577 C   0  0  0  0  0  0  0  0  0  0  0  0
   19.7270  -20.8077  -10.8025 O   0  0  0  0  0  0  0  0  0  0  0  0
   20.5922  -21.9703  -13.3667 C   0  0  0  0  0  0  0  0  0  0  0  0
   20.3727  -23.1429  -14.0488 C   0  0  0  0  0  0  0  0  0  0  0  0
   21.1726  -22.3347   -9.9730 O   0  0  0  0  0  0  0  0  0  0  0  0
  2  1  1  6
  2  3  1  0
  4  3  1  0
  5  4  2  0
  6  5  1  0
  7  6  1  0
  7 12  2  0
  8  9  2  0
  8  7  1  0
  9 10  1  0
 10 11  2  0
 12 11  1  0
 12  4  1  0
 13 14  2  0
 13  2  1  0
 15 16  1  0
 16 17  1  0
 17 18  1  0
 19 18  1  1
 19 20  1  0
 20 13  1  0
 21 19  1  0
 22 21  2  0
 23 24  1  0
 24 34  2  0
 25 24  1  0
 25 26  2  0
 26 27  1  0
 27 33  2  0
 27 28  1  0
 29 28  1  6
 29 30  1  0
 30 21  1  0
 31 29  1  0
 32 31  2  0
 34 33  1  0
 35 31  1  0
M  END
$$$$
