WMY.pdb
     RDKit          3D

 35 37  0  0  1  0  0  0  0  0999 V2000
   22.2959  -18.0589  -19.2616 N   0  0  0  0  0  0  0  0  0  0  0  0
   22.9414  -17.1643  -18.3291 C   0  0  1  0  0  0  0  0  0  0  0  0
   22.1138  -17.0734  -17.0650 C   0  0  0  0  0  0  0  0  0  0  0  0
   20.8357  -16.3522  -17.2393 C   0  0  0  0  0  0  0  0  0  0  0  0
   19.6052  -16.9890  -17.4504 C   0  0  0  0  0  0  0  0  0  0  0  0
   18.6472  -16.0543  -17.5363 N   0  0  0  0  0  0  0  0  0  0  0  0
   19.1691  -14.8142  -17.3942 C   0  0  0  0  0  0  0  0  0  0  0  0
   18.6014  -13.5604  -17.4130 C   0  0  0  0  0  0  0  0  0  0  0  0
   19.4457  -12.4888  -17.2416 C   0  0  0  0  0  0  0  0  0  0  0  0
   20.7983  -12.6243  -17.0577 C   0  0  0  0  0  0  0  0  0  0  0  0
   21.3297  -13.9085  -17.0451 C   0  0  0  0  0  0  0  0  0  0  0  0
   20.5462  -15.0102  -17.2084 C   0  0  0  0  0  0  0  0  0  0  0  0
   24.2367  -17.7767  -17.9333 C   0  0  0  0  0  0  0  0  0  0  0  0
   24.3412  -19.0131  -17.8862 O   0  0  0  0  0  0  0  0  0  0  0  0
   30.0026  -15.4667  -20.8906 C   0  0  0  0  0  0  0  0  0  0  0  0
   29.4674  -15.4273  -19.1431 S   0  0  0  0  0  0  0  0  0  0  0  0
   28.0979  -16.6214  -18.9200 C   0  0  0  0  0  0  0  0  0  0  0  0
   27.7379  -16.5738  -17.4319 C   0  0  0  0  0  0  0  0  0  0  0  0
   26.6089  -17.6003  -17.2591 C   0  0  2  0  0  0  0  0  0  0  0  0
   25.3741  -16.9602  -17.6041 N   0  0  0  0  0  0  0  0  0  0  0  0
   26.5740  -18.1192  -15.8798 C   0  0  0  0  0  0  0  0  0  0  0  0
   25.9611  -17.4331  -14.9908 O   0  0  0  0  0  0  0  0  0  0  0  0
   25.2645  -21.4228   -8.2995 O   0  0  0  0  0  0  0  0  0  0  0  0
   25.3283  -21.0660   -9.6358 C   0  0  0  0  0  0  0  0  0  0  0  0
   25.1525  -22.0008  -10.6447 C   0  0  0  0  0  0  0  0  0  0  0  0
   25.2139  -21.6562  -11.9747 C   0  0  0  0  0  0  0  0  0  0  0  0
   25.4590  -20.3342  -12.2880 C   0  0  0  0  0  0  0  0  0  0  0  0
   25.5737  -19.8567  -13.6826 C   0  0  0  0  0  0  0  0  0  0  0  0
   27.0033  -19.7666  -14.0824 C   0  0  2  0  0  0  0  0  0  0  0  0
   27.1676  -19.3244  -15.4549 N   0  0  0  0  0  0  0  0  0  0  0  0
   27.7664  -21.0026  -13.8364 C   0  0  0  0  0  0  0  0  0  0  0  0
   27.9159  -21.8894  -14.6961 O   0  0  0  0  0  0  0  0  0  0  0  0
   25.6329  -19.4095  -11.2702 C   0  0  0  0  0  0  0  0  0  0  0  0
   25.5711  -19.7562   -9.9419 C   0  0  0  0  0  0  0  0  0  0  0  0
   28.3446  -21.1878  -12.5904 O   0  0  0  0  0  0  0  0  0  0  0  0
  2  1  1  6
  2  3  1  0
  4  3  1  0
  5  4  2  0
  6  5  1  0
  7  6  1  0
  7 12  2  0
  8  9  2  0
  8  7  1  0
  9 10  1  0
 10 11  2  0
 12 11  1  0
 12  4  1  0
 13 14  2  0
 13  2  1  0
 15 16  1  0
 16 17  1  0
 17 18  1  0
 19 18  1  1
 19 20  1  0
 20 13  1  0
 21 19  1  0
 22 21  2  0
 23 24  1  0
 24 34  2  0
 25 24  1  0
 25 26  2  0
 26 27  1  0
 27 33  2  0
 27 28  1  0
 29 28  1  6
 29 30  1  0
 30 21  1  0
 31 29  1  0
 32 31  2  0
 34 33  1  0
 35 31  1  0
M  END
$$$$
