WMY.pdb
     RDKit          3D

 35 37  0  0  1  0  0  0  0  0999 V2000
   26.0399  -20.2687  -16.7489 N   0  0  0  0  0  0  0  0  0  0  0  0
   26.9194  -19.6556  -15.7808 C   0  0  1  0  0  0  0  0  0  0  0  0
   26.4677  -18.2346  -15.5203 C   0  0  0  0  0  0  0  0  0  0  0  0
   26.7707  -17.3005  -16.6246 C   0  0  0  0  0  0  0  0  0  0  0  0
   25.8127  -16.4794  -17.2346 C   0  0  0  0  0  0  0  0  0  0  0  0
   26.4184  -15.7365  -18.1727 N   0  0  0  0  0  0  0  0  0  0  0  0
   27.7413  -16.0149  -18.2285 C   0  0  0  0  0  0  0  0  0  0  0  0
   28.7599  -15.5278  -19.0156 C   0  0  0  0  0  0  0  0  0  0  0  0
   30.0149  -16.0502  -18.8088 C   0  0  0  0  0  0  0  0  0  0  0  0
   30.2779  -17.0146  -17.8694 C   0  0  0  0  0  0  0  0  0  0  0  0
   29.2202  -17.4779  -17.0960 C   0  0  0  0  0  0  0  0  0  0  0  0
   27.9547  -16.9999  -17.2521 C   0  0  0  0  0  0  0  0  0  0  0  0
   26.7588  -20.3838  -14.4949 C   0  0  0  0  0  0  0  0  0  0  0  0
   25.7299  -21.0484  -14.2911 O   0  0  0  0  0  0  0  0  0  0  0  0
   29.8424  -20.4214   -7.9345 C   0  0  0  0  0  0  0  0  0  0  0  0
   30.1075  -21.7357   -9.1772 S   0  0  0  0  0  0  0  0  0  0  0  0
   28.6078  -21.8728  -10.2179 C   0  0  0  0  0  0  0  0  0  0  0  0
   28.8720  -21.0040  -11.4513 C   0  0  0  0  0  0  0  0  0  0  0  0
   27.5557  -21.0187  -12.2421 C   0  0  2  0  0  0  0  0  0  0  0  0
   27.7773  -20.3326  -13.4805 N   0  0  0  0  0  0  0  0  0  0  0  0
   26.4692  -20.3890  -11.4701 C   0  0  0  0  0  0  0  0  0  0  0  0
   26.2809  -19.1310  -11.6064 O   0  0  0  0  0  0  0  0  0  0  0  0
   20.7385  -23.5399  -13.5853 O   0  0  0  0  0  0  0  0  0  0  0  0
   21.4642  -22.5698  -12.9148 C   0  0  0  0  0  0  0  0  0  0  0  0
   22.4740  -21.8568  -13.5427 C   0  0  0  0  0  0  0  0  0  0  0  0
   23.2002  -20.8913  -12.8854 C   0  0  0  0  0  0  0  0  0  0  0  0
   22.8952  -20.6440  -11.5619 C   0  0  0  0  0  0  0  0  0  0  0  0
   23.6288  -19.6493  -10.7504 C   0  0  0  0  0  0  0  0  0  0  0  0
   24.5978  -20.3297   -9.8504 C   0  0  2  0  0  0  0  0  0  0  0  0
   25.6100  -21.0677  -10.5832 N   0  0  0  0  0  0  0  0  0  0  0  0
   23.9619  -21.1842   -8.8327 C   0  0  0  0  0  0  0  0  0  0  0  0
   23.0088  -20.8052   -8.1285 O   0  0  0  0  0  0  0  0  0  0  0  0
   21.8835  -21.3637  -10.9456 C   0  0  0  0  0  0  0  0  0  0  0  0
   21.1592  -22.3278  -11.6045 C   0  0  0  0  0  0  0  0  0  0  0  0
   24.4466  -22.4698   -8.6496 O   0  0  0  0  0  0  0  0  0  0  0  0
  2  1  1  6
  2  3  1  0
  4  3  1  0
  5  4  2  0
  6  5  1  0
  7  6  1  0
  7 12  2  0
  8  9  2  0
  8  7  1  0
  9 10  1  0
 10 11  2  0
 12 11  1  0
 12  4  1  0
 13 14  2  0
 13  2  1  0
 15 16  1  0
 16 17  1  0
 17 18  1  0
 19 18  1  1
 19 20  1  0
 20 13  1  0
 21 19  1  0
 22 21  2  0
 23 24  1  0
 24 34  2  0
 25 24  1  0
 25 26  2  0
 26 27  1  0
 27 33  2  0
 27 28  1  0
 29 28  1  6
 29 30  1  0
 30 21  1  0
 31 29  1  0
 32 31  2  0
 34 33  1  0
 35 31  1  0
M  END
$$$$
