WMY.pdb
     RDKit          3D

 35 37  0  0  1  0  0  0  0  0999 V2000
   27.4088  -21.3321  -14.8832 N   0  0  0  0  0  0  0  0  0  0  0  0
   26.8075  -20.3256  -14.0392 C   0  0  1  0  0  0  0  0  0  0  0  0
   25.6378  -19.6952  -14.7641 C   0  0  0  0  0  0  0  0  0  0  0  0
   26.0313  -18.8588  -15.9172 C   0  0  0  0  0  0  0  0  0  0  0  0
   25.8221  -19.2269  -17.2532 C   0  0  0  0  0  0  0  0  0  0  0  0
   26.2631  -18.2384  -18.0451 N   0  0  0  0  0  0  0  0  0  0  0  0
   26.7618  -17.2177  -17.3102 C   0  0  0  0  0  0  0  0  0  0  0  0
   27.3241  -16.0108  -17.6590 C   0  0  0  0  0  0  0  0  0  0  0  0
   27.7428  -15.1960  -16.6336 C   0  0  0  0  0  0  0  0  0  0  0  0
   27.6221  -15.5372  -15.3105 C   0  0  0  0  0  0  0  0  0  0  0  0
   27.0481  -16.7651  -15.0029 C   0  0  0  0  0  0  0  0  0  0  0  0
   26.6129  -17.6160  -15.9729 C   0  0  0  0  0  0  0  0  0  0  0  0
   26.2373  -21.0108  -12.8497 C   0  0  0  0  0  0  0  0  0  0  0  0
   25.7605  -22.1510  -12.9690 O   0  0  0  0  0  0  0  0  0  0  0  0
   29.2017  -20.6739   -6.8706 C   0  0  0  0  0  0  0  0  0  0  0  0
   27.5212  -20.0869   -7.2869 S   0  0  0  0  0  0  0  0  0  0  0  0
   27.0320  -20.7992   -8.9007 C   0  0  0  0  0  0  0  0  0  0  0  0
   25.6669  -20.1889   -9.2324 C   0  0  0  0  0  0  0  0  0  0  0  0
   25.2708  -20.8018  -10.5836 C   0  0  2  0  0  0  0  0  0  0  0  0
   26.2292  -20.3747  -11.5596 N   0  0  0  0  0  0  0  0  0  0  0  0
   23.9049  -20.3997  -10.9653 C   0  0  0  0  0  0  0  0  0  0  0  0
   23.7351  -19.2351  -11.4666 O   0  0  0  0  0  0  0  0  0  0  0  0
   21.9079  -25.0235  -15.8150 O   0  0  0  0  0  0  0  0  0  0  0  0
   21.8364  -23.8631  -15.0630 C   0  0  0  0  0  0  0  0  0  0  0  0
   22.9655  -23.1068  -14.7883 C   0  0  0  0  0  0  0  0  0  0  0  0
   22.9048  -21.9528  -14.0425 C   0  0  0  0  0  0  0  0  0  0  0  0
   21.6713  -21.5577  -13.5648 C   0  0  0  0  0  0  0  0  0  0  0  0
   21.4926  -20.3507  -12.7297 C   0  0  0  0  0  0  0  0  0  0  0  0
   21.4711  -20.7176  -11.2886 C   0  0  2  0  0  0  0  0  0  0  0  0
   22.7565  -21.2034  -10.8217 N   0  0  0  0  0  0  0  0  0  0  0  0
   20.3956  -21.6595  -10.9330 C   0  0  0  0  0  0  0  0  0  0  0  0
   19.1938  -21.4347  -11.1636 O   0  0  0  0  0  0  0  0  0  0  0  0
   20.5501  -22.3225  -13.8462 C   0  0  0  0  0  0  0  0  0  0  0  0
   20.6134  -23.4751  -14.5917 C   0  0  0  0  0  0  0  0  0  0  0  0
   20.7362  -22.8512  -10.3127 O   0  0  0  0  0  0  0  0  0  0  0  0
  2  1  1  6
  2  3  1  0
  4  3  1  0
  5  4  2  0
  6  5  1  0
  7  6  1  0
  7 12  2  0
  8  9  2  0
  8  7  1  0
  9 10  1  0
 10 11  2  0
 12 11  1  0
 12  4  1  0
 13 14  2  0
 13  2  1  0
 15 16  1  0
 16 17  1  0
 17 18  1  0
 19 18  1  1
 19 20  1  0
 20 13  1  0
 21 19  1  0
 22 21  2  0
 23 24  1  0
 24 34  2  0
 25 24  1  0
 25 26  2  0
 26 27  1  0
 27 33  2  0
 27 28  1  0
 29 28  1  6
 29 30  1  0
 30 21  1  0
 31 29  1  0
 32 31  2  0
 34 33  1  0
 35 31  1  0
M  END
$$$$
