WMY.pdb
     RDKit          3D

 35 37  0  0  1  0  0  0  0  0999 V2000
   23.9699  -20.1574  -10.5874 N   0  0  0  0  0  0  0  0  0  0  0  0
   25.2547  -19.5854  -10.9173 C   0  0  1  0  0  0  0  0  0  0  0  0
   26.3543  -20.4873  -10.3992 C   0  0  0  0  0  0  0  0  0  0  0  0
   26.3286  -20.6779   -8.9339 C   0  0  0  0  0  0  0  0  0  0  0  0
   25.6201  -21.7045   -8.2949 C   0  0  0  0  0  0  0  0  0  0  0  0
   25.8306  -21.6134   -6.9734 N   0  0  0  0  0  0  0  0  0  0  0  0
   26.6474  -20.5739   -6.6856 C   0  0  0  0  0  0  0  0  0  0  0  0
   27.1396  -20.0812   -5.4984 C   0  0  0  0  0  0  0  0  0  0  0  0
   27.9568  -18.9778   -5.5699 C   0  0  0  0  0  0  0  0  0  0  0  0
   28.2885  -18.3683   -6.7531 C   0  0  0  0  0  0  0  0  0  0  0  0
   27.7698  -18.8988   -7.9283 C   0  0  0  0  0  0  0  0  0  0  0  0
   26.9556  -19.9903   -7.9240 C   0  0  0  0  0  0  0  0  0  0  0  0
   25.3846  -19.5824  -12.3981 C   0  0  0  0  0  0  0  0  0  0  0  0
   24.8527  -20.4869  -13.0620 O   0  0  0  0  0  0  0  0  0  0  0  0
   29.7368  -15.2777  -16.8543 C   0  0  0  0  0  0  0  0  0  0  0  0
   28.0349  -15.3730  -16.1938 S   0  0  0  0  0  0  0  0  0  0  0  0
   27.6944  -17.1002  -15.6918 C   0  0  0  0  0  0  0  0  0  0  0  0
   26.3535  -17.0657  -14.9521 C   0  0  0  0  0  0  0  0  0  0  0  0
   26.1019  -18.5144  -14.5095 C   0  0  2  0  0  0  0  0  0  0  0  0
   26.1166  -18.5469  -13.0770 N   0  0  0  0  0  0  0  0  0  0  0  0
   27.1164  -19.4225  -15.0744 C   0  0  0  0  0  0  0  0  0  0  0  0
   28.1267  -19.7259  -14.3507 O   0  0  0  0  0  0  0  0  0  0  0  0
   28.8508  -27.4675  -16.2840 O   0  0  0  0  0  0  0  0  0  0  0  0
   28.3107  -26.2027  -16.1238 C   0  0  0  0  0  0  0  0  0  0  0  0
   27.0465  -25.8889  -16.5991 C   0  0  0  0  0  0  0  0  0  0  0  0
   26.5014  -24.6357  -16.4448 C   0  0  0  0  0  0  0  0  0  0  0  0
   27.2555  -23.6798  -15.7940 C   0  0  0  0  0  0  0  0  0  0  0  0
   26.7815  -22.2933  -15.5967 C   0  0  0  0  0  0  0  0  0  0  0  0
   27.4509  -21.3764  -16.5575 C   0  0  2  0  0  0  0  0  0  0  0  0
   27.0637  -19.9914  -16.3625 N   0  0  0  0  0  0  0  0  0  0  0  0
   27.2859  -21.7720  -17.9670 C   0  0  0  0  0  0  0  0  0  0  0  0
   26.1999  -21.6975  -18.5694 O   0  0  0  0  0  0  0  0  0  0  0  0
   28.5179  -24.0061  -15.3236 C   0  0  0  0  0  0  0  0  0  0  0  0
   29.0604  -25.2590  -15.4789 C   0  0  0  0  0  0  0  0  0  0  0  0
   28.3902  -22.2496  -18.6552 O   0  0  0  0  0  0  0  0  0  0  0  0
  2  1  1  6
  2  3  1  0
  4  3  1  0
  5  4  2  0
  6  5  1  0
  7  6  1  0
  7 12  2  0
  8  9  2  0
  8  7  1  0
  9 10  1  0
 10 11  2  0
 12 11  1  0
 12  4  1  0
 13 14  2  0
 13  2  1  0
 15 16  1  0
 16 17  1  0
 17 18  1  0
 19 18  1  1
 19 20  1  0
 20 13  1  0
 21 19  1  0
 22 21  2  0
 23 24  1  0
 24 34  2  0
 25 24  1  0
 25 26  2  0
 26 27  1  0
 27 33  2  0
 27 28  1  0
 29 28  1  1
 29 30  1  0
 30 21  1  0
 31 29  1  0
 32 31  2  0
 34 33  1  0
 35 31  1  0
M  END
$$$$
