WMY.pdb
     RDKit          3D

 35 37  0  0  1  0  0  0  0  0999 V2000
   26.5716  -21.4105  -15.4452 N   0  0  0  0  0  0  0  0  0  0  0  0
   27.0062  -20.5665  -14.3565 C   0  0  1  0  0  0  0  0  0  0  0  0
   26.3704  -19.1999  -14.4953 C   0  0  0  0  0  0  0  0  0  0  0  0
   26.8325  -18.4444  -15.6784 C   0  0  0  0  0  0  0  0  0  0  0  0
   25.9695  -17.8211  -16.5898 C   0  0  0  0  0  0  0  0  0  0  0  0
   26.7060  -17.2001  -17.5229 N   0  0  0  0  0  0  0  0  0  0  0  0
   28.0273  -17.3729  -17.2882 C   0  0  0  0  0  0  0  0  0  0  0  0
   29.1524  -16.9432  -17.9545 C   0  0  0  0  0  0  0  0  0  0  0  0
   30.3688  -17.3167  -17.4338 C   0  0  0  0  0  0  0  0  0  0  0  0
   30.4946  -18.0828  -16.3029 C   0  0  0  0  0  0  0  0  0  0  0  0
   29.3327  -18.4948  -15.6611 C   0  0  0  0  0  0  0  0  0  0  0  0
   28.0984  -18.1571  -16.1267 C   0  0  0  0  0  0  0  0  0  0  0  0
   26.4759  -21.1439  -13.0936 C   0  0  0  0  0  0  0  0  0  0  0  0
   25.4210  -21.7988  -13.1144 O   0  0  0  0  0  0  0  0  0  0  0  0
   26.5554  -20.2852   -5.2886 C   0  0  0  0  0  0  0  0  0  0  0  0
   27.5640  -20.3507   -6.8118 S   0  0  0  0  0  0  0  0  0  0  0  0
   26.4673  -20.7287   -8.2280 C   0  0  0  0  0  0  0  0  0  0  0  0
   27.3767  -20.7868   -9.4592 C   0  0  0  0  0  0  0  0  0  0  0  0
   26.4539  -21.1812  -10.6215 C   0  0  2  0  0  0  0  0  0  0  0  0
   27.1654  -20.9578  -11.8451 N   0  0  0  0  0  0  0  0  0  0  0  0
   25.1993  -20.4082  -10.5849 C   0  0  0  0  0  0  0  0  0  0  0  0
   25.2665  -19.1388  -10.7293 O   0  0  0  0  0  0  0  0  0  0  0  0
   21.2155  -23.0786  -15.7925 O   0  0  0  0  0  0  0  0  0  0  0  0
   21.6023  -22.1661  -14.8255 C   0  0  0  0  0  0  0  0  0  0  0  0
   22.9048  -21.6966  -14.7518 C   0  0  0  0  0  0  0  0  0  0  0  0
   23.2986  -20.7903  -13.7952 C   0  0  0  0  0  0  0  0  0  0  0  0
   22.3500  -20.3509  -12.8935 C   0  0  0  0  0  0  0  0  0  0  0  0
   22.6677  -19.3998  -11.8070 C   0  0  0  0  0  0  0  0  0  0  0  0
   22.7428  -20.1109  -10.5029 C   0  0  2  0  0  0  0  0  0  0  0  0
   23.9156  -20.9598  -10.4019 N   0  0  0  0  0  0  0  0  0  0  0  0
   21.5218  -20.8639  -10.1675 C   0  0  0  0  0  0  0  0  0  0  0  0
   20.3917  -20.3445  -10.1374 O   0  0  0  0  0  0  0  0  0  0  0  0
   21.0513  -20.8280  -12.9778 C   0  0  0  0  0  0  0  0  0  0  0  0
   20.6603  -21.7335  -13.9346 C   0  0  0  0  0  0  0  0  0  0  0  0
   21.6355  -22.2131   -9.8712 O   0  0  0  0  0  0  0  0  0  0  0  0
  2  1  1  6
  2  3  1  0
  4  3  1  0
  5  4  2  0
  6  5  1  0
  7  6  1  0
  7 12  2  0
  8  9  2  0
  8  7  1  0
  9 10  1  0
 10 11  2  0
 12 11  1  0
 12  4  1  0
 13 14  2  0
 13  2  1  0
 15 16  1  0
 16 17  1  0
 17 18  1  0
 19 18  1  1
 19 20  1  0
 20 13  1  0
 21 19  1  0
 22 21  2  0
 23 24  1  0
 24 34  2  0
 25 24  1  0
 25 26  2  0
 26 27  1  0
 27 33  2  0
 27 28  1  0
 29 28  1  6
 29 30  1  0
 30 21  1  0
 31 29  1  0
 32 31  2  0
 34 33  1  0
 35 31  1  0
M  END
$$$$
