WMY.pdb
     RDKit          3D

 35 37  0  0  1  0  0  0  0  0999 V2000
   23.7475  -18.1642  -21.2422 N   0  0  0  0  0  0  0  0  0  0  0  0
   22.5087  -18.0805  -20.5039 C   0  0  1  0  0  0  0  0  0  0  0  0
   21.6177  -19.2435  -20.8838 C   0  0  0  0  0  0  0  0  0  0  0  0
   21.1129  -19.1799  -22.2713 C   0  0  0  0  0  0  0  0  0  0  0  0
   21.6339  -19.9433  -23.3249 C   0  0  0  0  0  0  0  0  0  0  0  0
   20.9358  -19.6724  -24.4376 N   0  0  0  0  0  0  0  0  0  0  0  0
   19.9667  -18.7614  -24.1892 C   0  0  0  0  0  0  0  0  0  0  0  0
   19.0173  -18.1734  -24.9938 C   0  0  0  0  0  0  0  0  0  0  0  0
   18.1757  -17.2604  -24.4035 C   0  0  0  0  0  0  0  0  0  0  0  0
   18.2492  -16.9251  -23.0754 C   0  0  0  0  0  0  0  0  0  0  0  0
   19.2225  -17.5431  -22.2992 C   0  0  0  0  0  0  0  0  0  0  0  0
   20.0852  -18.4564  -22.8246 C   0  0  0  0  0  0  0  0  0  0  0  0
   22.8256  -18.2549  -19.0622 C   0  0  0  0  0  0  0  0  0  0  0  0
   23.9851  -18.5377  -18.7192 O   0  0  0  0  0  0  0  0  0  0  0  0
   22.3405  -13.1414  -17.8649 C   0  0  0  0  0  0  0  0  0  0  0  0
   23.2142  -14.7382  -17.6943 S   0  0  0  0  0  0  0  0  0  0  0  0
   22.2914  -15.7909  -16.5148 C   0  0  0  0  0  0  0  0  0  0  0  0
   23.1306  -17.0602  -16.3398 C   0  0  0  0  0  0  0  0  0  0  0  0
   22.1805  -18.2190  -16.6756 C   0  0  2  0  0  0  0  0  0  0  0  0
   21.8105  -18.1004  -18.0549 N   0  0  0  0  0  0  0  0  0  0  0  0
   20.9939  -18.1989  -15.8012 C   0  0  0  0  0  0  0  0  0  0  0  0
   20.1514  -17.2472  -15.9465 O   0  0  0  0  0  0  0  0  0  0  0  0
   13.2664  -21.0605  -14.3973 O   0  0  0  0  0  0  0  0  0  0  0  0
   14.5740  -20.7725  -14.7502 C   0  0  0  0  0  0  0  0  0  0  0  0
   15.4541  -21.7684  -15.1452 C   0  0  0  0  0  0  0  0  0  0  0  0
   16.7545  -21.4925  -15.4977 C   0  0  0  0  0  0  0  0  0  0  0  0
   17.1711  -20.1771  -15.4483 C   0  0  0  0  0  0  0  0  0  0  0  0
   18.5533  -19.7691  -15.7781 C   0  0  0  0  0  0  0  0  0  0  0  0
   19.3313  -19.5253  -14.5342 C   0  0  2  0  0  0  0  0  0  0  0  0
   20.7078  -19.1543  -14.8058 N   0  0  0  0  0  0  0  0  0  0  0  0
   19.2700  -20.6373  -13.5697 C   0  0  0  0  0  0  0  0  0  0  0  0
   18.4091  -20.7117  -12.6746 O   0  0  0  0  0  0  0  0  0  0  0  0
   16.2815  -19.1909  -15.0517 C   0  0  0  0  0  0  0  0  0  0  0  0
   14.9826  -19.4691  -14.7000 C   0  0  0  0  0  0  0  0  0  0  0  0
   20.2143  -21.6476  -13.6619 O   0  0  0  0  0  0  0  0  0  0  0  0
  2  1  1  6
  2  3  1  0
  4  3  1  0
  5  4  2  0
  6  5  1  0
  7  6  1  0
  7 12  2  0
  8  9  2  0
  8  7  1  0
  9 10  1  0
 10 11  2  0
 12 11  1  0
 12  4  1  0
 13 14  2  0
 13  2  1  0
 15 16  1  0
 16 17  1  0
 17 18  1  0
 19 18  1  1
 19 20  1  0
 20 13  1  0
 21 19  1  0
 22 21  2  0
 23 24  1  0
 24 34  2  0
 25 24  1  0
 25 26  2  0
 26 27  1  0
 27 33  2  0
 27 28  1  0
 29 28  1  6
 29 30  1  0
 30 21  1  0
 31 29  1  0
 32 31  2  0
 34 33  1  0
 35 31  1  0
M  END
$$$$
