WMY.pdb
     RDKit          3D

 35 37  0  0  1  0  0  0  0  0999 V2000
   28.0598  -16.8397  -18.3281 N   0  0  0  0  0  0  0  0  0  0  0  0
   26.9819  -16.9327  -17.3709 C   0  0  1  0  0  0  0  0  0  0  0  0
   25.6564  -16.8509  -18.0972 C   0  0  0  0  0  0  0  0  0  0  0  0
   24.5927  -16.1775  -17.3232 C   0  0  0  0  0  0  0  0  0  0  0  0
   24.3539  -14.7972  -17.3663 C   0  0  0  0  0  0  0  0  0  0  0  0
   23.3058  -14.5179  -16.5774 N   0  0  0  0  0  0  0  0  0  0  0  0
   22.8227  -15.6426  -16.0011 C   0  0  0  0  0  0  0  0  0  0  0  0
   21.7834  -15.8646  -15.1265 C   0  0  0  0  0  0  0  0  0  0  0  0
   21.5693  -17.1623  -14.7257 C   0  0  0  0  0  0  0  0  0  0  0  0
   22.3367  -18.2144  -15.1569 C   0  0  0  0  0  0  0  0  0  0  0  0
   23.3757  -17.9454  -16.0400 C   0  0  0  0  0  0  0  0  0  0  0  0
   23.6380  -16.6819  -16.4748 C   0  0  0  0  0  0  0  0  0  0  0  0
   27.0348  -18.2850  -16.7561 C   0  0  0  0  0  0  0  0  0  0  0  0
   27.1106  -19.2873  -17.4851 O   0  0  0  0  0  0  0  0  0  0  0  0
   29.4745  -19.6206  -11.1474 C   0  0  0  0  0  0  0  0  0  0  0  0
   28.5032  -21.1629  -11.2888 S   0  0  0  0  0  0  0  0  0  0  0  0
   27.6716  -21.1872  -12.9194 C   0  0  0  0  0  0  0  0  0  0  0  0
   27.7194  -19.7462  -13.4365 C   0  0  0  0  0  0  0  0  0  0  0  0
   26.9901  -19.7802  -14.7874 C   0  0  2  0  0  0  0  0  0  0  0  0
   27.0008  -18.4531  -15.3280 N   0  0  0  0  0  0  0  0  0  0  0  0
   25.6127  -20.2816  -14.6310 C   0  0  0  0  0  0  0  0  0  0  0  0
   24.6678  -19.4274  -14.5127 O   0  0  0  0  0  0  0  0  0  0  0  0
   17.6094  -22.6670  -14.3791 O   0  0  0  0  0  0  0  0  0  0  0  0
   18.9249  -22.3077  -14.6192 C   0  0  0  0  0  0  0  0  0  0  0  0
   19.3599  -21.0010  -14.4595 C   0  0  0  0  0  0  0  0  0  0  0  0
   20.6643  -20.6342  -14.6954 C   0  0  0  0  0  0  0  0  0  0  0  0
   21.5466  -21.6150  -15.1024 C   0  0  0  0  0  0  0  0  0  0  0  0
   22.9641  -21.3295  -15.4110 C   0  0  0  0  0  0  0  0  0  0  0  0
   23.8536  -22.0125  -14.4343 C   0  0  2  0  0  0  0  0  0  0  0  0
   25.2469  -21.6421  -14.6012 N   0  0  0  0  0  0  0  0  0  0  0  0
   23.7006  -23.4777  -14.4174 C   0  0  0  0  0  0  0  0  0  0  0  0
   24.6463  -24.2605  -14.6192 O   0  0  0  0  0  0  0  0  0  0  0  0
   21.0992  -22.9176  -15.2584 C   0  0  0  0  0  0  0  0  0  0  0  0
   19.7954  -23.2816  -15.0220 C   0  0  0  0  0  0  0  0  0  0  0  0
   22.4460  -24.0104  -14.1656 O   0  0  0  0  0  0  0  0  0  0  0  0
  2  1  1  6
  2  3  1  0
  4  3  1  0
  5  4  2  0
  6  5  1  0
  7  6  1  0
  7 12  2  0
  8  9  2  0
  8  7  1  0
  9 10  1  0
 10 11  2  0
 12 11  1  0
 12  4  1  0
 13 14  2  0
 13  2  1  0
 15 16  1  0
 16 17  1  0
 17 18  1  0
 19 18  1  1
 19 20  1  0
 20 13  1  0
 21 19  1  0
 22 21  2  0
 23 24  1  0
 24 34  2  0
 25 24  1  0
 25 26  2  0
 26 27  1  0
 27 33  2  0
 27 28  1  0
 29 28  1  6
 29 30  1  0
 30 21  1  0
 31 29  1  0
 32 31  2  0
 34 33  1  0
 35 31  1  0
M  END
$$$$
