LYK.pdb
     RDKit          3D

 30 30  0  0  1  0  0  0  0  0999 V2000
    7.0598  -12.4183   18.9491 C   0  0  0  0  0  0  0  0  0  0  0  0
    7.4810  -13.7726   19.4154 C   0  0  1  0  0  0  0  0  0  0  0  0
    7.8002  -14.6234   18.2013 C   0  0  0  0  0  0  0  0  0  0  0  0
    8.6366  -13.7826   20.3697 C   0  0  0  0  0  0  0  0  0  0  0  0
    8.8717  -15.1584   20.9364 C   0  0  2  0  0  0  0  0  0  0  0  0
    7.6758  -15.9334   21.0907 N   0  0  0  0  0  0  0  0  0  0  0  0
    9.5860  -15.0174   22.2223 C   0  0  0  0  0  0  0  0  0  0  0  0
   10.7198  -14.4494   22.2312 O   0  0  0  0  0  0  0  0  0  0  0  0
   11.2949  -14.8690   30.8334 O   0  0  0  0  0  0  0  0  0  0  0  0
   10.6453  -14.9111   29.6019 C   0  0  0  0  0  0  0  0  0  0  0  0
   10.4643  -13.7863   28.8257 C   0  0  0  0  0  0  0  0  0  0  0  0
    9.8140  -13.8602   27.6041 C   0  0  0  0  0  0  0  0  0  0  0  0
    9.3184  -15.0442   27.1021 C   0  0  0  0  0  0  0  0  0  0  0  0
    8.6239  -15.1330   25.7920 C   0  0  0  0  0  0  0  0  0  0  0  0
    9.6280  -15.3138   24.6603 C   0  0  2  0  0  0  0  0  0  0  0  0
    8.9739  -15.5251   23.4027 N   0  0  0  0  0  0  0  0  0  0  0  0
   10.4741  -16.5322   24.9355 C   0  0  0  0  0  0  0  0  0  0  0  0
   11.1373  -16.6582   25.9931 O   0  0  0  0  0  0  0  0  0  0  0  0
    9.4990  -16.1768   27.8811 C   0  0  0  0  0  0  0  0  0  0  0  0
   10.1518  -16.1006   29.1068 C   0  0  0  0  0  0  0  0  0  0  0  0
   10.5343  -17.5812   23.9785 N   0  0  0  0  0  0  0  0  0  0  0  0
   11.3280  -18.7540   24.2473 C   0  0  1  0  0  0  0  0  0  0  0  0
   10.8287  -19.8834   23.3630 C   0  0  0  0  0  0  0  0  0  0  0  0
   10.4553  -21.0445   24.2437 C   0  0  0  0  0  0  0  0  0  0  0  0
   10.0016  -22.2489   23.4242 C   0  0  0  0  0  0  0  0  0  0  0  0
    9.6584  -23.4069   24.3244 C   0  0  0  0  0  0  0  0  0  0  0  0
    9.1799  -24.5007   23.5214 N   0  0  0  0  0  0  0  0  0  0  0  0
   12.7666  -18.4866   24.0182 C   0  0  0  0  0  0  0  0  0  0  0  0
   13.6564  -19.0070   24.7231 O   0  0  0  0  0  0  0  0  0  0  0  0
   13.1353  -17.6362   22.9945 O   0  0  0  0  0  0  0  0  0  0  0  0
  2  1  1  6
  2  3  1  0
  4  2  1  0
  5  4  1  0
  5  6  1  1
  7  5  1  0
  7  8  2  0
  9 10  1  0
 10 20  2  0
 11 10  1  0
 11 12  2  0
 12 13  1  0
 13 19  2  0
 13 14  1  0
 15 14  1  1
 15 16  1  0
 16  7  1  0
 17 15  1  0
 18 17  2  0
 20 19  1  0
 21 17  1  0
 22 23  1  6
 22 21  1  0
 23 24  1  0
 24 25  1  0
 25 26  1  0
 26 27  1  0
 28 30  1  0
 28 22  1  0
 29 28  2  0
M  END
$$$$
