LYK.pdb
     RDKit          3D

 30 30  0  0  1  0  0  0  0  0999 V2000
    8.0835  -12.0170   19.6497 C   0  0  0  0  0  0  0  0  0  0  0  0
    7.8193  -13.3236   20.3220 C   0  0  1  0  0  0  0  0  0  0  0  0
    6.3330  -13.6143   20.2445 C   0  0  0  0  0  0  0  0  0  0  0  0
    8.5999  -14.4831   19.7812 C   0  0  0  0  0  0  0  0  0  0  0  0
    8.3884  -15.7240   20.6087 C   0  0  2  0  0  0  0  0  0  0  0  0
    7.0094  -16.0262   20.8574 N   0  0  0  0  0  0  0  0  0  0  0  0
    9.1385  -15.5750   21.8731 C   0  0  0  0  0  0  0  0  0  0  0  0
   10.4038  -15.5043   21.8269 O   0  0  0  0  0  0  0  0  0  0  0  0
   11.1582  -15.0851   30.4043 O   0  0  0  0  0  0  0  0  0  0  0  0
   10.4437  -15.0977   29.2087 C   0  0  0  0  0  0  0  0  0  0  0  0
    9.7799  -16.2191   28.7591 C   0  0  0  0  0  0  0  0  0  0  0  0
    9.0769  -16.2006   27.5649 C   0  0  0  0  0  0  0  0  0  0  0  0
    9.0016  -15.0774   26.7699 C   0  0  0  0  0  0  0  0  0  0  0  0
    8.2470  -15.0476   25.4909 C   0  0  0  0  0  0  0  0  0  0  0  0
    9.1431  -15.4504   24.3262 C   0  0  2  0  0  0  0  0  0  0  0  0
    8.4118  -15.5168   23.0955 N   0  0  0  0  0  0  0  0  0  0  0  0
    9.7091  -16.8246   24.5857 C   0  0  0  0  0  0  0  0  0  0  0  0
    8.9834  -17.8472   24.6290 O   0  0  0  0  0  0  0  0  0  0  0  0
    9.6687  -13.9482   27.2199 C   0  0  0  0  0  0  0  0  0  0  0  0
   10.3738  -13.9689   28.4186 C   0  0  0  0  0  0  0  0  0  0  0  0
   11.1063  -16.9861   24.7897 N   0  0  0  0  0  0  0  0  0  0  0  0
   11.6616  -18.3071   24.9443 C   0  0  1  0  0  0  0  0  0  0  0  0
   12.4917  -18.6251   23.7127 C   0  0  0  0  0  0  0  0  0  0  0  0
   13.0962  -19.9914   23.8890 C   0  0  0  0  0  0  0  0  0  0  0  0
   13.9142  -20.4061   22.6697 C   0  0  0  0  0  0  0  0  0  0  0  0
   14.4912  -21.7846   22.8591 C   0  0  0  0  0  0  0  0  0  0  0  0
   15.0905  -22.2170   21.6246 N   0  0  0  0  0  0  0  0  0  0  0  0
   12.4734  -18.4017   26.1796 C   0  0  0  0  0  0  0  0  0  0  0  0
   13.1662  -17.4475   26.5903 O   0  0  0  0  0  0  0  0  0  0  0  0
   12.4640  -19.5806   26.8988 O   0  0  0  0  0  0  0  0  0  0  0  0
  2  1  1  6
  2  3  1  0
  4  2  1  0
  5  4  1  0
  5  6  1  1
  7  5  1  0
  7  8  2  0
  9 10  1  0
 10 20  2  0
 11 10  1  0
 11 12  2  0
 12 13  1  0
 13 19  2  0
 13 14  1  0
 15 14  1  1
 15 16  1  0
 16  7  1  0
 17 15  1  0
 18 17  2  0
 20 19  1  0
 21 17  1  0
 22 23  1  6
 22 21  1  0
 23 24  1  0
 24 25  1  0
 25 26  1  0
 26 27  1  0
 28 30  1  0
 28 22  1  0
 29 28  2  0
M  END
$$$$
