LYK.pdb
     RDKit          3D

 30 30  0  0  1  0  0  0  0  0999 V2000
    8.0328  -11.8787   19.4220 C   0  0  0  0  0  0  0  0  0  0  0  0
    7.8509  -13.2962   19.8541 C   0  0  1  0  0  0  0  0  0  0  0  0
    7.1506  -14.0535   18.7424 C   0  0  0  0  0  0  0  0  0  0  0  0
    9.1118  -14.0055   20.2457 C   0  0  0  0  0  0  0  0  0  0  0  0
    8.8193  -15.3413   20.8777 C   0  0  2  0  0  0  0  0  0  0  0  0
    7.4207  -15.6177   21.0270 N   0  0  0  0  0  0  0  0  0  0  0  0
    9.5177  -15.4049   22.1784 C   0  0  0  0  0  0  0  0  0  0  0  0
   10.7839  -15.3363   22.1947 O   0  0  0  0  0  0  0  0  0  0  0  0
   11.1438  -15.3989   30.7976 O   0  0  0  0  0  0  0  0  0  0  0  0
   10.5106  -15.2807   29.5626 C   0  0  0  0  0  0  0  0  0  0  0  0
   10.5798  -14.1302   28.8064 C   0  0  0  0  0  0  0  0  0  0  0  0
    9.9389  -14.0430   27.5807 C   0  0  0  0  0  0  0  0  0  0  0  0
    9.2069  -15.0855   27.0546 C   0  0  0  0  0  0  0  0  0  0  0  0
    8.5205  -15.0020   25.7400 C   0  0  0  0  0  0  0  0  0  0  0  0
    9.4158  -15.5367   24.6290 C   0  0  2  0  0  0  0  0  0  0  0  0
    8.7422  -15.5411   23.3640 N   0  0  0  0  0  0  0  0  0  0  0  0
    9.7959  -16.9633   24.9392 C   0  0  0  0  0  0  0  0  0  0  0  0
    8.9367  -17.8674   25.0764 O   0  0  0  0  0  0  0  0  0  0  0  0
    9.1357  -16.2437   27.8135 C   0  0  0  0  0  0  0  0  0  0  0  0
    9.7794  -16.3292   29.0434 C   0  0  0  0  0  0  0  0  0  0  0  0
   11.1656  -17.3138   25.0840 N   0  0  0  0  0  0  0  0  0  0  0  0
   11.5343  -18.6868   25.3215 C   0  0  1  0  0  0  0  0  0  0  0  0
   12.5096  -19.1152   24.2387 C   0  0  0  0  0  0  0  0  0  0  0  0
   11.9463  -18.7056   22.9052 C   0  0  0  0  0  0  0  0  0  0  0  0
   12.9190  -19.0037   21.7682 C   0  0  0  0  0  0  0  0  0  0  0  0
   12.3151  -18.6319   20.4393 C   0  0  0  0  0  0  0  0  0  0  0  0
   13.2573  -18.9324   19.3942 N   0  0  0  0  0  0  0  0  0  0  0  0
   12.1209  -18.8542   26.6711 C   0  0  0  0  0  0  0  0  0  0  0  0
   12.2331  -19.9755   27.2090 O   0  0  0  0  0  0  0  0  0  0  0  0
   12.5566  -17.7367   27.3555 O   0  0  0  0  0  0  0  0  0  0  0  0
  2  1  1  6
  2  3  1  0
  4  2  1  0
  5  4  1  0
  5  6  1  1
  7  5  1  0
  7  8  2  0
  9 10  1  0
 10 20  2  0
 11 10  1  0
 11 12  2  0
 12 13  1  0
 13 19  2  0
 13 14  1  0
 15 14  1  1
 15 16  1  0
 16  7  1  0
 17 15  1  0
 18 17  2  0
 20 19  1  0
 21 17  1  0
 22 23  1  6
 22 21  1  0
 23 24  1  0
 24 25  1  0
 25 26  1  0
 26 27  1  0
 28 30  1  0
 28 22  1  0
 29 28  2  0
M  END
$$$$
