LYK.pdb
     RDKit          3D

 30 30  0  0  1  0  0  0  0  0999 V2000
    7.8352  -20.6674   19.0215 C   0  0  0  0  0  0  0  0  0  0  0  0
    8.3653  -19.3066   18.7113 C   0  0  1  0  0  0  0  0  0  0  0  0
    7.3424  -18.5711   17.8672 C   0  0  0  0  0  0  0  0  0  0  0  0
    8.7339  -18.4828   19.9079 C   0  0  0  0  0  0  0  0  0  0  0  0
    9.0368  -17.0580   19.5241 C   0  0  2  0  0  0  0  0  0  0  0  0
   10.1770  -16.9190   18.6666 N   0  0  0  0  0  0  0  0  0  0  0  0
    9.1998  -16.2663   20.7612 C   0  0  0  0  0  0  0  0  0  0  0  0
   10.3592  -16.1483   21.2614 O   0  0  0  0  0  0  0  0  0  0  0  0
    7.2828  -12.1337   28.2697 O   0  0  0  0  0  0  0  0  0  0  0  0
    7.2096  -12.6243   26.9681 C   0  0  0  0  0  0  0  0  0  0  0  0
    7.9174  -12.0612   25.9277 C   0  0  0  0  0  0  0  0  0  0  0  0
    7.8240  -12.5722   24.6429 C   0  0  0  0  0  0  0  0  0  0  0  0
    7.0304  -13.6563   24.3356 C   0  0  0  0  0  0  0  0  0  0  0  0
    6.9278  -14.2130   22.9622 C   0  0  0  0  0  0  0  0  0  0  0  0
    8.1910  -14.9822   22.5960 C   0  0  2  0  0  0  0  0  0  0  0  0
    8.0487  -15.6664   21.3448 N   0  0  0  0  0  0  0  0  0  0  0  0
    8.4604  -16.0275   23.6500 C   0  0  0  0  0  0  0  0  0  0  0  0
    7.6874  -16.9974   23.8401 O   0  0  0  0  0  0  0  0  0  0  0  0
    6.3173  -14.2242   25.3803 C   0  0  0  0  0  0  0  0  0  0  0  0
    6.4124  -13.7098   26.6690 C   0  0  0  0  0  0  0  0  0  0  0  0
    9.6218  -15.9276   24.4632 N   0  0  0  0  0  0  0  0  0  0  0  0
    9.8985  -16.9431   25.4479 C   0  0  1  0  0  0  0  0  0  0  0  0
   11.0930  -17.7545   24.9768 C   0  0  0  0  0  0  0  0  0  0  0  0
   10.5970  -19.0899   24.4931 C   0  0  0  0  0  0  0  0  0  0  0  0
   11.7300  -19.9377   23.9227 C   0  0  0  0  0  0  0  0  0  0  0  0
   11.1891  -21.1918   23.2874 C   0  0  0  0  0  0  0  0  0  0  0  0
   12.2885  -21.9960   22.8242 N   0  0  0  0  0  0  0  0  0  0  0  0
   10.1479  -16.3406   26.7778 C   0  0  0  0  0  0  0  0  0  0  0  0
    9.7881  -16.8994   27.8349 O   0  0  0  0  0  0  0  0  0  0  0  0
   10.7975  -15.1242   26.8510 O   0  0  0  0  0  0  0  0  0  0  0  0
  2  1  1  1
  2  3  1  0
  4  2  1  0
  5  4  1  0
  5  6  1  1
  7  5  1  0
  7  8  2  0
  9 10  1  0
 10 20  2  0
 11 10  1  0
 11 12  2  0
 12 13  1  0
 13 19  2  0
 13 14  1  0
 15 14  1  1
 15 16  1  0
 16  7  1  0
 17 15  1  0
 18 17  2  0
 20 19  1  0
 21 17  1  0
 22 23  1  6
 22 21  1  0
 23 24  1  0
 24 25  1  0
 25 26  1  0
 26 27  1  0
 28 30  1  0
 28 22  1  0
 29 28  2  0
M  END
$$$$
