LYK.pdb
     RDKit          3D

 30 30  0  0  1  0  0  0  0  0999 V2000
    8.1543  -12.1390   19.6825 C   0  0  0  0  0  0  0  0  0  0  0  0
    8.0188  -13.4548   20.3749 C   0  0  1  0  0  0  0  0  0  0  0  0
    6.5588  -13.8641   20.3519 C   0  0  0  0  0  0  0  0  0  0  0  0
    8.8709  -14.5544   19.8172 C   0  0  0  0  0  0  0  0  0  0  0  0
    8.7640  -15.8084   20.6450 C   0  0  2  0  0  0  0  0  0  0  0  0
    7.4169  -16.2519   20.8534 N   0  0  0  0  0  0  0  0  0  0  0  0
    9.4553  -15.5789   21.9307 C   0  0  0  0  0  0  0  0  0  0  0  0
   10.6929  -15.3027   21.9170 O   0  0  0  0  0  0  0  0  0  0  0  0
   11.1459  -14.9995   30.5329 O   0  0  0  0  0  0  0  0  0  0  0  0
   10.4964  -15.0124   29.3007 C   0  0  0  0  0  0  0  0  0  0  0  0
    9.8025  -16.1131   28.8452 C   0  0  0  0  0  0  0  0  0  0  0  0
    9.1661  -16.0953   27.6143 C   0  0  0  0  0  0  0  0  0  0  0  0
    9.1894  -14.9933   26.7870 C   0  0  0  0  0  0  0  0  0  0  0  0
    8.5065  -14.9644   25.4682 C   0  0  0  0  0  0  0  0  0  0  0  0
    9.3970  -15.5626   24.3862 C   0  0  2  0  0  0  0  0  0  0  0  0
    8.7053  -15.6770   23.1363 N   0  0  0  0  0  0  0  0  0  0  0  0
    9.8134  -16.9533   24.7969 C   0  0  0  0  0  0  0  0  0  0  0  0
    8.9881  -17.8926   24.9016 O   0  0  0  0  0  0  0  0  0  0  0  0
    9.8869  -13.8851   27.2429 C   0  0  0  0  0  0  0  0  0  0  0  0
   10.5251  -13.9049   28.4785 C   0  0  0  0  0  0  0  0  0  0  0  0
   11.1793  -17.2277   25.0778 N   0  0  0  0  0  0  0  0  0  0  0  0
   11.6051  -18.5840   25.3161 C   0  0  1  0  0  0  0  0  0  0  0  0
   12.6730  -18.9373   24.2954 C   0  0  0  0  0  0  0  0  0  0  0  0
   12.1587  -20.0657   23.4436 C   0  0  0  0  0  0  0  0  0  0  0  0
   13.2016  -20.5250   22.4291 C   0  0  0  0  0  0  0  0  0  0  0  0
   12.6769  -21.6743   21.6090 C   0  0  0  0  0  0  0  0  0  0  0  0
   13.7108  -22.1248   20.7155 N   0  0  0  0  0  0  0  0  0  0  0  0
   12.1076  -18.7483   26.6997 C   0  0  0  0  0  0  0  0  0  0  0  0
   12.7000  -17.8286   27.3017 O   0  0  0  0  0  0  0  0  0  0  0  0
   11.9155  -19.9549   27.3433 O   0  0  0  0  0  0  0  0  0  0  0  0
  2  1  1  6
  2  3  1  0
  4  2  1  0
  5  4  1  0
  5  6  1  1
  7  5  1  0
  7  8  2  0
  9 10  1  0
 10 20  2  0
 11 10  1  0
 11 12  2  0
 12 13  1  0
 13 19  2  0
 13 14  1  0
 15 14  1  1
 15 16  1  0
 16  7  1  0
 17 15  1  0
 18 17  2  0
 20 19  1  0
 21 17  1  0
 22 23  1  6
 22 21  1  0
 23 24  1  0
 24 25  1  0
 25 26  1  0
 26 27  1  0
 28 30  1  0
 28 22  1  0
 29 28  2  0
M  END
$$$$
