LYK.pdb
     RDKit          3D

 30 30  0  0  1  0  0  0  0  0999 V2000
    7.5213  -11.8381   18.9391 C   0  0  0  0  0  0  0  0  0  0  0  0
    7.6737  -13.2805   19.2933 C   0  0  1  0  0  0  0  0  0  0  0  0
    7.8328  -14.0776   18.0131 C   0  0  0  0  0  0  0  0  0  0  0  0
    8.8002  -13.5858   20.2336 C   0  0  0  0  0  0  0  0  0  0  0  0
    8.6657  -14.9645   20.8257 C   0  0  2  0  0  0  0  0  0  0  0  0
    7.3084  -15.3999   20.9772 N   0  0  0  0  0  0  0  0  0  0  0  0
    9.3814  -14.9888   22.1183 C   0  0  0  0  0  0  0  0  0  0  0  0
   10.6301  -14.7676   22.1283 O   0  0  0  0  0  0  0  0  0  0  0  0
   11.2323  -15.3347   30.6815 O   0  0  0  0  0  0  0  0  0  0  0  0
   10.5418  -15.2658   29.4738 C   0  0  0  0  0  0  0  0  0  0  0  0
    9.8346  -16.3353   28.9675 C   0  0  0  0  0  0  0  0  0  0  0  0
    9.1571  -16.2358   27.7625 C   0  0  0  0  0  0  0  0  0  0  0  0
    9.1511  -15.0797   27.0123 C   0  0  0  0  0  0  0  0  0  0  0  0
    8.4243  -14.9633   25.7221 C   0  0  0  0  0  0  0  0  0  0  0  0
    9.3407  -15.3050   24.5538 C   0  0  2  0  0  0  0  0  0  0  0  0
    8.6416  -15.2601   23.3035 N   0  0  0  0  0  0  0  0  0  0  0  0
    9.8627  -16.7100   24.7251 C   0  0  0  0  0  0  0  0  0  0  0  0
    9.1431  -17.7178   24.5231 O   0  0  0  0  0  0  0  0  0  0  0  0
    9.8620  -14.0027   27.5193 C   0  0  0  0  0  0  0  0  0  0  0  0
   10.5413  -14.1046   28.7287 C   0  0  0  0  0  0  0  0  0  0  0  0
   11.2099  -16.9189   25.1271 N   0  0  0  0  0  0  0  0  0  0  0  0
   11.7436  -18.2567   25.1825 C   0  0  1  0  0  0  0  0  0  0  0  0
   12.7025  -18.4385   24.0187 C   0  0  0  0  0  0  0  0  0  0  0  0
   13.2529  -19.8376   24.0730 C   0  0  0  0  0  0  0  0  0  0  0  0
   14.2207  -20.1062   22.9245 C   0  0  0  0  0  0  0  0  0  0  0  0
   14.7003  -21.5338   22.9549 C   0  0  0  0  0  0  0  0  0  0  0  0
   15.5969  -21.7521   21.8510 N   0  0  0  0  0  0  0  0  0  0  0  0
   12.4159  -18.5078   26.4781 C   0  0  0  0  0  0  0  0  0  0  0  0
   12.4221  -19.6366   27.0121 O   0  0  0  0  0  0  0  0  0  0  0  0
   13.0549  -17.4624   27.1150 O   0  0  0  0  0  0  0  0  0  0  0  0
  2  1  1  6
  2  3  1  0
  4  2  1  0
  5  4  1  0
  5  6  1  1
  7  5  1  0
  7  8  2  0
  9 10  1  0
 10 20  2  0
 11 10  1  0
 11 12  2  0
 12 13  1  0
 13 19  2  0
 13 14  1  0
 15 14  1  1
 15 16  1  0
 16  7  1  0
 17 15  1  0
 18 17  2  0
 20 19  1  0
 21 17  1  0
 22 23  1  6
 22 21  1  0
 23 24  1  0
 24 25  1  0
 25 26  1  0
 26 27  1  0
 28 30  1  0
 28 22  1  0
 29 28  2  0
M  END
$$$$
