LYK.pdb
     RDKit          3D

 30 30  0  0  1  0  0  0  0  0999 V2000
    7.3399  -11.5975   18.9319 C   0  0  0  0  0  0  0  0  0  0  0  0
    7.3626  -13.0274   19.3611 C   0  0  1  0  0  0  0  0  0  0  0  0
    7.4210  -13.9018   18.1235 C   0  0  0  0  0  0  0  0  0  0  0  0
    8.4734  -13.3889   20.3001 C   0  0  0  0  0  0  0  0  0  0  0  0
    8.3003  -14.7812   20.8486 C   0  0  2  0  0  0  0  0  0  0  0  0
    6.9314  -15.1692   21.0226 N   0  0  0  0  0  0  0  0  0  0  0  0
    9.0481  -14.8782   22.1194 C   0  0  0  0  0  0  0  0  0  0  0  0
   10.3110  -14.7651   22.0941 O   0  0  0  0  0  0  0  0  0  0  0  0
   11.0812  -15.3514   30.6382 O   0  0  0  0  0  0  0  0  0  0  0  0
   10.3731  -15.2265   29.4453 C   0  0  0  0  0  0  0  0  0  0  0  0
    9.6519  -16.2693   28.9040 C   0  0  0  0  0  0  0  0  0  0  0  0
    8.9569  -16.1141   27.7151 C   0  0  0  0  0  0  0  0  0  0  0  0
    8.9464  -14.9265   27.0158 C   0  0  0  0  0  0  0  0  0  0  0  0
    8.2009  -14.7503   25.7432 C   0  0  0  0  0  0  0  0  0  0  0  0
    9.0488  -15.1897   24.5559 C   0  0  2  0  0  0  0  0  0  0  0  0
    8.3221  -15.0952   23.3242 N   0  0  0  0  0  0  0  0  0  0  0  0
    9.4432  -16.6350   24.7336 C   0  0  0  0  0  0  0  0  0  0  0  0
    8.5953  -17.5596   24.7556 O   0  0  0  0  0  0  0  0  0  0  0  0
    9.6713  -13.8763   27.5581 C   0  0  0  0  0  0  0  0  0  0  0  0
   10.3681  -14.0341   28.7513 C   0  0  0  0  0  0  0  0  0  0  0  0
   10.8139  -16.9800   24.8822 N   0  0  0  0  0  0  0  0  0  0  0  0
   11.1948  -18.3624   25.0289 C   0  0  1  0  0  0  0  0  0  0  0  0
   12.1896  -18.7041   23.9332 C   0  0  0  0  0  0  0  0  0  0  0  0
   12.6328  -20.1291   24.1239 C   0  0  0  0  0  0  0  0  0  0  0  0
   13.5978  -20.5695   23.0272 C   0  0  0  0  0  0  0  0  0  0  0  0
   13.9288  -22.0325   23.1649 C   0  0  0  0  0  0  0  0  0  0  0  0
   14.8674  -22.4007   22.1384 N   0  0  0  0  0  0  0  0  0  0  0  0
   11.7646  -18.6174   26.3720 C   0  0  0  0  0  0  0  0  0  0  0  0
   11.4710  -19.6356   27.0326 O   0  0  0  0  0  0  0  0  0  0  0  0
   12.6471  -17.7016   26.9103 O   0  0  0  0  0  0  0  0  0  0  0  0
  2  1  1  6
  2  3  1  0
  4  2  1  0
  5  4  1  0
  5  6  1  1
  7  5  1  0
  7  8  2  0
  9 10  1  0
 10 20  2  0
 11 10  1  0
 11 12  2  0
 12 13  1  0
 13 19  2  0
 13 14  1  0
 15 14  1  1
 15 16  1  0
 16  7  1  0
 17 15  1  0
 18 17  2  0
 20 19  1  0
 21 17  1  0
 22 23  1  6
 22 21  1  0
 23 24  1  0
 24 25  1  0
 25 26  1  0
 26 27  1  0
 28 30  1  0
 28 22  1  0
 29 28  2  0
M  END
$$$$
