LYK.pdb
     RDKit          3D

 30 30  0  0  1  0  0  0  0  0999 V2000
    8.0002  -12.8081   16.8307 C   0  0  0  0  0  0  0  0  0  0  0  0
    8.0787  -14.1324   17.5155 C   0  0  1  0  0  0  0  0  0  0  0  0
    8.3994  -15.1929   16.4799 C   0  0  0  0  0  0  0  0  0  0  0  0
    9.0598  -14.2033   18.6462 C   0  0  0  0  0  0  0  0  0  0  0  0
    8.8482  -15.4377   19.4832 C   0  0  2  0  0  0  0  0  0  0  0  0
    7.5793  -16.0703   19.2718 N   0  0  0  0  0  0  0  0  0  0  0  0
    9.0338  -15.0756   20.9038 C   0  0  0  0  0  0  0  0  0  0  0  0
   10.1776  -14.6872   21.2897 O   0  0  0  0  0  0  0  0  0  0  0  0
    7.6189  -12.4387   29.1024 O   0  0  0  0  0  0  0  0  0  0  0  0
    7.4437  -12.8098   27.7713 C   0  0  0  0  0  0  0  0  0  0  0  0
    7.9274  -12.0526   26.7257 C   0  0  0  0  0  0  0  0  0  0  0  0
    7.7373  -12.4484   25.4112 C   0  0  0  0  0  0  0  0  0  0  0  0
    7.0642  -13.6040   25.0781 C   0  0  0  0  0  0  0  0  0  0  0  0
    6.8596  -14.0376   23.6723 C   0  0  0  0  0  0  0  0  0  0  0  0
    8.0878  -14.7729   23.1503 C   0  0  2  0  0  0  0  0  0  0  0  0
    7.9211  -15.1770   21.7854 N   0  0  0  0  0  0  0  0  0  0  0  0
    8.3024  -16.0243   23.9651 C   0  0  0  0  0  0  0  0  0  0  0  0
    7.5694  -17.0350   23.8403 O   0  0  0  0  0  0  0  0  0  0  0  0
    6.5765  -14.3670   26.1281 C   0  0  0  0  0  0  0  0  0  0  0  0
    6.7683  -13.9681   27.4466 C   0  0  0  0  0  0  0  0  0  0  0  0
    9.3636  -16.0794   24.9089 N   0  0  0  0  0  0  0  0  0  0  0  0
    9.6836  -17.3260   25.5579 C   0  0  1  0  0  0  0  0  0  0  0  0
   10.6783  -18.0768   24.6895 C   0  0  0  0  0  0  0  0  0  0  0  0
   11.0574  -19.3495   25.3963 C   0  0  0  0  0  0  0  0  0  0  0  0
   12.0415  -20.1772   24.5750 C   0  0  0  0  0  0  0  0  0  0  0  0
   12.4115  -21.4425   25.3038 C   0  0  0  0  0  0  0  0  0  0  0  0
   13.4341  -22.1306   24.5616 N   0  0  0  0  0  0  0  0  0  0  0  0
   10.2233  -17.0946   26.9176 C   0  0  0  0  0  0  0  0  0  0  0  0
   10.7960  -16.0296   27.2293 O   0  0  0  0  0  0  0  0  0  0  0  0
   10.0896  -18.0862   27.8692 O   0  0  0  0  0  0  0  0  0  0  0  0
  2  1  1  6
  2  3  1  0
  4  2  1  0
  5  4  1  0
  5  6  1  1
  7  5  1  0
  7  8  2  0
  9 10  1  0
 10 20  2  0
 11 10  1  0
 11 12  2  0
 12 13  1  0
 13 19  2  0
 13 14  1  0
 15 14  1  1
 15 16  1  0
 16  7  1  0
 17 15  1  0
 18 17  2  0
 20 19  1  0
 21 17  1  0
 22 23  1  6
 22 21  1  0
 23 24  1  0
 24 25  1  0
 25 26  1  0
 26 27  1  0
 28 30  1  0
 28 22  1  0
 29 28  2  0
M  END
$$$$
