LYK.pdb
     RDKit          3D

 30 30  0  0  1  0  0  0  0  0999 V2000
    7.7936  -12.1100   19.2593 C   0  0  0  0  0  0  0  0  0  0  0  0
    7.8307  -13.5723   19.5584 C   0  0  1  0  0  0  0  0  0  0  0  0
    7.8326  -14.3333   18.2467 C   0  0  0  0  0  0  0  0  0  0  0  0
    8.9801  -14.0149   20.4124 C   0  0  0  0  0  0  0  0  0  0  0  0
    8.8130  -15.4419   20.8653 C   0  0  2  0  0  0  0  0  0  0  0  0
    7.5055  -15.9770   20.6232 N   0  0  0  0  0  0  0  0  0  0  0  0
    9.1650  -15.5206   22.2983 C   0  0  0  0  0  0  0  0  0  0  0  0
   10.2889  -15.0706   22.6759 O   0  0  0  0  0  0  0  0  0  0  0  0
    6.9535  -10.2019   26.7657 O   0  0  0  0  0  0  0  0  0  0  0  0
    7.0102  -11.5492   26.4166 C   0  0  0  0  0  0  0  0  0  0  0  0
    6.4402  -12.0349   25.2592 C   0  0  0  0  0  0  0  0  0  0  0  0
    6.5134  -13.3813   24.9390 C   0  0  0  0  0  0  0  0  0  0  0  0
    7.1508  -14.2985   25.7464 C   0  0  0  0  0  0  0  0  0  0  0  0
    7.2377  -15.7423   25.4087 C   0  0  0  0  0  0  0  0  0  0  0  0
    8.4998  -16.0338   24.6064 C   0  0  2  0  0  0  0  0  0  0  0  0
    8.2288  -16.0994   23.2007 N   0  0  0  0  0  0  0  0  0  0  0  0
    9.0532  -17.3753   25.0190 C   0  0  0  0  0  0  0  0  0  0  0  0
    8.4454  -18.4478   24.7849 O   0  0  0  0  0  0  0  0  0  0  0  0
    7.7247  -13.8123   26.9112 C   0  0  0  0  0  0  0  0  0  0  0  0
    7.6500  -12.4608   27.2309 C   0  0  0  0  0  0  0  0  0  0  0  0
   10.3013  -17.4470   25.6951 N   0  0  0  0  0  0  0  0  0  0  0  0
   10.8439  -18.7294   26.0674 C   0  0  1  0  0  0  0  0  0  0  0  0
   12.2307  -18.8570   25.4612 C   0  0  0  0  0  0  0  0  0  0  0  0
   12.0926  -18.8772   23.9633 C   0  0  0  0  0  0  0  0  0  0  0  0
   13.4408  -19.0737   23.2767 C   0  0  0  0  0  0  0  0  0  0  0  0
   13.2964  -18.9736   21.7807 C   0  0  0  0  0  0  0  0  0  0  0  0
   14.5899  -19.1356   21.1717 N   0  0  0  0  0  0  0  0  0  0  0  0
   10.8839  -18.8828   27.5400 C   0  0  0  0  0  0  0  0  0  0  0  0
   10.9596  -20.0031   28.0863 O   0  0  0  0  0  0  0  0  0  0  0  0
   10.8357  -17.7532   28.3328 O   0  0  0  0  0  0  0  0  0  0  0  0
  2  1  1  6
  2  3  1  0
  4  2  1  0
  5  4  1  0
  5  6  1  1
  7  5  1  0
  7  8  2  0
  9 10  1  0
 10 20  2  0
 11 10  1  0
 11 12  2  0
 12 13  1  0
 13 19  2  0
 13 14  1  0
 15 14  1  1
 15 16  1  0
 16  7  1  0
 17 15  1  0
 18 17  2  0
 20 19  1  0
 21 17  1  0
 22 23  1  1
 22 21  1  0
 23 24  1  0
 24 25  1  0
 25 26  1  0
 26 27  1  0
 28 30  1  0
 28 22  1  0
 29 28  2  0
M  END
$$$$
