LYK.pdb
     RDKit          3D

 30 30  0  0  1  0  0  0  0  0999 V2000
    7.3862  -18.0386   15.4938 C   0  0  0  0  0  0  0  0  0  0  0  0
    7.7698  -18.6958   16.7783 C   0  0  1  0  0  0  0  0  0  0  0  0
    8.3502  -20.0618   16.4670 C   0  0  0  0  0  0  0  0  0  0  0  0
    8.7228  -17.9131   17.6300 C   0  0  0  0  0  0  0  0  0  0  0  0
    8.9953  -18.6112   18.9368 C   0  0  2  0  0  0  0  0  0  0  0  0
    7.8182  -19.1164   19.5801 N   0  0  0  0  0  0  0  0  0  0  0  0
    9.7277  -17.6796   19.8195 C   0  0  0  0  0  0  0  0  0  0  0  0
   10.8080  -17.1643   19.4003 O   0  0  0  0  0  0  0  0  0  0  0  0
    6.6877  -11.8440   19.0832 O   0  0  0  0  0  0  0  0  0  0  0  0
    7.2815  -12.7422   19.9668 C   0  0  0  0  0  0  0  0  0  0  0  0
    8.6229  -12.6895   20.2803 C   0  0  0  0  0  0  0  0  0  0  0  0
    9.1848  -13.5974   21.1638 C   0  0  0  0  0  0  0  0  0  0  0  0
    8.4466  -14.5902   21.7710 C   0  0  0  0  0  0  0  0  0  0  0  0
    9.0399  -15.5646   22.7222 C   0  0  0  0  0  0  0  0  0  0  0  0
    9.9412  -16.5519   21.9912 C   0  0  2  0  0  0  0  0  0  0  0  0
    9.1926  -17.3961   21.1075 N   0  0  0  0  0  0  0  0  0  0  0  0
   10.6193  -17.4471   22.9986 C   0  0  0  0  0  0  0  0  0  0  0  0
    9.9723  -18.2211   23.7447 O   0  0  0  0  0  0  0  0  0  0  0  0
    7.0972  -14.6454   21.4571 C   0  0  0  0  0  0  0  0  0  0  0  0
    6.5352  -13.7334   20.5701 C   0  0  0  0  0  0  0  0  0  0  0  0
   12.0352  -17.4274   23.1209 N   0  0  0  0  0  0  0  0  0  0  0  0
   12.6969  -18.3929   23.9621 C   0  0  1  0  0  0  0  0  0  0  0  0
   13.8013  -19.0539   23.1557 C   0  0  0  0  0  0  0  0  0  0  0  0
   14.4588  -20.0960   24.0188 C   0  0  0  0  0  0  0  0  0  0  0  0
   15.6075  -20.7868   23.2900 C   0  0  0  0  0  0  0  0  0  0  0  0
   16.2431  -21.8327   24.1680 C   0  0  0  0  0  0  0  0  0  0  0  0
   17.3136  -22.4663   23.4449 N   0  0  0  0  0  0  0  0  0  0  0  0
   13.2329  -17.7533   25.1858 C   0  0  0  0  0  0  0  0  0  0  0  0
   13.2896  -18.3575   26.2771 O   0  0  0  0  0  0  0  0  0  0  0  0
   13.6833  -16.4497   25.1180 O   0  0  0  0  0  0  0  0  0  0  0  0
  2  1  1  6
  2  3  1  0
  4  2  1  0
  5  4  1  0
  5  6  1  1
  7  5  1  0
  7  8  2  0
  9 10  1  0
 10 20  2  0
 11 10  1  0
 11 12  2  0
 12 13  1  0
 13 19  2  0
 13 14  1  0
 15 14  1  1
 15 16  1  0
 16  7  1  0
 17 15  1  0
 18 17  2  0
 20 19  1  0
 21 17  1  0
 22 23  1  6
 22 21  1  0
 23 24  1  0
 24 25  1  0
 25 26  1  0
 26 27  1  0
 28 30  1  0
 28 22  1  0
 29 28  2  0
M  END
$$$$
