LYK.pdb
     RDKit          3D

 30 30  0  0  1  0  0  0  0  0999 V2000
    6.1523  -14.8319   19.1558 C   0  0  0  0  0  0  0  0  0  0  0  0
    7.4697  -14.2154   19.4929 C   0  0  1  0  0  0  0  0  0  0  0  0
    7.2940  -12.7109   19.5652 C   0  0  0  0  0  0  0  0  0  0  0  0
    8.1012  -14.7215   20.7543 C   0  0  0  0  0  0  0  0  0  0  0  0
    9.3189  -13.9151   21.1232 C   0  0  2  0  0  0  0  0  0  0  0  0
   10.3404  -13.9156   20.1176 N   0  0  0  0  0  0  0  0  0  0  0  0
    9.8386  -14.4178   22.4119 C   0  0  0  0  0  0  0  0  0  0  0  0
   10.8864  -15.1321   22.4101 O   0  0  0  0  0  0  0  0  0  0  0  0
   10.9087  -16.0241   30.9737 O   0  0  0  0  0  0  0  0  0  0  0  0
   10.3916  -15.5570   29.7676 C   0  0  0  0  0  0  0  0  0  0  0  0
    9.3801  -16.2111   29.0972 C   0  0  0  0  0  0  0  0  0  0  0  0
    8.8860  -15.7212   27.8987 C   0  0  0  0  0  0  0  0  0  0  0  0
    9.3696  -14.5693   27.3165 C   0  0  0  0  0  0  0  0  0  0  0  0
    8.8430  -14.0351   26.0345 C   0  0  0  0  0  0  0  0  0  0  0  0
    9.6487  -14.5682   24.8562 C   0  0  2  0  0  0  0  0  0  0  0  0
    9.1426  -14.0813   23.6069 N   0  0  0  0  0  0  0  0  0  0  0  0
    9.5479  -16.0731   24.8246 C   0  0  0  0  0  0  0  0  0  0  0  0
    8.4570  -16.6645   24.6389 O   0  0  0  0  0  0  0  0  0  0  0  0
   10.3872  -13.9098   27.9889 C   0  0  0  0  0  0  0  0  0  0  0  0
   10.8817  -14.4031   29.1916 C   0  0  0  0  0  0  0  0  0  0  0  0
   10.7149  -16.8632   25.0087 N   0  0  0  0  0  0  0  0  0  0  0  0
   10.6044  -18.2975   25.0984 C   0  0  1  0  0  0  0  0  0  0  0  0
   11.5592  -18.9155   24.0918 C   0  0  0  0  0  0  0  0  0  0  0  0
   11.0498  -18.6134   22.7089 C   0  0  0  0  0  0  0  0  0  0  0  0
   11.9362  -19.2361   21.6345 C   0  0  0  0  0  0  0  0  0  0  0  0
   11.3799  -18.9640   20.2613 C   0  0  0  0  0  0  0  0  0  0  0  0
   12.3333  -19.3955   19.2739 N   0  0  0  0  0  0  0  0  0  0  0  0
   10.8926  -18.7682   26.4729 C   0  0  0  0  0  0  0  0  0  0  0  0
   10.2579  -19.7072   26.9970 O   0  0  0  0  0  0  0  0  0  0  0  0
   11.8929  -18.1499   27.1968 O   0  0  0  0  0  0  0  0  0  0  0  0
  2  1  1  1
  2  3  1  0
  4  2  1  0
  5  4  1  0
  5  6  1  6
  7  5  1  0
  7  8  2  0
  9 10  1  0
 10 20  2  0
 11 10  1  0
 11 12  2  0
 12 13  1  0
 13 19  2  0
 13 14  1  0
 15 14  1  1
 15 16  1  0
 16  7  1  0
 17 15  1  0
 18 17  2  0
 20 19  1  0
 21 17  1  0
 22 23  1  6
 22 21  1  0
 23 24  1  0
 24 25  1  0
 25 26  1  0
 26 27  1  0
 28 30  1  0
 28 22  1  0
 29 28  2  0
M  END
$$$$
