LYK.pdb
     RDKit          3D

 30 30  0  0  1  0  0  0  0  0999 V2000
    6.3472  -13.6726   19.9456 C   0  0  0  0  0  0  0  0  0  0  0  0
    7.8393  -13.6739   19.8921 C   0  0  1  0  0  0  0  0  0  0  0  0
    8.3013  -12.3663   19.2787 C   0  0  0  0  0  0  0  0  0  0  0  0
    8.5198  -13.8940   21.2092 C   0  0  0  0  0  0  0  0  0  0  0  0
    8.6137  -15.3600   21.5430 C   0  0  2  0  0  0  0  0  0  0  0  0
    7.3904  -16.0795   21.3411 N   0  0  0  0  0  0  0  0  0  0  0  0
    9.0865  -15.4917   22.9368 C   0  0  0  0  0  0  0  0  0  0  0  0
   10.1919  -14.9599   23.2587 O   0  0  0  0  0  0  0  0  0  0  0  0
    6.5924  -10.3839   26.4611 O   0  0  0  0  0  0  0  0  0  0  0  0
    6.8144  -11.7570   26.3873 C   0  0  0  0  0  0  0  0  0  0  0  0
    5.9372  -12.6120   25.7548 C   0  0  0  0  0  0  0  0  0  0  0  0
    6.1858  -13.9742   25.6976 C   0  0  0  0  0  0  0  0  0  0  0  0
    7.3070  -14.5443   26.2608 C   0  0  0  0  0  0  0  0  0  0  0  0
    7.5832  -16.0025   26.2004 C   0  0  0  0  0  0  0  0  0  0  0  0
    8.7188  -16.2968   25.2280 C   0  0  2  0  0  0  0  0  0  0  0  0
    8.2829  -16.2110   23.8655 N   0  0  0  0  0  0  0  0  0  0  0  0
    9.2140  -17.7041   25.4523 C   0  0  0  0  0  0  0  0  0  0  0  0
    8.4552  -18.6996   25.3659 O   0  0  0  0  0  0  0  0  0  0  0  0
    8.1906  -13.6863   26.8977 C   0  0  0  0  0  0  0  0  0  0  0  0
    7.9393  -12.3196   26.9541 C   0  0  0  0  0  0  0  0  0  0  0  0
   10.5803  -17.9295   25.7722 N   0  0  0  0  0  0  0  0  0  0  0  0
   11.0450  -19.2684   26.0348 C   0  0  1  0  0  0  0  0  0  0  0  0
   12.3771  -19.4600   25.3306 C   0  0  0  0  0  0  0  0  0  0  0  0
   12.1454  -19.3698   23.8469 C   0  0  0  0  0  0  0  0  0  0  0  0
   13.4516  -19.4797   23.0660 C   0  0  0  0  0  0  0  0  0  0  0  0
   13.2208  -19.2125   21.6016 C   0  0  0  0  0  0  0  0  0  0  0  0
   14.4671  -19.3516   20.8963 N   0  0  0  0  0  0  0  0  0  0  0  0
   11.1655  -19.5137   27.4905 C   0  0  0  0  0  0  0  0  0  0  0  0
   11.4654  -20.6356   27.9495 O   0  0  0  0  0  0  0  0  0  0  0  0
   10.9393  -18.4705   28.3666 O   0  0  0  0  0  0  0  0  0  0  0  0
  2  1  1  1
  2  3  1  0
  4  2  1  0
  5  4  1  0
  5  6  1  1
  7  5  1  0
  7  8  2  0
  9 10  1  0
 10 20  2  0
 11 10  1  0
 11 12  2  0
 12 13  1  0
 13 19  2  0
 13 14  1  0
 15 14  1  1
 15 16  1  0
 16  7  1  0
 17 15  1  0
 18 17  2  0
 20 19  1  0
 21 17  1  0
 22 23  1  6
 22 21  1  0
 23 24  1  0
 24 25  1  0
 25 26  1  0
 26 27  1  0
 28 30  1  0
 28 22  1  0
 29 28  2  0
M  END
$$$$
