LYK.pdb
     RDKit          3D

 30 30  0  0  1  0  0  0  0  0999 V2000
    7.5705  -11.7412   19.5496 C   0  0  0  0  0  0  0  0  0  0  0  0
    7.4659  -13.2105   19.7929 C   0  0  1  0  0  0  0  0  0  0  0  0
    6.8678  -13.8622   18.5611 C   0  0  0  0  0  0  0  0  0  0  0  0
    8.7534  -13.8849   20.1587 C   0  0  0  0  0  0  0  0  0  0  0  0
    8.5108  -15.2325   20.7868 C   0  0  2  0  0  0  0  0  0  0  0  0
    7.1251  -15.5312   20.9999 N   0  0  0  0  0  0  0  0  0  0  0  0
    9.2722  -15.3016   22.0513 C   0  0  0  0  0  0  0  0  0  0  0  0
   10.5344  -15.1854   22.0104 O   0  0  0  0  0  0  0  0  0  0  0  0
   11.2739  -15.3326   30.6012 O   0  0  0  0  0  0  0  0  0  0  0  0
   10.5756  -15.2770   29.3973 C   0  0  0  0  0  0  0  0  0  0  0  0
    9.9852  -16.3891   28.8361 C   0  0  0  0  0  0  0  0  0  0  0  0
    9.2964  -16.3020   27.6366 C   0  0  0  0  0  0  0  0  0  0  0  0
    9.1636  -15.1167   26.9461 C   0  0  0  0  0  0  0  0  0  0  0  0
    8.4236  -15.0136   25.6623 C   0  0  0  0  0  0  0  0  0  0  0  0
    9.2901  -15.4844   24.5007 C   0  0  2  0  0  0  0  0  0  0  0  0
    8.5596  -15.4965   23.2678 N   0  0  0  0  0  0  0  0  0  0  0  0
    9.7496  -16.8972   24.7632 C   0  0  0  0  0  0  0  0  0  0  0  0
    8.9848  -17.8828   24.6287 O   0  0  0  0  0  0  0  0  0  0  0  0
    9.7568  -13.9967   27.5085 C   0  0  0  0  0  0  0  0  0  0  0  0
   10.4476  -14.0863   28.7122 C   0  0  0  0  0  0  0  0  0  0  0  0
   11.0877  -17.1396   25.1765 N   0  0  0  0  0  0  0  0  0  0  0  0
   11.6265  -18.4752   25.1184 C   0  0  1  0  0  0  0  0  0  0  0  0
   11.8721  -18.8299   23.6621 C   0  0  0  0  0  0  0  0  0  0  0  0
   12.5101  -20.1912   23.6075 C   0  0  0  0  0  0  0  0  0  0  0  0
   12.8479  -20.5970   22.1761 C   0  0  0  0  0  0  0  0  0  0  0  0
   13.3737  -22.0079   22.1324 C   0  0  0  0  0  0  0  0  0  0  0  0
   13.8161  -22.3036   20.7956 N   0  0  0  0  0  0  0  0  0  0  0  0
   12.8703  -18.5820   25.9156 C   0  0  0  0  0  0  0  0  0  0  0  0
   13.6626  -17.6245   26.0362 O   0  0  0  0  0  0  0  0  0  0  0  0
   13.1626  -19.7763   26.5441 O   0  0  0  0  0  0  0  0  0  0  0  0
  2  1  1  6
  2  3  1  0
  4  2  1  0
  5  4  1  0
  5  6  1  1
  7  5  1  0
  7  8  2  0
  9 10  1  0
 10 20  2  0
 11 10  1  0
 11 12  2  0
 12 13  1  0
 13 19  2  0
 13 14  1  0
 15 14  1  1
 15 16  1  0
 16  7  1  0
 17 15  1  0
 18 17  2  0
 20 19  1  0
 21 17  1  0
 22 23  1  6
 22 21  1  0
 23 24  1  0
 24 25  1  0
 25 26  1  0
 26 27  1  0
 28 30  1  0
 28 22  1  0
 29 28  2  0
M  END
$$$$
