SWM.pdb
     RDKit          3D

 29 30  0  0  1  0  0  0  0  0999 V2000
   16.8186  -10.9725  -17.1100 O   0  0  0  0  0  0  0  0  0  0  0  0
   17.8630  -11.3802  -17.9629 C   0  0  0  0  0  0  0  0  0  0  0  0
   19.0895  -11.5457  -17.0876 C   0  0  2  0  0  0  0  0  0  0  0  0
   18.9064  -12.5818  -16.1179 N   0  0  0  0  0  0  0  0  0  0  0  0
   19.4743  -10.3007  -16.4166 C   0  0  0  0  0  0  0  0  0  0  0  0
   18.7814   -9.8023  -15.4912 O   0  0  0  0  0  0  0  0  0  0  0  0
   20.6418   -9.6206  -16.7919 N   0  0  0  0  0  0  0  0  0  0  0  0
   21.0911   -8.3554  -16.2229 C   0  0  1  0  0  0  0  0  0  0  0  0
   22.3773   -8.4920  -15.5112 C   0  0  0  0  0  0  0  0  0  0  0  0
   22.6064   -9.7356  -14.7467 C   0  0  0  0  0  0  0  0  0  0  0  0
   22.4908   -9.8827  -13.3572 C   0  0  0  0  0  0  0  0  0  0  0  0
   22.8008  -11.1274  -13.0025 N   0  0  0  0  0  0  0  0  0  0  0  0
   23.1188  -11.8188  -14.1058 C   0  0  0  0  0  0  0  0  0  0  0  0
   23.4956  -13.1507  -14.2809 C   0  0  0  0  0  0  0  0  0  0  0  0
   23.7585  -13.6464  -15.5468 C   0  0  0  0  0  0  0  0  0  0  0  0
   23.6391  -12.7891  -16.6377 C   0  0  0  0  0  0  0  0  0  0  0  0
   23.2680  -11.4751  -16.4630 C   0  0  0  0  0  0  0  0  0  0  0  0
   23.0087  -10.9913  -15.1938 C   0  0  0  0  0  0  0  0  0  0  0  0
   21.0097   -7.3303  -17.2626 C   0  0  0  0  0  0  0  0  0  0  0  0
   21.5531   -7.5302  -18.3734 O   0  0  0  0  0  0  0  0  0  0  0  0
   16.7957   -2.9861  -21.8922 C   0  0  0  0  0  0  0  0  0  0  0  0
   17.0584   -4.0930  -20.5463 S   0  0  0  0  0  0  0  0  0  0  0  0
   18.6624   -4.1303  -19.7800 C   0  0  0  0  0  0  0  0  0  0  0  0
   18.8777   -5.2103  -18.7686 C   0  0  0  0  0  0  0  0  0  0  0  0
   20.2104   -5.1303  -18.1247 C   0  0  2  0  0  0  0  0  0  0  0  0
   20.3317   -6.1177  -17.0433 N   0  0  0  0  0  0  0  0  0  0  0  0
   20.5662   -3.8311  -17.5488 C   0  0  0  0  0  0  0  0  0  0  0  0
   20.5454   -3.6772  -16.3020 O   0  0  0  0  0  0  0  0  0  0  0  0
   20.9266   -2.7543  -18.3040 O   0  0  0  0  0  0  0  0  0  0  0  0
  2  3  1  0
  2  1  1  0
  3  5  1  0
  3  4  1  1
  5  6  2  0
  7  8  1  0
  7  5  1  0
  8 19  1  0
  8  9  1  6
 10  9  1  0
 10 18  1  0
 11 12  1  0
 11 10  2  0
 12 13  1  0
 13 18  2  0
 13 14  1  0
 14 15  2  0
 15 16  1  0
 17 16  2  0
 18 17  1  0
 19 20  2  0
 22 23  1  0
 22 21  1  0
 23 24  1  0
 25 24  1  1
 25 27  1  0
 26 25  1  0
 26 19  1  0
 27 28  2  0
 27 29  1  0
M  END
$$$$
