SWM.pdb
     RDKit          3D

 29 30  0  0  1  0  0  0  0  0999 V2000
   25.1750  -20.9639  -15.3931 O   0  0  0  0  0  0  0  0  0  0  0  0
   25.7705  -20.0675  -14.4841 C   0  0  0  0  0  0  0  0  0  0  0  0
   26.7805  -20.8721  -13.6901 C   0  0  2  0  0  0  0  0  0  0  0  0
   27.2316  -22.0162  -14.4215 N   0  0  0  0  0  0  0  0  0  0  0  0
   26.2649  -21.2904  -12.3834 C   0  0  0  0  0  0  0  0  0  0  0  0
   26.0223  -22.4971  -12.1193 O   0  0  0  0  0  0  0  0  0  0  0  0
   26.0242  -20.3444  -11.3766 N   0  0  0  0  0  0  0  0  0  0  0  0
   25.4954  -20.6498  -10.0524 C   0  0  1  0  0  0  0  0  0  0  0  0
   26.0741  -19.7802   -9.0091 C   0  0  0  0  0  0  0  0  0  0  0  0
   27.3388  -20.2155   -8.3810 C   0  0  0  0  0  0  0  0  0  0  0  0
   28.2672  -21.1109   -8.9306 C   0  0  0  0  0  0  0  0  0  0  0  0
   29.2737  -21.3034   -8.0815 N   0  0  0  0  0  0  0  0  0  0  0  0
   29.0521  -20.5677   -6.9833 C   0  0  0  0  0  0  0  0  0  0  0  0
   29.8026  -20.4030   -5.8187 C   0  0  0  0  0  0  0  0  0  0  0  0
   29.3654  -19.5556   -4.8146 C   0  0  0  0  0  0  0  0  0  0  0  0
   28.1642  -18.8738   -4.9921 C   0  0  0  0  0  0  0  0  0  0  0  0
   27.4247  -19.0381   -6.1414 C   0  0  0  0  0  0  0  0  0  0  0  0
   27.8712  -19.8876   -7.1370 C   0  0  0  0  0  0  0  0  0  0  0  0
   24.0369  -20.7040  -10.1422 C   0  0  0  0  0  0  0  0  0  0  0  0
   23.4609  -20.2397  -11.1530 O   0  0  0  0  0  0  0  0  0  0  0  0
   17.3578  -24.1763   -7.5692 C   0  0  0  0  0  0  0  0  0  0  0  0
   19.0596  -23.7761   -7.3472 S   0  0  0  0  0  0  0  0  0  0  0  0
   19.7758  -22.5165   -8.3777 C   0  0  0  0  0  0  0  0  0  0  0  0
   21.2503  -22.3147   -8.2327 C   0  0  0  0  0  0  0  0  0  0  0  0
   21.8112  -21.4359   -9.2863 C   0  0  2  0  0  0  0  0  0  0  0  0
   23.2608  -21.2683   -9.1139 N   0  0  0  0  0  0  0  0  0  0  0  0
   21.2397  -20.0895   -9.3683 C   0  0  0  0  0  0  0  0  0  0  0  0
   21.7400  -19.1594   -8.6876 O   0  0  0  0  0  0  0  0  0  0  0  0
   20.1718  -19.7796  -10.1578 O   0  0  0  0  0  0  0  0  0  0  0  0
  2  3  1  0
  2  1  1  0
  3  5  1  0
  3  4  1  6
  5  6  2  0
  7  8  1  0
  7  5  1  0
  8 19  1  0
  8  9  1  1
 10  9  1  0
 10 18  1  0
 11 12  1  0
 11 10  2  0
 12 13  1  0
 13 18  2  0
 13 14  1  0
 14 15  2  0
 15 16  1  0
 17 16  2  0
 18 17  1  0
 19 20  2  0
 22 23  1  0
 22 21  1  0
 23 24  1  0
 25 24  1  1
 25 27  1  0
 26 25  1  0
 26 19  1  0
 27 28  2  0
 27 29  1  0
M  END
$$$$
