SWM.pdb
     RDKit          3D

 29 30  0  0  1  0  0  0  0  0999 V2000
   26.9873  -19.9646  -17.2426 O   0  0  0  0  0  0  0  0  0  0  0  0
   28.2572  -19.6643  -16.7120 C   0  0  0  0  0  0  0  0  0  0  0  0
   28.3886  -20.4709  -15.4353 C   0  0  2  0  0  0  0  0  0  0  0  0
   28.1383  -21.8609  -15.6647 N   0  0  0  0  0  0  0  0  0  0  0  0
   27.5144  -19.9793  -14.3665 C   0  0  0  0  0  0  0  0  0  0  0  0
   27.5287  -18.7762  -13.9960 O   0  0  0  0  0  0  0  0  0  0  0  0
   26.6248  -20.8477  -13.7178 N   0  0  0  0  0  0  0  0  0  0  0  0
   25.6577  -20.4476  -12.7024 C   0  0  1  0  0  0  0  0  0  0  0  0
   24.2661  -20.6671  -13.1436 C   0  0  0  0  0  0  0  0  0  0  0  0
   23.6475  -19.6295  -13.9945 C   0  0  0  0  0  0  0  0  0  0  0  0
   24.2723  -18.4634  -14.4590 C   0  0  0  0  0  0  0  0  0  0  0  0
   23.4133  -17.7378  -15.1709 N   0  0  0  0  0  0  0  0  0  0  0  0
   22.2359  -18.3775  -15.2000 C   0  0  0  0  0  0  0  0  0  0  0  0
   21.0274  -18.0538  -15.8175 C   0  0  0  0  0  0  0  0  0  0  0  0
   19.9375  -18.9020  -15.7174 C   0  0  0  0  0  0  0  0  0  0  0  0
   20.0736  -20.0812  -14.9892 C   0  0  0  0  0  0  0  0  0  0  0  0
   21.2665  -20.3985  -14.3800 C   0  0  0  0  0  0  0  0  0  0  0  0
   22.3479  -19.5432  -14.4864 C   0  0  0  0  0  0  0  0  0  0  0  0
   26.0558  -21.0458  -11.4287 C   0  0  0  0  0  0  0  0  0  0  0  0
   26.1496  -22.2911  -11.3318 O   0  0  0  0  0  0  0  0  0  0  0  0
   28.3649  -17.9173   -5.6908 C   0  0  0  0  0  0  0  0  0  0  0  0
   28.2741  -19.6672   -5.5027 S   0  0  0  0  0  0  0  0  0  0  0  0
   27.3110  -20.5967   -6.6730 C   0  0  0  0  0  0  0  0  0  0  0  0
   27.2193  -20.0183   -8.0488 C   0  0  0  0  0  0  0  0  0  0  0  0
   26.4145  -20.8582   -8.9674 C   0  0  2  0  0  0  0  0  0  0  0  0
   26.3375  -20.2508  -10.3032 N   0  0  0  0  0  0  0  0  0  0  0  0
   25.0366  -21.1264   -8.5481 C   0  0  0  0  0  0  0  0  0  0  0  0
   24.8083  -22.0280   -7.7035 O   0  0  0  0  0  0  0  0  0  0  0  0
   23.9628  -20.4393   -9.0324 O   0  0  0  0  0  0  0  0  0  0  0  0
  2  3  1  0
  2  1  1  0
  3  5  1  0
  3  4  1  6
  5  6  2  0
  7  8  1  0
  7  5  1  0
  8 19  1  0
  8  9  1  6
 10  9  1  0
 10 18  1  0
 11 12  1  0
 11 10  2  0
 12 13  1  0
 13 18  2  0
 13 14  1  0
 14 15  2  0
 15 16  1  0
 17 16  2  0
 18 17  1  0
 19 20  2  0
 22 23  1  0
 22 21  1  0
 23 24  1  0
 25 24  1  1
 25 27  1  0
 26 25  1  0
 26 19  1  0
 27 28  2  0
 27 29  1  0
M  END
$$$$
