SWM.pdb
     RDKit          3D

 29 30  0  0  1  0  0  0  0  0999 V2000
   27.8602  -18.2310  -15.3419 O   0  0  0  0  0  0  0  0  0  0  0  0
   27.2905  -19.5152  -15.4455 C   0  0  0  0  0  0  0  0  0  0  0  0
   27.9730  -20.3712  -14.3971 C   0  0  2  0  0  0  0  0  0  0  0  0
   28.8017  -21.3726  -14.9953 N   0  0  0  0  0  0  0  0  0  0  0  0
   27.0208  -21.0001  -13.4771 C   0  0  0  0  0  0  0  0  0  0  0  0
   26.5242  -22.1339  -13.7064 O   0  0  0  0  0  0  0  0  0  0  0  0
   26.6314  -20.3469  -12.2989 N   0  0  0  0  0  0  0  0  0  0  0  0
   25.6258  -20.8388  -11.3643 C   0  0  1  0  0  0  0  0  0  0  0  0
   25.8713  -20.3691   -9.9863 C   0  0  0  0  0  0  0  0  0  0  0  0
   27.1636  -20.7238   -9.3637 C   0  0  0  0  0  0  0  0  0  0  0  0
   28.1761  -21.4975   -9.9486 C   0  0  0  0  0  0  0  0  0  0  0  0
   29.1867  -21.6472   -9.0956 N   0  0  0  0  0  0  0  0  0  0  0  0
   28.8866  -21.0002   -7.9608 C   0  0  0  0  0  0  0  0  0  0  0  0
   29.6060  -20.8365   -6.7767 C   0  0  0  0  0  0  0  0  0  0  0  0
   29.0821  -20.0927   -5.7329 C   0  0  0  0  0  0  0  0  0  0  0  0
   27.8255  -19.5135   -5.8905 C   0  0  0  0  0  0  0  0  0  0  0  0
   27.1168  -19.6766   -7.0593 C   0  0  0  0  0  0  0  0  0  0  0  0
   27.6501  -20.4224   -8.0945 C   0  0  0  0  0  0  0  0  0  0  0  0
   24.3042  -20.5769  -11.9327 C   0  0  0  0  0  0  0  0  0  0  0  0
   23.9858  -19.4069  -12.2467 O   0  0  0  0  0  0  0  0  0  0  0  0
   20.4485  -25.3117  -14.9350 C   0  0  0  0  0  0  0  0  0  0  0  0
   19.7544  -23.7193  -15.2320 S   0  0  0  0  0  0  0  0  0  0  0  0
   20.3633  -22.3399  -14.2897 C   0  0  0  0  0  0  0  0  0  0  0  0
   21.6688  -22.5515  -13.5919 C   0  0  0  0  0  0  0  0  0  0  0  0
   22.1155  -21.3525  -12.8437 C   0  0  2  0  0  0  0  0  0  0  0  0
   23.3765  -21.6142  -12.1362 N   0  0  0  0  0  0  0  0  0  0  0  0
   21.1755  -20.8324  -11.8476 C   0  0  0  0  0  0  0  0  0  0  0  0
   21.2346  -21.2448  -10.6623 O   0  0  0  0  0  0  0  0  0  0  0  0
   20.2179  -19.9059  -12.1384 O   0  0  0  0  0  0  0  0  0  0  0  0
  2  3  1  0
  2  1  1  0
  3  5  1  0
  3  4  1  6
  5  6  2  0
  7  8  1  0
  7  5  1  0
  8 19  1  0
  8  9  1  1
 10  9  1  0
 10 18  1  0
 11 12  1  0
 11 10  2  0
 12 13  1  0
 13 18  2  0
 13 14  1  0
 14 15  2  0
 15 16  1  0
 17 16  2  0
 18 17  1  0
 19 20  2  0
 22 23  1  0
 22 21  1  0
 23 24  1  0
 25 24  1  1
 25 27  1  0
 26 25  1  0
 26 19  1  0
 27 28  2  0
 27 29  1  0
M  END
$$$$
