SWM.pdb
     RDKit          3D

 29 30  0  0  1  0  0  0  0  0999 V2000
   26.8578  -20.7509  -18.6606 O   0  0  0  0  0  0  0  0  0  0  0  0
   28.2418  -20.5580  -18.4827 C   0  0  0  0  0  0  0  0  0  0  0  0
   28.7397  -21.7464  -17.6840 C   0  0  2  0  0  0  0  0  0  0  0  0
   28.8372  -22.9206  -18.4959 N   0  0  0  0  0  0  0  0  0  0  0  0
   27.9081  -22.0232  -16.5093 C   0  0  0  0  0  0  0  0  0  0  0  0
   27.1333  -23.0142  -16.4614 O   0  0  0  0  0  0  0  0  0  0  0  0
   27.9533  -21.1799  -15.3898 N   0  0  0  0  0  0  0  0  0  0  0  0
   27.2244  -21.4021  -14.1465 C   0  0  1  0  0  0  0  0  0  0  0  0
   27.9186  -20.8152  -12.9832 C   0  0  0  0  0  0  0  0  0  0  0  0
   27.2342  -20.8798  -11.6751 C   0  0  0  0  0  0  0  0  0  0  0  0
   26.8869  -22.0486  -10.9829 C   0  0  0  0  0  0  0  0  0  0  0  0
   26.2529  -21.7394   -9.8544 N   0  0  0  0  0  0  0  0  0  0  0  0
   26.1645  -20.4049   -9.7664 C   0  0  0  0  0  0  0  0  0  0  0  0
   25.6146  -19.5816   -8.7835 C   0  0  0  0  0  0  0  0  0  0  0  0
   25.6647  -18.2038   -8.9117 C   0  0  0  0  0  0  0  0  0  0  0  0
   26.2740  -17.6598  -10.0396 C   0  0  0  0  0  0  0  0  0  0  0  0
   26.8153  -18.4737  -11.0088 C   0  0  0  0  0  0  0  0  0  0  0  0
   26.7586  -19.8484  -10.8700 C   0  0  0  0  0  0  0  0  0  0  0  0
   25.8302  -21.0143  -14.3566 C   0  0  0  0  0  0  0  0  0  0  0  0
   25.5679  -19.9487  -14.9605 O   0  0  0  0  0  0  0  0  0  0  0  0
   19.5823  -23.5407  -15.3404 C   0  0  0  0  0  0  0  0  0  0  0  0
   20.7016  -24.3235  -14.2268 S   0  0  0  0  0  0  0  0  0  0  0  0
   22.3356  -23.6449  -14.0505 C   0  0  0  0  0  0  0  0  0  0  0  0
   22.6290  -22.4285  -14.8691 C   0  0  0  0  0  0  0  0  0  0  0  0
   23.3778  -21.3985  -14.1106 C   0  0  2  0  0  0  0  0  0  0  0  0
   24.7703  -21.8145  -13.8935 N   0  0  0  0  0  0  0  0  0  0  0  0
   22.8339  -21.0500  -12.7957 C   0  0  0  0  0  0  0  0  0  0  0  0
   23.1719  -21.7176  -11.7865 O   0  0  0  0  0  0  0  0  0  0  0  0
   21.9620  -20.0201  -12.5986 O   0  0  0  0  0  0  0  0  0  0  0  0
  2  3  1  0
  2  1  1  0
  3  5  1  0
  3  4  1  6
  5  6  2  0
  7  8  1  0
  7  5  1  0
  8 19  1  0
  8  9  1  1
 10  9  1  0
 10 18  1  0
 11 12  1  0
 11 10  2  0
 12 13  1  0
 13 18  2  0
 13 14  1  0
 14 15  2  0
 15 16  1  0
 17 16  2  0
 18 17  1  0
 19 20  2  0
 22 23  1  0
 22 21  1  0
 23 24  1  0
 25 24  1  1
 25 27  1  0
 26 25  1  0
 26 19  1  0
 27 28  2  0
 27 29  1  0
M  END
$$$$
