SWM.pdb
     RDKit          3D

 29 30  0  0  1  0  0  0  0  0999 V2000
   25.6881  -22.9431  -17.2508 O   0  0  0  0  0  0  0  0  0  0  0  0
   26.3540  -22.1497  -18.2055 C   0  0  0  0  0  0  0  0  0  0  0  0
   27.7975  -22.0567  -17.7520 C   0  0  2  0  0  0  0  0  0  0  0  0
   28.5442  -23.2149  -18.1371 N   0  0  0  0  0  0  0  0  0  0  0  0
   27.9208  -21.8449  -16.3069 C   0  0  0  0  0  0  0  0  0  0  0  0
   28.2977  -22.7610  -15.5301 O   0  0  0  0  0  0  0  0  0  0  0  0
   27.6185  -20.5978  -15.7415 N   0  0  0  0  0  0  0  0  0  0  0  0
   27.8810  -20.2224  -14.3570 C   0  0  1  0  0  0  0  0  0  0  0  0
   28.3422  -18.8250  -14.2383 C   0  0  0  0  0  0  0  0  0  0  0  0
   27.5525  -17.7840  -14.9282 C   0  0  0  0  0  0  0  0  0  0  0  0
   26.4697  -17.0763  -14.3874 C   0  0  0  0  0  0  0  0  0  0  0  0
   25.9717  -16.2400  -15.2950 N   0  0  0  0  0  0  0  0  0  0  0  0
   26.6836  -16.3624  -16.4240 C   0  0  0  0  0  0  0  0  0  0  0  0
   26.5821  -15.7077  -17.6519 C   0  0  0  0  0  0  0  0  0  0  0  0
   27.4640  -15.9990  -18.6789 C   0  0  0  0  0  0  0  0  0  0  0  0
   28.4512  -16.9565  -18.4600 C   0  0  0  0  0  0  0  0  0  0  0  0
   28.5493  -17.6020  -17.2482 C   0  0  0  0  0  0  0  0  0  0  0  0
   27.6624  -17.3032  -16.2302 C   0  0  0  0  0  0  0  0  0  0  0  0
   26.7274  -20.6151  -13.5487 C   0  0  0  0  0  0  0  0  0  0  0  0
   25.7287  -21.1291  -14.1032 O   0  0  0  0  0  0  0  0  0  0  0  0
   23.4639  -21.2500   -6.2685 C   0  0  0  0  0  0  0  0  0  0  0  0
   24.7712  -20.7316   -7.3307 S   0  0  0  0  0  0  0  0  0  0  0  0
   24.6088  -21.0196   -9.0777 C   0  0  0  0  0  0  0  0  0  0  0  0
   25.7738  -20.6055   -9.9186 C   0  0  0  0  0  0  0  0  0  0  0  0
   25.5432  -20.8361  -11.3645 C   0  0  2  0  0  0  0  0  0  0  0  0
   26.7127  -20.4278  -12.1548 N   0  0  0  0  0  0  0  0  0  0  0  0
   24.3847  -20.1525  -11.9451 C   0  0  0  0  0  0  0  0  0  0  0  0
   23.3761  -20.8195  -12.2863 O   0  0  0  0  0  0  0  0  0  0  0  0
   24.3361  -18.8039  -12.1416 O   0  0  0  0  0  0  0  0  0  0  0  0
  2  3  1  0
  2  1  1  0
  3  5  1  0
  3  4  1  1
  5  6  2  0
  7  8  1  0
  7  5  1  0
  8 19  1  0
  8  9  1  6
 10  9  1  0
 10 18  1  0
 11 12  1  0
 11 10  2  0
 12 13  1  0
 13 18  2  0
 13 14  1  0
 14 15  2  0
 15 16  1  0
 17 16  2  0
 18 17  1  0
 19 20  2  0
 22 23  1  0
 22 21  1  0
 23 24  1  0
 25 24  1  1
 25 27  1  0
 26 25  1  0
 26 19  1  0
 27 28  2  0
 27 29  1  0
M  END
$$$$
