SWM.pdb
     RDKit          3D

 29 30  0  0  1  0  0  0  0  0999 V2000
   27.2208    3.6884  -15.8027 O   0  0  0  0  0  0  0  0  0  0  0  0
   26.6583    4.6681  -14.9612 C   0  0  0  0  0  0  0  0  0  0  0  0
   25.1986    4.2970  -14.7895 C   0  0  2  0  0  0  0  0  0  0  0  0
   24.3528    5.0944  -15.6237 N   0  0  0  0  0  0  0  0  0  0  0  0
   24.7538    4.3927  -13.3962 C   0  0  0  0  0  0  0  0  0  0  0  0
   24.3551    5.4780  -12.8983 O   0  0  0  0  0  0  0  0  0  0  0  0
   24.7597    3.2616  -12.5673 N   0  0  0  0  0  0  0  0  0  0  0  0
   24.3995    3.2595  -11.1542 C   0  0  1  0  0  0  0  0  0  0  0  0
   23.7580    1.9939  -10.7464 C   0  0  0  0  0  0  0  0  0  0  0  0
   23.4016    1.8369   -9.3210 C   0  0  0  0  0  0  0  0  0  0  0  0
   22.1670    2.1584   -8.7394 C   0  0  0  0  0  0  0  0  0  0  0  0
   22.2039    1.9223   -7.4301 N   0  0  0  0  0  0  0  0  0  0  0  0
   23.4193    1.4533   -7.1152 C   0  0  0  0  0  0  0  0  0  0  0  0
   23.9603    1.0429   -5.8964 C   0  0  0  0  0  0  0  0  0  0  0  0
   25.2593    0.5686   -5.8280 C   0  0  0  0  0  0  0  0  0  0  0  0
   26.0116    0.5105   -6.9985 C   0  0  0  0  0  0  0  0  0  0  0  0
   25.4765    0.9166   -8.1999 C   0  0  0  0  0  0  0  0  0  0  0  0
   24.1781    1.3891   -8.2557 C   0  0  0  0  0  0  0  0  0  0  0  0
   25.5631    3.6962  -10.3836 C   0  0  0  0  0  0  0  0  0  0  0  0
   26.7015    3.2700  -10.6858 O   0  0  0  0  0  0  0  0  0  0  0  0
   30.2753    9.2168   -8.3053 C   0  0  0  0  0  0  0  0  0  0  0  0
   28.8582    8.5054   -9.0743 S   0  0  0  0  0  0  0  0  0  0  0  0
   28.3043    6.9094   -8.5199 C   0  0  0  0  0  0  0  0  0  0  0  0
   27.0833    6.3715   -9.1948 C   0  0  0  0  0  0  0  0  0  0  0  0
   26.6267    5.0890   -8.6086 C   0  0  2  0  0  0  0  0  0  0  0  0
   25.4331    4.5885   -9.3043 N   0  0  0  0  0  0  0  0  0  0  0  0
   26.2991    5.1182   -7.1809 C   0  0  0  0  0  0  0  0  0  0  0  0
   25.0982    5.1967   -6.8203 O   0  0  0  0  0  0  0  0  0  0  0  0
   27.2430    5.0644   -6.1981 O   0  0  0  0  0  0  0  0  0  0  0  0
  2  3  1  0
  2  1  1  0
  3  5  1  0
  3  4  1  6
  5  6  2  0
  7  8  1  0
  7  5  1  0
  8 19  1  0
  8  9  1  1
 10  9  1  0
 10 18  1  0
 11 12  1  0
 11 10  2  0
 12 13  1  0
 13 18  2  0
 13 14  1  0
 14 15  2  0
 15 16  1  0
 17 16  2  0
 18 17  1  0
 19 20  2  0
 22 23  1  0
 22 21  1  0
 23 24  1  0
 25 24  1  6
 25 27  1  0
 26 25  1  0
 26 19  1  0
 27 28  2  0
 27 29  1  0
M  END
$$$$
