SWM.pdb
     RDKit          3D

 29 30  0  0  1  0  0  0  0  0999 V2000
   27.9536  -16.2291  -14.6236 O   0  0  0  0  0  0  0  0  0  0  0  0
   26.9810  -17.2480  -14.6025 C   0  0  0  0  0  0  0  0  0  0  0  0
   27.7344  -18.5549  -14.4531 C   0  0  2  0  0  0  0  0  0  0  0  0
   28.6136  -18.7832  -15.5587 N   0  0  0  0  0  0  0  0  0  0  0  0
   26.8402  -19.7039  -14.2849 C   0  0  0  0  0  0  0  0  0  0  0  0
   26.5949  -20.4997  -15.2290 O   0  0  0  0  0  0  0  0  0  0  0  0
   26.2244  -19.9525  -13.0498 N   0  0  0  0  0  0  0  0  0  0  0  0
   25.3538  -21.0867  -12.7636 C   0  0  1  0  0  0  0  0  0  0  0  0
   25.8857  -21.9355  -11.6790 C   0  0  0  0  0  0  0  0  0  0  0  0
   26.4045  -21.2575  -10.4729 C   0  0  0  0  0  0  0  0  0  0  0  0
   25.6466  -20.5250   -9.5483 C   0  0  0  0  0  0  0  0  0  0  0  0
   26.4389  -20.0238   -8.6036 N   0  0  0  0  0  0  0  0  0  0  0  0
   27.7002  -20.3958   -8.8630 C   0  0  0  0  0  0  0  0  0  0  0  0
   28.8913  -20.1508   -8.1791 C   0  0  0  0  0  0  0  0  0  0  0  0
   30.0881  -20.6699   -8.6434 C   0  0  0  0  0  0  0  0  0  0  0  0
   30.0767  -21.4394   -9.8040 C   0  0  0  0  0  0  0  0  0  0  0  0
   28.9007  -21.6795  -10.4779 C   0  0  0  0  0  0  0  0  0  0  0  0
   27.7117  -21.1551  -10.0049 C   0  0  0  0  0  0  0  0  0  0  0  0
   23.9871  -20.5892  -12.6119 C   0  0  0  0  0  0  0  0  0  0  0  0
   23.7945  -19.4313  -12.1747 O   0  0  0  0  0  0  0  0  0  0  0  0
   19.5766  -17.8539  -11.5535 C   0  0  0  0  0  0  0  0  0  0  0  0
   19.8749  -17.6160  -13.2740 S   0  0  0  0  0  0  0  0  0  0  0  0
   20.2362  -19.0393  -14.2765 C   0  0  0  0  0  0  0  0  0  0  0  0
   21.5805  -19.6600  -14.0684 C   0  0  0  0  0  0  0  0  0  0  0  0
   21.5473  -20.7777  -13.0955 C   0  0  2  0  0  0  0  0  0  0  0  0
   22.8771  -21.3851  -12.9473 N   0  0  0  0  0  0  0  0  0  0  0  0
   20.6197  -21.8686  -13.4050 C   0  0  0  0  0  0  0  0  0  0  0  0
   21.0313  -22.8745  -14.0353 O   0  0  0  0  0  0  0  0  0  0  0  0
   19.3055  -21.8557  -13.0410 O   0  0  0  0  0  0  0  0  0  0  0  0
  2  3  1  0
  2  1  1  0
  3  5  1  0
  3  4  1  6
  5  6  2  0
  7  8  1  0
  7  5  1  0
  8 19  1  0
  8  9  1  1
 10  9  1  0
 10 18  1  0
 11 12  1  0
 11 10  2  0
 12 13  1  0
 13 18  2  0
 13 14  1  0
 14 15  2  0
 15 16  1  0
 17 16  2  0
 18 17  1  0
 19 20  2  0
 22 23  1  0
 22 21  1  0
 23 24  1  0
 25 24  1  6
 25 27  1  0
 26 25  1  0
 26 19  1  0
 27 28  2  0
 27 29  1  0
M  END
$$$$
