SWM.pdb
     RDKit          3D

 29 30  0  0  1  0  0  0  0  0999 V2000
   29.6161  -20.9434  -16.2192 O   0  0  0  0  0  0  0  0  0  0  0  0
   29.0514  -21.2621  -14.9687 C   0  0  0  0  0  0  0  0  0  0  0  0
   27.5550  -21.3631  -15.1887 C   0  0  2  0  0  0  0  0  0  0  0  0
   27.1694  -20.7934  -16.4434 N   0  0  0  0  0  0  0  0  0  0  0  0
   26.7840  -20.7459  -14.1058 C   0  0  0  0  0  0  0  0  0  0  0  0
   26.5197  -19.5151  -14.0952 O   0  0  0  0  0  0  0  0  0  0  0  0
   26.3122  -21.5204  -13.0362 N   0  0  0  0  0  0  0  0  0  0  0  0
   25.3642  -21.0623  -12.0273 C   0  0  1  0  0  0  0  0  0  0  0  0
   24.0672  -21.7605  -12.1263 C   0  0  0  0  0  0  0  0  0  0  0  0
   23.2808  -21.5692  -13.3626 C   0  0  0  0  0  0  0  0  0  0  0  0
   23.2200  -22.4560  -14.4469 C   0  0  0  0  0  0  0  0  0  0  0  0
   22.4440  -21.9538  -15.4044 N   0  0  0  0  0  0  0  0  0  0  0  0
   21.9826  -20.7626  -14.9988 C   0  0  0  0  0  0  0  0  0  0  0  0
   21.1290  -19.8475  -15.6156 C   0  0  0  0  0  0  0  0  0  0  0  0
   20.7761  -18.6723  -14.9739 C   0  0  0  0  0  0  0  0  0  0  0  0
   21.2902  -18.4248  -13.7036 C   0  0  0  0  0  0  0  0  0  0  0  0
   22.1329  -19.3285  -13.0968 C   0  0  0  0  0  0  0  0  0  0  0  0
   22.4787  -20.4984  -13.7479 C   0  0  0  0  0  0  0  0  0  0  0  0
   26.0335  -21.0796  -10.7273 C   0  0  0  0  0  0  0  0  0  0  0  0
   26.5379  -22.1453  -10.3045 O   0  0  0  0  0  0  0  0  0  0  0  0
   29.1335  -19.6892   -4.3598 C   0  0  0  0  0  0  0  0  0  0  0  0
   28.6759  -19.6534   -6.0612 S   0  0  0  0  0  0  0  0  0  0  0  0
   27.2315  -18.7291   -6.5313 C   0  0  0  0  0  0  0  0  0  0  0  0
   26.9265  -18.6943   -7.9948 C   0  0  0  0  0  0  0  0  0  0  0  0
   26.5165  -20.0172   -8.5227 C   0  0  2  0  0  0  0  0  0  0  0  0
   26.1247  -19.9207   -9.9357 N   0  0  0  0  0  0  0  0  0  0  0  0
   25.4071  -20.6700   -7.8232 C   0  0  0  0  0  0  0  0  0  0  0  0
   24.2259  -20.4520   -8.1915 O   0  0  0  0  0  0  0  0  0  0  0  0
   25.5856  -21.5195   -6.7713 O   0  0  0  0  0  0  0  0  0  0  0  0
  2  3  1  0
  2  1  1  0
  3  5  1  0
  3  4  1  6
  5  6  2  0
  7  8  1  0
  7  5  1  0
  8 19  1  0
  8  9  1  1
 10  9  1  0
 10 18  1  0
 11 12  1  0
 11 10  2  0
 12 13  1  0
 13 18  2  0
 13 14  1  0
 14 15  2  0
 15 16  1  0
 17 16  2  0
 18 17  1  0
 19 20  2  0
 22 23  1  0
 22 21  1  0
 23 24  1  0
 25 24  1  1
 25 27  1  0
 26 25  1  0
 26 19  1  0
 27 28  2  0
 27 29  1  0
M  END
$$$$
