SWM.pdb
     RDKit          3D

 29 30  0  0  1  0  0  0  0  0999 V2000
   25.9681  -19.5022  -16.3052 O   0  0  0  0  0  0  0  0  0  0  0  0
   26.7165  -20.6314  -16.6913 C   0  0  0  0  0  0  0  0  0  0  0  0
   27.5725  -21.0053  -15.4974 C   0  0  2  0  0  0  0  0  0  0  0  0
   28.4685  -22.0765  -15.8090 N   0  0  0  0  0  0  0  0  0  0  0  0
   26.7734  -21.3538  -14.3191 C   0  0  0  0  0  0  0  0  0  0  0  0
   26.3522  -22.5239  -14.1235 O   0  0  0  0  0  0  0  0  0  0  0  0
   26.4516  -20.3797  -13.3631 N   0  0  0  0  0  0  0  0  0  0  0  0
   25.6934  -20.6259  -12.1421 C   0  0  1  0  0  0  0  0  0  0  0  0
   26.1830  -19.8132  -11.0109 C   0  0  0  0  0  0  0  0  0  0  0  0
   27.2840  -20.3684  -10.1968 C   0  0  0  0  0  0  0  0  0  0  0  0
   28.2935  -21.2285  -10.6519 C   0  0  0  0  0  0  0  0  0  0  0  0
   29.0997  -21.5588   -9.6458 N   0  0  0  0  0  0  0  0  0  0  0  0
   28.6659  -20.9493   -8.5337 C   0  0  0  0  0  0  0  0  0  0  0  0
   29.1613  -20.9522   -7.2294 C   0  0  0  0  0  0  0  0  0  0  0  0
   28.5377  -20.2125   -6.2389 C   0  0  0  0  0  0  0  0  0  0  0  0
   27.4088  -19.4681   -6.5720 C   0  0  0  0  0  0  0  0  0  0  0  0
   26.9210  -19.4670   -7.8592 C   0  0  0  0  0  0  0  0  0  0  0  0
   27.5520  -20.2103   -8.8398 C   0  0  0  0  0  0  0  0  0  0  0  0
   24.2690  -20.5362  -12.4606 C   0  0  0  0  0  0  0  0  0  0  0  0
   23.8509  -19.5908  -13.1679 O   0  0  0  0  0  0  0  0  0  0  0  0
   19.6174  -25.6258  -13.5123 C   0  0  0  0  0  0  0  0  0  0  0  0
   18.9886  -24.2777  -12.5672 S   0  0  0  0  0  0  0  0  0  0  0  0
   19.8434  -22.7203  -12.6393 C   0  0  0  0  0  0  0  0  0  0  0  0
   21.2984  -22.7578  -12.2968 C   0  0  0  0  0  0  0  0  0  0  0  0
   21.9393  -21.4244  -12.3871 C   0  0  2  0  0  0  0  0  0  0  0  0
   23.3520  -21.4922  -11.9884 N   0  0  0  0  0  0  0  0  0  0  0  0
   21.3267  -20.3638  -11.5832 C   0  0  0  0  0  0  0  0  0  0  0  0
   21.8008  -20.0883  -10.4527 O   0  0  0  0  0  0  0  0  0  0  0  0
   20.2472  -19.6419  -11.9994 O   0  0  0  0  0  0  0  0  0  0  0  0
  2  3  1  0
  2  1  1  0
  3  5  1  0
  3  4  1  6
  5  6  2  0
  7  8  1  0
  7  5  1  0
  8 19  1  0
  8  9  1  1
 10  9  1  0
 10 18  1  0
 11 12  1  0
 11 10  2  0
 12 13  1  0
 13 18  2  0
 13 14  1  0
 14 15  2  0
 15 16  1  0
 17 16  2  0
 18 17  1  0
 19 20  2  0
 22 23  1  0
 22 21  1  0
 23 24  1  0
 25 24  1  1
 25 27  1  0
 26 25  1  0
 26 19  1  0
 27 28  2  0
 27 29  1  0
M  END
$$$$
