SWM.pdb
     RDKit          3D

 29 30  0  0  1  0  0  0  0  0999 V2000
   25.3996  -20.5969  -17.4174 O   0  0  0  0  0  0  0  0  0  0  0  0
   26.2916  -21.6584  -17.6659 C   0  0  0  0  0  0  0  0  0  0  0  0
   27.2408  -21.7044  -16.4849 C   0  0  2  0  0  0  0  0  0  0  0  0
   28.2830  -22.6639  -16.6862 N   0  0  0  0  0  0  0  0  0  0  0  0
   26.5526  -21.9776  -15.2200 C   0  0  0  0  0  0  0  0  0  0  0  0
   26.4663  -23.1412  -14.7475 O   0  0  0  0  0  0  0  0  0  0  0  0
   25.9628  -20.9353  -14.4904 N   0  0  0  0  0  0  0  0  0  0  0  0
   25.2207  -21.1022  -13.2462 C   0  0  1  0  0  0  0  0  0  0  0  0
   25.6881  -20.1796  -12.1927 C   0  0  0  0  0  0  0  0  0  0  0  0
   26.8660  -20.5886  -11.3997 C   0  0  0  0  0  0  0  0  0  0  0  0
   28.0970  -21.0200  -11.9138 C   0  0  0  0  0  0  0  0  0  0  0  0
   28.9201  -21.3410  -10.9185 N   0  0  0  0  0  0  0  0  0  0  0  0
   28.2837  -21.1387   -9.7564 C   0  0  0  0  0  0  0  0  0  0  0  0
   28.7033  -21.3042   -8.4361 C   0  0  0  0  0  0  0  0  0  0  0  0
   27.8532  -21.0033   -7.3854 C   0  0  0  0  0  0  0  0  0  0  0  0
   26.5745  -20.5336   -7.6744 C   0  0  0  0  0  0  0  0  0  0  0  0
   26.1619  -20.3718   -8.9776 C   0  0  0  0  0  0  0  0  0  0  0  0
   27.0197  -20.6762  -10.0187 C   0  0  0  0  0  0  0  0  0  0  0  0
   23.7923  -21.0889  -13.5588 C   0  0  0  0  0  0  0  0  0  0  0  0
   23.3276  -20.1878  -14.2945 O   0  0  0  0  0  0  0  0  0  0  0  0
   16.8844  -25.0351  -13.8100 C   0  0  0  0  0  0  0  0  0  0  0  0
   18.5271  -24.8612  -13.1960 S   0  0  0  0  0  0  0  0  0  0  0  0
   19.4200  -23.3707  -13.5735 C   0  0  0  0  0  0  0  0  0  0  0  0
   20.8586  -23.3506  -13.1663 C   0  0  0  0  0  0  0  0  0  0  0  0
   21.4877  -22.0230  -13.3630 C   0  0  2  0  0  0  0  0  0  0  0  0
   22.9226  -22.0699  -13.0495 N   0  0  0  0  0  0  0  0  0  0  0  0
   20.9220  -20.9237  -12.5770 C   0  0  0  0  0  0  0  0  0  0  0  0
   21.3465  -20.7083  -11.4142 O   0  0  0  0  0  0  0  0  0  0  0  0
   19.9389  -20.1020  -13.0441 O   0  0  0  0  0  0  0  0  0  0  0  0
  2  3  1  0
  2  1  1  0
  3  5  1  0
  3  4  1  6
  5  6  2  0
  7  8  1  0
  7  5  1  0
  8 19  1  0
  8  9  1  1
 10  9  1  0
 10 18  1  0
 11 12  1  0
 11 10  2  0
 12 13  1  0
 13 18  2  0
 13 14  1  0
 14 15  2  0
 15 16  1  0
 17 16  2  0
 18 17  1  0
 19 20  2  0
 22 23  1  0
 22 21  1  0
 23 24  1  0
 25 24  1  1
 25 27  1  0
 26 25  1  0
 26 19  1  0
 27 28  2  0
 27 29  1  0
M  END
$$$$
