SWM.pdb
     RDKit          3D

 29 30  0  0  1  0  0  0  0  0999 V2000
   26.6698  -18.9287  -15.2551 O   0  0  0  0  0  0  0  0  0  0  0  0
   27.8425  -18.7770  -14.4895 C   0  0  0  0  0  0  0  0  0  0  0  0
   28.2131  -20.1617  -13.9965 C   0  0  2  0  0  0  0  0  0  0  0  0
   28.5884  -21.0207  -15.0775 N   0  0  0  0  0  0  0  0  0  0  0  0
   27.1417  -20.7864  -13.2154 C   0  0  0  0  0  0  0  0  0  0  0  0
   26.5381  -21.8152  -13.6181 O   0  0  0  0  0  0  0  0  0  0  0  0
   26.7539  -20.2481  -11.9800 N   0  0  0  0  0  0  0  0  0  0  0  0
   25.7383  -20.8177  -11.1022 C   0  0  1  0  0  0  0  0  0  0  0  0
   25.9417  -20.4297   -9.6924 C   0  0  0  0  0  0  0  0  0  0  0  0
   27.2213  -20.8077   -9.0575 C   0  0  0  0  0  0  0  0  0  0  0  0
   28.1530  -21.7256   -9.5626 C   0  0  0  0  0  0  0  0  0  0  0  0
   29.1747  -21.8502   -8.7188 N   0  0  0  0  0  0  0  0  0  0  0  0
   28.9600  -21.0473   -7.6672 C   0  0  0  0  0  0  0  0  0  0  0  0
   29.7256  -20.7981   -6.5279 C   0  0  0  0  0  0  0  0  0  0  0  0
   29.2924  -19.8926   -5.5741 C   0  0  0  0  0  0  0  0  0  0  0  0
   28.0798  -19.2384   -5.7763 C   0  0  0  0  0  0  0  0  0  0  0  0
   27.3253  -19.4861   -6.9007 C   0  0  0  0  0  0  0  0  0  0  0  0
   27.7680  -20.3932   -7.8460 C   0  0  0  0  0  0  0  0  0  0  0  0
   24.4246  -20.5483  -11.6854 C   0  0  0  0  0  0  0  0  0  0  0  0
   24.1600  -19.4008  -12.1123 O   0  0  0  0  0  0  0  0  0  0  0  0
   21.1926  -24.7849  -15.6144 C   0  0  0  0  0  0  0  0  0  0  0  0
   19.9946  -23.5983  -15.1019 S   0  0  0  0  0  0  0  0  0  0  0  0
   20.5210  -22.2586  -14.0582 C   0  0  0  0  0  0  0  0  0  0  0  0
   21.7978  -22.4761  -13.3109 C   0  0  0  0  0  0  0  0  0  0  0  0
   22.1894  -21.3001  -12.4981 C   0  0  2  0  0  0  0  0  0  0  0  0
   23.4453  -21.5534  -11.7785 N   0  0  0  0  0  0  0  0  0  0  0  0
   21.2139  -20.8596  -11.4978 C   0  0  0  0  0  0  0  0  0  0  0  0
   20.2463  -20.1390  -11.8485 O   0  0  0  0  0  0  0  0  0  0  0  0
   21.2967  -21.1933  -10.1781 O   0  0  0  0  0  0  0  0  0  0  0  0
  2  3  1  0
  2  1  1  0
  3  5  1  0
  3  4  1  6
  5  6  2  0
  7  8  1  0
  7  5  1  0
  8 19  1  0
  8  9  1  1
 10  9  1  0
 10 18  1  0
 11 12  1  0
 11 10  2  0
 12 13  1  0
 13 18  2  0
 13 14  1  0
 14 15  2  0
 15 16  1  0
 17 16  2  0
 18 17  1  0
 19 20  2  0
 22 23  1  0
 22 21  1  0
 23 24  1  0
 25 24  1  1
 25 27  1  0
 26 25  1  0
 26 19  1  0
 27 28  2  0
 27 29  1  0
M  END
$$$$
