GNC.pdb
     RDKit          3D

 19 18  0  0  1  0  0  0  0  0999 V2000
   20.8921  -11.8401  -19.1068 N   0  0  0  0  0  0  0  0  0  0  0  0
   21.5425  -11.5360  -17.8594 C   0  0  0  0  0  0  0  0  0  0  0  0
   20.6980  -10.5722  -17.0766 C   0  0  0  0  0  0  0  0  0  0  0  0
   19.6291  -10.1068  -17.5408 O   0  0  0  0  0  0  0  0  0  0  0  0
   18.1099   -8.3880  -12.6908 N   0  0  0  0  0  0  0  0  0  0  0  0
   19.5321   -8.5407  -12.7633 C   0  0  0  0  0  0  0  0  0  0  0  0
   20.1999   -7.7657  -12.0439 O   0  0  0  0  0  0  0  0  0  0  0  0
   20.1508   -9.5490  -13.6330 C   0  0  0  0  0  0  0  0  0  0  0  0
   20.3725   -9.1170  -15.0528 C   0  0  2  0  0  0  0  0  0  0  0  0
   21.0993  -10.1719  -15.7932 N   0  0  0  0  0  0  0  0  0  0  0  0
   21.3265   -7.9496  -15.0391 C   0  0  0  0  0  0  0  0  0  0  0  0
   22.5787   -8.0906  -15.0570 O   0  0  0  0  0  0  0  0  0  0  0  0
   20.8615   -6.6056  -15.0045 N   0  0  0  0  0  0  0  0  0  0  0  0
   21.7850   -5.5009  -15.0491 C   0  0  1  0  0  0  0  0  0  0  0  0
   22.2760   -5.2462  -16.4743 C   0  0  0  0  0  0  0  0  0  0  0  0
   23.4148   -3.8347  -16.4411 S   0  0  0  0  0  0  0  0  0  0  0  0
   21.2068   -4.2591  -14.4820 C   0  0  0  0  0  0  0  0  0  0  0  0
   21.9860   -3.2997  -13.8498 O   0  0  0  0  0  0  0  0  0  0  0  0
   19.9727   -4.0341  -14.5582 O   0  0  0  0  0  0  0  0  0  0  0  0
  1  2  1  0
  2  3  1  0
  3  4  2  0
  5  6  1  0
  6  7  2  0
  8  6  1  0
  9  8  1  1
 10  3  1  0
 10  9  1  0
 11  9  1  0
 11 13  1  0
 12 11  2  0
 14 13  1  0
 14 15  1  6
 16 15  1  0
 17 14  1  0
 18 17  1  0
 19 17  2  0
M  END
$$$$
