GNC.pdb
     RDKit          3D

 19 18  0  0  1  0  0  0  0  0999 V2000
   16.1388  -12.6543  -17.6267 N   0  0  0  0  0  0  0  0  0  0  0  0
   16.3339  -12.2465  -16.2604 C   0  0  0  0  0  0  0  0  0  0  0  0
   17.7445  -11.7648  -16.0783 C   0  0  0  0  0  0  0  0  0  0  0  0
   18.4742  -12.2001  -15.1550 O   0  0  0  0  0  0  0  0  0  0  0  0
   21.7763  -11.8851  -17.8444 N   0  0  0  0  0  0  0  0  0  0  0  0
   21.2895  -10.7854  -18.6220 C   0  0  0  0  0  0  0  0  0  0  0  0
   21.8325  -10.6250  -19.7372 O   0  0  0  0  0  0  0  0  0  0  0  0
   20.2192   -9.9111  -18.1261 C   0  0  0  0  0  0  0  0  0  0  0  0
   19.6530  -10.2914  -16.7896 C   0  0  2  0  0  0  0  0  0  0  0  0
   18.2750  -10.8049  -16.9533 N   0  0  0  0  0  0  0  0  0  0  0  0
   19.4848   -9.0301  -15.9808 C   0  0  0  0  0  0  0  0  0  0  0  0
   18.5851   -8.1806  -16.2197 O   0  0  0  0  0  0  0  0  0  0  0  0
   20.3431   -8.7233  -14.8886 N   0  0  0  0  0  0  0  0  0  0  0  0
   20.1465   -7.5312  -14.1042 C   0  0  1  0  0  0  0  0  0  0  0  0
   20.4554   -7.7818  -12.6281 C   0  0  0  0  0  0  0  0  0  0  0  0
   19.3260   -9.0640  -12.0192 S   0  0  0  0  0  0  0  0  0  0  0  0
   20.9486   -6.3888  -14.6036 C   0  0  0  0  0  0  0  0  0  0  0  0
   20.8008   -5.1030  -14.1012 O   0  0  0  0  0  0  0  0  0  0  0  0
   21.8011   -6.5531  -15.5122 O   0  0  0  0  0  0  0  0  0  0  0  0
  1  2  1  0
  2  3  1  0
  3  4  2  0
  5  6  1  0
  6  7  2  0
  8  6  1  0
  9  8  1  6
 10  3  1  0
 10  9  1  0
 11  9  1  0
 11 13  1  0
 12 11  2  0
 14 13  1  0
 14 15  1  1
 16 15  1  0
 17 14  1  0
 18 17  1  0
 19 17  2  0
M  END
$$$$
