GNC.pdb
     RDKit          3D

 19 18  0  0  1  0  0  0  0  0999 V2000
   20.7135  -11.8590  -17.9823 N   0  0  0  0  0  0  0  0  0  0  0  0
   21.4532  -10.6285  -17.8823 C   0  0  0  0  0  0  0  0  0  0  0  0
   20.6488   -9.6221  -17.1109 C   0  0  0  0  0  0  0  0  0  0  0  0
   19.5579   -9.1796  -17.5454 O   0  0  0  0  0  0  0  0  0  0  0  0
   17.8297   -8.8964  -14.2102 N   0  0  0  0  0  0  0  0  0  0  0  0
   18.9290   -8.9100  -13.2924 C   0  0  0  0  0  0  0  0  0  0  0  0
   18.6725   -9.3294  -12.1424 O   0  0  0  0  0  0  0  0  0  0  0  0
   20.2670   -8.4568  -13.6930 C   0  0  0  0  0  0  0  0  0  0  0  0
   20.4067   -8.0817  -15.1392 C   0  0  2  0  0  0  0  0  0  0  0  0
   21.1138   -9.1549  -15.8724 N   0  0  0  0  0  0  0  0  0  0  0  0
   21.3381   -6.8991  -15.2241 C   0  0  0  0  0  0  0  0  0  0  0  0
   22.5667   -6.9766  -14.9541 O   0  0  0  0  0  0  0  0  0  0  0  0
   20.8772   -5.6124  -15.6185 N   0  0  0  0  0  0  0  0  0  0  0  0
   21.7801   -4.4923  -15.6909 C   0  0  1  0  0  0  0  0  0  0  0  0
   22.0438   -4.0859  -17.1410 C   0  0  0  0  0  0  0  0  0  0  0  0
   23.1502   -2.6485  -17.1378 S   0  0  0  0  0  0  0  0  0  0  0  0
   21.2939   -3.3249  -14.9173 C   0  0  0  0  0  0  0  0  0  0  0  0
   22.1479   -2.5166  -14.1792 O   0  0  0  0  0  0  0  0  0  0  0  0
   20.0731   -3.0270  -14.9064 O   0  0  0  0  0  0  0  0  0  0  0  0
  1  2  1  0
  2  3  1  0
  3  4  2  0
  5  6  1  0
  6  7  2  0
  8  6  1  0
  9  8  1  1
 10  3  1  0
 10  9  1  0
 11  9  1  0
 11 13  1  0
 12 11  2  0
 14 13  1  0
 14 15  1  6
 16 15  1  0
 17 14  1  0
 18 17  1  0
 19 17  2  0
M  END
$$$$
