GNC.pdb
     RDKit          3D

 19 18  0  0  1  0  0  0  0  0999 V2000
   28.1027  -18.0150  -16.9336 N   0  0  0  0  0  0  0  0  0  0  0  0
   28.0831  -17.7857  -15.5129 C   0  0  0  0  0  0  0  0  0  0  0  0
   27.4713  -18.9708  -14.8230 C   0  0  0  0  0  0  0  0  0  0  0  0
   27.6927  -20.1438  -15.2099 O   0  0  0  0  0  0  0  0  0  0  0  0
   25.4128  -22.1320  -11.2881 N   0  0  0  0  0  0  0  0  0  0  0  0
   25.9090  -20.9256  -10.6971 C   0  0  0  0  0  0  0  0  0  0  0  0
   26.0498  -20.9463   -9.4545 O   0  0  0  0  0  0  0  0  0  0  0  0
   26.2277  -19.7475  -11.5135 C   0  0  0  0  0  0  0  0  0  0  0  0
   26.0387  -19.9258  -12.9913 C   0  0  2  0  0  0  0  0  0  0  0  0
   26.6293  -18.7797  -13.7171 N   0  0  0  0  0  0  0  0  0  0  0  0
   24.5631  -19.8301  -13.2855 C   0  0  0  0  0  0  0  0  0  0  0  0
   23.9110  -18.7583  -13.1661 O   0  0  0  0  0  0  0  0  0  0  0  0
   23.8135  -20.9585  -13.7198 N   0  0  0  0  0  0  0  0  0  0  0  0
   22.4033  -20.8502  -13.9933 C   0  0  1  0  0  0  0  0  0  0  0  0
   22.0738  -21.3355  -15.4051 C   0  0  0  0  0  0  0  0  0  0  0  0
   21.7225  -19.8866  -16.4383 S   0  0  0  0  0  0  0  0  0  0  0  0
   21.5785  -21.5797  -13.0007 C   0  0  0  0  0  0  0  0  0  0  0  0
   20.3740  -21.0786  -12.5257 O   0  0  0  0  0  0  0  0  0  0  0  0
   21.9515  -22.6928  -12.5520 O   0  0  0  0  0  0  0  0  0  0  0  0
  1  2  1  0
  2  3  1  0
  3  4  2  0
  5  6  1  0
  6  7  2  0
  8  6  1  0
  9  8  1  1
 10  3  1  0
 10  9  1  0
 11  9  1  0
 11 13  1  0
 12 11  2  0
 14 13  1  0
 14 15  1  6
 16 15  1  0
 17 14  1  0
 18 17  1  0
 19 17  2  0
M  END
$$$$
