GNC.pdb
     RDKit          3D

 19 18  0  0  1  0  0  0  0  0999 V2000
   18.1706  -13.6314  -18.5252 N   0  0  0  0  0  0  0  0  0  0  0  0
   18.0977  -12.1994  -18.4010 C   0  0  0  0  0  0  0  0  0  0  0  0
   19.3084  -11.6984  -17.6674 C   0  0  0  0  0  0  0  0  0  0  0  0
   19.6497  -12.1757  -16.5582 O   0  0  0  0  0  0  0  0  0  0  0  0
   23.0163  -10.0687  -20.7422 N   0  0  0  0  0  0  0  0  0  0  0  0
   22.9860  -10.2368  -19.3203 C   0  0  0  0  0  0  0  0  0  0  0  0
   23.7139  -11.1458  -18.8642 O   0  0  0  0  0  0  0  0  0  0  0  0
   22.1474   -9.3863  -18.4662 C   0  0  0  0  0  0  0  0  0  0  0  0
   21.2612  -10.1237  -17.5058 C   0  0  2  0  0  0  0  0  0  0  0  0
   20.0879  -10.6719  -18.2215 N   0  0  0  0  0  0  0  0  0  0  0  0
   20.6744   -9.1169  -16.5491 C   0  0  0  0  0  0  0  0  0  0  0  0
   19.7148   -8.3604  -16.8574 O   0  0  0  0  0  0  0  0  0  0  0  0
   21.1772   -8.9615  -15.2274 N   0  0  0  0  0  0  0  0  0  0  0  0
   20.5486   -8.0591  -14.2971 C   0  0  1  0  0  0  0  0  0  0  0  0
   20.6028   -8.6070  -12.8709 C   0  0  0  0  0  0  0  0  0  0  0  0
   19.7755   -7.4229  -11.7736 S   0  0  0  0  0  0  0  0  0  0  0  0
   21.1404   -6.7006  -14.3416 C   0  0  0  0  0  0  0  0  0  0  0  0
   22.5068   -6.4907  -14.4701 O   0  0  0  0  0  0  0  0  0  0  0  0
   20.4102   -5.6807  -14.2630 O   0  0  0  0  0  0  0  0  0  0  0  0
  1  2  1  0
  2  3  1  0
  3  4  2  0
  5  6  1  0
  6  7  2  0
  8  6  1  0
  9  8  1  6
 10  3  1  0
 10  9  1  0
 11  9  1  0
 11 13  1  0
 12 11  2  0
 14 13  1  0
 14 15  1  1
 16 15  1  0
 17 14  1  0
 18 17  1  0
 19 17  2  0
M  END
$$$$
