GNC.pdb
     RDKit          3D

 19 18  0  0  1  0  0  0  0  0999 V2000
   14.5983  -10.9550  -14.9489 N   0  0  0  0  0  0  0  0  0  0  0  0
   14.4479  -11.5271  -13.6368 C   0  0  0  0  0  0  0  0  0  0  0  0
   15.4237  -10.8825  -12.6949 C   0  0  0  0  0  0  0  0  0  0  0  0
   15.5080  -11.2339  -11.4932 O   0  0  0  0  0  0  0  0  0  0  0  0
   19.2913   -7.8157  -10.8279 N   0  0  0  0  0  0  0  0  0  0  0  0
   19.3302   -7.8275  -12.2594 C   0  0  0  0  0  0  0  0  0  0  0  0
   20.3100   -7.2519  -12.7819 O   0  0  0  0  0  0  0  0  0  0  0  0
   18.2775   -8.4792  -13.0488 C   0  0  0  0  0  0  0  0  0  0  0  0
   17.2256   -9.1879  -12.2471 C   0  0  2  0  0  0  0  0  0  0  0  0
   16.2691   -9.8610  -13.1533 N   0  0  0  0  0  0  0  0  0  0  0  0
   16.3967   -8.1437  -11.5429 C   0  0  0  0  0  0  0  0  0  0  0  0
   15.6465   -7.3388  -12.1572 O   0  0  0  0  0  0  0  0  0  0  0  0
   16.4149   -8.0058  -10.1271 N   0  0  0  0  0  0  0  0  0  0  0  0
   15.6776   -6.9536   -9.4758 C   0  0  1  0  0  0  0  0  0  0  0  0
   14.7495   -7.5127   -8.3973 C   0  0  0  0  0  0  0  0  0  0  0  0
   13.8623   -6.1267   -7.6344 S   0  0  0  0  0  0  0  0  0  0  0  0
   16.5660   -5.9189   -8.8942 C   0  0  0  0  0  0  0  0  0  0  0  0
   16.2774   -4.5633   -8.9747 O   0  0  0  0  0  0  0  0  0  0  0  0
   17.6249   -6.2439   -8.3006 O   0  0  0  0  0  0  0  0  0  0  0  0
  1  2  1  0
  2  3  1  0
  3  4  2  0
  5  6  1  0
  6  7  2  0
  8  6  1  0
  9  8  1  6
 10  3  1  0
 10  9  1  0
 11  9  1  0
 11 13  1  0
 12 11  2  0
 14 13  1  0
 14 15  1  1
 16 15  1  0
 17 14  1  0
 18 17  1  0
 19 17  2  0
M  END
$$$$
