GNC.pdb
     RDKit          3D

 19 18  0  0  1  0  0  0  0  0999 V2000
   17.1844   -8.3217  -16.7801 N   0  0  0  0  0  0  0  0  0  0  0  0
   16.6132   -7.1245  -16.2217 C   0  0  0  0  0  0  0  0  0  0  0  0
   17.6225   -6.4553  -15.3338 C   0  0  0  0  0  0  0  0  0  0  0  0
   17.3364   -6.0980  -14.1654 O   0  0  0  0  0  0  0  0  0  0  0  0
   21.9989   -5.2389  -13.0364 N   0  0  0  0  0  0  0  0  0  0  0  0
   22.3291   -5.7633  -14.3276 C   0  0  0  0  0  0  0  0  0  0  0  0
   23.5329   -6.0520  -14.5060 O   0  0  0  0  0  0  0  0  0  0  0  0
   21.3061   -5.9445  -15.3651 C   0  0  0  0  0  0  0  0  0  0  0  0
   19.9234   -5.5064  -14.9807 C   0  0  2  0  0  0  0  0  0  0  0  0
   18.9216   -6.2162  -15.8065 N   0  0  0  0  0  0  0  0  0  0  0  0
   19.7690   -4.0590  -15.3737 C   0  0  0  0  0  0  0  0  0  0  0  0
   19.7160   -3.6792  -16.5742 O   0  0  0  0  0  0  0  0  0  0  0  0
   19.6733   -3.0268  -14.3995 N   0  0  0  0  0  0  0  0  0  0  0  0
   19.4722   -1.6551  -14.7910 C   0  0  1  0  0  0  0  0  0  0  0  0
   18.3801   -0.9934  -13.9503 C   0  0  0  0  0  0  0  0  0  0  0  0
   16.8583   -1.9647  -14.1262 S   0  0  0  0  0  0  0  0  0  0  0  0
   20.7207   -0.8590  -14.7185 C   0  0  0  0  0  0  0  0  0  0  0  0
   21.9163   -1.3947  -14.2592 O   0  0  0  0  0  0  0  0  0  0  0  0
   20.7342    0.3455  -15.0771 O   0  0  0  0  0  0  0  0  0  0  0  0
  1  2  1  0
  2  3  1  0
  3  4  2  0
  5  6  1  0
  6  7  2  0
  8  6  1  0
  9  8  1  6
 10  3  1  0
 10  9  1  0
 11  9  1  0
 11 13  1  0
 12 11  2  0
 14 13  1  0
 14 15  1  1
 16 15  1  0
 17 14  1  0
 18 17  1  0
 19 17  2  0
M  END
$$$$
