GNC.pdb
     RDKit          3D

 19 18  0  0  1  0  0  0  0  0999 V2000
   15.2907  -11.1258  -11.2619 N   0  0  0  0  0  0  0  0  0  0  0  0
   15.8813  -10.3743  -10.1859 C   0  0  0  0  0  0  0  0  0  0  0  0
   15.9285   -8.9202  -10.5580 C   0  0  0  0  0  0  0  0  0  0  0  0
   15.6666   -8.5301  -11.7215 O   0  0  0  0  0  0  0  0  0  0  0  0
   13.5635   -6.0801   -9.3979 N   0  0  0  0  0  0  0  0  0  0  0  0
   14.5320   -5.5640   -8.4779 C   0  0  0  0  0  0  0  0  0  0  0  0
   14.0705   -4.9974   -7.4629 O   0  0  0  0  0  0  0  0  0  0  0  0
   15.9728   -5.7003   -8.7259 C   0  0  0  0  0  0  0  0  0  0  0  0
   16.3381   -6.5215   -9.9274 C   0  0  2  0  0  0  0  0  0  0  0  0
   16.2722   -7.9614   -9.5932 N   0  0  0  0  0  0  0  0  0  0  0  0
   17.7948   -6.2779  -10.2307 C   0  0  0  0  0  0  0  0  0  0  0  0
   18.6708   -6.1694   -9.3313 O   0  0  0  0  0  0  0  0  0  0  0  0
   18.2691   -6.1549  -11.5663 N   0  0  0  0  0  0  0  0  0  0  0  0
   19.6570   -5.8803  -11.8371 C   0  0  1  0  0  0  0  0  0  0  0  0
   20.2727   -6.9611  -12.7260 C   0  0  0  0  0  0  0  0  0  0  0  0
   20.3849   -8.4947  -11.7638 S   0  0  0  0  0  0  0  0  0  0  0  0
   19.8590   -4.5449  -12.4484 C   0  0  0  0  0  0  0  0  0  0  0  0
   21.1113   -3.9525  -12.5392 O   0  0  0  0  0  0  0  0  0  0  0  0
   18.8856   -3.8981  -12.9106 O   0  0  0  0  0  0  0  0  0  0  0  0
  1  2  1  0
  2  3  1  0
  3  4  2  0
  5  6  1  0
  6  7  2  0
  8  6  1  0
  9  8  1  1
 10  3  1  0
 10  9  1  0
 11  9  1  0
 11 13  1  0
 12 11  2  0
 14 13  1  0
 14 15  1  6
 16 15  1  0
 17 14  1  0
 18 17  1  0
 19 17  2  0
M  END
$$$$
