GNC.pdb
     RDKit          3D

 19 18  0  0  1  0  0  0  0  0999 V2000
   15.9686  -11.5784  -14.9121 N   0  0  0  0  0  0  0  0  0  0  0  0
   16.7563  -10.4208  -15.2450 C   0  0  0  0  0  0  0  0  0  0  0  0
   17.3862   -9.8687  -13.9987 C   0  0  0  0  0  0  0  0  0  0  0  0
   17.5250  -10.5685  -12.9664 O   0  0  0  0  0  0  0  0  0  0  0  0
   21.6549   -8.6812  -13.0109 N   0  0  0  0  0  0  0  0  0  0  0  0
   20.8245   -7.8333  -13.8125 C   0  0  0  0  0  0  0  0  0  0  0  0
   21.1400   -7.7465  -15.0197 O   0  0  0  0  0  0  0  0  0  0  0  0
   19.6784   -7.1183  -13.2372 C   0  0  0  0  0  0  0  0  0  0  0  0
   18.5411   -7.9900  -12.7920 C   0  0  2  0  0  0  0  0  0  0  0  0
   17.8359   -8.5401  -13.9708 N   0  0  0  0  0  0  0  0  0  0  0  0
   17.5154   -7.1097  -12.1241 C   0  0  0  0  0  0  0  0  0  0  0  0
   16.8693   -6.2227  -12.7437 O   0  0  0  0  0  0  0  0  0  0  0  0
   17.2150   -7.2317  -10.7389 N   0  0  0  0  0  0  0  0  0  0  0  0
   16.2216   -6.3922  -10.1197 C   0  0  1  0  0  0  0  0  0  0  0  0
   14.9140   -7.1525   -9.8976 C   0  0  0  0  0  0  0  0  0  0  0  0
   15.3082   -8.7594   -9.1541 S   0  0  0  0  0  0  0  0  0  0  0  0
   16.6932   -5.8096   -8.8407 C   0  0  0  0  0  0  0  0  0  0  0  0
   17.8860   -6.1963   -8.2448 O   0  0  0  0  0  0  0  0  0  0  0  0
   16.0156   -4.9330   -8.2476 O   0  0  0  0  0  0  0  0  0  0  0  0
  1  2  1  0
  2  3  1  0
  3  4  2  0
  5  6  1  0
  6  7  2  0
  8  6  1  0
  9  8  1  6
 10  3  1  0
 10  9  1  0
 11  9  1  0
 11 13  1  0
 12 11  2  0
 14 13  1  0
 14 15  1  1
 16 15  1  0
 17 14  1  0
 18 17  1  0
 19 17  2  0
M  END
$$$$
