GNC.pdb
     RDKit          3D

 19 18  0  0  1  0  0  0  0  0999 V2000
   11.4562  -12.1002  -10.0163 N   0  0  0  0  0  0  0  0  0  0  0  0
   11.9027  -11.3949  -11.1888 C   0  0  0  0  0  0  0  0  0  0  0  0
   13.3364  -10.9855  -11.0109 C   0  0  0  0  0  0  0  0  0  0  0  0
   13.8694  -10.9322   -9.8762 O   0  0  0  0  0  0  0  0  0  0  0  0
   16.2147  -12.9853  -12.7481 N   0  0  0  0  0  0  0  0  0  0  0  0
   16.5468  -11.9172  -13.6425 C   0  0  0  0  0  0  0  0  0  0  0  0
   17.1044  -12.2548  -14.7099 O   0  0  0  0  0  0  0  0  0  0  0  0
   16.2444  -10.5190  -13.3115 C   0  0  0  0  0  0  0  0  0  0  0  0
   15.5472  -10.3108  -11.9992 C   0  0  2  0  0  0  0  0  0  0  0  0
   14.1132  -10.6511  -12.1304 N   0  0  0  0  0  0  0  0  0  0  0  0
   15.5515   -8.8330  -11.7006 C   0  0  0  0  0  0  0  0  0  0  0  0
   14.7367   -8.0277  -12.2258 O   0  0  0  0  0  0  0  0  0  0  0  0
   16.4875   -8.2562  -10.7978 N   0  0  0  0  0  0  0  0  0  0  0  0
   16.4431   -6.8515  -10.4819 C   0  0  1  0  0  0  0  0  0  0  0  0
   16.9948   -6.5805   -9.0821 C   0  0  0  0  0  0  0  0  0  0  0  0
   16.0770   -7.6050   -7.8996 S   0  0  0  0  0  0  0  0  0  0  0  0
   17.1641   -6.0258  -11.4800 C   0  0  0  0  0  0  0  0  0  0  0  0
   17.1439   -4.6380  -11.4480 O   0  0  0  0  0  0  0  0  0  0  0  0
   17.8265   -6.5669  -12.4007 O   0  0  0  0  0  0  0  0  0  0  0  0
  1  2  1  0
  2  3  1  0
  3  4  2  0
  5  6  1  0
  6  7  2  0
  8  6  1  0
  9  8  1  6
 10  3  1  0
 10  9  1  0
 11  9  1  0
 11 13  1  0
 12 11  2  0
 14 13  1  0
 14 15  1  1
 16 15  1  0
 17 14  1  0
 18 17  1  0
 19 17  2  0
M  END
$$$$
