GNC.pdb
     RDKit          3D

 19 18  0  0  1  0  0  0  0  0999 V2000
   22.6443  -15.0039  -16.1229 N   0  0  0  0  0  0  0  0  0  0  0  0
   21.3356  -14.5126  -15.7802 C   0  0  0  0  0  0  0  0  0  0  0  0
   21.1628  -13.1249  -16.3272 C   0  0  0  0  0  0  0  0  0  0  0  0
   22.0964  -12.5296  -16.9176 O   0  0  0  0  0  0  0  0  0  0  0  0
   18.6001  -12.3717  -19.1429 N   0  0  0  0  0  0  0  0  0  0  0  0
   17.7294  -11.6188  -18.2907 C   0  0  0  0  0  0  0  0  0  0  0  0
   16.5333  -11.5587  -18.6515 O   0  0  0  0  0  0  0  0  0  0  0  0
   18.2261  -10.9651  -17.0734 C   0  0  0  0  0  0  0  0  0  0  0  0
   19.6919  -11.1436  -16.8066 C   0  0  2  0  0  0  0  0  0  0  0  0
   19.9339  -12.4635  -16.1833 N   0  0  0  0  0  0  0  0  0  0  0  0
   20.0942  -10.1526  -15.7439 C   0  0  0  0  0  0  0  0  0  0  0  0
   19.6152  -10.1689  -14.5783 O   0  0  0  0  0  0  0  0  0  0  0  0
   21.0493   -9.1298  -15.9998 N   0  0  0  0  0  0  0  0  0  0  0  0
   21.4934   -8.2512  -14.9482 C   0  0  1  0  0  0  0  0  0  0  0  0
   23.0197   -8.1991  -14.8772 C   0  0  0  0  0  0  0  0  0  0  0  0
   23.6250   -9.8446  -14.4121 S   0  0  0  0  0  0  0  0  0  0  0  0
   20.9450   -6.8810  -15.0886 C   0  0  0  0  0  0  0  0  0  0  0  0
   21.0768   -5.9237  -14.0917 O   0  0  0  0  0  0  0  0  0  0  0  0
   20.3341   -6.5393  -16.1323 O   0  0  0  0  0  0  0  0  0  0  0  0
  1  2  1  0
  2  3  1  0
  3  4  2  0
  5  6  1  0
  6  7  2  0
  8  6  1  0
  9  8  1  1
 10  3  1  0
 10  9  1  0
 11  9  1  0
 11 13  1  0
 12 11  2  0
 14 13  1  0
 14 15  1  6
 16 15  1  0
 17 14  1  0
 18 17  1  0
 19 17  2  0
M  END
$$$$
