GNC.pdb
     RDKit          3D

 19 18  0  0  1  0  0  0  0  0999 V2000
   12.9670  -10.5042   -9.4333 N   0  0  0  0  0  0  0  0  0  0  0  0
   14.0913   -9.9305   -8.7419 C   0  0  0  0  0  0  0  0  0  0  0  0
   14.5487   -8.6975   -9.4668 C   0  0  0  0  0  0  0  0  0  0  0  0
   14.0555   -8.3627  -10.5710 O   0  0  0  0  0  0  0  0  0  0  0  0
   15.6090   -2.9915   -8.6407 N   0  0  0  0  0  0  0  0  0  0  0  0
   16.2775   -4.1804   -9.0773 C   0  0  0  0  0  0  0  0  0  0  0  0
   17.1832   -4.0157   -9.9239 O   0  0  0  0  0  0  0  0  0  0  0  0
   15.9102   -5.5019   -8.5532 C   0  0  0  0  0  0  0  0  0  0  0  0
   15.9629   -6.6209   -9.5515 C   0  0  2  0  0  0  0  0  0  0  0  0
   15.5509   -7.8889   -8.9098 N   0  0  0  0  0  0  0  0  0  0  0  0
   17.4072   -6.8452   -9.9216 C   0  0  0  0  0  0  0  0  0  0  0  0
   18.3044   -7.0710   -9.0658 O   0  0  0  0  0  0  0  0  0  0  0  0
   17.8449   -6.8139  -11.2748 N   0  0  0  0  0  0  0  0  0  0  0  0
   19.2316   -7.0140  -11.6096 C   0  0  1  0  0  0  0  0  0  0  0  0
   19.4465   -8.3619  -12.2982 C   0  0  0  0  0  0  0  0  0  0  0  0
   21.2097   -8.5267  -12.6907 S   0  0  0  0  0  0  0  0  0  0  0  0
   19.7715   -5.9213  -12.4536 C   0  0  0  0  0  0  0  0  0  0  0  0
   21.1030   -5.5319  -12.4003 O   0  0  0  0  0  0  0  0  0  0  0  0
   19.0270   -5.3044  -13.2565 O   0  0  0  0  0  0  0  0  0  0  0  0
  1  2  1  0
  2  3  1  0
  3  4  2  0
  5  6  1  0
  6  7  2  0
  8  6  1  0
  9  8  1  1
 10  3  1  0
 10  9  1  0
 11  9  1  0
 11 13  1  0
 12 11  2  0
 14 13  1  0
 14 15  1  6
 16 15  1  0
 17 14  1  0
 18 17  1  0
 19 17  2  0
M  END
$$$$
