GNC.pdb
     RDKit          3D

 19 18  0  0  1  0  0  0  0  0999 V2000
   27.4131  -17.0186  -19.9878 N   0  0  0  0  0  0  0  0  0  0  0  0
   26.9137  -16.3984  -18.7889 C   0  0  0  0  0  0  0  0  0  0  0  0
   26.3151  -15.0637  -19.1279 C   0  0  0  0  0  0  0  0  0  0  0  0
   26.8470  -14.2985  -19.9682 O   0  0  0  0  0  0  0  0  0  0  0  0
   22.9671  -10.9862  -19.2937 N   0  0  0  0  0  0  0  0  0  0  0  0
   22.3354  -12.1048  -18.6608 C   0  0  0  0  0  0  0  0  0  0  0  0
   21.1300  -11.9527  -18.3638 O   0  0  0  0  0  0  0  0  0  0  0  0
   23.0714  -13.3452  -18.3853 C   0  0  0  0  0  0  0  0  0  0  0  0
   24.5080  -13.3438  -18.8185 C   0  0  2  0  0  0  0  0  0  0  0  0
   25.1324  -14.6465  -18.4988 N   0  0  0  0  0  0  0  0  0  0  0  0
   25.2517  -12.3551  -17.9567 C   0  0  0  0  0  0  0  0  0  0  0  0
   25.8561  -12.6875  -16.9021 O   0  0  0  0  0  0  0  0  0  0  0  0
   25.3140  -10.9733  -18.2892 N   0  0  0  0  0  0  0  0  0  0  0  0
   26.1482  -10.0682  -17.5409 C   0  0  1  0  0  0  0  0  0  0  0  0
   27.6248  -10.4441  -17.6654 C   0  0  0  0  0  0  0  0  0  0  0  0
   28.6063   -9.1974  -16.7864 S   0  0  0  0  0  0  0  0  0  0  0  0
   25.9488   -8.6550  -17.9420 C   0  0  0  0  0  0  0  0  0  0  0  0
   25.9391   -7.6168  -17.0203 O   0  0  0  0  0  0  0  0  0  0  0  0
   25.7797   -8.3494  -19.1492 O   0  0  0  0  0  0  0  0  0  0  0  0
  1  2  1  0
  2  3  1  0
  3  4  2  0
  5  6  1  0
  6  7  2  0
  8  6  1  0
  9  8  1  1
 10  3  1  0
 10  9  1  0
 11  9  1  0
 11 13  1  0
 12 11  2  0
 14 13  1  0
 14 15  1  6
 16 15  1  0
 17 14  1  0
 18 17  1  0
 19 17  2  0
M  END
$$$$
