GNC.pdb
     RDKit          3D

 19 18  0  0  1  0  0  0  0  0999 V2000
   18.5341  -12.3174  -16.9060 N   0  0  0  0  0  0  0  0  0  0  0  0
   19.3956  -11.4451  -17.6600 C   0  0  0  0  0  0  0  0  0  0  0  0
   20.3769  -10.7872  -16.7331 C   0  0  0  0  0  0  0  0  0  0  0  0
   20.2010  -10.7739  -15.4907 O   0  0  0  0  0  0  0  0  0  0  0  0
   24.5146  -10.5032  -14.6440 N   0  0  0  0  0  0  0  0  0  0  0  0
   24.8474  -10.2184  -16.0075 C   0  0  0  0  0  0  0  0  0  0  0  0
   26.0079  -10.5241  -16.3597 O   0  0  0  0  0  0  0  0  0  0  0  0
   23.8750   -9.6058  -16.9213 C   0  0  0  0  0  0  0  0  0  0  0  0
   22.4851   -9.4662  -16.3733 C   0  0  2  0  0  0  0  0  0  0  0  0
   21.5236  -10.1677  -17.2523 N   0  0  0  0  0  0  0  0  0  0  0  0
   22.0896   -8.0148  -16.4753 C   0  0  0  0  0  0  0  0  0  0  0  0
   21.8031   -7.4604  -17.5702 O   0  0  0  0  0  0  0  0  0  0  0  0
   22.0167   -7.1782  -15.3271 N   0  0  0  0  0  0  0  0  0  0  0  0
   21.6162   -5.7990  -15.4396 C   0  0  1  0  0  0  0  0  0  0  0  0
   20.1091   -5.6414  -15.2369 C   0  0  0  0  0  0  0  0  0  0  0  0
   19.7314   -3.8708  -15.1237 S   0  0  0  0  0  0  0  0  0  0  0  0
   22.3496   -4.9200  -14.4977 C   0  0  0  0  0  0  0  0  0  0  0  0
   22.7225   -5.3406  -13.2283 O   0  0  0  0  0  0  0  0  0  0  0  0
   22.6610   -3.7475  -14.8261 O   0  0  0  0  0  0  0  0  0  0  0  0
  1  2  1  0
  2  3  1  0
  3  4  2  0
  5  6  1  0
  6  7  2  0
  8  6  1  0
  9  8  1  6
 10  3  1  0
 10  9  1  0
 11  9  1  0
 11 13  1  0
 12 11  2  0
 14 13  1  0
 14 15  1  1
 16 15  1  0
 17 14  1  0
 18 17  1  0
 19 17  2  0
M  END
$$$$
