LTV.pdb
     RDKit          3D

 23 22  0  0  1  0  0  0  0  0999 V2000
    9.9543  -12.8308   19.5315 C   0  0  0  0  0  0  0  0  0  0  0  0
    8.5425  -13.3166   19.2798 C   0  0  2  0  0  0  0  0  0  0  0  0
    7.6768  -12.0981   19.1334 C   0  0  0  0  0  0  0  0  0  0  0  0
    8.0807  -14.2631   20.3632 C   0  0  0  0  0  0  0  0  0  0  0  0
    9.0422  -15.3919   20.5741 C   0  0  2  0  0  0  0  0  0  0  0  0
    8.9634  -16.3035   19.4771 N   0  0  0  0  0  0  0  0  0  0  0  0
    8.8208  -16.0890   21.8685 C   0  0  0  0  0  0  0  0  0  0  0  0
    7.7647  -16.7515   22.0418 O   0  0  0  0  0  0  0  0  0  0  0  0
    8.9965  -19.0158   23.0595 C   0  0  0  0  0  0  0  0  0  0  0  0
    9.8532  -18.2762   24.0468 C   0  0  1  0  0  0  0  0  0  0  0  0
   11.1782  -18.4081   23.6435 O   0  0  0  0  0  0  0  0  0  0  0  0
    9.5157  -16.8299   24.1851 C   0  0  2  0  0  0  0  0  0  0  0  0
    9.7040  -16.0807   22.9542 N   0  0  0  0  0  0  0  0  0  0  0  0
   10.2485  -16.1041   25.2373 C   0  0  0  0  0  0  0  0  0  0  0  0
   11.4055  -15.5934   25.0120 O   0  0  0  0  0  0  0  0  0  0  0  0
    9.7178  -13.0524   27.0230 C   0  0  0  0  0  0  0  0  0  0  0  0
    9.9413  -14.0240   28.1618 C   0  0  1  0  0  0  0  0  0  0  0  0
    8.6121  -14.3000   28.8021 C   0  0  0  0  0  0  0  0  0  0  0  0
   10.6025  -15.2426   27.6006 C   0  0  2  0  0  0  0  0  0  0  0  0
    9.7901  -15.8877   26.5678 N   0  0  0  0  0  0  0  0  0  0  0  0
   10.9058  -16.1882   28.6735 C   0  0  0  0  0  0  0  0  0  0  0  0
   10.3364  -17.4480   28.7310 O   0  0  0  0  0  0  0  0  0  0  0  0
   11.7082  -15.8594   29.5803 O   0  0  0  0  0  0  0  0  0  0  0  0
  2  3  1  1
  2  1  1  0
  4  2  1  0
  5  7  1  0
  5  4  1  0
  5  6  1  6
  7 13  1  0
  7  8  2  0
 10  9  1  6
 11 10  1  0
 12 10  1  0
 12 13  1  6
 14 20  1  0
 14 12  1  0
 15 14  2  0
 17 16  1  6
 17 19  1  0
 18 17  1  0
 19 21  1  0
 19 20  1  6
 21 22  1  0
 23 21  2  0
M  END
$$$$
