LTV.pdb
     RDKit          3D

 23 22  0  0  1  0  0  0  0  0999 V2000
    7.2206  -12.6659   24.4779 C   0  0  0  0  0  0  0  0  0  0  0  0
    6.1469  -13.2366   25.3801 C   0  0  2  0  0  0  0  0  0  0  0  0
    5.9796  -12.2800   26.5256 C   0  0  0  0  0  0  0  0  0  0  0  0
    6.4763  -14.6473   25.8098 C   0  0  0  0  0  0  0  0  0  0  0  0
    6.6703  -15.5628   24.6405 C   0  0  2  0  0  0  0  0  0  0  0  0
    5.6150  -16.5249   24.6013 N   0  0  0  0  0  0  0  0  0  0  0  0
    8.0009  -16.2257   24.6560 C   0  0  0  0  0  0  0  0  0  0  0  0
    8.1516  -17.2961   25.3009 O   0  0  0  0  0  0  0  0  0  0  0  0
   12.5495  -16.8032   22.6526 C   0  0  0  0  0  0  0  0  0  0  0  0
   11.2348  -16.0835   22.7481 C   0  0  1  0  0  0  0  0  0  0  0  0
   10.5220  -16.3424   21.5817 O   0  0  0  0  0  0  0  0  0  0  0  0
   10.4122  -16.4687   23.9312 C   0  0  2  0  0  0  0  0  0  0  0  0
    9.1458  -15.7592   23.9998 N   0  0  0  0  0  0  0  0  0  0  0  0
   11.0638  -16.2970   25.2414 C   0  0  0  0  0  0  0  0  0  0  0  0
   12.2518  -16.7355   25.4571 O   0  0  0  0  0  0  0  0  0  0  0  0
   10.5771  -13.2099   27.7365 C   0  0  0  0  0  0  0  0  0  0  0  0
   10.5840  -14.4939   28.5380 C   0  0  1  0  0  0  0  0  0  0  0  0
    9.1776  -14.7676   28.9854 C   0  0  0  0  0  0  0  0  0  0  0  0
   11.1599  -15.5700   27.6734 C   0  0  2  0  0  0  0  0  0  0  0  0
   10.4889  -15.6559   26.3752 N   0  0  0  0  0  0  0  0  0  0  0  0
   11.0968  -16.8566   28.3646 C   0  0  0  0  0  0  0  0  0  0  0  0
   10.3827  -17.9306   27.8633 O   0  0  0  0  0  0  0  0  0  0  0  0
   11.7062  -17.0065   29.4511 O   0  0  0  0  0  0  0  0  0  0  0  0
  2  3  1  1
  2  1  1  0
  4  2  1  0
  5  7  1  0
  5  4  1  0
  5  6  1  1
  7 13  1  0
  7  8  2  0
 10  9  1  6
 11 10  1  0
 12 10  1  0
 12 13  1  1
 14 20  1  0
 14 12  1  0
 15 14  2  0
 17 16  1  6
 17 19  1  0
 18 17  1  0
 19 21  1  0
 19 20  1  6
 21 22  1  0
 23 21  2  0
M  END
$$$$
