LTV.pdb
     RDKit          3D

 23 22  0  0  1  0  0  0  0  0999 V2000
    9.6625  -13.5588   19.3173 C   0  0  0  0  0  0  0  0  0  0  0  0
    8.3602  -13.8085   18.5865 C   0  0  2  0  0  0  0  0  0  0  0  0
    7.9296  -12.4978   17.9933 C   0  0  0  0  0  0  0  0  0  0  0  0
    7.3264  -14.4332   19.4943 C   0  0  0  0  0  0  0  0  0  0  0  0
    7.8461  -15.6571   20.1836 C   0  0  2  0  0  0  0  0  0  0  0  0
    7.6101  -16.8063   19.3684 N   0  0  0  0  0  0  0  0  0  0  0  0
    7.2639  -15.8323   21.5402 C   0  0  0  0  0  0  0  0  0  0  0  0
    6.0136  -15.8847   21.6750 O   0  0  0  0  0  0  0  0  0  0  0  0
    6.6973  -18.4864   23.6096 C   0  0  0  0  0  0  0  0  0  0  0  0
    7.4285  -17.5362   24.5141 C   0  0  1  0  0  0  0  0  0  0  0  0
    8.7428  -17.9792   24.6238 O   0  0  0  0  0  0  0  0  0  0  0  0
    7.4170  -16.1192   24.0488 C   0  0  2  0  0  0  0  0  0  0  0  0
    7.9966  -15.9489   22.7271 N   0  0  0  0  0  0  0  0  0  0  0  0
    8.0929  -15.1542   24.9335 C   0  0  0  0  0  0  0  0  0  0  0  0
    9.3238  -14.8338   24.7532 O   0  0  0  0  0  0  0  0  0  0  0  0
    7.3155  -11.5364   26.1069 C   0  0  0  0  0  0  0  0  0  0  0  0
    7.4672  -12.4019   27.3393 C   0  0  1  0  0  0  0  0  0  0  0  0
    6.0937  -12.7068   27.8625 C   0  0  0  0  0  0  0  0  0  0  0  0
    8.2461  -13.6184   26.9511 C   0  0  2  0  0  0  0  0  0  0  0  0
    7.4977  -14.4887   26.0426 N   0  0  0  0  0  0  0  0  0  0  0  0
    8.6505  -14.3577   28.1457 C   0  0  0  0  0  0  0  0  0  0  0  0
    9.5210  -13.8292   29.0825 O   0  0  0  0  0  0  0  0  0  0  0  0
    8.2006  -15.5126   28.3411 O   0  0  0  0  0  0  0  0  0  0  0  0
  2  3  1  1
  2  1  1  0
  4  2  1  0
  5  7  1  0
  5  4  1  0
  5  6  1  6
  7 13  1  0
  7  8  2  0
 10  9  1  6
 11 10  1  0
 12 10  1  0
 12 13  1  6
 14 20  1  0
 14 12  1  0
 15 14  2  0
 17 16  1  6
 17 19  1  0
 18 17  1  0
 19 21  1  0
 19 20  1  6
 21 22  1  0
 23 21  2  0
M  END
$$$$
