LTV.pdb
     RDKit          3D

 23 22  0  0  1  0  0  0  0  0999 V2000
    9.6066  -13.5951   19.3269 C   0  0  0  0  0  0  0  0  0  0  0  0
    8.3005  -13.8751   18.6139 C   0  0  2  0  0  0  0  0  0  0  0  0
    7.8583  -12.5864   17.9823 C   0  0  0  0  0  0  0  0  0  0  0  0
    7.2767  -14.4761   19.5486 C   0  0  0  0  0  0  0  0  0  0  0  0
    7.7745  -15.7292   20.2005 C   0  0  2  0  0  0  0  0  0  0  0  0
    7.4805  -16.8540   19.3704 N   0  0  0  0  0  0  0  0  0  0  0  0
    7.2223  -15.9126   21.5686 C   0  0  0  0  0  0  0  0  0  0  0  0
    5.9856  -16.0937   21.7177 O   0  0  0  0  0  0  0  0  0  0  0  0
    6.7889  -18.4743   23.6498 C   0  0  0  0  0  0  0  0  0  0  0  0
    7.4764  -17.4947   24.5572 C   0  0  1  0  0  0  0  0  0  0  0  0
    8.8044  -17.8902   24.6826 O   0  0  0  0  0  0  0  0  0  0  0  0
    7.4194  -16.0811   24.0849 C   0  0  2  0  0  0  0  0  0  0  0  0
    7.9700  -15.9033   22.7518 N   0  0  0  0  0  0  0  0  0  0  0  0
    8.0862  -15.0939   24.9519 C   0  0  0  0  0  0  0  0  0  0  0  0
    9.2835  -14.6961   24.7103 O   0  0  0  0  0  0  0  0  0  0  0  0
    6.8758  -11.7605   25.9893 C   0  0  0  0  0  0  0  0  0  0  0  0
    7.4082  -12.3335   27.2851 C   0  0  1  0  0  0  0  0  0  0  0  0
    6.2362  -12.6415   28.1709 C   0  0  0  0  0  0  0  0  0  0  0  0
    8.2385  -13.5313   26.9489 C   0  0  2  0  0  0  0  0  0  0  0  0
    7.5167  -14.4871   26.1072 N   0  0  0  0  0  0  0  0  0  0  0  0
    8.7016  -14.1809   28.1739 C   0  0  0  0  0  0  0  0  0  0  0  0
    9.5844  -13.5693   29.0464 O   0  0  0  0  0  0  0  0  0  0  0  0
    8.2926  -15.3329   28.4566 O   0  0  0  0  0  0  0  0  0  0  0  0
  2  3  1  1
  2  1  1  0
  4  2  1  0
  5  7  1  0
  5  4  1  0
  5  6  1  6
  7 13  1  0
  7  8  2  0
 10  9  1  6
 11 10  1  0
 12 10  1  0
 12 13  1  6
 14 20  1  0
 14 12  1  0
 15 14  2  0
 17 16  1  6
 17 19  1  0
 18 17  1  0
 19 21  1  0
 19 20  1  1
 21 22  1  0
 23 21  2  0
M  END
$$$$
