LTV.pdb
     RDKit          3D

 23 22  0  0  1  0  0  0  0  0999 V2000
   60.6455  -75.1903    9.0675 C   0  0  0  0  0  0  0  0  0  0  0  0
   59.9363  -76.0982    8.0851 C   0  0  2  0  0  0  0  0  0  0  0  0
   58.5885  -75.4917    7.8184 C   0  0  0  0  0  0  0  0  0  0  0  0
   59.8729  -77.5205    8.5913 C   0  0  0  0  0  0  0  0  0  0  0  0
   60.7356  -77.7293    9.7977 C   0  0  2  0  0  0  0  0  0  0  0  0
   61.3924  -76.5072   10.1380 N   0  0  0  0  0  0  0  0  0  0  0  0
   61.7157  -78.8309    9.6081 C   0  0  0  0  0  0  0  0  0  0  0  0
   62.4066  -78.8705    8.5567 O   0  0  0  0  0  0  0  0  0  0  0  0
   63.5248  -83.2707   11.1068 C   0  0  0  0  0  0  0  0  0  0  0  0
   62.9048  -81.9414   11.4301 C   0  0  1  0  0  0  0  0  0  0  0  0
   63.6577  -81.3555   12.4429 O   0  0  0  0  0  0  0  0  0  0  0  0
   62.8195  -81.0089   10.2691 C   0  0  2  0  0  0  0  0  0  0  0  0
   61.9549  -79.8676   10.5176 N   0  0  0  0  0  0  0  0  0  0  0  0
   62.3696  -81.6112    9.0019 C   0  0  0  0  0  0  0  0  0  0  0  0
   62.7491  -81.1401    7.8687 O   0  0  0  0  0  0  0  0  0  0  0  0
   62.9304  -84.6987   11.0729 C   0  0  0  0  0  0  0  0  0  0  0  0
   61.7851  -84.8507   10.0950 C   0  0  1  0  0  0  0  0  0  0  0  0
   60.9216  -85.9844   10.5663 C   0  0  0  0  0  0  0  0  0  0  0  0
   61.0686  -83.5397   10.0222 C   0  0  2  0  0  0  0  0  0  0  0  0
   61.5026  -82.7340    8.8797 N   0  0  0  0  0  0  0  0  0  0  0  0
   61.2534  -82.7971   11.2678 C   0  0  0  0  0  0  0  0  0  0  0  0
   60.2801  -82.7476   12.2501 O   0  0  0  0  0  0  0  0  0  0  0  0
   62.3266  -82.1781   11.4664 O   0  0  0  0  0  0  0  0  0  0  0  0
  2  3  1  1
  2  1  1  0
  4  2  1  0
  5  7  1  0
  5  4  1  0
  5  6  1  6
  7 13  1  0
  7  8  2  0
 10  9  1  6
 11 10  1  0
 12 10  1  0
 12 13  1  1
 14 20  1  0
 14 12  1  0
 15 14  2  0
 17 16  1  1
 17 19  1  0
 18 17  1  0
 19 21  1  0
 19 20  1  6
 21 22  1  0
 23 21  2  0
M  END
$$$$
