LTV.pdb
     RDKit          3D

 23 22  0  0  1  0  0  0  0  0999 V2000
    9.5725  -13.3088   20.1284 C   0  0  0  0  0  0  0  0  0  0  0  0
    8.6913  -13.3752   18.8990 C   0  0  2  0  0  0  0  0  0  0  0  0
    7.9177  -12.0893   18.8415 C   0  0  0  0  0  0  0  0  0  0  0  0
    7.8191  -14.6090   18.9083 C   0  0  0  0  0  0  0  0  0  0  0  0
    8.4313  -15.7271   19.6944 C   0  0  2  0  0  0  0  0  0  0  0  0
    8.4019  -16.9301   18.9245 N   0  0  0  0  0  0  0  0  0  0  0  0
    7.7727  -15.9176   21.0136 C   0  0  0  0  0  0  0  0  0  0  0  0
    6.6066  -16.3891   21.0607 O   0  0  0  0  0  0  0  0  0  0  0  0
    7.3632  -18.3913   22.8013 C   0  0  0  0  0  0  0  0  0  0  0  0
    8.0078  -17.4848   23.8104 C   0  0  1  0  0  0  0  0  0  0  0  0
    9.3688  -17.7722   23.8329 O   0  0  0  0  0  0  0  0  0  0  0  0
    7.8094  -16.0313   23.5403 C   0  0  2  0  0  0  0  0  0  0  0  0
    8.3428  -15.6128   22.2549 N   0  0  0  0  0  0  0  0  0  0  0  0
    8.3704  -15.1152   24.5486 C   0  0  0  0  0  0  0  0  0  0  0  0
    9.5684  -14.6632   24.4449 O   0  0  0  0  0  0  0  0  0  0  0  0
    6.8748  -11.8774   25.7600 C   0  0  0  0  0  0  0  0  0  0  0  0
    7.2948  -12.6019   27.0209 C   0  0  1  0  0  0  0  0  0  0  0  0
    6.0569  -13.1311   27.6846 C   0  0  0  0  0  0  0  0  0  0  0  0
    8.2709  -13.6668   26.6331 C   0  0  2  0  0  0  0  0  0  0  0  0
    7.6904  -14.6391   25.7054 N   0  0  0  0  0  0  0  0  0  0  0  0
    8.7770  -14.3423   27.8267 C   0  0  0  0  0  0  0  0  0  0  0  0
    9.5518  -13.6923   28.7711 O   0  0  0  0  0  0  0  0  0  0  0  0
    8.5076  -15.5533   28.0141 O   0  0  0  0  0  0  0  0  0  0  0  0
  2  3  1  1
  2  1  1  0
  4  2  1  0
  5  7  1  0
  5  4  1  0
  5  6  1  6
  7 13  1  0
  7  8  2  0
 10  9  1  6
 11 10  1  0
 12 10  1  0
 12 13  1  6
 14 20  1  0
 14 12  1  0
 15 14  2  0
 17 16  1  6
 17 19  1  0
 18 17  1  0
 19 21  1  0
 19 20  1  6
 21 22  1  0
 23 21  2  0
M  END
$$$$
