LTV.pdb
     RDKit          3D

 23 22  0  0  1  0  0  0  0  0999 V2000
    2.6492  -18.5724   20.4087 C   0  0  0  0  0  0  0  0  0  0  0  0
    2.7480  -19.3579   21.6994 C   0  0  2  0  0  0  0  0  0  0  0  0
    1.3945  -19.3111   22.3483 C   0  0  0  0  0  0  0  0  0  0  0  0
    3.8618  -18.8401   22.5794 C   0  0  0  0  0  0  0  0  0  0  0  0
    5.1881  -18.8640   21.8841 C   0  0  2  0  0  0  0  0  0  0  0  0
    5.4462  -20.1768   21.3834 N   0  0  0  0  0  0  0  0  0  0  0  0
    6.2944  -18.3962   22.7602 C   0  0  0  0  0  0  0  0  0  0  0  0
    6.6583  -19.1093   23.7314 O   0  0  0  0  0  0  0  0  0  0  0  0
    9.4637  -15.9066   21.4406 C   0  0  0  0  0  0  0  0  0  0  0  0
    9.4290  -16.8448   22.6130 C   0  0  1  0  0  0  0  0  0  0  0  0
   10.4943  -16.5225   23.4478 O   0  0  0  0  0  0  0  0  0  0  0  0
    8.1565  -16.8043   23.3901 C   0  0  2  0  0  0  0  0  0  0  0  0
    6.9975  -17.1959   22.6058 N   0  0  0  0  0  0  0  0  0  0  0  0
    7.8298  -15.5070   24.0073 C   0  0  0  0  0  0  0  0  0  0  0  0
    7.5134  -14.4890   23.2904 O   0  0  0  0  0  0  0  0  0  0  0  0
    6.4277  -12.6772   25.0997 C   0  0  0  0  0  0  0  0  0  0  0  0
    7.1638  -13.0680   26.3632 C   0  0  1  0  0  0  0  0  0  0  0  0
    6.1760  -13.7070   27.2953 C   0  0  0  0  0  0  0  0  0  0  0  0
    8.2931  -13.9686   25.9749 C   0  0  2  0  0  0  0  0  0  0  0  0
    7.8230  -15.2320   25.4042 N   0  0  0  0  0  0  0  0  0  0  0  0
    9.1535  -14.2209   27.1295 C   0  0  0  0  0  0  0  0  0  0  0  0
    9.8143  -13.2036   27.7952 O   0  0  0  0  0  0  0  0  0  0  0  0
    9.3076  -15.3959   27.5420 O   0  0  0  0  0  0  0  0  0  0  0  0
  2  3  1  1
  2  1  1  0
  4  2  1  0
  5  7  1  0
  5  4  1  0
  5  6  1  1
  7 13  1  0
  7  8  2  0
 10  9  1  6
 11 10  1  0
 12 10  1  0
 12 13  1  6
 14 20  1  0
 14 12  1  0
 15 14  2  0
 17 16  1  6
 17 19  1  0
 18 17  1  0
 19 21  1  0
 19 20  1  1
 21 22  1  0
 23 21  2  0
M  END
$$$$
