LTV.pdb
     RDKit          3D

 23 22  0  0  1  0  0  0  0  0999 V2000
    9.8060  -12.6561   19.7117 C   0  0  0  0  0  0  0  0  0  0  0  0
    8.4420  -13.1918   19.3309 C   0  0  2  0  0  0  0  0  0  0  0  0
    7.5461  -12.0053   19.1190 C   0  0  0  0  0  0  0  0  0  0  0  0
    7.9231  -14.1686   20.3603 C   0  0  0  0  0  0  0  0  0  0  0  0
    8.8737  -15.3025   20.5921 C   0  0  2  0  0  0  0  0  0  0  0  0
    8.7741  -16.2417   19.5203 N   0  0  0  0  0  0  0  0  0  0  0  0
    8.6568  -15.9626   21.9064 C   0  0  0  0  0  0  0  0  0  0  0  0
    7.5445  -16.4972   22.1544 O   0  0  0  0  0  0  0  0  0  0  0  0
    8.8207  -18.9502   23.0844 C   0  0  0  0  0  0  0  0  0  0  0  0
    9.6939  -18.2279   24.0700 C   0  0  1  0  0  0  0  0  0  0  0  0
   11.0172  -18.4150   23.6835 O   0  0  0  0  0  0  0  0  0  0  0  0
    9.4090  -16.7682   24.1832 C   0  0  2  0  0  0  0  0  0  0  0  0
    9.6029  -16.0515   22.9340 N   0  0  0  0  0  0  0  0  0  0  0  0
   10.1836  -16.0471   25.2083 C   0  0  0  0  0  0  0  0  0  0  0  0
   11.3185  -15.5124   24.9320 O   0  0  0  0  0  0  0  0  0  0  0  0
    9.9146  -12.9562   26.8628 C   0  0  0  0  0  0  0  0  0  0  0  0
   10.0039  -13.9061   28.0379 C   0  0  1  0  0  0  0  0  0  0  0  0
    8.6211  -14.0862   28.5934 C   0  0  0  0  0  0  0  0  0  0  0  0
   10.6269  -15.1765   27.5531 C   0  0  2  0  0  0  0  0  0  0  0  0
    9.7920  -15.8608   26.5644 N   0  0  0  0  0  0  0  0  0  0  0  0
   10.9063  -16.0614   28.6827 C   0  0  0  0  0  0  0  0  0  0  0  0
   10.3308  -17.3143   28.7999 O   0  0  0  0  0  0  0  0  0  0  0  0
   11.6931  -15.6848   29.5846 O   0  0  0  0  0  0  0  0  0  0  0  0
  2  3  1  1
  2  1  1  0
  4  2  1  0
  5  7  1  0
  5  4  1  0
  5  6  1  6
  7 13  1  0
  7  8  2  0
 10  9  1  6
 11 10  1  0
 12 10  1  0
 12 13  1  6
 14 20  1  0
 14 12  1  0
 15 14  2  0
 17 16  1  6
 17 19  1  0
 18 17  1  0
 19 21  1  0
 19 20  1  6
 21 22  1  0
 23 21  2  0
M  END
$$$$
