LTV.pdb
     RDKit          3D

 23 22  0  0  1  0  0  0  0  0999 V2000
    9.9265  -13.5955   19.4231 C   0  0  0  0  0  0  0  0  0  0  0  0
    8.6919  -13.7208   18.5556 C   0  0  2  0  0  0  0  0  0  0  0  0
    8.2476  -12.3266   18.2176 C   0  0  0  0  0  0  0  0  0  0  0  0
    7.6244  -14.5524   19.2279 C   0  0  0  0  0  0  0  0  0  0  0  0
    8.1844  -15.7947   19.8492 C   0  0  2  0  0  0  0  0  0  0  0  0
    8.0175  -16.8975   18.9566 N   0  0  0  0  0  0  0  0  0  0  0  0
    7.5827  -16.0832   21.1777 C   0  0  0  0  0  0  0  0  0  0  0  0
    6.3487  -16.3172   21.2604 O   0  0  0  0  0  0  0  0  0  0  0  0
    7.4098  -18.8798   23.1610 C   0  0  0  0  0  0  0  0  0  0  0  0
    7.9374  -17.8427   24.1107 C   0  0  1  0  0  0  0  0  0  0  0  0
    9.3061  -18.0498   24.2499 O   0  0  0  0  0  0  0  0  0  0  0  0
    7.6869  -16.4367   23.6802 C   0  0  2  0  0  0  0  0  0  0  0  0
    8.2791  -16.1217   22.3911 N   0  0  0  0  0  0  0  0  0  0  0  0
    8.1392  -15.3947   24.6185 C   0  0  0  0  0  0  0  0  0  0  0  0
    9.3044  -14.8642   24.5138 O   0  0  0  0  0  0  0  0  0  0  0  0
    7.4594  -11.7595   27.8035 C   0  0  0  0  0  0  0  0  0  0  0  0
    6.8051  -12.8923   27.0422 C   0  0  1  0  0  0  0  0  0  0  0  0
    6.0268  -12.2969   25.9052 C   0  0  0  0  0  0  0  0  0  0  0  0
    7.8830  -13.8327   26.6053 C   0  0  2  0  0  0  0  0  0  0  0  0
    7.3806  -14.8706   25.7035 N   0  0  0  0  0  0  0  0  0  0  0  0
    8.5234  -14.4386   27.7714 C   0  0  0  0  0  0  0  0  0  0  0  0
    8.4774  -15.7998   28.0158 O   0  0  0  0  0  0  0  0  0  0  0  0
    9.1393  -13.7113   28.5875 O   0  0  0  0  0  0  0  0  0  0  0  0
  2  3  1  1
  2  1  1  0
  4  2  1  0
  5  7  1  0
  5  4  1  0
  5  6  1  6
  7 13  1  0
  7  8  2  0
 10  9  1  6
 11 10  1  0
 12 10  1  0
 12 13  1  6
 14 20  1  0
 14 12  1  0
 15 14  2  0
 17 16  1  6
 17 19  1  0
 18 17  1  0
 19 21  1  0
 19 20  1  6
 21 22  1  0
 23 21  2  0
M  END
$$$$
