LTV.pdb
     RDKit          3D

 23 22  0  0  1  0  0  0  0  0999 V2000
    8.9823  -12.8693   19.7019 C   0  0  0  0  0  0  0  0  0  0  0  0
    8.2869  -13.8388   18.7698 C   0  0  2  0  0  0  0  0  0  0  0  0
    7.8708  -13.0603   17.5548 C   0  0  0  0  0  0  0  0  0  0  0  0
    7.1434  -14.5465   19.4588 C   0  0  0  0  0  0  0  0  0  0  0  0
    7.5834  -15.8133   20.1257 C   0  0  2  0  0  0  0  0  0  0  0  0
    7.1716  -16.9369   19.3456 N   0  0  0  0  0  0  0  0  0  0  0  0
    7.0868  -15.9187   21.5230 C   0  0  0  0  0  0  0  0  0  0  0  0
    5.8470  -15.9363   21.7394 O   0  0  0  0  0  0  0  0  0  0  0  0
    6.8591  -18.6248   23.5735 C   0  0  0  0  0  0  0  0  0  0  0  0
    7.5269  -17.6250   24.4735 C   0  0  1  0  0  0  0  0  0  0  0  0
    8.8728  -17.9657   24.5639 O   0  0  0  0  0  0  0  0  0  0  0  0
    7.4000  -16.2110   24.0160 C   0  0  2  0  0  0  0  0  0  0  0  0
    7.8922  -16.0033   22.6645 N   0  0  0  0  0  0  0  0  0  0  0  0
    8.0628  -15.2062   24.8656 C   0  0  0  0  0  0  0  0  0  0  0  0
    9.1815  -14.6766   24.5219 O   0  0  0  0  0  0  0  0  0  0  0  0
    7.0312  -11.7621   26.2788 C   0  0  0  0  0  0  0  0  0  0  0  0
    7.3874  -12.6630   27.4418 C   0  0  1  0  0  0  0  0  0  0  0  0
    6.1092  -13.1798   28.0352 C   0  0  0  0  0  0  0  0  0  0  0  0
    8.2894  -13.7395   26.9272 C   0  0  2  0  0  0  0  0  0  0  0  0
    7.5719  -14.7199   26.1105 N   0  0  0  0  0  0  0  0  0  0  0  0
    8.9655  -14.4026   28.0408 C   0  0  0  0  0  0  0  0  0  0  0  0
    9.8542  -13.7378   28.8673 O   0  0  0  0  0  0  0  0  0  0  0  0
    8.7419  -15.6164   28.2668 O   0  0  0  0  0  0  0  0  0  0  0  0
  2  3  1  6
  2  1  1  0
  4  2  1  0
  5  7  1  0
  5  4  1  0
  5  6  1  6
  7 13  1  0
  7  8  2  0
 10  9  1  6
 11 10  1  0
 12 10  1  0
 12 13  1  6
 14 20  1  0
 14 12  1  0
 15 14  2  0
 17 16  1  6
 17 19  1  0
 18 17  1  0
 19 21  1  0
 19 20  1  1
 21 22  1  0
 23 21  2  0
M  END
$$$$
