PST.pdb
     RDKit          3D

 21 21  0  0  1  0  0  0  0  0999 V2000
   38.6538  -10.9827  -12.5202 N   0  0  0  0  0  0  0  0  0  0  0  0
   37.6636  -11.5999  -13.3839 C   0  0  0  0  0  0  0  0  0  0  0  0
   36.3811  -11.2590  -12.6129 C   0  0  0  0  0  0  0  0  0  0  0  0
   36.6082   -9.7665  -12.3858 C   0  0  0  0  0  0  0  0  0  0  0  0
   38.1160   -9.6785  -12.2873 C   0  0  1  0  0  0  0  0  0  0  0  0
   38.4322   -9.1618  -10.9326 C   0  0  0  0  0  0  0  0  0  0  0  0
   38.0026   -8.0219  -10.6299 O   0  0  0  0  0  0  0  0  0  0  0  0
   39.8397  -10.0581   -6.4183 O   0  0  0  0  0  0  0  0  0  0  0  0
   39.6680  -10.5838   -7.6979 C   0  0  0  0  0  0  0  0  0  0  0  0
   39.5423   -9.4486   -8.6907 C   0  0  2  0  0  0  0  0  0  0  0  0
   39.1818   -9.8956  -10.0005 N   0  0  0  0  0  0  0  0  0  0  0  0
   40.8569   -8.7734   -8.7551 C   0  0  0  0  0  0  0  0  0  0  0  0
   41.8007   -9.3085   -9.3790 O   0  0  0  0  0  0  0  0  0  0  0  0
   41.5735   -5.2131   -9.8100 C   0  0  0  0  0  0  0  0  0  0  0  0
   42.0125   -5.4051   -8.3955 C   0  0  1  0  0  0  0  0  0  0  0  0
   40.9933   -4.9954   -7.5472 O   0  0  0  0  0  0  0  0  0  0  0  0
   42.2748   -6.8755   -8.1092 C   0  0  2  0  0  0  0  0  0  0  0  0
   40.9818   -7.5244   -8.0901 N   0  0  0  0  0  0  0  0  0  0  0  0
   42.8638   -7.0493   -6.7458 C   0  0  0  0  0  0  0  0  0  0  0  0
   42.2521   -7.5754   -5.7829 O   0  0  0  0  0  0  0  0  0  0  0  0
   44.1578   -6.6068   -6.5259 O   0  0  0  0  0  0  0  0  0  0  0  0
  1  2  1  0
  3  2  1  0
  4  5  1  0
  4  3  1  0
  5  1  1  0
  6 11  1  0
  5  6  1  1
  7  6  2  0
 10  9  1  1
  9  8  1  0
 10 12  1  0
 10 11  1  0
 12 18  1  0
 13 12  2  0
 15 16  1  0
 15 14  1  6
 17 19  1  0
 17 15  1  0
 17 18  1  1
 19 21  1  0
 20 19  2  0
M  END
$$$$
