PST.pdb
     RDKit          3D

 21 21  0  0  1  0  0  0  0  0999 V2000
   24.7291  -11.9313  -16.3623 N   0  0  0  0  0  0  0  0  0  0  0  0
   25.0298  -13.3446  -16.5027 C   0  0  0  0  0  0  0  0  0  0  0  0
   23.6302  -13.8895  -16.8182 C   0  0  0  0  0  0  0  0  0  0  0  0
   23.2199  -12.9174  -17.9216 C   0  0  0  0  0  0  0  0  0  0  0  0
   23.9416  -11.6485  -17.5216 C   0  0  1  0  0  0  0  0  0  0  0  0
   22.9022  -10.6194  -17.2712 C   0  0  0  0  0  0  0  0  0  0  0  0
   22.2719  -10.1761  -18.2621 O   0  0  0  0  0  0  0  0  0  0  0  0
   21.6796   -9.5724  -13.3482 O   0  0  0  0  0  0  0  0  0  0  0  0
   20.8276   -9.4586  -14.4455 C   0  0  0  0  0  0  0  0  0  0  0  0
   21.6425   -9.1310  -15.6778 C   0  0  2  0  0  0  0  0  0  0  0  0
   22.6102  -10.1381  -15.9858 N   0  0  0  0  0  0  0  0  0  0  0  0
   22.3409   -7.8536  -15.4162 C   0  0  0  0  0  0  0  0  0  0  0  0
   23.5694   -7.8543  -15.1771 O   0  0  0  0  0  0  0  0  0  0  0  0
   21.7272   -4.8044  -17.6257 C   0  0  0  0  0  0  0  0  0  0  0  0
   21.5560   -4.4091  -16.1956 C   0  0  1  0  0  0  0  0  0  0  0  0
   20.2045   -4.4288  -15.8808 O   0  0  0  0  0  0  0  0  0  0  0  0
   22.2482   -5.4037  -15.2768 C   0  0  2  0  0  0  0  0  0  0  0  0
   21.5626   -6.6657  -15.4509 N   0  0  0  0  0  0  0  0  0  0  0  0
   22.0691   -5.0106  -13.8452 C   0  0  0  0  0  0  0  0  0  0  0  0
   21.3585   -5.6490  -13.0295 O   0  0  0  0  0  0  0  0  0  0  0  0
   22.7219   -3.8783  -13.3864 O   0  0  0  0  0  0  0  0  0  0  0  0
  1  2  1  0
  3  2  1  0
  4  5  1  0
  4  3  1  0
  5  1  1  0
  6 11  1  0
  5  6  1  1
  7  6  2  0
 10  9  1  1
  9  8  1  0
 10 12  1  0
 10 11  1  0
 12 18  1  0
 13 12  2  0
 15 16  1  0
 15 14  1  6
 17 19  1  0
 17 15  1  0
 17 18  1  1
 19 21  1  0
 20 19  2  0
M  END
$$$$
