PST.pdb
     RDKit          3D

 21 21  0  0  1  0  0  0  0  0999 V2000
   35.8451  -31.9118    1.6546 N   0  0  0  0  0  0  0  0  0  0  0  0
   36.2506  -32.4535    0.3703 C   0  0  0  0  0  0  0  0  0  0  0  0
   37.4415  -31.5386    0.0539 C   0  0  0  0  0  0  0  0  0  0  0  0
   38.1962  -31.6340    1.3776 C   0  0  0  0  0  0  0  0  0  0  0  0
   37.0762  -31.8284    2.3769 C   0  0  1  0  0  0  0  0  0  0  0  0
   37.1185  -30.6716    3.3054 C   0  0  0  0  0  0  0  0  0  0  0  0
   38.1658  -30.5021    3.9763 O   0  0  0  0  0  0  0  0  0  0  0  0
   35.2608  -27.1496    2.5224 O   0  0  0  0  0  0  0  0  0  0  0  0
   34.9929  -27.5957    3.8156 C   0  0  0  0  0  0  0  0  0  0  0  0
   36.0605  -28.5835    4.2336 C   0  0  2  0  0  0  0  0  0  0  0  0
   36.0440  -29.7809    3.4517 N   0  0  0  0  0  0  0  0  0  0  0  0
   35.8104  -28.9278    5.6502 C   0  0  0  0  0  0  0  0  0  0  0  0
   34.9323  -29.7714    5.9393 O   0  0  0  0  0  0  0  0  0  0  0  0
   38.6928  -29.2299    8.4457 C   0  0  0  0  0  0  0  0  0  0  0  0
   37.6193  -28.2457    8.7764 C   0  0  1  0  0  0  0  0  0  0  0  0
   38.0257  -26.9819    8.3718 O   0  0  0  0  0  0  0  0  0  0  0  0
   36.3402  -28.5720    8.0215 C   0  0  2  0  0  0  0  0  0  0  0  0
   36.5982  -28.2676    6.6308 N   0  0  0  0  0  0  0  0  0  0  0  0
   35.2271  -27.6744    8.4591 C   0  0  0  0  0  0  0  0  0  0  0  0
   34.6758  -26.8299    7.7103 O   0  0  0  0  0  0  0  0  0  0  0  0
   34.7738  -27.7755    9.7640 O   0  0  0  0  0  0  0  0  0  0  0  0
  1  2  1  0
  3  2  1  0
  4  5  1  0
  4  3  1  0
  5  1  1  0
  6 11  1  0
  5  6  1  1
  7  6  2  0
 10  9  1  6
  9  8  1  0
 10 12  1  0
 10 11  1  0
 12 18  1  0
 13 12  2  0
 15 16  1  0
 15 14  1  6
 17 19  1  0
 17 15  1  0
 17 18  1  6
 19 21  1  0
 20 19  2  0
M  END
$$$$
