PST.pdb
     RDKit          3D

 21 21  0  0  1  0  0  0  0  0999 V2000
   18.6833  -10.6411  -17.4868 N   0  0  0  0  0  0  0  0  0  0  0  0
   18.3173  -11.9402  -18.0213 C   0  0  0  0  0  0  0  0  0  0  0  0
   19.2727  -12.8397  -17.2254 C   0  0  0  0  0  0  0  0  0  0  0  0
   19.0084  -12.3114  -15.8177 C   0  0  0  0  0  0  0  0  0  0  0  0
   18.6780  -10.8566  -16.0734 C   0  0  1  0  0  0  0  0  0  0  0  0
   19.7030  -10.0489  -15.3667 C   0  0  0  0  0  0  0  0  0  0  0  0
   19.7801  -10.1691  -14.1196 O   0  0  0  0  0  0  0  0  0  0  0  0
   22.8865   -8.5542  -17.4282 O   0  0  0  0  0  0  0  0  0  0  0  0
   22.9736   -8.6903  -16.0437 C   0  0  0  0  0  0  0  0  0  0  0  0
   21.6182   -8.4153  -15.4293 C   0  0  2  0  0  0  0  0  0  0  0  0
   20.5697   -9.1735  -16.0386 N   0  0  0  0  0  0  0  0  0  0  0  0
   21.3390   -6.9738  -15.6078 C   0  0  0  0  0  0  0  0  0  0  0  0
   20.7911   -6.5722  -16.6590 O   0  0  0  0  0  0  0  0  0  0  0  0
   19.2205   -5.3107  -15.6585 C   0  0  0  0  0  0  0  0  0  0  0  0
   19.9151   -4.5505  -14.5768 C   0  0  1  0  0  0  0  0  0  0  0  0
   19.5538   -5.0834  -13.3473 O   0  0  0  0  0  0  0  0  0  0  0  0
   21.4239   -4.6919  -14.7045 C   0  0  2  0  0  0  0  0  0  0  0  0
   21.7159   -6.1008  -14.5525 N   0  0  0  0  0  0  0  0  0  0  0  0
   22.1156   -3.9855  -13.5826 C   0  0  0  0  0  0  0  0  0  0  0  0
   22.1804   -2.7353  -13.4793 O   0  0  0  0  0  0  0  0  0  0  0  0
   22.7214   -4.7484  -12.5979 O   0  0  0  0  0  0  0  0  0  0  0  0
  1  2  1  0
  3  2  1  0
  4  5  1  0
  4  3  1  0
  5  1  1  0
  6 11  1  0
  5  6  1  1
  7  6  2  0
 10  9  1  6
  9  8  1  0
 10 12  1  0
 10 11  1  0
 12 18  1  0
 13 12  2  0
 15 16  1  0
 15 14  1  6
 17 19  1  0
 17 15  1  0
 17 18  1  1
 19 21  1  0
 20 19  2  0
M  END
$$$$
