PST.pdb
     RDKit          3D

 21 21  0  0  1  0  0  0  0  0999 V2000
   20.6682  -12.6729  -16.5961 N   0  0  0  0  0  0  0  0  0  0  0  0
   20.2105  -13.9280  -17.1642 C   0  0  0  0  0  0  0  0  0  0  0  0
   19.0884  -13.4185  -18.0788 C   0  0  0  0  0  0  0  0  0  0  0  0
   19.8333  -12.2958  -18.7967 C   0  0  0  0  0  0  0  0  0  0  0  0
   20.8139  -11.8302  -17.7419 C   0  0  1  0  0  0  0  0  0  0  0  0
   20.4966  -10.4097  -17.4524 C   0  0  0  0  0  0  0  0  0  0  0  0
   20.6887   -9.5725  -18.3678 O   0  0  0  0  0  0  0  0  0  0  0  0
   19.0605   -9.1832  -13.6450 O   0  0  0  0  0  0  0  0  0  0  0  0
   18.5416   -8.6050  -14.8023 C   0  0  0  0  0  0  0  0  0  0  0  0
   19.5872   -8.6521  -15.8953 C   0  0  2  0  0  0  0  0  0  0  0  0
   19.9987   -9.9849  -16.2112 N   0  0  0  0  0  0  0  0  0  0  0  0
   20.7581   -7.8853  -15.4168 C   0  0  0  0  0  0  0  0  0  0  0  0
   21.6540   -8.4631  -14.7612 O   0  0  0  0  0  0  0  0  0  0  0  0
   23.0750   -3.5661  -15.5830 C   0  0  0  0  0  0  0  0  0  0  0  0
   21.9762   -4.4591  -16.0582 C   0  0  1  0  0  0  0  0  0  0  0  0
   22.2372   -4.8379  -17.3676 O   0  0  0  0  0  0  0  0  0  0  0  0
   21.9174   -5.7291  -15.2238 C   0  0  2  0  0  0  0  0  0  0  0  0
   20.8053   -6.5013  -15.7340 N   0  0  0  0  0  0  0  0  0  0  0  0
   21.6003   -5.4081  -13.7982 C   0  0  0  0  0  0  0  0  0  0  0  0
   20.4363   -5.2100  -13.3694 O   0  0  0  0  0  0  0  0  0  0  0  0
   22.6461   -5.3230  -12.8939 O   0  0  0  0  0  0  0  0  0  0  0  0
  1  2  1  0
  3  2  1  0
  4  5  1  0
  4  3  1  0
  5  1  1  0
  6 11  1  0
  5  6  1  1
  7  6  2  0
 10  9  1  1
  9  8  1  0
 10 12  1  0
 10 11  1  0
 12 18  1  0
 13 12  2  0
 15 16  1  0
 15 14  1  1
 17 19  1  0
 17 15  1  0
 17 18  1  6
 19 21  1  0
 20 19  2  0
M  END
$$$$
