PST.pdb
     RDKit          3D

 21 21  0  0  1  0  0  0  0  0999 V2000
   20.2884  -11.5372  -18.3053 N   0  0  0  0  0  0  0  0  0  0  0  0
   19.9530  -12.9044  -18.6596 C   0  0  0  0  0  0  0  0  0  0  0  0
   20.2782  -13.6145  -17.3385 C   0  0  0  0  0  0  0  0  0  0  0  0
   19.5335  -12.7018  -16.3673 C   0  0  0  0  0  0  0  0  0  0  0  0
   19.6288  -11.3543  -17.0501 C   0  0  1  0  0  0  0  0  0  0  0  0
   20.3769  -10.4569  -16.1350 C   0  0  0  0  0  0  0  0  0  0  0  0
   19.8605  -10.2018  -15.0197 O   0  0  0  0  0  0  0  0  0  0  0  0
   23.9564   -8.6353  -17.3757 O   0  0  0  0  0  0  0  0  0  0  0  0
   23.8584   -9.0022  -16.0345 C   0  0  0  0  0  0  0  0  0  0  0  0
   22.3996   -9.0433  -15.6339 C   0  0  2  0  0  0  0  0  0  0  0  0
   21.6183   -9.8975  -16.4739 N   0  0  0  0  0  0  0  0  0  0  0  0
   21.8782   -7.6624  -15.7304 C   0  0  0  0  0  0  0  0  0  0  0  0
   21.6347   -7.1668  -16.8536 O   0  0  0  0  0  0  0  0  0  0  0  0
   18.8726   -6.3566  -14.9741 C   0  0  0  0  0  0  0  0  0  0  0  0
   19.7788   -5.5993  -14.0599 C   0  0  1  0  0  0  0  0  0  0  0  0
   19.8089   -6.2346  -12.8264 O   0  0  0  0  0  0  0  0  0  0  0  0
   21.2009   -5.5911  -14.5985 C   0  0  2  0  0  0  0  0  0  0  0  0
   21.6766   -6.9549  -14.5152 N   0  0  0  0  0  0  0  0  0  0  0  0
   22.0913   -4.7703  -13.7213 C   0  0  0  0  0  0  0  0  0  0  0  0
   23.0394   -5.2461  -13.0484 O   0  0  0  0  0  0  0  0  0  0  0  0
   21.8624   -3.4066  -13.6422 O   0  0  0  0  0  0  0  0  0  0  0  0
  1  2  1  0
  3  2  1  0
  4  5  1  0
  4  3  1  0
  5  1  1  0
  6 11  1  0
  5  6  1  1
  7  6  2  0
 10  9  1  6
  9  8  1  0
 10 12  1  0
 10 11  1  0
 12 18  1  0
 13 12  2  0
 15 16  1  0
 15 14  1  6
 17 19  1  0
 17 15  1  0
 17 18  1  1
 19 21  1  0
 20 19  2  0
M  END
$$$$
