PST.pdb
     RDKit          3D

 21 21  0  0  1  0  0  0  0  0999 V2000
   24.5150  -32.1192   -9.1854 N   0  0  0  0  0  0  0  0  0  0  0  0
   24.4650  -32.4895  -10.5882 C   0  0  0  0  0  0  0  0  0  0  0  0
   25.3639  -33.7334  -10.5724 C   0  0  0  0  0  0  0  0  0  0  0  0
   24.7435  -34.4825   -9.3957 C   0  0  0  0  0  0  0  0  0  0  0  0
   24.2563  -33.3539   -8.5126 C   0  0  1  0  0  0  0  0  0  0  0  0
   24.9832  -33.4675   -7.2238 C   0  0  0  0  0  0  0  0  0  0  0  0
   26.0212  -32.7768   -7.0786 O   0  0  0  0  0  0  0  0  0  0  0  0
   24.8456  -34.7055   -2.5738 O   0  0  0  0  0  0  0  0  0  0  0  0
   24.2024  -34.7924   -3.8074 C   0  0  0  0  0  0  0  0  0  0  0  0
   25.1789  -34.4310   -4.9056 C   0  0  2  0  0  0  0  0  0  0  0  0
   24.5524  -34.3071   -6.1853 N   0  0  0  0  0  0  0  0  0  0  0  0
   26.1914  -35.5077   -4.9653 C   0  0  0  0  0  0  0  0  0  0  0  0
   25.9280  -36.5764   -5.5610 O   0  0  0  0  0  0  0  0  0  0  0  0
   29.4998  -35.0842   -6.3772 C   0  0  0  0  0  0  0  0  0  0  0  0
   29.7070  -35.5537   -4.9747 C   0  0  1  0  0  0  0  0  0  0  0  0
   29.9137  -34.4522   -4.1561 O   0  0  0  0  0  0  0  0  0  0  0  0
   28.4696  -36.2727   -4.4604 C   0  0  2  0  0  0  0  0  0  0  0  0
   27.4383  -35.2665   -4.3287 N   0  0  0  0  0  0  0  0  0  0  0  0
   28.7114  -36.8228   -3.0911 C   0  0  0  0  0  0  0  0  0  0  0  0
   28.1371  -36.3995   -2.0572 O   0  0  0  0  0  0  0  0  0  0  0  0
   29.6197  -37.8588   -2.9485 O   0  0  0  0  0  0  0  0  0  0  0  0
  1  2  1  0
  3  2  1  0
  4  5  1  0
  4  3  1  0
  5  1  1  0
  6 11  1  0
  5  6  1  1
  7  6  2  0
 10  9  1  1
  9  8  1  0
 10 12  1  0
 10 11  1  0
 12 18  1  0
 13 12  2  0
 15 16  1  0
 15 14  1  6
 17 19  1  0
 17 15  1  0
 17 18  1  1
 19 21  1  0
 20 19  2  0
M  END
$$$$
