PST.pdb
     RDKit          3D

 21 21  0  0  1  0  0  0  0  0999 V2000
   20.1787  -12.2017  -19.1785 N   0  0  0  0  0  0  0  0  0  0  0  0
   19.1224  -12.3636  -20.1610 C   0  0  0  0  0  0  0  0  0  0  0  0
   18.3384  -11.0641  -19.9328 C   0  0  0  0  0  0  0  0  0  0  0  0
   19.4890  -10.0613  -19.9690 C   0  0  0  0  0  0  0  0  0  0  0  0
   20.6420  -10.8698  -19.4140 C   0  0  1  0  0  0  0  0  0  0  0  0
   21.0894  -10.1907  -18.1727 C   0  0  0  0  0  0  0  0  0  0  0  0
   20.3573  -10.2920  -17.1580 O   0  0  0  0  0  0  0  0  0  0  0  0
   24.8271   -8.2583  -18.0026 O   0  0  0  0  0  0  0  0  0  0  0  0
   24.2808   -8.8022  -16.8411 C   0  0  0  0  0  0  0  0  0  0  0  0
   22.7710   -8.7777  -16.9412 C   0  0  2  0  0  0  0  0  0  0  0  0
   22.2818   -9.4543  -18.1024 N   0  0  0  0  0  0  0  0  0  0  0  0
   22.3572   -7.3587  -16.9984 C   0  0  0  0  0  0  0  0  0  0  0  0
   22.2480   -6.7871  -18.1064 O   0  0  0  0  0  0  0  0  0  0  0  0
   21.4371   -5.4960  -13.3498 C   0  0  0  0  0  0  0  0  0  0  0  0
   20.7846   -5.0832  -14.6283 C   0  0  1  0  0  0  0  0  0  0  0  0
   20.5086   -3.7241  -14.5756 O   0  0  0  0  0  0  0  0  0  0  0  0
   21.7199   -5.3088  -15.8060 C   0  0  2  0  0  0  0  0  0  0  0  0
   22.0995   -6.7043  -15.7642 N   0  0  0  0  0  0  0  0  0  0  0  0
   22.9766   -4.5157  -15.6396 C   0  0  0  0  0  0  0  0  0  0  0  0
   24.0628   -5.0043  -15.2403 O   0  0  0  0  0  0  0  0  0  0  0  0
   22.9474   -3.1642  -15.9416 O   0  0  0  0  0  0  0  0  0  0  0  0
  1  2  1  0
  3  2  1  0
  4  5  1  0
  4  3  1  0
  5  1  1  0
  6 11  1  0
  5  6  1  1
  7  6  2  0
 10  9  1  6
  9  8  1  0
 10 12  1  0
 10 11  1  0
 12 18  1  0
 13 12  2  0
 15 16  1  0
 15 14  1  1
 17 19  1  0
 17 15  1  0
 17 18  1  1
 19 21  1  0
 20 19  2  0
M  END
$$$$
