PST.pdb
     RDKit          3D

 21 21  0  0  1  0  0  0  0  0999 V2000
   31.5113  -33.1835    0.4976 N   0  0  0  0  0  0  0  0  0  0  0  0
   31.6149  -33.9401   -0.7370 C   0  0  0  0  0  0  0  0  0  0  0  0
   32.9043  -34.7269   -0.4653 C   0  0  0  0  0  0  0  0  0  0  0  0
   32.5857  -35.2676    0.9264 C   0  0  0  0  0  0  0  0  0  0  0  0
   31.7117  -34.1765    1.5066 C   0  0  1  0  0  0  0  0  0  0  0  0
   32.4158  -33.6464    2.7005 C   0  0  0  0  0  0  0  0  0  0  0  0
   32.5286  -34.4052    3.6940 O   0  0  0  0  0  0  0  0  0  0  0  0
   33.7361  -29.6911    2.7551 O   0  0  0  0  0  0  0  0  0  0  0  0
   34.5407  -30.6115    3.4249 C   0  0  0  0  0  0  0  0  0  0  0  0
   33.7015  -31.8021    3.8349 C   0  0  2  0  0  0  0  0  0  0  0  0
   32.9477  -32.3487    2.7492 N   0  0  0  0  0  0  0  0  0  0  0  0
   32.7692  -31.3415    4.8869 C   0  0  0  0  0  0  0  0  0  0  0  0
   31.6328  -30.9231    4.5708 O   0  0  0  0  0  0  0  0  0  0  0  0
   32.0454  -33.2075    8.1759 C   0  0  0  0  0  0  0  0  0  0  0  0
   32.5407  -31.8289    8.4670 C   0  0  1  0  0  0  0  0  0  0  0  0
   33.9055  -31.8824    8.7129 O   0  0  0  0  0  0  0  0  0  0  0  0
   32.3334  -30.9189    7.2663 C   0  0  2  0  0  0  0  0  0  0  0  0
   33.2233  -31.3995    6.2317 N   0  0  0  0  0  0  0  0  0  0  0  0
   32.7593  -29.5214    7.5853 C   0  0  0  0  0  0  0  0  0  0  0  0
   33.7656  -28.9655    7.0791 O   0  0  0  0  0  0  0  0  0  0  0  0
   32.0046  -28.7932    8.4901 O   0  0  0  0  0  0  0  0  0  0  0  0
  1  2  1  0
  3  2  1  0
  4  5  1  0
  4  3  1  0
  5  1  1  0
  6 11  1  0
  5  6  1  1
  7  6  2  0
 10  9  1  6
  9  8  1  0
 10 12  1  0
 10 11  1  0
 12 18  1  0
 13 12  2  0
 15 16  1  0
 15 14  1  6
 17 19  1  0
 17 15  1  0
 17 18  1  6
 19 21  1  0
 20 19  2  0
M  END
$$$$
