PST.pdb
     RDKit          3D

 21 21  0  0  1  0  0  0  0  0999 V2000
   14.8682  -22.3545   -1.4923 N   0  0  0  0  0  0  0  0  0  0  0  0
   14.1384  -23.4158   -2.1619 C   0  0  0  0  0  0  0  0  0  0  0  0
   14.3016  -24.5459   -1.1365 C   0  0  0  0  0  0  0  0  0  0  0  0
   13.8936  -23.8011    0.1322 C   0  0  0  0  0  0  0  0  0  0  0  0
   14.3435  -22.3864   -0.1626 C   0  0  1  0  0  0  0  0  0  0  0  0
   15.3568  -22.0316    0.8619 C   0  0  0  0  0  0  0  0  0  0  0  0
   16.5562  -22.3059    0.6133 O   0  0  0  0  0  0  0  0  0  0  0  0
   16.4390  -18.6124    3.1165 O   0  0  0  0  0  0  0  0  0  0  0  0
   15.5672  -19.5810    3.6112 C   0  0  0  0  0  0  0  0  0  0  0  0
   15.9512  -20.9320    3.0479 C   0  0  2  0  0  0  0  0  0  0  0  0
   15.0193  -21.4117    2.0747 N   0  0  0  0  0  0  0  0  0  0  0  0
   15.9999  -21.8827    4.1801 C   0  0  0  0  0  0  0  0  0  0  0  0
   14.9811  -22.5446    4.4803 O   0  0  0  0  0  0  0  0  0  0  0  0
   19.0078  -24.2957    7.1886 C   0  0  0  0  0  0  0  0  0  0  0  0
   18.7778  -23.3970    6.0181 C   0  0  1  0  0  0  0  0  0  0  0  0
   19.0789  -24.0880    4.8528 O   0  0  0  0  0  0  0  0  0  0  0  0
   17.3158  -22.9867    5.9350 C   0  0  2  0  0  0  0  0  0  0  0  0
   17.2289  -21.9969    4.8834 N   0  0  0  0  0  0  0  0  0  0  0  0
   16.8859  -22.3116    7.1981 C   0  0  0  0  0  0  0  0  0  0  0  0
   16.2533  -22.8882    8.1175 O   0  0  0  0  0  0  0  0  0  0  0  0
   17.2004  -20.9736    7.3697 O   0  0  0  0  0  0  0  0  0  0  0  0
  1  2  1  0
  3  2  1  0
  4  5  1  0
  4  3  1  0
  5  1  1  0
  6 11  1  0
  5  6  1  1
  7  6  2  0
 10  9  1  1
  9  8  1  0
 10 12  1  0
 10 11  1  0
 12 18  1  0
 13 12  2  0
 15 16  1  0
 15 14  1  1
 17 19  1  0
 17 15  1  0
 17 18  1  6
 19 21  1  0
 20 19  2  0
M  END
$$$$
