VYM.pdb
     RDKit          3D

 28 28  0  0  1  0  0  0  0  0999 V2000
   25.2377  -20.1359  -19.0020 C   0  0  0  0  0  0  0  0  0  0  0  0
   23.8044  -20.4307  -18.7122 C   0  0  2  0  0  0  0  0  0  0  0  0
   22.9402  -19.7648  -19.7317 C   0  0  0  0  0  0  0  0  0  0  0  0
   23.3886  -20.1611  -17.2948 C   0  0  2  0  0  0  0  0  0  0  0  0
   23.1412  -18.7571  -17.1566 N   0  0  0  0  0  0  0  0  0  0  0  0
   24.3983  -20.5977  -16.2979 C   0  0  0  0  0  0  0  0  0  0  0  0
   24.7784  -21.7907  -16.1925 O   0  0  0  0  0  0  0  0  0  0  0  0
   30.2545  -21.1879  -19.0428 O   0  0  0  0  0  0  0  0  0  0  0  0
   29.5216  -20.7258  -17.9496 C   0  0  0  0  0  0  0  0  0  0  0  0
   28.9832  -19.4485  -17.9244 C   0  0  0  0  0  0  0  0  0  0  0  0
   28.2566  -18.9913  -16.8401 C   0  0  0  0  0  0  0  0  0  0  0  0
   28.0358  -19.7881  -15.7345 C   0  0  0  0  0  0  0  0  0  0  0  0
   27.2541  -19.2483  -14.6145 C   0  0  0  0  0  0  0  0  0  0  0  0
   25.9360  -19.9811  -14.3886 C   0  0  2  0  0  0  0  0  0  0  0  0
   24.9790  -19.6428  -15.4084 N   0  0  0  0  0  0  0  0  0  0  0  0
   25.3360  -19.6989  -13.0670 C   0  0  0  0  0  0  0  0  0  0  0  0
   24.5908  -18.6995  -12.8968 O   0  0  0  0  0  0  0  0  0  0  0  0
   28.5668  -21.0556  -15.7528 C   0  0  0  0  0  0  0  0  0  0  0  0
   29.3017  -21.5216  -16.8465 C   0  0  0  0  0  0  0  0  0  0  0  0
   20.5347  -19.9992  -11.7389 C   0  0  0  0  0  0  0  0  0  0  0  0
   20.8207  -20.3241   -9.9635 S   0  0  0  0  0  0  0  0  0  0  0  0
   22.5950  -20.2332   -9.6474 C   0  0  0  0  0  0  0  0  0  0  0  0
   23.4225  -20.4826  -10.8855 C   0  0  0  0  0  0  0  0  0  0  0  0
   24.9168  -20.3047  -10.6361 C   0  0  2  0  0  0  0  0  0  0  0  0
   25.5626  -20.5357  -11.9203 N   0  0  0  0  0  0  0  0  0  0  0  0
   25.2845  -21.3231   -9.6210 C   0  0  0  0  0  0  0  0  0  0  0  0
   25.2696  -21.0222   -8.2761 O   0  0  0  0  0  0  0  0  0  0  0  0
   25.6155  -22.4726   -9.9630 O   0  0  0  0  0  0  0  0  0  0  0  0
  2  1  1  1
  3  2  1  0
  4  5  1  6
  4  2  1  0
  6  4  1  0
  7  6  2  0
  9 10  2  0
  9  8  1  0
 11 10  1  0
 12 11  2  0
 14 13  1  6
 13 12  1  0
 14 15  1  0
 15  6  1  0
 16 17  2  0
 16 14  1  0
 18 12  1  0
 18 19  2  0
 19  9  1  0
 20 21  1  0
 21 22  1  0
 24 23  1  6
 23 22  1  0
 24 25  1  0
 25 16  1  0
 26 24  1  0
 27 26  1  0
 28 26  2  0
M  END
$$$$
