VYM.pdb
     RDKit          3D

 28 28  0  0  1  0  0  0  0  0999 V2000
   26.6966  -18.8119  -17.1343 C   0  0  0  0  0  0  0  0  0  0  0  0
   28.0501  -19.3459  -16.8052 C   0  0  2  0  0  0  0  0  0  0  0  0
   28.5621  -20.1535  -17.9521 C   0  0  0  0  0  0  0  0  0  0  0  0
   28.1359  -20.0493  -15.4814 C   0  0  2  0  0  0  0  0  0  0  0  0
   28.0502  -21.4599  -15.7137 N   0  0  0  0  0  0  0  0  0  0  0  0
   27.0788  -19.6282  -14.5279 C   0  0  0  0  0  0  0  0  0  0  0  0
   26.9636  -18.4457  -14.1187 O   0  0  0  0  0  0  0  0  0  0  0  0
   19.5055  -19.2517  -10.0624 O   0  0  0  0  0  0  0  0  0  0  0  0
   20.5466  -19.6142  -10.9171 C   0  0  0  0  0  0  0  0  0  0  0  0
   20.8762  -18.8486  -12.0248 C   0  0  0  0  0  0  0  0  0  0  0  0
   21.9087  -19.2088  -12.8717 C   0  0  0  0  0  0  0  0  0  0  0  0
   22.6566  -20.3479  -12.6501 C   0  0  0  0  0  0  0  0  0  0  0  0
   23.7423  -20.6773  -13.5825 C   0  0  0  0  0  0  0  0  0  0  0  0
   25.1223  -20.2828  -13.0672 C   0  0  2  0  0  0  0  0  0  0  0  0
   26.1393  -20.5864  -14.0386 N   0  0  0  0  0  0  0  0  0  0  0  0
   25.4751  -20.9442  -11.7928 C   0  0  0  0  0  0  0  0  0  0  0  0
   25.7650  -22.1682  -11.7597 O   0  0  0  0  0  0  0  0  0  0  0  0
   22.3351  -21.1116  -11.5537 C   0  0  0  0  0  0  0  0  0  0  0  0
   21.2926  -20.7512  -10.6954 C   0  0  0  0  0  0  0  0  0  0  0  0
   28.8108  -18.4448   -7.0587 C   0  0  0  0  0  0  0  0  0  0  0  0
   27.6736  -19.3659   -5.9642 S   0  0  0  0  0  0  0  0  0  0  0  0
   26.6745  -20.4707   -6.9829 C   0  0  0  0  0  0  0  0  0  0  0  0
   26.4618  -19.9430   -8.3816 C   0  0  0  0  0  0  0  0  0  0  0  0
   25.6825  -20.9152   -9.2613 C   0  0  2  0  0  0  0  0  0  0  0  0
   25.5094  -20.2405  -10.5398 N   0  0  0  0  0  0  0  0  0  0  0  0
   24.3947  -21.1540   -8.5631 C   0  0  0  0  0  0  0  0  0  0  0  0
   23.2277  -20.5706   -9.0073 O   0  0  0  0  0  0  0  0  0  0  0  0
   24.3410  -21.8871   -7.5593 O   0  0  0  0  0  0  0  0  0  0  0  0
  2  1  1  6
  3  2  1  0
  4  5  1  6
  4  2  1  0
  6  4  1  0
  7  6  2  0
  9 10  2  0
  9  8  1  0
 11 10  1  0
 12 11  2  0
 14 13  1  6
 13 12  1  0
 14 15  1  0
 15  6  1  0
 16 17  2  0
 16 14  1  0
 18 12  1  0
 18 19  2  0
 19  9  1  0
 20 21  1  0
 21 22  1  0
 24 23  1  1
 23 22  1  0
 24 25  1  0
 25 16  1  0
 26 24  1  0
 27 26  1  0
 28 26  2  0
M  END
$$$$
