VYM.pdb
     RDKit          3D

 28 28  0  0  1  0  0  0  0  0999 V2000
   22.2834  -30.6107  -12.6800 C   0  0  0  0  0  0  0  0  0  0  0  0
   20.9546  -30.2264  -12.1215 C   0  0  2  0  0  0  0  0  0  0  0  0
   20.3813  -29.1033  -12.9213 C   0  0  0  0  0  0  0  0  0  0  0  0
   20.9503  -29.9807  -10.6403 C   0  0  2  0  0  0  0  0  0  0  0  0
   21.5840  -28.7209  -10.3902 N   0  0  0  0  0  0  0  0  0  0  0  0
   21.6310  -31.0516   -9.8697 C   0  0  0  0  0  0  0  0  0  0  0  0
   21.3097  -32.2631   -9.9590 O   0  0  0  0  0  0  0  0  0  0  0  0
   28.1064  -35.6392  -10.1049 O   0  0  0  0  0  0  0  0  0  0  0  0
   27.3190  -34.6016   -9.6057 C   0  0  0  0  0  0  0  0  0  0  0  0
   26.8419  -33.5925  -10.4278 C   0  0  0  0  0  0  0  0  0  0  0  0
   26.0611  -32.5642   -9.9320 C   0  0  0  0  0  0  0  0  0  0  0  0
   25.7228  -32.4982   -8.5951 C   0  0  0  0  0  0  0  0  0  0  0  0
   24.8886  -31.3836   -8.1277 C   0  0  0  0  0  0  0  0  0  0  0  0
   23.3946  -31.6860   -8.1735 C   0  0  2  0  0  0  0  0  0  0  0  0
   22.6996  -30.7198   -8.9820 N   0  0  0  0  0  0  0  0  0  0  0  0
   22.7691  -31.7171   -6.8341 C   0  0  0  0  0  0  0  0  0  0  0  0
   22.2054  -30.6964   -6.3613 O   0  0  0  0  0  0  0  0  0  0  0  0
   26.1926  -33.4954   -7.7744 C   0  0  0  0  0  0  0  0  0  0  0  0
   26.9818  -34.5364   -8.2713 C   0  0  0  0  0  0  0  0  0  0  0  0
   19.1234  -31.9809   -1.1122 C   0  0  0  0  0  0  0  0  0  0  0  0
   20.2713  -31.7962   -2.5220 S   0  0  0  0  0  0  0  0  0  0  0  0
   19.6832  -32.8364   -3.8741 C   0  0  0  0  0  0  0  0  0  0  0  0
   20.5764  -32.7747   -5.0899 C   0  0  0  0  0  0  0  0  0  0  0  0
   22.0493  -32.9685   -4.7441 C   0  0  2  0  0  0  0  0  0  0  0  0
   22.7660  -32.8944   -6.0093 N   0  0  0  0  0  0  0  0  0  0  0  0
   22.1465  -34.3072   -4.1106 C   0  0  0  0  0  0  0  0  0  0  0  0
   22.4238  -34.4381   -2.7669 O   0  0  0  0  0  0  0  0  0  0  0  0
   21.9800  -35.3423   -4.7806 O   0  0  0  0  0  0  0  0  0  0  0  0
  2  1  1  6
  3  2  1  0
  4  5  1  6
  4  2  1  0
  6  4  1  0
  7  6  2  0
  9 10  2  0
  9  8  1  0
 11 10  1  0
 12 11  2  0
 14 13  1  1
 13 12  1  0
 14 15  1  0
 15  6  1  0
 16 17  2  0
 16 14  1  0
 18 12  1  0
 18 19  2  0
 19  9  1  0
 20 21  1  0
 21 22  1  0
 24 23  1  6
 23 22  1  0
 24 25  1  0
 25 16  1  0
 26 24  1  0
 27 26  1  0
 28 26  2  0
M  END
$$$$
