VYM.pdb
     RDKit          3D

 28 28  0  0  1  0  0  0  0  0999 V2000
   27.0120  -16.3881  -15.4473 C   0  0  0  0  0  0  0  0  0  0  0  0
   26.1235  -15.4464  -16.1884 C   0  0  2  0  0  0  0  0  0  0  0  0
   26.1161  -14.1202  -15.5020 C   0  0  0  0  0  0  0  0  0  0  0  0
   24.7531  -15.9855  -16.4818 C   0  0  2  0  0  0  0  0  0  0  0  0
   24.8970  -17.2482  -17.1422 N   0  0  0  0  0  0  0  0  0  0  0  0
   23.9322  -15.0699  -17.3134 C   0  0  0  0  0  0  0  0  0  0  0  0
   24.1545  -14.8774  -18.5351 O   0  0  0  0  0  0  0  0  0  0  0  0
   18.3130  -17.4584  -14.0914 O   0  0  0  0  0  0  0  0  0  0  0  0
   18.8987  -16.6006  -15.0224 C   0  0  0  0  0  0  0  0  0  0  0  0
   19.8317  -17.0551  -15.9416 C   0  0  0  0  0  0  0  0  0  0  0  0
   20.4119  -16.2038  -16.8643 C   0  0  0  0  0  0  0  0  0  0  0  0
   20.0865  -14.8629  -16.9100 C   0  0  0  0  0  0  0  0  0  0  0  0
   20.7337  -14.0087  -17.9141 C   0  0  0  0  0  0  0  0  0  0  0  0
   22.0433  -13.3942  -17.4317 C   0  0  2  0  0  0  0  0  0  0  0  0
   22.8372  -14.3652  -16.7266 N   0  0  0  0  0  0  0  0  0  0  0  0
   21.8435  -12.2215  -16.5536 C   0  0  0  0  0  0  0  0  0  0  0  0
   21.8864  -12.3381  -15.3016 O   0  0  0  0  0  0  0  0  0  0  0  0
   19.1623  -14.4055  -16.0015 C   0  0  0  0  0  0  0  0  0  0  0  0
   18.5735  -15.2624  -15.0673 C   0  0  0  0  0  0  0  0  0  0  0  0
   26.3064   -9.9822  -14.1872 C   0  0  0  0  0  0  0  0  0  0  0  0
   25.8336   -8.6101  -15.2977 S   0  0  0  0  0  0  0  0  0  0  0  0
   24.0339   -8.5778  -15.4270 C   0  0  0  0  0  0  0  0  0  0  0  0
   23.4881   -9.7086  -16.2657 C   0  0  0  0  0  0  0  0  0  0  0  0
   21.9651   -9.6926  -16.3491 C   0  0  2  0  0  0  0  0  0  0  0  0
   21.5955  -10.9027  -17.0692 N   0  0  0  0  0  0  0  0  0  0  0  0
   21.6106   -8.4566  -17.0904 C   0  0  0  0  0  0  0  0  0  0  0  0
   21.7193   -7.2173  -16.4971 O   0  0  0  0  0  0  0  0  0  0  0  0
   21.2061   -8.5128  -18.2657 O   0  0  0  0  0  0  0  0  0  0  0  0
  2  1  1  1
  3  2  1  0
  4  5  1  6
  4  2  1  0
  6  4  1  0
  7  6  2  0
  9 10  2  0
  9  8  1  0
 11 10  1  0
 12 11  2  0
 14 13  1  1
 13 12  1  0
 14 15  1  0
 15  6  1  0
 16 17  2  0
 16 14  1  0
 18 12  1  0
 18 19  2  0
 19  9  1  0
 20 21  1  0
 21 22  1  0
 24 23  1  6
 23 22  1  0
 24 25  1  0
 25 16  1  0
 26 24  1  0
 27 26  1  0
 28 26  2  0
M  END
$$$$
