VYM.pdb
     RDKit          3D

 28 28  0  0  1  0  0  0  0  0999 V2000
   23.8633  -15.6140  -16.0571 C   0  0  0  0  0  0  0  0  0  0  0  0
   24.1974  -14.2115  -15.6740 C   0  0  2  0  0  0  0  0  0  0  0  0
   22.9668  -13.3682  -15.7389 C   0  0  0  0  0  0  0  0  0  0  0  0
   25.3713  -13.6296  -16.4074 C   0  0  2  0  0  0  0  0  0  0  0  0
   26.4973  -14.4932  -16.2137 N   0  0  0  0  0  0  0  0  0  0  0  0
   25.7084  -12.2521  -15.9685 C   0  0  0  0  0  0  0  0  0  0  0  0
   26.3840  -12.0132  -14.9363 O   0  0  0  0  0  0  0  0  0  0  0  0
   31.4236  -12.0759  -18.0853 O   0  0  0  0  0  0  0  0  0  0  0  0
   30.2192  -11.3841  -17.9559 C   0  0  0  0  0  0  0  0  0  0  0  0
   30.1247  -10.2266  -17.1990 C   0  0  0  0  0  0  0  0  0  0  0  0
   28.9302   -9.5413  -17.0714 C   0  0  0  0  0  0  0  0  0  0  0  0
   27.7787   -9.9811  -17.6932 C   0  0  0  0  0  0  0  0  0  0  0  0
   26.5406   -9.2098  -17.5232 C   0  0  0  0  0  0  0  0  0  0  0  0
   25.6226   -9.7705  -16.4423 C   0  0  2  0  0  0  0  0  0  0  0  0
   25.2592  -11.1320  -16.7326 N   0  0  0  0  0  0  0  0  0  0  0  0
   24.3857   -8.9798  -16.2660 C   0  0  0  0  0  0  0  0  0  0  0  0
   23.3591   -9.2267  -16.9502 O   0  0  0  0  0  0  0  0  0  0  0  0
   27.8652  -11.1282  -18.4453 C   0  0  0  0  0  0  0  0  0  0  0  0
   29.0704  -11.8237  -18.5768 C   0  0  0  0  0  0  0  0  0  0  0  0
   22.0574   -3.2943  -18.1775 C   0  0  0  0  0  0  0  0  0  0  0  0
   21.1737   -4.8903  -18.0725 S   0  0  0  0  0  0  0  0  0  0  0  0
   21.5313   -5.6337  -16.4676 C   0  0  0  0  0  0  0  0  0  0  0  0
   22.7197   -6.5643  -16.5065 C   0  0  0  0  0  0  0  0  0  0  0  0
   23.0655   -7.1293  -15.1325 C   0  0  2  0  0  0  0  0  0  0  0  0
   24.2843   -7.9037  -15.3183 N   0  0  0  0  0  0  0  0  0  0  0  0
   21.9094   -7.9712  -14.7354 C   0  0  0  0  0  0  0  0  0  0  0  0
   22.0284   -9.3410  -14.6402 O   0  0  0  0  0  0  0  0  0  0  0  0
   20.8055   -7.4574  -14.4799 O   0  0  0  0  0  0  0  0  0  0  0  0
  2  1  1  6
  3  2  1  0
  4  5  1  1
  4  2  1  0
  6  4  1  0
  7  6  2  0
  9 10  2  0
  9  8  1  0
 11 10  1  0
 12 11  2  0
 14 13  1  6
 13 12  1  0
 14 15  1  0
 15  6  1  0
 16 17  2  0
 16 14  1  0
 18 12  1  0
 18 19  2  0
 19  9  1  0
 20 21  1  0
 21 22  1  0
 24 23  1  6
 23 22  1  0
 24 25  1  0
 25 16  1  0
 26 24  1  0
 27 26  1  0
 28 26  2  0
M  END
$$$$
