VYM.pdb
     RDKit          3D

 28 28  0  0  1  0  0  0  0  0999 V2000
   28.9016  -23.2430  -16.2072 C   0  0  0  0  0  0  0  0  0  0  0  0
   28.0004  -22.6909  -17.2600 C   0  0  2  0  0  0  0  0  0  0  0  0
   28.8029  -22.3274  -18.4656 C   0  0  0  0  0  0  0  0  0  0  0  0
   27.0877  -21.5969  -16.7860 C   0  0  2  0  0  0  0  0  0  0  0  0
   27.8206  -20.3664  -16.7862 N   0  0  0  0  0  0  0  0  0  0  0  0
   26.5254  -21.8509  -15.4357 C   0  0  0  0  0  0  0  0  0  0  0  0
   25.7956  -22.8408  -15.1780 O   0  0  0  0  0  0  0  0  0  0  0  0
   25.1410  -20.6361   -6.6745 O   0  0  0  0  0  0  0  0  0  0  0  0
   25.6266  -20.6178   -7.9820 C   0  0  0  0  0  0  0  0  0  0  0  0
   26.8821  -20.1128   -8.2830 C   0  0  0  0  0  0  0  0  0  0  0  0
   27.3627  -20.0951   -9.5797 C   0  0  0  0  0  0  0  0  0  0  0  0
   26.6118  -20.5802  -10.6318 C   0  0  0  0  0  0  0  0  0  0  0  0
   27.1766  -20.5375  -11.9868 C   0  0  0  0  0  0  0  0  0  0  0  0
   26.2199  -21.0516  -13.0571 C   0  0  2  0  0  0  0  0  0  0  0  0
   26.8097  -20.9488  -14.3654 N   0  0  0  0  0  0  0  0  0  0  0  0
   24.9247  -20.3384  -13.0666 C   0  0  0  0  0  0  0  0  0  0  0  0
   24.8599  -19.1227  -13.3844 O   0  0  0  0  0  0  0  0  0  0  0  0
   25.3661  -21.0823  -10.3406 C   0  0  0  0  0  0  0  0  0  0  0  0
   24.8766  -21.1021   -9.0315 C   0  0  0  0  0  0  0  0  0  0  0  0
   21.8628  -18.5078  -17.2636 C   0  0  0  0  0  0  0  0  0  0  0  0
   20.4979  -19.3783  -16.4157 S   0  0  0  0  0  0  0  0  0  0  0  0
   20.8671  -19.4309  -14.6501 C   0  0  0  0  0  0  0  0  0  0  0  0
   22.1605  -20.1476  -14.3448 C   0  0  0  0  0  0  0  0  0  0  0  0
   22.3942  -20.3204  -12.8474 C   0  0  2  0  0  0  0  0  0  0  0  0
   23.6857  -20.9806  -12.7220 N   0  0  0  0  0  0  0  0  0  0  0  0
   21.2738  -21.1598  -12.3544 C   0  0  0  0  0  0  0  0  0  0  0  0
   20.1612  -20.5892  -11.7746 O   0  0  0  0  0  0  0  0  0  0  0  0
   21.3153  -22.3994  -12.4535 O   0  0  0  0  0  0  0  0  0  0  0  0
  2  1  1  1
  3  2  1  0
  4  5  1  1
  4  2  1  0
  6  4  1  0
  7  6  2  0
  9 10  2  0
  9  8  1  0
 11 10  1  0
 12 11  2  0
 14 13  1  1
 13 12  1  0
 14 15  1  0
 15  6  1  0
 16 17  2  0
 16 14  1  0
 18 12  1  0
 18 19  2  0
 19  9  1  0
 20 21  1  0
 21 22  1  0
 24 23  1  6
 23 22  1  0
 24 25  1  0
 25 16  1  0
 26 24  1  0
 27 26  1  0
 28 26  2  0
M  END
$$$$
