VYM.pdb
     RDKit          3D

 28 28  0  0  1  0  0  0  0  0999 V2000
   26.1704  -19.5999  -18.3815 C   0  0  0  0  0  0  0  0  0  0  0  0
   27.5325  -19.3076  -17.8481 C   0  0  2  0  0  0  0  0  0  0  0  0
   28.3878  -18.7499  -18.9377 C   0  0  0  0  0  0  0  0  0  0  0  0
   28.1657  -20.4468  -17.1024 C   0  0  2  0  0  0  0  0  0  0  0  0
   28.3940  -21.5183  -18.0248 N   0  0  0  0  0  0  0  0  0  0  0  0
   27.3436  -20.9263  -15.9629 C   0  0  0  0  0  0  0  0  0  0  0  0
   26.4262  -21.7746  -16.0956 O   0  0  0  0  0  0  0  0  0  0  0  0
   24.2089  -21.0124   -7.5832 O   0  0  0  0  0  0  0  0  0  0  0  0
   25.0006  -20.8482   -8.7199 C   0  0  0  0  0  0  0  0  0  0  0  0
   25.1997  -19.6012   -9.2917 C   0  0  0  0  0  0  0  0  0  0  0  0
   25.9849  -19.4393  -10.4187 C   0  0  0  0  0  0  0  0  0  0  0  0
   26.6051  -20.5142  -11.0237 C   0  0  0  0  0  0  0  0  0  0  0  0
   27.4290  -20.2797  -12.2166 C   0  0  0  0  0  0  0  0  0  0  0  0
   26.7605  -20.7302  -13.5111 C   0  0  2  0  0  0  0  0  0  0  0  0
   27.5838  -20.4193  -14.6494 N   0  0  0  0  0  0  0  0  0  0  0  0
   25.4268  -20.1254  -13.7147 C   0  0  0  0  0  0  0  0  0  0  0  0
   25.3089  -18.9742  -14.2085 O   0  0  0  0  0  0  0  0  0  0  0  0
   26.4119  -21.7535  -10.4620 C   0  0  0  0  0  0  0  0  0  0  0  0
   25.6193  -21.9215   -9.3232 C   0  0  0  0  0  0  0  0  0  0  0  0
   21.6786  -20.8668  -17.7893 C   0  0  0  0  0  0  0  0  0  0  0  0
   21.1016  -19.2517  -17.1586 S   0  0  0  0  0  0  0  0  0  0  0  0
   21.6313  -19.0899  -15.4412 C   0  0  0  0  0  0  0  0  0  0  0  0
   22.7278  -20.0609  -15.0740 C   0  0  0  0  0  0  0  0  0  0  0  0
   22.8926  -20.2139  -13.5653 C   0  0  2  0  0  0  0  0  0  0  0  0
   24.2084  -20.8054  -13.3690 N   0  0  0  0  0  0  0  0  0  0  0  0
   21.7933  -21.1080  -13.1239 C   0  0  0  0  0  0  0  0  0  0  0  0
   20.5866  -20.5936  -12.7010 O   0  0  0  0  0  0  0  0  0  0  0  0
   21.9379  -22.3437  -13.1255 O   0  0  0  0  0  0  0  0  0  0  0  0
  2  1  1  6
  3  2  1  0
  4  5  1  6
  4  2  1  0
  6  4  1  0
  7  6  2  0
  9 10  2  0
  9  8  1  0
 11 10  1  0
 12 11  2  0
 14 13  1  1
 13 12  1  0
 14 15  1  0
 15  6  1  0
 16 17  2  0
 16 14  1  0
 18 12  1  0
 18 19  2  0
 19  9  1  0
 20 21  1  0
 21 22  1  0
 24 23  1  6
 23 22  1  0
 24 25  1  0
 25 16  1  0
 26 24  1  0
 27 26  1  0
 28 26  2  0
M  END
$$$$
