VYM.pdb
     RDKit          3D

 28 28  0  0  1  0  0  0  0  0999 V2000
   25.6531  -18.8673  -18.9844 C   0  0  0  0  0  0  0  0  0  0  0  0
   27.0755  -18.5659  -18.6510 C   0  0  2  0  0  0  0  0  0  0  0  0
   27.7403  -17.9269  -19.8255 C   0  0  0  0  0  0  0  0  0  0  0  0
   27.8388  -19.7251  -18.0780 C   0  0  2  0  0  0  0  0  0  0  0  0
   27.9809  -20.7201  -19.0982 N   0  0  0  0  0  0  0  0  0  0  0  0
   27.1891  -20.3164  -16.8812 C   0  0  0  0  0  0  0  0  0  0  0  0
   26.3462  -21.2453  -16.9540 O   0  0  0  0  0  0  0  0  0  0  0  0
   24.9561  -20.8247   -8.2305 O   0  0  0  0  0  0  0  0  0  0  0  0
   25.6218  -20.6014   -9.4358 C   0  0  0  0  0  0  0  0  0  0  0  0
   25.6852  -19.3399  -10.0071 C   0  0  0  0  0  0  0  0  0  0  0  0
   26.3455  -19.1195  -11.2021 C   0  0  0  0  0  0  0  0  0  0  0  0
   26.9709  -20.1477  -11.8787 C   0  0  0  0  0  0  0  0  0  0  0  0
   27.6587  -19.8518  -13.1421 C   0  0  0  0  0  0  0  0  0  0  0  0
   26.8623  -20.2650  -14.3751 C   0  0  2  0  0  0  0  0  0  0  0  0
   27.5172  -19.8284  -15.5796 N   0  0  0  0  0  0  0  0  0  0  0  0
   25.4798  -19.7407  -14.3737 C   0  0  0  0  0  0  0  0  0  0  0  0
   25.2357  -18.5637  -14.7455 O   0  0  0  0  0  0  0  0  0  0  0  0
   26.9119  -21.4010  -11.3180 C   0  0  0  0  0  0  0  0  0  0  0  0
   26.2457  -21.6281  -10.1105 C   0  0  0  0  0  0  0  0  0  0  0  0
   21.5734  -20.1417  -18.1308 C   0  0  0  0  0  0  0  0  0  0  0  0
   20.5081  -19.1204  -17.0531 S   0  0  0  0  0  0  0  0  0  0  0  0
   21.1191  -19.2522  -15.3602 C   0  0  0  0  0  0  0  0  0  0  0  0
   22.5321  -19.7797  -15.2884 C   0  0  0  0  0  0  0  0  0  0  0  0
   23.0060  -19.9895  -13.8539 C   0  0  2  0  0  0  0  0  0  0  0  0
   24.3535  -20.5309  -13.9574 N   0  0  0  0  0  0  0  0  0  0  0  0
   22.0507  -20.9486  -13.2453 C   0  0  0  0  0  0  0  0  0  0  0  0
   22.4228  -22.2488  -12.9795 O   0  0  0  0  0  0  0  0  0  0  0  0
   20.8908  -20.5990  -12.9619 O   0  0  0  0  0  0  0  0  0  0  0  0
  2  1  1  6
  3  2  1  0
  4  5  1  6
  4  2  1  0
  6  4  1  0
  7  6  2  0
  9 10  2  0
  9  8  1  0
 11 10  1  0
 12 11  2  0
 14 13  1  1
 13 12  1  0
 14 15  1  0
 15  6  1  0
 16 17  2  0
 16 14  1  0
 18 12  1  0
 18 19  2  0
 19  9  1  0
 20 21  1  0
 21 22  1  0
 24 23  1  6
 23 22  1  0
 24 25  1  0
 25 16  1  0
 26 24  1  0
 27 26  1  0
 28 26  2  0
M  END
$$$$
