VYM.pdb
     RDKit          3D

 28 28  0  0  1  0  0  0  0  0999 V2000
   24.0630  -21.2994  -11.1054 C   0  0  0  0  0  0  0  0  0  0  0  0
   25.5194  -21.5959  -10.9778 C   0  0  2  0  0  0  0  0  0  0  0  0
   25.7362  -22.5722   -9.8689 C   0  0  0  0  0  0  0  0  0  0  0  0
   26.3964  -20.3799  -10.8960 C   0  0  2  0  0  0  0  0  0  0  0  0
   26.2814  -19.8285   -9.5792 N   0  0  0  0  0  0  0  0  0  0  0  0
   26.0582  -19.3480  -11.9082 C   0  0  0  0  0  0  0  0  0  0  0  0
   25.0986  -18.5485  -11.7703 O   0  0  0  0  0  0  0  0  0  0  0  0
   26.9489  -14.4197  -19.2798 O   0  0  0  0  0  0  0  0  0  0  0  0
   27.1738  -15.2574  -18.1874 C   0  0  0  0  0  0  0  0  0  0  0  0
   27.0794  -14.7927  -16.8848 C   0  0  0  0  0  0  0  0  0  0  0  0
   27.3025  -15.6241  -15.8023 C   0  0  0  0  0  0  0  0  0  0  0  0
   27.6294  -16.9546  -15.9725 C   0  0  0  0  0  0  0  0  0  0  0  0
   27.8520  -17.7890  -14.7847 C   0  0  0  0  0  0  0  0  0  0  0  0
   26.5607  -18.2952  -14.1509 C   0  0  2  0  0  0  0  0  0  0  0  0
   26.8395  -19.2362  -13.0987 N   0  0  0  0  0  0  0  0  0  0  0  0
   25.6493  -18.9334  -15.1247 C   0  0  0  0  0  0  0  0  0  0  0  0
   25.6703  -20.1780  -15.3083 O   0  0  0  0  0  0  0  0  0  0  0  0
   27.7247  -17.4220  -17.2614 C   0  0  0  0  0  0  0  0  0  0  0  0
   27.5001  -16.5852  -18.3581 C   0  0  0  0  0  0  0  0  0  0  0  0
   21.2885  -22.3080  -14.1934 C   0  0  0  0  0  0  0  0  0  0  0  0
   20.4347  -20.8733  -14.9367 S   0  0  0  0  0  0  0  0  0  0  0  0
   21.5201  -20.1490  -16.1831 C   0  0  0  0  0  0  0  0  0  0  0  0
   22.6820  -19.3966  -15.5799 C   0  0  0  0  0  0  0  0  0  0  0  0
   23.6126  -18.8118  -16.6376 C   0  0  2  0  0  0  0  0  0  0  0  0
   24.7015  -18.1837  -15.9030 N   0  0  0  0  0  0  0  0  0  0  0  0
   22.7987  -17.8323  -17.3998 C   0  0  0  0  0  0  0  0  0  0  0  0
   22.3343  -18.1264  -18.6637 O   0  0  0  0  0  0  0  0  0  0  0  0
   22.5180  -16.7221  -16.9134 O   0  0  0  0  0  0  0  0  0  0  0  0
  2  1  1  1
  3  2  1  0
  4  5  1  1
  4  2  1  0
  6  4  1  0
  7  6  2  0
  9 10  2  0
  9  8  1  0
 11 10  1  0
 12 11  2  0
 14 13  1  6
 13 12  1  0
 14 15  1  0
 15  6  1  0
 16 17  2  0
 16 14  1  0
 18 12  1  0
 18 19  2  0
 19  9  1  0
 20 21  1  0
 21 22  1  0
 24 23  1  1
 23 22  1  0
 24 25  1  0
 25 16  1  0
 26 24  1  0
 27 26  1  0
 28 26  2  0
M  END
$$$$
