VYM.pdb
     RDKit          3D

 28 28  0  0  1  0  0  0  0  0999 V2000
   20.6074  -12.8373    5.3550 C   0  0  0  0  0  0  0  0  0  0  0  0
   19.4243  -11.9339    5.4532 C   0  0  2  0  0  0  0  0  0  0  0  0
   19.3946  -11.2926    6.8014 C   0  0  0  0  0  0  0  0  0  0  0  0
   18.1231  -12.5681    5.0540 C   0  0  2  0  0  0  0  0  0  0  0  0
   17.1138  -11.5523    5.0333 N   0  0  0  0  0  0  0  0  0  0  0  0
   17.7116  -13.6723    5.9570 C   0  0  0  0  0  0  0  0  0  0  0  0
   17.2057  -13.4720    7.0897 O   0  0  0  0  0  0  0  0  0  0  0  0
   17.9479  -18.9974    0.6107 O   0  0  0  0  0  0  0  0  0  0  0  0
   17.5892  -18.5058    1.8659 C   0  0  0  0  0  0  0  0  0  0  0  0
   17.9508  -19.1616    3.0326 C   0  0  0  0  0  0  0  0  0  0  0  0
   17.5948  -18.6734    4.2767 C   0  0  0  0  0  0  0  0  0  0  0  0
   16.8629  -17.5105    4.4106 C   0  0  0  0  0  0  0  0  0  0  0  0
   16.5171  -17.0400    5.7581 C   0  0  0  0  0  0  0  0  0  0  0  0
   17.5930  -16.1607    6.3861 C   0  0  2  0  0  0  0  0  0  0  0  0
   17.8862  -15.0293    5.5469 N   0  0  0  0  0  0  0  0  0  0  0  0
   18.8522  -16.8883    6.6532 C   0  0  0  0  0  0  0  0  0  0  0  0
   19.8707  -16.6990    5.9390 O   0  0  0  0  0  0  0  0  0  0  0  0
   16.5010  -16.8552    3.2580 C   0  0  0  0  0  0  0  0  0  0  0  0
   16.8587  -17.3451    1.9988 C   0  0  0  0  0  0  0  0  0  0  0  0
   23.3516  -15.7666   10.8045 C   0  0  0  0  0  0  0  0  0  0  0  0
   23.7348  -16.5657    9.2064 S   0  0  0  0  0  0  0  0  0  0  0  0
   22.5365  -17.8863    8.9293 C   0  0  0  0  0  0  0  0  0  0  0  0
   21.1871  -17.3685    8.4922 C   0  0  0  0  0  0  0  0  0  0  0  0
   20.2466  -18.4857    8.0517 C   0  0  2  0  0  0  0  0  0  0  0  0
   18.9852  -17.8357    7.7261 N   0  0  0  0  0  0  0  0  0  0  0  0
   20.1327  -19.4038    9.2122 C   0  0  0  0  0  0  0  0  0  0  0  0
   20.9411  -20.5149    9.3202 O   0  0  0  0  0  0  0  0  0  0  0  0
   19.3028  -19.1902   10.1142 O   0  0  0  0  0  0  0  0  0  0  0  0
  2  1  1  1
  3  2  1  0
  4  5  1  1
  4  2  1  0
  6  4  1  0
  7  6  2  0
  9 10  2  0
  9  8  1  0
 11 10  1  0
 12 11  2  0
 14 13  1  6
 13 12  1  0
 14 15  1  0
 15  6  1  0
 16 17  2  0
 16 14  1  0
 18 12  1  0
 18 19  2  0
 19  9  1  0
 20 21  1  0
 21 22  1  0
 24 23  1  1
 23 22  1  0
 24 25  1  0
 25 16  1  0
 26 24  1  0
 27 26  1  0
 28 26  2  0
M  END
$$$$
