VYM.pdb
     RDKit          3D

 28 28  0  0  1  0  0  0  0  0999 V2000
   27.4783  -19.7828  -17.4426 C   0  0  0  0  0  0  0  0  0  0  0  0
   27.1910  -19.1843  -16.1067 C   0  0  2  0  0  0  0  0  0  0  0  0
   27.8139  -17.8299  -16.0205 C   0  0  0  0  0  0  0  0  0  0  0  0
   27.5149  -20.0764  -14.9432 C   0  0  2  0  0  0  0  0  0  0  0  0
   27.2562  -21.4315  -15.3280 N   0  0  0  0  0  0  0  0  0  0  0  0
   26.7439  -19.7417  -13.7195 C   0  0  0  0  0  0  0  0  0  0  0  0
   26.6996  -18.5813  -13.2395 O   0  0  0  0  0  0  0  0  0  0  0  0
   20.8556  -18.1900  -16.1360 O   0  0  0  0  0  0  0  0  0  0  0  0
   21.5615  -18.8828  -15.1523 C   0  0  0  0  0  0  0  0  0  0  0  0
   22.1786  -20.0951  -15.4198 C   0  0  0  0  0  0  0  0  0  0  0  0
   22.8784  -20.7812  -14.4439 C   0  0  0  0  0  0  0  0  0  0  0  0
   22.9926  -20.2879  -13.1595 C   0  0  0  0  0  0  0  0  0  0  0  0
   23.7508  -21.0601  -12.1667 C   0  0  0  0  0  0  0  0  0  0  0  0
   25.1506  -20.5105  -11.9138 C   0  0  2  0  0  0  0  0  0  0  0  0
   26.0120  -20.7619  -13.0385 N   0  0  0  0  0  0  0  0  0  0  0  0
   25.7827  -21.0724  -10.7011 C   0  0  0  0  0  0  0  0  0  0  0  0
   26.0783  -22.2936  -10.6343 O   0  0  0  0  0  0  0  0  0  0  0  0
   22.3832  -19.0865  -12.8874 C   0  0  0  0  0  0  0  0  0  0  0  0
   21.6751  -18.3898  -13.8707 C   0  0  0  0  0  0  0  0  0  0  0  0
   29.0184  -19.3982   -3.6333 C   0  0  0  0  0  0  0  0  0  0  0  0
   28.3378  -18.7343   -5.1940 S   0  0  0  0  0  0  0  0  0  0  0  0
   27.6270  -20.1025   -6.1317 C   0  0  0  0  0  0  0  0  0  0  0  0
   27.1816  -19.6934   -7.5153 C   0  0  0  0  0  0  0  0  0  0  0  0
   26.5459  -20.8438   -8.2892 C   0  0  2  0  0  0  0  0  0  0  0  0
   26.0932  -20.2710   -9.5488 N   0  0  0  0  0  0  0  0  0  0  0  0
   25.4243  -21.3304   -7.4477 C   0  0  0  0  0  0  0  0  0  0  0  0
   25.6561  -22.1309   -6.3499 O   0  0  0  0  0  0  0  0  0  0  0  0
   24.2482  -21.0260   -7.7161 O   0  0  0  0  0  0  0  0  0  0  0  0
  2  1  1  6
  3  2  1  0
  4  5  1  6
  4  2  1  0
  6  4  1  0
  7  6  2  0
  9 10  2  0
  9  8  1  0
 11 10  1  0
 12 11  2  0
 14 13  1  6
 13 12  1  0
 14 15  1  0
 15  6  1  0
 16 17  2  0
 16 14  1  0
 18 12  1  0
 18 19  2  0
 19  9  1  0
 20 21  1  0
 21 22  1  0
 24 23  1  1
 23 22  1  0
 24 25  1  0
 25 16  1  0
 26 24  1  0
 27 26  1  0
 28 26  2  0
M  END
$$$$
