VYM.pdb
     RDKit          3D

 28 28  0  0  1  0  0  0  0  0999 V2000
   28.7340  -18.3255  -16.5778 C   0  0  0  0  0  0  0  0  0  0  0  0
   27.9853  -18.4554  -15.2941 C   0  0  2  0  0  0  0  0  0  0  0  0
   28.9496  -18.5047  -14.1550 C   0  0  0  0  0  0  0  0  0  0  0  0
   26.9684  -19.5601  -15.2766 C   0  0  2  0  0  0  0  0  0  0  0  0
   26.1966  -19.4818  -16.4806 N   0  0  0  0  0  0  0  0  0  0  0  0
   26.0706  -19.5074  -14.0955 C   0  0  0  0  0  0  0  0  0  0  0  0
   25.3407  -18.5171  -13.8395 O   0  0  0  0  0  0  0  0  0  0  0  0
   19.9694  -19.6168  -15.5979 O   0  0  0  0  0  0  0  0  0  0  0  0
   20.9595  -20.0895  -14.7365 C   0  0  0  0  0  0  0  0  0  0  0  0
   21.9602  -20.9408  -15.1787 C   0  0  0  0  0  0  0  0  0  0  0  0
   22.9416  -21.4089  -14.3239 C   0  0  0  0  0  0  0  0  0  0  0  0
   22.9669  -21.0480  -12.9915 C   0  0  0  0  0  0  0  0  0  0  0  0
   24.0357  -21.5748  -12.1331 C   0  0  0  0  0  0  0  0  0  0  0  0
   25.2219  -20.6267  -11.9939 C   0  0  2  0  0  0  0  0  0  0  0  0
   26.0136  -20.6148  -13.1952 N   0  0  0  0  0  0  0  0  0  0  0  0
   26.1009  -20.9630  -10.8534 C   0  0  0  0  0  0  0  0  0  0  0  0
   26.8959  -21.9361  -10.9166 O   0  0  0  0  0  0  0  0  0  0  0  0
   21.9777  -20.2042  -12.5464 C   0  0  0  0  0  0  0  0  0  0  0  0
   20.9841  -19.7289  -13.4069 C   0  0  0  0  0  0  0  0  0  0  0  0
   28.6499  -19.4495   -3.5290 C   0  0  0  0  0  0  0  0  0  0  0  0
   28.1771  -18.7679   -5.1573 S   0  0  0  0  0  0  0  0  0  0  0  0
   27.3490  -20.0660   -6.0983 C   0  0  0  0  0  0  0  0  0  0  0  0
   27.0598  -19.6604   -7.5237 C   0  0  0  0  0  0  0  0  0  0  0  0
   26.4556  -20.7957   -8.3438 C   0  0  2  0  0  0  0  0  0  0  0  0
   26.1006  -20.2103   -9.6288 N   0  0  0  0  0  0  0  0  0  0  0  0
   25.2702  -21.2624   -7.5823 C   0  0  0  0  0  0  0  0  0  0  0  0
   23.9926  -21.0196   -8.0390 O   0  0  0  0  0  0  0  0  0  0  0  0
   25.4045  -21.8835   -6.5127 O   0  0  0  0  0  0  0  0  0  0  0  0
  2  1  1  6
  3  2  1  0
  4  5  1  6
  4  2  1  0
  6  4  1  0
  7  6  2  0
  9 10  2  0
  9  8  1  0
 11 10  1  0
 12 11  2  0
 14 13  1  6
 13 12  1  0
 14 15  1  0
 15  6  1  0
 16 17  2  0
 16 14  1  0
 18 12  1  0
 18 19  2  0
 19  9  1  0
 20 21  1  0
 21 22  1  0
 24 23  1  1
 23 22  1  0
 24 25  1  0
 25 16  1  0
 26 24  1  0
 27 26  1  0
 28 26  2  0
M  END
$$$$
