VYM.pdb
     RDKit          3D

 28 28  0  0  1  0  0  0  0  0999 V2000
   28.7718  -19.6249  -17.4179 C   0  0  0  0  0  0  0  0  0  0  0  0
   27.6774  -19.9766  -18.3687 C   0  0  2  0  0  0  0  0  0  0  0  0
   27.7425  -19.0797  -19.5608 C   0  0  0  0  0  0  0  0  0  0  0  0
   26.3142  -20.0585  -17.7446 C   0  0  2  0  0  0  0  0  0  0  0  0
   25.7201  -18.7559  -17.7860 N   0  0  0  0  0  0  0  0  0  0  0  0
   26.3420  -20.5580  -16.3469 C   0  0  0  0  0  0  0  0  0  0  0  0
   26.7094  -21.7218  -16.0477 O   0  0  0  0  0  0  0  0  0  0  0  0
   26.6604  -20.9229   -7.5731 O   0  0  0  0  0  0  0  0  0  0  0  0
   26.6744  -20.5021   -8.9029 C   0  0  0  0  0  0  0  0  0  0  0  0
   27.2360  -21.2792   -9.9042 C   0  0  0  0  0  0  0  0  0  0  0  0
   27.2493  -20.8612  -11.2225 C   0  0  0  0  0  0  0  0  0  0  0  0
   26.7032  -19.6503  -11.5987 C   0  0  0  0  0  0  0  0  0  0  0  0
   26.7446  -19.2615  -13.0143 C   0  0  0  0  0  0  0  0  0  0  0  0
   25.8563  -20.1242  -13.9044 C   0  0  2  0  0  0  0  0  0  0  0  0
   25.9396  -19.7014  -15.2771 N   0  0  0  0  0  0  0  0  0  0  0  0
   24.4364  -20.1106  -13.4923 C   0  0  0  0  0  0  0  0  0  0  0  0
   23.7191  -19.0945  -13.6824 O   0  0  0  0  0  0  0  0  0  0  0  0
   26.1447  -18.8748  -10.6110 C   0  0  0  0  0  0  0  0  0  0  0  0
   26.1291  -19.2934   -9.2776 C   0  0  0  0  0  0  0  0  0  0  0  0
   21.2828  -20.6952   -7.7363 C   0  0  0  0  0  0  0  0  0  0  0  0
   22.7168  -21.7308   -8.1949 S   0  0  0  0  0  0  0  0  0  0  0  0
   22.6093  -22.1023   -9.9576 C   0  0  0  0  0  0  0  0  0  0  0  0
   22.6479  -20.8630  -10.8193 C   0  0  0  0  0  0  0  0  0  0  0  0
   22.4616  -21.1747  -12.3008 C   0  0  2  0  0  0  0  0  0  0  0  0
   23.8028  -21.2374  -12.8637 N   0  0  0  0  0  0  0  0  0  0  0  0
   21.6616  -20.0543  -12.8554 C   0  0  0  0  0  0  0  0  0  0  0  0
   20.3435  -20.2337  -13.2160 O   0  0  0  0  0  0  0  0  0  0  0  0
   22.1650  -18.9267  -13.0078 O   0  0  0  0  0  0  0  0  0  0  0  0
  2  1  1  1
  3  2  1  0
  4  5  1  1
  4  2  1  0
  6  4  1  0
  7  6  2  0
  9 10  2  0
  9  8  1  0
 11 10  1  0
 12 11  2  0
 14 13  1  1
 13 12  1  0
 14 15  1  0
 15  6  1  0
 16 17  2  0
 16 14  1  0
 18 12  1  0
 18 19  2  0
 19  9  1  0
 20 21  1  0
 21 22  1  0
 24 23  1  1
 23 22  1  0
 24 25  1  0
 25 16  1  0
 26 24  1  0
 27 26  1  0
 28 26  2  0
M  END
$$$$
