RHI.pdb
     RDKit          3D

 30 30  0  0  1  0  0  0  0  0999 V2000
   29.9478  -23.5167  -15.7149 N   0  0  0  0  0  0  0  0  0  0  0  0
   29.1886  -23.5752  -16.9087 C   0  0  0  0  0  0  0  0  0  0  0  0
   28.8224  -24.7129  -17.4256 N   0  0  0  0  0  0  0  0  0  0  0  0
   28.8167  -22.3785  -17.5587 N   0  0  0  0  0  0  0  0  0  0  0  0
   28.4977  -21.1619  -16.8462 C   0  0  0  0  0  0  0  0  0  0  0  0
   27.0055  -21.0697  -16.5975 C   0  0  0  0  0  0  0  0  0  0  0  0
   26.7204  -20.4176  -15.2768 C   0  0  0  0  0  0  0  0  0  0  0  0
   26.8781  -21.3591  -14.1192 C   0  0  2  0  0  0  0  0  0  0  0  0
   26.0606  -22.5393  -14.2798 N   0  0  0  0  0  0  0  0  0  0  0  0
   26.4592  -20.5979  -12.8932 C   0  0  0  0  0  0  0  0  0  0  0  0
   26.8015  -19.4186  -12.7282 O   0  0  0  0  0  0  0  0  0  0  0  0
   28.3826  -24.7556  -18.3698 N   0  0  0  0  0  0  0  0  0  0  0  0
   25.6615  -21.2607  -11.9266 C   0  0  1  0  0  0  0  0  0  0  0  0
   25.1486  -20.5425  -10.7283 C   0  0  0  0  0  0  0  0  0  0  0  0
   23.6881  -20.7858  -10.6718 C   0  0  0  0  0  0  0  0  0  0  0  0
   22.8585  -20.1061  -11.6707 C   0  0  0  0  0  0  0  0  0  0  0  0
   23.3106  -19.1861  -12.6234 N   0  0  0  0  0  0  0  0  0  0  0  0
   22.2486  -18.7969  -13.3443 C   0  0  0  0  0  0  0  0  0  0  0  0
   21.1440  -19.4205  -12.9009 N   0  0  0  0  0  0  0  0  0  0  0  0
   21.5399  -20.2022  -11.8936 C   0  0  0  0  0  0  0  0  0  0  0  0
   25.9691  -20.9987   -9.6152 O   0  0  0  0  0  0  0  0  0  0  0  0
   26.4949  -22.1748   -9.6361 C   0  0  0  0  0  0  0  0  0  0  0  0
   28.5672  -18.1331   -5.3667 C   0  0  0  0  0  0  0  0  0  0  0  0
   27.4399  -18.8055   -6.1669 C   0  0  2  0  0  0  0  0  0  0  0  0
   27.8256  -20.2078   -6.5372 C   0  0  0  0  0  0  0  0  0  0  0  0
   29.0578  -20.0997   -7.4157 C   0  0  1  0  0  0  0  0  0  0  0  0
   26.7058  -20.9153   -7.1967 N   0  0  0  0  0  0  0  0  0  0  0  0
   26.2955  -20.2785   -8.4363 C   0  0  0  0  0  0  0  0  0  0  0  0
   25.5401  -21.0342   -6.3169 O   0  0  0  0  0  0  0  0  0  0  0  0
   25.5169  -21.6848   -5.0856 O   0  0  0  0  0  0  0  0  0  0  0  0
  1  2  1  0
  2  3  2  0
  4  5  1  0
  4  2  1  0
  6  5  1  0
  7  6  1  0
  8  9  1  6
  8  7  1  0
 10  8  1  0
 10 11  2  0
 12 10  1  0
 13 12  1  0
 13 20  1  0
 13 14  1  6
 15 19  1  0
 15 14  1  0
 16 15  2  0
 17 16  1  0
 17 18  1  0
 18 19  2  0
 20 27  1  0
 21 20  2  0
 22 23  1  0
 23 24  1  0
 24 26  1  0
 24 25  1  1
 26 28  1  0
 26 27  1  6
 28 30  2  0
 28 29  1  0
M  END
$$$$
