RHI.pdb
     RDKit          3D

 30 30  0  0  1  0  0  0  0  0999 V2000
   17.2221  -23.6952  -13.2676 N   0  0  0  0  0  0  0  0  0  0  0  0
   17.7574  -22.6741  -14.0899 C   0  0  0  0  0  0  0  0  0  0  0  0
   17.0212  -22.0502  -14.9639 N   0  0  0  0  0  0  0  0  0  0  0  0
   19.1181  -22.3193  -13.9652 N   0  0  0  0  0  0  0  0  0  0  0  0
   19.9971  -22.9042  -12.9777 C   0  0  0  0  0  0  0  0  0  0  0  0
   21.1298  -23.6510  -13.6533 C   0  0  0  0  0  0  0  0  0  0  0  0
   22.4539  -23.2690  -13.0605 C   0  0  0  0  0  0  0  0  0  0  0  0
   23.2863  -22.4352  -13.9896 C   0  0  2  0  0  0  0  0  0  0  0  0
   23.4005  -23.0470  -15.2933 N   0  0  0  0  0  0  0  0  0  0  0  0
   24.6409  -22.3125  -13.3511 C   0  0  0  0  0  0  0  0  0  0  0  0
   25.4633  -23.2367  -13.4203 O   0  0  0  0  0  0  0  0  0  0  0  0
   17.4425  -21.3667  -15.6289 N   0  0  0  0  0  0  0  0  0  0  0  0
   24.9582  -21.1128  -12.6655 C   0  0  2  0  0  0  0  0  0  0  0  0
   26.3046  -20.9006  -12.0680 C   0  0  0  0  0  0  0  0  0  0  0  0
   26.8103  -19.6100  -12.5916 C   0  0  0  0  0  0  0  0  0  0  0  0
   28.1919  -19.2500  -12.2601 C   0  0  0  0  0  0  0  0  0  0  0  0
   29.1017  -20.0489  -11.5584 N   0  0  0  0  0  0  0  0  0  0  0  0
   30.2506  -19.3634  -11.4629 C   0  0  0  0  0  0  0  0  0  0  0  0
   30.1205  -18.1702  -12.0668 N   0  0  0  0  0  0  0  0  0  0  0  0
   28.8718  -18.1284  -12.5378 C   0  0  0  0  0  0  0  0  0  0  0  0
   26.1231  -21.0399  -10.6300 O   0  0  0  0  0  0  0  0  0  0  0  0
   24.9408  -21.1711  -10.1350 C   0  0  0  0  0  0  0  0  0  0  0  0
   29.0000  -20.5434   -5.0962 C   0  0  0  0  0  0  0  0  0  0  0  0
   27.7754  -20.9526   -5.9308 C   0  0  2  0  0  0  0  0  0  0  0  0
   28.0435  -20.7403   -7.3921 C   0  0  0  0  0  0  0  0  0  0  0  0
   28.4869  -19.2975   -7.5453 C   0  0  2  0  0  0  0  0  0  0  0  0
   26.8539  -21.0691   -8.2085 N   0  0  0  0  0  0  0  0  0  0  0  0
   27.1342  -21.0576   -9.6338 C   0  0  0  0  0  0  0  0  0  0  0  0
   25.7368  -20.1603   -7.9380 O   0  0  0  0  0  0  0  0  0  0  0  0
   24.7481  -20.3549   -6.9765 O   0  0  0  0  0  0  0  0  0  0  0  0
  1  2  1  0
  2  3  2  0
  4  5  1  0
  4  2  1  0
  6  5  1  0
  7  6  1  0
  8  9  1  6
  8  7  1  0
 10  8  1  0
 10 11  2  0
 12 10  1  0
 13 12  1  0
 13 20  1  0
 13 14  1  6
 15 19  1  0
 15 14  1  0
 16 15  2  0
 17 16  1  0
 17 18  1  0
 18 19  2  0
 20 27  1  0
 21 20  2  0
 22 23  1  0
 23 24  1  0
 24 26  1  0
 24 25  1  6
 26 28  1  0
 26 27  1  1
 28 30  2  0
 28 29  1  0
M  END
$$$$
