RHI.pdb
     RDKit          3D

 30 30  0  0  1  0  0  0  0  0999 V2000
   26.1020  -21.0564   -8.8123 N   0  0  0  0  0  0  0  0  0  0  0  0
   24.7876  -21.0493   -9.3390 C   0  0  0  0  0  0  0  0  0  0  0  0
   23.7448  -21.1331   -8.5638 N   0  0  0  0  0  0  0  0  0  0  0  0
   24.5953  -20.9495  -10.7340 N   0  0  0  0  0  0  0  0  0  0  0  0
   25.2344  -21.8339  -11.6821 C   0  0  0  0  0  0  0  0  0  0  0  0
   26.2895  -21.0877  -12.4741 C   0  0  0  0  0  0  0  0  0  0  0  0
   26.3769  -21.6102  -13.8777 C   0  0  0  0  0  0  0  0  0  0  0  0
   25.0777  -22.1799  -14.3663 C   0  0  2  0  0  0  0  0  0  0  0  0
   25.2830  -23.3832  -15.1390 N   0  0  0  0  0  0  0  0  0  0  0  0
   24.4413  -21.1170  -15.2165 C   0  0  0  0  0  0  0  0  0  0  0  0
   24.9164  -20.8156  -16.3204 O   0  0  0  0  0  0  0  0  0  0  0  0
   22.7802  -21.0803   -8.9557 N   0  0  0  0  0  0  0  0  0  0  0  0
   23.2820  -20.4644  -14.7264 C   0  0  2  0  0  0  0  0  0  0  0  0
   22.5921  -19.4164  -15.5267 C   0  0  0  0  0  0  0  0  0  0  0  0
   21.1576  -19.4675  -15.1593 C   0  0  0  0  0  0  0  0  0  0  0  0
   20.2928  -18.4125  -15.6951 C   0  0  0  0  0  0  0  0  0  0  0  0
   20.7136  -17.3113  -16.4492 N   0  0  0  0  0  0  0  0  0  0  0  0
   19.6253  -16.5854  -16.7453 C   0  0  0  0  0  0  0  0  0  0  0  0
   18.5336  -17.1662  -16.2195 N   0  0  0  0  0  0  0  0  0  0  0  0
   18.9642  -18.2638  -15.5930 C   0  0  0  0  0  0  0  0  0  0  0  0
   23.3263  -18.1839  -15.2770 O   0  0  0  0  0  0  0  0  0  0  0  0
   23.5446  -17.7922  -14.0692 C   0  0  0  0  0  0  0  0  0  0  0  0
   28.1315  -14.8065  -16.3733 C   0  0  0  0  0  0  0  0  0  0  0  0
   26.6551  -14.7788  -15.9455 C   0  0  2  0  0  0  0  0  0  0  0  0
   25.9803  -16.0686  -16.3105 C   0  0  0  0  0  0  0  0  0  0  0  0
   26.1649  -16.2452  -17.8061 C   0  0  2  0  0  0  0  0  0  0  0  0
   24.5586  -16.0645  -15.9001 N   0  0  0  0  0  0  0  0  0  0  0  0
   23.8749  -17.2997  -16.2425 C   0  0  0  0  0  0  0  0  0  0  0  0
   23.8241  -14.9390  -16.4839 O   0  0  0  0  0  0  0  0  0  0  0  0
   23.7476  -13.6557  -15.9480 O   0  0  0  0  0  0  0  0  0  0  0  0
  1  2  1  0
  2  3  2  0
  4  5  1  0
  4  2  1  0
  6  5  1  0
  7  6  1  0
  8  9  1  6
  8  7  1  0
 10  8  1  0
 10 11  2  0
 12 10  1  0
 13 12  1  0
 13 20  1  0
 13 14  1  6
 15 19  1  0
 15 14  1  0
 16 15  2  0
 17 16  1  0
 17 18  1  0
 18 19  2  0
 20 27  1  0
 21 20  2  0
 22 23  1  0
 23 24  1  0
 24 26  1  0
 24 25  1  1
 26 28  1  0
 26 27  1  6
 28 30  2  0
 28 29  1  0
M  END
$$$$
