RHI.pdb
     RDKit          3D

 30 30  0  0  1  0  0  0  0  0999 V2000
   27.1749  -16.0512  -19.4766 N   0  0  0  0  0  0  0  0  0  0  0  0
   27.4398  -17.3230  -20.0400 C   0  0  0  0  0  0  0  0  0  0  0  0
   27.6880  -17.4648  -21.3103 N   0  0  0  0  0  0  0  0  0  0  0  0
   27.4366  -18.4671  -19.2129 N   0  0  0  0  0  0  0  0  0  0  0  0
   27.3048  -18.3987  -17.7750 C   0  0  0  0  0  0  0  0  0  0  0  0
   28.3043  -17.4160  -17.1980 C   0  0  0  0  0  0  0  0  0  0  0  0
   28.2682  -17.4316  -15.6983 C   0  0  0  0  0  0  0  0  0  0  0  0
   28.2856  -18.8211  -15.1323 C   0  0  2  0  0  0  0  0  0  0  0  0
   27.9791  -19.8089  -16.1409 N   0  0  0  0  0  0  0  0  0  0  0  0
   27.2498  -18.8489  -14.0441 C   0  0  0  0  0  0  0  0  0  0  0  0
   27.1480  -17.9132  -13.2382 O   0  0  0  0  0  0  0  0  0  0  0  0
   27.8590  -18.4077  -21.7209 N   0  0  0  0  0  0  0  0  0  0  0  0
   26.3892  -19.9723  -13.9593 C   0  0  1  0  0  0  0  0  0  0  0  0
   25.2544  -20.0019  -12.9970 C   0  0  0  0  0  0  0  0  0  0  0  0
   24.1197  -20.6579  -13.6881 C   0  0  0  0  0  0  0  0  0  0  0  0
   22.9097  -20.9054  -12.8988 C   0  0  0  0  0  0  0  0  0  0  0  0
   22.7535  -20.6426  -11.5332 N   0  0  0  0  0  0  0  0  0  0  0  0
   21.5085  -21.0071  -11.1921 C   0  0  0  0  0  0  0  0  0  0  0  0
   20.8638  -21.4881  -12.2684 N   0  0  0  0  0  0  0  0  0  0  0  0
   21.7303  -21.4153  -13.2815 C   0  0  0  0  0  0  0  0  0  0  0  0
   25.7795  -20.6218  -11.7886 O   0  0  0  0  0  0  0  0  0  0  0  0
   26.5283  -21.6673  -11.8685 C   0  0  0  0  0  0  0  0  0  0  0  0
   28.6396  -20.1824   -6.5839 C   0  0  0  0  0  0  0  0  0  0  0  0
   27.5845  -20.9833   -7.3641 C   0  0  2  0  0  0  0  0  0  0  0  0
   27.0578  -20.1742   -8.5132 C   0  0  0  0  0  0  0  0  0  0  0  0
   26.4925  -18.8973   -7.9199 C   0  0  2  0  0  0  0  0  0  0  0  0
   26.0609  -20.9391   -9.2948 N   0  0  0  0  0  0  0  0  0  0  0  0
   25.5717  -20.2036  -10.4481 C   0  0  0  0  0  0  0  0  0  0  0  0
   24.9180  -21.3469   -8.4734 O   0  0  0  0  0  0  0  0  0  0  0  0
   24.8898  -22.4383   -7.6086 O   0  0  0  0  0  0  0  0  0  0  0  0
  1  2  1  0
  2  3  2  0
  4  5  1  0
  4  2  1  0
  6  5  1  0
  7  6  1  0
  8  9  1  6
  8  7  1  0
 10  8  1  0
 10 11  2  0
 12 10  1  0
 13 12  1  0
 13 20  1  0
 13 14  1  1
 15 19  1  0
 15 14  1  0
 16 15  2  0
 17 16  1  0
 17 18  1  0
 18 19  2  0
 20 27  1  0
 21 20  2  0
 22 23  1  0
 23 24  1  0
 24 26  1  0
 24 25  1  6
 26 28  1  0
 26 27  1  1
 28 30  2  0
 28 29  1  0
M  END
$$$$
