RHI.pdb
     RDKit          3D

 30 30  0  0  1  0  0  0  0  0999 V2000
   21.8207  -28.8069  -12.6810 N   0  0  0  0  0  0  0  0  0  0  0  0
   20.5799  -29.4040  -13.0115 C   0  0  0  0  0  0  0  0  0  0  0  0
   20.2975  -30.6244  -12.6561 N   0  0  0  0  0  0  0  0  0  0  0  0
   19.6231  -28.6665  -13.7419 N   0  0  0  0  0  0  0  0  0  0  0  0
   19.8645  -27.3261  -14.2265 C   0  0  0  0  0  0  0  0  0  0  0  0
   19.8395  -27.2985  -15.7417 C   0  0  0  0  0  0  0  0  0  0  0  0
   19.9369  -25.8922  -16.2548 C   0  0  0  0  0  0  0  0  0  0  0  0
   21.1628  -25.6629  -17.0891 C   0  0  2  0  0  0  0  0  0  0  0  0
   22.1057  -26.7493  -16.9566 N   0  0  0  0  0  0  0  0  0  0  0  0
   21.7742  -24.3800  -16.6011 C   0  0  0  0  0  0  0  0  0  0  0  0
   22.9624  -24.3329  -16.2531 O   0  0  0  0  0  0  0  0  0  0  0  0
   19.3772  -31.0524  -12.8943 N   0  0  0  0  0  0  0  0  0  0  0  0
   20.9592  -23.2211  -16.5472 C   0  0  2  0  0  0  0  0  0  0  0  0
   21.5219  -21.9020  -16.1496 C   0  0  0  0  0  0  0  0  0  0  0  0
   20.6805  -20.8636  -16.7894 C   0  0  0  0  0  0  0  0  0  0  0  0
   20.9671  -19.4675  -16.4473 C   0  0  0  0  0  0  0  0  0  0  0  0
   21.9431  -19.0278  -15.5459 N   0  0  0  0  0  0  0  0  0  0  0  0
   21.8880  -17.6880  -15.5135 C   0  0  0  0  0  0  0  0  0  0  0  0
   20.9284  -17.2513  -16.3466 N   0  0  0  0  0  0  0  0  0  0  0  0
   20.3904  -18.3431  -16.8953 C   0  0  0  0  0  0  0  0  0  0  0  0
   21.5999  -21.9297  -14.6959 O   0  0  0  0  0  0  0  0  0  0  0  0
   20.5978  -22.3442  -14.0002 C   0  0  0  0  0  0  0  0  0  0  0  0
   25.3298  -21.5339   -9.7127 C   0  0  0  0  0  0  0  0  0  0  0  0
   23.9203  -21.5397  -10.3264 C   0  0  2  0  0  0  0  0  0  0  0  0
   24.0013  -21.4767  -11.8236 C   0  0  0  0  0  0  0  0  0  0  0  0
   24.7750  -20.2163  -12.1623 C   0  0  2  0  0  0  0  0  0  0  0  0
   22.6542  -21.5098  -12.4351 N   0  0  0  0  0  0  0  0  0  0  0  0
   22.7003  -21.5433  -13.8867 C   0  0  0  0  0  0  0  0  0  0  0  0
   21.8341  -20.3711  -12.0133 O   0  0  0  0  0  0  0  0  0  0  0  0
   21.1837  -20.2504  -10.7877 O   0  0  0  0  0  0  0  0  0  0  0  0
  1  2  1  0
  2  3  2  0
  4  5  1  0
  4  2  1  0
  6  5  1  0
  7  6  1  0
  8  9  1  1
  8  7  1  0
 10  8  1  0
 10 11  2  0
 12 10  1  0
 13 12  1  0
 13 20  1  0
 13 14  1  6
 15 19  1  0
 15 14  1  0
 16 15  2  0
 17 16  1  0
 17 18  1  0
 18 19  2  0
 20 27  1  0
 21 20  2  0
 22 23  1  0
 23 24  1  0
 24 26  1  0
 24 25  1  6
 26 28  1  0
 26 27  1  1
 28 30  2  0
 28 29  1  0
M  END
$$$$
