RHI.pdb
     RDKit          3D

 30 30  0  0  1  0  0  0  0  0999 V2000
   28.7606  -29.6378  -17.4031 N   0  0  0  0  0  0  0  0  0  0  0  0
   27.4180  -29.9361  -17.7402 C   0  0  0  0  0  0  0  0  0  0  0  0
   26.9905  -31.1644  -17.8035 N   0  0  0  0  0  0  0  0  0  0  0  0
   26.5173  -28.8845  -18.0151 N   0  0  0  0  0  0  0  0  0  0  0  0
   26.8918  -27.4897  -17.9496 C   0  0  0  0  0  0  0  0  0  0  0  0
   27.2298  -27.0988  -16.5247 C   0  0  0  0  0  0  0  0  0  0  0  0
   26.6563  -25.7545  -16.1863 C   0  0  0  0  0  0  0  0  0  0  0  0
   27.2363  -24.6500  -17.0200 C   0  0  2  0  0  0  0  0  0  0  0  0
   28.5739  -24.9669  -17.4642 N   0  0  0  0  0  0  0  0  0  0  0  0
   27.2528  -23.4253  -16.1496 C   0  0  0  0  0  0  0  0  0  0  0  0
   28.2499  -23.1392  -15.4720 O   0  0  0  0  0  0  0  0  0  0  0  0
   25.9955  -31.3742  -18.0331 N   0  0  0  0  0  0  0  0  0  0  0  0
   26.0989  -22.6021  -16.1204 C   0  0  2  0  0  0  0  0  0  0  0  0
   26.0807  -21.3291  -15.3496 C   0  0  0  0  0  0  0  0  0  0  0  0
   25.4312  -20.3128  -16.2103 C   0  0  0  0  0  0  0  0  0  0  0  0
   26.3109  -19.4210  -16.9711 C   0  0  0  0  0  0  0  0  0  0  0  0
   27.7070  -19.3767  -16.8847 N   0  0  0  0  0  0  0  0  0  0  0  0
   28.1342  -18.4326  -17.7364 C   0  0  0  0  0  0  0  0  0  0  0  0
   27.0838  -17.8734  -18.3605 N   0  0  0  0  0  0  0  0  0  0  0  0
   25.9993  -18.4870  -17.8811 C   0  0  0  0  0  0  0  0  0  0  0  0
   25.4606  -21.6517  -14.0722 O   0  0  0  0  0  0  0  0  0  0  0  0
   24.3381  -22.2832  -14.0370 C   0  0  0  0  0  0  0  0  0  0  0  0
   25.8360  -20.7445   -7.8806 C   0  0  0  0  0  0  0  0  0  0  0  0
   25.0409  -21.1548   -9.1308 C   0  0  2  0  0  0  0  0  0  0  0  0
   25.8959  -21.0324  -10.3581 C   0  0  0  0  0  0  0  0  0  0  0  0
   26.4275  -19.6114  -10.3749 C   0  0  2  0  0  0  0  0  0  0  0  0
   25.1344  -21.3790  -11.5786 N   0  0  0  0  0  0  0  0  0  0  0  0
   25.9562  -21.3520  -12.7762 C   0  0  0  0  0  0  0  0  0  0  0  0
   23.9827  -20.4944  -11.7743 O   0  0  0  0  0  0  0  0  0  0  0  0
   22.7019  -20.7079  -11.2706 O   0  0  0  0  0  0  0  0  0  0  0  0
  1  2  1  0
  2  3  2  0
  4  5  1  0
  4  2  1  0
  6  5  1  0
  7  6  1  0
  8  9  1  1
  8  7  1  0
 10  8  1  0
 10 11  2  0
 12 10  1  0
 13 12  1  0
 13 20  1  0
 13 14  1  6
 15 19  1  0
 15 14  1  0
 16 15  2  0
 17 16  1  0
 17 18  1  0
 18 19  2  0
 20 27  1  0
 21 20  2  0
 22 23  1  0
 23 24  1  0
 24 26  1  0
 24 25  1  6
 26 28  1  0
 26 27  1  6
 28 30  2  0
 28 29  1  0
M  END
$$$$
