RHI.pdb
     RDKit          3D

 30 30  0  0  1  0  0  0  0  0999 V2000
   21.3369  -19.8948  -15.4584 N   0  0  0  0  0  0  0  0  0  0  0  0
   20.1655  -19.5316  -14.7504 C   0  0  0  0  0  0  0  0  0  0  0  0
   19.2886  -18.7159  -15.2613 N   0  0  0  0  0  0  0  0  0  0  0  0
   19.9364  -20.0612  -13.4620 N   0  0  0  0  0  0  0  0  0  0  0  0
   20.9507  -20.7618  -12.7070 C   0  0  0  0  0  0  0  0  0  0  0  0
   22.1876  -19.8991  -12.5545 C   0  0  0  0  0  0  0  0  0  0  0  0
   23.2327  -20.5986  -11.7365 C   0  0  0  0  0  0  0  0  0  0  0  0
   24.4366  -20.9872  -12.5434 C   0  0  2  0  0  0  0  0  0  0  0  0
   24.1060  -21.9684  -13.5508 N   0  0  0  0  0  0  0  0  0  0  0  0
   25.4336  -21.5531  -11.5721 C   0  0  0  0  0  0  0  0  0  0  0  0
   25.3663  -22.7352  -11.2068 O   0  0  0  0  0  0  0  0  0  0  0  0
   18.3936  -18.5130  -14.7667 N   0  0  0  0  0  0  0  0  0  0  0  0
   26.4560  -20.7024  -11.0812 C   0  0  1  0  0  0  0  0  0  0  0  0
   27.5326  -21.2240  -10.1960 C   0  0  0  0  0  0  0  0  0  0  0  0
   28.7807  -21.2341  -10.9946 C   0  0  0  0  0  0  0  0  0  0  0  0
   30.0064  -21.6599  -10.3130 C   0  0  0  0  0  0  0  0  0  0  0  0
   30.8268  -20.8505   -9.5192 N   0  0  0  0  0  0  0  0  0  0  0  0
   31.8411  -21.6108   -9.0809 C   0  0  0  0  0  0  0  0  0  0  0  0
   31.7100  -22.8617   -9.5539 N   0  0  0  0  0  0  0  0  0  0  0  0
   30.5976  -22.8631  -10.2921 C   0  0  0  0  0  0  0  0  0  0  0  0
   27.4870  -20.4021   -8.9949 O   0  0  0  0  0  0  0  0  0  0  0  0
   27.0791  -19.1816   -9.0591 C   0  0  0  0  0  0  0  0  0  0  0  0
   27.9335  -22.3472   -3.6506 C   0  0  0  0  0  0  0  0  0  0  0  0
   27.3671  -21.5950   -4.8659 C   0  0  2  0  0  0  0  0  0  0  0  0
   28.3115  -20.5113   -5.2971 C   0  0  0  0  0  0  0  0  0  0  0  0
   28.4140  -19.5397   -4.1363 C   0  0  2  0  0  0  0  0  0  0  0  0
   27.8546  -19.8693   -6.5496 N   0  0  0  0  0  0  0  0  0  0  0  0
   27.8479  -20.7857   -7.6768 C   0  0  0  0  0  0  0  0  0  0  0  0
   28.6690  -18.7008   -6.8938 O   0  0  0  0  0  0  0  0  0  0  0  0
   28.3101  -17.3718   -6.6820 O   0  0  0  0  0  0  0  0  0  0  0  0
  1  2  1  0
  2  3  2  0
  4  5  1  0
  4  2  1  0
  6  5  1  0
  7  6  1  0
  8  9  1  6
  8  7  1  0
 10  8  1  0
 10 11  2  0
 12 10  1  0
 13 12  1  0
 13 20  1  0
 13 14  1  1
 15 19  1  0
 15 14  1  0
 16 15  2  0
 17 16  1  0
 17 18  1  0
 18 19  2  0
 20 27  1  0
 21 20  2  0
 22 23  1  0
 23 24  1  0
 24 26  1  0
 24 25  1  6
 26 28  1  0
 26 27  1  6
 28 30  2  0
 28 29  1  0
M  END
$$$$
