RHI.pdb
     RDKit          3D

 30 30  0  0  1  0  0  0  0  0999 V2000
   29.8968  -21.7648  -20.8977 N   0  0  0  0  0  0  0  0  0  0  0  0
   30.1792  -20.4141  -21.2153 C   0  0  0  0  0  0  0  0  0  0  0  0
   30.3858  -20.0341  -22.4434 N   0  0  0  0  0  0  0  0  0  0  0  0
   30.2397  -19.4525  -20.1835 N   0  0  0  0  0  0  0  0  0  0  0  0
   29.8890  -19.7460  -18.8122 C   0  0  0  0  0  0  0  0  0  0  0  0
   28.4448  -19.3726  -18.5436 C   0  0  0  0  0  0  0  0  0  0  0  0
   28.3253  -18.5561  -17.2907 C   0  0  0  0  0  0  0  0  0  0  0  0
   28.0481  -19.3938  -16.0770 C   0  0  2  0  0  0  0  0  0  0  0  0
   27.9707  -20.7979  -16.4077 N   0  0  0  0  0  0  0  0  0  0  0  0
   26.7360  -18.9159  -15.5224 C   0  0  0  0  0  0  0  0  0  0  0  0
   26.5747  -17.7303  -15.2007 O   0  0  0  0  0  0  0  0  0  0  0  0
   30.6273  -19.0444  -22.6646 N   0  0  0  0  0  0  0  0  0  0  0  0
   25.6834  -19.8542  -15.3747 C   0  0  1  0  0  0  0  0  0  0  0  0
   24.3626  -19.4487  -14.8216 C   0  0  0  0  0  0  0  0  0  0  0  0
   23.3357  -19.8729  -15.8018 C   0  0  0  0  0  0  0  0  0  0  0  0
   21.9346  -19.6220  -15.4524 C   0  0  0  0  0  0  0  0  0  0  0  0
   21.4413  -18.4802  -14.8109 N   0  0  0  0  0  0  0  0  0  0  0  0
   20.1160  -18.6354  -14.6737 C   0  0  0  0  0  0  0  0  0  0  0  0
   19.7395  -19.8158  -15.1938 N   0  0  0  0  0  0  0  0  0  0  0  0
   20.8537  -20.3887  -15.6554 C   0  0  0  0  0  0  0  0  0  0  0  0
   24.3099  -20.0091  -13.4787 O   0  0  0  0  0  0  0  0  0  0  0  0
   23.2505  -19.8696  -12.7586 C   0  0  0  0  0  0  0  0  0  0  0  0
   26.9334  -20.3620   -8.1673 C   0  0  0  0  0  0  0  0  0  0  0  0
   25.9211  -21.0379   -9.1063 C   0  0  2  0  0  0  0  0  0  0  0  0
   26.0320  -20.4702  -10.4912 C   0  0  0  0  0  0  0  0  0  0  0  0
   25.6366  -19.0088  -10.3924 C   0  0  2  0  0  0  0  0  0  0  0  0
   25.2002  -21.2305  -11.4503 N   0  0  0  0  0  0  0  0  0  0  0  0
   25.3278  -20.7398  -12.8116 C   0  0  0  0  0  0  0  0  0  0  0  0
   23.7841  -21.2205  -11.0739 O   0  0  0  0  0  0  0  0  0  0  0  0
   22.7589  -20.6094  -11.7917 O   0  0  0  0  0  0  0  0  0  0  0  0
  1  2  1  0
  2  3  2  0
  4  5  1  0
  4  2  1  0
  6  5  1  0
  7  6  1  0
  8  9  1  6
  8  7  1  0
 10  8  1  0
 10 11  2  0
 12 10  1  0
 13 12  1  0
 13 20  1  0
 13 14  1  1
 15 19  1  0
 15 14  1  0
 16 15  2  0
 17 16  1  0
 17 18  1  0
 18 19  2  0
 20 27  1  0
 21 20  2  0
 22 23  1  0
 23 24  1  0
 24 26  1  0
 24 25  1  6
 26 28  1  0
 26 27  1  1
 28 30  2  0
 28 29  1  0
M  END
$$$$
