RHI.pdb
     RDKit          3D

 30 30  0  0  1  0  0  0  0  0999 V2000
   31.4518  -22.3419  -20.4397 N   0  0  0  0  0  0  0  0  0  0  0  0
   30.1492  -22.8664  -20.6219 C   0  0  0  0  0  0  0  0  0  0  0  0
   29.9371  -23.9151  -21.3640 N   0  0  0  0  0  0  0  0  0  0  0  0
   29.0515  -22.2445  -19.9886 N   0  0  0  0  0  0  0  0  0  0  0  0
   29.1806  -21.0538  -19.1790 C   0  0  0  0  0  0  0  0  0  0  0  0
   29.3353  -21.4220  -17.7169 C   0  0  0  0  0  0  0  0  0  0  0  0
   28.3447  -20.6804  -16.8687 C   0  0  0  0  0  0  0  0  0  0  0  0
   27.3802  -21.5939  -16.1709 C   0  0  2  0  0  0  0  0  0  0  0  0
   26.5639  -22.3236  -17.1132 N   0  0  0  0  0  0  0  0  0  0  0  0
   26.5195  -20.7194  -15.3037 C   0  0  0  0  0  0  0  0  0  0  0  0
   25.8964  -19.7623  -15.7842 O   0  0  0  0  0  0  0  0  0  0  0  0
   28.9853  -24.3335  -21.4407 N   0  0  0  0  0  0  0  0  0  0  0  0
   26.4359  -21.0142  -13.9194 C   0  0  1  0  0  0  0  0  0  0  0  0
   25.2951  -20.5283  -13.0964 C   0  0  0  0  0  0  0  0  0  0  0  0
   24.0550  -20.9969  -13.7584 C   0  0  0  0  0  0  0  0  0  0  0  0
   22.7861  -20.6958  -13.0896 C   0  0  0  0  0  0  0  0  0  0  0  0
   22.6421  -20.0528  -11.8550 N   0  0  0  0  0  0  0  0  0  0  0  0
   21.3290  -19.9680  -11.5950 C   0  0  0  0  0  0  0  0  0  0  0  0
   20.6292  -20.5232  -12.5988 N   0  0  0  0  0  0  0  0  0  0  0  0
   21.5309  -20.9530  -13.4846 C   0  0  0  0  0  0  0  0  0  0  0  0
   25.5681  -20.9810  -11.7396 O   0  0  0  0  0  0  0  0  0  0  0  0
   25.8105  -22.2249  -11.5072 C   0  0  0  0  0  0  0  0  0  0  0  0
   28.1570  -19.6667   -6.3676 C   0  0  0  0  0  0  0  0  0  0  0  0
   27.1537  -20.5337   -7.1456 C   0  0  2  0  0  0  0  0  0  0  0  0
   26.8345  -19.9038   -8.4698 C   0  0  0  0  0  0  0  0  0  0  0  0
   26.3035  -18.5143   -8.1711 C   0  0  2  0  0  0  0  0  0  0  0  0
   25.8824  -20.7327   -9.2420 N   0  0  0  0  0  0  0  0  0  0  0  0
   25.6122  -20.1897  -10.5620 C   0  0  0  0  0  0  0  0  0  0  0  0
   24.6121  -20.9098   -8.5335 O   0  0  0  0  0  0  0  0  0  0  0  0
   24.3815  -21.8093   -7.4954 O   0  0  0  0  0  0  0  0  0  0  0  0
  1  2  1  0
  2  3  2  0
  4  5  1  0
  4  2  1  0
  6  5  1  0
  7  6  1  0
  8  9  1  6
  8  7  1  0
 10  8  1  0
 10 11  2  0
 12 10  1  0
 13 12  1  0
 13 20  1  0
 13 14  1  6
 15 19  1  0
 15 14  1  0
 16 15  2  0
 17 16  1  0
 17 18  1  0
 18 19  2  0
 20 27  1  0
 21 20  2  0
 22 23  1  0
 23 24  1  0
 24 26  1  0
 24 25  1  6
 26 28  1  0
 26 27  1  1
 28 30  2  0
 28 29  1  0
M  END
$$$$
