NLI.pdb
     RDKit          3D

 25 24  0  0  1  0  0  0  0  0999 V2000
   10.6115  -19.1739   19.3253 N   0  0  0  0  0  0  0  0  0  0  0  0
    9.8939  -18.0188   18.8082 C   0  0  0  0  0  0  0  0  0  0  0  0
    9.8946  -17.8671   17.5684 O   0  0  0  0  0  0  0  0  0  0  0  0
    9.2248  -17.1166   19.7520 C   0  0  0  0  0  0  0  0  0  0  0  0
    9.3930  -17.5060   21.1874 C   0  0  2  0  0  0  0  0  0  0  0  0
    8.0907  -18.1759   21.5814 N   0  0  0  0  0  0  0  0  0  0  0  0
    9.4523  -16.3745   22.1378 C   0  0  0  0  0  0  0  0  0  0  0  0
   10.5072  -15.6666   22.1901 O   0  0  0  0  0  0  0  0  0  0  0  0
    6.2916  -13.0562   26.4482 C   0  0  0  0  0  0  0  0  0  0  0  0
    7.4798  -13.3388   25.6051 C   0  0  2  0  0  0  0  0  0  0  0  0
    7.9502  -12.0424   24.9602 C   0  0  0  0  0  0  0  0  0  0  0  0
    7.3466  -14.4458   24.6348 C   0  0  0  0  0  0  0  0  0  0  0  0
    8.6056  -14.8911   23.9663 C   0  0  2  0  0  0  0  0  0  0  0  0
    8.4218  -15.9784   23.0193 N   0  0  0  0  0  0  0  0  0  0  0  0
    9.6194  -15.2015   25.0038 C   0  0  0  0  0  0  0  0  0  0  0  0
   10.7396  -14.5851   24.9588 O   0  0  0  0  0  0  0  0  0  0  0  0
    9.7269  -13.2281   29.3036 C   0  0  0  0  0  0  0  0  0  0  0  0
   10.1923  -14.0130   28.1267 C   0  0  0  0  0  0  0  0  0  0  0  0
   10.1000  -15.4918   28.2826 C   0  0  2  0  0  0  0  0  0  0  0  0
   10.9390  -15.8731   29.4798 C   0  0  0  0  0  0  0  0  0  0  0  0
   10.4821  -16.2901   27.0644 C   0  0  2  0  0  0  0  0  0  0  0  0
    9.4536  -16.1310   26.0534 N   0  0  0  0  0  0  0  0  0  0  0  0
   10.5968  -17.7204   27.3971 C   0  0  0  0  0  0  0  0  0  0  0  0
   11.5628  -18.1191   28.0766 O   0  0  0  0  0  0  0  0  0  0  0  0
    9.6366  -18.6055   26.9561 O   0  0  0  0  0  0  0  0  0  0  0  0
  1  2  1  0
  2  4  1  0
  3  2  2  0
  5  4  1  0
  5  6  1  1
  7  8  2  0
  7  5  1  0
 10  9  1  6
 10 11  1  0
 10 12  1  0
 13 12  1  1
 13 14  1  0
 14  7  1  0
 15 13  1  0
 15 22  1  0
 16 15  2  0
 17 18  1  0
 18 19  1  0
 19 21  1  0
 19 20  1  1
 21 22  1  6
 21 23  1  0
 23 24  2  0
 23 25  1  0
M  END
$$$$
