NLI.pdb
     RDKit          3D

 25 24  0  0  1  0  0  0  0  0999 V2000
   12.5994  -14.7033   17.4748 N   0  0  0  0  0  0  0  0  0  0  0  0
   12.7452  -14.6398   18.9210 C   0  0  0  0  0  0  0  0  0  0  0  0
   13.8905  -14.4025   19.3591 O   0  0  0  0  0  0  0  0  0  0  0  0
   11.5643  -14.8542   19.7646 C   0  0  0  0  0  0  0  0  0  0  0  0
   11.7963  -15.7932   20.9068 C   0  0  2  0  0  0  0  0  0  0  0  0
   11.8758  -17.1748   20.2864 N   0  0  0  0  0  0  0  0  0  0  0  0
   10.6538  -15.9418   21.8340 C   0  0  0  0  0  0  0  0  0  0  0  0
   10.1356  -14.9005   22.3474 O   0  0  0  0  0  0  0  0  0  0  0  0
    6.7192  -19.9997   24.6089 C   0  0  0  0  0  0  0  0  0  0  0  0
    7.1577  -18.6397   24.2084 C   0  0  2  0  0  0  0  0  0  0  0  0
    5.9736  -17.8926   23.6104 C   0  0  0  0  0  0  0  0  0  0  0  0
    8.3685  -18.5636   23.3642 C   0  0  0  0  0  0  0  0  0  0  0  0
    8.9405  -17.2002   23.1539 C   0  0  2  0  0  0  0  0  0  0  0  0
   10.0514  -17.1609   22.2173 N   0  0  0  0  0  0  0  0  0  0  0  0
    9.2825  -16.6115   24.4719 C   0  0  0  0  0  0  0  0  0  0  0  0
   10.4450  -16.8414   24.9541 O   0  0  0  0  0  0  0  0  0  0  0  0
    6.6237  -12.0789   25.8900 C   0  0  0  0  0  0  0  0  0  0  0  0
    7.7709  -13.0037   25.6740 C   0  0  0  0  0  0  0  0  0  0  0  0
    7.9992  -13.9867   26.7701 C   0  0  2  0  0  0  0  0  0  0  0  0
    8.4870  -13.2155   27.9741 C   0  0  0  0  0  0  0  0  0  0  0  0
    8.9269  -15.1228   26.4296 C   0  0  2  0  0  0  0  0  0  0  0  0
    8.4248  -15.8063   25.2524 N   0  0  0  0  0  0  0  0  0  0  0  0
    8.9942  -16.0876   27.5405 C   0  0  0  0  0  0  0  0  0  0  0  0
    9.8329  -15.9244   28.4481 O   0  0  0  0  0  0  0  0  0  0  0  0
    8.1303  -17.1614   27.5686 O   0  0  0  0  0  0  0  0  0  0  0  0
  1  2  1  0
  2  4  1  0
  3  2  2  0
  5  4  1  0
  5  6  1  6
  7  8  2  0
  7  5  1  0
 10  9  1  6
 10 11  1  0
 10 12  1  0
 13 12  1  1
 13 14  1  0
 14  7  1  0
 15 13  1  0
 15 22  1  0
 16 15  2  0
 17 18  1  0
 18 19  1  0
 19 21  1  0
 19 20  1  1
 21 22  1  6
 21 23  1  0
 23 24  2  0
 23 25  1  0
M  END
$$$$
