NLI.pdb
     RDKit          3D

 25 24  0  0  1  0  0  0  0  0999 V2000
   10.5701  -17.6034   17.3953 N   0  0  0  0  0  0  0  0  0  0  0  0
    9.8656  -17.9223   18.6276 C   0  0  0  0  0  0  0  0  0  0  0  0
    9.5725  -19.1224   18.8115 O   0  0  0  0  0  0  0  0  0  0  0  0
    9.5457  -16.8392   19.5642 C   0  0  0  0  0  0  0  0  0  0  0  0
    9.3987  -17.2882   20.9844 C   0  0  2  0  0  0  0  0  0  0  0  0
    7.9967  -17.8573   21.0870 N   0  0  0  0  0  0  0  0  0  0  0  0
    9.3577  -16.1975   21.9823 C   0  0  0  0  0  0  0  0  0  0  0  0
   10.3436  -15.3991   22.0654 O   0  0  0  0  0  0  0  0  0  0  0  0
    5.8643  -13.2429   26.2961 C   0  0  0  0  0  0  0  0  0  0  0  0
    7.0893  -13.4193   25.4772 C   0  0  2  0  0  0  0  0  0  0  0  0
    7.4628  -12.0836   24.8491 C   0  0  0  0  0  0  0  0  0  0  0  0
    7.0697  -14.5268   24.4986 C   0  0  0  0  0  0  0  0  0  0  0  0
    8.3758  -14.8620   23.8566 C   0  0  2  0  0  0  0  0  0  0  0  0
    8.2983  -15.9353   22.8794 N   0  0  0  0  0  0  0  0  0  0  0  0
    9.3811  -15.1240   24.9154 C   0  0  0  0  0  0  0  0  0  0  0  0
   10.5173  -14.5423   24.8285 O   0  0  0  0  0  0  0  0  0  0  0  0
    9.7521  -13.0276   29.1894 C   0  0  0  0  0  0  0  0  0  0  0  0
   10.0899  -13.8569   27.9994 C   0  0  0  0  0  0  0  0  0  0  0  0
    9.9828  -15.3281   28.2092 C   0  0  2  0  0  0  0  0  0  0  0  0
   10.9028  -15.6896   29.3517 C   0  0  0  0  0  0  0  0  0  0  0  0
   10.2572  -16.1709   26.9919 C   0  0  2  0  0  0  0  0  0  0  0  0
    9.1908  -15.9713   26.0286 N   0  0  0  0  0  0  0  0  0  0  0  0
   10.3055  -17.5988   27.3505 C   0  0  0  0  0  0  0  0  0  0  0  0
    9.2501  -18.1988   27.6335 O   0  0  0  0  0  0  0  0  0  0  0  0
   11.5149  -18.2598   27.3696 O   0  0  0  0  0  0  0  0  0  0  0  0
  1  2  1  0
  2  4  1  0
  3  2  2  0
  5  4  1  0
  5  6  1  6
  7  8  2  0
  7  5  1  0
 10  9  1  6
 10 11  1  0
 10 12  1  0
 13 12  1  1
 13 14  1  0
 14  7  1  0
 15 13  1  0
 15 22  1  0
 16 15  2  0
 17 18  1  0
 18 19  1  0
 19 21  1  0
 19 20  1  1
 21 22  1  6
 21 23  1  0
 23 24  2  0
 23 25  1  0
M  END
$$$$
