NLI.pdb
     RDKit          3D

 25 24  0  0  1  0  0  0  0  0999 V2000
    8.0732  -16.4987   18.6076 N   0  0  0  0  0  0  0  0  0  0  0  0
    8.3972  -15.1098   18.8951 C   0  0  0  0  0  0  0  0  0  0  0  0
    8.4625  -14.3353   17.9174 O   0  0  0  0  0  0  0  0  0  0  0  0
    8.6245  -14.7063   20.2872 C   0  0  0  0  0  0  0  0  0  0  0  0
    8.5477  -15.8352   21.2670 C   0  0  2  0  0  0  0  0  0  0  0  0
    7.0710  -16.1509   21.4074 N   0  0  0  0  0  0  0  0  0  0  0  0
    8.9165  -15.4825   22.6550 C   0  0  0  0  0  0  0  0  0  0  0  0
   10.1463  -15.3748   22.9589 O   0  0  0  0  0  0  0  0  0  0  0  0
    8.3305  -12.0052   25.8308 C   0  0  0  0  0  0  0  0  0  0  0  0
    7.1894  -12.9436   25.6904 C   0  0  2  0  0  0  0  0  0  0  0  0
    6.0089  -12.4125   26.4919 C   0  0  0  0  0  0  0  0  0  0  0  0
    7.4742  -14.3676   25.9655 C   0  0  0  0  0  0  0  0  0  0  0  0
    8.4786  -15.0225   25.0752 C   0  0  2  0  0  0  0  0  0  0  0  0
    8.0147  -15.2368   23.7145 N   0  0  0  0  0  0  0  0  0  0  0  0
    8.9546  -16.2706   25.7204 C   0  0  0  0  0  0  0  0  0  0  0  0
    8.1778  -17.2871   25.7186 O   0  0  0  0  0  0  0  0  0  0  0  0
   13.5640  -18.2835   24.4877 C   0  0  0  0  0  0  0  0  0  0  0  0
   12.1656  -18.0522   24.9448 C   0  0  0  0  0  0  0  0  0  0  0  0
   11.9776  -18.0702   26.4227 C   0  0  2  0  0  0  0  0  0  0  0  0
   12.4082  -19.4316   26.9163 C   0  0  0  0  0  0  0  0  0  0  0  0
   10.5909  -17.7246   26.8968 C   0  0  2  0  0  0  0  0  0  0  0  0
   10.2096  -16.4380   26.3450 N   0  0  0  0  0  0  0  0  0  0  0  0
   10.5530  -17.6355   28.3667 C   0  0  0  0  0  0  0  0  0  0  0  0
   10.6138  -16.5190   28.9178 O   0  0  0  0  0  0  0  0  0  0  0  0
   10.4499  -18.7850   29.1202 O   0  0  0  0  0  0  0  0  0  0  0  0
  1  2  1  0
  2  4  1  0
  3  2  2  0
  5  4  1  0
  5  6  1  1
  7  8  2  0
  7  5  1  0
 10  9  1  1
 10 11  1  0
 10 12  1  0
 13 12  1  1
 13 14  1  0
 14  7  1  0
 15 13  1  0
 15 22  1  0
 16 15  2  0
 17 18  1  0
 18 19  1  0
 19 21  1  0
 19 20  1  6
 21 22  1  6
 21 23  1  0
 23 24  2  0
 23 25  1  0
M  END
$$$$
