NLI.pdb
     RDKit          3D

 25 24  0  0  1  0  0  0  0  0999 V2000
   12.2133  -16.8984   18.0280 N   0  0  0  0  0  0  0  0  0  0  0  0
   10.8524  -16.8389   18.5389 C   0  0  0  0  0  0  0  0  0  0  0  0
    9.9971  -17.5215   17.9368 O   0  0  0  0  0  0  0  0  0  0  0  0
   10.5677  -15.9981   19.7070 C   0  0  0  0  0  0  0  0  0  0  0  0
   10.2073  -16.7702   20.9376 C   0  0  2  0  0  0  0  0  0  0  0  0
    8.8209  -17.3265   20.6760 N   0  0  0  0  0  0  0  0  0  0  0  0
    9.9818  -15.9480   22.1460 C   0  0  0  0  0  0  0  0  0  0  0  0
   10.9360  -15.2396   22.5979 O   0  0  0  0  0  0  0  0  0  0  0  0
    5.8251  -13.6971   26.2681 C   0  0  0  0  0  0  0  0  0  0  0  0
    7.1916  -13.8855   25.7207 C   0  0  2  0  0  0  0  0  0  0  0  0
    7.8291  -12.5211   25.4977 C   0  0  0  0  0  0  0  0  0  0  0  0
    7.3098  -14.7723   24.5442 C   0  0  0  0  0  0  0  0  0  0  0  0
    8.6972  -15.1470   24.1383 C   0  0  2  0  0  0  0  0  0  0  0  0
    8.7735  -15.8576   22.8725 N   0  0  0  0  0  0  0  0  0  0  0  0
    9.3420  -15.8880   25.2499 C   0  0  0  0  0  0  0  0  0  0  0  0
    9.5375  -17.1442   25.1067 O   0  0  0  0  0  0  0  0  0  0  0  0
   10.9026  -13.0396   29.7099 C   0  0  0  0  0  0  0  0  0  0  0  0
   11.2012  -13.9344   28.5574 C   0  0  0  0  0  0  0  0  0  0  0  0
   10.6879  -15.3264   28.6946 C   0  0  2  0  0  0  0  0  0  0  0  0
   11.5819  -16.0425   29.6798 C   0  0  0  0  0  0  0  0  0  0  0  0
   10.5622  -16.0933   27.4050 C   0  0  2  0  0  0  0  0  0  0  0  0
    9.7665  -15.3196   26.4705 N   0  0  0  0  0  0  0  0  0  0  0  0
    9.8938  -17.3859   27.6337 C   0  0  0  0  0  0  0  0  0  0  0  0
   10.5778  -18.4224   27.7417 O   0  0  0  0  0  0  0  0  0  0  0  0
    8.5196  -17.4393   27.7274 O   0  0  0  0  0  0  0  0  0  0  0  0
  1  2  1  0
  2  4  1  0
  3  2  2  0
  5  4  1  0
  5  6  1  6
  7  8  2  0
  7  5  1  0
 10  9  1  6
 10 11  1  0
 10 12  1  0
 13 12  1  1
 13 14  1  0
 14  7  1  0
 15 13  1  0
 15 22  1  0
 16 15  2  0
 17 18  1  0
 18 19  1  0
 19 21  1  0
 19 20  1  1
 21 22  1  6
 21 23  1  0
 23 24  2  0
 23 25  1  0
M  END
$$$$
