NLI.pdb
     RDKit          3D

 25 24  0  0  1  0  0  0  0  0999 V2000
   13.4317  -19.1266   19.4631 N   0  0  0  0  0  0  0  0  0  0  0  0
   12.1139  -19.0302   20.0720 C   0  0  0  0  0  0  0  0  0  0  0  0
   11.2570  -19.8535   19.6875 O   0  0  0  0  0  0  0  0  0  0  0  0
   11.8712  -17.9933   21.0812 C   0  0  0  0  0  0  0  0  0  0  0  0
   10.5437  -17.3151   20.9479 C   0  0  2  0  0  0  0  0  0  0  0  0
   10.6976  -16.3455   19.7919 N   0  0  0  0  0  0  0  0  0  0  0  0
   10.1925  -16.4072   22.0612 C   0  0  0  0  0  0  0  0  0  0  0  0
   11.0310  -15.5236   22.4254 O   0  0  0  0  0  0  0  0  0  0  0  0
    5.7331  -14.3239   25.9271 C   0  0  0  0  0  0  0  0  0  0  0  0
    7.1032  -14.3171   25.3567 C   0  0  2  0  0  0  0  0  0  0  0  0
    7.4976  -12.8832   25.0305 C   0  0  0  0  0  0  0  0  0  0  0  0
    7.3512  -15.2484   24.2362 C   0  0  0  0  0  0  0  0  0  0  0  0
    8.7815  -15.5686   23.9497 C   0  0  2  0  0  0  0  0  0  0  0  0
    8.9783  -16.4132   22.7833 N   0  0  0  0  0  0  0  0  0  0  0  0
    9.4053  -16.1289   25.1734 C   0  0  0  0  0  0  0  0  0  0  0  0
    9.7483  -17.3614   25.1678 O   0  0  0  0  0  0  0  0  0  0  0  0
   10.5186  -12.7967   29.5772 C   0  0  0  0  0  0  0  0  0  0  0  0
   10.8080  -13.7186   28.4439 C   0  0  0  0  0  0  0  0  0  0  0  0
   10.3574  -15.1240   28.6478 C   0  0  2  0  0  0  0  0  0  0  0  0
   11.1562  -15.6923   29.7973 C   0  0  0  0  0  0  0  0  0  0  0  0
   10.4384  -16.0062   27.4302 C   0  0  2  0  0  0  0  0  0  0  0  0
    9.6586  -15.4100   26.3618 N   0  0  0  0  0  0  0  0  0  0  0  0
    9.8919  -17.3428   27.7214 C   0  0  0  0  0  0  0  0  0  0  0  0
   10.6629  -18.2647   28.0523 O   0  0  0  0  0  0  0  0  0  0  0  0
    8.5345  -17.5634   27.6269 O   0  0  0  0  0  0  0  0  0  0  0  0
  1  2  1  0
  2  4  1  0
  3  2  2  0
  5  4  1  0
  5  6  1  6
  7  8  2  0
  7  5  1  0
 10  9  1  6
 10 11  1  0
 10 12  1  0
 13 12  1  1
 13 14  1  0
 14  7  1  0
 15 13  1  0
 15 22  1  0
 16 15  2  0
 17 18  1  0
 18 19  1  0
 19 21  1  0
 19 20  1  1
 21 22  1  6
 21 23  1  0
 23 24  2  0
 23 25  1  0
M  END
$$$$
