NLI.pdb
     RDKit          3D

 25 24  0  0  1  0  0  0  0  0999 V2000
   10.2716  -18.3322   18.6937 N   0  0  0  0  0  0  0  0  0  0  0  0
   10.9705  -17.0595   18.7862 C   0  0  0  0  0  0  0  0  0  0  0  0
   11.6387  -16.7131   17.7894 O   0  0  0  0  0  0  0  0  0  0  0  0
   10.8537  -16.2722   20.0186 C   0  0  0  0  0  0  0  0  0  0  0  0
   10.1076  -16.9669   21.1146 C   0  0  2  0  0  0  0  0  0  0  0  0
    8.6990  -17.1603   20.5871 N   0  0  0  0  0  0  0  0  0  0  0  0
    9.8699  -16.1486   22.3232 C   0  0  0  0  0  0  0  0  0  0  0  0
   10.8472  -15.5324   22.8540 O   0  0  0  0  0  0  0  0  0  0  0  0
    5.6280  -13.8620   26.3436 C   0  0  0  0  0  0  0  0  0  0  0  0
    6.9814  -13.9321   25.7387 C   0  0  2  0  0  0  0  0  0  0  0  0
    7.4879  -12.5179   25.4909 C   0  0  0  0  0  0  0  0  0  0  0  0
    7.1265  -14.8078   24.5569 C   0  0  0  0  0  0  0  0  0  0  0  0
    8.5175  -15.2338   24.2193 C   0  0  2  0  0  0  0  0  0  0  0  0
    8.6265  -15.9667   22.9688 N   0  0  0  0  0  0  0  0  0  0  0  0
    9.0873  -15.9774   25.3695 C   0  0  0  0  0  0  0  0  0  0  0  0
    9.2244  -17.2449   25.2627 O   0  0  0  0  0  0  0  0  0  0  0  0
   10.9276  -12.8892   29.4410 C   0  0  0  0  0  0  0  0  0  0  0  0
   11.2026  -13.9173   28.3991 C   0  0  0  0  0  0  0  0  0  0  0  0
   10.6588  -15.2723   28.6961 C   0  0  2  0  0  0  0  0  0  0  0  0
   11.6246  -15.9497   29.6399 C   0  0  0  0  0  0  0  0  0  0  0  0
   10.3746  -16.1275   27.4898 C   0  0  2  0  0  0  0  0  0  0  0  0
    9.4991  -15.4000   26.5902 N   0  0  0  0  0  0  0  0  0  0  0  0
    9.7058  -17.3783   27.8873 C   0  0  0  0  0  0  0  0  0  0  0  0
    8.4961  -17.3612   28.1876 O   0  0  0  0  0  0  0  0  0  0  0  0
   10.4210  -18.5560   27.9234 O   0  0  0  0  0  0  0  0  0  0  0  0
  1  2  1  0
  2  4  1  0
  3  2  2  0
  5  4  1  0
  5  6  1  6
  7  8  2  0
  7  5  1  0
 10  9  1  6
 10 11  1  0
 10 12  1  0
 13 12  1  1
 13 14  1  0
 14  7  1  0
 15 13  1  0
 15 22  1  0
 16 15  2  0
 17 18  1  0
 18 19  1  0
 19 21  1  0
 19 20  1  1
 21 22  1  6
 21 23  1  0
 23 24  2  0
 23 25  1  0
M  END
$$$$
