NLI.pdb
     RDKit          3D

 25 24  0  0  1  0  0  0  0  0999 V2000
    9.9590  -16.8409   17.3857 N   0  0  0  0  0  0  0  0  0  0  0  0
   10.9532  -16.9730   18.4396 C   0  0  0  0  0  0  0  0  0  0  0  0
   11.8618  -17.8092   18.2517 O   0  0  0  0  0  0  0  0  0  0  0  0
   10.8345  -16.1351   19.6380 C   0  0  0  0  0  0  0  0  0  0  0  0
   10.5255  -16.9009   20.8863 C   0  0  2  0  0  0  0  0  0  0  0  0
    9.1786  -17.5529   20.6394 N   0  0  0  0  0  0  0  0  0  0  0  0
   10.2463  -16.0680   22.0760 C   0  0  0  0  0  0  0  0  0  0  0  0
   11.1856  -15.3737   22.5780 O   0  0  0  0  0  0  0  0  0  0  0  0
    5.8846  -13.7688   25.9540 C   0  0  0  0  0  0  0  0  0  0  0  0
    7.2610  -13.8743   25.4091 C   0  0  2  0  0  0  0  0  0  0  0  0
    7.7912  -12.4754   25.1264 C   0  0  0  0  0  0  0  0  0  0  0  0
    7.4459  -14.7981   24.2703 C   0  0  0  0  0  0  0  0  0  0  0  0
    8.8539  -15.1865   23.9588 C   0  0  2  0  0  0  0  0  0  0  0  0
    9.0005  -15.9525   22.7322 N   0  0  0  0  0  0  0  0  0  0  0  0
    9.4365  -15.8753   25.1364 C   0  0  0  0  0  0  0  0  0  0  0  0
    9.7650  -17.1059   25.0164 O   0  0  0  0  0  0  0  0  0  0  0  0
   10.3838  -12.8414   29.6545 C   0  0  0  0  0  0  0  0  0  0  0  0
   10.7985  -13.6914   28.5040 C   0  0  0  0  0  0  0  0  0  0  0  0
   10.4927  -15.1419   28.6534 C   0  0  2  0  0  0  0  0  0  0  0  0
   11.4572  -15.7044   29.6712 C   0  0  0  0  0  0  0  0  0  0  0  0
   10.5143  -15.9367   27.3747 C   0  0  2  0  0  0  0  0  0  0  0  0
    9.6648  -15.2825   26.3972 N   0  0  0  0  0  0  0  0  0  0  0  0
   10.0046  -17.2997   27.6031 C   0  0  0  0  0  0  0  0  0  0  0  0
   10.8070  -18.2480   27.7068 O   0  0  0  0  0  0  0  0  0  0  0  0
    8.6467  -17.5158   27.7011 O   0  0  0  0  0  0  0  0  0  0  0  0
  1  2  1  0
  2  4  1  0
  3  2  2  0
  5  4  1  0
  5  6  1  6
  7  8  2  0
  7  5  1  0
 10  9  1  6
 10 11  1  0
 10 12  1  0
 13 12  1  1
 13 14  1  0
 14  7  1  0
 15 13  1  0
 15 22  1  0
 16 15  2  0
 17 18  1  0
 18 19  1  0
 19 21  1  0
 19 20  1  1
 21 22  1  6
 21 23  1  0
 23 24  2  0
 23 25  1  0
M  END
$$$$
