DSG.pdb
     RDKit          3D

 19 18  0  0  1  0  0  0  0  0999 V2000
   17.3203  -11.2534  -15.9506 N   0  0  0  0  0  0  0  0  0  0  0  0
   18.7326  -10.9268  -15.5233 C   0  0  1  0  0  0  0  0  0  0  0  0
   19.4935  -10.9810  -16.8283 C   0  0  0  0  0  0  0  0  0  0  0  0
   19.7292  -12.3245  -17.3481 C   0  0  0  0  0  0  0  0  0  0  0  0
   19.2020  -12.8282  -18.3550 O   0  0  0  0  0  0  0  0  0  0  0  0
   18.6856   -9.5200  -15.0647 C   0  0  0  0  0  0  0  0  0  0  0  0
   18.0519   -8.6725  -15.7962 O   0  0  0  0  0  0  0  0  0  0  0  0
   20.6361  -13.1518  -16.6634 O   0  0  0  0  0  0  0  0  0  0  0  0
   19.5142   -8.3900  -11.3518 O   0  0  0  0  0  0  0  0  0  0  0  0
   18.6558   -7.5838  -12.0872 C   0  0  0  0  0  0  0  0  0  0  0  0
   19.1134   -7.5580  -13.5586 C   0  0  2  0  0  0  0  0  0  0  0  0
   19.2492   -8.9715  -13.9063 N   0  0  0  0  0  0  0  0  0  0  0  0
   20.3440   -6.7883  -13.6657 C   0  0  0  0  0  0  0  0  0  0  0  0
   21.4278   -7.4392  -13.6547 O   0  0  0  0  0  0  0  0  0  0  0  0
   20.4536   -5.3823  -13.7817 N   0  0  0  0  0  0  0  0  0  0  0  0
   21.7469   -4.7286  -13.9123 C   0  0  0  0  0  0  0  0  0  0  0  0
   21.5813   -3.2817  -14.0789 C   0  0  0  0  0  0  0  0  0  0  0  0
   20.4321   -2.8047  -14.2322 O   0  0  0  0  0  0  0  0  0  0  0  0
   22.6575   -2.3945  -14.0747 O   0  0  0  0  0  0  0  0  0  0  0  0
  2  1  1  6
  2  3  1  0
  3  4  1  0
  4  5  2  0
  6  7  2  0
  6  2  1  0
  8  4  1  0
  9 10  1  0
 11 10  1  1
 11 12  1  0
 12  6  1  0
 13 11  1  0
 13 15  1  0
 14 13  2  0
 16 15  1  0
 16 17  1  0
 17 19  1  0
 18 17  2  0
M  END
$$$$
