DSG.pdb
     RDKit          3D

 19 18  0  0  1  0  0  0  0  0999 V2000
   15.4955  -11.4724  -16.2356 N   0  0  0  0  0  0  0  0  0  0  0  0
   16.2756  -11.0382  -15.0162 C   0  0  1  0  0  0  0  0  0  0  0  0
   16.9641  -12.3155  -14.5925 C   0  0  0  0  0  0  0  0  0  0  0  0
   16.0977  -13.2968  -13.9467 C   0  0  0  0  0  0  0  0  0  0  0  0
   15.3768  -13.1024  -12.9525 O   0  0  0  0  0  0  0  0  0  0  0  0
   17.3004  -10.0980  -15.5236 C   0  0  0  0  0  0  0  0  0  0  0  0
   17.3767   -9.9248  -16.7960 O   0  0  0  0  0  0  0  0  0  0  0  0
   16.0540  -14.5968  -14.4793 O   0  0  0  0  0  0  0  0  0  0  0  0
   18.1211   -6.9489  -17.1737 O   0  0  0  0  0  0  0  0  0  0  0  0
   17.9285   -7.2465  -15.8313 C   0  0  0  0  0  0  0  0  0  0  0  0
   18.9989   -8.2560  -15.3726 C   0  0  2  0  0  0  0  0  0  0  0  0
   18.2213   -9.3455  -14.7846 N   0  0  0  0  0  0  0  0  0  0  0  0
   19.9138   -7.6002  -14.4500 C   0  0  0  0  0  0  0  0  0  0  0  0
   19.4494   -7.2732  -13.3205 O   0  0  0  0  0  0  0  0  0  0  0  0
   21.2739   -7.2899  -14.6868 N   0  0  0  0  0  0  0  0  0  0  0  0
   22.1194   -6.7311  -13.6427 C   0  0  0  0  0  0  0  0  0  0  0  0
   21.9207   -5.2827  -13.5354 C   0  0  0  0  0  0  0  0  0  0  0  0
   21.1269   -4.7081  -14.3174 O   0  0  0  0  0  0  0  0  0  0  0  0
   22.5821   -4.4992  -12.5899 O   0  0  0  0  0  0  0  0  0  0  0  0
  2  1  1  6
  2  3  1  0
  3  4  1  0
  4  5  2  0
  6  7  2  0
  6  2  1  0
  8  4  1  0
  9 10  1  0
 11 10  1  1
 11 12  1  0
 12  6  1  0
 13 11  1  0
 13 15  1  0
 14 13  2  0
 16 15  1  0
 16 17  1  0
 17 19  1  0
 18 17  2  0
M  END
$$$$
