DSG.pdb
     RDKit          3D

 19 18  0  0  1  0  0  0  0  0999 V2000
   14.9898   -9.2764  -14.0718 N   0  0  0  0  0  0  0  0  0  0  0  0
   16.0493   -9.4439  -13.0072 C   0  0  1  0  0  0  0  0  0  0  0  0
   17.1916  -10.0706  -13.7736 C   0  0  0  0  0  0  0  0  0  0  0  0
   17.1514  -11.5274  -13.8562 C   0  0  0  0  0  0  0  0  0  0  0  0
   18.0335  -12.2632  -14.3319 O   0  0  0  0  0  0  0  0  0  0  0  0
   16.4388   -8.0677  -12.6250 C   0  0  0  0  0  0  0  0  0  0  0  0
   16.3644   -7.1522  -13.5257 O   0  0  0  0  0  0  0  0  0  0  0  0
   16.0168  -12.1899  -13.3569 O   0  0  0  0  0  0  0  0  0  0  0  0
   17.4773   -6.9423   -8.8714 O   0  0  0  0  0  0  0  0  0  0  0  0
   16.9126   -5.9669   -9.6822 C   0  0  0  0  0  0  0  0  0  0  0  0
   17.3045   -6.2312  -11.1491 C   0  0  2  0  0  0  0  0  0  0  0  0
   16.8853   -7.6128  -11.3783 N   0  0  0  0  0  0  0  0  0  0  0  0
   18.7315   -5.9972  -11.3149 C   0  0  0  0  0  0  0  0  0  0  0  0
   19.1612   -4.8480  -11.0100 O   0  0  0  0  0  0  0  0  0  0  0  0
   19.6909   -6.9259  -11.7831 N   0  0  0  0  0  0  0  0  0  0  0  0
   21.0825   -6.5484  -11.9782 C   0  0  0  0  0  0  0  0  0  0  0  0
   21.2489   -5.8159  -13.2369 C   0  0  0  0  0  0  0  0  0  0  0  0
   20.2497   -5.5986  -13.9623 O   0  0  0  0  0  0  0  0  0  0  0  0
   22.4849   -5.3402  -13.6744 O   0  0  0  0  0  0  0  0  0  0  0  0
  2  1  1  6
  2  3  1  0
  3  4  1  0
  4  5  2  0
  6  7  2  0
  6  2  1  0
  8  4  1  0
  9 10  1  0
 11 10  1  1
 11 12  1  0
 12  6  1  0
 13 11  1  0
 13 15  1  0
 14 13  2  0
 16 15  1  0
 16 17  1  0
 17 19  1  0
 18 17  2  0
M  END
$$$$
