DSG.pdb
     RDKit          3D

 19 18  0  0  1  0  0  0  0  0999 V2000
   19.4049  -11.2796  -17.9632 N   0  0  0  0  0  0  0  0  0  0  0  0
   20.6025  -10.9466  -17.1037 C   0  0  1  0  0  0  0  0  0  0  0  0
   21.6427  -10.5495  -18.1261 C   0  0  0  0  0  0  0  0  0  0  0  0
   22.3393  -11.6643  -18.7606 C   0  0  0  0  0  0  0  0  0  0  0  0
   22.5805  -12.7707  -18.2474 O   0  0  0  0  0  0  0  0  0  0  0  0
   20.2105   -9.7410  -16.3393 C   0  0  0  0  0  0  0  0  0  0  0  0
   19.5866   -8.8090  -16.9692 O   0  0  0  0  0  0  0  0  0  0  0  0
   22.7929  -11.4992  -20.0806 O   0  0  0  0  0  0  0  0  0  0  0  0
   18.7509   -7.7126  -12.3270 O   0  0  0  0  0  0  0  0  0  0  0  0
   19.3572   -8.7666  -12.9971 C   0  0  0  0  0  0  0  0  0  0  0  0
   19.9356   -8.2586  -14.3323 C   0  0  2  0  0  0  0  0  0  0  0  0
   20.4285   -9.4717  -14.9826 N   0  0  0  0  0  0  0  0  0  0  0  0
   20.9586   -7.2588  -14.0635 C   0  0  0  0  0  0  0  0  0  0  0  0
   22.1032   -7.6857  -13.7378 O   0  0  0  0  0  0  0  0  0  0  0  0
   20.8044   -5.8538  -14.1294 N   0  0  0  0  0  0  0  0  0  0  0  0
   21.9196   -4.9538  -13.8772 C   0  0  0  0  0  0  0  0  0  0  0  0
   21.5223   -3.5609  -14.1031 C   0  0  0  0  0  0  0  0  0  0  0  0
   20.3606   -3.3062  -14.4999 O   0  0  0  0  0  0  0  0  0  0  0  0
   22.3875   -2.4871  -13.8944 O   0  0  0  0  0  0  0  0  0  0  0  0
  2  1  1  6
  2  3  1  0
  3  4  1  0
  4  5  2  0
  6  7  2  0
  6  2  1  0
  8  4  1  0
  9 10  1  0
 11 10  1  1
 11 12  1  0
 12  6  1  0
 13 11  1  0
 13 15  1  0
 14 13  2  0
 16 15  1  0
 16 17  1  0
 17 19  1  0
 18 17  2  0
M  END
$$$$
