DSG.pdb
     RDKit          3D

 19 18  0  0  1  0  0  0  0  0999 V2000
   17.3036  -10.4427  -15.0549 N   0  0  0  0  0  0  0  0  0  0  0  0
   18.2004   -9.6743  -15.9979 C   0  0  1  0  0  0  0  0  0  0  0  0
   17.3442   -8.4866  -16.3738 C   0  0  0  0  0  0  0  0  0  0  0  0
   16.2404   -8.7859  -17.2809 C   0  0  0  0  0  0  0  0  0  0  0  0
   16.3326   -9.2975  -18.4103 O   0  0  0  0  0  0  0  0  0  0  0  0
   19.3259   -9.1969  -15.1631 C   0  0  0  0  0  0  0  0  0  0  0  0
   19.0675   -8.8480  -13.9522 O   0  0  0  0  0  0  0  0  0  0  0  0
   14.9347   -8.4762  -16.8630 O   0  0  0  0  0  0  0  0  0  0  0  0
   23.9599   -9.0546  -14.0465 O   0  0  0  0  0  0  0  0  0  0  0  0
   22.9250   -9.4284  -14.8932 C   0  0  0  0  0  0  0  0  0  0  0  0
   21.6877   -8.5560  -14.6048 C   0  0  2  0  0  0  0  0  0  0  0  0
   20.6740   -9.0749  -15.5214 N   0  0  0  0  0  0  0  0  0  0  0  0
   22.0285   -7.1559  -14.8104 C   0  0  0  0  0  0  0  0  0  0  0  0
   22.1385   -6.7646  -16.0076 O   0  0  0  0  0  0  0  0  0  0  0  0
   22.2498   -6.1842  -13.8060 N   0  0  0  0  0  0  0  0  0  0  0  0
   22.6344   -4.8208  -14.1386 C   0  0  0  0  0  0  0  0  0  0  0  0
   21.4522   -3.9607  -14.2454 C   0  0  0  0  0  0  0  0  0  0  0  0
   20.5545   -4.2439  -15.0735 O   0  0  0  0  0  0  0  0  0  0  0  0
   21.2737   -2.8238  -13.4573 O   0  0  0  0  0  0  0  0  0  0  0  0
  2  1  1  1
  2  3  1  0
  3  4  1  0
  4  5  2  0
  6  7  2  0
  6  2  1  0
  8  4  1  0
  9 10  1  0
 11 10  1  6
 11 12  1  0
 12  6  1  0
 13 11  1  0
 13 15  1  0
 14 13  2  0
 16 15  1  0
 16 17  1  0
 17 19  1  0
 18 17  2  0
M  END
$$$$
