DSG.pdb
     RDKit          3D

 19 18  0  0  1  0  0  0  0  0999 V2000
   16.8982  -11.7256  -16.8018 N   0  0  0  0  0  0  0  0  0  0  0  0
   17.5049  -11.5661  -15.4269 C   0  0  1  0  0  0  0  0  0  0  0  0
   18.7854  -12.3619  -15.5366 C   0  0  0  0  0  0  0  0  0  0  0  0
   18.6243  -13.8074  -15.4133 C   0  0  0  0  0  0  0  0  0  0  0  0
   19.3898  -14.6758  -15.8670 O   0  0  0  0  0  0  0  0  0  0  0  0
   17.8514  -10.1309  -15.3180 C   0  0  0  0  0  0  0  0  0  0  0  0
   18.2834   -9.5372  -16.3743 O   0  0  0  0  0  0  0  0  0  0  0  0
   17.5032  -14.2939  -14.7190 O   0  0  0  0  0  0  0  0  0  0  0  0
   17.7781   -7.8629  -11.8496 O   0  0  0  0  0  0  0  0  0  0  0  0
   17.3763   -7.2768  -13.0424 C   0  0  0  0  0  0  0  0  0  0  0  0
   18.1654   -7.9006  -14.2101 C   0  0  2  0  0  0  0  0  0  0  0  0
   17.7652   -9.3065  -14.1895 N   0  0  0  0  0  0  0  0  0  0  0  0
   19.5883   -7.6742  -14.0036 C   0  0  0  0  0  0  0  0  0  0  0  0
   20.2887   -8.6814  -13.6981 O   0  0  0  0  0  0  0  0  0  0  0  0
   20.2713   -6.4395  -14.1102 N   0  0  0  0  0  0  0  0  0  0  0  0
   21.7079   -6.3446  -13.8993 C   0  0  0  0  0  0  0  0  0  0  0  0
   22.1478   -4.9473  -13.9524 C   0  0  0  0  0  0  0  0  0  0  0  0
   23.3210   -4.6556  -13.6200 O   0  0  0  0  0  0  0  0  0  0  0  0
   21.3115   -3.9089  -14.3618 O   0  0  0  0  0  0  0  0  0  0  0  0
  2  1  1  6
  2  3  1  0
  3  4  1  0
  4  5  2  0
  6  7  2  0
  6  2  1  0
  8  4  1  0
  9 10  1  0
 11 10  1  1
 11 12  1  0
 12  6  1  0
 13 11  1  0
 13 15  1  0
 14 13  2  0
 16 15  1  0
 16 17  1  0
 17 19  1  0
 18 17  2  0
M  END
$$$$
