DSG.pdb
     RDKit          3D

 19 18  0  0  1  0  0  0  0  0999 V2000
   19.5120  -12.3805  -16.1022 N   0  0  0  0  0  0  0  0  0  0  0  0
   18.4425  -11.6707  -16.9000 C   0  0  1  0  0  0  0  0  0  0  0  0
   17.1915  -12.4327  -16.5269 C   0  0  0  0  0  0  0  0  0  0  0  0
   17.1291  -13.7998  -17.0346 C   0  0  0  0  0  0  0  0  0  0  0  0
   16.5543  -14.1757  -18.0710 O   0  0  0  0  0  0  0  0  0  0  0  0
   18.3575  -10.3129  -16.3162 C   0  0  0  0  0  0  0  0  0  0  0  0
   17.4978   -9.4980  -16.8179 O   0  0  0  0  0  0  0  0  0  0  0  0
   17.7729  -14.8110  -16.3005 O   0  0  0  0  0  0  0  0  0  0  0  0
   18.2831   -7.3601  -12.7214 O   0  0  0  0  0  0  0  0  0  0  0  0
   18.4267   -8.6026  -13.3241 C   0  0  0  0  0  0  0  0  0  0  0  0
   18.9185   -8.4147  -14.7725 C   0  0  2  0  0  0  0  0  0  0  0  0
   19.1041   -9.7813  -15.2577 N   0  0  0  0  0  0  0  0  0  0  0  0
   20.1283   -7.6055  -14.7681 C   0  0  0  0  0  0  0  0  0  0  0  0
   21.2127   -8.2005  -14.5065 O   0  0  0  0  0  0  0  0  0  0  0  0
   20.2169   -6.2173  -15.0274 N   0  0  0  0  0  0  0  0  0  0  0  0
   21.4929   -5.5186  -15.0003 C   0  0  0  0  0  0  0  0  0  0  0  0
   21.8432   -5.1331  -13.6301 C   0  0  0  0  0  0  0  0  0  0  0  0
   22.9091   -4.5082  -13.4171 O   0  0  0  0  0  0  0  0  0  0  0  0
   21.0352   -5.4318  -12.5332 O   0  0  0  0  0  0  0  0  0  0  0  0
  2  1  1  1
  2  3  1  0
  3  4  1  0
  4  5  2  0
  6  7  2  0
  6  2  1  0
  8  4  1  0
  9 10  1  0
 11 10  1  1
 11 12  1  0
 12  6  1  0
 13 11  1  0
 13 15  1  0
 14 13  2  0
 16 15  1  0
 16 17  1  0
 17 19  1  0
 18 17  2  0
M  END
$$$$
