DSG.pdb
     RDKit          3D

 19 18  0  0  1  0  0  0  0  0999 V2000
   18.1643  -11.5713  -16.2047 N   0  0  0  0  0  0  0  0  0  0  0  0
   19.1185  -10.5659  -16.8071 C   0  0  1  0  0  0  0  0  0  0  0  0
   18.3183   -9.9994  -17.9576 C   0  0  0  0  0  0  0  0  0  0  0  0
   18.2256  -10.8659  -19.1286 C   0  0  0  0  0  0  0  0  0  0  0  0
   17.3319  -10.8443  -19.9926 O   0  0  0  0  0  0  0  0  0  0  0  0
   19.2744   -9.5121  -15.7791 C   0  0  0  0  0  0  0  0  0  0  0  0
   18.2054   -8.9921  -15.2875 O   0  0  0  0  0  0  0  0  0  0  0  0
   19.2313  -11.8283  -19.3240 O   0  0  0  0  0  0  0  0  0  0  0  0
   22.4136   -9.0775  -13.3890 O   0  0  0  0  0  0  0  0  0  0  0  0
   21.1530   -8.6285  -13.0191 C   0  0  0  0  0  0  0  0  0  0  0  0
   20.4774   -7.9493  -14.2264 C   0  0  2  0  0  0  0  0  0  0  0  0
   20.4623   -8.9929  -15.2500 N   0  0  0  0  0  0  0  0  0  0  0  0
   21.2291   -6.7572  -14.5897 C   0  0  0  0  0  0  0  0  0  0  0  0
   22.2706   -6.9285  -15.2857 O   0  0  0  0  0  0  0  0  0  0  0  0
   20.9139   -5.4218  -14.2441 N   0  0  0  0  0  0  0  0  0  0  0  0
   21.7192   -4.3045  -14.7133 C   0  0  0  0  0  0  0  0  0  0  0  0
   21.1738   -3.0332  -14.2281 C   0  0  0  0  0  0  0  0  0  0  0  0
   20.1043   -3.0290  -13.5740 O   0  0  0  0  0  0  0  0  0  0  0  0
   21.7970   -1.8076  -14.4619 O   0  0  0  0  0  0  0  0  0  0  0  0
  2  1  1  1
  2  3  1  0
  3  4  1  0
  4  5  2  0
  6  7  2  0
  6  2  1  0
  8  4  1  0
  9 10  1  0
 11 10  1  1
 11 12  1  0
 12  6  1  0
 13 11  1  0
 13 15  1  0
 14 13  2  0
 16 15  1  0
 16 17  1  0
 17 19  1  0
 18 17  2  0
M  END
$$$$
