DSG.pdb
     RDKit          3D

 19 18  0  0  1  0  0  0  0  0999 V2000
   21.3156  -11.7407  -16.8729 N   0  0  0  0  0  0  0  0  0  0  0  0
   22.1435  -10.5141  -17.1793 C   0  0  1  0  0  0  0  0  0  0  0  0
   22.1554  -10.4928  -18.6908 C   0  0  0  0  0  0  0  0  0  0  0  0
   23.0077  -11.5008  -19.3139 C   0  0  0  0  0  0  0  0  0  0  0  0
   24.2447  -11.5813  -19.2183 O   0  0  0  0  0  0  0  0  0  0  0  0
   21.3367   -9.3694  -16.6995 C   0  0  0  0  0  0  0  0  0  0  0  0
   20.0626   -9.4216  -16.8695 O   0  0  0  0  0  0  0  0  0  0  0  0
   22.3975  -12.4894  -20.1050 O   0  0  0  0  0  0  0  0  0  0  0  0
   21.0000   -8.1407  -13.3874 O   0  0  0  0  0  0  0  0  0  0  0  0
   20.1153   -7.8708  -14.4228 C   0  0  0  0  0  0  0  0  0  0  0  0
   20.8703   -7.1755  -15.5725 C   0  0  2  0  0  0  0  0  0  0  0  0
   21.7846   -8.2057  -16.0625 N   0  0  0  0  0  0  0  0  0  0  0  0
   21.5248   -5.9793  -15.0634 C   0  0  0  0  0  0  0  0  0  0  0  0
   22.5830   -6.1485  -14.3926 O   0  0  0  0  0  0  0  0  0  0  0  0
   21.0982   -4.6420  -15.2423 N   0  0  0  0  0  0  0  0  0  0  0  0
   21.8402   -3.5251  -14.6774 C   0  0  0  0  0  0  0  0  0  0  0  0
   21.0761   -2.8872  -13.6012 C   0  0  0  0  0  0  0  0  0  0  0  0
   19.9744   -3.3739  -13.2530 O   0  0  0  0  0  0  0  0  0  0  0  0
   21.5221   -1.7465  -12.9341 O   0  0  0  0  0  0  0  0  0  0  0  0
  2  1  1  6
  2  3  1  0
  3  4  1  0
  4  5  2  0
  6  7  2  0
  6  2  1  0
  8  4  1  0
  9 10  1  0
 11 10  1  1
 11 12  1  0
 12  6  1  0
 13 11  1  0
 13 15  1  0
 14 13  2  0
 16 15  1  0
 16 17  1  0
 17 19  1  0
 18 17  2  0
M  END
$$$$
