DSG.pdb
     RDKit          3D

 19 18  0  0  1  0  0  0  0  0999 V2000
   16.8405  -10.5623  -14.4897 N   0  0  0  0  0  0  0  0  0  0  0  0
   17.6055   -9.7736  -15.5273 C   0  0  1  0  0  0  0  0  0  0  0  0
   16.6820   -8.6094  -15.8044 C   0  0  0  0  0  0  0  0  0  0  0  0
   15.6610   -8.8610  -16.8168 C   0  0  0  0  0  0  0  0  0  0  0  0
   15.4704   -9.9304  -17.4216 O   0  0  0  0  0  0  0  0  0  0  0  0
   18.8048   -9.2650  -14.8241 C   0  0  0  0  0  0  0  0  0  0  0  0
   18.6697   -8.8971  -13.5989 O   0  0  0  0  0  0  0  0  0  0  0  0
   14.7943   -7.8095  -17.1616 O   0  0  0  0  0  0  0  0  0  0  0  0
   23.5560   -8.9207  -14.3119 O   0  0  0  0  0  0  0  0  0  0  0  0
   22.4370   -9.3581  -15.0075 C   0  0  0  0  0  0  0  0  0  0  0  0
   21.1996   -8.5717  -14.5324 C   0  0  2  0  0  0  0  0  0  0  0  0
   20.1057   -9.1312  -15.3246 N   0  0  0  0  0  0  0  0  0  0  0  0
   21.4272   -7.1487  -14.7364 C   0  0  0  0  0  0  0  0  0  0  0  0
   21.2784   -6.7091  -15.9125 O   0  0  0  0  0  0  0  0  0  0  0  0
   21.7987   -6.2030  -13.7516 N   0  0  0  0  0  0  0  0  0  0  0  0
   22.1564   -4.8376  -14.1052 C   0  0  0  0  0  0  0  0  0  0  0  0
   21.0036   -3.9447  -13.9543 C   0  0  0  0  0  0  0  0  0  0  0  0
   19.8815   -4.4266  -13.6709 O   0  0  0  0  0  0  0  0  0  0  0  0
   21.0955   -2.5620  -14.1128 O   0  0  0  0  0  0  0  0  0  0  0  0
  2  1  1  1
  2  3  1  0
  3  4  1  0
  4  5  2  0
  6  7  2  0
  6  2  1  0
  8  4  1  0
  9 10  1  0
 11 10  1  6
 11 12  1  0
 12  6  1  0
 13 11  1  0
 13 15  1  0
 14 13  2  0
 16 15  1  0
 16 17  1  0
 17 19  1  0
 18 17  2  0
M  END
$$$$
