DSG.pdb
     RDKit          3D

 19 18  0  0  1  0  0  0  0  0999 V2000
   19.6068  -11.4622  -16.2224 N   0  0  0  0  0  0  0  0  0  0  0  0
   20.0541  -10.1986  -16.9204 C   0  0  1  0  0  0  0  0  0  0  0  0
   18.9704   -9.9906  -17.9535 C   0  0  0  0  0  0  0  0  0  0  0  0
   19.0233  -10.9013  -19.0931 C   0  0  0  0  0  0  0  0  0  0  0  0
   19.9360  -10.9776  -19.9339 O   0  0  0  0  0  0  0  0  0  0  0  0
   19.9433   -9.1304  -15.9015 C   0  0  0  0  0  0  0  0  0  0  0  0
   18.7837   -8.9074  -15.3913 O   0  0  0  0  0  0  0  0  0  0  0  0
   17.9512  -11.7903  -19.2832 O   0  0  0  0  0  0  0  0  0  0  0  0
   22.4957   -8.3574  -13.2851 O   0  0  0  0  0  0  0  0  0  0  0  0
   21.2201   -7.8428  -13.0967 C   0  0  0  0  0  0  0  0  0  0  0  0
   20.7064   -7.2505  -14.4235 C   0  0  2  0  0  0  0  0  0  0  0  0
   20.9601   -8.3093  -15.3992 N   0  0  0  0  0  0  0  0  0  0  0  0
   21.4020   -6.0008  -14.6932 C   0  0  0  0  0  0  0  0  0  0  0  0
   22.5562   -6.0876  -15.2019 O   0  0  0  0  0  0  0  0  0  0  0  0
   20.9187   -4.6944  -14.4445 N   0  0  0  0  0  0  0  0  0  0  0  0
   21.7470   -3.5205  -14.6750 C   0  0  0  0  0  0  0  0  0  0  0  0
   21.0070   -2.2948  -14.3605 C   0  0  0  0  0  0  0  0  0  0  0  0
   19.7905   -2.3657  -14.0655 O   0  0  0  0  0  0  0  0  0  0  0  0
   21.5998   -1.0323  -14.3731 O   0  0  0  0  0  0  0  0  0  0  0  0
  2  1  1  1
  2  3  1  0
  3  4  1  0
  4  5  2  0
  6  7  2  0
  6  2  1  0
  8  4  1  0
  9 10  1  0
 11 10  1  1
 11 12  1  0
 12  6  1  0
 13 11  1  0
 13 15  1  0
 14 13  2  0
 16 15  1  0
 16 17  1  0
 17 19  1  0
 18 17  2  0
M  END
$$$$
