QGH.pdb
     RDKit          3D

 24 24  0  0  1  0  0  0  0  0999 V2000
    9.2540  -14.0390   16.1967 N   0  0  0  0  0  0  0  0  0  0  0  0
    7.8739  -14.3441   16.4850 C   0  0  0  0  0  0  0  0  0  0  0  0
    7.2699  -15.0615   15.6833 O   0  0  0  0  0  0  0  0  0  0  0  0
    7.2214  -13.8083   17.6993 C   0  0  0  0  0  0  0  0  0  0  0  0
    8.1256  -12.9159   18.4970 C   0  0  0  0  0  0  0  0  0  0  0  0
    9.0400  -13.6453   19.4411 C   0  0  2  0  0  0  0  0  0  0  0  0
    9.8634  -14.5782   18.6535 N   0  0  0  0  0  0  0  0  0  0  0  0
    8.3448  -14.3565   20.5235 C   0  0  0  0  0  0  0  0  0  0  0  0
    7.4284  -13.7970   21.1694 O   0  0  0  0  0  0  0  0  0  0  0  0
    8.7003  -15.7130   20.8671 N   0  0  0  0  0  0  0  0  0  0  0  0
    7.9545  -16.3357   21.9116 C   0  0  0  0  0  0  0  0  0  0  0  0
    8.5077  -16.0607   23.2614 C   0  0  0  0  0  0  0  0  0  0  0  0
    9.6515  -15.5583   23.3079 O   0  0  0  0  0  0  0  0  0  0  0  0
    7.8165  -16.3351   24.4518 N   0  0  0  0  0  0  0  0  0  0  0  0
    8.2925  -16.1199   25.7965 C   0  0  1  0  0  0  0  0  0  0  0  0
    7.2544  -15.6045   26.7176 C   0  0  0  0  0  0  0  0  0  0  0  0
    7.0349  -14.1521   26.5655 C   0  0  0  0  0  0  0  0  0  0  0  0
    7.7923  -13.3467   25.7191 C   0  0  0  0  0  0  0  0  0  0  0  0
    7.3335  -12.0950   25.8218 N   0  0  0  0  0  0  0  0  0  0  0  0
    6.3161  -12.0803   26.7001 C   0  0  0  0  0  0  0  0  0  0  0  0
    6.1490  -13.3333   27.1403 N   0  0  0  0  0  0  0  0  0  0  0  0
    9.1228  -17.2344   26.3205 C   0  0  0  0  0  0  0  0  0  0  0  0
    9.9259  -17.0505   27.4278 O   0  0  0  0  0  0  0  0  0  0  0  0
    9.1311  -18.3760   25.7937 O   0  0  0  0  0  0  0  0  0  0  0  0
  2  4  1  0
  2  1  1  0
  3  2  2  0
  5  6  1  0
  5  4  1  0
  6  7  1  6
  6  8  1  0
  8  9  2  0
  8 10  1  0
 10 11  1  0
 12 11  1  0
 12 14  1  0
 13 12  2  0
 15 14  1  0
 15 16  1  1
 15 22  1  0
 16 17  1  0
 17 18  2  0
 17 21  1  0
 18 19  1  0
 19 20  1  0
 21 20  2  0
 22 23  1  0
 24 22  2  0
M  END
$$$$
