QGH.pdb
     RDKit          3D

 24 24  0  0  1  0  0  0  0  0999 V2000
    7.9797  -14.1015   15.6317 N   0  0  0  0  0  0  0  0  0  0  0  0
    8.6630  -14.2463   16.8938 C   0  0  0  0  0  0  0  0  0  0  0  0
    9.1045  -13.2229   17.4229 O   0  0  0  0  0  0  0  0  0  0  0  0
    8.8215  -15.5783   17.5167 C   0  0  0  0  0  0  0  0  0  0  0  0
    8.1123  -16.6607   16.7578 C   0  0  0  0  0  0  0  0  0  0  0  0
    8.2715  -18.0352   17.3450 C   0  0  2  0  0  0  0  0  0  0  0  0
    7.3150  -18.1730   18.4563 N   0  0  0  0  0  0  0  0  0  0  0  0
    9.6362  -18.3426   17.7964 C   0  0  0  0  0  0  0  0  0  0  0  0
   10.5999  -18.2896   16.9973 O   0  0  0  0  0  0  0  0  0  0  0  0
    9.8980  -18.7119   19.1674 N   0  0  0  0  0  0  0  0  0  0  0  0
   11.2612  -18.9082   19.5388 C   0  0  0  0  0  0  0  0  0  0  0  0
   11.8184  -17.7738   20.3173 C   0  0  0  0  0  0  0  0  0  0  0  0
   12.3820  -16.8683   19.6652 O   0  0  0  0  0  0  0  0  0  0  0  0
   11.7391  -17.6816   21.7156 N   0  0  0  0  0  0  0  0  0  0  0  0
   11.3538  -16.5236   22.4847 C   0  0  1  0  0  0  0  0  0  0  0  0
   10.1400  -15.8484   21.9722 C   0  0  0  0  0  0  0  0  0  0  0  0
   10.4192  -15.0013   20.7952 C   0  0  0  0  0  0  0  0  0  0  0  0
   11.7019  -14.7630   20.3090 C   0  0  0  0  0  0  0  0  0  0  0  0
   11.5965  -13.9618   19.2436 N   0  0  0  0  0  0  0  0  0  0  0  0
   10.2969  -13.6860   19.0397 C   0  0  0  0  0  0  0  0  0  0  0  0
    9.5987  -14.3230   19.9875 N   0  0  0  0  0  0  0  0  0  0  0  0
   11.3983  -16.7414   23.9532 C   0  0  0  0  0  0  0  0  0  0  0  0
   11.2209  -15.6860   24.8248 O   0  0  0  0  0  0  0  0  0  0  0  0
   11.5921  -17.8745   24.4624 O   0  0  0  0  0  0  0  0  0  0  0  0
  2  4  1  0
  2  1  1  0
  3  2  2  0
  5  6  1  0
  5  4  1  0
  6  7  1  1
  6  8  1  0
  8  9  2  0
  8 10  1  0
 10 11  1  0
 12 11  1  0
 12 14  1  0
 13 12  2  0
 15 14  1  0
 15 16  1  6
 15 22  1  0
 16 17  1  0
 17 18  2  0
 17 21  1  0
 18 19  1  0
 19 20  1  0
 21 20  2  0
 22 23  1  0
 24 22  2  0
M  END
$$$$
