QGH.pdb
     RDKit          3D

 24 24  0  0  1  0  0  0  0  0999 V2000
    8.6643  -17.4341   18.5280 N   0  0  0  0  0  0  0  0  0  0  0  0
    8.3817  -18.1648   17.3167 C   0  0  0  0  0  0  0  0  0  0  0  0
    7.2141  -18.1767   16.9182 O   0  0  0  0  0  0  0  0  0  0  0  0
    9.4615  -18.8692   16.5920 C   0  0  0  0  0  0  0  0  0  0  0  0
   10.8201  -18.5911   17.1641 C   0  0  0  0  0  0  0  0  0  0  0  0
   11.5995  -17.5390   16.4258 C   0  0  2  0  0  0  0  0  0  0  0  0
   12.3144  -18.1917   15.3160 N   0  0  0  0  0  0  0  0  0  0  0  0
   12.5352  -16.7806   17.2685 C   0  0  0  0  0  0  0  0  0  0  0  0
   13.4071  -17.3725   17.9464 O   0  0  0  0  0  0  0  0  0  0  0  0
   12.4720  -15.3397   17.3351 N   0  0  0  0  0  0  0  0  0  0  0  0
   13.3521  -14.6921   18.2521 C   0  0  0  0  0  0  0  0  0  0  0  0
   12.8071  -14.6291   19.6314 C   0  0  0  0  0  0  0  0  0  0  0  0
   13.4784  -13.9922   20.4719 O   0  0  0  0  0  0  0  0  0  0  0  0
   11.6031  -15.2391   20.0165 N   0  0  0  0  0  0  0  0  0  0  0  0
   11.0078  -15.2226   21.3304 C   0  0  1  0  0  0  0  0  0  0  0  0
    9.5302  -15.3136   21.3132 C   0  0  0  0  0  0  0  0  0  0  0  0
    8.9181  -14.3815   20.3450 C   0  0  0  0  0  0  0  0  0  0  0  0
    9.6500  -13.4629   19.5972 C   0  0  0  0  0  0  0  0  0  0  0  0
    8.7939  -12.7827   18.8276 N   0  0  0  0  0  0  0  0  0  0  0  0
    7.5507  -13.2371   19.0614 C   0  0  0  0  0  0  0  0  0  0  0  0
    7.6444  -14.2042   19.9821 N   0  0  0  0  0  0  0  0  0  0  0  0
   11.6960  -16.1041   22.3078 C   0  0  0  0  0  0  0  0  0  0  0  0
   11.3978  -16.0273   23.6532 O   0  0  0  0  0  0  0  0  0  0  0  0
   12.5626  -16.9473   21.9635 O   0  0  0  0  0  0  0  0  0  0  0  0
  2  4  1  0
  2  1  1  0
  3  2  2  0
  5  6  1  0
  5  4  1  0
  6  7  1  6
  6  8  1  0
  8  9  2  0
  8 10  1  0
 10 11  1  0
 12 11  1  0
 12 14  1  0
 13 12  2  0
 15 14  1  0
 15 16  1  6
 15 22  1  0
 16 17  1  0
 17 18  2  0
 17 21  1  0
 18 19  1  0
 19 20  1  0
 21 20  2  0
 22 23  1  0
 24 22  2  0
M  END
$$$$
