QGH.pdb
     RDKit          3D

 24 24  0  0  1  0  0  0  0  0999 V2000
    8.7216  -13.2006   17.3825 N   0  0  0  0  0  0  0  0  0  0  0  0
    7.5413  -14.0216   17.2646 C   0  0  0  0  0  0  0  0  0  0  0  0
    7.0548  -14.1610   16.1395 O   0  0  0  0  0  0  0  0  0  0  0  0
    6.9479  -14.6640   18.4573 C   0  0  0  0  0  0  0  0  0  0  0  0
    7.8162  -14.5403   19.6743 C   0  0  0  0  0  0  0  0  0  0  0  0
    8.8871  -15.5898   19.7804 C   0  0  2  0  0  0  0  0  0  0  0  0
    8.2320  -16.9024   19.9097 N   0  0  0  0  0  0  0  0  0  0  0  0
    9.8344  -15.3739   20.8834 C   0  0  0  0  0  0  0  0  0  0  0  0
   10.4061  -14.2681   21.0266 O   0  0  0  0  0  0  0  0  0  0  0  0
   10.1278  -16.4278   21.8256 N   0  0  0  0  0  0  0  0  0  0  0  0
   11.1559  -16.1770   22.7822 C   0  0  0  0  0  0  0  0  0  0  0  0
   10.6591  -16.1823   24.1810 C   0  0  0  0  0  0  0  0  0  0  0  0
   11.4942  -15.9236   25.0746 O   0  0  0  0  0  0  0  0  0  0  0  0
    9.3275  -16.4584   24.5284 N   0  0  0  0  0  0  0  0  0  0  0  0
    8.7876  -16.5696   25.8615 C   0  0  1  0  0  0  0  0  0  0  0  0
    7.3473  -16.2379   25.9475 C   0  0  0  0  0  0  0  0  0  0  0  0
    7.0725  -14.8247   25.6188 C   0  0  0  0  0  0  0  0  0  0  0  0
    8.0716  -13.8770   25.4130 C   0  0  0  0  0  0  0  0  0  0  0  0
    7.4816  -12.7093   25.1370 N   0  0  0  0  0  0  0  0  0  0  0  0
    6.1490  -12.8844   25.1610 C   0  0  0  0  0  0  0  0  0  0  0  0
    5.9193  -14.1700   25.4540 N   0  0  0  0  0  0  0  0  0  0  0  0
    9.2082  -17.8029   26.5742 C   0  0  0  0  0  0  0  0  0  0  0  0
    9.8848  -18.8032   25.9060 O   0  0  0  0  0  0  0  0  0  0  0  0
    8.9761  -17.9895   27.7957 O   0  0  0  0  0  0  0  0  0  0  0  0
  2  4  1  0
  2  1  1  0
  3  2  2  0
  5  6  1  0
  5  4  1  0
  6  7  1  1
  6  8  1  0
  8  9  2  0
  8 10  1  0
 10 11  1  0
 12 11  1  0
 12 14  1  0
 13 12  2  0
 15 14  1  0
 15 16  1  6
 15 22  1  0
 16 17  1  0
 17 18  2  0
 17 21  1  0
 18 19  1  0
 19 20  1  0
 21 20  2  0
 22 23  1  0
 24 22  2  0
M  END
$$$$
