QGH.pdb
     RDKit          3D

 24 24  0  0  1  0  0  0  0  0999 V2000
    8.9533  -18.5172   15.9625 N   0  0  0  0  0  0  0  0  0  0  0  0
    7.6157  -18.0302   15.7286 C   0  0  0  0  0  0  0  0  0  0  0  0
    6.9509  -18.5904   14.8532 O   0  0  0  0  0  0  0  0  0  0  0  0
    7.0765  -16.9002   16.5158 C   0  0  0  0  0  0  0  0  0  0  0  0
    8.1025  -16.2814   17.4185 C   0  0  0  0  0  0  0  0  0  0  0  0
    8.2899  -16.9985   18.7262 C   0  0  2  0  0  0  0  0  0  0  0  0
    7.1637  -17.9306   18.9040 N   0  0  0  0  0  0  0  0  0  0  0  0
    8.4122  -16.1077   19.8891 C   0  0  0  0  0  0  0  0  0  0  0  0
    9.2701  -15.1947   19.9063 O   0  0  0  0  0  0  0  0  0  0  0  0
    7.5490  -16.2632   21.0360 N   0  0  0  0  0  0  0  0  0  0  0  0
    7.6899  -15.3117   22.0894 C   0  0  0  0  0  0  0  0  0  0  0  0
    8.8112  -15.6280   23.0093 C   0  0  0  0  0  0  0  0  0  0  0  0
    9.5553  -16.5777   22.6820 O   0  0  0  0  0  0  0  0  0  0  0  0
    9.0606  -14.9227   24.1969 N   0  0  0  0  0  0  0  0  0  0  0  0
    8.8860  -15.4093   25.5436 C   0  0  1  0  0  0  0  0  0  0  0  0
    7.4912  -15.3169   26.0313 C   0  0  0  0  0  0  0  0  0  0  0  0
    7.0706  -13.9232   26.2792 C   0  0  0  0  0  0  0  0  0  0  0  0
    7.9403  -12.8375   26.2187 C   0  0  0  0  0  0  0  0  0  0  0  0
    7.2395  -11.7323   26.4931 N   0  0  0  0  0  0  0  0  0  0  0  0
    5.9617  -12.0795   26.7242 C   0  0  0  0  0  0  0  0  0  0  0  0
    5.8773  -13.4086   26.5906 N   0  0  0  0  0  0  0  0  0  0  0  0
    9.5761  -16.6980   25.8061 C   0  0  0  0  0  0  0  0  0  0  0  0
   10.1737  -17.3963   24.7765 O   0  0  0  0  0  0  0  0  0  0  0  0
    9.6505  -17.2025   26.9553 O   0  0  0  0  0  0  0  0  0  0  0  0
  2  4  1  0
  2  1  1  0
  3  2  2  0
  5  6  1  0
  5  4  1  0
  6  7  1  1
  6  8  1  0
  8  9  2  0
  8 10  1  0
 10 11  1  0
 12 11  1  0
 12 14  1  0
 13 12  2  0
 15 14  1  0
 15 16  1  6
 15 22  1  0
 16 17  1  0
 17 18  2  0
 17 21  1  0
 18 19  1  0
 19 20  1  0
 21 20  2  0
 22 23  1  0
 24 22  2  0
M  END
$$$$
