QGH.pdb
     RDKit          3D

 24 24  0  0  1  0  0  0  0  0999 V2000
    6.9415  -12.4546   17.0726 N   0  0  0  0  0  0  0  0  0  0  0  0
    7.3139  -13.7913   16.6784 C   0  0  0  0  0  0  0  0  0  0  0  0
    6.7062  -14.2954   15.7304 O   0  0  0  0  0  0  0  0  0  0  0  0
    8.3848  -14.5176   17.3946 C   0  0  0  0  0  0  0  0  0  0  0  0
    8.9554  -13.7297   18.5365 C   0  0  0  0  0  0  0  0  0  0  0  0
    9.9798  -14.4706   19.3495 C   0  0  2  0  0  0  0  0  0  0  0  0
   10.6985  -15.3917   18.4529 N   0  0  0  0  0  0  0  0  0  0  0  0
    9.4243  -15.1975   20.5001 C   0  0  0  0  0  0  0  0  0  0  0  0
    8.7677  -14.5936   21.3799 O   0  0  0  0  0  0  0  0  0  0  0  0
    9.6215  -16.6206   20.6433 N   0  0  0  0  0  0  0  0  0  0  0  0
    9.0972  -17.2343   21.8195 C   0  0  0  0  0  0  0  0  0  0  0  0
    9.8032  -16.8139   23.0558 C   0  0  0  0  0  0  0  0  0  0  0  0
   11.0023  -16.4829   22.9329 O   0  0  0  0  0  0  0  0  0  0  0  0
    9.1940  -16.7750   24.3197 N   0  0  0  0  0  0  0  0  0  0  0  0
    9.7968  -16.3410   25.5564 C   0  0  1  0  0  0  0  0  0  0  0  0
    8.9298  -15.4471   26.3570 C   0  0  0  0  0  0  0  0  0  0  0  0
    9.5496  -15.0597   27.6402 C   0  0  0  0  0  0  0  0  0  0  0  0
   10.6432  -15.7202   28.1938 C   0  0  0  0  0  0  0  0  0  0  0  0
   10.9473  -15.1180   29.3482 N   0  0  0  0  0  0  0  0  0  0  0  0
   10.0876  -14.1033   29.5436 C   0  0  0  0  0  0  0  0  0  0  0  0
    9.2489  -14.0826   28.5007 N   0  0  0  0  0  0  0  0  0  0  0  0
   10.4658  -17.4329   26.3089 C   0  0  0  0  0  0  0  0  0  0  0  0
    9.7981  -18.6102   26.5791 O   0  0  0  0  0  0  0  0  0  0  0  0
   11.6489  -17.3404   26.7243 O   0  0  0  0  0  0  0  0  0  0  0  0
  2  4  1  0
  2  1  1  0
  3  2  2  0
  5  6  1  0
  5  4  1  0
  6  7  1  6
  6  8  1  0
  8  9  2  0
  8 10  1  0
 10 11  1  0
 12 11  1  0
 12 14  1  0
 13 12  2  0
 15 14  1  0
 15 16  1  1
 15 22  1  0
 16 17  1  0
 17 18  2  0
 17 21  1  0
 18 19  1  0
 19 20  1  0
 21 20  2  0
 22 23  1  0
 24 22  2  0
M  END
$$$$
