QGH.pdb
     RDKit          3D

 24 24  0  0  1  0  0  0  0  0999 V2000
    8.6933  -15.1396   14.1220 N   0  0  0  0  0  0  0  0  0  0  0  0
    8.1426  -16.1814   14.9541 C   0  0  0  0  0  0  0  0  0  0  0  0
    8.0721  -17.3158   14.4742 O   0  0  0  0  0  0  0  0  0  0  0  0
    7.6828  -15.8845   16.3281 C   0  0  0  0  0  0  0  0  0  0  0  0
    7.5741  -14.4128   16.5972 C   0  0  0  0  0  0  0  0  0  0  0  0
    8.5888  -13.8849   17.5726 C   0  0  2  0  0  0  0  0  0  0  0  0
    9.6830  -14.8655   17.6721 N   0  0  0  0  0  0  0  0  0  0  0  0
    8.0435  -13.5818   18.9035 C   0  0  0  0  0  0  0  0  0  0  0  0
    7.0588  -12.8176   19.0310 O   0  0  0  0  0  0  0  0  0  0  0  0
    8.6281  -14.1558   20.0924 N   0  0  0  0  0  0  0  0  0  0  0  0
    8.0258  -13.8186   21.3408 C   0  0  0  0  0  0  0  0  0  0  0  0
    8.7360  -14.4068   22.5040 C   0  0  0  0  0  0  0  0  0  0  0  0
    9.8678  -14.8905   22.2851 O   0  0  0  0  0  0  0  0  0  0  0  0
    8.2015  -14.4397   23.8015 N   0  0  0  0  0  0  0  0  0  0  0  0
    7.9553  -15.6122   24.6049 C   0  0  1  0  0  0  0  0  0  0  0  0
    7.1293  -16.6349   23.9240 C   0  0  0  0  0  0  0  0  0  0  0  0
    6.9371  -17.8456   24.7474 C   0  0  0  0  0  0  0  0  0  0  0  0
    7.3761  -17.9550   26.0642 C   0  0  0  0  0  0  0  0  0  0  0  0
    7.0432  -19.1709   26.5100 N   0  0  0  0  0  0  0  0  0  0  0  0
    6.4114  -19.8321   25.5250 C   0  0  0  0  0  0  0  0  0  0  0  0
    6.3559  -19.0155   24.4659 N   0  0  0  0  0  0  0  0  0  0  0  0
    9.1633  -16.1207   25.3036 C   0  0  0  0  0  0  0  0  0  0  0  0
   10.4094  -15.5996   25.0199 O   0  0  0  0  0  0  0  0  0  0  0  0
    9.1095  -17.0288   26.1715 O   0  0  0  0  0  0  0  0  0  0  0  0
  2  4  1  0
  2  1  1  0
  3  2  2  0
  5  6  1  0
  5  4  1  0
  6  7  1  1
  6  8  1  0
  8  9  2  0
  8 10  1  0
 10 11  1  0
 12 11  1  0
 12 14  1  0
 13 12  2  0
 15 14  1  0
 15 16  1  6
 15 22  1  0
 16 17  1  0
 17 18  2  0
 17 21  1  0
 18 19  1  0
 19 20  1  0
 21 20  2  0
 22 23  1  0
 24 22  2  0
M  END
$$$$
