QGH.pdb
     RDKit          3D

 24 24  0  0  1  0  0  0  0  0999 V2000
    9.0923  -12.7088   18.7457 N   0  0  0  0  0  0  0  0  0  0  0  0
    8.1395  -13.5739   18.0941 C   0  0  0  0  0  0  0  0  0  0  0  0
    8.2626  -13.7430   16.8782 O   0  0  0  0  0  0  0  0  0  0  0  0
    7.0605  -14.2253   18.8680 C   0  0  0  0  0  0  0  0  0  0  0  0
    7.1716  -13.9725   20.3425 C   0  0  0  0  0  0  0  0  0  0  0  0
    8.2953  -14.7109   21.0145 C   0  0  2  0  0  0  0  0  0  0  0  0
    8.5477  -15.9491   20.2584 N   0  0  0  0  0  0  0  0  0  0  0  0
    8.0547  -15.0114   22.4331 C   0  0  0  0  0  0  0  0  0  0  0  0
    7.7547  -14.0983   23.2370 O   0  0  0  0  0  0  0  0  0  0  0  0
    8.1581  -16.3621   22.9327 N   0  0  0  0  0  0  0  0  0  0  0  0
    7.9298  -16.5587   24.3270 C   0  0  0  0  0  0  0  0  0  0  0  0
    8.8606  -15.7798   25.1817 C   0  0  0  0  0  0  0  0  0  0  0  0
    9.8970  -15.3463   24.6333 O   0  0  0  0  0  0  0  0  0  0  0  0
    8.6286  -15.5192   26.5412 N   0  0  0  0  0  0  0  0  0  0  0  0
    9.4654  -14.7487   27.4283 C   0  0  1  0  0  0  0  0  0  0  0  0
    8.7694  -13.6006   28.0520 C   0  0  0  0  0  0  0  0  0  0  0  0
    7.8276  -12.9400   27.1260 C   0  0  0  0  0  0  0  0  0  0  0  0
    6.4711  -12.7807   27.3964 C   0  0  0  0  0  0  0  0  0  0  0  0
    5.9154  -12.1480   26.3578 N   0  0  0  0  0  0  0  0  0  0  0  0
    6.8692  -11.9025   25.4431 C   0  0  0  0  0  0  0  0  0  0  0  0
    8.0199  -12.3883   25.9242 N   0  0  0  0  0  0  0  0  0  0  0  0
   10.2861  -15.5800   28.3456 C   0  0  0  0  0  0  0  0  0  0  0  0
   10.1749  -16.9556   28.3346 O   0  0  0  0  0  0  0  0  0  0  0  0
   11.1071  -15.0812   29.1567 O   0  0  0  0  0  0  0  0  0  0  0  0
  2  4  1  0
  2  1  1  0
  3  2  2  0
  5  6  1  0
  5  4  1  0
  6  7  1  6
  6  8  1  0
  8  9  2  0
  8 10  1  0
 10 11  1  0
 12 11  1  0
 12 14  1  0
 13 12  2  0
 15 14  1  0
 15 16  1  1
 15 22  1  0
 16 17  1  0
 17 18  2  0
 17 21  1  0
 18 19  1  0
 19 20  1  0
 21 20  2  0
 22 23  1  0
 24 22  2  0
M  END
$$$$
