QGH.pdb
     RDKit          3D

 24 24  0  0  1  0  0  0  0  0999 V2000
    8.8111  -12.6978   17.2550 N   0  0  0  0  0  0  0  0  0  0  0  0
    8.3236  -13.7951   16.4555 C   0  0  0  0  0  0  0  0  0  0  0  0
    8.6774  -13.8402   15.2744 O   0  0  0  0  0  0  0  0  0  0  0  0
    7.4326  -14.8187   17.0436 C   0  0  0  0  0  0  0  0  0  0  0  0
    7.1476  -14.5731   18.4958 C   0  0  0  0  0  0  0  0  0  0  0  0
    8.3397  -14.7354   19.3969 C   0  0  2  0  0  0  0  0  0  0  0  0
    9.2709  -15.6820   18.7601 N   0  0  0  0  0  0  0  0  0  0  0  0
    8.0085  -15.1740   20.7602 C   0  0  0  0  0  0  0  0  0  0  0  0
    7.1799  -14.5377   21.4519 O   0  0  0  0  0  0  0  0  0  0  0  0
    8.6285  -16.3454   21.3332 N   0  0  0  0  0  0  0  0  0  0  0  0
    8.2802  -16.6737   22.6770 C   0  0  0  0  0  0  0  0  0  0  0  0
    8.6289  -15.6025   23.6437 C   0  0  0  0  0  0  0  0  0  0  0  0
    8.2352  -14.4482   23.3690 O   0  0  0  0  0  0  0  0  0  0  0  0
    9.3617  -15.8292   24.8192 N   0  0  0  0  0  0  0  0  0  0  0  0
    8.8320  -15.9748   26.1530 C   0  0  1  0  0  0  0  0  0  0  0  0
    7.3858  -15.6740   26.2528 C   0  0  0  0  0  0  0  0  0  0  0  0
    7.1096  -14.2233   26.2578 C   0  0  0  0  0  0  0  0  0  0  0  0
    8.1002  -13.2538   26.1260 C   0  0  0  0  0  0  0  0  0  0  0  0
    7.5114  -12.0542   26.1717 N   0  0  0  0  0  0  0  0  0  0  0  0
    6.1879  -12.2302   26.3273 C   0  0  0  0  0  0  0  0  0  0  0  0
    5.9625  -13.5486   26.3775 N   0  0  0  0  0  0  0  0  0  0  0  0
    9.2816  -17.2118   26.8413 C   0  0  0  0  0  0  0  0  0  0  0  0
    9.7185  -17.1674   28.1498 O   0  0  0  0  0  0  0  0  0  0  0  0
    9.2824  -18.3359   26.2781 O   0  0  0  0  0  0  0  0  0  0  0  0
  2  4  1  0
  2  1  1  0
  3  2  2  0
  5  6  1  0
  5  4  1  0
  6  7  1  6
  6  8  1  0
  8  9  2  0
  8 10  1  0
 10 11  1  0
 12 11  1  0
 12 14  1  0
 13 12  2  0
 15 14  1  0
 15 16  1  6
 15 22  1  0
 16 17  1  0
 17 18  2  0
 17 21  1  0
 18 19  1  0
 19 20  1  0
 21 20  2  0
 22 23  1  0
 24 22  2  0
M  END
$$$$
