QGH.pdb
     RDKit          3D

 24 24  0  0  1  0  0  0  0  0999 V2000
   12.1347  -19.5748   18.3946 N   0  0  0  0  0  0  0  0  0  0  0  0
   11.1120  -18.5708   18.2306 C   0  0  0  0  0  0  0  0  0  0  0  0
   10.9630  -18.0885   17.1048 O   0  0  0  0  0  0  0  0  0  0  0  0
   10.2825  -18.1451   19.3787 C   0  0  0  0  0  0  0  0  0  0  0  0
   10.6072  -18.8943   20.6371 C   0  0  0  0  0  0  0  0  0  0  0  0
    9.7241  -18.5551   21.8052 C   0  0  2  0  0  0  0  0  0  0  0  0
    8.3805  -18.2431   21.2893 N   0  0  0  0  0  0  0  0  0  0  0  0
   10.2260  -17.4539   22.6396 C   0  0  0  0  0  0  0  0  0  0  0  0
   11.3444  -17.5353   23.1988 O   0  0  0  0  0  0  0  0  0  0  0  0
    9.4445  -16.2556   22.8342 N   0  0  0  0  0  0  0  0  0  0  0  0
    9.9822  -15.2634   23.7068 C   0  0  0  0  0  0  0  0  0  0  0  0
    9.0913  -14.9569   24.8539 C   0  0  0  0  0  0  0  0  0  0  0  0
    7.8742  -15.1970   24.6995 O   0  0  0  0  0  0  0  0  0  0  0  0
    9.5494  -14.4239   26.0689 N   0  0  0  0  0  0  0  0  0  0  0  0
    8.7440  -13.8474   27.1177 C   0  0  1  0  0  0  0  0  0  0  0  0
    9.4134  -13.8307   28.4381 C   0  0  0  0  0  0  0  0  0  0  0  0
   10.0130  -15.1351   28.7840 C   0  0  0  0  0  0  0  0  0  0  0  0
    9.9050  -16.2662   27.9792 C   0  0  0  0  0  0  0  0  0  0  0  0
   10.5567  -17.2654   28.5831 N   0  0  0  0  0  0  0  0  0  0  0  0
   11.0714  -16.8078   29.7374 C   0  0  0  0  0  0  0  0  0  0  0  0
   10.7328  -15.5172   29.8430 N   0  0  0  0  0  0  0  0  0  0  0  0
    8.0654  -12.5864   26.7236 C   0  0  0  0  0  0  0  0  0  0  0  0
    8.3574  -11.9794   25.5189 O   0  0  0  0  0  0  0  0  0  0  0  0
    7.2079  -12.0248   27.4516 O   0  0  0  0  0  0  0  0  0  0  0  0
  2  4  1  0
  2  1  1  0
  3  2  2  0
  5  6  1  0
  5  4  1  0
  6  7  1  6
  6  8  1  0
  8  9  2  0
  8 10  1  0
 10 11  1  0
 12 11  1  0
 12 14  1  0
 13 12  2  0
 15 14  1  0
 15 16  1  1
 15 22  1  0
 16 17  1  0
 17 18  2  0
 17 21  1  0
 18 19  1  0
 19 20  1  0
 21 20  2  0
 22 23  1  0
 24 22  2  0
M  END
$$$$
