QGH.pdb
     RDKit          3D

 24 24  0  0  1  0  0  0  0  0999 V2000
    6.9419  -13.1766   15.4790 N   0  0  0  0  0  0  0  0  0  0  0  0
    7.3230  -14.5344   15.7821 C   0  0  0  0  0  0  0  0  0  0  0  0
    6.9748  -15.4139   14.9900 O   0  0  0  0  0  0  0  0  0  0  0  0
    8.1006  -14.8448   17.0013 C   0  0  0  0  0  0  0  0  0  0  0  0
    8.2957  -13.6477   17.8842 C   0  0  0  0  0  0  0  0  0  0  0  0
    9.3616  -13.8170   18.9304 C   0  0  2  0  0  0  0  0  0  0  0  0
   10.5565  -14.3820   18.2810 N   0  0  0  0  0  0  0  0  0  0  0  0
    8.9554  -14.6445   20.0754 C   0  0  0  0  0  0  0  0  0  0  0  0
    8.0013  -14.2953   20.8087 O   0  0  0  0  0  0  0  0  0  0  0  0
    9.6442  -15.8759   20.3814 N   0  0  0  0  0  0  0  0  0  0  0  0
    9.2474  -16.5658   21.5653 C   0  0  0  0  0  0  0  0  0  0  0  0
    9.7686  -15.9362   22.8045 C   0  0  0  0  0  0  0  0  0  0  0  0
   10.7296  -15.1477   22.6725 O   0  0  0  0  0  0  0  0  0  0  0  0
    9.2396  -16.1850   24.0806 N   0  0  0  0  0  0  0  0  0  0  0  0
    8.7652  -15.2037   25.0256 C   0  0  1  0  0  0  0  0  0  0  0  0
    7.5397  -14.4999   24.5847 C   0  0  0  0  0  0  0  0  0  0  0  0
    7.0857  -13.4900   25.5618 C   0  0  0  0  0  0  0  0  0  0  0  0
    7.8629  -12.4062   25.9616 C   0  0  0  0  0  0  0  0  0  0  0  0
    7.1561  -11.6966   26.8475 N   0  0  0  0  0  0  0  0  0  0  0  0
    5.9633  -12.2913   27.0215 C   0  0  0  0  0  0  0  0  0  0  0  0
    5.9377  -13.3749   26.2360 N   0  0  0  0  0  0  0  0  0  0  0  0
    8.7626  -15.6824   26.4315 C   0  0  0  0  0  0  0  0  0  0  0  0
    8.3411  -16.9607   26.7367 O   0  0  0  0  0  0  0  0  0  0  0  0
    9.1396  -14.9625   27.3908 O   0  0  0  0  0  0  0  0  0  0  0  0
  2  4  1  0
  2  1  1  0
  3  2  2  0
  5  6  1  0
  5  4  1  0
  6  7  1  6
  6  8  1  0
  8  9  2  0
  8 10  1  0
 10 11  1  0
 12 11  1  0
 12 14  1  0
 13 12  2  0
 15 14  1  0
 15 16  1  6
 15 22  1  0
 16 17  1  0
 17 18  2  0
 17 21  1  0
 18 19  1  0
 19 20  1  0
 21 20  2  0
 22 23  1  0
 24 22  2  0
M  END
$$$$
