WRG.pdb
     RDKit          3D

 30 31  0  0  1  0  0  0  0  0999 V2000
    6.5349  -18.5666   25.0270 N   0  0  0  0  0  0  0  0  0  0  0  0
    6.8885  -17.2094   24.7725 C   0  0  1  0  0  0  0  0  0  0  0  0
    7.5339  -16.5238   25.9295 C   0  0  0  0  0  0  0  0  0  0  0  0
    6.8861  -15.2746   26.3598 C   0  0  0  0  0  0  0  0  0  0  0  0
    5.6091  -15.1662   26.8634 C   0  0  0  0  0  0  0  0  0  0  0  0
    5.3896  -13.8857   27.1541 N   0  0  0  0  0  0  0  0  0  0  0  0
    6.4558  -13.1403   26.8684 C   0  0  0  0  0  0  0  0  0  0  0  0
    6.7089  -11.7913   26.9855 C   0  0  0  0  0  0  0  0  0  0  0  0
    7.9199  -11.2524   26.6058 C   0  0  0  0  0  0  0  0  0  0  0  0
    8.8725  -12.1098   26.1033 C   0  0  0  0  0  0  0  0  0  0  0  0
    8.6161  -13.4538   25.9885 C   0  0  0  0  0  0  0  0  0  0  0  0
    7.4205  -14.0099   26.3602 C   0  0  0  0  0  0  0  0  0  0  0  0
    7.8545  -17.1041   23.6241 C   0  0  0  0  0  0  0  0  0  0  0  0
    8.5888  -18.0738   23.3769 O   0  0  0  0  0  0  0  0  0  0  0  0
    7.9554  -14.6709   15.6971 N   0  0  0  0  0  0  0  0  0  0  0  0
    7.8011  -13.9310   16.9017 C   0  0  0  0  0  0  0  0  0  0  0  0
    8.5898  -12.9188   17.0927 N   0  0  0  0  0  0  0  0  0  0  0  0
    6.8243  -14.2791   17.8641 N   0  0  0  0  0  0  0  0  0  0  0  0
    7.1414  -14.1753   19.2471 C   0  0  0  0  0  0  0  0  0  0  0  0
    8.5454  -14.6430   19.5700 C   0  0  0  0  0  0  0  0  0  0  0  0
    8.7268  -14.4769   21.0594 C   0  0  0  0  0  0  0  0  0  0  0  0
    8.9541  -15.7912   21.7639 C   0  0  2  0  0  0  0  0  0  0  0  0
    7.9545  -15.9415   22.8187 N   0  0  0  0  0  0  0  0  0  0  0  0
   10.2801  -15.7187   22.4322 C   0  0  0  0  0  0  0  0  0  0  0  0
   10.5141  -14.9051   23.3903 O   0  0  0  0  0  0  0  0  0  0  0  0
    8.6003  -12.3964   18.0092 N   0  0  0  0  0  0  0  0  0  0  0  0
   11.3800  -16.5419   22.0601 C   0  0  0  0  0  0  0  0  0  0  0  0
   12.6860  -16.4081   22.7214 C   0  0  0  0  0  0  0  0  0  0  0  0
   13.6758  -15.9120   21.7595 O   0  0  0  0  0  0  0  0  0  0  0  0
   13.3537  -15.7199   20.5642 O   0  0  0  0  0  0  0  0  0  0  0  0
  2  1  1  1
  2  3  1  0
  3  4  1  0
  4  5  2  0
  5  6  1  0
  7  8  2  0
  7  6  1  0
  9  8  1  0
 10  9  2  0
 11 10  1  0
 11 12  2  0
 12  4  1  0
 12  7  1  0
 13  2  1  0
 14 13  2  0
 16 15  1  0
 16 18  1  0
 17 16  2  0
 19 18  1  0
 20 21  1  0
 20 19  1  0
 22 23  1  0
 22 21  1  1
 23 13  1  0
 24 22  1  0
 25 24  2  0
 26 24  1  0
 27 26  1  0
 28 27  1  0
 28 30  1  0
 29 28  2  0
M  END
$$$$
