WRG.pdb
     RDKit          3D

 30 31  0  0  1  0  0  0  0  0999 V2000
    6.8736  -18.1547   24.4924 N   0  0  0  0  0  0  0  0  0  0  0  0
    7.1233  -16.7714   24.2563 C   0  0  1  0  0  0  0  0  0  0  0  0
    7.9473  -16.1152   25.3126 C   0  0  0  0  0  0  0  0  0  0  0  0
    7.2431  -15.1090   26.1232 C   0  0  0  0  0  0  0  0  0  0  0  0
    6.3179  -15.3771   27.1072 C   0  0  0  0  0  0  0  0  0  0  0  0
    5.9189  -14.2165   27.6230 N   0  0  0  0  0  0  0  0  0  0  0  0
    6.5322  -13.1932   27.0308 C   0  0  0  0  0  0  0  0  0  0  0  0
    6.4529  -11.8295   27.2079 C   0  0  0  0  0  0  0  0  0  0  0  0
    7.2057  -10.9615   26.4456 C   0  0  0  0  0  0  0  0  0  0  0  0
    8.0430  -11.5041   25.4972 C   0  0  0  0  0  0  0  0  0  0  0  0
    8.1191  -12.8640   25.3241 C   0  0  0  0  0  0  0  0  0  0  0  0
    7.3808  -13.7440   26.0707 C   0  0  0  0  0  0  0  0  0  0  0  0
    7.8538  -16.5632   22.9578 C   0  0  0  0  0  0  0  0  0  0  0  0
    8.7319  -17.3788   22.6349 O   0  0  0  0  0  0  0  0  0  0  0  0
    8.3344  -12.4819   16.6463 N   0  0  0  0  0  0  0  0  0  0  0  0
    8.4985  -13.7414   16.0068 C   0  0  0  0  0  0  0  0  0  0  0  0
    9.1943  -13.7758   14.9125 N   0  0  0  0  0  0  0  0  0  0  0  0
    7.9265  -14.9213   16.5382 N   0  0  0  0  0  0  0  0  0  0  0  0
    7.5342  -14.9504   17.9054 C   0  0  0  0  0  0  0  0  0  0  0  0
    8.1995  -13.8726   18.7360 C   0  0  0  0  0  0  0  0  0  0  0  0
    7.7013  -14.0448   20.1505 C   0  0  0  0  0  0  0  0  0  0  0  0
    8.2309  -15.2986   20.8010 C   0  0  2  0  0  0  0  0  0  0  0  0
    7.5750  -15.4734   22.0948 N   0  0  0  0  0  0  0  0  0  0  0  0
    9.6766  -15.0860   21.0745 C   0  0  0  0  0  0  0  0  0  0  0  0
   10.0863  -14.4459   22.1026 O   0  0  0  0  0  0  0  0  0  0  0  0
    9.3943  -14.6857   14.4175 N   0  0  0  0  0  0  0  0  0  0  0  0
   10.7054  -15.5745   20.2208 C   0  0  0  0  0  0  0  0  0  0  0  0
   12.1172  -15.2512   20.4718 C   0  0  0  0  0  0  0  0  0  0  0  0
   12.9501  -15.8292   19.4119 O   0  0  0  0  0  0  0  0  0  0  0  0
   12.4403  -16.5753   18.5443 O   0  0  0  0  0  0  0  0  0  0  0  0
  2  1  1  1
  2  3  1  0
  3  4  1  0
  4  5  2  0
  5  6  1  0
  7  8  2  0
  7  6  1  0
  9  8  1  0
 10  9  2  0
 11 10  1  0
 11 12  2  0
 12  4  1  0
 12  7  1  0
 13  2  1  0
 14 13  2  0
 16 15  1  0
 16 18  1  0
 17 16  2  0
 19 18  1  0
 20 21  1  0
 20 19  1  0
 22 23  1  0
 22 21  1  1
 23 13  1  0
 24 22  1  0
 25 24  2  0
 26 24  1  0
 27 26  1  0
 28 27  1  0
 28 30  1  0
 29 28  2  0
M  END
$$$$
