WRG.pdb
     RDKit          3D

 30 31  0  0  1  0  0  0  0  0999 V2000
    6.6193  -17.5682   23.7011 N   0  0  0  0  0  0  0  0  0  0  0  0
    7.6204  -16.5585   23.8016 C   0  0  1  0  0  0  0  0  0  0  0  0
    7.9658  -16.1847   25.2038 C   0  0  0  0  0  0  0  0  0  0  0  0
    7.1160  -15.1436   25.8032 C   0  0  0  0  0  0  0  0  0  0  0  0
    5.8793  -15.3484   26.3731 C   0  0  0  0  0  0  0  0  0  0  0  0
    5.4329  -14.1759   26.8184 N   0  0  0  0  0  0  0  0  0  0  0  0
    6.3105  -13.2047   26.5722 C   0  0  0  0  0  0  0  0  0  0  0  0
    6.3014  -11.8519   26.8316 C   0  0  0  0  0  0  0  0  0  0  0  0
    7.3549  -11.0428   26.4618 C   0  0  0  0  0  0  0  0  0  0  0  0
    8.4212  -11.6332   25.8219 C   0  0  0  0  0  0  0  0  0  0  0  0
    8.4263  -12.9820   25.5654 C   0  0  0  0  0  0  0  0  0  0  0  0
    7.3907  -13.8039   25.9245 C   0  0  0  0  0  0  0  0  0  0  0  0
    8.9039  -16.9970   23.1508 C   0  0  0  0  0  0  0  0  0  0  0  0
    9.1817  -18.2067   23.1444 O   0  0  0  0  0  0  0  0  0  0  0  0
    7.3961  -14.3769   19.8455 N   0  0  0  0  0  0  0  0  0  0  0  0
    7.8912  -13.7671   18.6600 C   0  0  0  0  0  0  0  0  0  0  0  0
    7.2859  -12.7028   18.2315 N   0  0  0  0  0  0  0  0  0  0  0  0
    9.0045  -14.2957   17.9653 N   0  0  0  0  0  0  0  0  0  0  0  0
   10.1735  -14.6536   18.6929 C   0  0  0  0  0  0  0  0  0  0  0  0
    9.8699  -15.4282   19.9587 C   0  0  0  0  0  0  0  0  0  0  0  0
   11.1976  -15.7425   20.6046 C   0  0  0  0  0  0  0  0  0  0  0  0
   11.0448  -16.4973   21.9017 C   0  0  2  0  0  0  0  0  0  0  0  0
    9.8022  -16.0808   22.5477 N   0  0  0  0  0  0  0  0  0  0  0  0
   12.1572  -16.0821   22.7962 C   0  0  0  0  0  0  0  0  0  0  0  0
   12.0812  -15.0428   23.5370 O   0  0  0  0  0  0  0  0  0  0  0  0
    7.6271  -12.1827   17.3794 N   0  0  0  0  0  0  0  0  0  0  0  0
   13.3803  -16.8032   22.8956 C   0  0  0  0  0  0  0  0  0  0  0  0
   14.5504  -16.2237   23.5706 C   0  0  0  0  0  0  0  0  0  0  0  0
   15.6956  -17.1299   23.4346 O   0  0  0  0  0  0  0  0  0  0  0  0
   15.5630  -18.2324   22.8549 O   0  0  0  0  0  0  0  0  0  0  0  0
  2  1  1  1
  2  3  1  0
  3  4  1  0
  4  5  2  0
  5  6  1  0
  7  8  2  0
  7  6  1  0
  9  8  1  0
 10  9  2  0
 11 10  1  0
 11 12  2  0
 12  4  1  0
 12  7  1  0
 13  2  1  0
 14 13  2  0
 16 15  1  0
 16 18  1  0
 17 16  2  0
 19 18  1  0
 20 21  1  0
 20 19  1  0
 22 23  1  0
 22 21  1  6
 23 13  1  0
 24 22  1  0
 25 24  2  0
 26 24  1  0
 27 26  1  0
 28 27  1  0
 28 30  1  0
 29 28  2  0
M  END
$$$$
