WRG.pdb
     RDKit          3D

 30 31  0  0  1  0  0  0  0  0999 V2000
    6.6743  -18.5244   24.6726 N   0  0  0  0  0  0  0  0  0  0  0  0
    6.9367  -17.1682   24.3208 C   0  0  1  0  0  0  0  0  0  0  0  0
    7.6019  -16.3801   25.3986 C   0  0  0  0  0  0  0  0  0  0  0  0
    6.8380  -15.2237   25.8931 C   0  0  0  0  0  0  0  0  0  0  0  0
    5.6404  -15.2844   26.5700 C   0  0  0  0  0  0  0  0  0  0  0  0
    5.2720  -14.0396   26.8652 N   0  0  0  0  0  0  0  0  0  0  0  0
    6.1641  -13.1574   26.4182 C   0  0  0  0  0  0  0  0  0  0  0  0
    6.2242  -11.7824   26.4735 C   0  0  0  0  0  0  0  0  0  0  0  0
    7.2764  -11.0867   25.9166 C   0  0  0  0  0  0  0  0  0  0  0  0
    8.2696  -11.8140   25.3004 C   0  0  0  0  0  0  0  0  0  0  0  0
    8.2058  -13.1845   25.2477 C   0  0  0  0  0  0  0  0  0  0  0  0
    7.1702  -13.8952   25.7948 C   0  0  0  0  0  0  0  0  0  0  0  0
    7.8337  -17.0814   23.1163 C   0  0  0  0  0  0  0  0  0  0  0  0
    8.4855  -18.0859   22.7895 O   0  0  0  0  0  0  0  0  0  0  0  0
    8.6637  -15.0074   16.3119 N   0  0  0  0  0  0  0  0  0  0  0  0
    7.9190  -13.8027   16.4395 C   0  0  0  0  0  0  0  0  0  0  0  0
    7.4184  -13.2862   15.3600 N   0  0  0  0  0  0  0  0  0  0  0  0
    7.7255  -13.1819   17.6960 N   0  0  0  0  0  0  0  0  0  0  0  0
    8.8371  -13.0124   18.5675 C   0  0  0  0  0  0  0  0  0  0  0  0
    9.2984  -14.3096   19.1991 C   0  0  0  0  0  0  0  0  0  0  0  0
    8.3860  -14.5695   20.3733 C   0  0  0  0  0  0  0  0  0  0  0  0
    8.7453  -15.8325   21.1156 C   0  0  2  0  0  0  0  0  0  0  0  0
    7.9594  -15.8980   22.3455 N   0  0  0  0  0  0  0  0  0  0  0  0
   10.1720  -15.7253   21.5196 C   0  0  0  0  0  0  0  0  0  0  0  0
   11.1149  -15.6251   20.6621 O   0  0  0  0  0  0  0  0  0  0  0  0
    6.9298  -12.3513   15.3742 N   0  0  0  0  0  0  0  0  0  0  0  0
   10.5931  -15.7257   22.8792 C   0  0  0  0  0  0  0  0  0  0  0  0
   12.0080  -15.5473   23.2356 C   0  0  0  0  0  0  0  0  0  0  0  0
   12.6898  -16.8455   23.2075 O   0  0  0  0  0  0  0  0  0  0  0  0
   13.8900  -16.9360   23.5547 O   0  0  0  0  0  0  0  0  0  0  0  0
  2  1  1  1
  2  3  1  0
  3  4  1  0
  4  5  2  0
  5  6  1  0
  7  8  2  0
  7  6  1  0
  9  8  1  0
 10  9  2  0
 11 10  1  0
 11 12  2  0
 12  4  1  0
 12  7  1  0
 13  2  1  0
 14 13  2  0
 16 15  1  0
 16 18  1  0
 17 16  2  0
 19 18  1  0
 20 21  1  0
 20 19  1  0
 22 23  1  0
 22 21  1  1
 23 13  1  0
 24 22  1  0
 25 24  2  0
 26 24  1  0
 27 26  1  0
 28 27  1  0
 28 30  1  0
 29 28  2  0
M  END
$$$$
