WRG.pdb
     RDKit          3D

 30 31  0  0  1  0  0  0  0  0999 V2000
    6.6228  -18.1084   25.6382 N   0  0  0  0  0  0  0  0  0  0  0  0
    7.9475  -17.5903   25.5464 C   0  0  1  0  0  0  0  0  0  0  0  0
    8.1707  -16.3513   26.3466 C   0  0  0  0  0  0  0  0  0  0  0  0
    7.1935  -15.2744   26.1216 C   0  0  0  0  0  0  0  0  0  0  0  0
    5.8292  -15.4364   26.0299 C   0  0  0  0  0  0  0  0  0  0  0  0
    5.2846  -14.2361   25.8426 N   0  0  0  0  0  0  0  0  0  0  0  0
    6.2186  -13.2872   25.8053 C   0  0  0  0  0  0  0  0  0  0  0  0
    6.1544  -11.9221   25.6331 C   0  0  0  0  0  0  0  0  0  0  0  0
    7.2934  -11.1448   25.6277 C   0  0  0  0  0  0  0  0  0  0  0  0
    8.5023  -11.7799   25.8007 C   0  0  0  0  0  0  0  0  0  0  0  0
    8.5617  -13.1409   25.9722 C   0  0  0  0  0  0  0  0  0  0  0  0
    7.4429  -13.9316   25.9814 C   0  0  0  0  0  0  0  0  0  0  0  0
    8.9598  -18.5940   26.0269 C   0  0  0  0  0  0  0  0  0  0  0  0
    8.6904  -19.2731   27.0303 O   0  0  0  0  0  0  0  0  0  0  0  0
   11.1499  -21.4629   21.2168 N   0  0  0  0  0  0  0  0  0  0  0  0
   12.2039  -22.4100   21.3358 C   0  0  0  0  0  0  0  0  0  0  0  0
   12.1274  -23.4900   20.6212 N   0  0  0  0  0  0  0  0  0  0  0  0
   13.3018  -22.1908   22.2008 N   0  0  0  0  0  0  0  0  0  0  0  0
   13.3078  -21.0429   23.0412 C   0  0  0  0  0  0  0  0  0  0  0  0
   12.1938  -21.0539   24.0675 C   0  0  0  0  0  0  0  0  0  0  0  0
   12.3459  -19.7954   24.8871 C   0  0  0  0  0  0  0  0  0  0  0  0
   11.2576  -19.6439   25.9205 C   0  0  2  0  0  0  0  0  0  0  0  0
   10.2043  -18.7899   25.3765 N   0  0  0  0  0  0  0  0  0  0  0  0
   11.8401  -18.9239   27.0835 C   0  0  0  0  0  0  0  0  0  0  0  0
   12.0116  -17.6570   27.0814 O   0  0  0  0  0  0  0  0  0  0  0  0
   12.8864  -24.2223   20.6501 N   0  0  0  0  0  0  0  0  0  0  0  0
   12.2474  -19.5839   28.2770 C   0  0  0  0  0  0  0  0  0  0  0  0
   12.7052  -18.8216   29.4475 C   0  0  0  0  0  0  0  0  0  0  0  0
   13.1111  -19.7479   30.5097 O   0  0  0  0  0  0  0  0  0  0  0  0
   12.9796  -20.9839   30.3540 O   0  0  0  0  0  0  0  0  0  0  0  0
  2  1  1  1
  2  3  1  0
  3  4  1  0
  4  5  2  0
  5  6  1  0
  7  8  2  0
  7  6  1  0
  9  8  1  0
 10  9  2  0
 11 10  1  0
 11 12  2  0
 12  4  1  0
 12  7  1  0
 13  2  1  0
 14 13  2  0
 16 15  1  0
 16 18  1  0
 17 16  2  0
 19 18  1  0
 20 21  1  0
 20 19  1  0
 22 23  1  0
 22 21  1  6
 23 13  1  0
 24 22  1  0
 25 24  2  0
 26 24  1  0
 27 26  1  0
 28 27  1  0
 28 30  1  0
 29 28  2  0
M  END
$$$$
