WRG.pdb
     RDKit          3D

 30 31  0  0  1  0  0  0  0  0999 V2000
    6.8857  -17.0325   25.6985 N   0  0  0  0  0  0  0  0  0  0  0  0
    7.4113  -15.9758   24.8992 C   0  0  1  0  0  0  0  0  0  0  0  0
    8.5249  -15.2227   25.5458 C   0  0  0  0  0  0  0  0  0  0  0  0
    8.1092  -14.2055   26.5245 C   0  0  0  0  0  0  0  0  0  0  0  0
    8.4265  -14.2058   27.8645 C   0  0  0  0  0  0  0  0  0  0  0  0
    7.8874  -13.1198   28.4144 N   0  0  0  0  0  0  0  0  0  0  0  0
    7.2290  -12.4003   27.5073 C   0  0  0  0  0  0  0  0  0  0  0  0
    6.5177  -11.2235   27.5879 C   0  0  0  0  0  0  0  0  0  0  0  0
    5.9101  -10.6743   26.4786 C   0  0  0  0  0  0  0  0  0  0  0  0
    6.0379  -11.3431   25.2822 C   0  0  0  0  0  0  0  0  0  0  0  0
    6.7480  -12.5158   25.2062 C   0  0  0  0  0  0  0  0  0  0  0  0
    7.3596  -13.0783   26.2955 C   0  0  0  0  0  0  0  0  0  0  0  0
    7.9518  -16.4960   23.5952 C   0  0  0  0  0  0  0  0  0  0  0  0
    8.1285  -17.7185   23.4727 O   0  0  0  0  0  0  0  0  0  0  0  0
    8.1955  -14.5708   15.4863 N   0  0  0  0  0  0  0  0  0  0  0  0
    8.0035  -13.7754   16.6493 C   0  0  0  0  0  0  0  0  0  0  0  0
    8.8165  -12.7832   16.8421 N   0  0  0  0  0  0  0  0  0  0  0  0
    6.9645  -14.0491   17.5698 N   0  0  0  0  0  0  0  0  0  0  0  0
    7.1056  -13.6331   18.9230 C   0  0  0  0  0  0  0  0  0  0  0  0
    7.1426  -14.7913   19.8984 C   0  0  0  0  0  0  0  0  0  0  0  0
    8.5981  -15.0731   20.1830 C   0  0  0  0  0  0  0  0  0  0  0  0
    8.7855  -16.1377   21.2351 C   0  0  2  0  0  0  0  0  0  0  0  0
    8.2646  -15.6425   22.5071 N   0  0  0  0  0  0  0  0  0  0  0  0
   10.2475  -16.3380   21.4154 C   0  0  0  0  0  0  0  0  0  0  0  0
   10.9634  -15.5332   22.1042 O   0  0  0  0  0  0  0  0  0  0  0  0
    8.7888  -12.2154   17.7308 N   0  0  0  0  0  0  0  0  0  0  0  0
   10.9553  -17.4310   20.8407 C   0  0  0  0  0  0  0  0  0  0  0  0
   12.3309  -17.2698   20.3484 C   0  0  0  0  0  0  0  0  0  0  0  0
   13.2780  -17.5814   21.4241 O   0  0  0  0  0  0  0  0  0  0  0  0
   12.8596  -17.9118   22.5577 O   0  0  0  0  0  0  0  0  0  0  0  0
  2  1  1  1
  2  3  1  0
  3  4  1  0
  4  5  2  0
  5  6  1  0
  7  8  2  0
  7  6  1  0
  9  8  1  0
 10  9  2  0
 11 10  1  0
 11 12  2  0
 12  4  1  0
 12  7  1  0
 13  2  1  0
 14 13  2  0
 16 15  1  0
 16 18  1  0
 17 16  2  0
 19 18  1  0
 20 21  1  0
 20 19  1  0
 22 23  1  0
 22 21  1  6
 23 13  1  0
 24 22  1  0
 25 24  2  0
 26 24  1  0
 27 26  1  0
 28 27  1  0
 28 30  1  0
 29 28  2  0
M  END
$$$$
