WRG.pdb
     RDKit          3D

 30 31  0  0  1  0  0  0  0  0999 V2000
    8.9907  -16.4993   24.2386 N   0  0  0  0  0  0  0  0  0  0  0  0
    7.8908  -16.3591   25.1342 C   0  0  1  0  0  0  0  0  0  0  0  0
    6.7272  -15.6268   24.5554 C   0  0  0  0  0  0  0  0  0  0  0  0
    6.9415  -14.1891   24.3261 C   0  0  0  0  0  0  0  0  0  0  0  0
    7.4772  -13.6303   23.1873 C   0  0  0  0  0  0  0  0  0  0  0  0
    7.4946  -12.3088   23.3474 N   0  0  0  0  0  0  0  0  0  0  0  0
    6.9982  -11.9636   24.5341 C   0  0  0  0  0  0  0  0  0  0  0  0
    6.8144  -10.7450   25.1492 C   0  0  0  0  0  0  0  0  0  0  0  0
    6.2726  -10.6535   26.4140 C   0  0  0  0  0  0  0  0  0  0  0  0
    5.9198  -11.8248   27.0451 C   0  0  0  0  0  0  0  0  0  0  0  0
    6.1046  -13.0375   26.4282 C   0  0  0  0  0  0  0  0  0  0  0  0
    6.6403  -13.1509   25.1725 C   0  0  0  0  0  0  0  0  0  0  0  0
    7.3717  -17.7007   25.5742 C   0  0  0  0  0  0  0  0  0  0  0  0
    6.2063  -17.7761   25.9947 O   0  0  0  0  0  0  0  0  0  0  0  0
    5.1789  -22.3650   21.1743 N   0  0  0  0  0  0  0  0  0  0  0  0
    4.5924  -22.3475   22.4697 C   0  0  0  0  0  0  0  0  0  0  0  0
    4.0429  -23.4420   22.8975 N   0  0  0  0  0  0  0  0  0  0  0  0
    4.6029  -21.1817   23.2712 N   0  0  0  0  0  0  0  0  0  0  0  0
    5.8313  -20.7326   23.8310 C   0  0  0  0  0  0  0  0  0  0  0  0
    6.5674  -21.8162   24.5914 C   0  0  0  0  0  0  0  0  0  0  0  0
    7.8860  -21.2231   25.0253 C   0  0  0  0  0  0  0  0  0  0  0  0
    7.7206  -20.1541   26.0766 C   0  0  2  0  0  0  0  0  0  0  0  0
    8.1636  -18.8758   25.5251 N   0  0  0  0  0  0  0  0  0  0  0  0
    8.6391  -20.4823   27.1986 C   0  0  0  0  0  0  0  0  0  0  0  0
    8.2566  -21.1590   28.2136 O   0  0  0  0  0  0  0  0  0  0  0  0
    3.5812  -23.4905   23.8449 N   0  0  0  0  0  0  0  0  0  0  0  0
   10.0017  -20.0720   27.2282 C   0  0  0  0  0  0  0  0  0  0  0  0
   10.4418  -18.9622   28.0857 C   0  0  0  0  0  0  0  0  0  0  0  0
   11.1746  -19.4932   29.2399 O   0  0  0  0  0  0  0  0  0  0  0  0
   11.3158  -20.7296   29.3839 O   0  0  0  0  0  0  0  0  0  0  0  0
  2  1  1  6
  2  3  1  0
  3  4  1  0
  4  5  2  0
  5  6  1  0
  7  8  2  0
  7  6  1  0
  9  8  1  0
 10  9  2  0
 11 10  1  0
 11 12  2  0
 12  4  1  0
 12  7  1  0
 13  2  1  0
 14 13  2  0
 16 15  1  0
 16 18  1  0
 17 16  2  0
 19 18  1  0
 20 21  1  0
 20 19  1  0
 22 23  1  0
 22 21  1  6
 23 13  1  0
 24 22  1  0
 25 24  2  0
 26 24  1  0
 27 26  1  0
 28 27  1  0
 28 30  1  0
 29 28  2  0
M  END
$$$$
