WRG.pdb
     RDKit          3D

 30 31  0  0  1  0  0  0  0  0999 V2000
    6.5925  -18.4285   25.3289 N   0  0  0  0  0  0  0  0  0  0  0  0
    7.0537  -17.0970   25.1145 C   0  0  1  0  0  0  0  0  0  0  0  0
    8.0362  -16.6244   26.1326 C   0  0  0  0  0  0  0  0  0  0  0  0
    7.6512  -15.4025   26.8565 C   0  0  0  0  0  0  0  0  0  0  0  0
    7.3006  -15.3357   28.1865 C   0  0  0  0  0  0  0  0  0  0  0  0
    7.0365  -14.0639   28.4783 N   0  0  0  0  0  0  0  0  0  0  0  0
    7.1939  -13.2849   27.4096 C   0  0  0  0  0  0  0  0  0  0  0  0
    7.0384  -11.9306   27.2119 C   0  0  0  0  0  0  0  0  0  0  0  0
    7.2625  -11.3545   25.9793 C   0  0  0  0  0  0  0  0  0  0  0  0
    7.6486  -12.1802   24.9477 C   0  0  0  0  0  0  0  0  0  0  0  0
    7.8026  -13.5296   25.1492 C   0  0  0  0  0  0  0  0  0  0  0  0
    7.5857  -14.1222   26.3652 C   0  0  0  0  0  0  0  0  0  0  0  0
    7.7304  -16.9633   23.7776 C   0  0  0  0  0  0  0  0  0  0  0  0
    8.4225  -17.9082   23.3668 O   0  0  0  0  0  0  0  0  0  0  0  0
    7.4975  -15.2196   16.8085 N   0  0  0  0  0  0  0  0  0  0  0  0
    8.1573  -13.9666   16.6788 C   0  0  0  0  0  0  0  0  0  0  0  0
    8.9935  -13.8243   15.6973 N   0  0  0  0  0  0  0  0  0  0  0  0
    7.9164  -12.9061   17.5839 N   0  0  0  0  0  0  0  0  0  0  0  0
    7.4515  -13.2021   18.8955 C   0  0  0  0  0  0  0  0  0  0  0  0
    8.2681  -14.2749   19.5858 C   0  0  0  0  0  0  0  0  0  0  0  0
    7.5944  -14.5499   20.9084 C   0  0  0  0  0  0  0  0  0  0  0  0
    8.2686  -15.6560   21.6812 C   0  0  2  0  0  0  0  0  0  0  0  0
    7.6054  -15.8012   22.9750 N   0  0  0  0  0  0  0  0  0  0  0  0
    9.6643  -15.2246   21.9570 C   0  0  0  0  0  0  0  0  0  0  0  0
    9.9330  -14.2680   22.7616 O   0  0  0  0  0  0  0  0  0  0  0  0
    9.5095  -12.9172   15.5428 N   0  0  0  0  0  0  0  0  0  0  0  0
   10.7974  -15.8381   21.3524 C   0  0  0  0  0  0  0  0  0  0  0  0
   12.1509  -15.3036   21.5598 C   0  0  0  0  0  0  0  0  0  0  0  0
   13.1001  -16.0218   20.7029 O   0  0  0  0  0  0  0  0  0  0  0  0
   12.7140  -16.9863   20.0030 O   0  0  0  0  0  0  0  0  0  0  0  0
  2  1  1  1
  2  3  1  0
  3  4  1  0
  4  5  2  0
  5  6  1  0
  7  8  2  0
  7  6  1  0
  9  8  1  0
 10  9  2  0
 11 10  1  0
 11 12  2  0
 12  4  1  0
 12  7  1  0
 13  2  1  0
 14 13  2  0
 16 15  1  0
 16 18  1  0
 17 16  2  0
 19 18  1  0
 20 21  1  0
 20 19  1  0
 22 23  1  0
 22 21  1  6
 23 13  1  0
 24 22  1  0
 25 24  2  0
 26 24  1  0
 27 26  1  0
 28 27  1  0
 28 30  1  0
 29 28  2  0
M  END
$$$$
