WRG.pdb
     RDKit          3D

 30 31  0  0  1  0  0  0  0  0999 V2000
    7.5612  -18.6985   25.8161 N   0  0  0  0  0  0  0  0  0  0  0  0
    7.3693  -17.3720   25.3311 C   0  0  1  0  0  0  0  0  0  0  0  0
    7.9129  -16.3132   26.2304 C   0  0  0  0  0  0  0  0  0  0  0  0
    7.0693  -15.1158   26.3715 C   0  0  0  0  0  0  0  0  0  0  0  0
    5.6965  -15.1107   26.4792 C   0  0  0  0  0  0  0  0  0  0  0  0
    5.2993  -13.8466   26.6077 N   0  0  0  0  0  0  0  0  0  0  0  0
    6.3387  -13.0140   26.5902 C   0  0  0  0  0  0  0  0  0  0  0  0
    6.4370  -11.6432   26.6837 C   0  0  0  0  0  0  0  0  0  0  0  0
    7.6586  -11.0057   26.6318 C   0  0  0  0  0  0  0  0  0  0  0  0
    8.7821  -11.7870   26.4826 C   0  0  0  0  0  0  0  0  0  0  0  0
    8.6796  -13.1531   26.3900 C   0  0  0  0  0  0  0  0  0  0  0  0
    7.4765  -13.8064   26.4398 C   0  0  0  0  0  0  0  0  0  0  0  0
    8.0353  -17.1781   23.9962 C   0  0  0  0  0  0  0  0  0  0  0  0
    8.9259  -17.9735   23.6575 O   0  0  0  0  0  0  0  0  0  0  0  0
    9.9799  -13.6781   17.9626 N   0  0  0  0  0  0  0  0  0  0  0  0
    8.8450  -13.6001   17.1092 C   0  0  0  0  0  0  0  0  0  0  0  0
    9.0549  -13.5483   15.8301 N   0  0  0  0  0  0  0  0  0  0  0  0
    7.5289  -13.5792   17.6281 N   0  0  0  0  0  0  0  0  0  0  0  0
    7.3364  -13.5568   19.0375 C   0  0  0  0  0  0  0  0  0  0  0  0
    8.2965  -14.4618   19.7814 C   0  0  0  0  0  0  0  0  0  0  0  0
    7.6546  -14.7770   21.1108 C   0  0  0  0  0  0  0  0  0  0  0  0
    8.3475  -15.9049   21.8340 C   0  0  2  0  0  0  0  0  0  0  0  0
    7.6824  -16.1238   23.1164 N   0  0  0  0  0  0  0  0  0  0  0  0
    9.7334  -15.4599   22.1364 C   0  0  0  0  0  0  0  0  0  0  0  0
    9.9972  -14.6744   23.1099 O   0  0  0  0  0  0  0  0  0  0  0  0
    8.2557  -13.4765   15.1452 N   0  0  0  0  0  0  0  0  0  0  0  0
   10.8618  -15.8708   21.3723 C   0  0  0  0  0  0  0  0  0  0  0  0
   12.2153  -15.4049   21.7068 C   0  0  0  0  0  0  0  0  0  0  0  0
   13.1518  -15.8204   20.6573 O   0  0  0  0  0  0  0  0  0  0  0  0
   14.3544  -15.4737   20.7109 O   0  0  0  0  0  0  0  0  0  0  0  0
  2  1  1  1
  2  3  1  0
  3  4  1  0
  4  5  2  0
  5  6  1  0
  7  8  2  0
  7  6  1  0
  9  8  1  0
 10  9  2  0
 11 10  1  0
 11 12  2  0
 12  4  1  0
 12  7  1  0
 13  2  1  0
 14 13  2  0
 16 15  1  0
 16 18  1  0
 17 16  2  0
 19 18  1  0
 20 21  1  0
 20 19  1  0
 22 23  1  0
 22 21  1  1
 23 13  1  0
 24 22  1  0
 25 24  2  0
 26 24  1  0
 27 26  1  0
 28 27  1  0
 28 30  1  0
 29 28  2  0
M  END
$$$$
