WRG.pdb
     RDKit          3D

 30 31  0  0  1  0  0  0  0  0999 V2000
    6.5777  -18.0104   24.5262 N   0  0  0  0  0  0  0  0  0  0  0  0
    7.3385  -16.8822   24.1019 C   0  0  1  0  0  0  0  0  0  0  0  0
    7.9282  -16.0928   25.2218 C   0  0  0  0  0  0  0  0  0  0  0  0
    7.0420  -15.0736   25.8059 C   0  0  0  0  0  0  0  0  0  0  0  0
    5.9491  -15.3247   26.6050 C   0  0  0  0  0  0  0  0  0  0  0  0
    5.4152  -14.1550   26.9501 N   0  0  0  0  0  0  0  0  0  0  0  0
    6.0983  -13.1419   26.4202 C   0  0  0  0  0  0  0  0  0  0  0  0
    5.9380  -11.7752   26.4829 C   0  0  0  0  0  0  0  0  0  0  0  0
    6.7971  -10.9206   25.8249 C   0  0  0  0  0  0  0  0  0  0  0  0
    7.8250  -11.4797   25.0999 C   0  0  0  0  0  0  0  0  0  0  0  0
    7.9813  -12.8425   25.0403 C   0  0  0  0  0  0  0  0  0  0  0  0
    7.1399  -13.7093   25.6865 C   0  0  0  0  0  0  0  0  0  0  0  0
    8.4877  -17.2985   23.2249 C   0  0  0  0  0  0  0  0  0  0  0  0
    9.1407  -18.3053   23.5423 O   0  0  0  0  0  0  0  0  0  0  0  0
    7.2730  -14.2557   16.1339 N   0  0  0  0  0  0  0  0  0  0  0  0
    8.2189  -13.7828   17.0846 C   0  0  0  0  0  0  0  0  0  0  0  0
    8.2398  -12.5095   17.3321 N   0  0  0  0  0  0  0  0  0  0  0  0
    9.1101  -14.6627   17.7426 N   0  0  0  0  0  0  0  0  0  0  0  0
    8.8438  -16.0602   17.7317 C   0  0  0  0  0  0  0  0  0  0  0  0
    8.6850  -16.6442   19.1203 C   0  0  0  0  0  0  0  0  0  0  0  0
    9.9011  -16.2242   19.9098 C   0  0  0  0  0  0  0  0  0  0  0  0
   10.0049  -16.9383   21.2344 C   0  0  2  0  0  0  0  0  0  0  0  0
    8.8486  -16.5843   22.0545 N   0  0  0  0  0  0  0  0  0  0  0  0
   11.2075  -16.4142   21.9339 C   0  0  0  0  0  0  0  0  0  0  0  0
   11.1715  -15.3504   22.6420 O   0  0  0  0  0  0  0  0  0  0  0  0
    8.9815  -12.0823   17.9489 N   0  0  0  0  0  0  0  0  0  0  0  0
   12.4788  -17.0509   21.8693 C   0  0  0  0  0  0  0  0  0  0  0  0
   13.6634  -16.4456   22.4946 C   0  0  0  0  0  0  0  0  0  0  0  0
   14.8112  -17.3471   22.3491 O   0  0  0  0  0  0  0  0  0  0  0  0
   14.6746  -18.4573   21.7852 O   0  0  0  0  0  0  0  0  0  0  0  0
  2  1  1  1
  2  3  1  0
  3  4  1  0
  4  5  2  0
  5  6  1  0
  7  8  2  0
  7  6  1  0
  9  8  1  0
 10  9  2  0
 11 10  1  0
 11 12  2  0
 12  4  1  0
 12  7  1  0
 13  2  1  0
 14 13  2  0
 16 15  1  0
 16 18  1  0
 17 16  2  0
 19 18  1  0
 20 21  1  0
 20 19  1  0
 22 23  1  0
 22 21  1  6
 23 13  1  0
 24 22  1  0
 25 24  2  0
 26 24  1  0
 27 26  1  0
 28 27  1  0
 28 30  1  0
 29 28  2  0
M  END
$$$$
