EIN.pdb
     RDKit          3D

 26 25  0  0  1  0  0  0  0  0999 V2000
   16.2598  -11.1787  -15.0504 N   0  0  0  0  0  0  0  0  0  0  0  0
   16.9391  -10.4397  -14.0413 C   0  0  1  0  0  0  0  0  0  0  0  0
   18.0189   -9.5367  -14.4886 C   0  0  0  0  0  0  0  0  0  0  0  0
   19.0788  -10.2414  -15.2611 C   0  0  0  0  0  0  0  0  0  0  0  0
   20.0857   -9.3891  -15.8788 C   0  0  0  0  0  0  0  0  0  0  0  0
   21.0111   -9.8198  -16.5738 O   0  0  0  0  0  0  0  0  0  0  0  0
   16.0104   -9.8075  -13.0597 C   0  0  0  0  0  0  0  0  0  0  0  0
   14.9307   -9.2948  -13.4449 O   0  0  0  0  0  0  0  0  0  0  0  0
   20.0628   -7.9843  -15.7143 O   0  0  0  0  0  0  0  0  0  0  0  0
   12.7026  -11.7208   -9.8443 C   0  0  0  0  0  0  0  0  0  0  0  0
   13.5435  -10.7829  -10.7257 C   0  0  0  0  0  0  0  0  0  0  0  0
   14.4867   -9.9464   -9.9629 C   0  0  2  0  0  0  0  0  0  0  0  0
   13.7197   -9.1523   -8.9276 C   0  0  0  0  0  0  0  0  0  0  0  0
   15.4033   -9.0623  -10.7332 C   0  0  2  0  0  0  0  0  0  0  0  0
   16.2596   -9.7337  -11.6567 N   0  0  0  0  0  0  0  0  0  0  0  0
   16.0752   -8.0096   -9.9219 C   0  0  0  0  0  0  0  0  0  0  0  0
   17.1050   -8.1833   -9.2265 O   0  0  0  0  0  0  0  0  0  0  0  0
   18.7003   -3.8507   -8.3234 N   0  0  0  0  0  0  0  0  0  0  0  0
   17.7069   -3.6893   -9.3215 C   0  0  0  0  0  0  0  0  0  0  0  0
   17.2777   -2.5129   -9.5348 O   0  0  0  0  0  0  0  0  0  0  0  0
   17.1579   -4.8206  -10.1096 C   0  0  0  0  0  0  0  0  0  0  0  0
   16.2182   -5.5744   -9.1820 C   0  0  2  0  0  0  0  0  0  0  0  0
   15.5739   -6.6764   -9.8798 N   0  0  0  0  0  0  0  0  0  0  0  0
   15.1492   -4.6419   -8.7762 C   0  0  0  0  0  0  0  0  0  0  0  0
   15.2177   -3.7775   -7.6971 O   0  0  0  0  0  0  0  0  0  0  0  0
   14.0964   -4.6253   -9.4579 O   0  0  0  0  0  0  0  0  0  0  0  0
  2  1  1  6
  3  2  1  0
  4  3  1  0
  5  4  1  0
  5  6  2  0
  7  2  1  0
  7  8  2  0
  9  5  1  0
 10 11  1  0
 11 12  1  0
 12 14  1  0
 12 13  1  1
 14 15  1  1
 15  7  1  0
 16 14  1  0
 17 16  2  0
 18 19  1  0
 19 20  2  0
 19 21  1  0
 22 21  1  6
 22 24  1  0
 22 23  1  0
 23 16  1  0
 24 25  1  0
 26 24  2  0
M  END
$$$$
