EIN.pdb
     RDKit          3D

 26 25  0  0  1  0  0  0  0  0999 V2000
   43.9299  -11.1228   -7.0769 N   0  0  0  0  0  0  0  0  0  0  0  0
   42.6907  -11.0862   -6.3776 C   0  0  1  0  0  0  0  0  0  0  0  0
   42.6959  -10.4512   -5.0441 C   0  0  0  0  0  0  0  0  0  0  0  0
   43.9380   -9.6743   -4.7786 C   0  0  0  0  0  0  0  0  0  0  0  0
   44.0433   -9.0810   -3.4525 C   0  0  0  0  0  0  0  0  0  0  0  0
   44.9578   -8.3230   -3.1147 O   0  0  0  0  0  0  0  0  0  0  0  0
   41.5523  -10.6468   -7.2358 C   0  0  0  0  0  0  0  0  0  0  0  0
   41.7532   -9.9011   -8.2259 O   0  0  0  0  0  0  0  0  0  0  0  0
   43.0817   -9.3451   -2.4492 O   0  0  0  0  0  0  0  0  0  0  0  0
   36.8798  -13.6111   -8.2701 C   0  0  0  0  0  0  0  0  0  0  0  0
   38.1252  -12.7139   -8.3578 C   0  0  0  0  0  0  0  0  0  0  0  0
   37.9031  -11.3472   -7.8537 C   0  0  2  0  0  0  0  0  0  0  0  0
   36.8237  -10.6830   -8.6809 C   0  0  0  0  0  0  0  0  0  0  0  0
   39.0899  -10.4586   -7.7235 C   0  0  2  0  0  0  0  0  0  0  0  0
   40.1932  -11.0202   -7.0134 N   0  0  0  0  0  0  0  0  0  0  0  0
   38.7720   -9.0507   -7.3564 C   0  0  0  0  0  0  0  0  0  0  0  0
   38.3773   -8.6721   -6.2272 O   0  0  0  0  0  0  0  0  0  0  0  0
   40.6456   -3.6825   -7.0887 N   0  0  0  0  0  0  0  0  0  0  0  0
   39.7441   -4.7246   -6.7565 C   0  0  0  0  0  0  0  0  0  0  0  0
   38.6880   -4.4059   -6.1265 O   0  0  0  0  0  0  0  0  0  0  0  0
   39.9836   -6.1466   -7.1074 C   0  0  0  0  0  0  0  0  0  0  0  0
   38.8120   -6.5781   -7.9751 C   0  0  2  0  0  0  0  0  0  0  0  0
   38.9019   -7.9929   -8.3021 N   0  0  0  0  0  0  0  0  0  0  0  0
   38.9035   -5.8383   -9.2483 C   0  0  0  0  0  0  0  0  0  0  0  0
   39.3616   -6.3678  -10.4425 O   0  0  0  0  0  0  0  0  0  0  0  0
   38.5385   -4.6383   -9.2560 O   0  0  0  0  0  0  0  0  0  0  0  0
  2  1  1  6
  3  2  1  0
  4  3  1  0
  5  4  1  0
  5  6  2  0
  7  2  1  0
  7  8  2  0
  9  5  1  0
 10 11  1  0
 11 12  1  0
 12 14  1  0
 12 13  1  6
 14 15  1  1
 15  7  1  0
 16 14  1  0
 17 16  2  0
 18 19  1  0
 19 20  2  0
 19 21  1  0
 22 21  1  1
 22 24  1  0
 22 23  1  0
 23 16  1  0
 24 25  1  0
 26 24  2  0
M  END
$$$$
