EIN.pdb
     RDKit          3D

 26 25  0  0  1  0  0  0  0  0999 V2000
   20.3803  -12.5509  -19.5568 N   0  0  0  0  0  0  0  0  0  0  0  0
   20.9806  -11.2610  -19.5150 C   0  0  1  0  0  0  0  0  0  0  0  0
   20.7651  -10.3868  -20.6859 C   0  0  0  0  0  0  0  0  0  0  0  0
   21.2877  -10.9747  -21.9501 C   0  0  0  0  0  0  0  0  0  0  0  0
   22.6944  -10.7229  -22.2322 C   0  0  0  0  0  0  0  0  0  0  0  0
   23.2655  -11.1123  -23.2555 O   0  0  0  0  0  0  0  0  0  0  0  0
   20.7706  -10.5646  -18.2124 C   0  0  0  0  0  0  0  0  0  0  0  0
   19.6870  -10.6916  -17.5908 O   0  0  0  0  0  0  0  0  0  0  0  0
   23.5089  -10.0009  -21.3286 O   0  0  0  0  0  0  0  0  0  0  0  0
   24.0882  -10.9846  -14.1006 C   0  0  0  0  0  0  0  0  0  0  0  0
   22.9340  -10.7894  -15.0973 C   0  0  0  0  0  0  0  0  0  0  0  0
   22.5549   -9.3787  -15.2904 C   0  0  2  0  0  0  0  0  0  0  0  0
   22.1471   -8.7880  -13.9580 C   0  0  0  0  0  0  0  0  0  0  0  0
   21.5399   -9.0741  -16.3354 C   0  0  2  0  0  0  0  0  0  0  0  0
   21.7432   -9.7281  -17.5875 N   0  0  0  0  0  0  0  0  0  0  0  0
   21.1754   -7.6341  -16.4435 C   0  0  0  0  0  0  0  0  0  0  0  0
   21.9739   -6.7078  -16.7240 O   0  0  0  0  0  0  0  0  0  0  0  0
   16.4866   -3.6425  -15.8663 N   0  0  0  0  0  0  0  0  0  0  0  0
   17.5129   -4.3179  -16.5733 C   0  0  0  0  0  0  0  0  0  0  0  0
   18.1454   -3.6599  -17.4568 O   0  0  0  0  0  0  0  0  0  0  0  0
   17.8679   -5.7378  -16.3272 C   0  0  0  0  0  0  0  0  0  0  0  0
   19.3841   -5.8209  -16.4035 C   0  0  2  0  0  0  0  0  0  0  0  0
   19.8381   -7.1920  -16.2284 N   0  0  0  0  0  0  0  0  0  0  0  0
   19.9308   -5.0422  -15.2758 C   0  0  0  0  0  0  0  0  0  0  0  0
   20.5522   -3.8104  -15.3893 O   0  0  0  0  0  0  0  0  0  0  0  0
   19.8262   -5.5273  -14.1237 O   0  0  0  0  0  0  0  0  0  0  0  0
  2  1  1  6
  3  2  1  0
  4  3  1  0
  5  4  1  0
  5  6  2  0
  7  2  1  0
  7  8  2  0
  9  5  1  0
 10 11  1  0
 11 12  1  0
 12 14  1  0
 12 13  1  1
 14 15  1  6
 15  7  1  0
 16 14  1  0
 17 16  2  0
 18 19  1  0
 19 20  2  0
 19 21  1  0
 22 21  1  1
 22 24  1  0
 22 23  1  0
 23 16  1  0
 24 25  1  0
 26 24  2  0
M  END
$$$$
