EIN.pdb
     RDKit          3D

 26 25  0  0  1  0  0  0  0  0999 V2000
   20.4124  -20.5810  -13.2954 N   0  0  0  0  0  0  0  0  0  0  0  0
   21.4361  -21.5606  -13.4306 C   0  0  1  0  0  0  0  0  0  0  0  0
   21.2992  -22.5188  -14.5463 C   0  0  0  0  0  0  0  0  0  0  0  0
   19.9826  -23.2142  -14.5527 C   0  0  0  0  0  0  0  0  0  0  0  0
   19.7691  -24.1569  -15.6424 C   0  0  0  0  0  0  0  0  0  0  0  0
   18.7247  -24.7979  -15.7954 O   0  0  0  0  0  0  0  0  0  0  0  0
   22.8081  -20.9873  -13.3105 C   0  0  0  0  0  0  0  0  0  0  0  0
   23.0596  -19.8408  -13.7567 O   0  0  0  0  0  0  0  0  0  0  0  0
   20.7696  -24.4003  -16.6123 O   0  0  0  0  0  0  0  0  0  0  0  0
   25.9478  -20.8443   -8.9063 C   0  0  0  0  0  0  0  0  0  0  0  0
   25.2493  -20.5878  -10.2515 C   0  0  0  0  0  0  0  0  0  0  0  0
   25.9419  -21.1972  -11.4004 C   0  0  2  0  0  0  0  0  0  0  0  0
   27.3290  -20.6029  -11.5154 C   0  0  0  0  0  0  0  0  0  0  0  0
   25.2471  -21.1738  -12.7165 C   0  0  2  0  0  0  0  0  0  0  0  0
   23.9074  -21.6654  -12.7039 N   0  0  0  0  0  0  0  0  0  0  0  0
   26.0706  -21.6557  -13.8600 C   0  0  0  0  0  0  0  0  0  0  0  0
   26.6251  -22.7793  -13.9257 O   0  0  0  0  0  0  0  0  0  0  0  0
   27.7342  -22.3161  -18.6166 N   0  0  0  0  0  0  0  0  0  0  0  0
   26.3325  -22.1559  -18.4787 C   0  0  0  0  0  0  0  0  0  0  0  0
   25.6100  -22.4348  -19.4856 O   0  0  0  0  0  0  0  0  0  0  0  0
   25.6897  -21.6816  -17.2280 C   0  0  0  0  0  0  0  0  0  0  0  0
   26.8182  -21.3230  -16.2742 C   0  0  2  0  0  0  0  0  0  0  0  0
   26.2925  -20.8396  -15.0067 N   0  0  0  0  0  0  0  0  0  0  0  0
   27.5741  -20.2083  -16.8767 C   0  0  0  0  0  0  0  0  0  0  0  0
   27.4458  -18.8773  -16.5182 O   0  0  0  0  0  0  0  0  0  0  0  0
   28.3984  -20.4812  -17.7819 O   0  0  0  0  0  0  0  0  0  0  0  0
  2  1  1  6
  3  2  1  0
  4  3  1  0
  5  4  1  0
  5  6  2  0
  7  2  1  0
  7  8  2  0
  9  5  1  0
 10 11  1  0
 11 12  1  0
 12 14  1  0
 12 13  1  6
 14 15  1  1
 15  7  1  0
 16 14  1  0
 17 16  2  0
 18 19  1  0
 19 20  2  0
 19 21  1  0
 22 21  1  6
 22 24  1  0
 22 23  1  0
 23 16  1  0
 24 25  1  0
 26 24  2  0
M  END
$$$$
