EIN.pdb
     RDKit          3D

 26 25  0  0  1  0  0  0  0  0999 V2000
   18.4142  -12.4534  -17.3685 N   0  0  0  0  0  0  0  0  0  0  0  0
   18.8952  -11.1652  -17.7361 C   0  0  1  0  0  0  0  0  0  0  0  0
   17.9590  -10.2872  -18.4669 C   0  0  0  0  0  0  0  0  0  0  0  0
   17.4235  -10.9167  -19.7054 C   0  0  0  0  0  0  0  0  0  0  0  0
   18.3156  -10.9096  -20.8568 C   0  0  0  0  0  0  0  0  0  0  0  0
   17.9911  -11.3236  -21.9741 O   0  0  0  0  0  0  0  0  0  0  0  0
   19.6075  -10.4719  -16.6235 C   0  0  0  0  0  0  0  0  0  0  0  0
   19.1236  -10.4659  -15.4648 O   0  0  0  0  0  0  0  0  0  0  0  0
   19.6382  -10.4171  -20.7605 O   0  0  0  0  0  0  0  0  0  0  0  0
   24.1084  -11.8008  -14.5903 C   0  0  0  0  0  0  0  0  0  0  0  0
   22.7451  -11.2162  -14.9943 C   0  0  0  0  0  0  0  0  0  0  0  0
   22.7785   -9.7651  -15.2480 C   0  0  2  0  0  0  0  0  0  0  0  0
   23.3305   -9.0609  -14.0274 C   0  0  0  0  0  0  0  0  0  0  0  0
   21.5204   -9.1161  -15.7076 C   0  0  2  0  0  0  0  0  0  0  0  0
   20.8483   -9.7838  -16.7750 N   0  0  0  0  0  0  0  0  0  0  0  0
   21.6071   -7.6374  -15.8622 C   0  0  0  0  0  0  0  0  0  0  0  0
   22.3242   -7.0415  -16.7019 O   0  0  0  0  0  0  0  0  0  0  0  0
   19.8191   -2.6490  -16.1160 N   0  0  0  0  0  0  0  0  0  0  0  0
   19.5969   -3.2698  -14.8612 C   0  0  0  0  0  0  0  0  0  0  0  0
   19.4758   -2.5136  -13.8477 O   0  0  0  0  0  0  0  0  0  0  0  0
   19.5047   -4.7410  -14.6894 C   0  0  0  0  0  0  0  0  0  0  0  0
   20.8328   -5.3125  -15.1599 C   0  0  2  0  0  0  0  0  0  0  0  0
   20.8481   -6.7618  -15.0331 N   0  0  0  0  0  0  0  0  0  0  0  0
   21.8840   -4.7938  -14.2639 C   0  0  0  0  0  0  0  0  0  0  0  0
   22.6515   -3.6681  -14.5093 O   0  0  0  0  0  0  0  0  0  0  0  0
   22.1026   -5.4148  -13.1962 O   0  0  0  0  0  0  0  0  0  0  0  0
  2  1  1  1
  3  2  1  0
  4  3  1  0
  5  4  1  0
  5  6  2  0
  7  2  1  0
  7  8  2  0
  9  5  1  0
 10 11  1  0
 11 12  1  0
 12 14  1  0
 12 13  1  1
 14 15  1  6
 15  7  1  0
 16 14  1  0
 17 16  2  0
 18 19  1  0
 19 20  2  0
 19 21  1  0
 22 21  1  1
 22 24  1  0
 22 23  1  0
 23 16  1  0
 24 25  1  0
 26 24  2  0
M  END
$$$$
