EIN.pdb
     RDKit          3D

 26 25  0  0  1  0  0  0  0  0999 V2000
   28.8257  -23.3928  -17.4155 N   0  0  0  0  0  0  0  0  0  0  0  0
   28.0016  -22.4754  -18.1262 C   0  0  1  0  0  0  0  0  0  0  0  0
   27.4493  -22.9360  -19.4162 C   0  0  0  0  0  0  0  0  0  0  0  0
   28.5032  -23.3707  -20.3740 C   0  0  0  0  0  0  0  0  0  0  0  0
   29.0130  -24.7220  -20.1850 C   0  0  0  0  0  0  0  0  0  0  0  0
   30.1998  -25.0303  -20.3315 O   0  0  0  0  0  0  0  0  0  0  0  0
   26.9898  -21.8088  -17.2557 C   0  0  0  0  0  0  0  0  0  0  0  0
   26.3677  -22.4664  -16.3855 O   0  0  0  0  0  0  0  0  0  0  0  0
   28.1582  -25.7865  -19.8147 O   0  0  0  0  0  0  0  0  0  0  0  0
   28.2033  -16.9940  -15.1631 C   0  0  0  0  0  0  0  0  0  0  0  0
   27.6975  -18.4196  -15.4378 C   0  0  0  0  0  0  0  0  0  0  0  0
   26.2933  -18.4710  -15.8814 C   0  0  2  0  0  0  0  0  0  0  0  0
   25.4026  -17.9641  -14.7678 C   0  0  0  0  0  0  0  0  0  0  0  0
   25.7857  -19.7640  -16.4159 C   0  0  2  0  0  0  0  0  0  0  0  0
   26.6556  -20.4239  -17.3350 N   0  0  0  0  0  0  0  0  0  0  0  0
   24.3541  -19.7451  -16.8262 C   0  0  0  0  0  0  0  0  0  0  0  0
   23.9092  -19.1986  -17.8643 O   0  0  0  0  0  0  0  0  0  0  0  0
   19.7302  -22.2096  -18.5389 N   0  0  0  0  0  0  0  0  0  0  0  0
   20.1731  -21.8763  -17.2343 C   0  0  0  0  0  0  0  0  0  0  0  0
   19.2897  -21.5463  -16.3831 O   0  0  0  0  0  0  0  0  0  0  0  0
   21.6019  -21.8953  -16.8334 C   0  0  0  0  0  0  0  0  0  0  0  0
   21.9480  -20.4768  -16.4097 C   0  0  2  0  0  0  0  0  0  0  0  0
   23.3502  -20.3747  -16.0350 N   0  0  0  0  0  0  0  0  0  0  0  0
   21.1591  -20.1670  -15.2020 C   0  0  0  0  0  0  0  0  0  0  0  0
   19.9173  -19.5554  -15.2007 O   0  0  0  0  0  0  0  0  0  0  0  0
   21.6447  -20.4807  -14.0887 O   0  0  0  0  0  0  0  0  0  0  0  0
  2  1  1  1
  3  2  1  0
  4  3  1  0
  5  4  1  0
  5  6  2  0
  7  2  1  0
  7  8  2  0
  9  5  1  0
 10 11  1  0
 11 12  1  0
 12 14  1  0
 12 13  1  1
 14 15  1  6
 15  7  1  0
 16 14  1  0
 17 16  2  0
 18 19  1  0
 19 20  2  0
 19 21  1  0
 22 21  1  1
 22 24  1  0
 22 23  1  0
 23 16  1  0
 24 25  1  0
 26 24  2  0
M  END
$$$$
