EIN.pdb
     RDKit          3D

 26 25  0  0  1  0  0  0  0  0999 V2000
   28.4183  -21.2618  -15.4915 N   0  0  0  0  0  0  0  0  0  0  0  0
   27.7677  -20.2743  -14.6994 C   0  0  1  0  0  0  0  0  0  0  0  0
   27.3118  -19.0544  -15.3962 C   0  0  0  0  0  0  0  0  0  0  0  0
   28.4163  -18.3409  -16.0949 C   0  0  0  0  0  0  0  0  0  0  0  0
   28.1033  -17.8361  -17.4249 C   0  0  0  0  0  0  0  0  0  0  0  0
   27.0043  -17.3661  -17.7353 O   0  0  0  0  0  0  0  0  0  0  0  0
   26.7402  -20.8490  -13.7831 C   0  0  0  0  0  0  0  0  0  0  0  0
   26.0239  -21.8111  -14.1544 O   0  0  0  0  0  0  0  0  0  0  0  0
   29.0623  -17.8560  -18.4646 O   0  0  0  0  0  0  0  0  0  0  0  0
   27.0446  -20.4368   -8.2777 C   0  0  0  0  0  0  0  0  0  0  0  0
   26.6583  -21.1238   -9.5976 C   0  0  0  0  0  0  0  0  0  0  0  0
   25.4606  -20.5471  -10.2332 C   0  0  2  0  0  0  0  0  0  0  0  0
   24.2264  -21.0637   -9.5258 C   0  0  0  0  0  0  0  0  0  0  0  0
   25.3237  -20.6941  -11.7080 C   0  0  2  0  0  0  0  0  0  0  0  0
   26.4931  -20.3734  -12.4606 N   0  0  0  0  0  0  0  0  0  0  0  0
   24.0584  -20.1455  -12.2702 C   0  0  0  0  0  0  0  0  0  0  0  0
   23.8818  -18.9530  -12.6179 O   0  0  0  0  0  0  0  0  0  0  0  0
   19.5332  -19.8888  -14.6260 N   0  0  0  0  0  0  0  0  0  0  0  0
   20.5552  -20.5997  -15.3038 C   0  0  0  0  0  0  0  0  0  0  0  0
   20.3946  -20.8129  -16.5457 O   0  0  0  0  0  0  0  0  0  0  0  0
   21.7805  -21.0971  -14.6302 C   0  0  0  0  0  0  0  0  0  0  0  0
   21.7256  -20.5796  -13.2017 C   0  0  2  0  0  0  0  0  0  0  0  0
   22.9145  -20.9733  -12.4612 N   0  0  0  0  0  0  0  0  0  0  0  0
   20.5758  -21.2234  -12.5380 C   0  0  0  0  0  0  0  0  0  0  0  0
   20.5560  -22.5271  -12.0729 O   0  0  0  0  0  0  0  0  0  0  0  0
   19.5347  -20.5421  -12.3786 O   0  0  0  0  0  0  0  0  0  0  0  0
  2  1  1  6
  3  2  1  0
  4  3  1  0
  5  4  1  0
  5  6  2  0
  7  2  1  0
  7  8  2  0
  9  5  1  0
 10 11  1  0
 11 12  1  0
 12 14  1  0
 12 13  1  1
 14 15  1  6
 15  7  1  0
 16 14  1  0
 17 16  2  0
 18 19  1  0
 19 20  2  0
 19 21  1  0
 22 21  1  6
 22 24  1  0
 22 23  1  0
 23 16  1  0
 24 25  1  0
 26 24  2  0
M  END
$$$$
