EIN.pdb
     RDKit          3D

 26 25  0  0  1  0  0  0  0  0999 V2000
   27.6492  -23.5575  -17.2998 N   0  0  0  0  0  0  0  0  0  0  0  0
   27.0668  -22.3000  -16.9753 C   0  0  1  0  0  0  0  0  0  0  0  0
   26.3287  -21.6090  -18.0520 C   0  0  0  0  0  0  0  0  0  0  0  0
   27.2141  -21.1511  -19.1580 C   0  0  0  0  0  0  0  0  0  0  0  0
   28.2162  -20.1573  -18.7977 C   0  0  0  0  0  0  0  0  0  0  0  0
   27.9406  -19.0029  -18.4566 O   0  0  0  0  0  0  0  0  0  0  0  0
   26.3349  -22.3169  -15.6754 C   0  0  0  0  0  0  0  0  0  0  0  0
   25.5707  -23.2710  -15.3883 O   0  0  0  0  0  0  0  0  0  0  0  0
   29.5972  -20.4631  -18.8186 O   0  0  0  0  0  0  0  0  0  0  0  0
   28.7256  -20.6329  -11.0601 C   0  0  0  0  0  0  0  0  0  0  0  0
   27.8709  -21.4135  -12.0719 C   0  0  0  0  0  0  0  0  0  0  0  0
   26.5259  -20.8451  -12.2692 C   0  0  2  0  0  0  0  0  0  0  0  0
   25.7294  -21.0012  -10.9918 C   0  0  0  0  0  0  0  0  0  0  0  0
   25.7414  -21.3201  -13.4414 C   0  0  2  0  0  0  0  0  0  0  0  0
   26.4360  -21.2919  -14.6879 N   0  0  0  0  0  0  0  0  0  0  0  0
   24.3450  -20.8059  -13.5014 C   0  0  0  0  0  0  0  0  0  0  0  0
   24.0260  -19.6077  -13.6933 O   0  0  0  0  0  0  0  0  0  0  0  0
   19.2410  -20.5411  -13.6379 N   0  0  0  0  0  0  0  0  0  0  0  0
   19.5446  -21.9229  -13.7262 C   0  0  0  0  0  0  0  0  0  0  0  0
   18.5791  -22.7218  -13.9345 O   0  0  0  0  0  0  0  0  0  0  0  0
   20.9202  -22.4616  -13.5846 C   0  0  0  0  0  0  0  0  0  0  0  0
   21.8378  -21.2599  -13.4248 C   0  0  2  0  0  0  0  0  0  0  0  0
   23.2290  -21.6769  -13.3400 N   0  0  0  0  0  0  0  0  0  0  0  0
   21.5062  -20.6131  -12.1408 C   0  0  0  0  0  0  0  0  0  0  0  0
   20.7659  -19.4513  -12.0053 O   0  0  0  0  0  0  0  0  0  0  0  0
   21.9227  -21.1534  -11.0881 O   0  0  0  0  0  0  0  0  0  0  0  0
  2  1  1  6
  3  2  1  0
  4  3  1  0
  5  4  1  0
  5  6  2  0
  7  2  1  0
  7  8  2  0
  9  5  1  0
 10 11  1  0
 11 12  1  0
 12 14  1  0
 12 13  1  1
 14 15  1  6
 15  7  1  0
 16 14  1  0
 17 16  2  0
 18 19  1  0
 19 20  2  0
 19 21  1  0
 22 21  1  1
 22 24  1  0
 22 23  1  0
 23 16  1  0
 24 25  1  0
 26 24  2  0
M  END
$$$$
