NER.pdb
     RDKit          3D

 29 28  0  0  1  0  0  0  0  0999 V2000
    8.7940  -12.4986   17.9995 N   0  0  0  0  0  0  0  0  0  0  0  0
    7.7340  -13.3571   18.4051 C   0  0  0  0  0  0  0  0  0  0  0  0
    6.6090  -13.2819   17.8726 O   0  0  0  0  0  0  0  0  0  0  0  0
    8.0302  -14.3359   19.4816 C   0  0  0  0  0  0  0  0  0  0  0  0
    9.1451  -15.2301   19.0035 C   0  0  2  0  0  0  0  0  0  0  0  0
    8.7268  -16.0453   17.8839 N   0  0  0  0  0  0  0  0  0  0  0  0
    9.6102  -16.1353   20.0835 C   0  0  0  0  0  0  0  0  0  0  0  0
    8.7976  -16.8635   20.7307 O   0  0  0  0  0  0  0  0  0  0  0  0
   10.9751  -16.2243   20.4367 N   0  0  0  0  0  0  0  0  0  0  0  0
   11.4024  -17.0569   21.5360 C   0  0  1  0  0  0  0  0  0  0  0  0
   12.7983  -17.5302   21.1941 C   0  0  0  0  0  0  0  0  0  0  0  0
   12.8123  -18.5360   20.0845 C   0  0  0  0  0  0  0  0  0  0  0  0
   14.1335  -19.0019   19.6744 C   0  0  0  0  0  0  0  0  0  0  0  0
   14.8336  -18.4092   18.8465 O   0  0  0  0  0  0  0  0  0  0  0  0
   11.3942  -16.2345   22.7704 C   0  0  0  0  0  0  0  0  0  0  0  0
   11.6382  -15.0088   22.6756 O   0  0  0  0  0  0  0  0  0  0  0  0
   14.6538  -20.1672   20.2269 O   0  0  0  0  0  0  0  0  0  0  0  0
    7.6486  -11.8499   25.5318 N   0  0  0  0  0  0  0  0  0  0  0  0
    6.6074  -12.4992   26.2234 C   0  0  0  0  0  0  0  0  0  0  0  0
    6.1400  -11.9637   27.3197 N   0  0  0  0  0  0  0  0  0  0  0  0
    6.0424  -13.7252   25.7681 N   0  0  0  0  0  0  0  0  0  0  0  0
    6.8138  -14.5091   24.8571 C   0  0  0  0  0  0  0  0  0  0  0  0
    8.1589  -14.9167   25.3604 C   0  0  0  0  0  0  0  0  0  0  0  0
    8.9647  -15.7192   24.3946 C   0  0  0  0  0  0  0  0  0  0  0  0
   10.3265  -16.0549   25.0161 C   0  0  2  0  0  0  0  0  0  0  0  0
   11.1199  -16.7864   24.0523 N   0  0  0  0  0  0  0  0  0  0  0  0
   10.1597  -16.8716   26.2405 C   0  0  0  0  0  0  0  0  0  0  0  0
    9.9671  -18.2361   26.1110 O   0  0  0  0  0  0  0  0  0  0  0  0
   10.1834  -16.3908   27.3978 O   0  0  0  0  0  0  0  0  0  0  0  0
  1  2  1  0
  2  3  2  0
  4  5  1  0
  4  2  1  0
  5  6  1  6
  7  8  2  0
  7  5  1  0
  9  7  1  0
 10  9  1  0
 11 12  1  0
 10 11  1  6
 12 13  1  0
 13 14  2  0
 15 16  2  0
 15 10  1  0
 17 13  1  0
 19 18  1  0
 20 19  2  0
 21 19  1  0
 22 21  1  0
 23 22  1  0
 23 24  1  0
 25 24  1  6
 25 26  1  0
 26 15  1  0
 27 25  1  0
 28 27  1  0
 29 27  2  0
M  END
$$$$
