NER.pdb
     RDKit          3D

 29 28  0  0  1  0  0  0  0  0999 V2000
   13.7333  -13.4401   17.9502 N   0  0  0  0  0  0  0  0  0  0  0  0
   14.3756  -14.1387   19.0108 C   0  0  0  0  0  0  0  0  0  0  0  0
   15.6118  -14.3013   19.0149 O   0  0  0  0  0  0  0  0  0  0  0  0
   13.5107  -14.6588   20.0999 C   0  0  0  0  0  0  0  0  0  0  0  0
   13.9731  -16.0533   20.4355 C   0  0  2  0  0  0  0  0  0  0  0  0
   13.8478  -16.9403   19.2995 N   0  0  0  0  0  0  0  0  0  0  0  0
   13.1866  -16.6264   21.5558 C   0  0  0  0  0  0  0  0  0  0  0  0
   12.1135  -16.0810   21.9565 O   0  0  0  0  0  0  0  0  0  0  0  0
   13.5987  -17.8014   22.2231 N   0  0  0  0  0  0  0  0  0  0  0  0
   12.7784  -18.3943   23.2526 C   0  0  1  0  0  0  0  0  0  0  0  0
   12.4722  -19.8034   22.7942 C   0  0  0  0  0  0  0  0  0  0  0  0
   11.6729  -20.5769   23.7971 C   0  0  0  0  0  0  0  0  0  0  0  0
   11.3518  -21.9504   23.4214 C   0  0  0  0  0  0  0  0  0  0  0  0
   11.7385  -22.9350   24.0599 O   0  0  0  0  0  0  0  0  0  0  0  0
   13.5501  -18.3903   24.5194 C   0  0  0  0  0  0  0  0  0  0  0  0
   14.6639  -18.9645   24.5445 O   0  0  0  0  0  0  0  0  0  0  0  0
   10.5741  -22.1909   22.2938 O   0  0  0  0  0  0  0  0  0  0  0  0
   13.6104  -21.6528   30.7040 N   0  0  0  0  0  0  0  0  0  0  0  0
   12.2262  -21.9131   30.6845 C   0  0  0  0  0  0  0  0  0  0  0  0
   11.8115  -23.1512   30.6399 N   0  0  0  0  0  0  0  0  0  0  0  0
   11.2569  -20.8694   30.7124 N   0  0  0  0  0  0  0  0  0  0  0  0
   11.0176  -20.1586   29.4971 C   0  0  0  0  0  0  0  0  0  0  0  0
   12.2322  -19.5593   28.8690 C   0  0  0  0  0  0  0  0  0  0  0  0
   11.9992  -18.9500   27.5271 C   0  0  0  0  0  0  0  0  0  0  0  0
   13.3095  -18.3506   27.0005 C   0  0  2  0  0  0  0  0  0  0  0  0
   13.0719  -17.7597   25.7013 N   0  0  0  0  0  0  0  0  0  0  0  0
   14.3565  -19.3919   26.8858 C   0  0  0  0  0  0  0  0  0  0  0  0
   14.2362  -20.3526   25.8966 O   0  0  0  0  0  0  0  0  0  0  0  0
   15.3543  -19.4518   27.6420 O   0  0  0  0  0  0  0  0  0  0  0  0
  1  2  1  0
  2  3  2  0
  4  5  1  0
  4  2  1  0
  5  6  1  6
  7  8  2  0
  7  5  1  0
  9  7  1  0
 10  9  1  0
 11 12  1  0
 10 11  1  6
 12 13  1  0
 13 14  2  0
 15 16  2  0
 15 10  1  0
 17 13  1  0
 19 18  1  0
 20 19  2  0
 21 19  1  0
 22 21  1  0
 23 22  1  0
 23 24  1  0
 25 24  1  6
 25 26  1  0
 26 15  1  0
 27 25  1  0
 28 27  1  0
 29 27  2  0
M  END
$$$$
