NER.pdb
     RDKit          3D

 29 28  0  0  1  0  0  0  0  0999 V2000
    7.8643  -12.2367   16.0402 N   0  0  0  0  0  0  0  0  0  0  0  0
    7.6899  -13.6480   16.0957 C   0  0  0  0  0  0  0  0  0  0  0  0
    7.8155  -14.3499   15.0728 O   0  0  0  0  0  0  0  0  0  0  0  0
    7.3547  -14.2370   17.4168 C   0  0  0  0  0  0  0  0  0  0  0  0
    8.6311  -14.3608   18.2083 C   0  0  2  0  0  0  0  0  0  0  0  0
    9.7113  -14.8738   17.3941 N   0  0  0  0  0  0  0  0  0  0  0  0
    8.4588  -15.2688   19.3694 C   0  0  0  0  0  0  0  0  0  0  0  0
    7.5934  -15.0360   20.2673 O   0  0  0  0  0  0  0  0  0  0  0  0
    9.2499  -16.4289   19.5242 N   0  0  0  0  0  0  0  0  0  0  0  0
    9.0686  -17.3022   20.6595 C   0  0  1  0  0  0  0  0  0  0  0  0
    9.5849  -18.6607   20.2384 C   0  0  0  0  0  0  0  0  0  0  0  0
    9.5520  -19.6623   21.3514 C   0  0  0  0  0  0  0  0  0  0  0  0
    9.9657  -21.0154   20.9926 C   0  0  0  0  0  0  0  0  0  0  0  0
   10.3852  -21.3201   19.8710 O   0  0  0  0  0  0  0  0  0  0  0  0
    9.8479  -16.7527   21.7957 C   0  0  0  0  0  0  0  0  0  0  0  0
   11.0189  -16.3589   21.5846 O   0  0  0  0  0  0  0  0  0  0  0  0
    9.8945  -22.0304   21.9406 O   0  0  0  0  0  0  0  0  0  0  0  0
   10.4164  -16.3818   29.4550 N   0  0  0  0  0  0  0  0  0  0  0  0
   10.2119  -15.0121   29.7129 C   0  0  0  0  0  0  0  0  0  0  0  0
   10.2141  -14.5896   30.9491 N   0  0  0  0  0  0  0  0  0  0  0  0
   10.0019  -14.0660   28.6687 N   0  0  0  0  0  0  0  0  0  0  0  0
    9.2293  -14.4859   27.5434 C   0  0  0  0  0  0  0  0  0  0  0  0
   10.0088  -15.1515   26.4579 C   0  0  0  0  0  0  0  0  0  0  0  0
    9.2032  -15.5339   25.2617 C   0  0  0  0  0  0  0  0  0  0  0  0
   10.1218  -16.1517   24.1997 C   0  0  2  0  0  0  0  0  0  0  0  0
    9.3143  -16.6573   23.1108 N   0  0  0  0  0  0  0  0  0  0  0  0
   10.9233  -17.2565   24.7750 C   0  0  0  0  0  0  0  0  0  0  0  0
   12.1513  -16.9643   25.3427 O   0  0  0  0  0  0  0  0  0  0  0  0
   10.5475  -18.4523   24.7758 O   0  0  0  0  0  0  0  0  0  0  0  0
  1  2  1  0
  2  3  2  0
  4  5  1  0
  4  2  1  0
  5  6  1  6
  7  8  2  0
  7  5  1  0
  9  7  1  0
 10  9  1  0
 11 12  1  0
 10 11  1  6
 12 13  1  0
 13 14  2  0
 15 16  2  0
 15 10  1  0
 17 13  1  0
 19 18  1  0
 20 19  2  0
 21 19  1  0
 22 21  1  0
 23 22  1  0
 23 24  1  0
 25 24  1  1
 25 26  1  0
 26 15  1  0
 27 25  1  0
 28 27  1  0
 29 27  2  0
M  END
$$$$
