NER.pdb
     RDKit          3D

 29 28  0  0  1  0  0  0  0  0999 V2000
   16.9234  -20.0424   21.3258 N   0  0  0  0  0  0  0  0  0  0  0  0
   16.6603  -20.5922   22.6118 C   0  0  0  0  0  0  0  0  0  0  0  0
   17.5911  -20.8570   23.3981 O   0  0  0  0  0  0  0  0  0  0  0  0
   15.2388  -20.8322   22.9672 C   0  0  0  0  0  0  0  0  0  0  0  0
   14.4064  -19.7675   22.3003 C   0  0  2  0  0  0  0  0  0  0  0  0
   15.2060  -18.6154   21.9451 N   0  0  0  0  0  0  0  0  0  0  0  0
   13.3074  -19.3096   23.1862 C   0  0  0  0  0  0  0  0  0  0  0  0
   13.5057  -18.4421   24.0904 O   0  0  0  0  0  0  0  0  0  0  0  0
   11.9959  -19.8195   23.0608 N   0  0  0  0  0  0  0  0  0  0  0  0
   10.9269  -19.3255   23.8959 C   0  0  1  0  0  0  0  0  0  0  0  0
    9.6359  -19.7072   23.2052 C   0  0  0  0  0  0  0  0  0  0  0  0
    8.4219  -19.2822   23.9725 C   0  0  0  0  0  0  0  0  0  0  0  0
    7.1411  -19.5768   23.3372 C   0  0  0  0  0  0  0  0  0  0  0  0
    7.0402  -20.1901   22.2693 O   0  0  0  0  0  0  0  0  0  0  0  0
   11.0428  -19.9706   25.2266 C   0  0  0  0  0  0  0  0  0  0  0  0
   11.6160  -21.0823   25.3059 O   0  0  0  0  0  0  0  0  0  0  0  0
    5.9610  -19.1582   23.9423 O   0  0  0  0  0  0  0  0  0  0  0  0
   16.3176  -21.4772   30.7440 N   0  0  0  0  0  0  0  0  0  0  0  0
   15.1879  -21.8655   31.4903 C   0  0  0  0  0  0  0  0  0  0  0  0
   15.3507  -22.6097   32.5517 N   0  0  0  0  0  0  0  0  0  0  0  0
   13.8671  -21.4736   31.1278 N   0  0  0  0  0  0  0  0  0  0  0  0
   13.7055  -20.7482   29.9082 C   0  0  0  0  0  0  0  0  0  0  0  0
   12.2893  -20.4854   29.5153 C   0  0  0  0  0  0  0  0  0  0  0  0
   12.1263  -19.8414   28.1794 C   0  0  0  0  0  0  0  0  0  0  0  0
   10.6830  -20.0254   27.6931 C   0  0  2  0  0  0  0  0  0  0  0  0
   10.5283  -19.3734   26.4107 N   0  0  0  0  0  0  0  0  0  0  0  0
    9.7232  -19.4460   28.6610 C   0  0  0  0  0  0  0  0  0  0  0  0
    8.8908  -18.4221   28.2434 O   0  0  0  0  0  0  0  0  0  0  0  0
    9.6224  -19.8353   29.8482 O   0  0  0  0  0  0  0  0  0  0  0  0
  1  2  1  0
  2  3  2  0
  4  5  1  0
  4  2  1  0
  5  6  1  1
  7  8  2  0
  7  5  1  0
  9  7  1  0
 10  9  1  0
 11 12  1  0
 10 11  1  6
 12 13  1  0
 13 14  2  0
 15 16  2  0
 15 10  1  0
 17 13  1  0
 19 18  1  0
 20 19  2  0
 21 19  1  0
 22 21  1  0
 23 22  1  0
 23 24  1  0
 25 24  1  1
 25 26  1  0
 26 15  1  0
 27 25  1  0
 28 27  1  0
 29 27  2  0
M  END
$$$$
