NER.pdb
     RDKit          3D

 29 28  0  0  1  0  0  0  0  0999 V2000
    6.7834  -13.4483   17.1812 N   0  0  0  0  0  0  0  0  0  0  0  0
    7.5140  -13.9636   16.0739 C   0  0  0  0  0  0  0  0  0  0  0  0
    7.0253  -13.9612   14.9268 O   0  0  0  0  0  0  0  0  0  0  0  0
    8.8717  -14.4983   16.3489 C   0  0  0  0  0  0  0  0  0  0  0  0
    9.1098  -14.4214   17.8350 C   0  0  2  0  0  0  0  0  0  0  0  0
    9.2070  -13.0500   18.2853 N   0  0  0  0  0  0  0  0  0  0  0  0
   10.3617  -15.1210   18.2166 C   0  0  0  0  0  0  0  0  0  0  0  0
   10.5083  -16.3659   18.0220 O   0  0  0  0  0  0  0  0  0  0  0  0
   11.4414  -14.4317   18.8122 N   0  0  0  0  0  0  0  0  0  0  0  0
   12.6916  -15.1030   19.0781 C   0  0  1  0  0  0  0  0  0  0  0  0
   13.7818  -14.2000   18.5439 C   0  0  0  0  0  0  0  0  0  0  0  0
   15.1508  -14.7833   18.7138 C   0  0  0  0  0  0  0  0  0  0  0  0
   16.2442  -13.9961   18.1520 C   0  0  0  0  0  0  0  0  0  0  0  0
   17.2690  -13.7144   18.7822 O   0  0  0  0  0  0  0  0  0  0  0  0
   12.8127  -15.2930   20.5442 C   0  0  0  0  0  0  0  0  0  0  0  0
   12.5259  -14.3340   21.2985 O   0  0  0  0  0  0  0  0  0  0  0  0
   16.1539  -13.5278   16.8457 O   0  0  0  0  0  0  0  0  0  0  0  0
   11.8536  -22.8802   24.1657 N   0  0  0  0  0  0  0  0  0  0  0  0
   10.7364  -22.1366   23.7377 C   0  0  0  0  0  0  0  0  0  0  0  0
    9.5767  -22.7299   23.6379 N   0  0  0  0  0  0  0  0  0  0  0  0
   10.8259  -20.7535   23.4085 N   0  0  0  0  0  0  0  0  0  0  0  0
   12.1267  -20.1647   23.3804 C   0  0  0  0  0  0  0  0  0  0  0  0
   12.1530  -18.7131   23.0329 C   0  0  0  0  0  0  0  0  0  0  0  0
   13.5208  -18.1274   22.9212 C   0  0  0  0  0  0  0  0  0  0  0  0
   13.4151  -16.6421   22.5523 C   0  0  2  0  0  0  0  0  0  0  0  0
   13.2410  -16.5206   21.1210 N   0  0  0  0  0  0  0  0  0  0  0  0
   14.6337  -15.9087   22.9658 C   0  0  0  0  0  0  0  0  0  0  0  0
   14.7383  -15.4740   24.2757 O   0  0  0  0  0  0  0  0  0  0  0  0
   15.5839  -15.6577   22.1879 O   0  0  0  0  0  0  0  0  0  0  0  0
  1  2  1  0
  2  3  2  0
  4  5  1  0
  4  2  1  0
  5  6  1  6
  7  8  2  0
  7  5  1  0
  9  7  1  0
 10  9  1  0
 11 12  1  0
 10 11  1  1
 12 13  1  0
 13 14  2  0
 15 16  2  0
 15 10  1  0
 17 13  1  0
 19 18  1  0
 20 19  2  0
 21 19  1  0
 22 21  1  0
 23 22  1  0
 23 24  1  0
 25 24  1  6
 25 26  1  0
 26 15  1  0
 27 25  1  0
 28 27  1  0
 29 27  2  0
M  END
$$$$
