NER.pdb
     RDKit          3D

 29 28  0  0  1  0  0  0  0  0999 V2000
   12.1529  -18.9246   15.8498 N   0  0  0  0  0  0  0  0  0  0  0  0
   10.7384  -18.7837   15.7818 C   0  0  0  0  0  0  0  0  0  0  0  0
   10.1544  -18.7044   14.6829 O   0  0  0  0  0  0  0  0  0  0  0  0
   10.0004  -18.7362   17.0693 C   0  0  0  0  0  0  0  0  0  0  0  0
   11.0112  -18.7717   18.1865 C   0  0  2  0  0  0  0  0  0  0  0  0
   11.8774  -19.9255   18.0804 N   0  0  0  0  0  0  0  0  0  0  0  0
   10.3467  -18.8154   19.5127 C   0  0  0  0  0  0  0  0  0  0  0  0
    9.5567  -17.8959   19.8864 O   0  0  0  0  0  0  0  0  0  0  0  0
   10.5655  -19.8809   20.4142 N   0  0  0  0  0  0  0  0  0  0  0  0
    9.8799  -19.9287   21.6839 C   0  0  1  0  0  0  0  0  0  0  0  0
    9.9092  -21.3744   22.1294 C   0  0  0  0  0  0  0  0  0  0  0  0
    9.2971  -21.5753   23.4815 C   0  0  0  0  0  0  0  0  0  0  0  0
    9.3492  -22.9391   23.9993 C   0  0  0  0  0  0  0  0  0  0  0  0
    8.3872  -23.7138   23.9644 O   0  0  0  0  0  0  0  0  0  0  0  0
   10.6053  -19.0518   22.6352 C   0  0  0  0  0  0  0  0  0  0  0  0
   11.8536  -18.9781   22.5500 O   0  0  0  0  0  0  0  0  0  0  0  0
   10.5271  -23.4154   24.5648 O   0  0  0  0  0  0  0  0  0  0  0  0
    9.3904  -14.7548   29.8785 N   0  0  0  0  0  0  0  0  0  0  0  0
   10.5102  -14.3126   29.1473 C   0  0  0  0  0  0  0  0  0  0  0  0
   11.6955  -14.3843   29.6922 N   0  0  0  0  0  0  0  0  0  0  0  0
   10.3963  -13.7875   27.8279 N   0  0  0  0  0  0  0  0  0  0  0  0
    9.6865  -14.5687   26.8659 C   0  0  0  0  0  0  0  0  0  0  0  0
   10.4901  -15.6434   26.2116 C   0  0  0  0  0  0  0  0  0  0  0  0
    9.7532  -16.4244   25.1756 C   0  0  0  0  0  0  0  0  0  0  0  0
   10.6846  -17.4831   24.5714 C   0  0  2  0  0  0  0  0  0  0  0  0
    9.9360  -18.2946   23.6362 N   0  0  0  0  0  0  0  0  0  0  0  0
   11.2555  -18.3481   25.6296 C   0  0  0  0  0  0  0  0  0  0  0  0
   12.5468  -18.1057   26.0647 O   0  0  0  0  0  0  0  0  0  0  0  0
   10.6280  -19.2961   26.1574 O   0  0  0  0  0  0  0  0  0  0  0  0
  1  2  1  0
  2  3  2  0
  4  5  1  0
  4  2  1  0
  5  6  1  6
  7  8  2  0
  7  5  1  0
  9  7  1  0
 10  9  1  0
 11 12  1  0
 10 11  1  1
 12 13  1  0
 13 14  2  0
 15 16  2  0
 15 10  1  0
 17 13  1  0
 19 18  1  0
 20 19  2  0
 21 19  1  0
 22 21  1  0
 23 22  1  0
 23 24  1  0
 25 24  1  1
 25 26  1  0
 26 15  1  0
 27 25  1  0
 28 27  1  0
 29 27  2  0
M  END
$$$$
