NER.pdb
     RDKit          3D

 29 28  0  0  1  0  0  0  0  0999 V2000
   15.3837  -17.9444   17.2527 N   0  0  0  0  0  0  0  0  0  0  0  0
   15.6044  -18.3919   18.5855 C   0  0  0  0  0  0  0  0  0  0  0  0
   15.2465  -19.5303   18.9468 O   0  0  0  0  0  0  0  0  0  0  0  0
   16.2746  -17.4469   19.5143 C   0  0  0  0  0  0  0  0  0  0  0  0
   15.2113  -16.7882   20.3550 C   0  0  2  0  0  0  0  0  0  0  0  0
   15.7624  -15.7273   21.1698 N   0  0  0  0  0  0  0  0  0  0  0  0
   14.5546  -17.7670   21.2565 C   0  0  0  0  0  0  0  0  0  0  0  0
   13.2913  -17.8679   21.3140 O   0  0  0  0  0  0  0  0  0  0  0  0
   15.3067  -18.6265   22.0879 N   0  0  0  0  0  0  0  0  0  0  0  0
   14.6530  -19.5964   22.9342 C   0  0  1  0  0  0  0  0  0  0  0  0
   15.6797  -20.6694   23.2240 C   0  0  0  0  0  0  0  0  0  0  0  0
   16.4076  -21.1202   21.9952 C   0  0  0  0  0  0  0  0  0  0  0  0
   17.7910  -21.5379   22.2011 C   0  0  0  0  0  0  0  0  0  0  0  0
   18.7292  -20.7416   22.3129 O   0  0  0  0  0  0  0  0  0  0  0  0
   14.2186  -18.9101   24.1754 C   0  0  0  0  0  0  0  0  0  0  0  0
   14.9357  -17.9900   24.6339 O   0  0  0  0  0  0  0  0  0  0  0  0
   18.0959  -22.8925   22.2791 O   0  0  0  0  0  0  0  0  0  0  0  0
    8.2686  -13.9634   27.3336 N   0  0  0  0  0  0  0  0  0  0  0  0
    9.4854  -13.8907   28.0395 C   0  0  0  0  0  0  0  0  0  0  0  0
    9.8339  -12.7599   28.5934 N   0  0  0  0  0  0  0  0  0  0  0  0
   10.3541  -15.0119   28.1724 N   0  0  0  0  0  0  0  0  0  0  0  0
   10.8091  -15.6398   26.9731 C   0  0  0  0  0  0  0  0  0  0  0  0
   10.8281  -17.1321   27.0123 C   0  0  0  0  0  0  0  0  0  0  0  0
   11.3182  -17.7786   25.7601 C   0  0  0  0  0  0  0  0  0  0  0  0
   12.6170  -18.5417   26.0502 C   0  0  2  0  0  0  0  0  0  0  0  0
   13.0215  -19.2584   24.8601 N   0  0  0  0  0  0  0  0  0  0  0  0
   12.4274  -19.4999   27.1636 C   0  0  0  0  0  0  0  0  0  0  0  0
   12.4522  -19.0254   28.4636 O   0  0  0  0  0  0  0  0  0  0  0  0
   12.2443  -20.7279   26.9920 O   0  0  0  0  0  0  0  0  0  0  0  0
  1  2  1  0
  2  3  2  0
  4  5  1  0
  4  2  1  0
  5  6  1  1
  7  8  2  0
  7  5  1  0
  9  7  1  0
 10  9  1  0
 11 12  1  0
 10 11  1  1
 12 13  1  0
 13 14  2  0
 15 16  2  0
 15 10  1  0
 17 13  1  0
 19 18  1  0
 20 19  2  0
 21 19  1  0
 22 21  1  0
 23 22  1  0
 23 24  1  0
 25 24  1  6
 25 26  1  0
 26 15  1  0
 27 25  1  0
 28 27  1  0
 29 27  2  0
M  END
$$$$
