NER.pdb
     RDKit          3D

 29 28  0  0  1  0  0  0  0  0999 V2000
    6.9810  -12.8498   17.4429 N   0  0  0  0  0  0  0  0  0  0  0  0
    7.2788  -14.0036   16.6649 C   0  0  0  0  0  0  0  0  0  0  0  0
    6.5972  -14.2936   15.6619 O   0  0  0  0  0  0  0  0  0  0  0  0
    8.4283  -14.8359   17.1016 C   0  0  0  0  0  0  0  0  0  0  0  0
    8.9438  -14.2723   18.4007 C   0  0  2  0  0  0  0  0  0  0  0  0
    9.2347  -12.8598   18.2867 N   0  0  0  0  0  0  0  0  0  0  0  0
   10.1834  -14.9640   18.8335 C   0  0  0  0  0  0  0  0  0  0  0  0
   10.2005  -16.2134   19.0530 O   0  0  0  0  0  0  0  0  0  0  0  0
   11.3950  -14.2619   19.0195 N   0  0  0  0  0  0  0  0  0  0  0  0
   12.6091  -14.9605   19.3694 C   0  0  1  0  0  0  0  0  0  0  0  0
   13.7298  -14.2636   18.6293 C   0  0  0  0  0  0  0  0  0  0  0  0
   15.0748  -14.8480   18.9334 C   0  0  0  0  0  0  0  0  0  0  0  0
   15.9193  -15.1200   17.7743 C   0  0  0  0  0  0  0  0  0  0  0  0
   16.4458  -14.2309   17.0967 O   0  0  0  0  0  0  0  0  0  0  0  0
   12.7888  -14.8693   20.8390 C   0  0  0  0  0  0  0  0  0  0  0  0
   12.9809  -13.7412   21.3505 O   0  0  0  0  0  0  0  0  0  0  0  0
   16.1596  -16.4353   17.3920 O   0  0  0  0  0  0  0  0  0  0  0  0
    8.2454  -17.8339   26.9484 N   0  0  0  0  0  0  0  0  0  0  0  0
    7.6889  -17.5872   25.6782 C   0  0  0  0  0  0  0  0  0  0  0  0
    6.5351  -18.1193   25.3740 N   0  0  0  0  0  0  0  0  0  0  0  0
    8.3421  -16.7736   24.7081 N   0  0  0  0  0  0  0  0  0  0  0  0
    9.4246  -17.3550   23.9804 C   0  0  0  0  0  0  0  0  0  0  0  0
   10.4756  -16.3911   23.5387 C   0  0  0  0  0  0  0  0  0  0  0  0
   11.8752  -16.8408   23.7934 C   0  0  0  0  0  0  0  0  0  0  0  0
   12.8565  -15.8725   23.1203 C   0  0  2  0  0  0  0  0  0  0  0  0
   12.7505  -16.0127   21.6841 N   0  0  0  0  0  0  0  0  0  0  0  0
   14.2478  -16.1542   23.5430 C   0  0  0  0  0  0  0  0  0  0  0  0
   15.2887  -15.5647   22.8468 O   0  0  0  0  0  0  0  0  0  0  0  0
   14.5372  -16.9039   24.5050 O   0  0  0  0  0  0  0  0  0  0  0  0
  1  2  1  0
  2  3  2  0
  4  5  1  0
  4  2  1  0
  5  6  1  6
  7  8  2  0
  7  5  1  0
  9  7  1  0
 10  9  1  0
 11 12  1  0
 10 11  1  6
 12 13  1  0
 13 14  2  0
 15 16  2  0
 15 10  1  0
 17 13  1  0
 19 18  1  0
 20 19  2  0
 21 19  1  0
 22 21  1  0
 23 22  1  0
 23 24  1  0
 25 24  1  1
 25 26  1  0
 26 15  1  0
 27 25  1  0
 28 27  1  0
 29 27  2  0
M  END
$$$$
