NER.pdb
     RDKit          3D

 29 28  0  0  1  0  0  0  0  0999 V2000
    6.9294  -15.7195   15.7617 N   0  0  0  0  0  0  0  0  0  0  0  0
    7.5019  -14.6093   16.4437 C   0  0  0  0  0  0  0  0  0  0  0  0
    8.5865  -14.1190   16.0723 O   0  0  0  0  0  0  0  0  0  0  0  0
    6.7523  -14.0696   17.6063 C   0  0  0  0  0  0  0  0  0  0  0  0
    7.7546  -13.6248   18.6401 C   0  0  2  0  0  0  0  0  0  0  0  0
    8.7238  -12.7094   18.0784 N   0  0  0  0  0  0  0  0  0  0  0  0
    8.4899  -14.7812   19.2097 C   0  0  0  0  0  0  0  0  0  0  0  0
    7.8772  -15.7576   19.7393 O   0  0  0  0  0  0  0  0  0  0  0  0
    9.9010  -14.8436   19.1867 N   0  0  0  0  0  0  0  0  0  0  0  0
   10.6033  -15.9433   19.8048 C   0  0  1  0  0  0  0  0  0  0  0  0
   11.8508  -16.1696   18.9791 C   0  0  0  0  0  0  0  0  0  0  0  0
   11.5946  -17.0015   17.7603 C   0  0  0  0  0  0  0  0  0  0  0  0
   12.7613  -17.2702   16.9253 C   0  0  0  0  0  0  0  0  0  0  0  0
   13.7552  -17.8840   17.3280 O   0  0  0  0  0  0  0  0  0  0  0  0
   10.9359  -15.5562   21.1975 C   0  0  0  0  0  0  0  0  0  0  0  0
   11.5099  -14.4594   21.3940 O   0  0  0  0  0  0  0  0  0  0  0  0
   12.7814  -16.8248   15.6080 O   0  0  0  0  0  0  0  0  0  0  0  0
   10.9866  -15.7879   29.2583 N   0  0  0  0  0  0  0  0  0  0  0  0
   10.2769  -14.6304   28.8834 C   0  0  0  0  0  0  0  0  0  0  0  0
   10.5894  -13.4862   29.4314 N   0  0  0  0  0  0  0  0  0  0  0  0
    9.2254  -14.6623   27.9227 N   0  0  0  0  0  0  0  0  0  0  0  0
    9.2081  -15.7518   26.9995 C   0  0  0  0  0  0  0  0  0  0  0  0
   10.2973  -15.7289   25.9787 C   0  0  0  0  0  0  0  0  0  0  0  0
    9.8520  -16.0457   24.5903 C   0  0  0  0  0  0  0  0  0  0  0  0
   11.0594  -16.0174   23.6445 C   0  0  2  0  0  0  0  0  0  0  0  0
   10.6271  -16.3830   22.3130 N   0  0  0  0  0  0  0  0  0  0  0  0
   12.1075  -16.9598   24.0999 C   0  0  0  0  0  0  0  0  0  0  0  0
   13.0606  -16.5137   24.9989 O   0  0  0  0  0  0  0  0  0  0  0  0
   12.1795  -18.1496   23.7125 O   0  0  0  0  0  0  0  0  0  0  0  0
  1  2  1  0
  2  3  2  0
  4  5  1  0
  4  2  1  0
  5  6  1  6
  7  8  2  0
  7  5  1  0
  9  7  1  0
 10  9  1  0
 11 12  1  0
 10 11  1  6
 12 13  1  0
 13 14  2  0
 15 16  2  0
 15 10  1  0
 17 13  1  0
 19 18  1  0
 20 19  2  0
 21 19  1  0
 22 21  1  0
 23 22  1  0
 23 24  1  0
 25 24  1  1
 25 26  1  0
 26 15  1  0
 27 25  1  0
 28 27  1  0
 29 27  2  0
M  END
$$$$
