NER.pdb
     RDKit          3D

 29 28  0  0  1  0  0  0  0  0999 V2000
    6.6401  -12.4595   17.6778 N   0  0  0  0  0  0  0  0  0  0  0  0
    7.1184  -13.6654   17.0927 C   0  0  0  0  0  0  0  0  0  0  0  0
    7.2204  -13.7808   15.8554 O   0  0  0  0  0  0  0  0  0  0  0  0
    7.4861  -14.7670   18.0179 C   0  0  0  0  0  0  0  0  0  0  0  0
    8.7837  -14.3973   18.6891 C   0  0  2  0  0  0  0  0  0  0  0  0
    9.7855  -14.0016   17.7233 N   0  0  0  0  0  0  0  0  0  0  0  0
    9.3259  -15.5331   19.4755 C   0  0  0  0  0  0  0  0  0  0  0  0
    8.6294  -16.1149   20.3620 O   0  0  0  0  0  0  0  0  0  0  0  0
   10.6384  -16.0137   19.2711 N   0  0  0  0  0  0  0  0  0  0  0  0
   11.1706  -17.0816   20.0841 C   0  0  1  0  0  0  0  0  0  0  0  0
   12.3056  -17.6940   19.2929 C   0  0  0  0  0  0  0  0  0  0  0  0
   12.9674  -18.8277   20.0139 C   0  0  0  0  0  0  0  0  0  0  0  0
   14.0551  -19.4821   19.2933 C   0  0  0  0  0  0  0  0  0  0  0  0
   13.9345  -20.5776   18.7347 O   0  0  0  0  0  0  0  0  0  0  0  0
   11.6506  -16.4972   21.3601 C   0  0  0  0  0  0  0  0  0  0  0  0
   12.2311  -15.3867   21.3299 O   0  0  0  0  0  0  0  0  0  0  0  0
   15.2986  -18.8642   19.2163 O   0  0  0  0  0  0  0  0  0  0  0  0
   10.5904  -13.1668   28.2683 N   0  0  0  0  0  0  0  0  0  0  0  0
   10.0613  -14.4061   28.6786 C   0  0  0  0  0  0  0  0  0  0  0  0
    9.9962  -14.6798   29.9544 N   0  0  0  0  0  0  0  0  0  0  0  0
    9.5919  -15.3769   27.7476 N   0  0  0  0  0  0  0  0  0  0  0  0
   10.4817  -16.4367   27.3944 C   0  0  0  0  0  0  0  0  0  0  0  0
   11.3532  -16.1596   26.2143 C   0  0  0  0  0  0  0  0  0  0  0  0
   10.8997  -16.7998   24.9452 C   0  0  0  0  0  0  0  0  0  0  0  0
   11.9261  -16.5288   23.8377 C   0  0  2  0  0  0  0  0  0  0  0  0
   11.4753  -17.1504   22.6114 N   0  0  0  0  0  0  0  0  0  0  0  0
   13.2545  -17.0700   24.2068 C   0  0  0  0  0  0  0  0  0  0  0  0
   14.1980  -16.2124   24.7452 O   0  0  0  0  0  0  0  0  0  0  0  0
   13.5742  -18.2727   24.0570 O   0  0  0  0  0  0  0  0  0  0  0  0
  1  2  1  0
  2  3  2  0
  4  5  1  0
  4  2  1  0
  5  6  1  6
  7  8  2  0
  7  5  1  0
  9  7  1  0
 10  9  1  0
 11 12  1  0
 10 11  1  6
 12 13  1  0
 13 14  2  0
 15 16  2  0
 15 10  1  0
 17 13  1  0
 19 18  1  0
 20 19  2  0
 21 19  1  0
 22 21  1  0
 23 22  1  0
 23 24  1  0
 25 24  1  1
 25 26  1  0
 26 15  1  0
 27 25  1  0
 28 27  1  0
 29 27  2  0
M  END
$$$$
