NER.pdb
     RDKit          3D

 29 28  0  0  1  0  0  0  0  0999 V2000
    7.7409  -14.2619   13.7260 N   0  0  0  0  0  0  0  0  0  0  0  0
    7.9933  -15.5471   14.2826 C   0  0  0  0  0  0  0  0  0  0  0  0
    7.0558  -16.3219   14.5572 O   0  0  0  0  0  0  0  0  0  0  0  0
    9.4123  -15.9158   14.5178 C   0  0  0  0  0  0  0  0  0  0  0  0
    9.5501  -16.3415   15.9569 C   0  0  2  0  0  0  0  0  0  0  0  0
    9.1983  -15.2693   16.8622 N   0  0  0  0  0  0  0  0  0  0  0  0
   10.9391  -16.7648   16.2625 C   0  0  0  0  0  0  0  0  0  0  0  0
   11.3497  -17.9328   15.9859 O   0  0  0  0  0  0  0  0  0  0  0  0
   11.8617  -15.8869   16.8739 N   0  0  0  0  0  0  0  0  0  0  0  0
   13.2204  -16.3024   17.1303 C   0  0  1  0  0  0  0  0  0  0  0  0
   14.0993  -15.1195   16.7872 C   0  0  0  0  0  0  0  0  0  0  0  0
   15.5571  -15.4094   16.9717 C   0  0  0  0  0  0  0  0  0  0  0  0
   16.4643  -14.3210   16.6209 C   0  0  0  0  0  0  0  0  0  0  0  0
   16.8903  -13.5031   17.4432 O   0  0  0  0  0  0  0  0  0  0  0  0
   13.3313  -16.6643   18.5645 C   0  0  0  0  0  0  0  0  0  0  0  0
   12.7342  -15.9566   19.4091 O   0  0  0  0  0  0  0  0  0  0  0  0
   16.8856  -14.1744   15.3037 O   0  0  0  0  0  0  0  0  0  0  0  0
   10.4310  -22.4450   23.2343 N   0  0  0  0  0  0  0  0  0  0  0  0
   11.4629  -22.0637   24.1141 C   0  0  0  0  0  0  0  0  0  0  0  0
   11.2544  -22.1193   25.4026 N   0  0  0  0  0  0  0  0  0  0  0  0
   12.7327  -21.6175   23.6469 N   0  0  0  0  0  0  0  0  0  0  0  0
   12.8453  -21.2792   22.2640 C   0  0  0  0  0  0  0  0  0  0  0  0
   13.5021  -19.9672   21.9886 C   0  0  0  0  0  0  0  0  0  0  0  0
   13.5372  -19.5822   20.5475 C   0  0  0  0  0  0  0  0  0  0  0  0
   14.0921  -18.1587   20.4093 C   0  0  2  0  0  0  0  0  0  0  0  0
   14.0884  -17.7821   19.0123 N   0  0  0  0  0  0  0  0  0  0  0  0
   15.4730  -18.0780   20.9392 C   0  0  0  0  0  0  0  0  0  0  0  0
   16.5087  -17.8039   20.0629 O   0  0  0  0  0  0  0  0  0  0  0  0
   15.7578  -18.2459   22.1482 O   0  0  0  0  0  0  0  0  0  0  0  0
  1  2  1  0
  2  3  2  0
  4  5  1  0
  4  2  1  0
  5  6  1  1
  7  8  2  0
  7  5  1  0
  9  7  1  0
 10  9  1  0
 11 12  1  0
 10 11  1  1
 12 13  1  0
 13 14  2  0
 15 16  2  0
 15 10  1  0
 17 13  1  0
 19 18  1  0
 20 19  2  0
 21 19  1  0
 22 21  1  0
 23 22  1  0
 23 24  1  0
 25 24  1  6
 25 26  1  0
 26 15  1  0
 27 25  1  0
 28 27  1  0
 29 27  2  0
M  END
$$$$
