NER.pdb
     RDKit          3D

 29 28  0  0  1  0  0  0  0  0999 V2000
   16.3814  -15.0954   18.2724 N   0  0  0  0  0  0  0  0  0  0  0  0
   15.3308  -14.1641   18.0396 C   0  0  0  0  0  0  0  0  0  0  0  0
   15.3630  -13.3935   17.0599 O   0  0  0  0  0  0  0  0  0  0  0  0
   14.2070  -14.1554   19.0099 C   0  0  0  0  0  0  0  0  0  0  0  0
   13.2163  -15.2081   18.5839 C   0  0  2  0  0  0  0  0  0  0  0  0
   12.4128  -14.7582   17.4681 N   0  0  0  0  0  0  0  0  0  0  0  0
   12.3007  -15.5671   19.6952 C   0  0  0  0  0  0  0  0  0  0  0  0
   11.5281  -14.7077   20.2184 O   0  0  0  0  0  0  0  0  0  0  0  0
   12.2509  -16.8788   20.2172 N   0  0  0  0  0  0  0  0  0  0  0  0
   11.2967  -17.2320   21.2415 C   0  0  1  0  0  0  0  0  0  0  0  0
   11.1217  -18.7328   21.1611 C   0  0  0  0  0  0  0  0  0  0  0  0
   10.2209  -19.2681   22.2312 C   0  0  0  0  0  0  0  0  0  0  0  0
    9.9919  -20.7093   22.1980 C   0  0  0  0  0  0  0  0  0  0  0  0
   10.4145  -21.4822   23.0645 O   0  0  0  0  0  0  0  0  0  0  0  0
   11.8513  -16.8188   22.5537 C   0  0  0  0  0  0  0  0  0  0  0  0
   13.0925  -16.8658   22.7214 O   0  0  0  0  0  0  0  0  0  0  0  0
    9.2655  -21.2662   21.1510 O   0  0  0  0  0  0  0  0  0  0  0  0
   11.6422  -16.3266   29.5368 N   0  0  0  0  0  0  0  0  0  0  0  0
   10.4617  -15.6516   29.9041 C   0  0  0  0  0  0  0  0  0  0  0  0
   10.1697  -15.5224   31.1709 N   0  0  0  0  0  0  0  0  0  0  0  0
    9.5702  -15.1013   28.9387 N   0  0  0  0  0  0  0  0  0  0  0  0
   10.1188  -14.2116   27.9655 C   0  0  0  0  0  0  0  0  0  0  0  0
   11.1009  -14.8325   27.0281 C   0  0  0  0  0  0  0  0  0  0  0  0
   10.4995  -15.3942   25.7835 C   0  0  0  0  0  0  0  0  0  0  0  0
   11.6124  -15.9146   24.8647 C   0  0  2  0  0  0  0  0  0  0  0  0
   11.0268  -16.3727   23.6234 N   0  0  0  0  0  0  0  0  0  0  0  0
   12.3464  -17.0299   25.5060 C   0  0  0  0  0  0  0  0  0  0  0  0
   11.9035  -18.3251   25.3011 O   0  0  0  0  0  0  0  0  0  0  0  0
   13.3555  -16.8639   26.2308 O   0  0  0  0  0  0  0  0  0  0  0  0
  1  2  1  0
  2  3  2  0
  4  5  1  0
  4  2  1  0
  5  6  1  6
  7  8  2  0
  7  5  1  0
  9  7  1  0
 10  9  1  0
 11 12  1  0
 10 11  1  1
 12 13  1  0
 13 14  2  0
 15 16  2  0
 15 10  1  0
 17 13  1  0
 19 18  1  0
 20 19  2  0
 21 19  1  0
 22 21  1  0
 23 22  1  0
 23 24  1  0
 25 24  1  1
 25 26  1  0
 26 15  1  0
 27 25  1  0
 28 27  1  0
 29 27  2  0
M  END
$$$$
