NER.pdb
     RDKit          3D

 29 28  0  0  1  0  0  0  0  0999 V2000
    7.8130  -12.9624   16.3220 N   0  0  0  0  0  0  0  0  0  0  0  0
    7.4681  -14.3007   15.9820 C   0  0  0  0  0  0  0  0  0  0  0  0
    6.8816  -14.5593   14.9125 O   0  0  0  0  0  0  0  0  0  0  0  0
    7.8371  -15.3619   16.9527 C   0  0  0  0  0  0  0  0  0  0  0  0
    8.4067  -14.6942   18.1778 C   0  0  2  0  0  0  0  0  0  0  0  0
    9.4753  -13.7813   17.8348 N   0  0  0  0  0  0  0  0  0  0  0  0
    8.9441  -15.6931   19.1347 C   0  0  0  0  0  0  0  0  0  0  0  0
    8.1787  -16.4930   19.7541 O   0  0  0  0  0  0  0  0  0  0  0  0
   10.3285  -15.7954   19.3965 N   0  0  0  0  0  0  0  0  0  0  0  0
   10.8290  -16.7268   20.3796 C   0  0  1  0  0  0  0  0  0  0  0  0
   12.2228  -17.1099   19.9324 C   0  0  0  0  0  0  0  0  0  0  0  0
   12.2340  -18.3153   19.0436 C   0  0  0  0  0  0  0  0  0  0  0  0
   13.5366  -18.6805   18.4952 C   0  0  0  0  0  0  0  0  0  0  0  0
   13.7347  -19.7183   17.8545 O   0  0  0  0  0  0  0  0  0  0  0  0
   10.8489  -16.0443   21.6964 C   0  0  0  0  0  0  0  0  0  0  0  0
   11.1377  -14.8253   21.7354 O   0  0  0  0  0  0  0  0  0  0  0  0
   14.6251  -17.8368   18.6885 O   0  0  0  0  0  0  0  0  0  0  0  0
    4.8979  -12.4298   25.7530 N   0  0  0  0  0  0  0  0  0  0  0  0
    6.0565  -12.1127   26.4887 C   0  0  0  0  0  0  0  0  0  0  0  0
    6.0661  -11.0361   27.2289 N   0  0  0  0  0  0  0  0  0  0  0  0
    7.2242  -12.9280   26.4549 N   0  0  0  0  0  0  0  0  0  0  0  0
    7.4110  -13.7661   25.3137 C   0  0  0  0  0  0  0  0  0  0  0  0
    8.6807  -14.5514   25.3108 C   0  0  0  0  0  0  0  0  0  0  0  0
    8.9550  -15.2809   24.0385 C   0  0  0  0  0  0  0  0  0  0  0  0
   10.3167  -15.9814   24.1313 C   0  0  2  0  0  0  0  0  0  0  0  0
   10.5525  -16.7225   22.9111 N   0  0  0  0  0  0  0  0  0  0  0  0
   10.3551  -16.9071   25.2869 C   0  0  0  0  0  0  0  0  0  0  0  0
   10.7622  -18.2139   25.0815 O   0  0  0  0  0  0  0  0  0  0  0  0
   10.0363  -16.5692   26.4511 O   0  0  0  0  0  0  0  0  0  0  0  0
  1  2  1  0
  2  3  2  0
  4  5  1  0
  4  2  1  0
  5  6  1  6
  7  8  2  0
  7  5  1  0
  9  7  1  0
 10  9  1  0
 11 12  1  0
 10 11  1  6
 12 13  1  0
 13 14  2  0
 15 16  2  0
 15 10  1  0
 17 13  1  0
 19 18  1  0
 20 19  2  0
 21 19  1  0
 22 21  1  0
 23 22  1  0
 23 24  1  0
 25 24  1  6
 25 26  1  0
 26 15  1  0
 27 25  1  0
 28 27  1  0
 29 27  2  0
M  END
$$$$
