NER.pdb
     RDKit          3D

 29 28  0  0  1  0  0  0  0  0999 V2000
   14.8916  -13.2141   16.9142 N   0  0  0  0  0  0  0  0  0  0  0  0
   15.2655  -14.0478   18.0052 C   0  0  0  0  0  0  0  0  0  0  0  0
   16.4657  -14.2362   18.2857 O   0  0  0  0  0  0  0  0  0  0  0  0
   14.1682  -14.6752   18.7844 C   0  0  0  0  0  0  0  0  0  0  0  0
   14.2392  -16.1654   18.5709 C   0  0  2  0  0  0  0  0  0  0  0  0
   13.9286  -16.5197   17.2031 N   0  0  0  0  0  0  0  0  0  0  0  0
   13.2906  -16.8823   19.4589 C   0  0  0  0  0  0  0  0  0  0  0  0
   12.0706  -17.0272   19.1425 O   0  0  0  0  0  0  0  0  0  0  0  0
   13.7048  -17.4327   20.6922 N   0  0  0  0  0  0  0  0  0  0  0  0
   12.7608  -18.0935   21.5620 C   0  0  1  0  0  0  0  0  0  0  0  0
   13.5489  -19.1232   22.3418 C   0  0  0  0  0  0  0  0  0  0  0  0
   14.5910  -18.5074   23.2238 C   0  0  0  0  0  0  0  0  0  0  0  0
   15.3864  -19.4469   24.0083 C   0  0  0  0  0  0  0  0  0  0  0  0
   16.3922  -20.0143   23.5689 O   0  0  0  0  0  0  0  0  0  0  0  0
   12.1637  -17.0732   22.4579 C   0  0  0  0  0  0  0  0  0  0  0  0
   12.8859  -16.1300   22.8576 O   0  0  0  0  0  0  0  0  0  0  0  0
   15.0162  -19.7355   25.3174 O   0  0  0  0  0  0  0  0  0  0  0  0
    6.8200  -12.7384   19.1564 N   0  0  0  0  0  0  0  0  0  0  0  0
    8.1704  -12.9106   18.7943 C   0  0  0  0  0  0  0  0  0  0  0  0
    8.5779  -12.4781   17.6308 N   0  0  0  0  0  0  0  0  0  0  0  0
    9.1128  -13.5422   19.6558 N   0  0  0  0  0  0  0  0  0  0  0  0
    8.6273  -14.0702   20.8908 C   0  0  0  0  0  0  0  0  0  0  0  0
    9.6433  -14.7997   21.7060 C   0  0  0  0  0  0  0  0  0  0  0  0
    9.1167  -15.3843   22.9737 C   0  0  0  0  0  0  0  0  0  0  0  0
   10.2523  -16.0927   23.7233 C   0  0  2  0  0  0  0  0  0  0  0  0
   10.8055  -17.1278   22.8771 N   0  0  0  0  0  0  0  0  0  0  0  0
    9.7567  -16.6960   24.9820 C   0  0  0  0  0  0  0  0  0  0  0  0
   10.3644  -16.3444   26.1748 O   0  0  0  0  0  0  0  0  0  0  0  0
    8.8088  -17.5148   25.0269 O   0  0  0  0  0  0  0  0  0  0  0  0
  1  2  1  0
  2  3  2  0
  4  5  1  0
  4  2  1  0
  5  6  1  6
  7  8  2  0
  7  5  1  0
  9  7  1  0
 10  9  1  0
 11 12  1  0
 10 11  1  1
 12 13  1  0
 13 14  2  0
 15 16  2  0
 15 10  1  0
 17 13  1  0
 19 18  1  0
 20 19  2  0
 21 19  1  0
 22 21  1  0
 23 22  1  0
 23 24  1  0
 25 24  1  6
 25 26  1  0
 26 15  1  0
 27 25  1  0
 28 27  1  0
 29 27  2  0
M  END
$$$$
