GWF.pdb
     RDKit          3D

 30 32  0  0  1  0  0  0  0  0999 V2000
    6.9433  -15.0401   18.9941 N   0  0  0  0  0  0  0  0  0  0  0  0
    6.7752  -15.9086   20.1539 C   0  0  0  0  0  0  0  0  0  0  0  0
    7.8602  -15.6887   21.1502 C   0  0  0  0  0  0  0  0  0  0  0  0
    8.7605  -14.8804   20.8632 O   0  0  0  0  0  0  0  0  0  0  0  0
    7.8991  -16.3610   22.3966 N   0  0  0  0  0  0  0  0  0  0  0  0
    8.9081  -16.2528   23.3923 C   0  0  1  0  0  0  0  0  0  0  0  0
    8.4488  -16.5054   24.8193 C   0  0  0  0  0  0  0  0  0  0  0  0
    7.2702  -15.6342   25.1066 C   0  0  0  0  0  0  0  0  0  0  0  0
    5.9573  -15.9410   25.3551 C   0  0  0  0  0  0  0  0  0  0  0  0
    5.2581  -14.7865   25.5573 N   0  0  0  0  0  0  0  0  0  0  0  0
    6.0702  -13.7449   25.4496 C   0  0  0  0  0  0  0  0  0  0  0  0
    5.9177  -12.3701   25.5589 C   0  0  0  0  0  0  0  0  0  0  0  0
    6.9961  -11.5294   25.3927 C   0  0  0  0  0  0  0  0  0  0  0  0
    8.2497  -12.0283   25.1150 C   0  0  0  0  0  0  0  0  0  0  0  0
    8.3901  -13.4024   25.0080 C   0  0  0  0  0  0  0  0  0  0  0  0
    7.3262  -14.2286   25.1713 C   0  0  0  0  0  0  0  0  0  0  0  0
   10.2055  -16.8591   23.0649 C   0  0  0  0  0  0  0  0  0  0  0  0
   10.3190  -17.9383   22.4406 O   0  0  0  0  0  0  0  0  0  0  0  0
   11.3814  -16.1836   23.4795 N   0  0  0  0  0  0  0  0  0  0  0  0
   11.6433  -15.9595   24.8909 C   0  0  1  0  0  0  0  0  0  0  0  0
   10.4629  -15.3869   25.5972 C   0  0  0  0  0  0  0  0  0  0  0  0
   10.7672  -15.1609   27.0131 C   0  0  0  0  0  0  0  0  0  0  0  0
   11.0208  -16.2374   27.8499 C   0  0  0  0  0  0  0  0  0  0  0  0
   11.3204  -16.0506   29.1616 C   0  0  0  0  0  0  0  0  0  0  0  0
   11.3664  -14.7602   29.6432 C   0  0  0  0  0  0  0  0  0  0  0  0
   11.1178  -13.6745   28.8291 C   0  0  0  0  0  0  0  0  0  0  0  0
   10.8142  -13.8631   27.4995 C   0  0  0  0  0  0  0  0  0  0  0  0
   12.1648  -17.2071   25.4604 C   0  0  0  0  0  0  0  0  0  0  0  0
   11.5316  -18.3116   25.4645 O   0  0  0  0  0  0  0  0  0  0  0  0
   13.4425  -17.2391   26.0517 O   0  0  0  0  0  0  0  0  0  0  0  0
  2  1  1  0
  3  2  1  0
  4  3  2  0
  5  3  1  0
  6 17  1  0
  6  5  1  0
  6  7  1  1
  8  7  1  0
  8 16  1  0
  9  8  2  0
 10  9  1  0
 10 11  1  0
 11 12  1  0
 11 16  2  0
 12 13  2  0
 13 14  1  0
 15 14  2  0
 16 15  1  0
 17 18  2  0
 19 20  1  0
 19 17  1  0
 21 22  1  0
 20 21  1  1
 22 23  2  0
 23 24  1  0
 25 24  2  0
 26 25  1  0
 27 26  2  0
 27 22  1  0
 28 20  1  0
 29 28  2  0
 30 28  1  0
M  END
$$$$
