GWF.pdb
     RDKit          3D

 30 32  0  0  1  0  0  0  0  0999 V2000
    7.6174  -12.9333   18.9512 N   0  0  0  0  0  0  0  0  0  0  0  0
    7.4977  -14.2505   19.5662 C   0  0  0  0  0  0  0  0  0  0  0  0
    8.3663  -14.3608   20.7710 C   0  0  0  0  0  0  0  0  0  0  0  0
    9.4505  -13.7521   20.7660 O   0  0  0  0  0  0  0  0  0  0  0  0
    8.0022  -15.1258   21.9065 N   0  0  0  0  0  0  0  0  0  0  0  0
    8.8127  -15.4076   23.0400 C   0  0  1  0  0  0  0  0  0  0  0  0
    8.1309  -16.1839   24.1551 C   0  0  0  0  0  0  0  0  0  0  0  0
    7.0551  -15.3328   24.7456 C   0  0  0  0  0  0  0  0  0  0  0  0
    5.8527  -15.6609   25.3168 C   0  0  0  0  0  0  0  0  0  0  0  0
    5.2155  -14.5187   25.7065 N   0  0  0  0  0  0  0  0  0  0  0  0
    5.9614  -13.4645   25.4095 C   0  0  0  0  0  0  0  0  0  0  0  0
    5.8265  -12.0933   25.5729 C   0  0  0  0  0  0  0  0  0  0  0  0
    6.8172  -11.2356   25.1486 C   0  0  0  0  0  0  0  0  0  0  0  0
    7.9638  -11.7134   24.5533 C   0  0  0  0  0  0  0  0  0  0  0  0
    8.0876  -13.0842   24.3951 C   0  0  0  0  0  0  0  0  0  0  0  0
    7.1100  -13.9273   24.8131 C   0  0  0  0  0  0  0  0  0  0  0  0
   10.1861  -15.8463   22.7583 C   0  0  0  0  0  0  0  0  0  0  0  0
   10.8692  -15.3933   21.8119 O   0  0  0  0  0  0  0  0  0  0  0  0
   10.7588  -16.8308   23.6032 N   0  0  0  0  0  0  0  0  0  0  0  0
   11.1416  -16.5000   24.9652 C   0  0  1  0  0  0  0  0  0  0  0  0
   10.3838  -15.3310   25.4934 C   0  0  0  0  0  0  0  0  0  0  0  0
   10.6725  -15.1278   26.9160 C   0  0  0  0  0  0  0  0  0  0  0  0
   11.7889  -15.7175   27.4898 C   0  0  0  0  0  0  0  0  0  0  0  0
   12.0845  -15.5300   28.8023 C   0  0  0  0  0  0  0  0  0  0  0  0
   11.2449  -14.7365   29.5536 C   0  0  0  0  0  0  0  0  0  0  0  0
   10.1289  -14.1400   29.0039 C   0  0  0  0  0  0  0  0  0  0  0  0
    9.8288  -14.3295   27.6735 C   0  0  0  0  0  0  0  0  0  0  0  0
   11.0463  -17.7207   25.7736 C   0  0  0  0  0  0  0  0  0  0  0  0
   12.0447  -18.3120   26.2977 O   0  0  0  0  0  0  0  0  0  0  0  0
    9.7936  -18.3168   26.0159 O   0  0  0  0  0  0  0  0  0  0  0  0
  2  1  1  0
  3  2  1  0
  4  3  2  0
  5  3  1  0
  6 17  1  0
  6  5  1  0
  6  7  1  6
  8  7  1  0
  8 16  1  0
  9  8  2  0
 10  9  1  0
 10 11  1  0
 11 12  1  0
 11 16  2  0
 12 13  2  0
 13 14  1  0
 15 14  2  0
 16 15  1  0
 17 18  2  0
 19 20  1  0
 19 17  1  0
 21 22  1  0
 20 21  1  1
 22 23  2  0
 23 24  1  0
 25 24  2  0
 26 25  1  0
 27 26  2  0
 27 22  1  0
 28 20  1  0
 29 28  2  0
 30 28  1  0
M  END
$$$$
