GWF.pdb
     RDKit          3D

 30 32  0  0  1  0  0  0  0  0999 V2000
    3.9101  -18.6436   21.7014 N   0  0  0  0  0  0  0  0  0  0  0  0
    4.8155  -18.8891   22.8183 C   0  0  0  0  0  0  0  0  0  0  0  0
    5.7451  -17.7426   23.0171 C   0  0  0  0  0  0  0  0  0  0  0  0
    5.6265  -16.7586   22.2663 O   0  0  0  0  0  0  0  0  0  0  0  0
    6.7459  -17.7369   24.0198 N   0  0  0  0  0  0  0  0  0  0  0  0
    7.7697  -16.7665   24.1968 C   0  0  1  0  0  0  0  0  0  0  0  0
    8.1037  -16.4235   25.6396 C   0  0  0  0  0  0  0  0  0  0  0  0
    7.0820  -15.4636   26.1547 C   0  0  0  0  0  0  0  0  0  0  0  0
    5.7399  -15.6118   26.3923 C   0  0  0  0  0  0  0  0  0  0  0  0
    5.2355  -14.4337   26.8618 N   0  0  0  0  0  0  0  0  0  0  0  0
    6.2016  -13.5298   26.9374 C   0  0  0  0  0  0  0  0  0  0  0  0
    6.2709  -12.2031   27.3376 C   0  0  0  0  0  0  0  0  0  0  0  0
    7.4673  -11.5214   27.3021 C   0  0  0  0  0  0  0  0  0  0  0  0
    8.6224  -12.1354   26.8707 C   0  0  0  0  0  0  0  0  0  0  0  0
    8.5413  -13.4602   26.4734 C   0  0  0  0  0  0  0  0  0  0  0  0
    7.3615  -14.1296   26.5083 C   0  0  0  0  0  0  0  0  0  0  0  0
    8.9453  -16.9027   23.3264 C   0  0  0  0  0  0  0  0  0  0  0  0
    9.4593  -18.0071   23.0376 O   0  0  0  0  0  0  0  0  0  0  0  0
    9.5200  -15.7218   22.7914 N   0  0  0  0  0  0  0  0  0  0  0  0
   10.6314  -15.8006   21.8590 C   0  0  1  0  0  0  0  0  0  0  0  0
   10.6885  -14.6200   20.9518 C   0  0  0  0  0  0  0  0  0  0  0  0
    9.3478  -14.2699   20.4741 C   0  0  0  0  0  0  0  0  0  0  0  0
    8.7951  -13.0389   20.7948 C   0  0  0  0  0  0  0  0  0  0  0  0
    7.5609  -12.6870   20.3499 C   0  0  0  0  0  0  0  0  0  0  0  0
    6.8677  -13.5863   19.5690 C   0  0  0  0  0  0  0  0  0  0  0  0
    7.3977  -14.8162   19.2375 C   0  0  0  0  0  0  0  0  0  0  0  0
    8.6488  -15.1734   19.6880 C   0  0  0  0  0  0  0  0  0  0  0  0
   11.8543  -16.0537   22.6293 C   0  0  0  0  0  0  0  0  0  0  0  0
   11.9125  -16.0509   23.9011 O   0  0  0  0  0  0  0  0  0  0  0  0
   13.0682  -16.3224   21.9679 O   0  0  0  0  0  0  0  0  0  0  0  0
  2  1  1  0
  3  2  1  0
  4  3  2  0
  5  3  1  0
  6 17  1  0
  6  5  1  0
  6  7  1  1
  8  7  1  0
  8 16  1  0
  9  8  2  0
 10  9  1  0
 10 11  1  0
 11 12  1  0
 11 16  2  0
 12 13  2  0
 13 14  1  0
 15 14  2  0
 16 15  1  0
 17 18  2  0
 19 20  1  0
 19 17  1  0
 21 22  1  0
 20 21  1  1
 22 23  2  0
 23 24  1  0
 25 24  2  0
 26 25  1  0
 27 26  2  0
 27 22  1  0
 28 20  1  0
 29 28  2  0
 30 28  1  0
M  END
$$$$
