GWF.pdb
     RDKit          3D

 30 32  0  0  1  0  0  0  0  0999 V2000
    9.4364  -20.2020   21.4344 N   0  0  0  0  0  0  0  0  0  0  0  0
    9.3406  -19.7971   22.8324 C   0  0  0  0  0  0  0  0  0  0  0  0
    9.4755  -18.3206   22.9736 C   0  0  0  0  0  0  0  0  0  0  0  0
   10.5581  -17.8005   22.6518 O   0  0  0  0  0  0  0  0  0  0  0  0
    8.4252  -17.5012   23.4557 N   0  0  0  0  0  0  0  0  0  0  0  0
    8.4598  -16.0921   23.6410 C   0  0  1  0  0  0  0  0  0  0  0  0
    7.1970  -15.3479   23.2379 C   0  0  0  0  0  0  0  0  0  0  0  0
    7.0601  -15.4029   21.7517 C   0  0  0  0  0  0  0  0  0  0  0  0
    6.5208  -16.3563   20.9273 C   0  0  0  0  0  0  0  0  0  0  0  0
    6.6363  -15.9449   19.6311 N   0  0  0  0  0  0  0  0  0  0  0  0
    7.2294  -14.7607   19.5869 C   0  0  0  0  0  0  0  0  0  0  0  0
    7.5924  -13.8856   18.5732 C   0  0  0  0  0  0  0  0  0  0  0  0
    8.2091  -12.6894   18.8667 C   0  0  0  0  0  0  0  0  0  0  0  0
    8.4807  -12.3307   20.1686 C   0  0  0  0  0  0  0  0  0  0  0  0
    8.1139  -13.2122   21.1725 C   0  0  0  0  0  0  0  0  0  0  0  0
    7.5073  -14.3904   20.8811 C   0  0  0  0  0  0  0  0  0  0  0  0
    9.0567  -15.6210   24.8980 C   0  0  0  0  0  0  0  0  0  0  0  0
    9.0587  -14.4186   25.2467 O   0  0  0  0  0  0  0  0  0  0  0  0
    9.6578  -16.5803   25.7521 N   0  0  0  0  0  0  0  0  0  0  0  0
   10.1529  -16.1925   27.0619 C   0  0  1  0  0  0  0  0  0  0  0  0
    9.0624  -15.7066   27.9534 C   0  0  0  0  0  0  0  0  0  0  0  0
    8.5989  -14.3825   27.5287 C   0  0  0  0  0  0  0  0  0  0  0  0
    9.4274  -13.2789   27.6665 C   0  0  0  0  0  0  0  0  0  0  0  0
    9.0247  -12.0452   27.2652 C   0  0  0  0  0  0  0  0  0  0  0  0
    7.7676  -11.9157   26.7156 C   0  0  0  0  0  0  0  0  0  0  0  0
    6.9267  -12.9995   26.5689 C   0  0  0  0  0  0  0  0  0  0  0  0
    7.3343  -14.2503   26.9753 C   0  0  0  0  0  0  0  0  0  0  0  0
   10.9446  -17.3060   27.5967 C   0  0  0  0  0  0  0  0  0  0  0  0
   11.5998  -17.2594   28.6874 O   0  0  0  0  0  0  0  0  0  0  0  0
   11.0172  -18.5266   26.8981 O   0  0  0  0  0  0  0  0  0  0  0  0
  2  1  1  0
  3  2  1  0
  4  3  2  0
  5  3  1  0
  6 17  1  0
  6  5  1  0
  6  7  1  1
  8  7  1  0
  8 16  1  0
  9  8  2  0
 10  9  1  0
 10 11  1  0
 11 12  1  0
 11 16  2  0
 12 13  2  0
 13 14  1  0
 15 14  2  0
 16 15  1  0
 17 18  2  0
 19 20  1  0
 19 17  1  0
 21 22  1  0
 20 21  1  1
 22 23  2  0
 23 24  1  0
 25 24  2  0
 26 25  1  0
 27 26  2  0
 27 22  1  0
 28 20  1  0
 29 28  2  0
 30 28  1  0
M  END
$$$$
