GWF.pdb
     RDKit          3D

 30 32  0  0  1  0  0  0  0  0999 V2000
    8.0819  -19.9461   21.0496 N   0  0  0  0  0  0  0  0  0  0  0  0
    7.7530  -19.1020   22.1929 C   0  0  0  0  0  0  0  0  0  0  0  0
    8.6926  -17.9512   22.2978 C   0  0  0  0  0  0  0  0  0  0  0  0
    9.6660  -17.9208   21.5247 O   0  0  0  0  0  0  0  0  0  0  0  0
    8.5157  -16.9050   23.2365 N   0  0  0  0  0  0  0  0  0  0  0  0
    9.4054  -15.8248   23.4867 C   0  0  1  0  0  0  0  0  0  0  0  0
    8.8393  -14.4377   23.2290 C   0  0  0  0  0  0  0  0  0  0  0  0
    7.8921  -14.5112   22.0766 C   0  0  0  0  0  0  0  0  0  0  0  0
    6.6499  -15.0796   21.9611 C   0  0  0  0  0  0  0  0  0  0  0  0
    6.1838  -14.8835   20.6935 N   0  0  0  0  0  0  0  0  0  0  0  0
    7.0779  -14.2088   19.9855 C   0  0  0  0  0  0  0  0  0  0  0  0
    7.1394  -13.7365   18.6823 C   0  0  0  0  0  0  0  0  0  0  0  0
    8.2432  -13.0415   18.2395 C   0  0  0  0  0  0  0  0  0  0  0  0
    9.3110  -12.7972   19.0747 C   0  0  0  0  0  0  0  0  0  0  0  0
    9.2387  -13.2737   20.3736 C   0  0  0  0  0  0  0  0  0  0  0  0
    8.1508  -13.9588   20.8074 C   0  0  0  0  0  0  0  0  0  0  0  0
   10.2129  -15.9240   24.7099 C   0  0  0  0  0  0  0  0  0  0  0  0
   11.2745  -15.2833   24.8834 O   0  0  0  0  0  0  0  0  0  0  0  0
    9.7619  -16.7890   25.7391 N   0  0  0  0  0  0  0  0  0  0  0  0
   10.4768  -16.8671   27.0015 C   0  0  1  0  0  0  0  0  0  0  0  0
    9.6522  -16.3845   28.1449 C   0  0  0  0  0  0  0  0  0  0  0  0
    9.2333  -14.9964   27.9305 C   0  0  0  0  0  0  0  0  0  0  0  0
    8.0005  -14.7231   27.3568 C   0  0  0  0  0  0  0  0  0  0  0  0
    7.5851  -13.4444   27.1632 C   0  0  0  0  0  0  0  0  0  0  0  0
    8.4216  -12.4205   27.5519 C   0  0  0  0  0  0  0  0  0  0  0  0
    9.6519  -12.6689   28.1245 C   0  0  0  0  0  0  0  0  0  0  0  0
   10.0736  -13.9647   28.3212 C   0  0  0  0  0  0  0  0  0  0  0  0
   11.0012  -18.2300   27.1436 C   0  0  0  0  0  0  0  0  0  0  0  0
   11.7178  -18.6231   28.1199 O   0  0  0  0  0  0  0  0  0  0  0  0
   10.7229  -19.2043   26.1657 O   0  0  0  0  0  0  0  0  0  0  0  0
  2  1  1  0
  3  2  1  0
  4  3  2  0
  5  3  1  0
  6 17  1  0
  6  5  1  0
  6  7  1  1
  8  7  1  0
  8 16  1  0
  9  8  2  0
 10  9  1  0
 10 11  1  0
 11 12  1  0
 11 16  2  0
 12 13  2  0
 13 14  1  0
 15 14  2  0
 16 15  1  0
 17 18  2  0
 19 20  1  0
 19 17  1  0
 21 22  1  0
 20 21  1  1
 22 23  2  0
 23 24  1  0
 25 24  2  0
 26 25  1  0
 27 26  2  0
 27 22  1  0
 28 20  1  0
 29 28  2  0
 30 28  1  0
M  END
$$$$
