GWF.pdb
     RDKit          3D

 30 32  0  0  1  0  0  0  0  0999 V2000
    7.3388  -15.6136   19.0611 N   0  0  0  0  0  0  0  0  0  0  0  0
    7.6132  -16.7000   19.9949 C   0  0  0  0  0  0  0  0  0  0  0  0
    8.2653  -16.1909   21.2333 C   0  0  0  0  0  0  0  0  0  0  0  0
    9.0987  -15.2751   21.1195 O   0  0  0  0  0  0  0  0  0  0  0  0
    7.9710  -16.7089   22.5187 N   0  0  0  0  0  0  0  0  0  0  0  0
    8.5616  -16.3174   23.7512 C   0  0  1  0  0  0  0  0  0  0  0  0
    7.7453  -16.6275   24.9956 C   0  0  0  0  0  0  0  0  0  0  0  0
    6.6806  -15.5905   25.1432 C   0  0  0  0  0  0  0  0  0  0  0  0
    5.3276  -15.7034   25.3331 C   0  0  0  0  0  0  0  0  0  0  0  0
    4.7796  -14.4555   25.4039 N   0  0  0  0  0  0  0  0  0  0  0  0
    5.7280  -13.5401   25.2678 C   0  0  0  0  0  0  0  0  0  0  0  0
    5.7553  -12.1528   25.2631 C   0  0  0  0  0  0  0  0  0  0  0  0
    6.9434  -11.4752   25.1003 C   0  0  0  0  0  0  0  0  0  0  0  0
    8.1316  -12.1532   24.9387 C   0  0  0  0  0  0  0  0  0  0  0  0
    8.0923  -13.5380   24.9448 C   0  0  0  0  0  0  0  0  0  0  0  0
    6.9206  -14.2035   25.1045 C   0  0  0  0  0  0  0  0  0  0  0  0
    9.9979  -16.5907   23.8941 C   0  0  0  0  0  0  0  0  0  0  0  0
   10.6210  -17.3842   23.1528 O   0  0  0  0  0  0  0  0  0  0  0  0
   10.7058  -15.9199   24.9236 N   0  0  0  0  0  0  0  0  0  0  0  0
   12.1146  -16.1947   25.1484 C   0  0  1  0  0  0  0  0  0  0  0  0
   12.7082  -15.2861   26.1693 C   0  0  0  0  0  0  0  0  0  0  0  0
   11.8788  -15.2539   27.3773 C   0  0  0  0  0  0  0  0  0  0  0  0
   12.0783  -16.1883   28.3826 C   0  0  0  0  0  0  0  0  0  0  0  0
   11.3320  -16.1676   29.5174 C   0  0  0  0  0  0  0  0  0  0  0  0
   10.3676  -15.1918   29.6467 C   0  0  0  0  0  0  0  0  0  0  0  0
   10.1518  -14.2522   28.6597 C   0  0  0  0  0  0  0  0  0  0  0  0
   10.9079  -14.2725   27.5093 C   0  0  0  0  0  0  0  0  0  0  0  0
   12.2592  -17.6272   25.4305 C   0  0  0  0  0  0  0  0  0  0  0  0
   13.3775  -18.2216   25.5619 O   0  0  0  0  0  0  0  0  0  0  0  0
   11.1196  -18.4419   25.5748 O   0  0  0  0  0  0  0  0  0  0  0  0
  2  1  1  0
  3  2  1  0
  4  3  2  0
  5  3  1  0
  6 17  1  0
  6  5  1  0
  6  7  1  1
  8  7  1  0
  8 16  1  0
  9  8  2  0
 10  9  1  0
 10 11  1  0
 11 12  1  0
 11 16  2  0
 12 13  2  0
 13 14  1  0
 15 14  2  0
 16 15  1  0
 17 18  2  0
 19 20  1  0
 19 17  1  0
 21 22  1  0
 20 21  1  1
 22 23  2  0
 23 24  1  0
 25 24  2  0
 26 25  1  0
 27 26  2  0
 27 22  1  0
 28 20  1  0
 29 28  2  0
 30 28  1  0
M  END
$$$$
