GWF.pdb
     RDKit          3D

 30 32  0  0  1  0  0  0  0  0999 V2000
   11.3332  -16.3237   18.2608 N   0  0  0  0  0  0  0  0  0  0  0  0
   10.7314  -17.3479   19.1074 C   0  0  0  0  0  0  0  0  0  0  0  0
   10.3599  -16.7929   20.4386 C   0  0  0  0  0  0  0  0  0  0  0  0
   11.2398  -16.2054   21.0918 O   0  0  0  0  0  0  0  0  0  0  0  0
    9.0548  -16.9111   20.9772 N   0  0  0  0  0  0  0  0  0  0  0  0
    8.6388  -16.5557   22.2893 C   0  0  1  0  0  0  0  0  0  0  0  0
    7.1382  -16.4072   22.4822 C   0  0  0  0  0  0  0  0  0  0  0  0
    6.8751  -15.9609   23.8830 C   0  0  0  0  0  0  0  0  0  0  0  0
    6.4867  -16.6589   24.9972 C   0  0  0  0  0  0  0  0  0  0  0  0
    6.3747  -15.7967   26.0493 N   0  0  0  0  0  0  0  0  0  0  0  0
    6.6770  -14.5676   25.6569 C   0  0  0  0  0  0  0  0  0  0  0  0
    6.7385  -13.3292   26.2796 C   0  0  0  0  0  0  0  0  0  0  0  0
    7.1059  -12.2060   25.5721 C   0  0  0  0  0  0  0  0  0  0  0  0
    7.4211  -12.2810   24.2333 C   0  0  0  0  0  0  0  0  0  0  0  0
    7.3561  -13.5226   23.6219 C   0  0  0  0  0  0  0  0  0  0  0  0
    6.9932  -14.6277   24.3206 C   0  0  0  0  0  0  0  0  0  0  0  0
    9.3182  -17.2493   23.3918 C   0  0  0  0  0  0  0  0  0  0  0  0
    9.5762  -18.4743   23.3746 O   0  0  0  0  0  0  0  0  0  0  0  0
    9.6969  -16.4880   24.5267 N   0  0  0  0  0  0  0  0  0  0  0  0
   10.8576  -16.8672   25.3140 C   0  0  1  0  0  0  0  0  0  0  0  0
   11.6086  -15.6817   25.8145 C   0  0  0  0  0  0  0  0  0  0  0  0
   10.9306  -15.0912   26.9722 C   0  0  0  0  0  0  0  0  0  0  0  0
   10.4744  -13.7827   26.9177 C   0  0  0  0  0  0  0  0  0  0  0  0
    9.8296  -13.2203   27.9727 C   0  0  0  0  0  0  0  0  0  0  0  0
    9.6388  -13.9843   29.1037 C   0  0  0  0  0  0  0  0  0  0  0  0
   10.0839  -15.2879   29.1801 C   0  0  0  0  0  0  0  0  0  0  0  0
   10.7375  -15.8586   28.1110 C   0  0  0  0  0  0  0  0  0  0  0  0
   10.4167  -17.8079   26.3501 C   0  0  0  0  0  0  0  0  0  0  0  0
   11.1983  -18.3821   27.1750 O   0  0  0  0  0  0  0  0  0  0  0  0
    9.0523  -18.1300   26.4837 O   0  0  0  0  0  0  0  0  0  0  0  0
  2  1  1  0
  3  2  1  0
  4  3  2  0
  5  3  1  0
  6 17  1  0
  6  5  1  0
  6  7  1  6
  8  7  1  0
  8 16  1  0
  9  8  2  0
 10  9  1  0
 10 11  1  0
 11 12  1  0
 11 16  2  0
 12 13  2  0
 13 14  1  0
 15 14  2  0
 16 15  1  0
 17 18  2  0
 19 20  1  0
 19 17  1  0
 21 22  1  0
 20 21  1  1
 22 23  2  0
 23 24  1  0
 25 24  2  0
 26 25  1  0
 27 26  2  0
 27 22  1  0
 28 20  1  0
 29 28  2  0
 30 28  1  0
M  END
$$$$
