GWF.pdb
     RDKit          3D

 30 32  0  0  1  0  0  0  0  0999 V2000
    7.5903  -16.3318   18.9869 N   0  0  0  0  0  0  0  0  0  0  0  0
    8.0384  -17.4019   19.8710 C   0  0  0  0  0  0  0  0  0  0  0  0
    8.5741  -16.8535   21.1480 C   0  0  0  0  0  0  0  0  0  0  0  0
    9.3839  -15.9121   21.0842 O   0  0  0  0  0  0  0  0  0  0  0  0
    8.1961  -17.3625   22.4149 N   0  0  0  0  0  0  0  0  0  0  0  0
    8.6693  -16.9289   23.6834 C   0  0  1  0  0  0  0  0  0  0  0  0
    7.7828  -17.2800   24.8674 C   0  0  0  0  0  0  0  0  0  0  0  0
    6.8499  -16.1421   25.1239 C   0  0  0  0  0  0  0  0  0  0  0  0
    5.5274  -16.1199   25.4841 C   0  0  0  0  0  0  0  0  0  0  0  0
    5.1152  -14.8236   25.5951 N   0  0  0  0  0  0  0  0  0  0  0  0
    6.1222  -14.0070   25.3210 C   0  0  0  0  0  0  0  0  0  0  0  0
    6.2818  -12.6293   25.2821 C   0  0  0  0  0  0  0  0  0  0  0  0
    7.4992  -12.0732   24.9567 C   0  0  0  0  0  0  0  0  0  0  0  0
    8.5867  -12.8659   24.6628 C   0  0  0  0  0  0  0  0  0  0  0  0
    8.4157  -14.2402   24.7047 C   0  0  0  0  0  0  0  0  0  0  0  0
    7.2153  -14.7858   25.0246 C   0  0  0  0  0  0  0  0  0  0  0  0
   10.1048  -17.1146   23.9347 C   0  0  0  0  0  0  0  0  0  0  0  0
   10.7922  -17.9911   23.3633 O   0  0  0  0  0  0  0  0  0  0  0  0
   10.7350  -16.2559   24.8709 N   0  0  0  0  0  0  0  0  0  0  0  0
   12.1132  -16.4855   25.2692 C   0  0  1  0  0  0  0  0  0  0  0  0
   12.6723  -15.3416   26.0430 C   0  0  0  0  0  0  0  0  0  0  0  0
   11.8029  -15.0092   27.1753 C   0  0  0  0  0  0  0  0  0  0  0  0
   11.9207  -15.7043   28.3696 C   0  0  0  0  0  0  0  0  0  0  0  0
   11.1364  -15.4027   29.4368 C   0  0  0  0  0  0  0  0  0  0  0  0
   10.2166  -14.3851   29.3040 C   0  0  0  0  0  0  0  0  0  0  0  0
   10.0822  -13.6802   28.1257 C   0  0  0  0  0  0  0  0  0  0  0  0
   10.8770  -13.9853   27.0436 C   0  0  0  0  0  0  0  0  0  0  0  0
   12.1806  -17.7863   25.9447 C   0  0  0  0  0  0  0  0  0  0  0  0
   13.2649  -18.3924   26.2241 O   0  0  0  0  0  0  0  0  0  0  0  0
   10.9995  -18.4492   26.3302 O   0  0  0  0  0  0  0  0  0  0  0  0
  2  1  1  0
  3  2  1  0
  4  3  2  0
  5  3  1  0
  6 17  1  0
  6  5  1  0
  6  7  1  1
  8  7  1  0
  8 16  1  0
  9  8  2  0
 10  9  1  0
 10 11  1  0
 11 12  1  0
 11 16  2  0
 12 13  2  0
 13 14  1  0
 15 14  2  0
 16 15  1  0
 17 18  2  0
 19 20  1  0
 19 17  1  0
 21 22  1  0
 20 21  1  1
 22 23  2  0
 23 24  1  0
 25 24  2  0
 26 25  1  0
 27 26  2  0
 27 22  1  0
 28 20  1  0
 29 28  2  0
 30 28  1  0
M  END
$$$$
