GWF.pdb
     RDKit          3D

 30 32  0  0  1  0  0  0  0  0999 V2000
   10.4019  -19.4890   20.3667 N   0  0  0  0  0  0  0  0  0  0  0  0
    9.4354  -19.0719   21.3764 C   0  0  0  0  0  0  0  0  0  0  0  0
    9.6843  -17.6690   21.8099 C   0  0  0  0  0  0  0  0  0  0  0  0
   10.6846  -17.0869   21.3554 O   0  0  0  0  0  0  0  0  0  0  0  0
    8.8303  -16.9859   22.7105 N   0  0  0  0  0  0  0  0  0  0  0  0
    9.0295  -15.6881   23.2559 C   0  0  1  0  0  0  0  0  0  0  0  0
    7.8682  -14.7218   23.0861 C   0  0  0  0  0  0  0  0  0  0  0  0
    7.3337  -14.8514   21.6975 C   0  0  0  0  0  0  0  0  0  0  0  0
    6.4176  -15.7167   21.1576 C   0  0  0  0  0  0  0  0  0  0  0  0
    6.2640  -15.4358   19.8309 N   0  0  0  0  0  0  0  0  0  0  0  0
    7.0460  -14.4208   19.4932 C   0  0  0  0  0  0  0  0  0  0  0  0
    7.2926  -13.7244   18.3187 C   0  0  0  0  0  0  0  0  0  0  0  0
    8.1889  -12.6787   18.2984 C   0  0  0  0  0  0  0  0  0  0  0  0
    8.8616  -12.2972   19.4383 C   0  0  0  0  0  0  0  0  0  0  0  0
    8.6076  -12.9997   20.6051 C   0  0  0  0  0  0  0  0  0  0  0  0
    7.7249  -14.0301   20.6226 C   0  0  0  0  0  0  0  0  0  0  0  0
    9.6638  -15.6349   24.5799 C   0  0  0  0  0  0  0  0  0  0  0  0
   10.7048  -14.9802   24.8145 O   0  0  0  0  0  0  0  0  0  0  0  0
    9.0622  -16.3626   25.6379 N   0  0  0  0  0  0  0  0  0  0  0  0
    9.4956  -16.1611   27.0100 C   0  0  1  0  0  0  0  0  0  0  0  0
    8.3749  -15.7400   27.8969 C   0  0  0  0  0  0  0  0  0  0  0  0
    7.7839  -14.4852   27.4230 C   0  0  0  0  0  0  0  0  0  0  0  0
    6.5681  -14.4978   26.7560 C   0  0  0  0  0  0  0  0  0  0  0  0
    5.9944  -13.3456   26.3219 C   0  0  0  0  0  0  0  0  0  0  0  0
    6.6522  -12.1585   26.5611 C   0  0  0  0  0  0  0  0  0  0  0  0
    7.8623  -12.1222   27.2227 C   0  0  0  0  0  0  0  0  0  0  0  0
    8.4443  -13.2897   27.6630 C   0  0  0  0  0  0  0  0  0  0  0  0
   10.2126  -17.3661   27.4420 C   0  0  0  0  0  0  0  0  0  0  0  0
   10.7854  -17.4916   28.5721 O   0  0  0  0  0  0  0  0  0  0  0  0
   10.3019  -18.4839   26.5902 O   0  0  0  0  0  0  0  0  0  0  0  0
  2  1  1  0
  3  2  1  0
  4  3  2  0
  5  3  1  0
  6 17  1  0
  6  5  1  0
  6  7  1  1
  8  7  1  0
  8 16  1  0
  9  8  2  0
 10  9  1  0
 10 11  1  0
 11 12  1  0
 11 16  2  0
 12 13  2  0
 13 14  1  0
 15 14  2  0
 16 15  1  0
 17 18  2  0
 19 20  1  0
 19 17  1  0
 21 22  1  0
 20 21  1  1
 22 23  2  0
 23 24  1  0
 25 24  2  0
 26 25  1  0
 27 26  2  0
 27 22  1  0
 28 20  1  0
 29 28  2  0
 30 28  1  0
M  END
$$$$
