GWF.pdb
     RDKit          3D

 30 32  0  0  1  0  0  0  0  0999 V2000
    8.1676  -17.2528   19.0242 N   0  0  0  0  0  0  0  0  0  0  0  0
    9.0377  -16.1114   19.2847 C   0  0  0  0  0  0  0  0  0  0  0  0
    9.1788  -15.8674   20.7471 C   0  0  0  0  0  0  0  0  0  0  0  0
    9.9543  -14.9683   21.1162 O   0  0  0  0  0  0  0  0  0  0  0  0
    8.4681  -16.6159   21.7175 N   0  0  0  0  0  0  0  0  0  0  0  0
    8.5879  -16.5114   23.1303 C   0  0  1  0  0  0  0  0  0  0  0  0
    7.4204  -17.0684   23.9288 C   0  0  0  0  0  0  0  0  0  0  0  0
    6.8024  -15.9588   24.7147 C   0  0  0  0  0  0  0  0  0  0  0  0
    5.8555  -15.9703   25.7060 C   0  0  0  0  0  0  0  0  0  0  0  0
    5.6156  -14.6893   26.1111 N   0  0  0  0  0  0  0  0  0  0  0  0
    6.3728  -13.8502   25.4193 C   0  0  0  0  0  0  0  0  0  0  0  0
    6.5492  -12.4741   25.4077 C   0  0  0  0  0  0  0  0  0  0  0  0
    7.4490  -11.8896   24.5440 C   0  0  0  0  0  0  0  0  0  0  0  0
    8.1953  -12.6518   23.6725 C   0  0  0  0  0  0  0  0  0  0  0  0
    8.0107  -14.0248   23.6928 C   0  0  0  0  0  0  0  0  0  0  0  0
    7.1231  -14.5983   24.5438 C   0  0  0  0  0  0  0  0  0  0  0  0
    9.9061  -16.8357   23.6919 C   0  0  0  0  0  0  0  0  0  0  0  0
   10.6520  -17.7234   23.2197 O   0  0  0  0  0  0  0  0  0  0  0  0
   10.3479  -16.1038   24.8233 N   0  0  0  0  0  0  0  0  0  0  0  0
   11.6919  -16.2908   25.3425 C   0  0  1  0  0  0  0  0  0  0  0  0
   12.1093  -15.1740   26.2361 C   0  0  0  0  0  0  0  0  0  0  0  0
   11.2103  -15.0709   27.3892 C   0  0  0  0  0  0  0  0  0  0  0  0
   10.1439  -14.1846   27.3620 C   0  0  0  0  0  0  0  0  0  0  0  0
    9.2890  -14.0837   28.4127 C   0  0  0  0  0  0  0  0  0  0  0  0
    9.5075  -14.8864   29.5114 C   0  0  0  0  0  0  0  0  0  0  0  0
   10.5616  -15.7751   29.5602 C   0  0  0  0  0  0  0  0  0  0  0  0
   11.4285  -15.8780   28.4955 C   0  0  0  0  0  0  0  0  0  0  0  0
   11.7661  -17.6283   25.9413 C   0  0  0  0  0  0  0  0  0  0  0  0
   12.8392  -18.1614   26.3715 O   0  0  0  0  0  0  0  0  0  0  0  0
   10.6046  -18.4138   26.0723 O   0  0  0  0  0  0  0  0  0  0  0  0
  2  1  1  0
  3  2  1  0
  4  3  2  0
  5  3  1  0
  6 17  1  0
  6  5  1  0
  6  7  1  1
  8  7  1  0
  8 16  1  0
  9  8  2  0
 10  9  1  0
 10 11  1  0
 11 12  1  0
 11 16  2  0
 12 13  2  0
 13 14  1  0
 15 14  2  0
 16 15  1  0
 17 18  2  0
 19 20  1  0
 19 17  1  0
 21 22  1  0
 20 21  1  1
 22 23  2  0
 23 24  1  0
 25 24  2  0
 26 25  1  0
 27 26  2  0
 27 22  1  0
 28 20  1  0
 29 28  2  0
 30 28  1  0
M  END
$$$$
