LQH.pdb
     RDKit          3D

 28 28  0  0  1  0  0  0  0  0999 V2000
    7.0824  -12.5195   21.3109 C   0  0  0  0  0  0  0  0  0  0  0  0
    7.3661  -13.3249   20.0824 C   0  0  1  0  0  0  0  0  0  0  0  0
    7.5874  -12.4441   18.8614 C   0  0  0  0  0  0  0  0  0  0  0  0
    8.5874  -14.1562   20.2691 C   0  0  0  0  0  0  0  0  0  0  0  0
    8.8562  -15.0369   19.0776 C   0  0  2  0  0  0  0  0  0  0  0  0
    7.8050  -15.9660   18.8203 N   0  0  0  0  0  0  0  0  0  0  0  0
   10.1694  -15.6936   19.3004 C   0  0  0  0  0  0  0  0  0  0  0  0
   10.1784  -16.8641   19.7541 O   0  0  0  0  0  0  0  0  0  0  0  0
   15.7710  -13.6577   17.6359 N   0  0  0  0  0  0  0  0  0  0  0  0
   16.1698  -14.7957   18.3414 C   0  0  0  0  0  0  0  0  0  0  0  0
   17.3626  -15.1097   18.4757 O   0  0  0  0  0  0  0  0  0  0  0  0
   15.0937  -15.6617   18.9550 C   0  0  0  0  0  0  0  0  0  0  0  0
   13.7825  -14.9848   18.7123 C   0  0  0  0  0  0  0  0  0  0  0  0
   12.6372  -15.8198   19.2384 C   0  0  2  0  0  0  0  0  0  0  0  0
   11.3902  -15.0580   19.0243 N   0  0  0  0  0  0  0  0  0  0  0  0
   12.7498  -15.9946   20.6870 C   0  0  0  0  0  0  0  0  0  0  0  0
   12.5629  -15.0336   21.5093 O   0  0  0  0  0  0  0  0  0  0  0  0
   13.0680  -17.2582   21.2517 N   0  0  0  0  0  0  0  0  0  0  0  0
   13.0600  -17.4116   22.7145 C   0  0  1  0  0  0  0  0  0  0  0  0
   12.0984  -18.5606   22.9742 C   0  0  0  0  0  0  0  0  0  0  0  0
   12.1188  -18.9876   24.3973 C   0  0  0  0  0  0  0  0  0  0  0  0
   12.8760  -18.4817   25.4389 C   0  0  0  0  0  0  0  0  0  0  0  0
   12.6025  -19.1417   26.5732 N   0  0  0  0  0  0  0  0  0  0  0  0
   11.6785  -20.0677   26.2788 C   0  0  0  0  0  0  0  0  0  0  0  0
   11.3850  -19.9728   24.9539 N   0  0  0  0  0  0  0  0  0  0  0  0
   14.3988  -17.6713   23.2173 C   0  0  0  0  0  0  0  0  0  0  0  0
   15.2950  -18.0203   22.4063 O   0  0  0  0  0  0  0  0  0  0  0  0
   14.7550  -17.5573   24.5463 O   0  0  0  0  0  0  0  0  0  0  0  0
  2  1  1  1
  2  4  1  0
  3  2  1  0
  5  6  1  1
  5  4  1  0
  7  5  1  0
  8  7  2  0
  9 10  1  0
 10 12  1  0
 11 10  2  0
 12 13  1  0
 14 13  1  1
 14 15  1  0
 15  7  1  0
 16 14  1  0
 16 17  2  0
 18 16  1  0
 19 20  1  6
 19 18  1  0
 20 21  1  0
 21 22  2  0
 21 25  1  0
 22 23  1  0
 23 24  1  0
 25 24  2  0
 26 19  1  0
 27 26  2  0
 28 26  1  0
M  END
$$$$
