LQH.pdb
     RDKit          3D

 28 28  0  0  1  0  0  0  0  0999 V2000
    7.0994  -11.9056   19.9522 C   0  0  0  0  0  0  0  0  0  0  0  0
    7.8947  -13.0207   19.3500 C   0  0  1  0  0  0  0  0  0  0  0  0
    9.3525  -12.6356   19.1447 C   0  0  0  0  0  0  0  0  0  0  0  0
    7.8627  -14.2231   20.2280 C   0  0  0  0  0  0  0  0  0  0  0  0
    8.5923  -15.3883   19.6132 C   0  0  2  0  0  0  0  0  0  0  0  0
    7.8843  -15.9808   18.5260 N   0  0  0  0  0  0  0  0  0  0  0  0
    8.8893  -16.3499   20.7052 C   0  0  0  0  0  0  0  0  0  0  0  0
    7.9757  -17.1264   21.0772 O   0  0  0  0  0  0  0  0  0  0  0  0
   14.2142  -19.6455   21.6820 N   0  0  0  0  0  0  0  0  0  0  0  0
   13.4846  -18.8130   20.8295 C   0  0  0  0  0  0  0  0  0  0  0  0
   14.0192  -18.1647   19.9168 O   0  0  0  0  0  0  0  0  0  0  0  0
   11.9918  -18.7131   21.0444 C   0  0  0  0  0  0  0  0  0  0  0  0
   11.7718  -17.9208   22.2934 C   0  0  0  0  0  0  0  0  0  0  0  0
   10.3417  -17.4383   22.3831 C   0  0  2  0  0  0  0  0  0  0  0  0
   10.1439  -16.4211   21.3308 N   0  0  0  0  0  0  0  0  0  0  0  0
   10.1102  -16.7456   23.6512 C   0  0  0  0  0  0  0  0  0  0  0  0
   10.5689  -15.5754   23.8860 O   0  0  0  0  0  0  0  0  0  0  0  0
    9.3487  -17.3469   24.6882 N   0  0  0  0  0  0  0  0  0  0  0  0
    9.1220  -16.6009   25.9353 C   0  0  1  0  0  0  0  0  0  0  0  0
    7.6213  -16.3578   25.9692 C   0  0  0  0  0  0  0  0  0  0  0  0
    7.2970  -14.9088   26.0224 C   0  0  0  0  0  0  0  0  0  0  0  0
    8.1586  -13.8371   26.1758 C   0  0  0  0  0  0  0  0  0  0  0  0
    7.4711  -12.6863   26.1736 N   0  0  0  0  0  0  0  0  0  0  0  0
    6.1763  -12.9996   26.0207 C   0  0  0  0  0  0  0  0  0  0  0  0
    6.0718  -14.3528   25.9288 N   0  0  0  0  0  0  0  0  0  0  0  0
    9.5983  -17.3525   27.0846 C   0  0  0  0  0  0  0  0  0  0  0  0
    9.8198  -18.5841   26.9553 O   0  0  0  0  0  0  0  0  0  0  0  0
    9.8268  -16.7935   28.3261 O   0  0  0  0  0  0  0  0  0  0  0  0
  2  1  1  1
  2  4  1  0
  3  2  1  0
  5  6  1  6
  5  4  1  0
  7  5  1  0
  8  7  2  0
  9 10  1  0
 10 12  1  0
 11 10  2  0
 12 13  1  0
 14 13  1  1
 14 15  1  0
 15  7  1  0
 16 14  1  0
 16 17  2  0
 18 16  1  0
 19 20  1  1
 19 18  1  0
 20 21  1  0
 21 22  2  0
 21 25  1  0
 22 23  1  0
 23 24  1  0
 25 24  2  0
 26 19  1  0
 27 26  2  0
 28 26  1  0
M  END
$$$$
