LQH.pdb
     RDKit          3D

 28 28  0  0  1  0  0  0  0  0999 V2000
    7.2145  -12.3183   20.0657 C   0  0  0  0  0  0  0  0  0  0  0  0
    7.9802  -12.9197   18.9296 C   0  0  1  0  0  0  0  0  0  0  0  0
    8.7481  -11.8697   18.1400 C   0  0  0  0  0  0  0  0  0  0  0  0
    8.9636  -13.9200   19.4295 C   0  0  0  0  0  0  0  0  0  0  0  0
    9.7458  -14.5496   18.3072 C   0  0  2  0  0  0  0  0  0  0  0  0
    8.9501  -15.3902   17.4738 N   0  0  0  0  0  0  0  0  0  0  0  0
   10.8988  -15.2602   18.9162 C   0  0  0  0  0  0  0  0  0  0  0  0
   10.6734  -16.3122   19.5632 O   0  0  0  0  0  0  0  0  0  0  0  0
   17.3462  -14.3361   17.9577 N   0  0  0  0  0  0  0  0  0  0  0  0
   16.1106  -13.9319   17.4461 C   0  0  0  0  0  0  0  0  0  0  0  0
   15.9788  -13.5036   16.2892 O   0  0  0  0  0  0  0  0  0  0  0  0
   14.9039  -14.0280   18.3512 C   0  0  0  0  0  0  0  0  0  0  0  0
   14.5091  -15.4687   18.4185 C   0  0  0  0  0  0  0  0  0  0  0  0
   13.3056  -15.6585   19.3139 C   0  0  2  0  0  0  0  0  0  0  0  0
   12.2201  -14.8018   18.7953 N   0  0  0  0  0  0  0  0  0  0  0  0
   13.5855  -15.1681   20.6640 C   0  0  0  0  0  0  0  0  0  0  0  0
   13.5605  -13.9244   20.9598 O   0  0  0  0  0  0  0  0  0  0  0  0
   13.8935  -16.0643   21.7218 N   0  0  0  0  0  0  0  0  0  0  0  0
   14.3161  -15.5204   23.0214 C   0  0  1  0  0  0  0  0  0  0  0  0
   13.0816  -15.6299   23.9024 C   0  0  0  0  0  0  0  0  0  0  0  0
   12.5791  -17.0262   23.9790 C   0  0  0  0  0  0  0  0  0  0  0  0
   13.0180  -18.1401   23.2857 C   0  0  0  0  0  0  0  0  0  0  0  0
   12.3026  -19.2172   23.6392 N   0  0  0  0  0  0  0  0  0  0  0  0
   11.4068  -18.8145   24.5521 C   0  0  0  0  0  0  0  0  0  0  0  0
   11.5763  -17.4805   24.7581 N   0  0  0  0  0  0  0  0  0  0  0  0
   15.4529  -16.2570   23.5484 C   0  0  0  0  0  0  0  0  0  0  0  0
   15.9212  -17.2125   22.8773 O   0  0  0  0  0  0  0  0  0  0  0  0
   16.0605  -15.9707   24.7546 O   0  0  0  0  0  0  0  0  0  0  0  0
  2  1  1  1
  2  4  1  0
  3  2  1  0
  5  6  1  1
  5  4  1  0
  7  5  1  0
  8  7  2  0
  9 10  1  0
 10 12  1  0
 11 10  2  0
 12 13  1  0
 14 13  1  6
 14 15  1  0
 15  7  1  0
 16 14  1  0
 16 17  2  0
 18 16  1  0
 19 20  1  1
 19 18  1  0
 20 21  1  0
 21 22  2  0
 21 25  1  0
 22 23  1  0
 23 24  1  0
 25 24  2  0
 26 19  1  0
 27 26  2  0
 28 26  1  0
M  END
$$$$
