LQH.pdb
     RDKit          3D

 28 28  0  0  1  0  0  0  0  0999 V2000
    6.9155  -11.6188   19.3622 C   0  0  0  0  0  0  0  0  0  0  0  0
    7.4326  -12.9837   19.0335 C   0  0  1  0  0  0  0  0  0  0  0  0
    8.7559  -12.9273   18.2842 C   0  0  0  0  0  0  0  0  0  0  0  0
    7.6480  -13.7774   20.2749 C   0  0  0  0  0  0  0  0  0  0  0  0
    8.0788  -15.1885   19.9730 C   0  0  2  0  0  0  0  0  0  0  0  0
    7.2246  -15.8464   19.0392 N   0  0  0  0  0  0  0  0  0  0  0  0
    8.1833  -15.9058   21.2691 C   0  0  0  0  0  0  0  0  0  0  0  0
    7.1480  -16.0188   21.9702 O   0  0  0  0  0  0  0  0  0  0  0  0
    6.3365  -19.8656   23.0181 N   0  0  0  0  0  0  0  0  0  0  0  0
    7.3125  -20.1423   23.9788 C   0  0  0  0  0  0  0  0  0  0  0  0
    7.1053  -20.9044   24.9356 O   0  0  0  0  0  0  0  0  0  0  0  0
    8.6623  -19.4790   23.8282 C   0  0  0  0  0  0  0  0  0  0  0  0
    8.5618  -18.5138   22.6904 C   0  0  0  0  0  0  0  0  0  0  0  0
    9.3546  -17.2582   22.9746 C   0  0  2  0  0  0  0  0  0  0  0  0
    9.3875  -16.4571   21.7343 N   0  0  0  0  0  0  0  0  0  0  0  0
   10.7497  -17.5856   23.2709 C   0  0  0  0  0  0  0  0  0  0  0  0
   11.0855  -18.3159   24.2653 O   0  0  0  0  0  0  0  0  0  0  0  0
   11.8064  -17.1072   22.4515 N   0  0  0  0  0  0  0  0  0  0  0  0
   13.1938  -17.4504   22.7987 C   0  0  1  0  0  0  0  0  0  0  0  0
   13.8466  -17.7986   21.4702 C   0  0  0  0  0  0  0  0  0  0  0  0
   13.9155  -16.6236   20.5633 C   0  0  0  0  0  0  0  0  0  0  0  0
   12.9765  -15.6258   20.3714 C   0  0  0  0  0  0  0  0  0  0  0  0
   13.4177  -14.7429   19.4643 N   0  0  0  0  0  0  0  0  0  0  0  0
   14.6297  -15.1568   19.0670 C   0  0  0  0  0  0  0  0  0  0  0  0
   14.9315  -16.3017   19.7368 N   0  0  0  0  0  0  0  0  0  0  0  0
   13.8489  -16.3441   23.4767 C   0  0  0  0  0  0  0  0  0  0  0  0
   13.1857  -15.3034   23.7212 O   0  0  0  0  0  0  0  0  0  0  0  0
   15.1704  -16.3629   23.8757 O   0  0  0  0  0  0  0  0  0  0  0  0
  2  1  1  1
  2  4  1  0
  3  2  1  0
  5  6  1  6
  5  4  1  0
  7  5  1  0
  8  7  2  0
  9 10  1  0
 10 12  1  0
 11 10  2  0
 12 13  1  0
 14 13  1  6
 14 15  1  0
 15  7  1  0
 16 14  1  0
 16 17  2  0
 18 16  1  0
 19 20  1  6
 19 18  1  0
 20 21  1  0
 21 22  2  0
 21 25  1  0
 22 23  1  0
 23 24  1  0
 25 24  2  0
 26 19  1  0
 27 26  2  0
 28 26  1  0
M  END
$$$$
