LQH.pdb
     RDKit          3D

 28 28  0  0  1  0  0  0  0  0999 V2000
    7.3032  -11.7637   27.5338 C   0  0  0  0  0  0  0  0  0  0  0  0
    6.3996  -12.7820   26.9133 C   0  0  1  0  0  0  0  0  0  0  0  0
    5.4770  -12.1666   25.8713 C   0  0  0  0  0  0  0  0  0  0  0  0
    7.1924  -13.8496   26.2430 C   0  0  0  0  0  0  0  0  0  0  0  0
    6.3110  -14.8449   25.5357 C   0  0  2  0  0  0  0  0  0  0  0  0
    5.8402  -15.8833   26.3928 N   0  0  0  0  0  0  0  0  0  0  0  0
    7.0713  -15.3570   24.3674 C   0  0  0  0  0  0  0  0  0  0  0  0
    7.4651  -16.5488   24.3914 O   0  0  0  0  0  0  0  0  0  0  0  0
    8.1190  -12.5066   18.9385 N   0  0  0  0  0  0  0  0  0  0  0  0
    8.6116  -13.7799   18.6419 C   0  0  0  0  0  0  0  0  0  0  0  0
    8.8944  -14.1298   17.4856 O   0  0  0  0  0  0  0  0  0  0  0  0
    8.7992  -14.7506   19.7852 C   0  0  0  0  0  0  0  0  0  0  0  0
    8.0305  -14.2199   20.9530 C   0  0  0  0  0  0  0  0  0  0  0  0
    8.0651  -15.1923   22.1103 C   0  0  2  0  0  0  0  0  0  0  0  0
    7.3629  -14.5631   23.2470 N   0  0  0  0  0  0  0  0  0  0  0  0
    9.4402  -15.4048   22.5637 C   0  0  0  0  0  0  0  0  0  0  0  0
   10.1801  -14.4481   22.9786 O   0  0  0  0  0  0  0  0  0  0  0  0
   10.0190  -16.7016   22.5709 N   0  0  0  0  0  0  0  0  0  0  0  0
   11.4506  -16.8455   22.8764 C   0  0  1  0  0  0  0  0  0  0  0  0
   11.5631  -18.2011   23.5562 C   0  0  0  0  0  0  0  0  0  0  0  0
   11.0239  -18.1717   24.9405 C   0  0  0  0  0  0  0  0  0  0  0  0
   11.1138  -17.1600   25.8800 C   0  0  0  0  0  0  0  0  0  0  0  0
   10.4949  -17.5232   27.0123 N   0  0  0  0  0  0  0  0  0  0  0  0
   10.0059  -18.7565   26.8174 C   0  0  0  0  0  0  0  0  0  0  0  0
   10.3287  -19.1500   25.5558 N   0  0  0  0  0  0  0  0  0  0  0  0
   12.2521  -16.7519   21.6676 C   0  0  0  0  0  0  0  0  0  0  0  0
   13.5047  -16.8204   21.7627 O   0  0  0  0  0  0  0  0  0  0  0  0
   11.7194  -16.5912   20.4041 O   0  0  0  0  0  0  0  0  0  0  0  0
  2  1  1  6
  2  4  1  0
  3  2  1  0
  5  6  1  1
  5  4  1  0
  7  5  1  0
  8  7  2  0
  9 10  1  0
 10 12  1  0
 11 10  2  0
 12 13  1  0
 14 13  1  6
 14 15  1  0
 15  7  1  0
 16 14  1  0
 16 17  2  0
 18 16  1  0
 19 20  1  6
 19 18  1  0
 20 21  1  0
 21 22  2  0
 21 25  1  0
 22 23  1  0
 23 24  1  0
 25 24  2  0
 26 19  1  0
 27 26  2  0
 28 26  1  0
M  END
$$$$
