LQH.pdb
     RDKit          3D

 28 28  0  0  1  0  0  0  0  0999 V2000
    7.0689  -12.5639   19.2045 C   0  0  0  0  0  0  0  0  0  0  0  0
    8.3870  -13.1969   18.8871 C   0  0  1  0  0  0  0  0  0  0  0  0
    9.5500  -12.4308   19.5004 C   0  0  0  0  0  0  0  0  0  0  0  0
    8.4389  -14.5917   19.4061 C   0  0  0  0  0  0  0  0  0  0  0  0
    9.8399  -15.0032   19.7743 C   0  0  2  0  0  0  0  0  0  0  0  0
   10.5663  -15.5571   18.6789 N   0  0  0  0  0  0  0  0  0  0  0  0
    9.7392  -15.9289   20.9311 C   0  0  0  0  0  0  0  0  0  0  0  0
    8.8960  -15.6724   21.8252 O   0  0  0  0  0  0  0  0  0  0  0  0
   10.9014  -21.8546   22.3371 N   0  0  0  0  0  0  0  0  0  0  0  0
   10.3444  -21.4254   21.1299 C   0  0  0  0  0  0  0  0  0  0  0  0
    9.7259  -22.1911   20.3746 O   0  0  0  0  0  0  0  0  0  0  0  0
   10.5130  -19.9724   20.7493 C   0  0  0  0  0  0  0  0  0  0  0  0
   11.0571  -19.2573   21.9445 C   0  0  0  0  0  0  0  0  0  0  0  0
   10.2973  -17.9753   22.2001 C   0  0  2  0  0  0  0  0  0  0  0  0
   10.5459  -17.0706   21.0596 N   0  0  0  0  0  0  0  0  0  0  0  0
   10.8310  -17.2857   23.3754 C   0  0  0  0  0  0  0  0  0  0  0  0
   11.9416  -16.6528   23.3525 O   0  0  0  0  0  0  0  0  0  0  0  0
   10.1256  -17.2820   24.6080 N   0  0  0  0  0  0  0  0  0  0  0  0
   10.7251  -16.6163   25.7745 C   0  0  1  0  0  0  0  0  0  0  0  0
    9.6513  -15.6563   26.2619 C   0  0  0  0  0  0  0  0  0  0  0  0
   10.0097  -15.0421   27.5665 C   0  0  0  0  0  0  0  0  0  0  0  0
   11.1198  -15.2817   28.3568 C   0  0  0  0  0  0  0  0  0  0  0  0
   11.0746  -14.5232   29.4611 N   0  0  0  0  0  0  0  0  0  0  0  0
    9.9498  -13.7961   29.3954 C   0  0  0  0  0  0  0  0  0  0  0  0
    9.3026  -14.1129   28.2416 N   0  0  0  0  0  0  0  0  0  0  0  0
   11.1147  -17.5870   26.7837 C   0  0  0  0  0  0  0  0  0  0  0  0
   10.4813  -18.6714   26.8598 O   0  0  0  0  0  0  0  0  0  0  0  0
   12.1500  -17.3928   27.6761 O   0  0  0  0  0  0  0  0  0  0  0  0
  2  1  1  1
  2  4  1  0
  3  2  1  0
  5  6  1  6
  5  4  1  0
  7  5  1  0
  8  7  2  0
  9 10  1  0
 10 12  1  0
 11 10  2  0
 12 13  1  0
 14 13  1  6
 14 15  1  0
 15  7  1  0
 16 14  1  0
 16 17  2  0
 18 16  1  0
 19 20  1  1
 19 18  1  0
 20 21  1  0
 21 22  2  0
 21 25  1  0
 22 23  1  0
 23 24  1  0
 25 24  2  0
 26 19  1  0
 27 26  2  0
 28 26  1  0
M  END
$$$$
