LQH.pdb
     RDKit          3D

 28 28  0  0  1  0  0  0  0  0999 V2000
    7.6784  -11.6742   20.3057 C   0  0  0  0  0  0  0  0  0  0  0  0
    8.0627  -12.9631   19.6502 C   0  0  1  0  0  0  0  0  0  0  0  0
    9.4220  -12.8751   18.9718 C   0  0  0  0  0  0  0  0  0  0  0  0
    8.1261  -14.0637   20.6513 C   0  0  0  0  0  0  0  0  0  0  0  0
    8.4775  -15.3829   20.0158 C   0  0  2  0  0  0  0  0  0  0  0  0
    7.4479  -15.8869   19.1671 N   0  0  0  0  0  0  0  0  0  0  0  0
    8.8371  -16.3194   21.1108 C   0  0  0  0  0  0  0  0  0  0  0  0
    7.9262  -17.0208   21.6152 O   0  0  0  0  0  0  0  0  0  0  0  0
   11.6193  -20.5325   21.3677 N   0  0  0  0  0  0  0  0  0  0  0  0
   11.9855  -20.4751   22.7148 C   0  0  0  0  0  0  0  0  0  0  0  0
   12.1974  -21.4946   23.3893 O   0  0  0  0  0  0  0  0  0  0  0  0
   12.1228  -19.1123   23.3537 C   0  0  0  0  0  0  0  0  0  0  0  0
   11.7563  -18.0951   22.3206 C   0  0  0  0  0  0  0  0  0  0  0  0
   10.4122  -17.4738   22.6261 C   0  0  2  0  0  0  0  0  0  0  0  0
   10.1475  -16.4473   21.5978 N   0  0  0  0  0  0  0  0  0  0  0  0
   10.4542  -16.7554   23.9003 C   0  0  0  0  0  0  0  0  0  0  0  0
   11.3023  -15.8281   24.1360 O   0  0  0  0  0  0  0  0  0  0  0  0
    9.5374  -17.0547   24.9427 N   0  0  0  0  0  0  0  0  0  0  0  0
    9.6486  -16.3380   26.2223 C   0  0  1  0  0  0  0  0  0  0  0  0
    8.2120  -16.0343   26.6177 C   0  0  0  0  0  0  0  0  0  0  0  0
    7.6517  -14.9007   25.8373 C   0  0  0  0  0  0  0  0  0  0  0  0
    8.2688  -14.1351   24.8640 C   0  0  0  0  0  0  0  0  0  0  0  0
    7.4212  -13.2064   24.3990 N   0  0  0  0  0  0  0  0  0  0  0  0
    6.2642  -13.3614   25.0588 C   0  0  0  0  0  0  0  0  0  0  0  0
    6.4059  -14.3931   25.9340 N   0  0  0  0  0  0  0  0  0  0  0  0
   10.3478  -17.1430   27.2100 C   0  0  0  0  0  0  0  0  0  0  0  0
   10.6115  -18.3429   26.9390 O   0  0  0  0  0  0  0  0  0  0  0  0
   10.7472  -16.6684   28.4434 O   0  0  0  0  0  0  0  0  0  0  0  0
  2  1  1  1
  2  4  1  0
  3  2  1  0
  5  6  1  1
  5  4  1  0
  7  5  1  0
  8  7  2  0
  9 10  1  0
 10 12  1  0
 11 10  2  0
 12 13  1  0
 14 13  1  6
 14 15  1  0
 15  7  1  0
 16 14  1  0
 16 17  2  0
 18 16  1  0
 19 20  1  1
 19 18  1  0
 20 21  1  0
 21 22  2  0
 21 25  1  0
 22 23  1  0
 23 24  1  0
 25 24  2  0
 26 19  1  0
 27 26  2  0
 28 26  1  0
M  END
$$$$
