LQH.pdb
     RDKit          3D

 28 28  0  0  1  0  0  0  0  0999 V2000
    7.0575  -12.5212   20.3720 C   0  0  0  0  0  0  0  0  0  0  0  0
    7.9261  -13.4930   19.6373 C   0  0  1  0  0  0  0  0  0  0  0  0
    9.2203  -12.8519   19.1578 C   0  0  0  0  0  0  0  0  0  0  0  0
    8.2866  -14.6422   20.5129 C   0  0  0  0  0  0  0  0  0  0  0  0
    9.1043  -15.6730   19.7804 C   0  0  2  0  0  0  0  0  0  0  0  0
    8.5164  -16.0791   18.5459 N   0  0  0  0  0  0  0  0  0  0  0  0
    9.3301  -16.8043   20.7154 C   0  0  0  0  0  0  0  0  0  0  0  0
    8.8766  -17.9325   20.4029 O   0  0  0  0  0  0  0  0  0  0  0  0
   13.6129  -20.0647   20.7313 N   0  0  0  0  0  0  0  0  0  0  0  0
   13.6209  -18.7751   20.1940 C   0  0  0  0  0  0  0  0  0  0  0  0
   13.6646  -18.5651   18.9720 O   0  0  0  0  0  0  0  0  0  0  0  0
   13.5742  -17.6081   21.1533 C   0  0  0  0  0  0  0  0  0  0  0  0
   12.2363  -16.9577   21.0015 C   0  0  0  0  0  0  0  0  0  0  0  0
   11.2918  -17.4013   22.0957 C   0  0  2  0  0  0  0  0  0  0  0  0
   10.0265  -16.6588   21.9256 N   0  0  0  0  0  0  0  0  0  0  0  0
   11.8056  -17.0111   23.4093 C   0  0  0  0  0  0  0  0  0  0  0  0
   12.9329  -17.4202   23.8528 O   0  0  0  0  0  0  0  0  0  0  0  0
   11.0688  -16.1427   24.2577 N   0  0  0  0  0  0  0  0  0  0  0  0
   10.1899  -16.7211   25.2855 C   0  0  1  0  0  0  0  0  0  0  0  0
    9.1181  -17.4613   24.5010 C   0  0  0  0  0  0  0  0  0  0  0  0
    8.1956  -18.2085   25.3947 C   0  0  0  0  0  0  0  0  0  0  0  0
    8.1328  -18.1931   26.7767 C   0  0  0  0  0  0  0  0  0  0  0  0
    7.1585  -19.0082   27.2050 N   0  0  0  0  0  0  0  0  0  0  0  0
    6.5905  -19.5505   26.1181 C   0  0  0  0  0  0  0  0  0  0  0  0
    7.2228  -19.0628   25.0168 N   0  0  0  0  0  0  0  0  0  0  0  0
   10.9370  -17.5903   26.1793 C   0  0  0  0  0  0  0  0  0  0  0  0
   10.7776  -17.4660   27.4209 O   0  0  0  0  0  0  0  0  0  0  0  0
   11.8222  -18.5575   25.7468 O   0  0  0  0  0  0  0  0  0  0  0  0
  2  1  1  1
  2  4  1  0
  3  2  1  0
  5  6  1  6
  5  4  1  0
  7  5  1  0
  8  7  2  0
  9 10  1  0
 10 12  1  0
 11 10  2  0
 12 13  1  0
 14 13  1  6
 14 15  1  0
 15  7  1  0
 16 14  1  0
 16 17  2  0
 18 16  1  0
 19 20  1  6
 19 18  1  0
 20 21  1  0
 21 22  2  0
 21 25  1  0
 22 23  1  0
 23 24  1  0
 25 24  2  0
 26 19  1  0
 27 26  2  0
 28 26  1  0
M  END
$$$$
