LQH.pdb
     RDKit          3D

 28 28  0  0  1  0  0  0  0  0999 V2000
    7.9580  -12.1653   18.9378 C   0  0  0  0  0  0  0  0  0  0  0  0
    8.6663  -13.4378   18.5946 C   0  0  1  0  0  0  0  0  0  0  0  0
   10.1766  -13.2560   18.5508 C   0  0  0  0  0  0  0  0  0  0  0  0
    8.3658  -14.4944   19.6000 C   0  0  0  0  0  0  0  0  0  0  0  0
    9.1170  -15.7689   19.3185 C   0  0  2  0  0  0  0  0  0  0  0  0
    8.4775  -16.5915   18.3445 N   0  0  0  0  0  0  0  0  0  0  0  0
    9.3198  -16.4588   20.6178 C   0  0  0  0  0  0  0  0  0  0  0  0
    8.3184  -16.9566   21.1883 O   0  0  0  0  0  0  0  0  0  0  0  0
   14.1645  -20.0706   24.0030 N   0  0  0  0  0  0  0  0  0  0  0  0
   12.8169  -19.8379   23.7170 C   0  0  0  0  0  0  0  0  0  0  0  0
   12.0772  -20.7150   23.2450 O   0  0  0  0  0  0  0  0  0  0  0  0
   12.2604  -18.4615   24.0003 C   0  0  0  0  0  0  0  0  0  0  0  0
   12.0827  -17.7717   22.6855 C   0  0  0  0  0  0  0  0  0  0  0  0
   10.6664  -17.2671   22.5264 C   0  0  2  0  0  0  0  0  0  0  0  0
   10.5799  -16.5732   21.2256 N   0  0  0  0  0  0  0  0  0  0  0  0
   10.3643  -16.2524   23.5367 C   0  0  0  0  0  0  0  0  0  0  0  0
   10.8504  -15.0709   23.4872 O   0  0  0  0  0  0  0  0  0  0  0  0
    9.4999  -16.5362   24.6271 N   0  0  0  0  0  0  0  0  0  0  0  0
    9.2244  -15.4827   25.6159 C   0  0  1  0  0  0  0  0  0  0  0  0
    7.7998  -15.0416   25.3192 C   0  0  0  0  0  0  0  0  0  0  0  0
    7.3812  -13.9071   26.1827 C   0  0  0  0  0  0  0  0  0  0  0  0
    8.1068  -13.2577   27.1656 C   0  0  0  0  0  0  0  0  0  0  0  0
    7.3703  -12.2828   27.7170 N   0  0  0  0  0  0  0  0  0  0  0  0
    6.1779  -12.2932   27.1037 C   0  0  0  0  0  0  0  0  0  0  0  0
    6.1859  -13.2825   26.1699 N   0  0  0  0  0  0  0  0  0  0  0  0
    9.3896  -15.9846   26.9699 C   0  0  0  0  0  0  0  0  0  0  0  0
    9.5572  -17.2192   27.1437 O   0  0  0  0  0  0  0  0  0  0  0  0
    9.3748  -15.1819   28.0931 O   0  0  0  0  0  0  0  0  0  0  0  0
  2  1  1  1
  2  4  1  0
  3  2  1  0
  5  6  1  6
  5  4  1  0
  7  5  1  0
  8  7  2  0
  9 10  1  0
 10 12  1  0
 11 10  2  0
 12 13  1  0
 14 13  1  1
 14 15  1  0
 15  7  1  0
 16 14  1  0
 16 17  2  0
 18 16  1  0
 19 20  1  1
 19 18  1  0
 20 21  1  0
 21 22  2  0
 21 25  1  0
 22 23  1  0
 23 24  1  0
 25 24  2  0
 26 19  1  0
 27 26  2  0
 28 26  1  0
M  END
$$$$
