LQH.pdb
     RDKit          3D

 28 28  0  0  1  0  0  0  0  0999 V2000
    7.9083  -12.1960   21.1029 C   0  0  0  0  0  0  0  0  0  0  0  0
    8.0122  -13.3372   20.1409 C   0  0  1  0  0  0  0  0  0  0  0  0
    8.7806  -12.9556   18.8840 C   0  0  0  0  0  0  0  0  0  0  0  0
    8.7136  -14.4914   20.7681 C   0  0  0  0  0  0  0  0  0  0  0  0
    8.7552  -15.6883   19.8551 C   0  0  2  0  0  0  0  0  0  0  0  0
    7.4599  -16.1336   19.4573 N   0  0  0  0  0  0  0  0  0  0  0  0
    9.5452  -16.7413   20.5422 C   0  0  0  0  0  0  0  0  0  0  0  0
    8.9439  -17.5221   21.3200 O   0  0  0  0  0  0  0  0  0  0  0  0
   15.2757  -18.6421   19.2330 N   0  0  0  0  0  0  0  0  0  0  0  0
   15.0928  -19.3486   20.4244 C   0  0  0  0  0  0  0  0  0  0  0  0
   15.9933  -20.0315   20.9364 O   0  0  0  0  0  0  0  0  0  0  0  0
   13.7421  -19.2643   21.0974 C   0  0  0  0  0  0  0  0  0  0  0  0
   12.9922  -18.1408   20.4558 C   0  0  0  0  0  0  0  0  0  0  0  0
   11.6070  -18.0079   21.0469 C   0  0  2  0  0  0  0  0  0  0  0  0
   10.9281  -16.8937   20.3550 N   0  0  0  0  0  0  0  0  0  0  0  0
   11.6830  -17.6119   22.4537 C   0  0  0  0  0  0  0  0  0  0  0  0
   12.1713  -16.4897   22.8239 O   0  0  0  0  0  0  0  0  0  0  0  0
   11.2039  -18.4644   23.4835 N   0  0  0  0  0  0  0  0  0  0  0  0
   11.1915  -17.9753   24.8706 C   0  0  1  0  0  0  0  0  0  0  0  0
    9.7864  -18.2735   25.3697 C   0  0  0  0  0  0  0  0  0  0  0  0
    8.7897  -17.3196   24.8178 C   0  0  0  0  0  0  0  0  0  0  0  0
    9.0130  -16.1549   24.1052 C   0  0  0  0  0  0  0  0  0  0  0  0
    7.8466  -15.5766   23.7858 N   0  0  0  0  0  0  0  0  0  0  0  0
    6.8719  -16.3521   24.2824 C   0  0  0  0  0  0  0  0  0  0  0  0
    7.4474  -17.4128   24.9104 N   0  0  0  0  0  0  0  0  0  0  0  0
   12.2218  -18.6280   25.6612 C   0  0  0  0  0  0  0  0  0  0  0  0
   12.9177  -19.5294   25.1265 O   0  0  0  0  0  0  0  0  0  0  0  0
   12.4897  -18.3174   26.9794 O   0  0  0  0  0  0  0  0  0  0  0  0
  2  1  1  1
  2  4  1  0
  3  2  1  0
  5  6  1  1
  5  4  1  0
  7  5  1  0
  8  7  2  0
  9 10  1  0
 10 12  1  0
 11 10  2  0
 12 13  1  0
 14 13  1  6
 14 15  1  0
 15  7  1  0
 16 14  1  0
 16 17  2  0
 18 16  1  0
 19 20  1  1
 19 18  1  0
 20 21  1  0
 21 22  2  0
 21 25  1  0
 22 23  1  0
 23 24  1  0
 25 24  2  0
 26 19  1  0
 27 26  2  0
 28 26  1  0
M  END
$$$$
