LQH.pdb
     RDKit          3D

 28 28  0  0  1  0  0  0  0  0999 V2000
    6.9324  -12.8227   18.5046 C   0  0  0  0  0  0  0  0  0  0  0  0
    8.3519  -13.1856   18.8076 C   0  0  1  0  0  0  0  0  0  0  0  0
    9.2530  -11.9609   18.8696 C   0  0  0  0  0  0  0  0  0  0  0  0
    8.4473  -13.8855   20.1185 C   0  0  0  0  0  0  0  0  0  0  0  0
    9.8760  -14.1606   20.5068 C   0  0  2  0  0  0  0  0  0  0  0  0
   10.7617  -14.1996   19.3895 N   0  0  0  0  0  0  0  0  0  0  0  0
    9.8850  -15.4170   21.2985 C   0  0  0  0  0  0  0  0  0  0  0  0
    8.8861  -15.6750   22.0139 O   0  0  0  0  0  0  0  0  0  0  0  0
   12.4543  -21.1975   20.1407 N   0  0  0  0  0  0  0  0  0  0  0  0
   12.5517  -19.8756   19.6989 C   0  0  0  0  0  0  0  0  0  0  0  0
   13.4516  -19.4958   18.9339 O   0  0  0  0  0  0  0  0  0  0  0  0
   11.5135  -18.8893   20.1821 C   0  0  0  0  0  0  0  0  0  0  0  0
   11.8539  -18.5380   21.5953 C   0  0  0  0  0  0  0  0  0  0  0  0
   10.8900  -17.5107   22.1445 C   0  0  2  0  0  0  0  0  0  0  0  0
   10.9608  -16.3184   21.2758 N   0  0  0  0  0  0  0  0  0  0  0  0
   11.3171  -17.0602   23.4697 C   0  0  0  0  0  0  0  0  0  0  0  0
   12.5473  -16.8806   23.7684 O   0  0  0  0  0  0  0  0  0  0  0  0
   10.3711  -16.7912   24.4942 N   0  0  0  0  0  0  0  0  0  0  0  0
   10.8505  -16.3713   25.8197 C   0  0  1  0  0  0  0  0  0  0  0  0
    9.6787  -15.6191   26.4307 C   0  0  0  0  0  0  0  0  0  0  0  0
    9.9460  -15.2291   27.8393 C   0  0  0  0  0  0  0  0  0  0  0  0
   11.0645  -15.4926   28.6099 C   0  0  0  0  0  0  0  0  0  0  0  0
   10.9174  -14.9674   29.8344 N   0  0  0  0  0  0  0  0  0  0  0  0
    9.7184  -14.3677   29.8659 C   0  0  0  0  0  0  0  0  0  0  0  0
    9.1282  -14.5278   28.6507 N   0  0  0  0  0  0  0  0  0  0  0  0
   11.2595  -17.5191   26.6122 C   0  0  0  0  0  0  0  0  0  0  0  0
   12.0498  -17.3417   27.5749 O   0  0  0  0  0  0  0  0  0  0  0  0
   10.8298  -18.8091   26.3732 O   0  0  0  0  0  0  0  0  0  0  0  0
  2  1  1  1
  2  4  1  0
  3  2  1  0
  5  6  1  6
  5  4  1  0
  7  5  1  0
  8  7  2  0
  9 10  1  0
 10 12  1  0
 11 10  2  0
 12 13  1  0
 14 13  1  6
 14 15  1  0
 15  7  1  0
 16 14  1  0
 16 17  2  0
 18 16  1  0
 19 20  1  1
 19 18  1  0
 20 21  1  0
 21 22  2  0
 21 25  1  0
 22 23  1  0
 23 24  1  0
 25 24  2  0
 26 19  1  0
 27 26  2  0
 28 26  1  0
M  END
$$$$
