LQH.pdb
     RDKit          3D

 28 28  0  0  1  0  0  0  0  0999 V2000
    6.6348  -12.1879   18.6427 C   0  0  0  0  0  0  0  0  0  0  0  0
    7.5325  -13.3179   19.0374 C   0  0  1  0  0  0  0  0  0  0  0  0
    9.0012  -12.9219   18.9932 C   0  0  0  0  0  0  0  0  0  0  0  0
    7.2271  -13.7730   20.4220 C   0  0  0  0  0  0  0  0  0  0  0  0
    8.1497  -14.8766   20.8680 C   0  0  2  0  0  0  0  0  0  0  0  0
    8.2437  -15.9424   19.9248 N   0  0  0  0  0  0  0  0  0  0  0  0
    7.6880  -15.3251   22.2062 C   0  0  0  0  0  0  0  0  0  0  0  0
    7.3379  -14.4515   23.0370 O   0  0  0  0  0  0  0  0  0  0  0  0
    7.7259  -21.1711   25.4213 N   0  0  0  0  0  0  0  0  0  0  0  0
    6.5374  -20.4369   25.4121 C   0  0  0  0  0  0  0  0  0  0  0  0
    5.4216  -20.9795   25.4069 O   0  0  0  0  0  0  0  0  0  0  0  0
    6.6369  -18.9287   25.4084 C   0  0  0  0  0  0  0  0  0  0  0  0
    7.0578  -18.5116   24.0354 C   0  0  0  0  0  0  0  0  0  0  0  0
    7.2249  -17.0112   23.9533 C   0  0  2  0  0  0  0  0  0  0  0  0
    7.6296  -16.6790   22.5723 N   0  0  0  0  0  0  0  0  0  0  0  0
    8.3286  -16.5682   24.8061 C   0  0  0  0  0  0  0  0  0  0  0  0
    8.1988  -15.6247   25.6591 O   0  0  0  0  0  0  0  0  0  0  0  0
    9.6078  -17.1803   24.7288 N   0  0  0  0  0  0  0  0  0  0  0  0
   10.6659  -16.7480   25.6545 C   0  0  1  0  0  0  0  0  0  0  0  0
   10.1162  -17.0599   27.0376 C   0  0  0  0  0  0  0  0  0  0  0  0
   10.0498  -15.8464   27.8926 C   0  0  0  0  0  0  0  0  0  0  0  0
   10.1840  -14.5206   27.5204 C   0  0  0  0  0  0  0  0  0  0  0  0
   10.0597  -13.7242   28.5915 N   0  0  0  0  0  0  0  0  0  0  0  0
    9.8470  -14.5176   29.6514 C   0  0  0  0  0  0  0  0  0  0  0  0
    9.8412  -15.8091   29.2245 N   0  0  0  0  0  0  0  0  0  0  0  0
   11.9147  -17.4371   25.3748 C   0  0  0  0  0  0  0  0  0  0  0  0
   11.8844  -18.5000   24.7025 O   0  0  0  0  0  0  0  0  0  0  0  0
   13.1492  -16.9933   25.8051 O   0  0  0  0  0  0  0  0  0  0  0  0
  2  1  1  1
  2  4  1  0
  3  2  1  0
  5  6  1  6
  5  4  1  0
  7  5  1  0
  8  7  2  0
  9 10  1  0
 10 12  1  0
 11 10  2  0
 12 13  1  0
 14 13  1  6
 14 15  1  0
 15  7  1  0
 16 14  1  0
 16 17  2  0
 18 16  1  0
 19 20  1  1
 19 18  1  0
 20 21  1  0
 21 22  2  0
 21 25  1  0
 22 23  1  0
 23 24  1  0
 25 24  2  0
 26 19  1  0
 27 26  2  0
 28 26  1  0
M  END
$$$$
