LQH.pdb
     RDKit          3D

 28 28  0  0  1  0  0  0  0  0999 V2000
    8.0656  -13.0478   18.3889 C   0  0  0  0  0  0  0  0  0  0  0  0
    8.1204  -13.2600   19.8689 C   0  0  1  0  0  0  0  0  0  0  0  0
    7.4228  -12.1430   20.6315 C   0  0  0  0  0  0  0  0  0  0  0  0
    7.4620  -14.5428   20.2409 C   0  0  0  0  0  0  0  0  0  0  0  0
    8.1854  -15.7332   19.6687 C   0  0  2  0  0  0  0  0  0  0  0  0
    7.3033  -16.7396   19.1753 N   0  0  0  0  0  0  0  0  0  0  0  0
    9.1096  -16.2349   20.7171 C   0  0  0  0  0  0  0  0  0  0  0  0
    8.7448  -17.2161   21.4101 O   0  0  0  0  0  0  0  0  0  0  0  0
   14.7064  -14.0350   21.1303 N   0  0  0  0  0  0  0  0  0  0  0  0
   14.5266  -15.2038   20.3862 C   0  0  0  0  0  0  0  0  0  0  0  0
   15.4335  -15.7007   19.7007 O   0  0  0  0  0  0  0  0  0  0  0  0
   13.1710  -15.8706   20.4319 C   0  0  0  0  0  0  0  0  0  0  0  0
   12.6241  -15.6782   21.8103 C   0  0  0  0  0  0  0  0  0  0  0  0
   11.2554  -16.3069   21.9419 C   0  0  2  0  0  0  0  0  0  0  0  0
   10.3656  -15.6563   20.9590 N   0  0  0  0  0  0  0  0  0  0  0  0
   10.6774  -16.0131   23.2538 C   0  0  0  0  0  0  0  0  0  0  0  0
   10.0879  -14.9078   23.5104 O   0  0  0  0  0  0  0  0  0  0  0  0
   10.7391  -16.9582   24.3120 N   0  0  0  0  0  0  0  0  0  0  0  0
    9.9280  -16.7365   25.5188 C   0  0  1  0  0  0  0  0  0  0  0  0
    8.4891  -16.8339   25.0368 C   0  0  0  0  0  0  0  0  0  0  0  0
    7.8070  -15.5141   25.0627 C   0  0  0  0  0  0  0  0  0  0  0  0
    8.3326  -14.2777   25.3935 C   0  0  0  0  0  0  0  0  0  0  0  0
    7.3887  -13.3312   25.2924 N   0  0  0  0  0  0  0  0  0  0  0  0
    6.2597  -13.9392   24.9005 C   0  0  0  0  0  0  0  0  0  0  0  0
    6.5157  -15.2679   24.7610 N   0  0  0  0  0  0  0  0  0  0  0  0
   10.2467  -17.7141   26.5461 C   0  0  0  0  0  0  0  0  0  0  0  0
    9.7096  -17.6021   27.6782 O   0  0  0  0  0  0  0  0  0  0  0  0
   11.1125  -18.7725   26.3562 O   0  0  0  0  0  0  0  0  0  0  0  0
  2  1  1  6
  2  4  1  0
  3  2  1  0
  5  6  1  1
  5  4  1  0
  7  5  1  0
  8  7  2  0
  9 10  1  0
 10 12  1  0
 11 10  2  0
 12 13  1  0
 14 13  1  1
 14 15  1  0
 15  7  1  0
 16 14  1  0
 16 17  2  0
 18 16  1  0
 19 20  1  6
 19 18  1  0
 20 21  1  0
 21 22  2  0
 21 25  1  0
 22 23  1  0
 23 24  1  0
 25 24  2  0
 26 19  1  0
 27 26  2  0
 28 26  1  0
M  END
$$$$
