PCE.pdb
     RDKit          3D

 23 23  0  0  1  0  0  0  0  0999 V2000
   23.3217   -8.9324  -16.5847 N   0  0  0  0  0  0  0  0  0  0  0  0
   23.4982   -9.9158  -15.5646 C   0  0  0  0  0  0  0  0  0  0  0  0
   22.3095  -10.8780  -15.6756 C   0  0  0  0  0  0  0  0  0  0  0  0
   21.9433  -10.6719  -17.1398 C   0  0  0  0  0  0  0  0  0  0  0  0
   22.0208   -9.1418  -17.1905 C   0  0  1  0  0  0  0  0  0  0  0  0
   21.0034   -8.5268  -16.3260 C   0  0  0  0  0  0  0  0  0  0  0  0
   19.7846   -8.8156  -16.4498 O   0  0  0  0  0  0  0  0  0  0  0  0
   21.3114   -7.5797  -15.3061 N   0  0  0  0  0  0  0  0  0  0  0  0
   20.2646   -6.8949  -14.5761 C   0  0  1  0  0  0  0  0  0  0  0  0
   20.7445   -6.6261  -13.1720 C   0  0  0  0  0  0  0  0  0  0  0  0
   22.2847   -5.6932  -13.1472 S   0  0  0  0  0  0  0  0  0  0  0  0
   20.0150   -5.5612  -15.2271 C   0  0  0  0  0  0  0  0  0  0  0  0
   20.8151   -5.1116  -16.0835 O   0  0  0  0  0  0  0  0  0  0  0  0
   18.8776   -4.7815  -14.8938 N   0  0  0  0  0  0  0  0  0  0  0  0
   18.5541   -3.5281  -15.5955 C   0  0  1  0  0  0  0  0  0  0  0  0
   18.4155   -3.8829  -17.0367 C   0  0  0  0  0  0  0  0  0  0  0  0
   18.0204   -2.7720  -17.9487 C   0  0  0  0  0  0  0  0  0  0  0  0
   19.2515   -2.2413  -18.5724 C   0  0  0  0  0  0  0  0  0  0  0  0
   19.6568   -1.0997  -18.2784 O   0  0  0  0  0  0  0  0  0  0  0  0
   17.3695   -2.8921  -15.0079 C   0  0  0  0  0  0  0  0  0  0  0  0
   17.2544   -1.5079  -14.8604 O   0  0  0  0  0  0  0  0  0  0  0  0
   19.9556   -3.0015  -19.4783 O   0  0  0  0  0  0  0  0  0  0  0  0
   16.4068   -3.5940  -14.6138 O   0  0  0  0  0  0  0  0  0  0  0  0
  1  2  1  0
  2  3  1  0
  4  3  1  0
  5  4  1  0
  5  6  1  1
  5  1  1  0
  6  7  2  0
  8  9  1  0
  8  6  1  0
  9 12  1  0
  9 10  1  1
 11 10  1  0
 12 13  2  0
 12 14  1  0
 14 15  1  0
 15 16  1  6
 16 17  1  0
 17 18  1  0
 18 22  1  0
 19 18  2  0
 20 21  1  0
 20 15  1  0
 23 20  2  0
M  END
$$$$
