PCE.pdb
     RDKit          3D

 23 23  0  0  1  0  0  0  0  0999 V2000
   22.0531  -10.6060  -17.1767 N   0  0  0  0  0  0  0  0  0  0  0  0
   21.1608  -10.5552  -18.2903 C   0  0  0  0  0  0  0  0  0  0  0  0
   21.1221   -9.0936  -18.7522 C   0  0  0  0  0  0  0  0  0  0  0  0
   22.4732   -8.6200  -18.2318 C   0  0  0  0  0  0  0  0  0  0  0  0
   22.4213   -9.2459  -16.8335 C   0  0  1  0  0  0  0  0  0  0  0  0
   21.3391   -8.6630  -16.0274 C   0  0  0  0  0  0  0  0  0  0  0  0
   20.1367   -8.7593  -16.3869 O   0  0  0  0  0  0  0  0  0  0  0  0
   21.5626   -7.9614  -14.8069 N   0  0  0  0  0  0  0  0  0  0  0  0
   20.4714   -7.3343  -14.0903 C   0  0  1  0  0  0  0  0  0  0  0  0
   20.6179   -7.6333  -12.6194 C   0  0  0  0  0  0  0  0  0  0  0  0
   20.7011   -9.4019  -12.2905 S   0  0  0  0  0  0  0  0  0  0  0  0
   20.5782   -5.8425  -14.2568 C   0  0  0  0  0  0  0  0  0  0  0  0
   21.7012   -5.2945  -14.3762 O   0  0  0  0  0  0  0  0  0  0  0  0
   19.4221   -5.0208  -14.2836 N   0  0  0  0  0  0  0  0  0  0  0  0
   19.4870   -3.5877  -14.6154 C   0  0  1  0  0  0  0  0  0  0  0  0
   20.1845   -3.4970  -15.9298 C   0  0  0  0  0  0  0  0  0  0  0  0
   19.5172   -4.1822  -17.0730 C   0  0  0  0  0  0  0  0  0  0  0  0
   20.3045   -3.8968  -18.2916 C   0  0  0  0  0  0  0  0  0  0  0  0
   21.1844   -3.0140  -18.2724 O   0  0  0  0  0  0  0  0  0  0  0  0
   18.1491   -2.9859  -14.5930 C   0  0  0  0  0  0  0  0  0  0  0  0
   16.9822   -3.7496  -14.5132 O   0  0  0  0  0  0  0  0  0  0  0  0
   20.0720   -4.6014  -19.4508 O   0  0  0  0  0  0  0  0  0  0  0  0
   18.0172   -1.7390  -14.6462 O   0  0  0  0  0  0  0  0  0  0  0  0
  1  2  1  0
  2  3  1  0
  4  3  1  0
  5  4  1  0
  5  6  1  1
  5  1  1  0
  6  7  2  0
  8  9  1  0
  8  6  1  0
  9 12  1  0
  9 10  1  1
 11 10  1  0
 12 13  2  0
 12 14  1  0
 14 15  1  0
 15 16  1  6
 16 17  1  0
 17 18  1  0
 18 22  1  0
 19 18  2  0
 20 21  1  0
 20 15  1  0
 23 20  2  0
M  END
$$$$
