PCE.pdb
     RDKit          3D

 23 23  0  0  1  0  0  0  0  0999 V2000
   26.2455  -12.0462  -16.4895 N   0  0  0  0  0  0  0  0  0  0  0  0
   25.5870  -13.3133  -16.4863 C   0  0  0  0  0  0  0  0  0  0  0  0
   24.8414  -13.4210  -17.8219 C   0  0  0  0  0  0  0  0  0  0  0  0
   25.6792  -12.4686  -18.6655 C   0  0  0  0  0  0  0  0  0  0  0  0
   25.8085  -11.3157  -17.6636 C   0  0  1  0  0  0  0  0  0  0  0  0
   24.5002  -10.7120  -17.3726 C   0  0  0  0  0  0  0  0  0  0  0  0
   23.7960  -10.2139  -18.2891 O   0  0  0  0  0  0  0  0  0  0  0  0
   23.9424  -10.6462  -16.0624 N   0  0  0  0  0  0  0  0  0  0  0  0
   22.6869   -9.9683  -15.8139 C   0  0  1  0  0  0  0  0  0  0  0  0
   21.9530  -10.6894  -14.7113 C   0  0  0  0  0  0  0  0  0  0  0  0
   20.3218   -9.9886  -14.4094 S   0  0  0  0  0  0  0  0  0  0  0  0
   22.9786   -8.5764  -15.3218 C   0  0  0  0  0  0  0  0  0  0  0  0
   23.9559   -8.3614  -14.5639 O   0  0  0  0  0  0  0  0  0  0  0  0
   22.1641   -7.4775  -15.6981 N   0  0  0  0  0  0  0  0  0  0  0  0
   22.4218   -6.1102  -15.2163 C   0  0  1  0  0  0  0  0  0  0  0  0
   22.3762   -5.2307  -16.4190 C   0  0  0  0  0  0  0  0  0  0  0  0
   22.6105   -3.7787  -16.1768 C   0  0  0  0  0  0  0  0  0  0  0  0
   22.4754   -3.0779  -17.4717 C   0  0  0  0  0  0  0  0  0  0  0  0
   22.0556   -1.9046  -17.5046 O   0  0  0  0  0  0  0  0  0  0  0  0
   21.4751   -5.7432  -14.1570 C   0  0  0  0  0  0  0  0  0  0  0  0
   20.1649   -6.2258  -14.1192 O   0  0  0  0  0  0  0  0  0  0  0  0
   22.8111   -3.7141  -18.6452 O   0  0  0  0  0  0  0  0  0  0  0  0
   21.8285   -4.9674  -13.2361 O   0  0  0  0  0  0  0  0  0  0  0  0
  1  2  1  0
  2  3  1  0
  4  3  1  0
  5  4  1  0
  5  6  1  1
  5  1  1  0
  6  7  2  0
  8  9  1  0
  8  6  1  0
  9 12  1  0
  9 10  1  1
 11 10  1  0
 12 13  2  0
 12 14  1  0
 14 15  1  0
 15 16  1  6
 16 17  1  0
 17 18  1  0
 18 22  1  0
 19 18  2  0
 20 21  1  0
 20 15  1  0
 23 20  2  0
M  END
$$$$
