PCE.pdb
     RDKit          3D

 23 23  0  0  1  0  0  0  0  0999 V2000
   25.7481  -12.4129  -16.0724 N   0  0  0  0  0  0  0  0  0  0  0  0
   25.0584  -13.4961  -15.4479 C   0  0  0  0  0  0  0  0  0  0  0  0
   24.1152  -14.0809  -16.5060 C   0  0  0  0  0  0  0  0  0  0  0  0
   24.8442  -13.6491  -17.7720 C   0  0  0  0  0  0  0  0  0  0  0  0
   25.1606  -12.2010  -17.3813 C   0  0  1  0  0  0  0  0  0  0  0  0
   23.9314  -11.4123  -17.2145 C   0  0  0  0  0  0  0  0  0  0  0  0
   23.1587  -11.2000  -18.1851 O   0  0  0  0  0  0  0  0  0  0  0  0
   23.5299  -10.8416  -15.9715 N   0  0  0  0  0  0  0  0  0  0  0  0
   22.3192  -10.0543  -15.8626 C   0  0  1  0  0  0  0  0  0  0  0  0
   21.4166  -10.6869  -14.8334 C   0  0  0  0  0  0  0  0  0  0  0  0
   19.8108  -11.1294  -15.5180 S   0  0  0  0  0  0  0  0  0  0  0  0
   22.6789   -8.6822  -15.3600 C   0  0  0  0  0  0  0  0  0  0  0  0
   23.5642   -8.5383  -14.4817 O   0  0  0  0  0  0  0  0  0  0  0  0
   22.0329   -7.5227  -15.8608 N   0  0  0  0  0  0  0  0  0  0  0  0
   22.3147   -6.1782  -15.3306 C   0  0  1  0  0  0  0  0  0  0  0  0
   21.8311   -5.2158  -16.3612 C   0  0  0  0  0  0  0  0  0  0  0  0
   21.9702   -3.7707  -16.0231 C   0  0  0  0  0  0  0  0  0  0  0  0
   21.3957   -2.9892  -17.1390 C   0  0  0  0  0  0  0  0  0  0  0  0
   21.4177   -1.7433  -17.1035 O   0  0  0  0  0  0  0  0  0  0  0  0
   21.7127   -6.0038  -14.0040 C   0  0  0  0  0  0  0  0  0  0  0  0
   22.2315   -5.1221  -13.0528 O   0  0  0  0  0  0  0  0  0  0  0  0
   20.8349   -3.6297  -18.2205 O   0  0  0  0  0  0  0  0  0  0  0  0
   20.6915   -6.6589  -13.6836 O   0  0  0  0  0  0  0  0  0  0  0  0
  1  2  1  0
  2  3  1  0
  4  3  1  0
  5  4  1  0
  5  6  1  1
  5  1  1  0
  6  7  2  0
  8  9  1  0
  8  6  1  0
  9 12  1  0
  9 10  1  1
 11 10  1  0
 12 13  2  0
 12 14  1  0
 14 15  1  0
 15 16  1  6
 16 17  1  0
 17 18  1  0
 18 22  1  0
 19 18  2  0
 20 21  1  0
 20 15  1  0
 23 20  2  0
M  END
$$$$
