PCE.pdb
     RDKit          3D

 23 23  0  0  1  0  0  0  0  0999 V2000
   19.6743  -12.1319  -17.9733 N   0  0  0  0  0  0  0  0  0  0  0  0
   18.8790  -12.9413  -17.1065 C   0  0  0  0  0  0  0  0  0  0  0  0
   17.8201  -12.0161  -16.4950 C   0  0  0  0  0  0  0  0  0  0  0  0
   17.7659  -10.9368  -17.5688 C   0  0  0  0  0  0  0  0  0  0  0  0
   19.2707  -10.7505  -17.7939 C   0  0  1  0  0  0  0  0  0  0  0  0
   19.9303  -10.2285  -16.5885 C   0  0  0  0  0  0  0  0  0  0  0  0
   19.2636   -9.7067  -15.6572 O   0  0  0  0  0  0  0  0  0  0  0  0
   21.3408  -10.2721  -16.3867 N   0  0  0  0  0  0  0  0  0  0  0  0
   21.9665   -9.5492  -15.2989 C   0  0  1  0  0  0  0  0  0  0  0  0
   23.3872  -10.0314  -15.1461 C   0  0  0  0  0  0  0  0  0  0  0  0
   23.4763  -11.6375  -14.3365 S   0  0  0  0  0  0  0  0  0  0  0  0
   22.0254   -8.0895  -15.6598 C   0  0  0  0  0  0  0  0  0  0  0  0
   22.1510   -7.7349  -16.8574 O   0  0  0  0  0  0  0  0  0  0  0  0
   21.9411   -7.0818  -14.6648 N   0  0  0  0  0  0  0  0  0  0  0  0
   21.8680   -5.6506  -15.0034 C   0  0  1  0  0  0  0  0  0  0  0  0
   20.5885   -5.4644  -15.7453 C   0  0  0  0  0  0  0  0  0  0  0  0
   20.2384   -4.0603  -16.1032 C   0  0  0  0  0  0  0  0  0  0  0  0
   18.9721   -4.0918  -16.8658 C   0  0  0  0  0  0  0  0  0  0  0  0
   18.8701   -3.4525  -17.9311 O   0  0  0  0  0  0  0  0  0  0  0  0
   22.0003   -4.8224  -13.7995 C   0  0  0  0  0  0  0  0  0  0  0  0
   22.2991   -3.4590  -13.8539 O   0  0  0  0  0  0  0  0  0  0  0  0
   17.9014   -4.8245  -16.4063 O   0  0  0  0  0  0  0  0  0  0  0  0
   21.8442   -5.3315  -12.6632 O   0  0  0  0  0  0  0  0  0  0  0  0
  1  2  1  0
  2  3  1  0
  4  3  1  0
  5  4  1  0
  5  6  1  1
  5  1  1  0
  6  7  2  0
  8  9  1  0
  8  6  1  0
  9 12  1  0
  9 10  1  6
 11 10  1  0
 12 13  2  0
 12 14  1  0
 14 15  1  0
 15 16  1  1
 16 17  1  0
 17 18  1  0
 18 22  1  0
 19 18  2  0
 20 21  1  0
 20 15  1  0
 23 20  2  0
M  END
$$$$
