PCE.pdb
     RDKit          3D

 23 23  0  0  1  0  0  0  0  0999 V2000
   16.2213  -10.2173  -13.0264 N   0  0  0  0  0  0  0  0  0  0  0  0
   17.2312  -11.1578  -12.6597 C   0  0  0  0  0  0  0  0  0  0  0  0
   17.7505  -10.7259  -11.2830 C   0  0  0  0  0  0  0  0  0  0  0  0
   16.5358   -9.9596  -10.7751 C   0  0  0  0  0  0  0  0  0  0  0  0
   16.2176   -9.1543  -12.0399 C   0  0  1  0  0  0  0  0  0  0  0  0
   17.3036   -8.2183  -12.3642 C   0  0  0  0  0  0  0  0  0  0  0  0
   17.6593   -7.3279  -11.5488 O   0  0  0  0  0  0  0  0  0  0  0  0
   18.0197   -8.2465  -13.5965 N   0  0  0  0  0  0  0  0  0  0  0  0
   19.0710   -7.2904  -13.8763 C   0  0  1  0  0  0  0  0  0  0  0  0
   20.2706   -8.0282  -14.4154 C   0  0  0  0  0  0  0  0  0  0  0  0
   21.4085   -8.5210  -13.1094 S   0  0  0  0  0  0  0  0  0  0  0  0
   18.5981   -6.3549  -14.9562 C   0  0  0  0  0  0  0  0  0  0  0  0
   18.0720   -6.8058  -16.0029 O   0  0  0  0  0  0  0  0  0  0  0  0
   18.7326   -4.9491  -14.8221 N   0  0  0  0  0  0  0  0  0  0  0  0
   18.2429   -4.0138  -15.8486 C   0  0  1  0  0  0  0  0  0  0  0  0
   17.2467   -3.1368  -15.1700 C   0  0  0  0  0  0  0  0  0  0  0  0
   15.8861   -3.7160  -14.9821 C   0  0  0  0  0  0  0  0  0  0  0  0
   15.0471   -2.6920  -14.3235 C   0  0  0  0  0  0  0  0  0  0  0  0
   13.8065   -2.8134  -14.3162 O   0  0  0  0  0  0  0  0  0  0  0  0
   19.3588   -3.2966  -16.4757 C   0  0  0  0  0  0  0  0  0  0  0  0
   19.1876   -2.4550  -17.5773 O   0  0  0  0  0  0  0  0  0  0  0  0
   15.6283   -1.6021  -13.7163 O   0  0  0  0  0  0  0  0  0  0  0  0
   20.5234   -3.4249  -16.0262 O   0  0  0  0  0  0  0  0  0  0  0  0
  1  2  1  0
  2  3  1  0
  4  3  1  0
  5  4  1  0
  5  6  1  6
  5  1  1  0
  6  7  2  0
  8  9  1  0
  8  6  1  0
  9 12  1  0
  9 10  1  6
 11 10  1  0
 12 13  2  0
 12 14  1  0
 14 15  1  0
 15 16  1  1
 16 17  1  0
 17 18  1  0
 18 22  1  0
 19 18  2  0
 20 21  1  0
 20 15  1  0
 23 20  2  0
M  END
$$$$
