PCE.pdb
     RDKit          3D

 23 23  0  0  1  0  0  0  0  0999 V2000
   26.9648  -20.6336  -16.0907 N   0  0  0  0  0  0  0  0  0  0  0  0
   27.9108  -19.6461  -16.5016 C   0  0  0  0  0  0  0  0  0  0  0  0
   28.2675  -18.8358  -15.2495 C   0  0  0  0  0  0  0  0  0  0  0  0
   27.9481  -19.8655  -14.1732 C   0  0  0  0  0  0  0  0  0  0  0  0
   26.6023  -20.3629  -14.7128 C   0  0  1  0  0  0  0  0  0  0  0  0
   25.5941  -19.2933  -14.7011 C   0  0  0  0  0  0  0  0  0  0  0  0
   25.2509  -18.7355  -13.6263 O   0  0  0  0  0  0  0  0  0  0  0  0
   24.9439  -18.8173  -15.8770 N   0  0  0  0  0  0  0  0  0  0  0  0
   23.8230  -17.9036  -15.7979 C   0  0  1  0  0  0  0  0  0  0  0  0
   24.0526  -16.7653  -16.7600 C   0  0  0  0  0  0  0  0  0  0  0  0
   22.6891  -15.5888  -16.7584 S   0  0  0  0  0  0  0  0  0  0  0  0
   22.5799  -18.6243  -16.2452 C   0  0  0  0  0  0  0  0  0  0  0  0
   22.6077  -19.3775  -17.2490 O   0  0  0  0  0  0  0  0  0  0  0  0
   21.3523  -18.4738  -15.5504 N   0  0  0  0  0  0  0  0  0  0  0  0
   20.1155  -19.1400  -15.9917 C   0  0  1  0  0  0  0  0  0  0  0  0
   19.2051  -19.1494  -14.8113 C   0  0  0  0  0  0  0  0  0  0  0  0
   17.8681  -19.7740  -15.0215 C   0  0  0  0  0  0  0  0  0  0  0  0
   17.1355  -19.7138  -13.7386 C   0  0  0  0  0  0  0  0  0  0  0  0
   17.6686  -19.1906  -12.7406 O   0  0  0  0  0  0  0  0  0  0  0  0
   19.5641  -18.4813  -17.1812 C   0  0  0  0  0  0  0  0  0  0  0  0
   18.9011  -19.1836  -18.1903 O   0  0  0  0  0  0  0  0  0  0  0  0
   15.8647  -20.2328  -13.6383 O   0  0  0  0  0  0  0  0  0  0  0  0
   19.6775  -17.2398  -17.3244 O   0  0  0  0  0  0  0  0  0  0  0  0
  1  2  1  0
  2  3  1  0
  4  3  1  0
  5  4  1  0
  5  6  1  6
  5  1  1  0
  6  7  2  0
  8  9  1  0
  8  6  1  0
  9 12  1  0
  9 10  1  6
 11 10  1  0
 12 13  2  0
 12 14  1  0
 14 15  1  0
 15 16  1  1
 16 17  1  0
 17 18  1  0
 18 22  1  0
 19 18  2  0
 20 21  1  0
 20 15  1  0
 23 20  2  0
M  END
$$$$
