PCE.pdb
     RDKit          3D

 23 23  0  0  1  0  0  0  0  0999 V2000
   24.7198  -33.4093   -9.7407 N   0  0  0  0  0  0  0  0  0  0  0  0
   23.9607  -32.4428   -9.0136 C   0  0  0  0  0  0  0  0  0  0  0  0
   24.9595  -31.6634   -8.1497 C   0  0  0  0  0  0  0  0  0  0  0  0
   26.2294  -31.8757   -8.9640 C   0  0  0  0  0  0  0  0  0  0  0  0
   26.0825  -33.3753   -9.2456 C   0  0  1  0  0  0  0  0  0  0  0  0
   26.1436  -34.1602   -8.0043 C   0  0  0  0  0  0  0  0  0  0  0  0
   25.0945  -34.5685   -7.4413 O   0  0  0  0  0  0  0  0  0  0  0  0
   27.3653  -34.5106   -7.3587 N   0  0  0  0  0  0  0  0  0  0  0  0
   27.4136  -35.5590   -6.3607 C   0  0  1  0  0  0  0  0  0  0  0  0
   28.7804  -36.1955   -6.3875 C   0  0  0  0  0  0  0  0  0  0  0  0
   30.0690  -35.0195   -6.8343 S   0  0  0  0  0  0  0  0  0  0  0  0
   27.2345  -34.9398   -5.0008 C   0  0  0  0  0  0  0  0  0  0  0  0
   27.8585  -33.8959   -4.6900 O   0  0  0  0  0  0  0  0  0  0  0  0
   26.3625  -35.5139   -4.0404 N   0  0  0  0  0  0  0  0  0  0  0  0
   26.1042  -34.8781   -2.7376 C   0  0  1  0  0  0  0  0  0  0  0  0
   24.6251  -34.7219   -2.6378 C   0  0  0  0  0  0  0  0  0  0  0  0
   24.1102  -34.1788   -1.3486 C   0  0  0  0  0  0  0  0  0  0  0  0
   22.6346  -34.1396   -1.4330 C   0  0  0  0  0  0  0  0  0  0  0  0
   21.9451  -34.6770   -0.5443 O   0  0  0  0  0  0  0  0  0  0  0  0
   26.7097  -35.6539   -1.6493 C   0  0  0  0  0  0  0  0  0  0  0  0
   27.2233  -36.9392   -1.8374 O   0  0  0  0  0  0  0  0  0  0  0  0
   22.0147  -33.5118   -2.4894 O   0  0  0  0  0  0  0  0  0  0  0  0
   26.7827  -35.1693   -0.4940 O   0  0  0  0  0  0  0  0  0  0  0  0
  1  2  1  0
  2  3  1  0
  4  3  1  0
  5  4  1  0
  5  6  1  1
  5  1  1  0
  6  7  2  0
  8  9  1  0
  8  6  1  0
  9 12  1  0
  9 10  1  1
 11 10  1  0
 12 13  2  0
 12 14  1  0
 14 15  1  0
 15 16  1  1
 16 17  1  0
 17 18  1  0
 18 22  1  0
 19 18  2  0
 20 21  1  0
 20 15  1  0
 23 20  2  0
M  END
$$$$
