PCE.pdb
     RDKit          3D

 23 23  0  0  1  0  0  0  0  0999 V2000
   19.8545  -11.9930  -18.4888 N   0  0  0  0  0  0  0  0  0  0  0  0
   20.7074  -13.1381  -18.5111 C   0  0  0  0  0  0  0  0  0  0  0  0
   20.6043  -13.7860  -17.1252 C   0  0  0  0  0  0  0  0  0  0  0  0
   19.2318  -13.2785  -16.7017 C   0  0  0  0  0  0  0  0  0  0  0  0
   19.3777  -11.8142  -17.1309 C   0  0  1  0  0  0  0  0  0  0  0  0
   20.4265  -11.1333  -16.3581 C   0  0  0  0  0  0  0  0  0  0  0  0
   20.3148  -10.9686  -15.1153 O   0  0  0  0  0  0  0  0  0  0  0  0
   21.6212  -10.6200  -16.9424 N   0  0  0  0  0  0  0  0  0  0  0  0
   22.6083   -9.9229  -16.1442 C   0  0  1  0  0  0  0  0  0  0  0  0
   23.9806  -10.2261  -16.6911 C   0  0  0  0  0  0  0  0  0  0  0  0
   25.0492  -10.9906  -15.4595 S   0  0  0  0  0  0  0  0  0  0  0  0
   22.3864   -8.4413  -16.2875 C   0  0  0  0  0  0  0  0  0  0  0  0
   22.2753   -7.9218  -17.4248 O   0  0  0  0  0  0  0  0  0  0  0  0
   22.2972   -7.5977  -15.1505 N   0  0  0  0  0  0  0  0  0  0  0  0
   21.9979   -6.1604  -15.2630 C   0  0  1  0  0  0  0  0  0  0  0  0
   20.6198   -6.0659  -15.8235 C   0  0  0  0  0  0  0  0  0  0  0  0
   20.0469   -4.6934  -15.9234 C   0  0  0  0  0  0  0  0  0  0  0  0
   18.7065   -4.8078  -16.5368 C   0  0  0  0  0  0  0  0  0  0  0  0
   18.2593   -5.9276  -16.8527 O   0  0  0  0  0  0  0  0  0  0  0  0
   22.1778   -5.4874  -13.9716 C   0  0  0  0  0  0  0  0  0  0  0  0
   22.2374   -6.1841  -12.7624 O   0  0  0  0  0  0  0  0  0  0  0  0
   17.9464   -3.6827  -16.7620 O   0  0  0  0  0  0  0  0  0  0  0  0
   22.2852   -4.2381  -13.9209 O   0  0  0  0  0  0  0  0  0  0  0  0
  1  2  1  0
  2  3  1  0
  4  3  1  0
  5  4  1  0
  5  6  1  1
  5  1  1  0
  6  7  2  0
  8  9  1  0
  8  6  1  0
  9 12  1  0
  9 10  1  6
 11 10  1  0
 12 13  2  0
 12 14  1  0
 14 15  1  0
 15 16  1  1
 16 17  1  0
 17 18  1  0
 18 22  1  0
 19 18  2  0
 20 21  1  0
 20 15  1  0
 23 20  2  0
M  END
$$$$
