PCE.pdb
     RDKit          3D

 23 23  0  0  1  0  0  0  0  0999 V2000
   17.7023  -12.3837    5.1613 N   0  0  0  0  0  0  0  0  0  0  0  0
   18.4254  -12.0837    6.3555 C   0  0  0  0  0  0  0  0  0  0  0  0
   19.7084  -12.9224    6.3112 C   0  0  0  0  0  0  0  0  0  0  0  0
   19.8396  -13.1184    4.8062 C   0  0  0  0  0  0  0  0  0  0  0  0
   18.3829  -13.4712    4.4851 C   0  0  1  0  0  0  0  0  0  0  0  0
   17.9860  -14.7340    5.1243 C   0  0  0  0  0  0  0  0  0  0  0  0
   17.2877  -14.7410    6.1714 O   0  0  0  0  0  0  0  0  0  0  0  0
   18.3524  -16.0159    4.6198 N   0  0  0  0  0  0  0  0  0  0  0  0
   17.6216  -17.2082    4.9965 C   0  0  1  0  0  0  0  0  0  0  0  0
   17.3850  -18.0452    3.7646 C   0  0  0  0  0  0  0  0  0  0  0  0
   16.3808  -17.1855    2.5416 S   0  0  0  0  0  0  0  0  0  0  0  0
   18.4739  -18.0212    5.9333 C   0  0  0  0  0  0  0  0  0  0  0  0
   19.6960  -18.1870    5.6995 O   0  0  0  0  0  0  0  0  0  0  0  0
   17.9243  -18.6175    7.0972 N   0  0  0  0  0  0  0  0  0  0  0  0
   18.7476  -19.3816    8.0494 C   0  0  1  0  0  0  0  0  0  0  0  0
   18.6693  -18.6503    9.3460 C   0  0  0  0  0  0  0  0  0  0  0  0
   19.5923  -17.4898    9.4992 C   0  0  0  0  0  0  0  0  0  0  0  0
   19.2364  -16.7931   10.7538 C   0  0  0  0  0  0  0  0  0  0  0  0
   18.9266  -15.5859   10.7300 O   0  0  0  0  0  0  0  0  0  0  0  0
   18.3102  -20.7807    8.1117 C   0  0  0  0  0  0  0  0  0  0  0  0
   19.0650  -21.7776    8.7343 O   0  0  0  0  0  0  0  0  0  0  0  0
   19.2445  -17.4704   11.9519 O   0  0  0  0  0  0  0  0  0  0  0  0
   17.2199  -21.1244    7.5942 O   0  0  0  0  0  0  0  0  0  0  0  0
  1  2  1  0
  2  3  1  0
  4  3  1  0
  5  4  1  0
  5  6  1  1
  5  1  1  0
  6  7  2  0
  8  9  1  0
  8  6  1  0
  9 12  1  0
  9 10  1  6
 11 10  1  0
 12 13  2  0
 12 14  1  0
 14 15  1  0
 15 16  1  1
 16 17  1  0
 17 18  1  0
 18 22  1  0
 19 18  2  0
 20 21  1  0
 20 15  1  0
 23 20  2  0
M  END
$$$$
