PCE.pdb
     RDKit          3D

 23 23  0  0  1  0  0  0  0  0999 V2000
   20.9108  -10.7927  -16.1428 N   0  0  0  0  0  0  0  0  0  0  0  0
   19.9176  -11.7340  -15.7349 C   0  0  0  0  0  0  0  0  0  0  0  0
   18.5908  -11.2576  -16.3380 C   0  0  0  0  0  0  0  0  0  0  0  0
   19.1160  -10.4533  -17.5203 C   0  0  0  0  0  0  0  0  0  0  0  0
   20.2405   -9.6924  -16.8087 C   0  0  1  0  0  0  0  0  0  0  0  0
   19.7057   -8.7868  -15.7818 C   0  0  0  0  0  0  0  0  0  0  0  0
   18.8168   -7.9406  -16.0607 O   0  0  0  0  0  0  0  0  0  0  0  0
   20.1418   -8.7974  -14.4247 N   0  0  0  0  0  0  0  0  0  0  0  0
   19.7127   -7.7777  -13.4900 C   0  0  1  0  0  0  0  0  0  0  0  0
   19.7810   -8.3379  -12.0915 C   0  0  0  0  0  0  0  0  0  0  0  0
   18.3969   -9.4316  -11.7293 S   0  0  0  0  0  0  0  0  0  0  0  0
   20.6766   -6.6239  -13.5578 C   0  0  0  0  0  0  0  0  0  0  0  0
   21.9076   -6.8304  -13.6909 O   0  0  0  0  0  0  0  0  0  0  0  0
   20.2244   -5.2820  -13.4739 N   0  0  0  0  0  0  0  0  0  0  0  0
   21.0793   -4.1424  -13.8464 C   0  0  1  0  0  0  0  0  0  0  0  0
   21.5914   -4.4375  -15.2150 C   0  0  0  0  0  0  0  0  0  0  0  0
   22.3916   -3.3582  -15.8607 C   0  0  0  0  0  0  0  0  0  0  0  0
   22.7699   -3.8243  -17.2118 C   0  0  0  0  0  0  0  0  0  0  0  0
   22.1840   -3.3708  -18.2143 O   0  0  0  0  0  0  0  0  0  0  0  0
   20.3434   -2.8784  -13.7307 C   0  0  0  0  0  0  0  0  0  0  0  0
   20.9776   -1.6591  -13.4807 O   0  0  0  0  0  0  0  0  0  0  0  0
   23.7681   -4.7585  -17.3712 O   0  0  0  0  0  0  0  0  0  0  0  0
   19.0949   -2.8614  -13.8567 O   0  0  0  0  0  0  0  0  0  0  0  0
  1  2  1  0
  2  3  1  0
  4  3  1  0
  5  4  1  0
  5  6  1  1
  5  1  1  0
  6  7  2  0
  8  9  1  0
  8  6  1  0
  9 12  1  0
  9 10  1  1
 11 10  1  0
 12 13  2  0
 12 14  1  0
 14 15  1  0
 15 16  1  6
 16 17  1  0
 17 18  1  0
 18 22  1  0
 19 18  2  0
 20 21  1  0
 20 15  1  0
 23 20  2  0
M  END
$$$$
