PCE.pdb
     RDKit          3D

 23 23  0  0  1  0  0  0  0  0999 V2000
   24.5144  -13.1858  -19.4847 N   0  0  0  0  0  0  0  0  0  0  0  0
   23.7786  -14.3158  -19.0151 C   0  0  0  0  0  0  0  0  0  0  0  0
   22.3215  -13.8597  -18.8735 C   0  0  0  0  0  0  0  0  0  0  0  0
   22.3106  -12.7088  -19.8715 C   0  0  0  0  0  0  0  0  0  0  0  0
   23.6295  -12.0369  -19.4730 C   0  0  1  0  0  0  0  0  0  0  0  0
   23.5687  -11.5135  -18.1008 C   0  0  0  0  0  0  0  0  0  0  0  0
   22.6995  -11.9221  -17.2873 O   0  0  0  0  0  0  0  0  0  0  0  0
   24.4674  -10.5276  -17.5983 N   0  0  0  0  0  0  0  0  0  0  0  0
   24.2989   -9.9622  -16.2756 C   0  0  1  0  0  0  0  0  0  0  0  0
   25.6518   -9.8424  -15.6202 C   0  0  0  0  0  0  0  0  0  0  0  0
   26.8292   -8.9503  -16.6504 S   0  0  0  0  0  0  0  0  0  0  0  0
   23.7428   -8.5706  -16.4125 C   0  0  0  0  0  0  0  0  0  0  0  0
   23.9998   -7.8800  -17.4288 O   0  0  0  0  0  0  0  0  0  0  0  0
   22.9193   -8.0052  -15.4052 N   0  0  0  0  0  0  0  0  0  0  0  0
   22.3624   -6.6469  -15.5195 C   0  0  1  0  0  0  0  0  0  0  0  0
   20.9598   -6.8120  -15.9968 C   0  0  0  0  0  0  0  0  0  0  0  0
   20.1614   -5.5599  -16.1263 C   0  0  0  0  0  0  0  0  0  0  0  0
   18.8216   -5.9296  -16.6308 C   0  0  0  0  0  0  0  0  0  0  0  0
   18.5253   -5.7206  -17.8234 O   0  0  0  0  0  0  0  0  0  0  0  0
   22.4928   -5.9212  -14.2510 C   0  0  0  0  0  0  0  0  0  0  0  0
   22.5787   -4.5285  -14.1867 O   0  0  0  0  0  0  0  0  0  0  0  0
   17.8962   -6.5051  -15.7901 O   0  0  0  0  0  0  0  0  0  0  0  0
   22.5313   -6.5500  -13.1656 O   0  0  0  0  0  0  0  0  0  0  0  0
  1  2  1  0
  2  3  1  0
  4  3  1  0
  5  4  1  0
  5  6  1  1
  5  1  1  0
  6  7  2  0
  8  9  1  0
  8  6  1  0
  9 12  1  0
  9 10  1  6
 11 10  1  0
 12 13  2  0
 12 14  1  0
 14 15  1  0
 15 16  1  1
 16 17  1  0
 17 18  1  0
 18 22  1  0
 19 18  2  0
 20 21  1  0
 20 15  1  0
 23 20  2  0
M  END
$$$$
