EMT.pdb
     RDKit          3D

 25 24  0  0  1  0  0  0  0  0999 V2000
   20.3455  -11.4683  -18.5960 N   0  0  0  0  0  0  0  0  0  0  0  0
   19.6060  -11.3020  -17.3480 C   0  0  1  0  0  0  0  0  0  0  0  0
   19.0618  -12.6122  -16.8805 C   0  0  0  0  0  0  0  0  0  0  0  0
   19.4352  -13.7907  -17.7154 C   0  0  0  0  0  0  0  0  0  0  0  0
   18.5814  -14.0234  -18.8857 C   0  0  0  0  0  0  0  0  0  0  0  0
   17.4058  -13.6173  -19.0340 O   0  0  0  0  0  0  0  0  0  0  0  0
   20.5091  -10.7186  -16.3214 C   0  0  0  0  0  0  0  0  0  0  0  0
   20.2007  -10.5277  -15.1217 O   0  0  0  0  0  0  0  0  0  0  0  0
   19.1276  -14.7646  -19.9300 O   0  0  0  0  0  0  0  0  0  0  0  0
   27.1770  -10.2282  -16.8173 C   0  0  0  0  0  0  0  0  0  0  0  0
   26.7483  -10.1376  -15.0641 S   0  0  0  0  0  0  0  0  0  0  0  0
   25.0545   -9.5561  -14.8296 C   0  0  0  0  0  0  0  0  0  0  0  0
   24.1403  -10.2128  -15.8117 C   0  0  0  0  0  0  0  0  0  0  0  0
   22.7279   -9.6701  -15.7420 C   0  0  2  0  0  0  0  0  0  0  0  0
   21.8518  -10.3251  -16.6778 N   0  0  0  0  0  0  0  0  0  0  0  0
   22.6941   -8.2017  -15.9582 C   0  0  0  0  0  0  0  0  0  0  0  0
   23.2619   -7.7080  -16.9776 O   0  0  0  0  0  0  0  0  0  0  0  0
   20.6277   -5.9591  -17.3989 C   0  0  0  0  0  0  0  0  0  0  0  0
   20.7771   -5.4132  -16.0056 C   0  0  1  0  0  0  0  0  0  0  0  0
   19.6320   -5.5873  -15.2313 O   0  0  0  0  0  0  0  0  0  0  0  0
   22.0164   -5.8783  -15.3046 C   0  0  2  0  0  0  0  0  0  0  0  0
   22.0570   -7.2971  -15.0834 N   0  0  0  0  0  0  0  0  0  0  0  0
   22.2360   -5.0941  -14.0766 C   0  0  0  0  0  0  0  0  0  0  0  0
   22.4807   -3.8710  -14.1142 O   0  0  0  0  0  0  0  0  0  0  0  0
   22.1686   -5.7328  -12.8528 O   0  0  0  0  0  0  0  0  0  0  0  0
  2  1  1  6
  2  7  1  0
  3  2  1  0
  3  4  1  0
  5  4  1  0
  6  5  2  0
  7  8  2  0
  9  5  1  0
 10 11  1  0
 11 12  1  0
 13 12  1  0
 14 13  1  6
 14 16  1  0
 15  7  1  0
 15 14  1  0
 16 17  2  0
 19 18  1  6
 19 21  1  0
 20 19  1  0
 21 23  1  0
 22 16  1  0
 21 22  1  1
 23 24  2  0
 23 25  1  0
M  END
$$$$
