EMT.pdb
     RDKit          3D

 25 24  0  0  1  0  0  0  0  0999 V2000
   27.7576  -22.2919  -16.7475 N   0  0  0  0  0  0  0  0  0  0  0  0
   27.5084  -21.0421  -16.0348 C   0  0  1  0  0  0  0  0  0  0  0  0
   27.1061  -19.9644  -16.9877 C   0  0  0  0  0  0  0  0  0  0  0  0
   26.1876  -20.3931  -18.0822 C   0  0  0  0  0  0  0  0  0  0  0  0
   25.0534  -19.4968  -18.3332 C   0  0  0  0  0  0  0  0  0  0  0  0
   23.8427  -19.7771  -18.1772 O   0  0  0  0  0  0  0  0  0  0  0  0
   26.4434  -21.2638  -15.0216 C   0  0  0  0  0  0  0  0  0  0  0  0
   25.4064  -21.9424  -15.2095 O   0  0  0  0  0  0  0  0  0  0  0  0
   25.3491  -18.2143  -18.7874 O   0  0  0  0  0  0  0  0  0  0  0  0
   24.9002  -21.4482   -7.3390 C   0  0  0  0  0  0  0  0  0  0  0  0
   25.9957  -20.9060   -8.6700 S   0  0  0  0  0  0  0  0  0  0  0  0
   25.0986  -20.7189  -10.2263 C   0  0  0  0  0  0  0  0  0  0  0  0
   26.0438  -20.3783  -11.3318 C   0  0  0  0  0  0  0  0  0  0  0  0
   25.6012  -20.9402  -12.6670 C   0  0  2  0  0  0  0  0  0  0  0  0
   26.5610  -20.6778  -13.7073 N   0  0  0  0  0  0  0  0  0  0  0  0
   24.2681  -20.4217  -13.0646 C   0  0  0  0  0  0  0  0  0  0  0  0
   24.1416  -19.2002  -13.3771 O   0  0  0  0  0  0  0  0  0  0  0  0
   21.1646  -22.7885  -14.6994 C   0  0  0  0  0  0  0  0  0  0  0  0
   21.2331  -21.2863  -14.7100 C   0  0  1  0  0  0  0  0  0  0  0  0
   20.0247  -20.6928  -15.0688 O   0  0  0  0  0  0  0  0  0  0  0  0
   21.8078  -20.6992  -13.4576 C   0  0  2  0  0  0  0  0  0  0  0  0
   23.1044  -21.2168  -13.1190 N   0  0  0  0  0  0  0  0  0  0  0  0
   20.8379  -20.7983  -12.3527 C   0  0  0  0  0  0  0  0  0  0  0  0
   21.1348  -21.3332  -11.2651 O   0  0  0  0  0  0  0  0  0  0  0  0
   19.5670  -20.2845  -12.5289 O   0  0  0  0  0  0  0  0  0  0  0  0
  2  1  1  6
  2  7  1  0
  3  2  1  0
  3  4  1  0
  5  4  1  0
  6  5  2  0
  7  8  2  0
  9  5  1  0
 10 11  1  0
 11 12  1  0
 13 12  1  0
 14 13  1  1
 14 16  1  0
 15  7  1  0
 15 14  1  0
 16 17  2  0
 19 18  1  1
 19 21  1  0
 20 19  1  0
 21 23  1  0
 22 16  1  0
 21 22  1  1
 23 24  2  0
 23 25  1  0
M  END
$$$$
