EMT.pdb
     RDKit          3D

 25 24  0  0  1  0  0  0  0  0999 V2000
   21.0723  -22.7856  -13.5977 N   0  0  0  0  0  0  0  0  0  0  0  0
   21.0737  -21.3812  -13.9976 C   0  0  1  0  0  0  0  0  0  0  0  0
   19.8415  -20.6936  -13.5076 C   0  0  0  0  0  0  0  0  0  0  0  0
   18.5672  -21.4368  -13.7292 C   0  0  0  0  0  0  0  0  0  0  0  0
   17.8154  -21.7651  -12.5128 C   0  0  0  0  0  0  0  0  0  0  0  0
   17.4562  -22.9100  -12.1536 O   0  0  0  0  0  0  0  0  0  0  0  0
   22.2888  -20.7212  -13.4517 C   0  0  0  0  0  0  0  0  0  0  0  0
   22.5707  -19.5085  -13.5955 O   0  0  0  0  0  0  0  0  0  0  0  0
   17.4681  -20.7059  -11.6786 O   0  0  0  0  0  0  0  0  0  0  0  0
   27.5549  -20.1259   -7.7607 C   0  0  0  0  0  0  0  0  0  0  0  0
   26.1949  -21.0603   -8.4975 S   0  0  0  0  0  0  0  0  0  0  0  0
   26.0259  -20.6988  -10.2590 C   0  0  0  0  0  0  0  0  0  0  0  0
   24.8193  -21.3819  -10.8149 C   0  0  0  0  0  0  0  0  0  0  0  0
   24.4766  -20.9079  -12.2121 C   0  0  2  0  0  0  0  0  0  0  0  0
   23.2489  -21.4864  -12.6919 N   0  0  0  0  0  0  0  0  0  0  0  0
   25.5765  -21.1859  -13.1699 C   0  0  0  0  0  0  0  0  0  0  0  0
   26.0590  -22.3552  -13.2433 O   0  0  0  0  0  0  0  0  0  0  0  0
   25.6932  -21.1345  -16.9897 C   0  0  0  0  0  0  0  0  0  0  0  0
   26.6964  -20.1723  -16.4159 C   0  0  1  0  0  0  0  0  0  0  0  0
   26.3040  -18.8417  -16.5451 O   0  0  0  0  0  0  0  0  0  0  0  0
   27.1255  -20.5080  -15.0207 C   0  0  2  0  0  0  0  0  0  0  0  0
   26.1340  -20.2119  -14.0243 N   0  0  0  0  0  0  0  0  0  0  0  0
   28.4381  -19.9054  -14.7288 C   0  0  0  0  0  0  0  0  0  0  0  0
   28.5826  -19.0509  -13.8310 O   0  0  0  0  0  0  0  0  0  0  0  0
   29.5358  -20.2992  -15.4705 O   0  0  0  0  0  0  0  0  0  0  0  0
  2  1  1  1
  2  7  1  0
  3  2  1  0
  3  4  1  0
  5  4  1  0
  6  5  2  0
  7  8  2  0
  9  5  1  0
 10 11  1  0
 11 12  1  0
 13 12  1  0
 14 13  1  1
 14 16  1  0
 15  7  1  0
 15 14  1  0
 16 17  2  0
 19 18  1  1
 19 21  1  0
 20 19  1  0
 21 23  1  0
 22 16  1  0
 21 22  1  1
 23 24  2  0
 23 25  1  0
M  END
$$$$
