EMT.pdb
     RDKit          3D

 25 24  0  0  1  0  0  0  0  0999 V2000
   20.1498   -9.9428  -18.6376 N   0  0  0  0  0  0  0  0  0  0  0  0
   18.9572   -9.7524  -17.8169 C   0  0  1  0  0  0  0  0  0  0  0  0
   18.2980  -11.0629  -17.5351 C   0  0  0  0  0  0  0  0  0  0  0  0
   17.8016  -11.7967  -18.7354 C   0  0  0  0  0  0  0  0  0  0  0  0
   18.8357  -12.4730  -19.5264 C   0  0  0  0  0  0  0  0  0  0  0  0
   18.8860  -12.5350  -20.7764 O   0  0  0  0  0  0  0  0  0  0  0  0
   19.3423   -9.0811  -16.5476 C   0  0  0  0  0  0  0  0  0  0  0  0
   18.5594   -8.8401  -15.5989 O   0  0  0  0  0  0  0  0  0  0  0  0
   19.8574  -13.1056  -18.8233 O   0  0  0  0  0  0  0  0  0  0  0  0
   23.2384  -12.9348  -13.6123 C   0  0  0  0  0  0  0  0  0  0  0  0
   23.5322  -11.1596  -13.7807 S   0  0  0  0  0  0  0  0  0  0  0  0
   22.0392  -10.2925  -14.3108 C   0  0  0  0  0  0  0  0  0  0  0  0
   22.3270   -8.8405  -14.5123 C   0  0  0  0  0  0  0  0  0  0  0  0
   21.1450   -8.0897  -15.0898 C   0  0  2  0  0  0  0  0  0  0  0  0
   20.7057   -8.6542  -16.3390 N   0  0  0  0  0  0  0  0  0  0  0  0
   21.4451   -6.6460  -15.2634 C   0  0  0  0  0  0  0  0  0  0  0  0
   22.1042   -6.2633  -16.2757 O   0  0  0  0  0  0  0  0  0  0  0  0
   19.0786   -3.6511  -15.6620 C   0  0  0  0  0  0  0  0  0  0  0  0
   20.0147   -3.4181  -14.5083 C   0  0  1  0  0  0  0  0  0  0  0  0
   19.3792   -3.5021  -13.2714 O   0  0  0  0  0  0  0  0  0  0  0  0
   21.2623   -4.2449  -14.5665 C   0  0  2  0  0  0  0  0  0  0  0  0
   21.0360   -5.6477  -14.3550 N   0  0  0  0  0  0  0  0  0  0  0  0
   22.2919   -3.6833  -13.6746 C   0  0  0  0  0  0  0  0  0  0  0  0
   22.7260   -4.3182  -12.6919 O   0  0  0  0  0  0  0  0  0  0  0  0
   22.7877   -2.4199  -13.9358 O   0  0  0  0  0  0  0  0  0  0  0  0
  2  1  1  6
  2  7  1  0
  3  2  1  0
  3  4  1  0
  5  4  1  0
  6  5  2  0
  7  8  2  0
  9  5  1  0
 10 11  1  0
 11 12  1  0
 13 12  1  0
 14 13  1  6
 14 16  1  0
 15  7  1  0
 15 14  1  0
 16 17  2  0
 19 18  1  6
 19 21  1  0
 20 19  1  0
 21 23  1  0
 22 16  1  0
 21 22  1  1
 23 24  2  0
 23 25  1  0
M  END
$$$$
