EMT.pdb
     RDKit          3D

 25 24  0  0  1  0  0  0  0  0999 V2000
   19.9186  -19.4142  -13.8660 N   0  0  0  0  0  0  0  0  0  0  0  0
   20.6909  -20.6443  -13.7162 C   0  0  1  0  0  0  0  0  0  0  0  0
   20.6391  -21.4539  -14.9705 C   0  0  0  0  0  0  0  0  0  0  0  0
   21.2707  -20.8197  -16.1639 C   0  0  0  0  0  0  0  0  0  0  0  0
   21.3005  -21.6520  -17.3717 C   0  0  0  0  0  0  0  0  0  0  0  0
   20.3302  -21.8925  -18.1263 O   0  0  0  0  0  0  0  0  0  0  0  0
   22.0968  -20.2981  -13.3791 C   0  0  0  0  0  0  0  0  0  0  0  0
   22.6243  -19.1776  -13.5719 O   0  0  0  0  0  0  0  0  0  0  0  0
   22.5209  -22.2290  -17.7124 O   0  0  0  0  0  0  0  0  0  0  0  0
   27.0098  -19.6503   -8.3436 C   0  0  0  0  0  0  0  0  0  0  0  0
   25.5470  -20.3731   -9.1206 S   0  0  0  0  0  0  0  0  0  0  0  0
   25.9920  -21.3820  -10.5511 C   0  0  0  0  0  0  0  0  0  0  0  0
   24.7620  -21.8865  -11.2324 C   0  0  0  0  0  0  0  0  0  0  0  0
   24.2957  -20.9678  -12.3427 C   0  0  2  0  0  0  0  0  0  0  0  0
   22.9631  -21.2876  -12.7834 N   0  0  0  0  0  0  0  0  0  0  0  0
   25.2295  -20.9858  -13.4968 C   0  0  0  0  0  0  0  0  0  0  0  0
   25.2993  -22.0193  -14.2266 O   0  0  0  0  0  0  0  0  0  0  0  0
   28.3309  -18.0236  -14.0767 C   0  0  0  0  0  0  0  0  0  0  0  0
   27.5895  -18.5918  -15.2552 C   0  0  1  0  0  0  0  0  0  0  0  0
   28.3550  -18.6064  -16.4192 O   0  0  0  0  0  0  0  0  0  0  0  0
   26.9425  -19.9145  -14.9809 C   0  0  2  0  0  0  0  0  0  0  0  0
   26.0645  -19.9035  -13.8439 N   0  0  0  0  0  0  0  0  0  0  0  0
   27.9590  -20.9794  -14.9174 C   0  0  0  0  0  0  0  0  0  0  0  0
   28.2940  -21.5030  -13.8354 O   0  0  0  0  0  0  0  0  0  0  0  0
   28.5550  -21.4071  -16.0887 O   0  0  0  0  0  0  0  0  0  0  0  0
  2  1  1  6
  2  7  1  0
  3  2  1  0
  3  4  1  0
  5  4  1  0
  6  5  2  0
  7  8  2  0
  9  5  1  0
 10 11  1  0
 11 12  1  0
 13 12  1  0
 14 13  1  1
 14 16  1  0
 15  7  1  0
 15 14  1  0
 16 17  2  0
 19 18  1  1
 19 21  1  0
 20 19  1  0
 21 23  1  0
 22 16  1  0
 21 22  1  1
 23 24  2  0
 23 25  1  0
M  END
$$$$
