EMT.pdb
     RDKit          3D

 25 24  0  0  1  0  0  0  0  0999 V2000
   19.4968  -10.7307  -19.2591 N   0  0  0  0  0  0  0  0  0  0  0  0
   18.4036  -10.0597  -18.5613 C   0  0  1  0  0  0  0  0  0  0  0  0
   17.3129  -11.0280  -18.2385 C   0  0  0  0  0  0  0  0  0  0  0  0
   17.0898  -12.0972  -19.2546 C   0  0  0  0  0  0  0  0  0  0  0  0
   17.2780  -13.4691  -18.7699 C   0  0  0  0  0  0  0  0  0  0  0  0
   18.1293  -14.2885  -19.1855 O   0  0  0  0  0  0  0  0  0  0  0  0
   18.9297   -9.4365  -17.3184 C   0  0  0  0  0  0  0  0  0  0  0  0
   18.2256   -8.8840  -16.4410 O   0  0  0  0  0  0  0  0  0  0  0  0
   16.4319  -13.9023  -17.7525 O   0  0  0  0  0  0  0  0  0  0  0  0
   22.6606   -9.1111  -11.1830 C   0  0  0  0  0  0  0  0  0  0  0  0
   21.9502   -9.8224  -12.6848 S   0  0  0  0  0  0  0  0  0  0  0  0
   22.7680   -9.1873  -14.1647 C   0  0  0  0  0  0  0  0  0  0  0  0
   22.1245   -9.7449  -15.3922 C   0  0  0  0  0  0  0  0  0  0  0  0
   20.8905   -8.9689  -15.8037 C   0  0  2  0  0  0  0  0  0  0  0  0
   20.3486   -9.4397  -17.0514 N   0  0  0  0  0  0  0  0  0  0  0  0
   21.1623   -7.5117  -15.8865 C   0  0  0  0  0  0  0  0  0  0  0  0
   21.9527   -7.0741  -16.7750 O   0  0  0  0  0  0  0  0  0  0  0  0
   20.0997   -2.7935  -14.8734 C   0  0  0  0  0  0  0  0  0  0  0  0
   19.7419   -4.2538  -14.9027 C   0  0  1  0  0  0  0  0  0  0  0  0
   18.7351   -4.5451  -15.8207 O   0  0  0  0  0  0  0  0  0  0  0  0
   20.9241   -5.1625  -15.0446 C   0  0  2  0  0  0  0  0  0  0  0  0
   20.5859   -6.5585  -15.0214 N   0  0  0  0  0  0  0  0  0  0  0  0
   21.9674   -4.8029  -14.0682 C   0  0  0  0  0  0  0  0  0  0  0  0
   22.8078   -3.9112  -14.3044 O   0  0  0  0  0  0  0  0  0  0  0  0
   22.0137   -5.4727  -12.8601 O   0  0  0  0  0  0  0  0  0  0  0  0
  2  1  1  1
  2  7  1  0
  3  2  1  0
  3  4  1  0
  5  4  1  0
  6  5  2  0
  7  8  2  0
  9  5  1  0
 10 11  1  0
 11 12  1  0
 13 12  1  0
 14 13  1  6
 14 16  1  0
 15  7  1  0
 15 14  1  0
 16 17  2  0
 19 18  1  6
 19 21  1  0
 20 19  1  0
 21 23  1  0
 22 16  1  0
 21 22  1  1
 23 24  2  0
 23 25  1  0
M  END
$$$$
