EMT.pdb
     RDKit          3D

 25 24  0  0  1  0  0  0  0  0999 V2000
   19.0724   -9.8015  -14.9780 N   0  0  0  0  0  0  0  0  0  0  0  0
   17.7561   -9.3761  -15.4453 C   0  0  1  0  0  0  0  0  0  0  0  0
   17.1087  -10.4563  -16.2487 C   0  0  0  0  0  0  0  0  0  0  0  0
   17.9803  -11.0924  -17.2789 C   0  0  0  0  0  0  0  0  0  0  0  0
   17.3899  -12.2419  -17.9736 C   0  0  0  0  0  0  0  0  0  0  0  0
   17.8239  -12.7737  -19.0213 O   0  0  0  0  0  0  0  0  0  0  0  0
   16.9133   -9.0253  -14.2720 C   0  0  0  0  0  0  0  0  0  0  0  0
   15.7145   -8.6646  -14.3337 O   0  0  0  0  0  0  0  0  0  0  0  0
   16.2394  -12.7946  -17.4174 O   0  0  0  0  0  0  0  0  0  0  0  0
   15.5190  -14.1487  -10.5751 C   0  0  0  0  0  0  0  0  0  0  0  0
   16.3984  -12.6495  -10.0802 S   0  0  0  0  0  0  0  0  0  0  0  0
   16.1318  -11.3094  -11.2614 C   0  0  0  0  0  0  0  0  0  0  0  0
   16.8061  -10.0621  -10.7911 C   0  0  0  0  0  0  0  0  0  0  0  0
   16.6485   -8.9144  -11.7669 C   0  0  2  0  0  0  0  0  0  0  0  0
   17.4655   -9.0874  -12.9394 N   0  0  0  0  0  0  0  0  0  0  0  0
   16.9478   -7.6078  -11.1285 C   0  0  0  0  0  0  0  0  0  0  0  0
   18.1194   -7.1309  -11.2032 O   0  0  0  0  0  0  0  0  0  0  0  0
   15.4273   -4.1212  -11.7317 C   0  0  0  0  0  0  0  0  0  0  0  0
   15.3224   -4.4840  -10.2760 C   0  0  1  0  0  0  0  0  0  0  0  0
   14.0136   -4.7479   -9.8778 O   0  0  0  0  0  0  0  0  0  0  0  0
   16.2760   -5.5581   -9.8512 C   0  0  2  0  0  0  0  0  0  0  0  0
   15.9924   -6.8432  -10.4272 N   0  0  0  0  0  0  0  0  0  0  0  0
   16.3873   -5.5935   -8.3823 C   0  0  0  0  0  0  0  0  0  0  0  0
   16.7923   -4.6091   -7.7311 O   0  0  0  0  0  0  0  0  0  0  0  0
   16.0332   -6.7488   -7.7113 O   0  0  0  0  0  0  0  0  0  0  0  0
  2  1  1  1
  2  7  1  0
  3  2  1  0
  3  4  1  0
  5  4  1  0
  6  5  2  0
  7  8  2  0
  9  5  1  0
 10 11  1  0
 11 12  1  0
 13 12  1  0
 14 13  1  1
 14 16  1  0
 15  7  1  0
 15 14  1  0
 16 17  2  0
 19 18  1  6
 19 21  1  0
 20 19  1  0
 21 23  1  0
 22 16  1  0
 21 22  1  1
 23 24  2  0
 23 25  1  0
M  END
$$$$
