EMT.pdb
     RDKit          3D

 25 24  0  0  1  0  0  0  0  0999 V2000
   17.1438  -11.2156  -16.8386 N   0  0  0  0  0  0  0  0  0  0  0  0
   18.1352  -10.2298  -17.2597 C   0  0  1  0  0  0  0  0  0  0  0  0
   17.4932   -9.1506  -18.0687 C   0  0  0  0  0  0  0  0  0  0  0  0
   17.2677   -9.4812  -19.5058 C   0  0  0  0  0  0  0  0  0  0  0  0
   18.4665   -9.8830  -20.2502 C   0  0  0  0  0  0  0  0  0  0  0  0
   18.9410  -11.0402  -20.3160 O   0  0  0  0  0  0  0  0  0  0  0  0
   18.7921   -9.6557  -16.0559 C   0  0  0  0  0  0  0  0  0  0  0  0
   18.2160   -9.4262  -14.9667 O   0  0  0  0  0  0  0  0  0  0  0  0
   19.1408   -8.8856  -20.9494 O   0  0  0  0  0  0  0  0  0  0  0  0
   22.7028   -9.0855  -10.4214 C   0  0  0  0  0  0  0  0  0  0  0  0
   21.8552   -9.5722  -11.9415 S   0  0  0  0  0  0  0  0  0  0  0  0
   22.8458   -9.1838  -13.4010 C   0  0  0  0  0  0  0  0  0  0  0  0
   22.1448   -9.6386  -14.6393 C   0  0  0  0  0  0  0  0  0  0  0  0
   20.8911   -8.8374  -14.9235 C   0  0  2  0  0  0  0  0  0  0  0  0
   20.1957   -9.3192  -16.0882 N   0  0  0  0  0  0  0  0  0  0  0  0
   21.1880   -7.3904  -15.0725 C   0  0  0  0  0  0  0  0  0  0  0  0
   21.8417   -6.9884  -16.0807 O   0  0  0  0  0  0  0  0  0  0  0  0
   18.9090   -4.2730  -15.3679 C   0  0  0  0  0  0  0  0  0  0  0  0
   19.8488   -4.1366  -14.2019 C   0  0  1  0  0  0  0  0  0  0  0  0
   19.2053   -4.2576  -12.9721 O   0  0  0  0  0  0  0  0  0  0  0  0
   21.0625   -5.0090  -14.2994 C   0  0  2  0  0  0  0  0  0  0  0  0
   20.7814   -6.4093  -14.1444 N   0  0  0  0  0  0  0  0  0  0  0  0
   22.1161   -4.5256  -13.3898 C   0  0  0  0  0  0  0  0  0  0  0  0
   22.5887   -3.3747  -13.4861 O   0  0  0  0  0  0  0  0  0  0  0  0
   22.5911   -5.3714  -12.4054 O   0  0  0  0  0  0  0  0  0  0  0  0
  2  1  1  1
  2  7  1  0
  3  2  1  0
  3  4  1  0
  5  4  1  0
  6  5  2  0
  7  8  2  0
  9  5  1  0
 10 11  1  0
 11 12  1  0
 13 12  1  0
 14 13  1  6
 14 16  1  0
 15  7  1  0
 15 14  1  0
 16 17  2  0
 19 18  1  6
 19 21  1  0
 20 19  1  0
 21 23  1  0
 22 16  1  0
 21 22  1  1
 23 24  2  0
 23 25  1  0
M  END
$$$$
