EMT.pdb
     RDKit          3D

 25 24  0  0  1  0  0  0  0  0999 V2000
   28.6938  -21.6142  -15.8388 N   0  0  0  0  0  0  0  0  0  0  0  0
   27.7103  -20.5363  -15.7843 C   0  0  1  0  0  0  0  0  0  0  0  0
   27.1891  -20.2302  -17.1503 C   0  0  0  0  0  0  0  0  0  0  0  0
   28.1981  -19.6989  -18.1121 C   0  0  0  0  0  0  0  0  0  0  0  0
   28.7686  -20.6905  -19.0307 C   0  0  0  0  0  0  0  0  0  0  0  0
   28.1327  -21.5732  -19.6515 O   0  0  0  0  0  0  0  0  0  0  0  0
   26.5988  -20.9370  -14.8819 C   0  0  0  0  0  0  0  0  0  0  0  0
   25.5301  -21.4738  -15.2570 O   0  0  0  0  0  0  0  0  0  0  0  0
   30.1455  -20.6474  -19.2325 O   0  0  0  0  0  0  0  0  0  0  0  0
   26.3247  -19.4702   -8.2360 C   0  0  0  0  0  0  0  0  0  0  0  0
   25.5983  -21.1129   -8.4357 S   0  0  0  0  0  0  0  0  0  0  0  0
   25.0463  -21.3868  -10.1334 C   0  0  0  0  0  0  0  0  0  0  0  0
   26.0800  -20.9055  -11.0986 C   0  0  0  0  0  0  0  0  0  0  0  0
   25.6918  -21.1621  -12.5400 C   0  0  2  0  0  0  0  0  0  0  0  0
   26.7053  -20.7150  -13.4593 N   0  0  0  0  0  0  0  0  0  0  0  0
   24.3893  -20.5338  -12.8765 C   0  0  0  0  0  0  0  0  0  0  0  0
   24.2991  -19.2708  -12.9213 O   0  0  0  0  0  0  0  0  0  0  0  0
   21.3356  -22.3964  -15.1645 C   0  0  0  0  0  0  0  0  0  0  0  0
   21.4707  -20.9315  -14.8521 C   0  0  1  0  0  0  0  0  0  0  0  0
   20.3270  -20.2031  -15.1722 O   0  0  0  0  0  0  0  0  0  0  0  0
   21.9548  -20.6527  -13.4623 C   0  0  2  0  0  0  0  0  0  0  0  0
   23.2170  -21.2665  -13.1562 N   0  0  0  0  0  0  0  0  0  0  0  0
   20.9033  -20.9693  -12.4798 C   0  0  0  0  0  0  0  0  0  0  0  0
   21.0729  -21.8290  -11.5914 O   0  0  0  0  0  0  0  0  0  0  0  0
   19.6989  -20.2947  -12.5468 O   0  0  0  0  0  0  0  0  0  0  0  0
  2  1  1  6
  2  7  1  0
  3  2  1  0
  3  4  1  0
  5  4  1  0
  6  5  2  0
  7  8  2  0
  9  5  1  0
 10 11  1  0
 11 12  1  0
 13 12  1  0
 14 13  1  1
 14 16  1  0
 15  7  1  0
 15 14  1  0
 16 17  2  0
 19 18  1  1
 19 21  1  0
 20 19  1  0
 21 23  1  0
 22 16  1  0
 21 22  1  1
 23 24  2  0
 23 25  1  0
M  END
$$$$
