EMT.pdb
     RDKit          3D

 25 24  0  0  1  0  0  0  0  0999 V2000
   28.0080  -21.4274  -15.2216 N   0  0  0  0  0  0  0  0  0  0  0  0
   27.7795  -20.4823  -14.1323 C   0  0  1  0  0  0  0  0  0  0  0  0
   27.5876  -19.1005  -14.6663 C   0  0  0  0  0  0  0  0  0  0  0  0
   28.4846  -18.7253  -15.7978 C   0  0  0  0  0  0  0  0  0  0  0  0
   27.9416  -18.9802  -17.1368 C   0  0  0  0  0  0  0  0  0  0  0  0
   26.7643  -18.7688  -17.5082 O   0  0  0  0  0  0  0  0  0  0  0  0
   26.5844  -20.9109  -13.3589 C   0  0  0  0  0  0  0  0  0  0  0  0
   25.6673  -21.6402  -13.8039 O   0  0  0  0  0  0  0  0  0  0  0  0
   28.8157  -19.5061  -18.0843 O   0  0  0  0  0  0  0  0  0  0  0  0
   26.6025  -19.3856   -6.8161 C   0  0  0  0  0  0  0  0  0  0  0  0
   27.6102  -20.2602   -8.0349 S   0  0  0  0  0  0  0  0  0  0  0  0
   26.6016  -21.3504   -9.0627 C   0  0  0  0  0  0  0  0  0  0  0  0
   25.5047  -20.5766   -9.7181 C   0  0  0  0  0  0  0  0  0  0  0  0
   25.3238  -20.9477  -11.1755 C   0  0  2  0  0  0  0  0  0  0  0  0
   26.4171  -20.4850  -11.9896 N   0  0  0  0  0  0  0  0  0  0  0  0
   24.0383  -20.4373  -11.7151 C   0  0  0  0  0  0  0  0  0  0  0  0
   23.7855  -19.1971  -11.6560 O   0  0  0  0  0  0  0  0  0  0  0  0
   21.9173  -22.5945  -14.6613 C   0  0  0  0  0  0  0  0  0  0  0  0
   21.7866  -21.1188  -14.4028 C   0  0  1  0  0  0  0  0  0  0  0  0
   20.6712  -20.5586  -15.0219 O   0  0  0  0  0  0  0  0  0  0  0  0
   21.8816  -20.7488  -12.9545 C   0  0  2  0  0  0  0  0  0  0  0  0
   23.0555  -21.2603  -12.3034 N   0  0  0  0  0  0  0  0  0  0  0  0
   20.6329  -21.0955  -12.2535 C   0  0  0  0  0  0  0  0  0  0  0  0
   20.6285  -21.8330  -11.2469 O   0  0  0  0  0  0  0  0  0  0  0  0
   19.4367  -20.5891  -12.7258 O   0  0  0  0  0  0  0  0  0  0  0  0
  2  1  1  6
  2  7  1  0
  3  2  1  0
  3  4  1  0
  5  4  1  0
  6  5  2  0
  7  8  2  0
  9  5  1  0
 10 11  1  0
 11 12  1  0
 13 12  1  0
 14 13  1  1
 14 16  1  0
 15  7  1  0
 15 14  1  0
 16 17  2  0
 19 18  1  1
 19 21  1  0
 20 19  1  0
 21 23  1  0
 22 16  1  0
 21 22  1  1
 23 24  2  0
 23 25  1  0
M  END
$$$$
