EMT.pdb
     RDKit          3D

 25 24  0  0  1  0  0  0  0  0999 V2000
   20.3597  -20.3645  -11.8819 N   0  0  0  0  0  0  0  0  0  0  0  0
   21.2755  -21.1007  -12.7488 C   0  0  1  0  0  0  0  0  0  0  0  0
   20.8503  -20.9917  -14.1766 C   0  0  0  0  0  0  0  0  0  0  0  0
   19.4064  -21.2652  -14.4333 C   0  0  0  0  0  0  0  0  0  0  0  0
   18.9841  -22.6527  -14.2117 C   0  0  0  0  0  0  0  0  0  0  0  0
   17.8025  -23.0624  -14.1429 O   0  0  0  0  0  0  0  0  0  0  0  0
   22.6500  -20.5621  -12.5735 C   0  0  0  0  0  0  0  0  0  0  0  0
   23.0169  -19.4121  -12.9109 O   0  0  0  0  0  0  0  0  0  0  0  0
   19.9898  -23.6041  -14.0638 O   0  0  0  0  0  0  0  0  0  0  0  0
   26.6059  -20.1005   -7.3555 C   0  0  0  0  0  0  0  0  0  0  0  0
   27.4684  -21.1758   -8.5241 S   0  0  0  0  0  0  0  0  0  0  0  0
   26.9754  -20.8277  -10.2264 C   0  0  0  0  0  0  0  0  0  0  0  0
   25.6440  -21.4403  -10.5160 C   0  0  0  0  0  0  0  0  0  0  0  0
   25.0217  -20.9011  -11.7874 C   0  0  2  0  0  0  0  0  0  0  0  0
   23.6777  -21.3812  -11.9757 N   0  0  0  0  0  0  0  0  0  0  0  0
   25.8464  -21.2218  -12.9795 C   0  0  0  0  0  0  0  0  0  0  0  0
   26.0282  -22.4329  -13.3048 O   0  0  0  0  0  0  0  0  0  0  0  0
   26.1030  -18.6434  -16.4009 C   0  0  0  0  0  0  0  0  0  0  0  0
   27.3431  -19.3261  -15.8933 C   0  0  1  0  0  0  0  0  0  0  0  0
   28.2281  -18.4471  -15.2726 O   0  0  0  0  0  0  0  0  0  0  0  0
   27.0662  -20.5401  -15.0608 C   0  0  2  0  0  0  0  0  0  0  0  0
   26.4562  -20.2452  -13.7941 N   0  0  0  0  0  0  0  0  0  0  0  0
   28.2796  -21.3673  -14.9408 C   0  0  0  0  0  0  0  0  0  0  0  0
   28.8239  -21.8825  -15.9386 O   0  0  0  0  0  0  0  0  0  0  0  0
   28.8268  -21.5762  -13.6889 O   0  0  0  0  0  0  0  0  0  0  0  0
  2  1  1  1
  2  7  1  0
  3  2  1  0
  3  4  1  0
  5  4  1  0
  6  5  2  0
  7  8  2  0
  9  5  1  0
 10 11  1  0
 11 12  1  0
 13 12  1  0
 14 13  1  1
 14 16  1  0
 15  7  1  0
 15 14  1  0
 16 17  2  0
 19 18  1  1
 19 21  1  0
 20 19  1  0
 21 23  1  0
 22 16  1  0
 21 22  1  1
 23 24  2  0
 23 25  1  0
M  END
$$$$
