EMT.pdb
     RDKit          3D

 25 24  0  0  1  0  0  0  0  0999 V2000
   19.3863  -11.5231  -14.7542 N   0  0  0  0  0  0  0  0  0  0  0  0
   18.8235  -10.6549  -15.7845 C   0  0  1  0  0  0  0  0  0  0  0  0
   17.5618  -11.2380  -16.3320 C   0  0  0  0  0  0  0  0  0  0  0  0
   17.5446  -12.7254  -16.4444 C   0  0  0  0  0  0  0  0  0  0  0  0
   17.1039  -13.4382  -15.2401 C   0  0  0  0  0  0  0  0  0  0  0  0
   15.9838  -13.3342  -14.6893 O   0  0  0  0  0  0  0  0  0  0  0  0
   18.5649   -9.3122  -15.2012 C   0  0  0  0  0  0  0  0  0  0  0  0
   18.0344   -8.3557  -15.8133 O   0  0  0  0  0  0  0  0  0  0  0  0
   18.0149  -14.3125  -14.6536 O   0  0  0  0  0  0  0  0  0  0  0  0
   15.9832   -8.0079   -9.5067 C   0  0  0  0  0  0  0  0  0  0  0  0
   17.2141   -6.6864   -9.5723 S   0  0  0  0  0  0  0  0  0  0  0  0
   17.8900   -6.4983  -11.2366 C   0  0  0  0  0  0  0  0  0  0  0  0
   18.1863   -7.8368  -11.8301 C   0  0  0  0  0  0  0  0  0  0  0  0
   18.7345   -7.7382  -13.2387 C   0  0  2  0  0  0  0  0  0  0  0  0
   18.9317   -9.0345  -13.8326 N   0  0  0  0  0  0  0  0  0  0  0  0
   20.0003   -6.9634  -13.2807 C   0  0  0  0  0  0  0  0  0  0  0  0
   20.9964   -7.3588  -12.6047 O   0  0  0  0  0  0  0  0  0  0  0  0
   22.5994   -6.6823  -15.7445 C   0  0  0  0  0  0  0  0  0  0  0  0
   22.0796   -5.2910  -15.5087 C   0  0  1  0  0  0  0  0  0  0  0  0
   21.2827   -4.8276  -16.5533 O   0  0  0  0  0  0  0  0  0  0  0  0
   21.4311   -5.1074  -14.1710 C   0  0  2  0  0  0  0  0  0  0  0  0
   20.1726   -5.7879  -14.0409 N   0  0  0  0  0  0  0  0  0  0  0  0
   21.3533   -3.6758  -13.8309 C   0  0  0  0  0  0  0  0  0  0  0  0
   20.2601   -3.1050  -13.6411 O   0  0  0  0  0  0  0  0  0  0  0  0
   22.5237   -2.9492  -13.7199 O   0  0  0  0  0  0  0  0  0  0  0  0
  2  1  1  1
  2  7  1  0
  3  2  1  0
  3  4  1  0
  5  4  1  0
  6  5  2  0
  7  8  2  0
  9  5  1  0
 10 11  1  0
 11 12  1  0
 13 12  1  0
 14 13  1  1
 14 16  1  0
 15  7  1  0
 15 14  1  0
 16 17  2  0
 19 18  1  6
 19 21  1  0
 20 19  1  0
 21 23  1  0
 22 16  1  0
 21 22  1  6
 23 24  2  0
 23 25  1  0
M  END
$$$$
