YMG.pdb
     RDKit          3D

 25 25  0  0  1  0  0  0  0  0999 V2000
    5.3004  -25.3185   25.3178 O   0  0  0  0  0  0  0  0  0  0  0  0
    5.7639  -24.0345   25.1070 C   0  0  0  0  0  0  0  0  0  0  0  0
    5.1101  -22.9198   25.6047 C   0  0  0  0  0  0  0  0  0  0  0  0
    5.5805  -21.6332   25.3897 C   0  0  0  0  0  0  0  0  0  0  0  0
    6.7432  -21.4888   24.6503 C   0  0  0  0  0  0  0  0  0  0  0  0
    7.2927  -20.1570   24.3880 C   0  0  0  0  0  0  0  0  0  0  0  0
    6.3582  -19.2913   23.5682 C   0  0  2  0  0  0  0  0  0  0  0  0
    6.1213  -19.8244   22.2609 N   0  0  0  0  0  0  0  0  0  0  0  0
    6.9402  -17.9040   23.4676 C   0  0  0  0  0  0  0  0  0  0  0  0
    7.6877  -17.6584   22.4991 O   0  0  0  0  0  0  0  0  0  0  0  0
    7.3970  -22.5997   24.1529 C   0  0  0  0  0  0  0  0  0  0  0  0
    6.9284  -23.8793   24.3672 C   0  0  0  0  0  0  0  0  0  0  0  0
    6.7047  -10.5951   26.7834 C   0  0  0  0  0  0  0  0  0  0  0  0
    5.9480  -12.2280   26.5886 S   0  0  0  0  0  0  0  0  0  0  0  0
    6.9634  -13.2824   25.4965 C   0  0  0  0  0  0  0  0  0  0  0  0
    6.4164  -14.6672   25.4369 C   0  0  0  0  0  0  0  0  0  0  0  0
    7.1423  -15.5758   24.4547 C   0  0  2  0  0  0  0  0  0  0  0  0
    6.6377  -16.9263   24.4480 N   0  0  0  0  0  0  0  0  0  0  0  0
    8.5724  -15.5103   24.7573 C   0  0  0  0  0  0  0  0  0  0  0  0
    8.9450  -15.8130   25.9272 O   0  0  0  0  0  0  0  0  0  0  0  0
    9.5927  -15.1315   23.8401 N   0  0  0  0  0  0  0  0  0  0  0  0
   10.9588  -14.9056   24.2323 C   0  0  0  0  0  0  0  0  0  0  0  0
   11.7131  -16.1610   24.4179 C   0  0  0  0  0  0  0  0  0  0  0  0
   12.7831  -16.5226   23.6234 O   0  0  0  0  0  0  0  0  0  0  0  0
   11.3690  -16.9375   25.3389 O   0  0  0  0  0  0  0  0  0  0  0  0
  2  1  1  0
  3  2  2  0
  4  3  1  0
  5  4  2  0
  5 11  1  0
  6  5  1  0
  7  9  1  0
  7  6  1  0
  7  8  1  6
  9 18  1  0
 10  9  2  0
 11 12  2  0
 12  2  1  0
 14 13  1  0
 15 14  1  0
 17 16  1  1
 16 15  1  0
 17 19  1  0
 18 17  1  0
 19 20  2  0
 19 21  1  0
 21 22  1  0
 23 22  1  0
 23 24  1  0
 25 23  2  0
M  END
$$$$
