YMG.pdb
     RDKit          3D

 25 25  0  0  1  0  0  0  0  0999 V2000
   10.8461  -21.4908   30.8128 O   0  0  0  0  0  0  0  0  0  0  0  0
    9.9570  -20.7522   30.0565 C   0  0  0  0  0  0  0  0  0  0  0  0
    8.7234  -21.2482   29.6693 C   0  0  0  0  0  0  0  0  0  0  0  0
    7.8351  -20.5017   28.9100 C   0  0  0  0  0  0  0  0  0  0  0  0
    8.2206  -19.2231   28.5418 C   0  0  0  0  0  0  0  0  0  0  0  0
    7.3280  -18.3831   27.7403 C   0  0  0  0  0  0  0  0  0  0  0  0
    7.4559  -18.6478   26.2543 C   0  0  2  0  0  0  0  0  0  0  0  0
    8.8059  -18.9115   25.8578 N   0  0  0  0  0  0  0  0  0  0  0  0
    6.9133  -17.4613   25.4986 C   0  0  0  0  0  0  0  0  0  0  0  0
    5.7049  -17.1858   25.6434 O   0  0  0  0  0  0  0  0  0  0  0  0
    9.4510  -18.7263   28.9271 C   0  0  0  0  0  0  0  0  0  0  0  0
   10.3342  -19.4695   29.6824 C   0  0  0  0  0  0  0  0  0  0  0  0
    5.5273  -10.8828   25.9794 C   0  0  0  0  0  0  0  0  0  0  0  0
    5.8349  -12.6496   26.2260 S   0  0  0  0  0  0  0  0  0  0  0  0
    7.5553  -13.0720   25.7821 C   0  0  0  0  0  0  0  0  0  0  0  0
    7.7823  -14.5418   25.8760 C   0  0  0  0  0  0  0  0  0  0  0  0
    7.7304  -15.2612   24.5354 C   0  0  2  0  0  0  0  0  0  0  0  0
    7.7609  -16.6974   24.6580 N   0  0  0  0  0  0  0  0  0  0  0  0
    8.8197  -14.7433   23.7071 C   0  0  0  0  0  0  0  0  0  0  0  0
    9.9747  -14.6808   24.2182 O   0  0  0  0  0  0  0  0  0  0  0  0
    8.6920  -14.2984   22.3610 N   0  0  0  0  0  0  0  0  0  0  0  0
    8.8343  -15.1727   21.2268 C   0  0  0  0  0  0  0  0  0  0  0  0
   10.2194  -15.6501   21.0457 C   0  0  0  0  0  0  0  0  0  0  0  0
   10.9709  -15.3757   19.9202 O   0  0  0  0  0  0  0  0  0  0  0  0
   10.7411  -16.3370   21.9543 O   0  0  0  0  0  0  0  0  0  0  0  0
  2  1  1  0
  3  2  2  0
  4  3  1  0
  5  4  2  0
  5 11  1  0
  6  5  1  0
  7  9  1  0
  7  6  1  0
  7  8  1  1
  9 18  1  0
 10  9  2  0
 11 12  2  0
 12  2  1  0
 14 13  1  0
 15 14  1  0
 17 16  1  1
 16 15  1  0
 17 19  1  0
 18 17  1  0
 19 20  2  0
 19 21  1  0
 21 22  1  0
 23 22  1  0
 23 24  1  0
 25 23  2  0
M  END
$$$$
