YMG.pdb
     RDKit          3D

 25 25  0  0  1  0  0  0  0  0999 V2000
    0.5098  -20.4184   19.9622 O   0  0  0  0  0  0  0  0  0  0  0  0
    1.6651  -20.0297   20.6119 C   0  0  0  0  0  0  0  0  0  0  0  0
    2.9197  -20.4601   20.2136 C   0  0  0  0  0  0  0  0  0  0  0  0
    4.0758  -20.0662   20.8700 C   0  0  0  0  0  0  0  0  0  0  0  0
    3.9412  -19.2151   21.9548 C   0  0  0  0  0  0  0  0  0  0  0  0
    5.1234  -18.7617   22.6908 C   0  0  0  0  0  0  0  0  0  0  0  0
    5.6410  -17.4262   22.1978 C   0  0  2  0  0  0  0  0  0  0  0  0
    6.0823  -17.4768   20.8370 N   0  0  0  0  0  0  0  0  0  0  0  0
    6.7672  -16.9779   23.0945 C   0  0  0  0  0  0  0  0  0  0  0  0
    7.9333  -17.1136   22.6715 O   0  0  0  0  0  0  0  0  0  0  0  0
    2.6904  -18.7846   22.3538 C   0  0  0  0  0  0  0  0  0  0  0  0
    1.5407  -19.1768   21.7003 C   0  0  0  0  0  0  0  0  0  0  0  0
    6.7177  -10.6837   25.7482 C   0  0  0  0  0  0  0  0  0  0  0  0
    6.6957  -12.2605   26.6372 S   0  0  0  0  0  0  0  0  0  0  0  0
    7.1402  -13.6356   25.5205 C   0  0  0  0  0  0  0  0  0  0  0  0
    7.1206  -14.9367   26.2466 C   0  0  0  0  0  0  0  0  0  0  0  0
    7.4808  -16.1338   25.3779 C   0  0  2  0  0  0  0  0  0  0  0  0
    6.4920  -16.4242   24.3697 N   0  0  0  0  0  0  0  0  0  0  0  0
    7.7323  -17.2705   26.2642 C   0  0  0  0  0  0  0  0  0  0  0  0
    6.8671  -17.5360   27.1475 O   0  0  0  0  0  0  0  0  0  0  0  0
    8.8784  -18.1134   26.2191 N   0  0  0  0  0  0  0  0  0  0  0  0
   10.2218  -17.6239   26.3828 C   0  0  0  0  0  0  0  0  0  0  0  0
   10.9762  -18.3643   27.4132 C   0  0  0  0  0  0  0  0  0  0  0  0
   10.4419  -19.4181   28.1280 O   0  0  0  0  0  0  0  0  0  0  0  0
   12.1576  -18.0232   27.6533 O   0  0  0  0  0  0  0  0  0  0  0  0
  2  1  1  0
  3  2  2  0
  4  3  1  0
  5  4  2  0
  5 11  1  0
  6  5  1  0
  7  9  1  0
  7  6  1  0
  7  8  1  6
  9 18  1  0
 10  9  2  0
 11 12  2  0
 12  2  1  0
 14 13  1  0
 15 14  1  0
 17 16  1  1
 16 15  1  0
 17 19  1  0
 18 17  1  0
 19 20  2  0
 19 21  1  0
 21 22  1  0
 23 22  1  0
 23 24  1  0
 25 23  2  0
M  END
$$$$
