YMG.pdb
     RDKit          3D

 25 25  0  0  1  0  0  0  0  0999 V2000
    7.7169  -12.4055   17.5311 O   0  0  0  0  0  0  0  0  0  0  0  0
    7.9055  -13.4812   18.3769 C   0  0  0  0  0  0  0  0  0  0  0  0
    7.7191  -14.7899   17.9640 C   0  0  0  0  0  0  0  0  0  0  0  0
    7.9100  -15.8655   18.8180 C   0  0  0  0  0  0  0  0  0  0  0  0
    8.2993  -15.5924   20.1192 C   0  0  0  0  0  0  0  0  0  0  0  0
    8.5180  -16.6839   21.0707 C   0  0  0  0  0  0  0  0  0  0  0  0
    7.2582  -17.0660   21.8201 C   0  0  2  0  0  0  0  0  0  0  0  0
    6.1752  -17.3926   20.9427 N   0  0  0  0  0  0  0  0  0  0  0  0
    6.8672  -15.9287   22.7295 C   0  0  0  0  0  0  0  0  0  0  0  0
    6.1555  -15.0226   22.2505 O   0  0  0  0  0  0  0  0  0  0  0  0
    8.4857  -14.2874   20.5331 C   0  0  0  0  0  0  0  0  0  0  0  0
    8.2956  -13.2178   19.6830 C   0  0  0  0  0  0  0  0  0  0  0  0
    6.5576  -10.6342   28.2138 C   0  0  0  0  0  0  0  0  0  0  0  0
    6.0674  -12.2576   27.5801 S   0  0  0  0  0  0  0  0  0  0  0  0
    7.2792  -12.8636   26.3554 C   0  0  0  0  0  0  0  0  0  0  0  0
    6.8495  -14.1718   25.7858 C   0  0  0  0  0  0  0  0  0  0  0  0
    7.8188  -14.7480   24.7633 C   0  0  2  0  0  0  0  0  0  0  0  0
    7.3022  -15.9066   24.0782 N   0  0  0  0  0  0  0  0  0  0  0  0
    9.0842  -15.0158   25.4474 C   0  0  0  0  0  0  0  0  0  0  0  0
    9.6889  -14.0403   25.9783 O   0  0  0  0  0  0  0  0  0  0  0  0
    9.7015  -16.2926   25.5693 N   0  0  0  0  0  0  0  0  0  0  0  0
   10.9390  -16.5040   26.2727 C   0  0  0  0  0  0  0  0  0  0  0  0
   11.3222  -17.9283   26.3357 C   0  0  0  0  0  0  0  0  0  0  0  0
   12.4005  -18.3878   27.0658 O   0  0  0  0  0  0  0  0  0  0  0  0
   10.6391  -18.7625   25.6978 O   0  0  0  0  0  0  0  0  0  0  0  0
  2  1  1  0
  3  2  2  0
  4  3  1  0
  5  4  2  0
  5 11  1  0
  6  5  1  0
  7  9  1  0
  7  6  1  0
  7  8  1  6
  9 18  1  0
 10  9  2  0
 11 12  2  0
 12  2  1  0
 14 13  1  0
 15 14  1  0
 17 16  1  1
 16 15  1  0
 17 19  1  0
 18 17  1  0
 19 20  2  0
 19 21  1  0
 21 22  1  0
 23 22  1  0
 23 24  1  0
 25 23  2  0
M  END
$$$$
