YMG.pdb
     RDKit          3D

 25 25  0  0  1  0  0  0  0  0999 V2000
   10.7250  -14.6416   31.7310 O   0  0  0  0  0  0  0  0  0  0  0  0
   10.5388  -15.2199   30.4904 C   0  0  0  0  0  0  0  0  0  0  0  0
   10.8194  -16.5536   30.2451 C   0  0  0  0  0  0  0  0  0  0  0  0
   10.6303  -17.1283   28.9975 C   0  0  0  0  0  0  0  0  0  0  0  0
   10.1444  -16.3190   27.9836 C   0  0  0  0  0  0  0  0  0  0  0  0
    9.9222  -16.8651   26.6431 C   0  0  0  0  0  0  0  0  0  0  0  0
    8.4646  -17.1782   26.3748 C   0  0  2  0  0  0  0  0  0  0  0  0
    8.1608  -18.5666   26.5460 N   0  0  0  0  0  0  0  0  0  0  0  0
    8.1204  -16.7384   24.9743 C   0  0  0  0  0  0  0  0  0  0  0  0
    7.8631  -17.6256   24.1354 O   0  0  0  0  0  0  0  0  0  0  0  0
    9.8639  -14.9880   28.2263 C   0  0  0  0  0  0  0  0  0  0  0  0
   10.0522  -14.4169   29.4677 C   0  0  0  0  0  0  0  0  0  0  0  0
    5.9003  -11.7526   27.1738 C   0  0  0  0  0  0  0  0  0  0  0  0
    7.1414  -12.3194   25.9840 S   0  0  0  0  0  0  0  0  0  0  0  0
    6.3416  -12.9203   24.4560 C   0  0  0  0  0  0  0  0  0  0  0  0
    7.3609  -13.3209   23.4455 C   0  0  0  0  0  0  0  0  0  0  0  0
    7.6205  -14.8198   23.3915 C   0  0  2  0  0  0  0  0  0  0  0  0
    8.0950  -15.3612   24.6407 N   0  0  0  0  0  0  0  0  0  0  0  0
    8.5391  -15.0754   22.2817 C   0  0  0  0  0  0  0  0  0  0  0  0
    8.1809  -14.7199   21.1221 O   0  0  0  0  0  0  0  0  0  0  0  0
    9.8151  -15.6960   22.3937 N   0  0  0  0  0  0  0  0  0  0  0  0
   10.6800  -15.9253   21.2666 C   0  0  0  0  0  0  0  0  0  0  0  0
   11.9586  -16.5563   21.6488 C   0  0  0  0  0  0  0  0  0  0  0  0
   13.1224  -16.4038   20.9213 O   0  0  0  0  0  0  0  0  0  0  0  0
   11.9933  -17.2647   22.6816 O   0  0  0  0  0  0  0  0  0  0  0  0
  2  1  1  0
  3  2  2  0
  4  3  1  0
  5  4  2  0
  5 11  1  0
  6  5  1  0
  7  9  1  0
  7  6  1  0
  7  8  1  6
  9 18  1  0
 10  9  2  0
 11 12  2  0
 12  2  1  0
 14 13  1  0
 15 14  1  0
 17 16  1  1
 16 15  1  0
 17 19  1  0
 18 17  1  0
 19 20  2  0
 19 21  1  0
 21 22  1  0
 23 22  1  0
 23 24  1  0
 25 23  2  0
M  END
$$$$
