YMG.pdb
     RDKit          3D

 25 25  0  0  1  0  0  0  0  0999 V2000
   10.5090  -14.3628   31.1080 O   0  0  0  0  0  0  0  0  0  0  0  0
   10.3021  -14.7832   29.8086 C   0  0  0  0  0  0  0  0  0  0  0  0
    9.7544  -13.9575   28.8411 C   0  0  0  0  0  0  0  0  0  0  0  0
    9.5492  -14.3855   27.5383 C   0  0  0  0  0  0  0  0  0  0  0  0
    9.9130  -15.6846   27.2233 C   0  0  0  0  0  0  0  0  0  0  0  0
    9.7226  -16.1976   25.8649 C   0  0  0  0  0  0  0  0  0  0  0  0
    8.2709  -16.4967   25.5522 C   0  0  2  0  0  0  0  0  0  0  0  0
    7.7760  -17.6297   26.2738 N   0  0  0  0  0  0  0  0  0  0  0  0
    8.1274  -16.7209   24.0681 C   0  0  0  0  0  0  0  0  0  0  0  0
    8.2026  -17.8941   23.6497 O   0  0  0  0  0  0  0  0  0  0  0  0
   10.4596  -16.5100   28.1871 C   0  0  0  0  0  0  0  0  0  0  0  0
   10.6634  -16.0836   29.4830 C   0  0  0  0  0  0  0  0  0  0  0  0
    6.2352  -12.1495   19.0769 C   0  0  0  0  0  0  0  0  0  0  0  0
    7.9896  -12.5821   18.9678 S   0  0  0  0  0  0  0  0  0  0  0  0
    8.2885  -14.2420   19.6686 C   0  0  0  0  0  0  0  0  0  0  0  0
    8.0129  -14.2575   21.1330 C   0  0  0  0  0  0  0  0  0  0  0  0
    8.2290  -15.6148   21.7873 C   0  0  2  0  0  0  0  0  0  0  0  0
    7.9148  -15.6255   23.1943 N   0  0  0  0  0  0  0  0  0  0  0  0
    9.6054  -16.0293   21.5143 C   0  0  0  0  0  0  0  0  0  0  0  0
   10.5323  -15.4785   22.1752 O   0  0  0  0  0  0  0  0  0  0  0  0
    9.9974  -17.0092   20.5593 N   0  0  0  0  0  0  0  0  0  0  0  0
   11.3580  -17.4487   20.3963 C   0  0  0  0  0  0  0  0  0  0  0  0
   12.0342  -16.7980   19.2566 C   0  0  0  0  0  0  0  0  0  0  0  0
   11.6771  -17.0194   17.9412 O   0  0  0  0  0  0  0  0  0  0  0  0
   12.9771  -16.0068   19.4902 O   0  0  0  0  0  0  0  0  0  0  0  0
  2  1  1  0
  3  2  2  0
  4  3  1  0
  5  4  2  0
  5 11  1  0
  6  5  1  0
  7  9  1  0
  7  6  1  0
  7  8  1  1
  9 18  1  0
 10  9  2  0
 11 12  2  0
 12  2  1  0
 14 13  1  0
 15 14  1  0
 17 16  1  1
 16 15  1  0
 17 19  1  0
 18 17  1  0
 19 20  2  0
 19 21  1  0
 21 22  1  0
 23 22  1  0
 23 24  1  0
 25 23  2  0
M  END
$$$$
