YMG.pdb
     RDKit          3D

 25 25  0  0  1  0  0  0  0  0999 V2000
   11.7006  -16.7158   31.8009 O   0  0  0  0  0  0  0  0  0  0  0  0
   11.1755  -16.4211   30.5577 C   0  0  0  0  0  0  0  0  0  0  0  0
   10.9948  -15.1200   30.1193 C   0  0  0  0  0  0  0  0  0  0  0  0
   10.4671  -14.8307   28.8700 C   0  0  0  0  0  0  0  0  0  0  0  0
   10.1188  -15.8966   28.0565 C   0  0  0  0  0  0  0  0  0  0  0  0
    9.5567  -15.6586   26.7253 C   0  0  0  0  0  0  0  0  0  0  0  0
    8.3663  -16.5468   26.4272 C   0  0  2  0  0  0  0  0  0  0  0  0
    8.6644  -17.9374   26.5904 N   0  0  0  0  0  0  0  0  0  0  0  0
    7.8955  -16.2764   25.0206 C   0  0  0  0  0  0  0  0  0  0  0  0
    7.3514  -17.2134   24.4019 O   0  0  0  0  0  0  0  0  0  0  0  0
   10.2983  -17.1955   28.4921 C   0  0  0  0  0  0  0  0  0  0  0  0
   10.8233  -17.4826   29.7350 C   0  0  0  0  0  0  0  0  0  0  0  0
    5.6719  -11.5924   26.6494 C   0  0  0  0  0  0  0  0  0  0  0  0
    6.9085  -12.4253   25.6226 S   0  0  0  0  0  0  0  0  0  0  0  0
    6.3699  -12.4743   23.8782 C   0  0  0  0  0  0  0  0  0  0  0  0
    7.4230  -13.0783   23.0142 C   0  0  0  0  0  0  0  0  0  0  0  0
    7.5487  -14.5884   23.1588 C   0  0  2  0  0  0  0  0  0  0  0  0
    8.0731  -14.9966   24.4382 N   0  0  0  0  0  0  0  0  0  0  0  0
    8.3511  -15.0801   22.0383 C   0  0  0  0  0  0  0  0  0  0  0  0
    7.9003  -14.9135   20.8686 O   0  0  0  0  0  0  0  0  0  0  0  0
    9.6088  -15.7370   22.1505 N   0  0  0  0  0  0  0  0  0  0  0  0
   10.3108  -16.2900   21.0225 C   0  0  0  0  0  0  0  0  0  0  0  0
   11.6914  -16.6946   21.3533 C   0  0  0  0  0  0  0  0  0  0  0  0
   12.6743  -16.8727   20.3998 O   0  0  0  0  0  0  0  0  0  0  0  0
   11.9891  -16.8863   22.5551 O   0  0  0  0  0  0  0  0  0  0  0  0
  2  1  1  0
  3  2  2  0
  4  3  1  0
  5  4  2  0
  5 11  1  0
  6  5  1  0
  7  9  1  0
  7  6  1  0
  7  8  1  6
  9 18  1  0
 10  9  2  0
 11 12  2  0
 12  2  1  0
 14 13  1  0
 15 14  1  0
 17 16  1  1
 16 15  1  0
 17 19  1  0
 18 17  1  0
 19 20  2  0
 19 21  1  0
 21 22  1  0
 23 22  1  0
 23 24  1  0
 25 23  2  0
M  END
$$$$
