YMG.pdb
     RDKit          3D

 25 25  0  0  1  0  0  0  0  0999 V2000
    8.9614  -22.0401   30.6255 O   0  0  0  0  0  0  0  0  0  0  0  0
    8.9334  -21.2230   29.5121 C   0  0  0  0  0  0  0  0  0  0  0  0
    9.7509  -21.4374   28.4151 C   0  0  0  0  0  0  0  0  0  0  0  0
    9.7180  -20.6134   27.3002 C   0  0  0  0  0  0  0  0  0  0  0  0
    8.8297  -19.5505   27.3122 C   0  0  0  0  0  0  0  0  0  0  0  0
    8.7457  -18.6434   26.1655 C   0  0  0  0  0  0  0  0  0  0  0  0
    7.3194  -18.4015   25.7161 C   0  0  2  0  0  0  0  0  0  0  0  0
    6.6958  -19.5855   25.2075 N   0  0  0  0  0  0  0  0  0  0  0  0
    7.3151  -17.3186   24.6670 C   0  0  0  0  0  0  0  0  0  0  0  0
    7.1613  -17.6647   23.4780 O   0  0  0  0  0  0  0  0  0  0  0  0
    8.0131  -19.3349   28.4057 C   0  0  0  0  0  0  0  0  0  0  0  0
    8.0464  -20.1549   29.5144 C   0  0  0  0  0  0  0  0  0  0  0  0
    4.9553  -11.4676   27.3578 C   0  0  0  0  0  0  0  0  0  0  0  0
    6.4941  -11.7125   26.4363 S   0  0  0  0  0  0  0  0  0  0  0  0
    6.4064  -13.2333   25.4287 C   0  0  0  0  0  0  0  0  0  0  0  0
    7.7143  -13.5101   24.7704 C   0  0  0  0  0  0  0  0  0  0  0  0
    7.8030  -14.8878   24.1292 C   0  0  2  0  0  0  0  0  0  0  0  0
    7.4813  -15.9606   25.0370 N   0  0  0  0  0  0  0  0  0  0  0  0
    9.1378  -15.0248   23.5456 C   0  0  0  0  0  0  0  0  0  0  0  0
   10.1328  -14.9787   24.3248 O   0  0  0  0  0  0  0  0  0  0  0  0
    9.4180  -15.2075   22.1621 N   0  0  0  0  0  0  0  0  0  0  0  0
   10.7529  -15.3382   21.6405 C   0  0  0  0  0  0  0  0  0  0  0  0
   10.7824  -15.4297   20.1674 C   0  0  0  0  0  0  0  0  0  0  0  0
   11.9514  -15.3997   19.4329 O   0  0  0  0  0  0  0  0  0  0  0  0
    9.6973  -15.5400   19.5510 O   0  0  0  0  0  0  0  0  0  0  0  0
  2  1  1  0
  3  2  2  0
  4  3  1  0
  5  4  2  0
  5 11  1  0
  6  5  1  0
  7  9  1  0
  7  6  1  0
  7  8  1  6
  9 18  1  0
 10  9  2  0
 11 12  2  0
 12  2  1  0
 14 13  1  0
 15 14  1  0
 17 16  1  1
 16 15  1  0
 17 19  1  0
 18 17  1  0
 19 20  2  0
 19 21  1  0
 21 22  1  0
 23 22  1  0
 23 24  1  0
 25 23  2  0
M  END
$$$$
