YMG.pdb
     RDKit          3D

 25 25  0  0  1  0  0  0  0  0999 V2000
    9.0090  -20.0947   31.2823 O   0  0  0  0  0  0  0  0  0  0  0  0
    9.0256  -19.5769   30.0018 C   0  0  0  0  0  0  0  0  0  0  0  0
    9.9872  -19.9333   29.0711 C   0  0  0  0  0  0  0  0  0  0  0  0
    9.9985  -19.4100   27.7870 C   0  0  0  0  0  0  0  0  0  0  0  0
    9.0046  -18.5046   27.4528 C   0  0  0  0  0  0  0  0  0  0  0  0
    8.9602  -17.9158   26.1127 C   0  0  0  0  0  0  0  0  0  0  0  0
    7.7662  -18.3862   25.3079 C   0  0  2  0  0  0  0  0  0  0  0  0
    7.6581  -19.8131   25.2687 N   0  0  0  0  0  0  0  0  0  0  0  0
    7.8716  -17.8330   23.9092 C   0  0  0  0  0  0  0  0  0  0  0  0
    8.2996  -18.5929   23.0167 O   0  0  0  0  0  0  0  0  0  0  0  0
    8.0443  -18.1478   28.3799 C   0  0  0  0  0  0  0  0  0  0  0  0
    8.0337  -18.6687   29.6572 C   0  0  0  0  0  0  0  0  0  0  0  0
    8.1586  -11.6943   19.2623 C   0  0  0  0  0  0  0  0  0  0  0  0
    8.2944  -12.6394   20.8003 S   0  0  0  0  0  0  0  0  0  0  0  0
    7.0043  -13.9299   20.8793 C   0  0  0  0  0  0  0  0  0  0  0  0
    6.9329  -14.5264   22.2429 C   0  0  0  0  0  0  0  0  0  0  0  0
    7.7640  -15.7911   22.4076 C   0  0  2  0  0  0  0  0  0  0  0  0
    7.4933  -16.4947   23.6365 N   0  0  0  0  0  0  0  0  0  0  0  0
    9.1730  -15.4221   22.2683 C   0  0  0  0  0  0  0  0  0  0  0  0
    9.7018  -14.7423   23.1942 O   0  0  0  0  0  0  0  0  0  0  0  0
   10.0104  -15.7651   21.1696 N   0  0  0  0  0  0  0  0  0  0  0  0
   11.2958  -15.1596   20.9412 C   0  0  0  0  0  0  0  0  0  0  0  0
   12.4146  -16.0956   21.1676 C   0  0  0  0  0  0  0  0  0  0  0  0
   13.5050  -16.1859   20.3251 O   0  0  0  0  0  0  0  0  0  0  0  0
   12.3765  -16.8453   22.1707 O   0  0  0  0  0  0  0  0  0  0  0  0
  2  1  1  0
  3  2  2  0
  4  3  1  0
  5  4  2  0
  5 11  1  0
  6  5  1  0
  7  9  1  0
  7  6  1  0
  7  8  1  6
  9 18  1  0
 10  9  2  0
 11 12  2  0
 12  2  1  0
 14 13  1  0
 15 14  1  0
 17 16  1  1
 16 15  1  0
 17 19  1  0
 18 17  1  0
 19 20  2  0
 19 21  1  0
 21 22  1  0
 23 22  1  0
 23 24  1  0
 25 23  2  0
M  END
$$$$
