YMG.pdb
     RDKit          3D

 25 25  0  0  1  0  0  0  0  0999 V2000
   11.4654  -15.7584   32.1069 O   0  0  0  0  0  0  0  0  0  0  0  0
   11.1073  -15.8892   30.7792 C   0  0  0  0  0  0  0  0  0  0  0  0
   10.5797  -14.8386   30.0473 C   0  0  0  0  0  0  0  0  0  0  0  0
   10.2222  -14.9763   28.7146 C   0  0  0  0  0  0  0  0  0  0  0  0
   10.4098  -16.2148   28.1231 C   0  0  0  0  0  0  0  0  0  0  0  0
   10.0528  -16.4257   26.7185 C   0  0  0  0  0  0  0  0  0  0  0  0
    8.5743  -16.6933   26.5261 C   0  0  2  0  0  0  0  0  0  0  0  0
    8.2030  -18.0228   26.9053 N   0  0  0  0  0  0  0  0  0  0  0  0
    8.2169  -16.4443   25.0826 C   0  0  0  0  0  0  0  0  0  0  0  0
    7.8894  -17.4285   24.3889 O   0  0  0  0  0  0  0  0  0  0  0  0
   10.9360  -17.2643   28.8516 C   0  0  0  0  0  0  0  0  0  0  0  0
   11.2915  -17.1267   30.1773 C   0  0  0  0  0  0  0  0  0  0  0  0
    5.7132  -12.8252   26.6074 C   0  0  0  0  0  0  0  0  0  0  0  0
    6.6353  -12.0575   25.2518 S   0  0  0  0  0  0  0  0  0  0  0  0
    6.3072  -12.9240   23.6779 C   0  0  0  0  0  0  0  0  0  0  0  0
    7.5814  -13.3136   23.0107 C   0  0  0  0  0  0  0  0  0  0  0  0
    7.9465  -14.7809   23.1862 C   0  0  2  0  0  0  0  0  0  0  0  0
    8.2572  -15.1316   24.5497 N   0  0  0  0  0  0  0  0  0  0  0  0
    9.0408  -15.0834   22.2634 C   0  0  0  0  0  0  0  0  0  0  0  0
   10.1689  -14.5583   22.4894 O   0  0  0  0  0  0  0  0  0  0  0  0
    8.9463  -15.9265   21.1204 N   0  0  0  0  0  0  0  0  0  0  0  0
   10.0839  -16.2990   20.3215 C   0  0  0  0  0  0  0  0  0  0  0  0
    9.7141  -17.1200   19.1517 C   0  0  0  0  0  0  0  0  0  0  0  0
    8.8985  -18.2310   19.2371 O   0  0  0  0  0  0  0  0  0  0  0  0
   10.1596  -16.7963   18.0263 O   0  0  0  0  0  0  0  0  0  0  0  0
  2  1  1  0
  3  2  2  0
  4  3  1  0
  5  4  2  0
  5 11  1  0
  6  5  1  0
  7  9  1  0
  7  6  1  0
  7  8  1  6
  9 18  1  0
 10  9  2  0
 11 12  2  0
 12  2  1  0
 14 13  1  0
 15 14  1  0
 17 16  1  1
 16 15  1  0
 17 19  1  0
 18 17  1  0
 19 20  2  0
 19 21  1  0
 21 22  1  0
 23 22  1  0
 23 24  1  0
 25 23  2  0
M  END
$$$$
