YMG.pdb
     RDKit          3D

 25 25  0  0  1  0  0  0  0  0999 V2000
    7.4279  -13.9879   14.7557 O   0  0  0  0  0  0  0  0  0  0  0  0
    7.9157  -14.0496   16.0466 C   0  0  0  0  0  0  0  0  0  0  0  0
    8.8108  -15.0243   16.4546 C   0  0  0  0  0  0  0  0  0  0  0  0
    9.2968  -15.0808   17.7520 C   0  0  0  0  0  0  0  0  0  0  0  0
    8.8558  -14.1192   18.6464 C   0  0  0  0  0  0  0  0  0  0  0  0
    9.3316  -14.1232   20.0314 C   0  0  0  0  0  0  0  0  0  0  0  0
    8.9029  -15.3611   20.7921 C   0  0  2  0  0  0  0  0  0  0  0  0
    7.5355  -15.7085   20.5495 N   0  0  0  0  0  0  0  0  0  0  0  0
    9.1286  -15.1315   22.2651 C   0  0  0  0  0  0  0  0  0  0  0  0
   10.2746  -14.7993   22.6305 O   0  0  0  0  0  0  0  0  0  0  0  0
    7.9628  -13.1459   18.2413 C   0  0  0  0  0  0  0  0  0  0  0  0
    7.4796  -13.0902   16.9505 C   0  0  0  0  0  0  0  0  0  0  0  0
    7.3274  -11.6835   28.4843 C   0  0  0  0  0  0  0  0  0  0  0  0
    7.1376  -12.2040   26.7609 S   0  0  0  0  0  0  0  0  0  0  0  0
    7.1069  -14.0259   26.6380 C   0  0  0  0  0  0  0  0  0  0  0  0
    6.9280  -14.4597   25.2236 C   0  0  0  0  0  0  0  0  0  0  0  0
    8.1672  -15.0985   24.6126 C   0  0  2  0  0  0  0  0  0  0  0  0
    8.0647  -15.2920   23.1875 N   0  0  0  0  0  0  0  0  0  0  0  0
    8.4297  -16.3448   25.3328 C   0  0  0  0  0  0  0  0  0  0  0  0
    7.4475  -16.9441   25.8577 O   0  0  0  0  0  0  0  0  0  0  0  0
    9.7080  -16.9490   25.4964 N   0  0  0  0  0  0  0  0  0  0  0  0
   10.5587  -16.6954   26.6291 C   0  0  0  0  0  0  0  0  0  0  0  0
   10.2749  -17.5922   27.7668 C   0  0  0  0  0  0  0  0  0  0  0  0
   11.1211  -18.6133   28.1520 O   0  0  0  0  0  0  0  0  0  0  0  0
    9.2170  -17.4219   28.4160 O   0  0  0  0  0  0  0  0  0  0  0  0
  2  1  1  0
  3  2  2  0
  4  3  1  0
  5  4  2  0
  5 11  1  0
  6  5  1  0
  7  9  1  0
  7  6  1  0
  7  8  1  1
  9 18  1  0
 10  9  2  0
 11 12  2  0
 12  2  1  0
 14 13  1  0
 15 14  1  0
 17 16  1  1
 16 15  1  0
 17 19  1  0
 18 17  1  0
 19 20  2  0
 19 21  1  0
 21 22  1  0
 23 22  1  0
 23 24  1  0
 25 23  2  0
M  END
$$$$
