ESH.pdb
     RDKit          3D

 26 26  0  0  1  0  0  0  0  0999 V2000
   28.2743  -22.0833  -16.9496 N   0  0  0  0  0  0  0  0  0  0  0  0
   27.8929  -21.0341  -15.9879 C   0  0  1  0  0  0  0  0  0  0  0  0
   27.8582  -19.7559  -16.7785 C   0  0  0  0  0  0  0  0  0  0  0  0
   28.5991  -19.8068  -18.0677 C   0  0  0  0  0  0  0  0  0  0  0  0
   29.2548  -18.4678  -18.2859 C   0  0  0  0  0  0  0  0  0  0  0  0
   30.5083  -18.3637  -18.3428 O   0  0  0  0  0  0  0  0  0  0  0  0
   26.6443  -21.3722  -15.3119 C   0  0  0  0  0  0  0  0  0  0  0  0
   25.6982  -21.8677  -15.9574 O   0  0  0  0  0  0  0  0  0  0  0  0
   28.5092  -17.3065  -18.4316 O   0  0  0  0  0  0  0  0  0  0  0  0
   25.9040  -20.2998  -11.3030 O   0  0  0  0  0  0  0  0  0  0  0  0
   25.4402  -21.4989  -11.8185 C   0  0  0  0  0  0  0  0  0  0  0  0
   25.2164  -21.4382  -13.3135 C   0  0  2  0  0  0  0  0  0  0  0  0
   26.4813  -21.1486  -13.9292 N   0  0  0  0  0  0  0  0  0  0  0  0
   24.1632  -20.4632  -13.6784 C   0  0  0  0  0  0  0  0  0  0  0  0
   24.5180  -19.3726  -14.1950 O   0  0  0  0  0  0  0  0  0  0  0  0
   22.7747  -20.6872  -13.4792 N   0  0  0  0  0  0  0  0  0  0  0  0
   21.7650  -19.6747  -13.8274 C   0  0  1  0  0  0  0  0  0  0  0  0
   21.9338  -19.4079  -15.3040 C   0  0  0  0  0  0  0  0  0  0  0  0
   20.9528  -18.3835  -15.7454 C   0  0  0  0  0  0  0  0  0  0  0  0
   21.2214  -17.0249  -15.9324 C   0  0  0  0  0  0  0  0  0  0  0  0
   20.1072  -16.3902  -16.3344 N   0  0  0  0  0  0  0  0  0  0  0  0
   19.1440  -17.3238  -16.4036 C   0  0  0  0  0  0  0  0  0  0  0  0
   19.6448  -18.5239  -16.0510 N   0  0  0  0  0  0  0  0  0  0  0  0
   20.4096  -20.1409  -13.4669 C   0  0  0  0  0  0  0  0  0  0  0  0
   20.0965  -21.3428  -13.6168 O   0  0  0  0  0  0  0  0  0  0  0  0
   19.4717  -19.2695  -12.9630 O   0  0  0  0  0  0  0  0  0  0  0  0
  2  1  1  6
  2  7  1  0
  3  2  1  0
  4  3  1  0
  4  5  1  0
  5  9  1  0
  6  5  2  0
  7 13  1  0
  7  8  2  0
 10 11  1  0
 12 11  1  1
 12 14  1  0
 13 12  1  0
 14 15  2  0
 16 14  1  0
 16 17  1  0
 17 24  1  0
 17 18  1  6
 19 18  1  0
 20 19  2  0
 21 22  1  0
 21 20  1  0
 22 23  2  0
 23 19  1  0
 24 26  1  0
 25 24  2  0
M  END
$$$$
