ESH.pdb
     RDKit          3D

 26 26  0  0  1  0  0  0  0  0999 V2000
   20.1198  -32.3077   -2.3223 N   0  0  0  0  0  0  0  0  0  0  0  0
   20.7009  -33.6207   -1.9914 C   0  0  1  0  0  0  0  0  0  0  0  0
   21.2891  -34.1364   -3.2751 C   0  0  0  0  0  0  0  0  0  0  0  0
   22.5011  -33.4070   -3.7360 C   0  0  0  0  0  0  0  0  0  0  0  0
   23.0605  -34.1337   -4.9316 C   0  0  0  0  0  0  0  0  0  0  0  0
   22.4363  -35.0940   -5.4545 O   0  0  0  0  0  0  0  0  0  0  0  0
   21.6450  -33.5112   -0.8836 C   0  0  0  0  0  0  0  0  0  0  0  0
   22.2036  -32.4214   -0.6437 O   0  0  0  0  0  0  0  0  0  0  0  0
   24.2756  -33.7760   -5.4988 O   0  0  0  0  0  0  0  0  0  0  0  0
   23.4211  -36.7635    0.9472 O   0  0  0  0  0  0  0  0  0  0  0  0
   22.8943  -35.7865    1.7760 C   0  0  0  0  0  0  0  0  0  0  0  0
   22.7772  -34.4446    1.0870 C   0  0  2  0  0  0  0  0  0  0  0  0
   21.9435  -34.6228   -0.0688 N   0  0  0  0  0  0  0  0  0  0  0  0
   24.1026  -33.8723    0.7568 C   0  0  0  0  0  0  0  0  0  0  0  0
   24.4351  -33.8071   -0.4546 O   0  0  0  0  0  0  0  0  0  0  0  0
   25.0211  -33.3923    1.7281 N   0  0  0  0  0  0  0  0  0  0  0  0
   26.3489  -32.8776    1.3566 C   0  0  1  0  0  0  0  0  0  0  0  0
   26.0992  -31.6569    0.5037 C   0  0  0  0  0  0  0  0  0  0  0  0
   26.2313  -32.0115   -0.9329 C   0  0  0  0  0  0  0  0  0  0  0  0
   26.4200  -33.2998   -1.4404 C   0  0  0  0  0  0  0  0  0  0  0  0
   26.4976  -33.2555   -2.7813 N   0  0  0  0  0  0  0  0  0  0  0  0
   26.3612  -31.9645   -3.1258 C   0  0  0  0  0  0  0  0  0  0  0  0
   26.2008  -31.2111   -2.0202 N   0  0  0  0  0  0  0  0  0  0  0  0
   27.1574  -32.5958    2.5613 C   0  0  0  0  0  0  0  0  0  0  0  0
   28.3877  -32.3922    2.4605 O   0  0  0  0  0  0  0  0  0  0  0  0
   26.5784  -32.5518    3.8085 O   0  0  0  0  0  0  0  0  0  0  0  0
  2  1  1  6
  2  7  1  0
  3  2  1  0
  4  3  1  0
  4  5  1  0
  5  9  1  0
  6  5  2  0
  7 13  1  0
  7  8  2  0
 10 11  1  0
 12 11  1  6
 12 14  1  0
 13 12  1  0
 14 15  2  0
 16 14  1  0
 16 17  1  0
 17 24  1  0
 17 18  1  1
 19 18  1  0
 20 19  2  0
 21 22  1  0
 21 20  1  0
 22 23  2  0
 23 19  1  0
 24 26  1  0
 25 24  2  0
M  END
$$$$
