ESH.pdb
     RDKit          3D

 26 26  0  0  1  0  0  0  0  0999 V2000
   26.4185  -36.5937   -3.8999 N   0  0  0  0  0  0  0  0  0  0  0  0
   27.2178  -35.4325   -3.4710 C   0  0  1  0  0  0  0  0  0  0  0  0
   26.4357  -34.2233   -3.9024 C   0  0  0  0  0  0  0  0  0  0  0  0
   26.3330  -34.0478   -5.3762 C   0  0  0  0  0  0  0  0  0  0  0  0
   25.5417  -32.7942   -5.6461 C   0  0  0  0  0  0  0  0  0  0  0  0
   24.9916  -32.1623   -4.7062 O   0  0  0  0  0  0  0  0  0  0  0  0
   27.5103  -35.4971   -2.0425 C   0  0  0  0  0  0  0  0  0  0  0  0
   26.6183  -35.8304   -1.2360 O   0  0  0  0  0  0  0  0  0  0  0  0
   25.3894  -32.2910   -6.9305 O   0  0  0  0  0  0  0  0  0  0  0  0
   31.1560  -36.3288   -0.4416 O   0  0  0  0  0  0  0  0  0  0  0  0
   30.5298  -35.2085    0.0797 C   0  0  0  0  0  0  0  0  0  0  0  0
   29.0320  -35.2317   -0.1317 C   0  0  2  0  0  0  0  0  0  0  0  0
   28.7940  -35.1876   -1.5475 N   0  0  0  0  0  0  0  0  0  0  0  0
   28.3508  -34.1389    0.5997 C   0  0  0  0  0  0  0  0  0  0  0  0
   27.9105  -33.1654   -0.0642 O   0  0  0  0  0  0  0  0  0  0  0  0
   28.1651  -34.1253    2.0078 N   0  0  0  0  0  0  0  0  0  0  0  0
   27.4819  -33.0160    2.6924 C   0  0  1  0  0  0  0  0  0  0  0  0
   26.0770  -32.9872    2.1400 C   0  0  0  0  0  0  0  0  0  0  0  0
   25.2871  -31.9345    2.8291 C   0  0  0  0  0  0  0  0  0  0  0  0
   25.8146  -30.8314    3.5056 C   0  0  0  0  0  0  0  0  0  0  0  0
   24.8171  -30.0847    4.0091 N   0  0  0  0  0  0  0  0  0  0  0  0
   23.6734  -30.6975    3.6619 C   0  0  0  0  0  0  0  0  0  0  0  0
   23.9481  -31.8096    2.9526 N   0  0  0  0  0  0  0  0  0  0  0  0
   27.5321  -33.1948    4.1586 C   0  0  0  0  0  0  0  0  0  0  0  0
   26.9505  -32.3830    4.9123 O   0  0  0  0  0  0  0  0  0  0  0  0
   28.2140  -34.2493    4.7205 O   0  0  0  0  0  0  0  0  0  0  0  0
  2  1  1  1
  2  7  1  0
  3  2  1  0
  4  3  1  0
  4  5  1  0
  5  9  1  0
  6  5  2  0
  7 13  1  0
  7  8  2  0
 10 11  1  0
 12 11  1  6
 12 14  1  0
 13 12  1  0
 14 15  2  0
 16 14  1  0
 16 17  1  0
 17 24  1  0
 17 18  1  6
 19 18  1  0
 20 19  2  0
 21 22  1  0
 21 20  1  0
 22 23  2  0
 23 19  1  0
 24 26  1  0
 25 24  2  0
M  END
$$$$
