ESH.pdb
     RDKit          3D

 26 26  0  0  1  0  0  0  0  0999 V2000
   27.7339  -21.8691  -16.0037 N   0  0  0  0  0  0  0  0  0  0  0  0
   27.6292  -20.9505  -14.8563 C   0  0  1  0  0  0  0  0  0  0  0  0
   27.8078  -19.5711  -15.4266 C   0  0  0  0  0  0  0  0  0  0  0  0
   26.8181  -19.2033  -16.4748 C   0  0  0  0  0  0  0  0  0  0  0  0
   26.9484  -17.7269  -16.7466 C   0  0  0  0  0  0  0  0  0  0  0  0
   28.0698  -17.2124  -16.9972 O   0  0  0  0  0  0  0  0  0  0  0  0
   26.3795  -21.1583  -14.1316 C   0  0  0  0  0  0  0  0  0  0  0  0
   25.3599  -21.5416  -14.7405 O   0  0  0  0  0  0  0  0  0  0  0  0
   25.8465  -16.8833  -16.7316 O   0  0  0  0  0  0  0  0  0  0  0  0
   26.2794  -21.7987  -10.0679 O   0  0  0  0  0  0  0  0  0  0  0  0
   25.3003  -20.9644  -10.5819 C   0  0  0  0  0  0  0  0  0  0  0  0
   25.0616  -21.1931  -12.0582 C   0  0  2  0  0  0  0  0  0  0  0  0
   26.2976  -20.9329  -12.7419 N   0  0  0  0  0  0  0  0  0  0  0  0
   23.9378  -20.3770  -12.5721 C   0  0  0  0  0  0  0  0  0  0  0  0
   24.1969  -19.2378  -13.0383 O   0  0  0  0  0  0  0  0  0  0  0  0
   22.5835  -20.8052  -12.5697 N   0  0  0  0  0  0  0  0  0  0  0  0
   21.5136  -20.0074  -13.1900 C   0  0  1  0  0  0  0  0  0  0  0  0
   21.8711  -19.8960  -14.6527 C   0  0  0  0  0  0  0  0  0  0  0  0
   20.8618  -19.0624  -15.3551 C   0  0  0  0  0  0  0  0  0  0  0  0
   19.7466  -18.4623  -14.7643 C   0  0  0  0  0  0  0  0  0  0  0  0
   19.0493  -17.7829  -15.6907 N   0  0  0  0  0  0  0  0  0  0  0  0
   19.7049  -17.9446  -16.8518 C   0  0  0  0  0  0  0  0  0  0  0  0
   20.7950  -18.7124  -16.6578 N   0  0  0  0  0  0  0  0  0  0  0  0
   20.1933  -20.6285  -12.9546 C   0  0  0  0  0  0  0  0  0  0  0  0
   20.1104  -21.8454  -12.6763 O   0  0  0  0  0  0  0  0  0  0  0  0
   19.0373  -19.8869  -13.0359 O   0  0  0  0  0  0  0  0  0  0  0  0
  2  1  1  6
  2  7  1  0
  3  2  1  0
  4  3  1  0
  4  5  1  0
  5  9  1  0
  6  5  2  0
  7 13  1  0
  7  8  2  0
 10 11  1  0
 12 11  1  1
 12 14  1  0
 13 12  1  0
 14 15  2  0
 16 14  1  0
 16 17  1  0
 17 24  1  0
 17 18  1  6
 19 18  1  0
 20 19  2  0
 21 22  1  0
 21 20  1  0
 22 23  2  0
 23 19  1  0
 24 26  1  0
 25 24  2  0
M  END
$$$$
