ESH.pdb
     RDKit          3D

 26 26  0  0  1  0  0  0  0  0999 V2000
   28.3041  -21.9576  -15.2058 N   0  0  0  0  0  0  0  0  0  0  0  0
   27.6063  -21.7190  -16.4814 C   0  0  1  0  0  0  0  0  0  0  0  0
   26.9349  -23.0199  -16.8232 C   0  0  0  0  0  0  0  0  0  0  0  0
   27.5372  -24.2151  -16.1734 C   0  0  0  0  0  0  0  0  0  0  0  0
   26.7873  -25.4341  -16.6448 C   0  0  0  0  0  0  0  0  0  0  0  0
   25.8469  -25.3331  -17.4759 O   0  0  0  0  0  0  0  0  0  0  0  0
   26.7087  -20.5725  -16.3807 C   0  0  0  0  0  0  0  0  0  0  0  0
   26.3567  -20.1505  -15.2604 O   0  0  0  0  0  0  0  0  0  0  0  0
   27.1010  -26.7055  -16.1853 O   0  0  0  0  0  0  0  0  0  0  0  0
   26.1916  -18.1667  -19.5531 O   0  0  0  0  0  0  0  0  0  0  0  0
   25.8377  -17.7026  -18.2968 C   0  0  0  0  0  0  0  0  0  0  0  0
   25.3333  -18.8060  -17.3930 C   0  0  2  0  0  0  0  0  0  0  0  0
   26.2246  -19.9233  -17.5352 N   0  0  0  0  0  0  0  0  0  0  0  0
   23.9229  -19.1562  -17.6778 C   0  0  0  0  0  0  0  0  0  0  0  0
   23.6951  -20.1716  -18.3843 O   0  0  0  0  0  0  0  0  0  0  0  0
   22.8113  -18.4123  -17.1999 N   0  0  0  0  0  0  0  0  0  0  0  0
   21.8340  -18.9885  -16.2623 C   0  0  1  0  0  0  0  0  0  0  0  0
   22.6239  -19.4218  -15.0507 C   0  0  0  0  0  0  0  0  0  0  0  0
   21.7154  -20.0467  -14.0551 C   0  0  0  0  0  0  0  0  0  0  0  0
   20.3382  -20.2269  -14.2087 C   0  0  0  0  0  0  0  0  0  0  0  0
   19.8311  -20.8232  -13.1164 N   0  0  0  0  0  0  0  0  0  0  0  0
   20.8630  -21.0210  -12.2798 C   0  0  0  0  0  0  0  0  0  0  0  0
   21.9985  -20.5569  -12.8372 N   0  0  0  0  0  0  0  0  0  0  0  0
   20.7691  -18.0124  -15.9499 C   0  0  0  0  0  0  0  0  0  0  0  0
   21.0420  -16.7964  -15.8403 O   0  0  0  0  0  0  0  0  0  0  0  0
   19.4661  -18.4177  -15.7748 O   0  0  0  0  0  0  0  0  0  0  0  0
  2  1  1  1
  2  7  1  0
  3  2  1  0
  4  3  1  0
  4  5  1  0
  5  9  1  0
  6  5  2  0
  7 13  1  0
  7  8  2  0
 10 11  1  0
 12 11  1  6
 12 14  1  0
 13 12  1  0
 14 15  2  0
 16 14  1  0
 16 17  1  0
 17 24  1  0
 17 18  1  1
 19 18  1  0
 20 19  2  0
 21 22  1  0
 21 20  1  0
 22 23  2  0
 23 19  1  0
 24 26  1  0
 25 24  2  0
M  END
$$$$
