ESH.pdb
     RDKit          3D

 26 26  0  0  1  0  0  0  0  0999 V2000
   22.9138  -12.9091  -19.2950 N   0  0  0  0  0  0  0  0  0  0  0  0
   23.5857  -11.5985  -19.3405 C   0  0  1  0  0  0  0  0  0  0  0  0
   22.9840  -10.8776  -20.5144 C   0  0  0  0  0  0  0  0  0  0  0  0
   21.5830  -10.4219  -20.3074 C   0  0  0  0  0  0  0  0  0  0  0  0
   21.5491   -8.9231  -20.4592 C   0  0  0  0  0  0  0  0  0  0  0  0
   21.7070   -8.1690  -19.4634 O   0  0  0  0  0  0  0  0  0  0  0  0
   23.4625  -10.9025  -18.0635 C   0  0  0  0  0  0  0  0  0  0  0  0
   22.4743  -11.1110  -17.3305 O   0  0  0  0  0  0  0  0  0  0  0  0
   21.3443   -8.3200  -21.6922 O   0  0  0  0  0  0  0  0  0  0  0  0
   26.6304   -8.7778  -16.3799 O   0  0  0  0  0  0  0  0  0  0  0  0
   25.6059   -9.3616  -15.6531 C   0  0  0  0  0  0  0  0  0  0  0  0
   24.2796   -9.3111  -16.3792 C   0  0  2  0  0  0  0  0  0  0  0  0
   24.4472   -9.9887  -17.6344 N   0  0  0  0  0  0  0  0  0  0  0  0
   23.7849   -7.9241  -16.5365 C   0  0  0  0  0  0  0  0  0  0  0  0
   24.0482   -7.3185  -17.6071 O   0  0  0  0  0  0  0  0  0  0  0  0
   23.0302   -7.2368  -15.5488 N   0  0  0  0  0  0  0  0  0  0  0  0
   22.6499   -5.8234  -15.7033 C   0  0  1  0  0  0  0  0  0  0  0  0
   21.2902   -5.6849  -15.0616 C   0  0  0  0  0  0  0  0  0  0  0  0
   20.2434   -6.1891  -15.9872 C   0  0  0  0  0  0  0  0  0  0  0  0
   20.4622   -6.6689  -17.2813 C   0  0  0  0  0  0  0  0  0  0  0  0
   19.2952   -7.0421  -17.8334 N   0  0  0  0  0  0  0  0  0  0  0  0
   18.3477   -6.8060  -16.9110 C   0  0  0  0  0  0  0  0  0  0  0  0
   18.9102   -6.2934  -15.7992 N   0  0  0  0  0  0  0  0  0  0  0  0
   23.6724   -4.9377  -15.1080 C   0  0  0  0  0  0  0  0  0  0  0  0
   24.6523   -5.4253  -14.5020 O   0  0  0  0  0  0  0  0  0  0  0  0
   23.5686   -3.5694  -15.2074 O   0  0  0  0  0  0  0  0  0  0  0  0
  2  1  1  1
  2  7  1  0
  3  2  1  0
  4  3  1  0
  4  5  1  0
  5  9  1  0
  6  5  2  0
  7 13  1  0
  7  8  2  0
 10 11  1  0
 12 11  1  6
 12 14  1  0
 13 12  1  0
 14 15  2  0
 16 14  1  0
 16 17  1  0
 17 24  1  0
 17 18  1  1
 19 18  1  0
 20 19  2  0
 21 22  1  0
 21 20  1  0
 22 23  2  0
 23 19  1  0
 24 26  1  0
 25 24  2  0
M  END
$$$$
