ESH.pdb
     RDKit          3D

 26 26  0  0  1  0  0  0  0  0999 V2000
   25.5573  -20.6725  -10.0015 N   0  0  0  0  0  0  0  0  0  0  0  0
   25.2668  -21.2763  -11.3138 C   0  0  1  0  0  0  0  0  0  0  0  0
   23.8182  -21.6750  -11.2624 C   0  0  0  0  0  0  0  0  0  0  0  0
   22.8690  -20.5373  -11.1281 C   0  0  0  0  0  0  0  0  0  0  0  0
   21.4710  -21.0963  -11.0689 C   0  0  0  0  0  0  0  0  0  0  0  0
   20.9444  -21.6285  -12.0812 O   0  0  0  0  0  0  0  0  0  0  0  0
   25.6145  -20.3637  -12.3986 C   0  0  0  0  0  0  0  0  0  0  0  0
   25.5010  -19.1313  -12.2394 O   0  0  0  0  0  0  0  0  0  0  0  0
   20.7151  -21.0468   -9.9061 O   0  0  0  0  0  0  0  0  0  0  0  0
   27.7103  -21.6583  -15.7648 O   0  0  0  0  0  0  0  0  0  0  0  0
   27.7821  -20.3809  -15.2340 C   0  0  0  0  0  0  0  0  0  0  0  0
   26.4607  -19.9169  -14.6616 C   0  0  2  0  0  0  0  0  0  0  0  0
   26.0813  -20.8496  -13.6374 N   0  0  0  0  0  0  0  0  0  0  0  0
   25.4256  -19.7614  -15.7091 C   0  0  0  0  0  0  0  0  0  0  0  0
   24.7385  -20.7687  -16.0180 O   0  0  0  0  0  0  0  0  0  0  0  0
   25.1627  -18.5407  -16.3862 N   0  0  0  0  0  0  0  0  0  0  0  0
   24.1244  -18.4340  -17.4238 C   0  0  1  0  0  0  0  0  0  0  0  0
   23.7076  -16.9829  -17.4488 C   0  0  0  0  0  0  0  0  0  0  0  0
   22.7676  -16.7104  -16.3312 C   0  0  0  0  0  0  0  0  0  0  0  0
   22.2228  -17.6686  -15.4723 C   0  0  0  0  0  0  0  0  0  0  0  0
   21.4140  -17.0739  -14.5789 N   0  0  0  0  0  0  0  0  0  0  0  0
   21.4403  -15.7608  -14.8601 C   0  0  0  0  0  0  0  0  0  0  0  0
   22.2516  -15.5349  -15.9119 N   0  0  0  0  0  0  0  0  0  0  0  0
   24.6310  -18.9211  -18.7240 C   0  0  0  0  0  0  0  0  0  0  0  0
   25.8447  -18.8123  -19.0077 O   0  0  0  0  0  0  0  0  0  0  0  0
   23.7851  -19.4997  -19.6418 O   0  0  0  0  0  0  0  0  0  0  0  0
  2  1  1  1
  2  7  1  0
  3  2  1  0
  4  3  1  0
  4  5  1  0
  5  9  1  0
  6  5  2  0
  7 13  1  0
  7  8  2  0
 10 11  1  0
 12 11  1  6
 12 14  1  0
 13 12  1  0
 14 15  2  0
 16 14  1  0
 16 17  1  0
 17 24  1  0
 17 18  1  6
 19 18  1  0
 20 19  2  0
 21 22  1  0
 21 20  1  0
 22 23  2  0
 23 19  1  0
 24 26  1  0
 25 24  2  0
M  END
$$$$
