ESH.pdb
     RDKit          3D

 26 26  0  0  1  0  0  0  0  0999 V2000
   41.7221   -0.4434   -6.1680 N   0  0  0  0  0  0  0  0  0  0  0  0
   40.3430   -0.9603   -6.1216 C   0  0  1  0  0  0  0  0  0  0  0  0
   40.3972   -2.1747   -5.2372 C   0  0  0  0  0  0  0  0  0  0  0  0
   41.1139   -3.3371   -5.8275 C   0  0  0  0  0  0  0  0  0  0  0  0
   40.9737   -4.5039   -4.8842 C   0  0  0  0  0  0  0  0  0  0  0  0
   41.9842   -5.0150   -4.3340 O   0  0  0  0  0  0  0  0  0  0  0  0
   39.4103    0.0748   -5.6871 C   0  0  0  0  0  0  0  0  0  0  0  0
   39.7579    0.9081   -4.8257 O   0  0  0  0  0  0  0  0  0  0  0  0
   39.7356   -5.0563   -4.5875 O   0  0  0  0  0  0  0  0  0  0  0  0
   35.5849    2.7374   -6.5430 O   0  0  0  0  0  0  0  0  0  0  0  0
   36.4431    1.7119   -6.9047 C   0  0  0  0  0  0  0  0  0  0  0  0
   37.1995    1.1463   -5.7229 C   0  0  2  0  0  0  0  0  0  0  0  0
   38.1094    0.1551   -6.2254 N   0  0  0  0  0  0  0  0  0  0  0  0
   36.2887    0.6155   -4.6828 C   0  0  0  0  0  0  0  0  0  0  0  0
   36.0627   -0.6218   -4.6680 O   0  0  0  0  0  0  0  0  0  0  0  0
   35.6547    1.4218   -3.7002 N   0  0  0  0  0  0  0  0  0  0  0  0
   34.8080    0.8420   -2.6453 C   0  0  1  0  0  0  0  0  0  0  0  0
   35.7077    0.6470   -1.4486 C   0  0  0  0  0  0  0  0  0  0  0  0
   35.9554   -0.8023   -1.2363 C   0  0  0  0  0  0  0  0  0  0  0  0
   35.4520   -1.8394   -2.0262 C   0  0  0  0  0  0  0  0  0  0  0  0
   35.8737   -3.0228   -1.5490 N   0  0  0  0  0  0  0  0  0  0  0  0
   36.6322   -2.7491   -0.4748 C   0  0  0  0  0  0  0  0  0  0  0  0
   36.6858   -1.4168   -0.2809 N   0  0  0  0  0  0  0  0  0  0  0  0
   33.6454    1.7118   -2.3695 C   0  0  0  0  0  0  0  0  0  0  0  0
   33.5712    2.8475   -2.8892 O   0  0  0  0  0  0  0  0  0  0  0  0
   32.6287    1.2939   -1.5421 O   0  0  0  0  0  0  0  0  0  0  0  0
  2  1  1  1
  2  7  1  0
  3  2  1  0
  4  3  1  0
  4  5  1  0
  5  9  1  0
  6  5  2  0
  7 13  1  0
  7  8  2  0
 10 11  1  0
 12 11  1  6
 12 14  1  0
 13 12  1  0
 14 15  2  0
 16 14  1  0
 16 17  1  0
 17 24  1  0
 17 18  1  1
 19 18  1  0
 20 19  2  0
 21 22  1  0
 21 20  1  0
 22 23  2  0
 23 19  1  0
 24 26  1  0
 25 24  2  0
M  END
$$$$
