ESH.pdb
     RDKit          3D

 26 26  0  0  1  0  0  0  0  0999 V2000
   16.8748  -13.3755  -14.5256 N   0  0  0  0  0  0  0  0  0  0  0  0
   16.1673  -12.0843  -14.5839 C   0  0  1  0  0  0  0  0  0  0  0  0
   14.7315  -12.3967  -14.2662 C   0  0  0  0  0  0  0  0  0  0  0  0
   13.8969  -12.7366  -15.4499 C   0  0  0  0  0  0  0  0  0  0  0  0
   12.4890  -12.9883  -14.9755 C   0  0  0  0  0  0  0  0  0  0  0  0
   11.9669  -14.1294  -15.0778 O   0  0  0  0  0  0  0  0  0  0  0  0
   16.7924  -11.1044  -13.7011 C   0  0  0  0  0  0  0  0  0  0  0  0
   17.2581  -11.4621  -12.6000 O   0  0  0  0  0  0  0  0  0  0  0  0
   11.7189  -11.9806  -14.4120 O   0  0  0  0  0  0  0  0  0  0  0  0
   18.8366   -6.8240  -13.1797 O   0  0  0  0  0  0  0  0  0  0  0  0
   18.2501   -7.8015  -13.9667 C   0  0  0  0  0  0  0  0  0  0  0  0
   17.4642   -8.8055  -13.1525 C   0  0  2  0  0  0  0  0  0  0  0  0
   16.8829   -9.7461  -14.0693 N   0  0  0  0  0  0  0  0  0  0  0  0
   16.4576   -8.1514  -12.2853 C   0  0  0  0  0  0  0  0  0  0  0  0
   15.3679   -7.7976  -12.8044 O   0  0  0  0  0  0  0  0  0  0  0  0
   16.6504   -7.8998  -10.9007 N   0  0  0  0  0  0  0  0  0  0  0  0
   15.6144   -7.2600  -10.0740 C   0  0  1  0  0  0  0  0  0  0  0  0
   14.9771   -8.3692   -9.2720 C   0  0  0  0  0  0  0  0  0  0  0  0
   13.8718   -7.8207   -8.4447 C   0  0  0  0  0  0  0  0  0  0  0  0
   13.5196   -6.4719   -8.3460 C   0  0  0  0  0  0  0  0  0  0  0  0
   12.4756   -6.3325   -7.5114 N   0  0  0  0  0  0  0  0  0  0  0  0
   12.1653   -7.5675   -7.0840 C   0  0  0  0  0  0  0  0  0  0  0  0
   13.0000   -8.4668   -7.6407 N   0  0  0  0  0  0  0  0  0  0  0  0
   16.1984   -6.1915   -9.2364 C   0  0  0  0  0  0  0  0  0  0  0  0
   17.3935   -6.2588   -8.8726 O   0  0  0  0  0  0  0  0  0  0  0  0
   15.4457   -5.1093   -8.8426 O   0  0  0  0  0  0  0  0  0  0  0  0
  2  1  1  1
  2  7  1  0
  3  2  1  0
  4  3  1  0
  4  5  1  0
  5  9  1  0
  6  5  2  0
  7 13  1  0
  7  8  2  0
 10 11  1  0
 12 11  1  6
 12 14  1  0
 13 12  1  0
 14 15  2  0
 16 14  1  0
 16 17  1  0
 17 24  1  0
 17 18  1  1
 19 18  1  0
 20 19  2  0
 21 22  1  0
 21 20  1  0
 22 23  2  0
 23 19  1  0
 24 26  1  0
 25 24  2  0
M  END
$$$$
