ESH.pdb
     RDKit          3D

 26 26  0  0  1  0  0  0  0  0999 V2000
   28.1453  -21.6025  -16.1517 N   0  0  0  0  0  0  0  0  0  0  0  0
   27.9543  -20.6648  -15.0313 C   0  0  1  0  0  0  0  0  0  0  0  0
   27.9189  -19.2962  -15.6525 C   0  0  0  0  0  0  0  0  0  0  0  0
   26.7743  -19.0661  -16.5747 C   0  0  0  0  0  0  0  0  0  0  0  0
   26.8616  -17.6521  -17.0881 C   0  0  0  0  0  0  0  0  0  0  0  0
   27.9761  -17.0839  -17.2305 O   0  0  0  0  0  0  0  0  0  0  0  0
   26.7720  -21.0156  -14.2506 C   0  0  0  0  0  0  0  0  0  0  0  0
   25.7804  -21.5243  -14.8120 O   0  0  0  0  0  0  0  0  0  0  0  0
   25.7264  -16.9266  -17.4214 O   0  0  0  0  0  0  0  0  0  0  0  0
   24.7027  -21.1221   -9.8681 O   0  0  0  0  0  0  0  0  0  0  0  0
   25.7962  -20.8369  -10.6692 C   0  0  0  0  0  0  0  0  0  0  0  0
   25.5432  -21.1513  -12.1273 C   0  0  2  0  0  0  0  0  0  0  0  0
   26.7248  -20.7899  -12.8594 N   0  0  0  0  0  0  0  0  0  0  0  0
   24.3245  -20.4816  -12.6366 C   0  0  0  0  0  0  0  0  0  0  0  0
   24.3992  -19.2624  -12.9365 O   0  0  0  0  0  0  0  0  0  0  0  0
   23.0750  -21.1356  -12.8065 N   0  0  0  0  0  0  0  0  0  0  0  0
   21.8587  -20.4025  -13.1927 C   0  0  1  0  0  0  0  0  0  0  0  0
   21.4589  -20.9414  -14.5453 C   0  0  0  0  0  0  0  0  0  0  0  0
   20.2429  -20.2374  -15.0278 C   0  0  0  0  0  0  0  0  0  0  0  0
   19.5719  -19.2141  -14.3531 C   0  0  0  0  0  0  0  0  0  0  0  0
   18.5149  -18.8069  -15.0762 N   0  0  0  0  0  0  0  0  0  0  0  0
   18.5090  -19.5547  -16.1919 C   0  0  0  0  0  0  0  0  0  0  0  0
   19.5445  -20.4165  -16.1697 N   0  0  0  0  0  0  0  0  0  0  0  0
   20.8066  -20.5554  -12.1660 C   0  0  0  0  0  0  0  0  0  0  0  0
   20.8367  -21.5223  -11.3727 O   0  0  0  0  0  0  0  0  0  0  0  0
   19.7806  -19.6447  -12.0624 O   0  0  0  0  0  0  0  0  0  0  0  0
  2  1  1  6
  2  7  1  0
  3  2  1  0
  4  3  1  0
  4  5  1  0
  5  9  1  0
  6  5  2  0
  7 13  1  0
  7  8  2  0
 10 11  1  0
 12 11  1  1
 12 14  1  0
 13 12  1  0
 14 15  2  0
 16 14  1  0
 16 17  1  0
 17 24  1  0
 17 18  1  6
 19 18  1  0
 20 19  2  0
 21 22  1  0
 21 20  1  0
 22 23  2  0
 23 19  1  0
 24 26  1  0
 25 24  2  0
M  END
$$$$
