ESH.pdb
     RDKit          3D

 26 26  0  0  1  0  0  0  0  0999 V2000
   31.1571  -39.1889   -5.1522 N   0  0  0  0  0  0  0  0  0  0  0  0
   30.8535  -37.8641   -5.7213 C   0  0  1  0  0  0  0  0  0  0  0  0
   31.1711  -37.9725   -7.1867 C   0  0  0  0  0  0  0  0  0  0  0  0
   32.6244  -37.9766   -7.5051 C   0  0  0  0  0  0  0  0  0  0  0  0
   33.1000  -36.5474   -7.5478 C   0  0  0  0  0  0  0  0  0  0  0  0
   34.0650  -36.1659   -6.8348 O   0  0  0  0  0  0  0  0  0  0  0  0
   29.4826  -37.4655   -5.4179 C   0  0  0  0  0  0  0  0  0  0  0  0
   28.6508  -37.3357   -6.3390 O   0  0  0  0  0  0  0  0  0  0  0  0
   32.4981  -35.6033   -8.3679 O   0  0  0  0  0  0  0  0  0  0  0  0
   28.0232  -36.8286   -1.4458 O   0  0  0  0  0  0  0  0  0  0  0  0
   27.3119  -37.3807   -2.4984 C   0  0  0  0  0  0  0  0  0  0  0  0
   27.7206  -36.8069   -3.8372 C   0  0  2  0  0  0  0  0  0  0  0  0
   29.0723  -37.2208   -4.0911 N   0  0  0  0  0  0  0  0  0  0  0  0
   27.5510  -35.3366   -3.8866 C   0  0  0  0  0  0  0  0  0  0  0  0
   28.5189  -34.6158   -3.5317 O   0  0  0  0  0  0  0  0  0  0  0  0
   26.3589  -34.6917   -4.3114 N   0  0  0  0  0  0  0  0  0  0  0  0
   26.2359  -33.2255   -4.3437 C   0  0  1  0  0  0  0  0  0  0  0  0
   25.2432  -32.9143   -5.4380 C   0  0  0  0  0  0  0  0  0  0  0  0
   25.9009  -33.0389   -6.7641 C   0  0  0  0  0  0  0  0  0  0  0  0
   27.2096  -33.4754   -6.9870 C   0  0  0  0  0  0  0  0  0  0  0  0
   27.4763  -33.4651   -8.3041 N   0  0  0  0  0  0  0  0  0  0  0  0
   26.3605  -33.0306   -8.9127 C   0  0  0  0  0  0  0  0  0  0  0  0
   25.4097  -32.7726   -7.9936 N   0  0  0  0  0  0  0  0  0  0  0  0
   25.8330  -32.7042   -3.0207 C   0  0  0  0  0  0  0  0  0  0  0  0
   25.6358  -33.4903   -2.0676 O   0  0  0  0  0  0  0  0  0  0  0  0
   25.6679  -31.3545   -2.8116 O   0  0  0  0  0  0  0  0  0  0  0  0
  2  1  1  1
  2  7  1  0
  3  2  1  0
  4  3  1  0
  4  5  1  0
  5  9  1  0
  6  5  2  0
  7 13  1  0
  7  8  2  0
 10 11  1  0
 12 11  1  1
 12 14  1  0
 13 12  1  0
 14 15  2  0
 16 14  1  0
 16 17  1  0
 17 24  1  0
 17 18  1  6
 19 18  1  0
 20 19  2  0
 21 22  1  0
 21 20  1  0
 22 23  2  0
 23 19  1  0
 24 26  1  0
 25 24  2  0
M  END
$$$$
