ESH.pdb
     RDKit          3D

 26 26  0  0  1  0  0  0  0  0999 V2000
   22.9000  -11.7068  -15.3249 N   0  0  0  0  0  0  0  0  0  0  0  0
   22.3540  -10.8148  -16.3629 C   0  0  1  0  0  0  0  0  0  0  0  0
   20.9108  -11.2074  -16.5136 C   0  0  0  0  0  0  0  0  0  0  0  0
   20.2077  -11.4796  -15.2310 C   0  0  0  0  0  0  0  0  0  0  0  0
   18.7743  -11.8225  -15.5445 C   0  0  0  0  0  0  0  0  0  0  0  0
   18.4720  -12.9342  -16.0526 O   0  0  0  0  0  0  0  0  0  0  0  0
   22.5767   -9.4138  -16.0193 C   0  0  0  0  0  0  0  0  0  0  0  0
   22.3043   -9.0000  -14.8739 O   0  0  0  0  0  0  0  0  0  0  0  0
   17.7396  -10.9340  -15.2878 O   0  0  0  0  0  0  0  0  0  0  0  0
   25.6202   -7.0781  -17.0369 O   0  0  0  0  0  0  0  0  0  0  0  0
   24.3929   -6.5625  -17.4199 C   0  0  0  0  0  0  0  0  0  0  0  0
   23.2492   -7.1242  -16.6043 C   0  0  2  0  0  0  0  0  0  0  0  0
   23.0989   -8.5065  -16.9641 N   0  0  0  0  0  0  0  0  0  0  0  0
   22.0030   -6.3447  -16.7847 C   0  0  0  0  0  0  0  0  0  0  0  0
   21.0525   -6.8823  -17.4091 O   0  0  0  0  0  0  0  0  0  0  0  0
   21.8176   -5.0248  -16.2939 N   0  0  0  0  0  0  0  0  0  0  0  0
   20.5362   -4.3147  -16.4345 C   0  0  1  0  0  0  0  0  0  0  0  0
   19.5426   -5.0764  -15.5904 C   0  0  0  0  0  0  0  0  0  0  0  0
   18.2589   -4.3312  -15.5292 C   0  0  0  0  0  0  0  0  0  0  0  0
   17.9553   -3.1707  -16.2460 C   0  0  0  0  0  0  0  0  0  0  0  0
   16.7087   -2.7645  -15.9506 N   0  0  0  0  0  0  0  0  0  0  0  0
   16.2237   -3.6475  -15.0622 C   0  0  0  0  0  0  0  0  0  0  0  0
   17.1497   -4.5917  -14.8043 N   0  0  0  0  0  0  0  0  0  0  0  0
   20.6765   -2.8974  -16.0394 C   0  0  0  0  0  0  0  0  0  0  0  0
   21.6024   -2.5453  -15.2753 O   0  0  0  0  0  0  0  0  0  0  0  0
   19.7988   -1.9435  -16.5004 O   0  0  0  0  0  0  0  0  0  0  0  0
  2  1  1  1
  2  7  1  0
  3  2  1  0
  4  3  1  0
  4  5  1  0
  5  9  1  0
  6  5  2  0
  7 13  1  0
  7  8  2  0
 10 11  1  0
 12 11  1  6
 12 14  1  0
 13 12  1  0
 14 15  2  0
 16 14  1  0
 16 17  1  0
 17 24  1  0
 17 18  1  1
 19 18  1  0
 20 19  2  0
 21 22  1  0
 21 20  1  0
 22 23  2  0
 23 19  1  0
 24 26  1  0
 25 24  2  0
M  END
$$$$
