ESH.pdb
     RDKit          3D

 26 26  0  0  1  0  0  0  0  0999 V2000
   16.8651  -12.5979  -16.7321 N   0  0  0  0  0  0  0  0  0  0  0  0
   17.5589  -12.3489  -15.4563 C   0  0  1  0  0  0  0  0  0  0  0  0
   18.8373  -13.1361  -15.5322 C   0  0  0  0  0  0  0  0  0  0  0  0
   19.6683  -12.8501  -16.7327 C   0  0  0  0  0  0  0  0  0  0  0  0
   19.8476  -14.1362  -17.4972 C   0  0  0  0  0  0  0  0  0  0  0  0
   20.6960  -14.9919  -17.1324 O   0  0  0  0  0  0  0  0  0  0  0  0
   17.7315  -10.9181  -15.2247 C   0  0  0  0  0  0  0  0  0  0  0  0
   17.8241  -10.1350  -16.1918 O   0  0  0  0  0  0  0  0  0  0  0  0
   19.0909  -14.4256  -18.6240 O   0  0  0  0  0  0  0  0  0  0  0  0
   16.2214   -8.8656  -12.0985 O   0  0  0  0  0  0  0  0  0  0  0  0
   17.5717   -8.6476  -12.3176 C   0  0  0  0  0  0  0  0  0  0  0  0
   17.9903   -8.9838  -13.7320 C   0  0  2  0  0  0  0  0  0  0  0  0
   17.7966  -10.3949  -13.9168 N   0  0  0  0  0  0  0  0  0  0  0  0
   19.3776   -8.5520  -14.0182 C   0  0  0  0  0  0  0  0  0  0  0  0
   20.2379   -9.4387  -14.2544 O   0  0  0  0  0  0  0  0  0  0  0  0
   19.7944   -7.1943  -14.0418 N   0  0  0  0  0  0  0  0  0  0  0  0
   21.1316   -6.7984  -14.5120 C   0  0  1  0  0  0  0  0  0  0  0  0
   21.1833   -7.1623  -15.9765 C   0  0  0  0  0  0  0  0  0  0  0  0
   22.4748   -6.7171  -16.5601 C   0  0  0  0  0  0  0  0  0  0  0  0
   23.6751   -7.4317  -16.5236 C   0  0  0  0  0  0  0  0  0  0  0  0
   24.6406   -6.7348  -17.1466 N   0  0  0  0  0  0  0  0  0  0  0  0
   24.0699   -5.5964  -17.5738 C   0  0  0  0  0  0  0  0  0  0  0  0
   22.7686   -5.5789  -17.2249 N   0  0  0  0  0  0  0  0  0  0  0  0
   21.3735   -5.3631  -14.2554 C   0  0  0  0  0  0  0  0  0  0  0  0
   20.4376   -4.5390  -14.3555 O   0  0  0  0  0  0  0  0  0  0  0  0
   22.6232   -4.9074  -13.9039 O   0  0  0  0  0  0  0  0  0  0  0  0
  2  1  1  6
  2  7  1  0
  3  2  1  0
  4  3  1  0
  4  5  1  0
  5  9  1  0
  6  5  2  0
  7 13  1  0
  7  8  2  0
 10 11  1  0
 12 11  1  1
 12 14  1  0
 13 12  1  0
 14 15  2  0
 16 14  1  0
 16 17  1  0
 17 24  1  0
 17 18  1  6
 19 18  1  0
 20 19  2  0
 21 22  1  0
 21 20  1  0
 22 23  2  0
 23 19  1  0
 24 26  1  0
 25 24  2  0
M  END
$$$$
