VMC.pdb
     RDKit          3D

 22 21  0  0  1  0  0  0  0  0999 V2000
   21.3209  -13.5779  -17.3223 C   0  0  0  0  0  0  0  0  0  0  0  0
   20.1192  -13.0388  -18.0587 C   0  0  2  0  0  0  0  0  0  0  0  0
   19.9075  -13.9638  -19.2648 C   0  0  0  0  0  0  0  0  0  0  0  0
   20.3611  -11.6619  -18.6181 C   0  0  2  0  0  0  0  0  0  0  0  0
   21.4289  -11.7475  -19.5803 N   0  0  0  0  0  0  0  0  0  0  0  0
   20.6071  -10.6504  -17.5710 C   0  0  0  0  0  0  0  0  0  0  0  0
   19.7385  -10.4795  -16.6935 O   0  0  0  0  0  0  0  0  0  0  0  0
   26.7177  -11.2600  -14.8118 C   0  0  0  0  0  0  0  0  0  0  0  0
   26.0331   -9.7564  -15.5431 S   0  0  0  0  0  0  0  0  0  0  0  0
   24.2248   -9.9210  -15.8149 C   0  0  0  0  0  0  0  0  0  0  0  0
   23.6878   -8.7235  -16.5097 C   0  0  0  0  0  0  0  0  0  0  0  0
   22.1748   -8.8666  -16.6588 C   0  0  2  0  0  0  0  0  0  0  0  0
   21.8116   -9.9140  -17.5979 N   0  0  0  0  0  0  0  0  0  0  0  0
   21.5310   -7.5952  -17.0412 C   0  0  0  0  0  0  0  0  0  0  0  0
   21.4264   -7.2054  -18.2424 O   0  0  0  0  0  0  0  0  0  0  0  0
   21.0020   -6.7684  -15.9998 N   0  0  0  0  0  0  0  0  0  0  0  0
   20.3257   -5.5242  -16.2377 C   0  0  1  0  0  0  0  0  0  0  0  0
   19.0691   -5.8461  -17.0584 C   0  0  0  0  0  0  0  0  0  0  0  0
   18.0196   -4.3755  -17.2080 S   0  0  0  0  0  0  0  0  0  0  0  0
   19.8820   -4.8535  -15.0110 C   0  0  0  0  0  0  0  0  0  0  0  0
   19.8356   -5.4080  -13.8783 O   0  0  0  0  0  0  0  0  0  0  0  0
   19.4865   -3.5257  -15.0901 O   0  0  0  0  0  0  0  0  0  0  0  0
  2  1  1  6
  2  4  1  0
  2  3  1  0
  4  6  1  0
  4  5  1  6
  6  7  2  0
  8  9  1  0
 10 11  1  0
 10  9  1  0
 12 11  1  6
 12 14  1  0
 13 12  1  0
 13  6  1  0
 14 16  1  0
 14 15  2  0
 16 17  1  0
 17 20  1  0
 17 18  1  6
 19 18  1  0
 20 21  2  0
 20 22  1  0
M  END
$$$$
