VMC.pdb
     RDKit          3D

 22 21  0  0  1  0  0  0  0  0999 V2000
   27.1835  -19.9157  -14.7859 C   0  0  0  0  0  0  0  0  0  0  0  0
   25.8981  -20.6554  -15.0645 C   0  0  2  0  0  0  0  0  0  0  0  0
   25.3764  -20.1151  -16.4028 C   0  0  0  0  0  0  0  0  0  0  0  0
   24.8331  -20.3568  -14.0429 C   0  0  2  0  0  0  0  0  0  0  0  0
   24.6750  -18.9279  -13.9611 N   0  0  0  0  0  0  0  0  0  0  0  0
   25.0999  -20.9841  -12.7332 C   0  0  0  0  0  0  0  0  0  0  0  0
   25.1075  -22.2284  -12.6604 O   0  0  0  0  0  0  0  0  0  0  0  0
   28.6823  -19.1312   -7.1403 C   0  0  0  0  0  0  0  0  0  0  0  0
   26.9530  -18.6455   -6.9460 S   0  0  0  0  0  0  0  0  0  0  0  0
   25.8605  -19.6569   -8.0203 C   0  0  0  0  0  0  0  0  0  0  0  0
   26.3673  -19.6741   -9.4160 C   0  0  0  0  0  0  0  0  0  0  0  0
   25.5123  -20.6268  -10.2484 C   0  0  2  0  0  0  0  0  0  0  0  0
   25.3364  -20.1584  -11.6124 N   0  0  0  0  0  0  0  0  0  0  0  0
   24.1996  -20.8840   -9.6258 C   0  0  0  0  0  0  0  0  0  0  0  0
   23.2117  -20.0988   -9.7425 O   0  0  0  0  0  0  0  0  0  0  0  0
   24.0424  -22.0793   -8.8548 N   0  0  0  0  0  0  0  0  0  0  0  0
   22.8176  -22.4511   -8.2038 C   0  0  1  0  0  0  0  0  0  0  0  0
   23.1997  -23.2628   -6.9583 C   0  0  0  0  0  0  0  0  0  0  0  0
   21.7730  -24.2071   -6.3587 S   0  0  0  0  0  0  0  0  0  0  0  0
   22.0242  -21.3050   -7.7476 C   0  0  0  0  0  0  0  0  0  0  0  0
   20.7731  -21.3305   -7.5838 O   0  0  0  0  0  0  0  0  0  0  0  0
   22.6808  -20.1130   -7.4761 O   0  0  0  0  0  0  0  0  0  0  0  0
  2  1  1  1
  2  4  1  0
  2  3  1  0
  4  6  1  0
  4  5  1  1
  6  7  2  0
  8  9  1  0
 10 11  1  0
 10  9  1  0
 12 11  1  1
 12 14  1  0
 13 12  1  0
 13  6  1  0
 14 16  1  0
 14 15  2  0
 16 17  1  0
 17 20  1  0
 17 18  1  1
 19 18  1  0
 20 21  2  0
 20 22  1  0
M  END
$$$$
