VMC.pdb
     RDKit          3D

 22 21  0  0  1  0  0  0  0  0999 V2000
   28.7446  -26.0184  -18.5476 C   0  0  0  0  0  0  0  0  0  0  0  0
   28.9948  -26.3542  -17.0979 C   0  0  2  0  0  0  0  0  0  0  0  0
   30.0711  -25.3738  -16.6125 C   0  0  0  0  0  0  0  0  0  0  0  0
   29.5686  -27.7350  -16.9210 C   0  0  2  0  0  0  0  0  0  0  0  0
   30.8148  -27.8006  -17.6393 N   0  0  0  0  0  0  0  0  0  0  0  0
   28.6246  -28.8039  -17.3037 C   0  0  0  0  0  0  0  0  0  0  0  0
   28.7052  -29.2859  -18.4503 O   0  0  0  0  0  0  0  0  0  0  0  0
   26.4556  -33.7638  -13.6888 C   0  0  0  0  0  0  0  0  0  0  0  0
   28.0182  -33.6091  -14.5825 S   0  0  0  0  0  0  0  0  0  0  0  0
   27.9831  -32.1732  -15.7260 C   0  0  0  0  0  0  0  0  0  0  0  0
   26.7402  -31.3827  -15.5375 C   0  0  0  0  0  0  0  0  0  0  0  0
   26.6799  -30.2831  -16.5953 C   0  0  2  0  0  0  0  0  0  0  0  0
   27.6669  -29.2424  -16.3634 N   0  0  0  0  0  0  0  0  0  0  0  0
   25.3330  -29.6910  -16.7056 C   0  0  0  0  0  0  0  0  0  0  0  0
   24.9488  -28.7078  -16.0044 O   0  0  0  0  0  0  0  0  0  0  0  0
   24.4227  -30.2599  -17.6521 N   0  0  0  0  0  0  0  0  0  0  0  0
   23.0912  -29.7683  -17.8703 C   0  0  1  0  0  0  0  0  0  0  0  0
   22.6199  -30.3316  -19.2181 C   0  0  0  0  0  0  0  0  0  0  0  0
   23.6081  -29.6394  -20.5712 S   0  0  0  0  0  0  0  0  0  0  0  0
   22.1288  -30.2104  -16.8555 C   0  0  0  0  0  0  0  0  0  0  0  0
   22.1832  -31.3252  -16.2665 O   0  0  0  0  0  0  0  0  0  0  0  0
   21.0894  -29.3565  -16.5144 O   0  0  0  0  0  0  0  0  0  0  0  0
  2  1  1  6
  2  4  1  0
  2  3  1  0
  4  6  1  0
  4  5  1  6
  6  7  2  0
  8  9  1  0
 10 11  1  0
 10  9  1  0
 12 11  1  1
 12 14  1  0
 13 12  1  0
 13  6  1  0
 14 16  1  0
 14 15  2  0
 16 17  1  0
 17 20  1  0
 17 18  1  6
 19 18  1  0
 20 21  2  0
 20 22  1  0
M  END
$$$$
