VMC.pdb
     RDKit          3D

 22 21  0  0  1  0  0  0  0  0999 V2000
   18.7996  -13.6363  -16.1604 C   0  0  0  0  0  0  0  0  0  0  0  0
   17.6013  -13.0437  -16.8605 C   0  0  2  0  0  0  0  0  0  0  0  0
   17.2683  -13.9965  -18.0164 C   0  0  0  0  0  0  0  0  0  0  0  0
   17.9065  -11.7086  -17.4863 C   0  0  2  0  0  0  0  0  0  0  0  0
   18.8906  -11.9090  -18.5181 N   0  0  0  0  0  0  0  0  0  0  0  0
   18.3061  -10.6875  -16.4976 C   0  0  0  0  0  0  0  0  0  0  0  0
   17.5201  -10.4202  -15.5680 O   0  0  0  0  0  0  0  0  0  0  0  0
   24.0494  -11.6507  -13.3452 C   0  0  0  0  0  0  0  0  0  0  0  0
   23.6589  -10.2774  -14.4524 S   0  0  0  0  0  0  0  0  0  0  0  0
   21.8468  -10.1343  -14.7100 C   0  0  0  0  0  0  0  0  0  0  0  0
   21.5319   -8.9832  -15.5937 C   0  0  0  0  0  0  0  0  0  0  0  0
   20.0249   -8.9331  -15.8343 C   0  0  2  0  0  0  0  0  0  0  0  0
   19.5588  -10.0509  -16.6370 N   0  0  0  0  0  0  0  0  0  0  0  0
   19.6011   -7.6579  -16.4437 C   0  0  0  0  0  0  0  0  0  0  0  0
   19.7227   -7.4066  -17.6798 O   0  0  0  0  0  0  0  0  0  0  0  0
   19.0264   -6.6623  -15.5913 N   0  0  0  0  0  0  0  0  0  0  0  0
   18.7248   -5.3254  -16.0201 C   0  0  1  0  0  0  0  0  0  0  0  0
   17.3955   -4.9318  -15.3611 C   0  0  0  0  0  0  0  0  0  0  0  0
   16.0387   -5.9286  -16.0333 S   0  0  0  0  0  0  0  0  0  0  0  0
   19.7245   -4.3361  -15.6039 C   0  0  0  0  0  0  0  0  0  0  0  0
   20.7393   -4.6066  -14.9042 O   0  0  0  0  0  0  0  0  0  0  0  0
   19.5529   -3.0170  -15.9991 O   0  0  0  0  0  0  0  0  0  0  0  0
  2  1  1  6
  2  4  1  0
  2  3  1  0
  4  6  1  0
  4  5  1  6
  6  7  2  0
  8  9  1  0
 10 11  1  0
 10  9  1  0
 12 11  1  6
 12 14  1  0
 13 12  1  0
 13  6  1  0
 14 16  1  0
 14 15  2  0
 16 17  1  0
 17 20  1  0
 17 18  1  1
 19 18  1  0
 20 21  2  0
 20 22  1  0
M  END
$$$$
