VMC.pdb
     RDKit          3D

 22 21  0  0  1  0  0  0  0  0999 V2000
   18.3862  -13.0586  -19.6346 C   0  0  0  0  0  0  0  0  0  0  0  0
   19.6455  -13.5638  -20.2950 C   0  0  2  0  0  0  0  0  0  0  0  0
   19.1944  -14.5808  -21.3520 C   0  0  0  0  0  0  0  0  0  0  0  0
   20.5328  -14.3136  -19.3370 C   0  0  2  0  0  0  0  0  0  0  0  0
   19.8397  -15.5043  -18.9186 N   0  0  0  0  0  0  0  0  0  0  0  0
   20.9889  -13.4829  -18.2047 C   0  0  0  0  0  0  0  0  0  0  0  0
   20.1753  -13.2126  -17.3000 O   0  0  0  0  0  0  0  0  0  0  0  0
   27.2853   -9.9288  -14.8645 C   0  0  0  0  0  0  0  0  0  0  0  0
   26.6914  -10.9607  -16.2234 S   0  0  0  0  0  0  0  0  0  0  0  0
   24.8593  -11.0797  -16.2076 C   0  0  0  0  0  0  0  0  0  0  0  0
   24.3866  -12.0319  -17.2444 C   0  0  0  0  0  0  0  0  0  0  0  0
   22.8597  -12.0437  -17.2557 C   0  0  2  0  0  0  0  0  0  0  0  0
   22.3243  -13.0246  -18.1843 N   0  0  0  0  0  0  0  0  0  0  0  0
   22.2954  -10.7109  -17.5426 C   0  0  0  0  0  0  0  0  0  0  0  0
   22.2452  -10.2161  -18.7082 O   0  0  0  0  0  0  0  0  0  0  0  0
   21.7823   -9.9467  -16.4468 N   0  0  0  0  0  0  0  0  0  0  0  0
   21.2871   -8.6049  -16.5752 C   0  0  1  0  0  0  0  0  0  0  0  0
   19.8874   -8.5808  -15.9457 C   0  0  0  0  0  0  0  0  0  0  0  0
   19.2371   -6.8888  -15.9185 S   0  0  0  0  0  0  0  0  0  0  0  0
   22.0984   -7.6096  -15.8662 C   0  0  0  0  0  0  0  0  0  0  0  0
   22.6989   -7.8309  -14.7785 O   0  0  0  0  0  0  0  0  0  0  0  0
   22.2197   -6.3420  -16.4177 O   0  0  0  0  0  0  0  0  0  0  0  0
  2  1  1  1
  2  4  1  0
  2  3  1  0
  4  6  1  0
  4  5  1  1
  6  7  2  0
  8  9  1  0
 10 11  1  0
 10  9  1  0
 12 11  1  6
 12 14  1  0
 13 12  1  0
 13  6  1  0
 14 16  1  0
 14 15  2  0
 16 17  1  0
 17 20  1  0
 17 18  1  1
 19 18  1  0
 20 21  2  0
 20 22  1  0
M  END
$$$$
