VMC.pdb
     RDKit          3D

 22 21  0  0  1  0  0  0  0  0999 V2000
   17.5883  -12.5527  -17.5538 C   0  0  0  0  0  0  0  0  0  0  0  0
   18.3773  -11.5788  -18.3941 C   0  0  2  0  0  0  0  0  0  0  0  0
   19.4560  -12.4062  -19.1061 C   0  0  0  0  0  0  0  0  0  0  0  0
   19.1070  -10.5615  -17.5575 C   0  0  2  0  0  0  0  0  0  0  0  0
   20.0600  -11.2568  -16.7320 N   0  0  0  0  0  0  0  0  0  0  0  0
   18.1971   -9.6937  -16.7834 C   0  0  0  0  0  0  0  0  0  0  0  0
   17.4004   -8.9635  -17.4043 O   0  0  0  0  0  0  0  0  0  0  0  0
   16.5319  -11.2382  -10.6287 C   0  0  0  0  0  0  0  0  0  0  0  0
   16.1744   -9.4673  -10.6277 S   0  0  0  0  0  0  0  0  0  0  0  0
   16.3322   -8.7628  -12.3158 C   0  0  0  0  0  0  0  0  0  0  0  0
   17.4350   -9.4237  -13.0589 C   0  0  0  0  0  0  0  0  0  0  0  0
   17.4777   -8.8769  -14.4840 C   0  0  2  0  0  0  0  0  0  0  0  0
   18.2592   -9.7195  -15.3730 N   0  0  0  0  0  0  0  0  0  0  0  0
   17.9744   -7.4885  -14.5323 C   0  0  0  0  0  0  0  0  0  0  0  0
   19.2046   -7.1903  -14.4724 O   0  0  0  0  0  0  0  0  0  0  0  0
   17.0147   -6.4337  -14.6524 N   0  0  0  0  0  0  0  0  0  0  0  0
   17.3653   -5.0427  -14.7193 C   0  0  1  0  0  0  0  0  0  0  0  0
   17.6298   -4.7169  -16.1957 C   0  0  0  0  0  0  0  0  0  0  0  0
   16.1581   -5.0710  -17.1933 S   0  0  0  0  0  0  0  0  0  0  0  0
   16.2983   -4.1460  -14.2620 C   0  0  0  0  0  0  0  0  0  0  0  0
   16.4225   -2.8946  -14.1560 O   0  0  0  0  0  0  0  0  0  0  0  0
   15.0715   -4.6984  -13.9223 O   0  0  0  0  0  0  0  0  0  0  0  0
  2  1  1  1
  2  4  1  0
  2  3  1  0
  4  6  1  0
  4  5  1  1
  6  7  2  0
  8  9  1  0
 10 11  1  0
 10  9  1  0
 12 11  1  1
 12 14  1  0
 13 12  1  0
 13  6  1  0
 14 16  1  0
 14 15  2  0
 16 17  1  0
 17 20  1  0
 17 18  1  6
 19 18  1  0
 20 21  2  0
 20 22  1  0
M  END
$$$$
