VMC.pdb
     RDKit          3D

 22 21  0  0  1  0  0  0  0  0999 V2000
   26.0223  -15.8145  -15.7517 C   0  0  0  0  0  0  0  0  0  0  0  0
   25.3441  -14.5414  -16.1947 C   0  0  2  0  0  0  0  0  0  0  0  0
   25.6255  -13.5045  -15.0990 C   0  0  0  0  0  0  0  0  0  0  0  0
   23.8470  -14.6858  -16.2670 C   0  0  2  0  0  0  0  0  0  0  0  0
   23.5447  -15.8681  -17.0313 N   0  0  0  0  0  0  0  0  0  0  0  0
   23.1765  -13.4765  -16.7847 C   0  0  0  0  0  0  0  0  0  0  0  0
   23.7840  -12.7669  -17.6098 O   0  0  0  0  0  0  0  0  0  0  0  0
   16.2320  -12.2391  -17.5562 C   0  0  0  0  0  0  0  0  0  0  0  0
   17.4728  -11.9359  -18.8340 S   0  0  0  0  0  0  0  0  0  0  0  0
   19.0657  -11.4043  -18.0919 C   0  0  0  0  0  0  0  0  0  0  0  0
   19.7745  -12.5607  -17.4873 C   0  0  0  0  0  0  0  0  0  0  0  0
   21.0571  -12.0697  -16.8199 C   0  0  2  0  0  0  0  0  0  0  0  0
   21.8763  -13.1653  -16.3303 N   0  0  0  0  0  0  0  0  0  0  0  0
   20.7859  -11.1116  -15.7311 C   0  0  0  0  0  0  0  0  0  0  0  0
   20.2253  -11.4399  -14.6431 O   0  0  0  0  0  0  0  0  0  0  0  0
   21.1775   -9.7483  -15.9206 N   0  0  0  0  0  0  0  0  0  0  0  0
   20.9117   -8.7046  -14.9708 C   0  0  1  0  0  0  0  0  0  0  0  0
   22.2333   -7.9578  -14.7429 C   0  0  0  0  0  0  0  0  0  0  0  0
   23.4218   -9.0257  -13.8866 S   0  0  0  0  0  0  0  0  0  0  0  0
   19.9324   -7.7189  -15.4407 C   0  0  0  0  0  0  0  0  0  0  0  0
   19.4918   -7.6666  -16.6221 O   0  0  0  0  0  0  0  0  0  0  0  0
   19.4539   -6.7806  -14.5372 O   0  0  0  0  0  0  0  0  0  0  0  0
  2  1  1  1
  2  4  1  0
  2  3  1  0
  4  6  1  0
  4  5  1  6
  6  7  2  0
  8  9  1  0
 10 11  1  0
 10  9  1  0
 12 11  1  1
 12 14  1  0
 13 12  1  0
 13  6  1  0
 14 16  1  0
 14 15  2  0
 16 17  1  0
 17 20  1  0
 17 18  1  6
 19 18  1  0
 20 21  2  0
 20 22  1  0
M  END
$$$$
