VMC.pdb
     RDKit          3D

 22 21  0  0  1  0  0  0  0  0999 V2000
   18.8964  -20.8592  -18.6031 C   0  0  0  0  0  0  0  0  0  0  0  0
   19.2888  -19.5561  -17.9512 C   0  0  2  0  0  0  0  0  0  0  0  0
   19.7404  -18.6294  -19.0880 C   0  0  0  0  0  0  0  0  0  0  0  0
   20.4728  -19.7091  -17.0335 C   0  0  2  0  0  0  0  0  0  0  0  0
   20.1484  -20.7002  -16.0407 N   0  0  0  0  0  0  0  0  0  0  0  0
   20.9159  -18.4283  -16.4476 C   0  0  0  0  0  0  0  0  0  0  0  0
   20.1576  -17.8464  -15.6477 O   0  0  0  0  0  0  0  0  0  0  0  0
   27.0446  -17.1253  -15.0490 C   0  0  0  0  0  0  0  0  0  0  0  0
   26.3930  -15.4413  -14.9886 S   0  0  0  0  0  0  0  0  0  0  0  0
   24.6028  -15.4131  -15.3951 C   0  0  0  0  0  0  0  0  0  0  0  0
   24.1668  -16.7261  -15.9348 C   0  0  0  0  0  0  0  0  0  0  0  0
   22.7101  -16.6259  -16.3816 C   0  0  2  0  0  0  0  0  0  0  0  0
   22.1772  -17.9077  -16.8107 N   0  0  0  0  0  0  0  0  0  0  0  0
   22.5216  -15.6165  -17.4411 C   0  0  0  0  0  0  0  0  0  0  0  0
   22.9907  -15.7445  -18.6113 O   0  0  0  0  0  0  0  0  0  0  0  0
   21.7720  -14.4394  -17.1241 N   0  0  0  0  0  0  0  0  0  0  0  0
   21.4830  -13.4005  -18.0725 C   0  0  1  0  0  0  0  0  0  0  0  0
   20.2411  -12.6579  -17.5603 C   0  0  0  0  0  0  0  0  0  0  0  0
   18.7986  -13.7557  -17.5762 S   0  0  0  0  0  0  0  0  0  0  0  0
   22.5570  -12.4101  -18.2033 C   0  0  0  0  0  0  0  0  0  0  0  0
   22.5173  -11.4226  -18.9882 O   0  0  0  0  0  0  0  0  0  0  0  0
   23.6922  -12.5590  -17.4191 O   0  0  0  0  0  0  0  0  0  0  0  0
  2  1  1  6
  2  4  1  0
  2  3  1  0
  4  6  1  0
  4  5  1  1
  6  7  2  0
  8  9  1  0
 10 11  1  0
 10  9  1  0
 12 11  1  6
 12 14  1  0
 13 12  1  0
 13  6  1  0
 14 16  1  0
 14 15  2  0
 16 17  1  0
 17 20  1  0
 17 18  1  1
 19 18  1  0
 20 21  2  0
 20 22  1  0
M  END
$$$$
