VMC.pdb
     RDKit          3D

 22 21  0  0  1  0  0  0  0  0999 V2000
   26.8785  -28.4461    5.3564 C   0  0  0  0  0  0  0  0  0  0  0  0
   26.9532  -29.9067    5.7278 C   0  0  2  0  0  0  0  0  0  0  0  0
   26.9138  -30.6855    4.4061 C   0  0  0  0  0  0  0  0  0  0  0  0
   25.7554  -30.3575    6.5211 C   0  0  2  0  0  0  0  0  0  0  0  0
   24.5843  -30.1991    5.6983 N   0  0  0  0  0  0  0  0  0  0  0  0
   25.6403  -29.6771    7.8264 C   0  0  0  0  0  0  0  0  0  0  0  0
   24.7970  -28.7678    7.9507 O   0  0  0  0  0  0  0  0  0  0  0  0
   29.6704  -30.4740   13.7829 C   0  0  0  0  0  0  0  0  0  0  0  0
   27.9041  -30.8506   13.8357 S   0  0  0  0  0  0  0  0  0  0  0  0
   26.9825  -29.8604   12.5944 C   0  0  0  0  0  0  0  0  0  0  0  0
   27.2445  -30.3642   11.2222 C   0  0  0  0  0  0  0  0  0  0  0  0
   26.4916  -29.4958   10.2169 C   0  0  2  0  0  0  0  0  0  0  0  0
   26.4849  -30.0766    8.8851 N   0  0  0  0  0  0  0  0  0  0  0  0
   27.0179  -28.1182   10.1682 C   0  0  0  0  0  0  0  0  0  0  0  0
   28.1012  -27.8105    9.5870 O   0  0  0  0  0  0  0  0  0  0  0  0
   26.2630  -27.0858   10.8104 N   0  0  0  0  0  0  0  0  0  0  0  0
   26.7268  -25.7347   10.9568 C   0  0  1  0  0  0  0  0  0  0  0  0
   25.7735  -24.8428   10.1494 C   0  0  0  0  0  0  0  0  0  0  0  0
   26.2094  -23.0964   10.3647 S   0  0  0  0  0  0  0  0  0  0  0  0
   26.7024  -25.2527   12.3419 C   0  0  0  0  0  0  0  0  0  0  0  0
   25.9452  -25.7156   13.2391 O   0  0  0  0  0  0  0  0  0  0  0  0
   27.5621  -24.2233   12.6985 O   0  0  0  0  0  0  0  0  0  0  0  0
  2  1  1  6
  2  4  1  0
  2  3  1  0
  4  6  1  0
  4  5  1  6
  6  7  2  0
  8  9  1  0
 10 11  1  0
 10  9  1  0
 12 11  1  1
 12 14  1  0
 13 12  1  0
 13  6  1  0
 14 16  1  0
 14 15  2  0
 16 17  1  0
 17 20  1  0
 17 18  1  6
 19 18  1  0
 20 21  2  0
 20 22  1  0
M  END
$$$$
