ITC.pdb
     RDKit          3D

 22 21  0  0  1  0  0  0  0  0999 V2000
    6.4827  -11.4501   27.4728 C   0  0  0  0  0  0  0  0  0  0  0  0
    5.9709  -12.4706   26.4972 C   0  0  0  0  0  0  0  0  0  0  0  0
    6.9805  -13.5010   26.1241 C   0  0  2  0  0  0  0  0  0  0  0  0
    8.2318  -12.7989   25.6599 C   0  0  0  0  0  0  0  0  0  0  0  0
    6.4233  -14.4479   25.0889 C   0  0  2  0  0  0  0  0  0  0  0  0
    5.2223  -15.0375   25.6348 N   0  0  0  0  0  0  0  0  0  0  0  0
    7.3873  -15.5834   24.8596 C   0  0  0  0  0  0  0  0  0  0  0  0
    7.5371  -16.4852   25.7244 O   0  0  0  0  0  0  0  0  0  0  0  0
    8.1964  -16.6167   21.1839 C   0  0  0  0  0  0  0  0  0  0  0  0
    9.4525  -16.7972   22.0127 C   0  0  1  0  0  0  0  0  0  0  0  0
   10.2760  -15.7022   21.8997 O   0  0  0  0  0  0  0  0  0  0  0  0
    8.9643  -16.8766   23.4689 C   0  0  2  0  0  0  0  0  0  0  0  0
    8.1610  -15.6878   23.6735 N   0  0  0  0  0  0  0  0  0  0  0  0
   10.1981  -16.8681   24.2911 C   0  0  0  0  0  0  0  0  0  0  0  0
   10.6156  -15.7489   24.6887 O   0  0  0  0  0  0  0  0  0  0  0  0
   10.9240  -18.0097   24.6521 N   0  0  0  0  0  0  0  0  0  0  0  0
   12.1452  -17.8628   25.4378 C   0  0  1  0  0  0  0  0  0  0  0  0
   11.7029  -17.5805   26.8597 C   0  0  0  0  0  0  0  0  0  0  0  0
   10.7805  -18.9504   27.5726 S   0  0  0  0  0  0  0  0  0  0  0  0
   13.0149  -19.0369   25.3377 C   0  0  0  0  0  0  0  0  0  0  0  0
   14.2641  -19.0190   25.9146 O   0  0  0  0  0  0  0  0  0  0  0  0
   12.6349  -20.0581   24.7326 O   0  0  0  0  0  0  0  0  0  0  0  0
  2  1  1  0
  2  3  1  0
  3  4  1  6
  5  3  1  0
  5  7  1  0
  5  6  1  1
  7  8  2  0
 10  9  1  6
 10 12  1  0
 11 10  1  0
 12 13  1  1
 13  7  1  0
 14 12  1  0
 14 15  2  0
 16 14  1  0
 17 16  1  0
 17 20  1  0
 17 18  1  1
 19 18  1  0
 20 22  2  0
 20 21  1  0
M  END
$$$$
