ITC.pdb
     RDKit          3D

 22 21  0  0  1  0  0  0  0  0999 V2000
    4.4387  -22.1528   23.5264 C   0  0  0  0  0  0  0  0  0  0  0  0
    5.9042  -22.3455   23.7914 C   0  0  0  0  0  0  0  0  0  0  0  0
    6.7538  -21.2238   23.3012 C   0  0  2  0  0  0  0  0  0  0  0  0
    8.1910  -21.6804   23.2929 C   0  0  0  0  0  0  0  0  0  0  0  0
    6.5391  -19.9840   24.1351 C   0  0  2  0  0  0  0  0  0  0  0  0
    5.2045  -19.4998   23.8661 N   0  0  0  0  0  0  0  0  0  0  0  0
    7.4830  -18.8964   23.6910 C   0  0  0  0  0  0  0  0  0  0  0  0
    7.5083  -18.5162   22.4917 O   0  0  0  0  0  0  0  0  0  0  0  0
    7.9245  -15.4789   24.8378 C   0  0  0  0  0  0  0  0  0  0  0  0
    9.2889  -16.1079   25.0382 C   0  0  1  0  0  0  0  0  0  0  0  0
    9.4205  -16.5966   26.3164 O   0  0  0  0  0  0  0  0  0  0  0  0
    9.3276  -17.2998   24.0672 C   0  0  2  0  0  0  0  0  0  0  0  0
    8.3757  -18.2582   24.5922 N   0  0  0  0  0  0  0  0  0  0  0  0
   10.7212  -17.8026   24.1281 C   0  0  0  0  0  0  0  0  0  0  0  0
   10.9389  -18.8044   24.8588 O   0  0  0  0  0  0  0  0  0  0  0  0
   11.8017  -17.2440   23.4345 N   0  0  0  0  0  0  0  0  0  0  0  0
   13.1384  -17.7978   23.6258 C   0  0  1  0  0  0  0  0  0  0  0  0
   13.8897  -17.5476   22.3334 C   0  0  0  0  0  0  0  0  0  0  0  0
   13.0071  -18.1766   20.8977 S   0  0  0  0  0  0  0  0  0  0  0  0
   13.8142  -17.2278   24.7933 C   0  0  0  0  0  0  0  0  0  0  0  0
   15.0957  -17.6201   25.1062 O   0  0  0  0  0  0  0  0  0  0  0  0
   13.2394  -16.3867   25.5111 O   0  0  0  0  0  0  0  0  0  0  0  0
  2  1  1  0
  2  3  1  0
  3  4  1  1
  5  3  1  0
  5  7  1  0
  5  6  1  6
  7  8  2  0
 10  9  1  1
 10 12  1  0
 11 10  1  0
 12 13  1  1
 13  7  1  0
 14 12  1  0
 14 15  2  0
 16 14  1  0
 17 16  1  0
 17 20  1  0
 17 18  1  6
 19 18  1  0
 20 22  2  0
 20 21  1  0
M  END
$$$$
