ITC.pdb
     RDKit          3D

 22 21  0  0  1  0  0  0  0  0999 V2000
    8.5595  -12.3270   27.9798 C   0  0  0  0  0  0  0  0  0  0  0  0
    7.7426  -13.3755   27.2811 C   0  0  0  0  0  0  0  0  0  0  0  0
    7.0964  -12.8941   26.0277 C   0  0  2  0  0  0  0  0  0  0  0  0
    6.2440  -11.6950   26.3589 C   0  0  0  0  0  0  0  0  0  0  0  0
    6.3137  -14.0032   25.3674 C   0  0  2  0  0  0  0  0  0  0  0  0
    5.4786  -14.6123   26.3772 N   0  0  0  0  0  0  0  0  0  0  0  0
    7.2530  -15.0795   24.8874 C   0  0  0  0  0  0  0  0  0  0  0  0
    7.5359  -16.0614   25.6219 O   0  0  0  0  0  0  0  0  0  0  0  0
    7.5319  -15.6309   21.1849 C   0  0  0  0  0  0  0  0  0  0  0  0
    8.9138  -15.9866   21.6958 C   0  0  1  0  0  0  0  0  0  0  0  0
    9.8083  -14.9758   21.4349 O   0  0  0  0  0  0  0  0  0  0  0  0
    8.7598  -16.1031   23.2215 C   0  0  2  0  0  0  0  0  0  0  0  0
    7.8546  -15.0371   23.6019 N   0  0  0  0  0  0  0  0  0  0  0  0
   10.1246  -15.9003   23.7643 C   0  0  0  0  0  0  0  0  0  0  0  0
   10.5041  -14.7121   23.9348 O   0  0  0  0  0  0  0  0  0  0  0  0
   11.0120  -16.9309   24.0969 N   0  0  0  0  0  0  0  0  0  0  0  0
   11.8337  -16.8087   25.2970 C   0  0  1  0  0  0  0  0  0  0  0  0
   10.8740  -16.5654   26.4446 C   0  0  0  0  0  0  0  0  0  0  0  0
   11.7287  -16.1672   27.9766 S   0  0  0  0  0  0  0  0  0  0  0  0
   12.6849  -17.9813   25.5094 C   0  0  0  0  0  0  0  0  0  0  0  0
   14.0495  -17.8323   25.6077 O   0  0  0  0  0  0  0  0  0  0  0  0
   12.1854  -19.1193   25.6026 O   0  0  0  0  0  0  0  0  0  0  0  0
  2  1  1  0
  2  3  1  0
  3  4  1  1
  5  3  1  0
  5  7  1  0
  5  6  1  1
  7  8  2  0
 10  9  1  6
 10 12  1  0
 11 10  1  0
 12 13  1  1
 13  7  1  0
 14 12  1  0
 14 15  2  0
 16 14  1  0
 17 16  1  0
 17 20  1  0
 17 18  1  1
 19 18  1  0
 20 22  2  0
 20 21  1  0
M  END
$$$$
