ITC.pdb
     RDKit          3D

 22 21  0  0  1  0  0  0  0  0999 V2000
    7.6480  -11.5996   26.3670 C   0  0  0  0  0  0  0  0  0  0  0  0
    7.6321  -13.0721   26.0733 C   0  0  0  0  0  0  0  0  0  0  0  0
    6.2668  -13.6212   25.8391 C   0  0  2  0  0  0  0  0  0  0  0  0
    5.3857  -13.2223   26.9961 C   0  0  0  0  0  0  0  0  0  0  0  0
    6.3178  -15.1154   25.6312 C   0  0  2  0  0  0  0  0  0  0  0  0
    7.2559  -15.6596   26.5861 N   0  0  0  0  0  0  0  0  0  0  0  0
    6.8741  -15.4254   24.2654 C   0  0  0  0  0  0  0  0  0  0  0  0
    6.2005  -15.1933   23.2281 O   0  0  0  0  0  0  0  0  0  0  0  0
    7.3587  -14.4462   21.9437 C   0  0  0  0  0  0  0  0  0  0  0  0
    8.7410  -15.0673   21.9698 C   0  0  1  0  0  0  0  0  0  0  0  0
    9.6241  -14.2693   22.6577 O   0  0  0  0  0  0  0  0  0  0  0  0
    8.5762  -16.3800   22.7539 C   0  0  2  0  0  0  0  0  0  0  0  0
    8.1665  -15.9860   24.0870 N   0  0  0  0  0  0  0  0  0  0  0  0
    9.9194  -17.0079   22.7426 C   0  0  0  0  0  0  0  0  0  0  0  0
   10.6502  -16.8189   23.7501 O   0  0  0  0  0  0  0  0  0  0  0  0
   10.4256  -17.7897   21.6971 N   0  0  0  0  0  0  0  0  0  0  0  0
   11.7301  -18.4270   21.8466 C   0  0  1  0  0  0  0  0  0  0  0  0
   11.9226  -19.2919   20.6169 C   0  0  0  0  0  0  0  0  0  0  0  0
   13.4905  -20.1733   20.6407 S   0  0  0  0  0  0  0  0  0  0  0  0
   12.8075  -17.4518   22.0275 C   0  0  0  0  0  0  0  0  0  0  0  0
   13.8491  -17.7279   22.8836 O   0  0  0  0  0  0  0  0  0  0  0  0
   12.7925  -16.3683   21.4118 O   0  0  0  0  0  0  0  0  0  0  0  0
  2  1  1  0
  2  3  1  0
  3  4  1  1
  5  3  1  0
  5  7  1  0
  5  6  1  1
  7  8  2  0
 10  9  1  1
 10 12  1  0
 11 10  1  0
 12 13  1  1
 13  7  1  0
 14 12  1  0
 14 15  2  0
 16 14  1  0
 17 16  1  0
 17 20  1  0
 17 18  1  6
 19 18  1  0
 20 22  2  0
 20 21  1  0
M  END
$$$$
