ITC.pdb
     RDKit          3D

 22 21  0  0  1  0  0  0  0  0999 V2000
    7.8471  -12.1515   18.6614 C   0  0  0  0  0  0  0  0  0  0  0  0
    8.0059  -13.6052   19.0027 C   0  0  0  0  0  0  0  0  0  0  0  0
    7.4813  -13.9645   20.3503 C   0  0  2  0  0  0  0  0  0  0  0  0
    8.1435  -13.0767   21.3738 C   0  0  0  0  0  0  0  0  0  0  0  0
    7.6853  -15.4335   20.6313 C   0  0  2  0  0  0  0  0  0  0  0  0
    6.8036  -16.1739   19.7582 N   0  0  0  0  0  0  0  0  0  0  0  0
    7.2539  -15.7519   22.0397 C   0  0  0  0  0  0  0  0  0  0  0  0
    6.0449  -15.6641   22.3779 O   0  0  0  0  0  0  0  0  0  0  0  0
    7.6602  -17.8685   26.2586 C   0  0  0  0  0  0  0  0  0  0  0  0
    8.1718  -17.7111   24.8407 C   0  0  1  0  0  0  0  0  0  0  0  0
    7.5901  -18.6340   24.0042 O   0  0  0  0  0  0  0  0  0  0  0  0
    7.7088  -16.3121   24.4003 C   0  0  2  0  0  0  0  0  0  0  0  0
    8.1780  -16.1601   23.0375 N   0  0  0  0  0  0  0  0  0  0  0  0
    8.3782  -15.3726   25.3319 C   0  0  0  0  0  0  0  0  0  0  0  0
    9.5868  -15.1026   25.1053 O   0  0  0  0  0  0  0  0  0  0  0  0
    7.7631  -14.7709   26.4364 N   0  0  0  0  0  0  0  0  0  0  0  0
    8.5236  -13.8331   27.2564 C   0  0  1  0  0  0  0  0  0  0  0  0
    7.5173  -12.8485   27.8180 C   0  0  0  0  0  0  0  0  0  0  0  0
    6.2663  -12.3873   26.6104 S   0  0  0  0  0  0  0  0  0  0  0  0
    9.2980  -14.5086   28.2998 C   0  0  0  0  0  0  0  0  0  0  0  0
   10.2102  -13.7997   29.0477 O   0  0  0  0  0  0  0  0  0  0  0  0
    9.1399  -15.7251   28.5200 O   0  0  0  0  0  0  0  0  0  0  0  0
  2  1  1  0
  2  3  1  0
  3  4  1  1
  5  3  1  0
  5  7  1  0
  5  6  1  6
  7  8  2  0
 10  9  1  1
 10 12  1  0
 11 10  1  0
 12 13  1  6
 13  7  1  0
 14 12  1  0
 14 15  2  0
 16 14  1  0
 17 16  1  0
 17 20  1  0
 17 18  1  1
 19 18  1  0
 20 22  2  0
 20 21  1  0
M  END
$$$$
