ITC.pdb
     RDKit          3D

 22 21  0  0  1  0  0  0  0  0999 V2000
    5.9835  -11.4752   26.7226 C   0  0  0  0  0  0  0  0  0  0  0  0
    5.7154  -12.7048   25.9033 C   0  0  0  0  0  0  0  0  0  0  0  0
    6.9130  -13.5709   25.7140 C   0  0  2  0  0  0  0  0  0  0  0  0
    8.0012  -12.7487   25.0705 C   0  0  0  0  0  0  0  0  0  0  0  0
    6.5628  -14.8038   24.9165 C   0  0  2  0  0  0  0  0  0  0  0  0
    5.4965  -15.4878   25.6116 N   0  0  0  0  0  0  0  0  0  0  0  0
    7.7336  -15.7524   24.8966 C   0  0  0  0  0  0  0  0  0  0  0  0
    8.0048  -16.4613   25.9003 O   0  0  0  0  0  0  0  0  0  0  0  0
    8.9208  -17.4823   21.6498 C   0  0  0  0  0  0  0  0  0  0  0  0
   10.1590  -17.0058   22.3826 C   0  0  1  0  0  0  0  0  0  0  0  0
   10.5873  -15.7971   21.8872 O   0  0  0  0  0  0  0  0  0  0  0  0
    9.7066  -16.7903   23.8366 C   0  0  2  0  0  0  0  0  0  0  0  0
    8.5742  -15.8890   23.7603 N   0  0  0  0  0  0  0  0  0  0  0  0
   10.8706  -16.1721   24.5159 C   0  0  0  0  0  0  0  0  0  0  0  0
   11.0147  -14.9278   24.3901 O   0  0  0  0  0  0  0  0  0  0  0  0
   11.8119  -16.8718   25.2807 N   0  0  0  0  0  0  0  0  0  0  0  0
   12.1738  -16.3718   26.6032 C   0  0  1  0  0  0  0  0  0  0  0  0
   10.8692  -16.1178   27.3319 C   0  0  0  0  0  0  0  0  0  0  0  0
   11.0660  -14.9730   28.7054 S   0  0  0  0  0  0  0  0  0  0  0  0
   13.0548  -17.2935   27.3238 C   0  0  0  0  0  0  0  0  0  0  0  0
   14.2144  -16.8278   27.9002 O   0  0  0  0  0  0  0  0  0  0  0  0
   12.7652  -18.5017   27.4217 O   0  0  0  0  0  0  0  0  0  0  0  0
  2  1  1  0
  2  3  1  0
  3  4  1  6
  5  3  1  0
  5  7  1  0
  5  6  1  1
  7  8  2  0
 10  9  1  6
 10 12  1  0
 11 10  1  0
 12 13  1  6
 13  7  1  0
 14 12  1  0
 14 15  2  0
 16 14  1  0
 17 16  1  0
 17 20  1  0
 17 18  1  1
 19 18  1  0
 20 22  2  0
 20 21  1  0
M  END
$$$$
