ITC.pdb
     RDKit          3D

 22 21  0  0  1  0  0  0  0  0999 V2000
    6.9580  -11.1948   27.6611 C   0  0  0  0  0  0  0  0  0  0  0  0
    6.1657  -12.1351   26.7991 C   0  0  0  0  0  0  0  0  0  0  0  0
    7.0010  -13.1449   26.0900 C   0  0  2  0  0  0  0  0  0  0  0  0
    8.0609  -12.4194   25.2998 C   0  0  0  0  0  0  0  0  0  0  0  0
    6.1437  -14.0426   25.2311 C   0  0  2  0  0  0  0  0  0  0  0  0
    5.2078  -14.7184   26.1003 N   0  0  0  0  0  0  0  0  0  0  0  0
    6.9932  -15.1179   24.6041 C   0  0  0  0  0  0  0  0  0  0  0  0
    7.2870  -16.1609   25.2439 O   0  0  0  0  0  0  0  0  0  0  0  0
    7.0465  -15.4513   20.7407 C   0  0  0  0  0  0  0  0  0  0  0  0
    8.4390  -15.7816   21.2396 C   0  0  1  0  0  0  0  0  0  0  0  0
    9.2685  -14.6902   21.1366 O   0  0  0  0  0  0  0  0  0  0  0  0
    8.2637  -16.1063   22.7327 C   0  0  2  0  0  0  0  0  0  0  0  0
    7.4951  -15.0065   23.2804 N   0  0  0  0  0  0  0  0  0  0  0  0
    9.6403  -16.1565   23.2814 C   0  0  0  0  0  0  0  0  0  0  0  0
   10.1285  -15.0771   23.7072 O   0  0  0  0  0  0  0  0  0  0  0  0
   10.4269  -17.3123   23.3574 N   0  0  0  0  0  0  0  0  0  0  0  0
   11.7328  -17.2481   24.0061 C   0  0  1  0  0  0  0  0  0  0  0  0
   11.7312  -18.3279   25.0696 C   0  0  0  0  0  0  0  0  0  0  0  0
   12.2844  -17.7136   26.6672 S   0  0  0  0  0  0  0  0  0  0  0  0
   12.8347  -17.3939   23.0525 C   0  0  0  0  0  0  0  0  0  0  0  0
   14.1096  -17.0204   23.4118 O   0  0  0  0  0  0  0  0  0  0  0  0
   12.6305  -17.8550   21.9128 O   0  0  0  0  0  0  0  0  0  0  0  0
  2  1  1  0
  2  3  1  0
  3  4  1  6
  5  3  1  0
  5  7  1  0
  5  6  1  1
  7  8  2  0
 10  9  1  1
 10 12  1  0
 11 10  1  0
 12 13  1  1
 13  7  1  0
 14 12  1  0
 14 15  2  0
 16 14  1  0
 17 16  1  0
 17 20  1  0
 17 18  1  1
 19 18  1  0
 20 22  2  0
 20 21  1  0
M  END
$$$$
