ITC.pdb
     RDKit          3D

 22 21  0  0  1  0  0  0  0  0999 V2000
    5.8859  -11.3361   26.4587 C   0  0  0  0  0  0  0  0  0  0  0  0
    5.6368  -12.6522   25.7800 C   0  0  0  0  0  0  0  0  0  0  0  0
    6.8600  -13.4899   25.6309 C   0  0  2  0  0  0  0  0  0  0  0  0
    7.9051  -12.6849   24.9001 C   0  0  0  0  0  0  0  0  0  0  0  0
    6.5373  -14.7928   24.9404 C   0  0  2  0  0  0  0  0  0  0  0  0
    5.5275  -15.4665   25.7243 N   0  0  0  0  0  0  0  0  0  0  0  0
    7.7477  -15.6905   24.9454 C   0  0  0  0  0  0  0  0  0  0  0  0
    8.0010  -16.4239   25.9361 O   0  0  0  0  0  0  0  0  0  0  0  0
    9.0612  -17.1301   21.5755 C   0  0  0  0  0  0  0  0  0  0  0  0
   10.2587  -16.7853   22.4382 C   0  0  1  0  0  0  0  0  0  0  0  0
   10.7494  -15.5410   22.1211 O   0  0  0  0  0  0  0  0  0  0  0  0
    9.7147  -16.7296   23.8757 C   0  0  2  0  0  0  0  0  0  0  0  0
    8.6467  -15.7503   23.8479 N   0  0  0  0  0  0  0  0  0  0  0  0
   10.8607  -16.2863   24.7056 C   0  0  0  0  0  0  0  0  0  0  0  0
   11.2435  -15.0951   24.5667 O   0  0  0  0  0  0  0  0  0  0  0  0
   11.5399  -17.0951   25.6247 N   0  0  0  0  0  0  0  0  0  0  0  0
   11.9561  -16.5304   26.9046 C   0  0  1  0  0  0  0  0  0  0  0  0
   10.6988  -15.9962   27.5610 C   0  0  0  0  0  0  0  0  0  0  0  0
   11.0151  -14.5244   28.5458 S   0  0  0  0  0  0  0  0  0  0  0  0
   12.6604  -17.5058   27.7396 C   0  0  0  0  0  0  0  0  0  0  0  0
   13.7070  -17.1011   28.5364 O   0  0  0  0  0  0  0  0  0  0  0  0
   12.3214  -18.7051   27.7372 O   0  0  0  0  0  0  0  0  0  0  0  0
  2  1  1  0
  2  3  1  0
  3  4  1  6
  5  3  1  0
  5  7  1  0
  5  6  1  1
  7  8  2  0
 10  9  1  6
 10 12  1  0
 11 10  1  0
 12 13  1  6
 13  7  1  0
 14 12  1  0
 14 15  2  0
 16 14  1  0
 17 16  1  0
 17 20  1  0
 17 18  1  1
 19 18  1  0
 20 22  2  0
 20 21  1  0
M  END
$$$$
