ITC.pdb
     RDKit          3D

 22 21  0  0  1  0  0  0  0  0999 V2000
    6.6290  -11.4881   27.3310 C   0  0  0  0  0  0  0  0  0  0  0  0
    6.0360  -12.5596   26.4621 C   0  0  0  0  0  0  0  0  0  0  0  0
    7.0337  -13.5497   25.9676 C   0  0  2  0  0  0  0  0  0  0  0  0
    8.1508  -12.8025   25.2836 C   0  0  0  0  0  0  0  0  0  0  0  0
    6.3774  -14.5702   25.0696 C   0  0  2  0  0  0  0  0  0  0  0  0
    5.3813  -15.2665   25.8513 N   0  0  0  0  0  0  0  0  0  0  0  0
    7.3861  -15.6068   24.6468 C   0  0  0  0  0  0  0  0  0  0  0  0
    7.7775  -16.4904   25.4528 O   0  0  0  0  0  0  0  0  0  0  0  0
    7.8981  -16.2545   20.7740 C   0  0  0  0  0  0  0  0  0  0  0  0
    9.2053  -16.4725   21.5094 C   0  0  1  0  0  0  0  0  0  0  0  0
    9.9803  -15.3375   21.4787 O   0  0  0  0  0  0  0  0  0  0  0  0
    8.8044  -16.7350   22.9708 C   0  0  2  0  0  0  0  0  0  0  0  0
    7.9347  -15.6352   23.3374 N   0  0  0  0  0  0  0  0  0  0  0  0
   10.0782  -16.7196   23.7296 C   0  0  0  0  0  0  0  0  0  0  0  0
   10.5456  -15.5939   24.0444 O   0  0  0  0  0  0  0  0  0  0  0  0
   10.7901  -17.8616   24.1163 N   0  0  0  0  0  0  0  0  0  0  0  0
   11.9989  -17.7134   24.9206 C   0  0  1  0  0  0  0  0  0  0  0  0
   11.5452  -17.2236   26.2813 C   0  0  0  0  0  0  0  0  0  0  0  0
   10.6028  -18.4678   27.1755 S   0  0  0  0  0  0  0  0  0  0  0  0
   12.7728  -18.9545   24.9945 C   0  0  0  0  0  0  0  0  0  0  0  0
   13.9901  -18.9693   25.6363 O   0  0  0  0  0  0  0  0  0  0  0  0
   12.3396  -20.0038   24.4800 O   0  0  0  0  0  0  0  0  0  0  0  0
  2  1  1  0
  2  3  1  0
  3  4  1  6
  5  3  1  0
  5  7  1  0
  5  6  1  1
  7  8  2  0
 10  9  1  6
 10 12  1  0
 11 10  1  0
 12 13  1  1
 13  7  1  0
 14 12  1  0
 14 15  2  0
 16 14  1  0
 17 16  1  0
 17 20  1  0
 17 18  1  1
 19 18  1  0
 20 22  2  0
 20 21  1  0
M  END
$$$$
