ITC.pdb
     RDKit          3D

 22 21  0  0  1  0  0  0  0  0999 V2000
    7.0666  -21.6455   17.9717 C   0  0  0  0  0  0  0  0  0  0  0  0
    6.6722  -20.2025   17.8406 C   0  0  0  0  0  0  0  0  0  0  0  0
    7.6407  -19.2581   18.4654 C   0  0  2  0  0  0  0  0  0  0  0  0
    7.9411  -19.7363   19.8637 C   0  0  0  0  0  0  0  0  0  0  0  0
    7.1100  -17.8453   18.4322 C   0  0  2  0  0  0  0  0  0  0  0  0
    6.9839  -17.4564   17.0462 N   0  0  0  0  0  0  0  0  0  0  0  0
    8.1139  -16.9048   19.0475 C   0  0  0  0  0  0  0  0  0  0  0  0
    9.2248  -16.6972   18.4939 O   0  0  0  0  0  0  0  0  0  0  0  0
    7.6919  -13.3515   20.0512 C   0  0  0  0  0  0  0  0  0  0  0  0
    8.1209  -14.0942   21.3008 C   0  0  1  0  0  0  0  0  0  0  0  0
    7.0278  -14.5261   22.0139 O   0  0  0  0  0  0  0  0  0  0  0  0
    8.8763  -15.3332   20.7916 C   0  0  2  0  0  0  0  0  0  0  0  0
    7.8573  -16.2182   20.2636 N   0  0  0  0  0  0  0  0  0  0  0  0
    9.5438  -15.8979   21.9891 C   0  0  0  0  0  0  0  0  0  0  0  0
    8.8021  -16.3178   22.9157 O   0  0  0  0  0  0  0  0  0  0  0  0
   10.9304  -15.9949   22.1581 N   0  0  0  0  0  0  0  0  0  0  0  0
   11.4633  -16.5521   23.3973 C   0  0  1  0  0  0  0  0  0  0  0  0
   11.9705  -17.9388   23.0548 C   0  0  0  0  0  0  0  0  0  0  0  0
   10.6312  -19.0943   22.7281 S   0  0  0  0  0  0  0  0  0  0  0  0
   12.4975  -15.7011   23.9897 C   0  0  0  0  0  0  0  0  0  0  0  0
   13.0968  -16.0687   25.1727 O   0  0  0  0  0  0  0  0  0  0  0  0
   12.8434  -14.6416   23.4319 O   0  0  0  0  0  0  0  0  0  0  0  0
  2  1  1  0
  2  3  1  0
  3  4  1  1
  5  3  1  0
  5  7  1  0
  5  6  1  6
  7  8  2  0
 10  9  1  6
 10 12  1  0
 11 10  1  0
 12 13  1  1
 13  7  1  0
 14 12  1  0
 14 15  2  0
 16 14  1  0
 17 16  1  0
 17 20  1  0
 17 18  1  6
 19 18  1  0
 20 22  2  0
 20 21  1  0
M  END
$$$$
