ITC.pdb
     RDKit          3D

 22 21  0  0  1  0  0  0  0  0999 V2000
    7.7973  -12.2142   18.5126 C   0  0  0  0  0  0  0  0  0  0  0  0
    8.0467  -13.6455   18.8924 C   0  0  0  0  0  0  0  0  0  0  0  0
    7.4984  -14.0147   20.2279 C   0  0  2  0  0  0  0  0  0  0  0  0
    8.0662  -13.0691   21.2563 C   0  0  0  0  0  0  0  0  0  0  0  0
    7.7849  -15.4627   20.5439 C   0  0  2  0  0  0  0  0  0  0  0  0
    7.0000  -16.2726   19.6405 N   0  0  0  0  0  0  0  0  0  0  0  0
    7.3041  -15.7900   21.9341 C   0  0  0  0  0  0  0  0  0  0  0  0
    6.0844  -15.7014   22.2309 O   0  0  0  0  0  0  0  0  0  0  0  0
    7.5445  -17.8221   26.2059 C   0  0  0  0  0  0  0  0  0  0  0  0
    8.1276  -17.6987   24.8123 C   0  0  1  0  0  0  0  0  0  0  0  0
    7.5873  -18.6409   23.9696 O   0  0  0  0  0  0  0  0  0  0  0  0
    7.6903  -16.3103   24.3160 C   0  0  2  0  0  0  0  0  0  0  0  0
    8.1922  -16.2079   22.9603 N   0  0  0  0  0  0  0  0  0  0  0  0
    8.3483  -15.3477   25.2318 C   0  0  0  0  0  0  0  0  0  0  0  0
    9.5497  -15.0571   24.9930 O   0  0  0  0  0  0  0  0  0  0  0  0
    7.7300  -14.7454   26.3343 N   0  0  0  0  0  0  0  0  0  0  0  0
    8.5133  -13.8787   27.2092 C   0  0  1  0  0  0  0  0  0  0  0  0
    7.5857  -12.7591   27.6376 C   0  0  0  0  0  0  0  0  0  0  0  0
    6.5983  -12.1303   26.2718 S   0  0  0  0  0  0  0  0  0  0  0  0
    9.0853  -14.6059   28.3444 C   0  0  0  0  0  0  0  0  0  0  0  0
    9.9701  -13.9762   29.1897 O   0  0  0  0  0  0  0  0  0  0  0  0
    8.7785  -15.7953   28.5554 O   0  0  0  0  0  0  0  0  0  0  0  0
  2  1  1  0
  2  3  1  0
  3  4  1  1
  5  3  1  0
  5  7  1  0
  5  6  1  6
  7  8  2  0
 10  9  1  1
 10 12  1  0
 11 10  1  0
 12 13  1  6
 13  7  1  0
 14 12  1  0
 14 15  2  0
 16 14  1  0
 17 16  1  0
 17 20  1  0
 17 18  1  1
 19 18  1  0
 20 22  2  0
 20 21  1  0
M  END
$$$$
