ITC.pdb
     RDKit          3D

 22 21  0  0  1  0  0  0  0  0999 V2000
    5.8153  -11.2713   26.6282 C   0  0  0  0  0  0  0  0  0  0  0  0
    5.5261  -12.5879   25.9666 C   0  0  0  0  0  0  0  0  0  0  0  0
    6.7459  -13.3935   25.6777 C   0  0  2  0  0  0  0  0  0  0  0  0
    7.6918  -12.5522   24.8582 C   0  0  0  0  0  0  0  0  0  0  0  0
    6.3829  -14.6928   25.0006 C   0  0  2  0  0  0  0  0  0  0  0  0
    5.4770  -15.4042   25.8731 N   0  0  0  0  0  0  0  0  0  0  0  0
    7.6077  -15.5597   24.8623 C   0  0  0  0  0  0  0  0  0  0  0  0
    7.9868  -16.2945   25.8110 O   0  0  0  0  0  0  0  0  0  0  0  0
   11.1317  -17.4095   22.0372 C   0  0  0  0  0  0  0  0  0  0  0  0
   10.0432  -16.3615   22.1565 C   0  0  1  0  0  0  0  0  0  0  0  0
    9.0259  -16.6076   21.2652 O   0  0  0  0  0  0  0  0  0  0  0  0
    9.4804  -16.5278   23.5781 C   0  0  2  0  0  0  0  0  0  0  0  0
    8.3811  -15.5881   23.6717 N   0  0  0  0  0  0  0  0  0  0  0  0
   10.6011  -16.1716   24.4813 C   0  0  0  0  0  0  0  0  0  0  0  0
   11.1021  -15.0241   24.3501 O   0  0  0  0  0  0  0  0  0  0  0  0
   11.1352  -17.0170   25.4613 N   0  0  0  0  0  0  0  0  0  0  0  0
   11.6361  -16.4431   26.7062 C   0  0  1  0  0  0  0  0  0  0  0  0
   10.4737  -15.6921   27.3244 C   0  0  0  0  0  0  0  0  0  0  0  0
   10.9806  -14.6810   28.7232 S   0  0  0  0  0  0  0  0  0  0  0  0
   12.1944  -17.4589   27.6014 C   0  0  0  0  0  0  0  0  0  0  0  0
   13.3388  -17.1912   28.3172 O   0  0  0  0  0  0  0  0  0  0  0  0
   11.6421  -18.5695   27.7234 O   0  0  0  0  0  0  0  0  0  0  0  0
  2  1  1  0
  2  3  1  0
  3  4  1  6
  5  3  1  0
  5  7  1  0
  5  6  1  1
  7  8  2  0
 10  9  1  6
 10 12  1  0
 11 10  1  0
 12 13  1  6
 13  7  1  0
 14 12  1  0
 14 15  2  0
 16 14  1  0
 17 16  1  0
 17 20  1  0
 17 18  1  1
 19 18  1  0
 20 22  2  0
 20 21  1  0
M  END
$$$$
