HES.pdb
     RDKit          3D

 26 26  0  0  1  0  0  0  0  0999 V2000
   18.3109  -12.9477  -16.1133 N   0  0  0  0  0  0  0  0  0  0  0  0
   18.0571  -11.5251  -16.0637 C   0  0  1  0  0  0  0  0  0  0  0  0
   16.9522  -11.2392  -15.1065 C   0  0  0  0  0  0  0  0  0  0  0  0
   15.6835  -11.9120  -15.4340 C   0  0  0  0  0  0  0  0  0  0  0  0
   14.8489  -11.5805  -16.4734 C   0  0  0  0  0  0  0  0  0  0  0  0
   13.7963  -12.4262  -16.4408 N   0  0  0  0  0  0  0  0  0  0  0  0
   13.9418  -13.2791  -15.4143 C   0  0  0  0  0  0  0  0  0  0  0  0
   15.0982  -12.9471  -14.8155 N   0  0  0  0  0  0  0  0  0  0  0  0
   19.2921  -10.7690  -15.8696 C   0  0  0  0  0  0  0  0  0  0  0  0
   20.1150  -11.0030  -14.9245 O   0  0  0  0  0  0  0  0  0  0  0  0
   19.6622   -9.7068  -16.7372 N   0  0  0  0  0  0  0  0  0  0  0  0
   20.8638   -8.9214  -16.5859 C   0  0  1  0  0  0  0  0  0  0  0  0
   21.5808   -8.8532  -17.9061 C   0  0  0  0  0  0  0  0  0  0  0  0
   22.2364  -10.1010  -18.3576 C   0  0  0  0  0  0  0  0  0  0  0  0
   22.8254  -10.0594  -19.7010 C   0  0  0  0  0  0  0  0  0  0  0  0
   22.8568   -9.0308  -20.4234 O   0  0  0  0  0  0  0  0  0  0  0  0
   20.5620   -7.5146  -16.2104 C   0  0  0  0  0  0  0  0  0  0  0  0
   19.5821   -6.9641  -16.7656 O   0  0  0  0  0  0  0  0  0  0  0  0
   23.4003  -11.2009  -20.2627 O   0  0  0  0  0  0  0  0  0  0  0  0
   22.4419   -5.6628  -12.9973 O   0  0  0  0  0  0  0  0  0  0  0  0
   21.1599   -5.2524  -13.3529 C   0  0  0  0  0  0  0  0  0  0  0  0
   20.9939   -5.4352  -14.8459 C   0  0  2  0  0  0  0  0  0  0  0  0
   21.3087   -6.7678  -15.2722 N   0  0  0  0  0  0  0  0  0  0  0  0
   21.8334   -4.4623  -15.5589 C   0  0  0  0  0  0  0  0  0  0  0  0
   21.6162   -3.0930  -15.5329 O   0  0  0  0  0  0  0  0  0  0  0  0
   22.8050   -4.8900  -16.2322 O   0  0  0  0  0  0  0  0  0  0  0  0
  2  1  1  1
  2  9  1  0
  3  4  1  0
  3  2  1  0
  4  8  1  0
  5  6  1  0
  5  4  2  0
  6  7  1  0
  7  8  2  0
  9 11  1  0
  9 10  2  0
 11 12  1  0
 12 17  1  0
 12 13  1  6
 13 14  1  0
 14 15  1  0
 15 19  1  0
 16 15  2  0
 17 18  2  0
 20 21  1  0
 22 21  1  1
 22 24  1  0
 23 17  1  0
 23 22  1  0
 24 25  1  0
 26 24  2  0
M  END
$$$$
