HES.pdb
     RDKit          3D

 26 26  0  0  1  0  0  0  0  0999 V2000
   21.4922  -12.7744  -16.6029 N   0  0  0  0  0  0  0  0  0  0  0  0
   20.5245  -11.7895  -17.0320 C   0  0  1  0  0  0  0  0  0  0  0  0
   19.3668  -12.4644  -17.6826 C   0  0  0  0  0  0  0  0  0  0  0  0
   19.7138  -13.2077  -18.9059 C   0  0  0  0  0  0  0  0  0  0  0  0
   20.2163  -14.4855  -18.9485 C   0  0  0  0  0  0  0  0  0  0  0  0
   20.4020  -14.8108  -20.2461 N   0  0  0  0  0  0  0  0  0  0  0  0
   20.0326  -13.7789  -21.0213 C   0  0  0  0  0  0  0  0  0  0  0  0
   19.6169  -12.8139  -20.1834 N   0  0  0  0  0  0  0  0  0  0  0  0
   20.2056  -10.8514  -15.9583 C   0  0  0  0  0  0  0  0  0  0  0  0
   19.7248  -11.2115  -14.8339 O   0  0  0  0  0  0  0  0  0  0  0  0
   20.4155   -9.4536  -16.1003 N   0  0  0  0  0  0  0  0  0  0  0  0
   20.0967   -8.4812  -15.0823 C   0  0  1  0  0  0  0  0  0  0  0  0
   21.1654   -7.4233  -15.0553 C   0  0  0  0  0  0  0  0  0  0  0  0
   21.0070   -6.3619  -14.0360 C   0  0  0  0  0  0  0  0  0  0  0  0
   22.0760   -5.3577  -13.9928 C   0  0  0  0  0  0  0  0  0  0  0  0
   23.3023   -5.6355  -13.9955 O   0  0  0  0  0  0  0  0  0  0  0  0
   18.8239   -7.7704  -15.3750 C   0  0  0  0  0  0  0  0  0  0  0  0
   18.7356   -7.1673  -16.4705 O   0  0  0  0  0  0  0  0  0  0  0  0
   21.7729   -3.9957  -13.9447 O   0  0  0  0  0  0  0  0  0  0  0  0
   15.5477   -8.1856  -12.9102 O   0  0  0  0  0  0  0  0  0  0  0  0
   15.2835   -7.8242  -14.2285 C   0  0  0  0  0  0  0  0  0  0  0  0
   16.4772   -7.0660  -14.7670 C   0  0  2  0  0  0  0  0  0  0  0  0
   17.7170   -7.7349  -14.4981 N   0  0  0  0  0  0  0  0  0  0  0  0
   16.4982   -5.7105  -14.1999 C   0  0  0  0  0  0  0  0  0  0  0  0
   15.5243   -4.7558  -14.4510 O   0  0  0  0  0  0  0  0  0  0  0  0
   17.4506   -5.3927  -13.4436 O   0  0  0  0  0  0  0  0  0  0  0  0
  2  1  1  1
  2  9  1  0
  3  4  1  0
  3  2  1  0
  4  8  1  0
  5  6  1  0
  5  4  2  0
  6  7  1  0
  7  8  2  0
  9 11  1  0
  9 10  2  0
 11 12  1  0
 12 17  1  0
 12 13  1  6
 13 14  1  0
 14 15  1  0
 15 19  1  0
 16 15  2  0
 17 18  2  0
 20 21  1  0
 22 21  1  1
 22 24  1  0
 23 17  1  0
 23 22  1  0
 24 25  1  0
 26 24  2  0
M  END
$$$$
