HES.pdb
     RDKit          3D

 26 26  0  0  1  0  0  0  0  0999 V2000
   19.7495  -21.0285  -14.3400 N   0  0  0  0  0  0  0  0  0  0  0  0
   20.3749  -21.4001  -13.0905 C   0  0  1  0  0  0  0  0  0  0  0  0
   21.6182  -20.6049  -12.8882 C   0  0  0  0  0  0  0  0  0  0  0  0
   22.5794  -20.6983  -14.0003 C   0  0  0  0  0  0  0  0  0  0  0  0
   22.3937  -21.4134  -15.1584 C   0  0  0  0  0  0  0  0  0  0  0  0
   23.4940  -21.2483  -15.9240 N   0  0  0  0  0  0  0  0  0  0  0  0
   24.3660  -20.4524  -15.2850 C   0  0  0  0  0  0  0  0  0  0  0  0
   23.7876  -20.1297  -14.1157 N   0  0  0  0  0  0  0  0  0  0  0  0
   19.4149  -21.3896  -11.9892 C   0  0  0  0  0  0  0  0  0  0  0  0
   18.6428  -20.4056  -11.7430 O   0  0  0  0  0  0  0  0  0  0  0  0
   19.2770  -22.4948  -11.1074 N   0  0  0  0  0  0  0  0  0  0  0  0
   18.3445  -22.5387  -10.0065 C   0  0  1  0  0  0  0  0  0  0  0  0
   16.9406  -22.4917  -10.5439 C   0  0  0  0  0  0  0  0  0  0  0  0
   16.6545  -23.3717  -11.6991 C   0  0  0  0  0  0  0  0  0  0  0  0
   15.2818  -23.3174  -12.2148 C   0  0  0  0  0  0  0  0  0  0  0  0
   14.9831  -22.9607  -13.3829 O   0  0  0  0  0  0  0  0  0  0  0  0
   18.4486  -23.8104   -9.2431 C   0  0  0  0  0  0  0  0  0  0  0  0
   18.7569  -24.8451   -9.8802 O   0  0  0  0  0  0  0  0  0  0  0  0
   14.2015  -23.6719  -11.4046 O   0  0  0  0  0  0  0  0  0  0  0  0
   18.6963  -26.0234   -4.9180 O   0  0  0  0  0  0  0  0  0  0  0  0
   18.4577  -24.8272   -5.5892 C   0  0  0  0  0  0  0  0  0  0  0  0
   18.4421  -25.1059   -7.0765 C   0  0  2  0  0  0  0  0  0  0  0  0
   18.2224  -23.9204   -7.8531 N   0  0  0  0  0  0  0  0  0  0  0  0
   17.4127  -26.1098   -7.3801 C   0  0  0  0  0  0  0  0  0  0  0  0
   17.6440  -27.4770   -7.3698 O   0  0  0  0  0  0  0  0  0  0  0  0
   16.2550  -25.7124   -7.6662 O   0  0  0  0  0  0  0  0  0  0  0  0
  2  1  1  6
  2  9  1  0
  3  4  1  0
  3  2  1  0
  4  8  1  0
  5  6  1  0
  5  4  2  0
  6  7  1  0
  7  8  2  0
  9 11  1  0
  9 10  2  0
 11 12  1  0
 12 17  1  0
 12 13  1  6
 13 14  1  0
 14 15  1  0
 15 19  1  0
 16 15  2  0
 17 18  2  0
 20 21  1  0
 22 21  1  1
 22 24  1  0
 23 17  1  0
 23 22  1  0
 24 25  1  0
 26 24  2  0
M  END
$$$$
