HES.pdb
     RDKit          3D

 26 26  0  0  1  0  0  0  0  0999 V2000
   16.4276  -11.2311  -14.1584 N   0  0  0  0  0  0  0  0  0  0  0  0
   17.4132  -10.6960  -15.0709 C   0  0  1  0  0  0  0  0  0  0  0  0
   17.1018  -11.1238  -16.4634 C   0  0  0  0  0  0  0  0  0  0  0  0
   17.0308  -12.5841  -16.6421 C   0  0  0  0  0  0  0  0  0  0  0  0
   15.8923  -13.2999  -16.9220 C   0  0  0  0  0  0  0  0  0  0  0  0
   16.2377  -14.6027  -17.0112 N   0  0  0  0  0  0  0  0  0  0  0  0
   17.5567  -14.7295  -16.7964 C   0  0  0  0  0  0  0  0  0  0  0  0
   18.0188  -13.4873  -16.5738 N   0  0  0  0  0  0  0  0  0  0  0  0
   17.6099   -9.2631  -14.8639 C   0  0  0  0  0  0  0  0  0  0  0  0
   16.7328   -8.5056  -14.3330 O   0  0  0  0  0  0  0  0  0  0  0  0
   18.8125   -8.6109  -15.2466 N   0  0  0  0  0  0  0  0  0  0  0  0
   19.0441   -7.1935  -15.1023 C   0  0  1  0  0  0  0  0  0  0  0  0
   20.3566   -6.9746  -14.4015 C   0  0  0  0  0  0  0  0  0  0  0  0
   20.6901   -5.5725  -14.0643 C   0  0  0  0  0  0  0  0  0  0  0  0
   21.9502   -5.3759  -13.3384 C   0  0  0  0  0  0  0  0  0  0  0  0
   22.4428   -6.2170  -12.5441 O   0  0  0  0  0  0  0  0  0  0  0  0
   19.1652   -6.5154  -16.4201 C   0  0  0  0  0  0  0  0  0  0  0  0
   19.8819   -7.0638  -17.2903 O   0  0  0  0  0  0  0  0  0  0  0  0
   22.6902   -4.2031  -13.4999 O   0  0  0  0  0  0  0  0  0  0  0  0
   16.1704   -4.8200  -18.0102 O   0  0  0  0  0  0  0  0  0  0  0  0
   17.2269   -3.9801  -18.3519 C   0  0  0  0  0  0  0  0  0  0  0  0
   18.5259   -4.6939  -18.0467 C   0  0  2  0  0  0  0  0  0  0  0  0
   18.5252   -5.2991  -16.7465 N   0  0  0  0  0  0  0  0  0  0  0  0
   19.6473   -3.7520  -18.1678 C   0  0  0  0  0  0  0  0  0  0  0  0
   20.1929   -3.3563  -19.3797 O   0  0  0  0  0  0  0  0  0  0  0  0
   20.1443   -3.2746  -17.1165 O   0  0  0  0  0  0  0  0  0  0  0  0
  2  1  1  1
  2  9  1  0
  3  4  1  0
  3  2  1  0
  4  8  1  0
  5  6  1  0
  5  4  2  0
  6  7  1  0
  7  8  2  0
  9 11  1  0
  9 10  2  0
 11 12  1  0
 12 17  1  0
 12 13  1  1
 13 14  1  0
 14 15  1  0
 15 19  1  0
 16 15  2  0
 17 18  2  0
 20 21  1  0
 22 21  1  1
 22 24  1  0
 23 17  1  0
 23 22  1  0
 24 25  1  0
 26 24  2  0
M  END
$$$$
