HES.pdb
     RDKit          3D

 26 26  0  0  1  0  0  0  0  0999 V2000
   44.2822  -11.8753   -7.0209 N   0  0  0  0  0  0  0  0  0  0  0  0
   43.9326  -10.4752   -6.9314 C   0  0  1  0  0  0  0  0  0  0  0  0
   45.1649   -9.6397   -6.9784 C   0  0  0  0  0  0  0  0  0  0  0  0
   46.1566   -9.9718   -5.9412 C   0  0  0  0  0  0  0  0  0  0  0  0
   47.3288  -10.6576   -6.1475 C   0  0  0  0  0  0  0  0  0  0  0  0
   47.9599  -10.7595   -4.9578 N   0  0  0  0  0  0  0  0  0  0  0  0
   47.2226  -10.1599   -4.0096 C   0  0  0  0  0  0  0  0  0  0  0  0
   46.1290   -9.6875   -4.6317 N   0  0  0  0  0  0  0  0  0  0  0  0
   42.8788  -10.1263   -7.8813 C   0  0  0  0  0  0  0  0  0  0  0  0
   42.5524  -10.8654   -8.8674 O   0  0  0  0  0  0  0  0  0  0  0  0
   42.1365   -8.9207   -7.7645 N   0  0  0  0  0  0  0  0  0  0  0  0
   41.0431   -8.5576   -8.6341 C   0  0  1  0  0  0  0  0  0  0  0  0
   39.8907   -9.4948   -8.3992 C   0  0  0  0  0  0  0  0  0  0  0  0
   39.6825   -9.9352   -7.0016 C   0  0  0  0  0  0  0  0  0  0  0  0
   38.5219  -10.8041   -6.7752 C   0  0  0  0  0  0  0  0  0  0  0  0
   37.7302  -11.1703   -7.6808 O   0  0  0  0  0  0  0  0  0  0  0  0
   40.5294   -7.1941   -8.3377 C   0  0  0  0  0  0  0  0  0  0  0  0
   40.4698   -6.8461   -7.1348 O   0  0  0  0  0  0  0  0  0  0  0  0
   38.2293  -11.2840   -5.4971 O   0  0  0  0  0  0  0  0  0  0  0  0
   38.8124   -2.9339   -9.9734 O   0  0  0  0  0  0  0  0  0  0  0  0
   39.3173   -4.1829  -10.3247 C   0  0  0  0  0  0  0  0  0  0  0  0
   39.5910   -4.9639   -9.0577 C   0  0  2  0  0  0  0  0  0  0  0  0
   40.1079   -6.2749   -9.3241 N   0  0  0  0  0  0  0  0  0  0  0  0
   38.3612   -5.0557   -8.2587 C   0  0  0  0  0  0  0  0  0  0  0  0
   37.9274   -4.0602   -7.3962 O   0  0  0  0  0  0  0  0  0  0  0  0
   37.6584   -6.0932   -8.3585 O   0  0  0  0  0  0  0  0  0  0  0  0
  2  1  1  6
  2  9  1  0
  3  4  1  0
  3  2  1  0
  4  8  1  0
  5  6  1  0
  5  4  2  0
  6  7  1  0
  7  8  2  0
  9 11  1  0
  9 10  2  0
 11 12  1  0
 12 17  1  0
 12 13  1  1
 13 14  1  0
 14 15  1  0
 15 19  1  0
 16 15  2  0
 17 18  2  0
 20 21  1  0
 22 21  1  6
 22 24  1  0
 23 17  1  0
 23 22  1  0
 24 25  1  0
 26 24  2  0
M  END
$$$$
