HES.pdb
     RDKit          3D

 26 26  0  0  1  0  0  0  0  0999 V2000
   15.6868  -13.1790    7.5626 N   0  0  0  0  0  0  0  0  0  0  0  0
   16.9264  -13.8848    7.3262 C   0  0  1  0  0  0  0  0  0  0  0  0
   18.0642  -13.1246    7.9149 C   0  0  0  0  0  0  0  0  0  0  0  0
   18.9869  -12.5552    6.9180 C   0  0  0  0  0  0  0  0  0  0  0  0
   18.6160  -11.9100    5.7635 C   0  0  0  0  0  0  0  0  0  0  0  0
   19.7439  -11.5366    5.1210 N   0  0  0  0  0  0  0  0  0  0  0  0
   20.8124  -11.9262    5.8342 C   0  0  0  0  0  0  0  0  0  0  0  0
   20.3272  -12.5443    6.9244 N   0  0  0  0  0  0  0  0  0  0  0  0
   16.8216  -15.2908    7.7093 C   0  0  0  0  0  0  0  0  0  0  0  0
   16.2710  -15.6826    8.7902 O   0  0  0  0  0  0  0  0  0  0  0  0
   17.3345  -16.3296    6.8871 N   0  0  0  0  0  0  0  0  0  0  0  0
   17.2721  -17.7318    7.2239 C   0  0  1  0  0  0  0  0  0  0  0  0
   17.3870  -18.5491    5.9667 C   0  0  0  0  0  0  0  0  0  0  0  0
   16.1991  -18.5585    5.0839 C   0  0  0  0  0  0  0  0  0  0  0  0
   16.3134  -19.3797    3.8732 C   0  0  0  0  0  0  0  0  0  0  0  0
   15.4235  -19.4553    2.9881 O   0  0  0  0  0  0  0  0  0  0  0  0
   18.4104  -18.1451    8.0867 C   0  0  0  0  0  0  0  0  0  0  0  0
   19.5483  -17.7087    7.7930 O   0  0  0  0  0  0  0  0  0  0  0  0
   17.4570  -20.1447    3.6363 O   0  0  0  0  0  0  0  0  0  0  0  0
   19.5292  -17.5830   11.4971 O   0  0  0  0  0  0  0  0  0  0  0  0
   19.2443  -18.9454   11.4633 C   0  0  0  0  0  0  0  0  0  0  0  0
   19.3750  -19.4281   10.0351 C   0  0  2  0  0  0  0  0  0  0  0  0
   18.2859  -18.9938    9.2091 N   0  0  0  0  0  0  0  0  0  0  0  0
   19.4733  -20.8942   10.0162 C   0  0  0  0  0  0  0  0  0  0  0  0
   18.6104  -21.7146    9.3054 O   0  0  0  0  0  0  0  0  0  0  0  0
   20.3897  -21.4413   10.6803 O   0  0  0  0  0  0  0  0  0  0  0  0
  2  1  1  1
  2  9  1  0
  3  4  1  0
  3  2  1  0
  4  8  1  0
  5  6  1  0
  5  4  2  0
  6  7  1  0
  7  8  2  0
  9 11  1  0
  9 10  2  0
 11 12  1  0
 12 17  1  0
 12 13  1  6
 13 14  1  0
 14 15  1  0
 15 19  1  0
 16 15  2  0
 17 18  2  0
 20 21  1  0
 22 21  1  1
 22 24  1  0
 23 17  1  0
 23 22  1  0
 24 25  1  0
 26 24  2  0
M  END
$$$$
