HES.pdb
     RDKit          3D

 26 26  0  0  1  0  0  0  0  0999 V2000
   20.2655  -12.5806  -17.2515 N   0  0  0  0  0  0  0  0  0  0  0  0
   19.8765  -11.4029  -16.5083 C   0  0  1  0  0  0  0  0  0  0  0  0
   19.1637  -11.8008  -15.2623 C   0  0  0  0  0  0  0  0  0  0  0  0
   17.9705  -12.6333  -15.4917 C   0  0  0  0  0  0  0  0  0  0  0  0
   16.8831  -12.2780  -16.2521 C   0  0  0  0  0  0  0  0  0  0  0  0
   16.0050  -13.3037  -16.2177 N   0  0  0  0  0  0  0  0  0  0  0  0
   16.5050  -14.2928  -15.4602 C   0  0  0  0  0  0  0  0  0  0  0  0
   17.7027  -13.8623  -15.0287 N   0  0  0  0  0  0  0  0  0  0  0  0
   20.9975  -10.4803  -16.3449 C   0  0  0  0  0  0  0  0  0  0  0  0
   22.2177  -10.8470  -16.3870 O   0  0  0  0  0  0  0  0  0  0  0  0
   20.7964   -9.0912  -16.1261 N   0  0  0  0  0  0  0  0  0  0  0  0
   21.8632   -8.1213  -16.0575 C   0  0  1  0  0  0  0  0  0  0  0  0
   22.6101   -8.1129  -17.3629 C   0  0  0  0  0  0  0  0  0  0  0  0
   21.7826   -8.0314  -18.5873 C   0  0  0  0  0  0  0  0  0  0  0  0
   22.5239   -7.9658  -19.8521 C   0  0  0  0  0  0  0  0  0  0  0  0
   22.5402   -6.9598  -20.6062 O   0  0  0  0  0  0  0  0  0  0  0  0
   21.3445   -6.7400  -15.8734 C   0  0  0  0  0  0  0  0  0  0  0  0
   20.2577   -6.4505  -16.4271 O   0  0  0  0  0  0  0  0  0  0  0  0
   23.2742   -9.0564  -20.2958 O   0  0  0  0  0  0  0  0  0  0  0  0
   21.9752   -4.7796  -12.5168 O   0  0  0  0  0  0  0  0  0  0  0  0
   22.0698   -3.8566  -13.5548 C   0  0  0  0  0  0  0  0  0  0  0  0
   21.4439   -4.4606  -14.7931 C   0  0  2  0  0  0  0  0  0  0  0  0
   21.9992   -5.7425  -15.1171 N   0  0  0  0  0  0  0  0  0  0  0  0
   21.6011   -3.5380  -15.9261 C   0  0  0  0  0  0  0  0  0  0  0  0
   21.0243   -2.2781  -15.9788 O   0  0  0  0  0  0  0  0  0  0  0  0
   22.2970   -3.9066  -16.9060 O   0  0  0  0  0  0  0  0  0  0  0  0
  2  1  1  1
  2  9  1  0
  3  4  1  0
  3  2  1  0
  4  8  1  0
  5  6  1  0
  5  4  2  0
  6  7  1  0
  7  8  2  0
  9 11  1  0
  9 10  2  0
 11 12  1  0
 12 17  1  0
 12 13  1  6
 13 14  1  0
 14 15  1  0
 15 19  1  0
 16 15  2  0
 17 18  2  0
 20 21  1  0
 22 21  1  1
 22 24  1  0
 23 17  1  0
 23 22  1  0
 24 25  1  0
 26 24  2  0
M  END
$$$$
