HES.pdb
     RDKit          3D

 26 26  0  0  1  0  0  0  0  0999 V2000
   23.9265  -32.7425   -4.4820 N   0  0  0  0  0  0  0  0  0  0  0  0
   25.2238  -32.9100   -3.8660 C   0  0  1  0  0  0  0  0  0  0  0  0
   26.1958  -31.9495   -4.4589 C   0  0  0  0  0  0  0  0  0  0  0  0
   26.4274  -32.1414   -5.9008 C   0  0  0  0  0  0  0  0  0  0  0  0
   27.4870  -32.8162   -6.4565 C   0  0  0  0  0  0  0  0  0  0  0  0
   27.3429  -32.7732   -7.7988 N   0  0  0  0  0  0  0  0  0  0  0  0
   26.2269  -32.0931   -8.1054 C   0  0  0  0  0  0  0  0  0  0  0  0
   25.6858  -31.7180   -6.9339 N   0  0  0  0  0  0  0  0  0  0  0  0
   25.1260  -32.9133   -2.4082 C   0  0  0  0  0  0  0  0  0  0  0  0
   24.4769  -32.0368   -1.7482 O   0  0  0  0  0  0  0  0  0  0  0  0
   25.7581  -33.9111   -1.6191 N   0  0  0  0  0  0  0  0  0  0  0  0
   25.7117  -33.9502   -0.1769 C   0  0  1  0  0  0  0  0  0  0  0  0
   24.9879  -35.1932    0.2622 C   0  0  0  0  0  0  0  0  0  0  0  0
   23.5186  -35.0789    0.3984 C   0  0  0  0  0  0  0  0  0  0  0  0
   22.8213  -36.3026    0.8102 C   0  0  0  0  0  0  0  0  0  0  0  0
   22.6095  -37.2811    0.0496 O   0  0  0  0  0  0  0  0  0  0  0  0
   27.0715  -34.0359    0.4186 C   0  0  0  0  0  0  0  0  0  0  0  0
   27.8916  -34.8165   -0.1195 O   0  0  0  0  0  0  0  0  0  0  0  0
   22.3418  -36.4453    2.1136 O   0  0  0  0  0  0  0  0  0  0  0  0
   27.7820  -32.0780    3.8330 O   0  0  0  0  0  0  0  0  0  0  0  0
   29.0023  -32.3133    3.2052 C   0  0  0  0  0  0  0  0  0  0  0  0
   28.7968  -33.3620    2.1338 C   0  0  2  0  0  0  0  0  0  0  0  0
   27.4902  -33.2951    1.5462 N   0  0  0  0  0  0  0  0  0  0  0  0
   29.0317  -34.6980    2.6988 C   0  0  0  0  0  0  0  0  0  0  0  0
   28.0506  -35.6721    2.8056 O   0  0  0  0  0  0  0  0  0  0  0  0
   30.1856  -34.9794    3.1105 O   0  0  0  0  0  0  0  0  0  0  0  0
  2  1  1  6
  2  9  1  0
  3  4  1  0
  3  2  1  0
  4  8  1  0
  5  6  1  0
  5  4  2  0
  6  7  1  0
  7  8  2  0
  9 11  1  0
  9 10  2  0
 11 12  1  0
 12 17  1  0
 12 13  1  6
 13 14  1  0
 14 15  1  0
 15 19  1  0
 16 15  2  0
 17 18  2  0
 20 21  1  0
 22 21  1  1
 22 24  1  0
 23 17  1  0
 23 22  1  0
 24 25  1  0
 26 24  2  0
M  END
$$$$
