HES.pdb
     RDKit          3D

 26 26  0  0  1  0  0  0  0  0999 V2000
   24.4086  -11.8229  -17.0093 N   0  0  0  0  0  0  0  0  0  0  0  0
   24.4075  -10.3866  -16.8429 C   0  0  1  0  0  0  0  0  0  0  0  0
   25.6578   -9.8084  -17.4098 C   0  0  0  0  0  0  0  0  0  0  0  0
   26.8933  -10.3973  -16.8657 C   0  0  0  0  0  0  0  0  0  0  0  0
   27.3589  -10.2333  -15.5838 C   0  0  0  0  0  0  0  0  0  0  0  0
   28.5126  -10.9271  -15.4739 N   0  0  0  0  0  0  0  0  0  0  0  0
   28.7878  -11.5222  -16.6454 C   0  0  0  0  0  0  0  0  0  0  0  0
   27.7879  -11.1856  -17.4779 N   0  0  0  0  0  0  0  0  0  0  0  0
   23.1542   -9.7964  -17.3072 C   0  0  0  0  0  0  0  0  0  0  0  0
   22.5620  -10.1613  -18.3754 O   0  0  0  0  0  0  0  0  0  0  0  0
   22.5032   -8.7608  -16.5849 N   0  0  0  0  0  0  0  0  0  0  0  0
   21.2425   -8.1744  -16.9729 C   0  0  1  0  0  0  0  0  0  0  0  0
   20.1573   -8.6881  -16.0674 C   0  0  0  0  0  0  0  0  0  0  0  0
   19.6635  -10.0543  -16.3508 C   0  0  0  0  0  0  0  0  0  0  0  0
   18.5562  -10.5178  -15.5068 C   0  0  0  0  0  0  0  0  0  0  0  0
   17.6308   -9.7753  -15.0905 O   0  0  0  0  0  0  0  0  0  0  0  0
   21.2462   -6.6964  -16.8105 C   0  0  0  0  0  0  0  0  0  0  0  0
   21.9127   -6.2193  -15.8620 O   0  0  0  0  0  0  0  0  0  0  0  0
   18.4731  -11.8539  -15.1105 O   0  0  0  0  0  0  0  0  0  0  0  0
   20.0712   -2.3235  -18.6100 O   0  0  0  0  0  0  0  0  0  0  0  0
   19.9050   -3.7004  -18.7320 C   0  0  0  0  0  0  0  0  0  0  0  0
   20.6309   -4.3750  -17.5883 C   0  0  2  0  0  0  0  0  0  0  0  0
   20.5481   -5.8052  -17.6555 N   0  0  0  0  0  0  0  0  0  0  0  0
   20.0910   -3.8946  -16.3088 C   0  0  0  0  0  0  0  0  0  0  0  0
   20.6157   -2.8201  -15.6066 O   0  0  0  0  0  0  0  0  0  0  0  0
   19.0970   -4.4874  -15.8182 O   0  0  0  0  0  0  0  0  0  0  0  0
  2  1  1  6
  2  9  1  0
  3  4  1  0
  3  2  1  0
  4  8  1  0
  5  6  1  0
  5  4  2  0
  6  7  1  0
  7  8  2  0
  9 11  1  0
  9 10  2  0
 11 12  1  0
 12 17  1  0
 12 13  1  1
 13 14  1  0
 14 15  1  0
 15 19  1  0
 16 15  2  0
 17 18  2  0
 20 21  1  0
 22 21  1  6
 22 24  1  0
 23 17  1  0
 23 22  1  0
 24 25  1  0
 26 24  2  0
M  END
$$$$
