HES.pdb
     RDKit          3D

 26 26  0  0  1  0  0  0  0  0999 V2000
   15.8463  -20.5147    1.9607 N   0  0  0  0  0  0  0  0  0  0  0  0
   16.4560  -20.8855    3.2182 C   0  0  1  0  0  0  0  0  0  0  0  0
   17.2223  -22.1527    3.0573 C   0  0  0  0  0  0  0  0  0  0  0  0
   16.4108  -23.2915    2.5945 C   0  0  0  0  0  0  0  0  0  0  0  0
   15.8876  -24.2770    3.3956 C   0  0  0  0  0  0  0  0  0  0  0  0
   15.2093  -25.1343    2.6022 N   0  0  0  0  0  0  0  0  0  0  0  0
   15.2891  -24.7199    1.3279 C   0  0  0  0  0  0  0  0  0  0  0  0
   16.0255  -23.5959    1.3473 N   0  0  0  0  0  0  0  0  0  0  0  0
   17.1797  -19.7637    3.8118 C   0  0  0  0  0  0  0  0  0  0  0  0
   17.7157  -18.8338    3.1240 O   0  0  0  0  0  0  0  0  0  0  0  0
   17.3344  -19.6342    5.2180 N   0  0  0  0  0  0  0  0  0  0  0  0
   17.9655  -18.5065    5.8610 C   0  0  1  0  0  0  0  0  0  0  0  0
   16.9575  -17.8012    6.7260 C   0  0  0  0  0  0  0  0  0  0  0  0
   17.3949  -16.5207    7.3258 C   0  0  0  0  0  0  0  0  0  0  0  0
   16.3692  -15.7874    8.0764 C   0  0  0  0  0  0  0  0  0  0  0  0
   15.5017  -15.0490    7.5443 O   0  0  0  0  0  0  0  0  0  0  0  0
   19.0616  -18.9307    6.7718 C   0  0  0  0  0  0  0  0  0  0  0  0
   18.9588  -20.0542    7.3183 O   0  0  0  0  0  0  0  0  0  0  0  0
   16.3042  -15.8768    9.4682 O   0  0  0  0  0  0  0  0  0  0  0  0
   23.3426  -17.9450    8.8876 O   0  0  0  0  0  0  0  0  0  0  0  0
   22.3192  -17.4579    8.0789 C   0  0  0  0  0  0  0  0  0  0  0  0
   21.2625  -18.5325    7.9423 C   0  0  2  0  0  0  0  0  0  0  0  0
   20.2030  -18.1482    7.0554 N   0  0  0  0  0  0  0  0  0  0  0  0
   20.7205  -18.8636    9.2674 C   0  0  0  0  0  0  0  0  0  0  0  0
   21.2068  -19.8894   10.0637 O   0  0  0  0  0  0  0  0  0  0  0  0
   19.7615  -18.1815    9.7094 O   0  0  0  0  0  0  0  0  0  0  0  0
  2  1  1  6
  2  9  1  0
  3  4  1  0
  3  2  1  0
  4  8  1  0
  5  6  1  0
  5  4  2  0
  6  7  1  0
  7  8  2  0
  9 11  1  0
  9 10  2  0
 11 12  1  0
 12 17  1  0
 12 13  1  1
 13 14  1  0
 14 15  1  0
 15 19  1  0
 16 15  2  0
 17 18  2  0
 20 21  1  0
 22 21  1  1
 22 24  1  0
 23 17  1  0
 23 22  1  0
 24 25  1  0
 26 24  2  0
M  END
$$$$
