HES.pdb
     RDKit          3D

 26 26  0  0  1  0  0  0  0  0999 V2000
   24.0521  -10.9687  -17.4121 N   0  0  0  0  0  0  0  0  0  0  0  0
   23.9938   -9.7883  -16.5791 C   0  0  1  0  0  0  0  0  0  0  0  0
   25.3034   -9.0790  -16.6105 C   0  0  0  0  0  0  0  0  0  0  0  0
   26.4532   -9.9228  -16.2424 C   0  0  0  0  0  0  0  0  0  0  0  0
   26.4739  -10.8441  -15.2238 C   0  0  0  0  0  0  0  0  0  0  0  0
   27.7004  -11.4096  -15.2063 N   0  0  0  0  0  0  0  0  0  0  0  0
   28.4520  -10.8737  -16.1810 C   0  0  0  0  0  0  0  0  0  0  0  0
   27.6716   -9.9707  -16.7989 N   0  0  0  0  0  0  0  0  0  0  0  0
   22.8141   -8.9804  -16.8798 C   0  0  0  0  0  0  0  0  0  0  0  0
   22.2770   -8.9286  -18.0348 O   0  0  0  0  0  0  0  0  0  0  0  0
   22.1782   -8.1880  -15.8870 N   0  0  0  0  0  0  0  0  0  0  0  0
   20.9707   -7.4292  -16.1100 C   0  0  1  0  0  0  0  0  0  0  0  0
   19.8655   -7.9959  -15.2620 C   0  0  0  0  0  0  0  0  0  0  0  0
   19.2351   -9.2398  -15.7578 C   0  0  0  0  0  0  0  0  0  0  0  0
   18.1605   -9.7852  -14.9205 C   0  0  0  0  0  0  0  0  0  0  0  0
   18.3005  -10.7675  -14.1483 O   0  0  0  0  0  0  0  0  0  0  0  0
   21.1228   -6.0108  -15.6906 C   0  0  0  0  0  0  0  0  0  0  0  0
   21.6311   -5.7903  -14.5661 O   0  0  0  0  0  0  0  0  0  0  0  0
   16.8842   -9.2197  -14.9413 O   0  0  0  0  0  0  0  0  0  0  0  0
   19.9961   -2.8902  -18.1912 O   0  0  0  0  0  0  0  0  0  0  0  0
   21.0611   -2.6330  -17.3321 C   0  0  0  0  0  0  0  0  0  0  0  0
   20.9291   -3.5310  -16.1213 C   0  0  2  0  0  0  0  0  0  0  0  0
   20.7312   -4.9057  -16.4787 N   0  0  0  0  0  0  0  0  0  0  0  0
   19.8220   -3.0615  -15.2766 C   0  0  0  0  0  0  0  0  0  0  0  0
   18.6732   -3.7990  -15.0331 O   0  0  0  0  0  0  0  0  0  0  0  0
   19.9162   -1.9278  -14.7418 O   0  0  0  0  0  0  0  0  0  0  0  0
  2  1  1  6
  2  9  1  0
  3  4  1  0
  3  2  1  0
  4  8  1  0
  5  6  1  0
  5  4  2  0
  6  7  1  0
  7  8  2  0
  9 11  1  0
  9 10  2  0
 11 12  1  0
 12 17  1  0
 12 13  1  1
 13 14  1  0
 14 15  1  0
 15 19  1  0
 16 15  2  0
 17 18  2  0
 20 21  1  0
 22 21  1  6
 22 24  1  0
 23 17  1  0
 23 22  1  0
 24 25  1  0
 26 24  2  0
M  END
$$$$
