RDG.pdb
     RDKit          3D

 24 23  0  0  1  0  0  0  0  0999 V2000
    7.6463  -11.3924   19.2649 N   0  0  0  0  0  0  0  0  0  0  0  0
    7.9257  -12.6933   18.7697 C   0  0  0  0  0  0  0  0  0  0  0  0
    8.7457  -12.7981   17.7869 N   0  0  0  0  0  0  0  0  0  0  0  0
    7.3189  -13.8467   19.3415 N   0  0  0  0  0  0  0  0  0  0  0  0
    7.9751  -15.1174   19.1233 C   0  0  0  0  0  0  0  0  0  0  0  0
    9.3059  -15.2220   19.7779 C   0  0  0  0  0  0  0  0  0  0  0  0
   10.0745  -16.4688   19.5438 C   0  0  0  0  0  0  0  0  0  0  0  0
   10.6167  -17.1142   20.7980 C   0  0  2  0  0  0  0  0  0  0  0  0
   10.0189  -16.5033   21.9407 N   0  0  0  0  0  0  0  0  0  0  0  0
   12.1073  -16.9611   20.7920 C   0  0  0  0  0  0  0  0  0  0  0  0
   12.8171  -17.4780   19.8938 O   0  0  0  0  0  0  0  0  0  0  0  0
    9.0485  -13.6985   17.3574 N   0  0  0  0  0  0  0  0  0  0  0  0
   12.8040  -16.2241   21.7989 C   0  0  1  0  0  0  0  0  0  0  0  0
   14.2622  -16.1089   21.7660 C   0  0  0  0  0  0  0  0  0  0  0  0
   14.5713  -14.6379   21.4643 C   0  0  0  0  0  0  0  0  0  0  0  0
   14.7100  -14.4276   20.0040 O   0  0  0  0  0  0  0  0  0  0  0  0
   13.8815  -13.7453   19.3328 C   0  0  0  0  0  0  0  0  0  0  0  0
   14.8609  -16.5198   23.0428 O   0  0  0  0  0  0  0  0  0  0  0  0
   16.0671  -16.2694   23.3476 O   0  0  0  0  0  0  0  0  0  0  0  0
   15.7719  -14.9775   19.2917 N   0  0  0  0  0  0  0  0  0  0  0  0
   14.1008  -17.2205   23.9918 C   0  0  0  0  0  0  0  0  0  0  0  0
   14.6493  -17.6856   25.2613 C   0  0  0  0  0  0  0  0  0  0  0  0
   13.5878  -18.2879   26.1053 O   0  0  0  0  0  0  0  0  0  0  0  0
   12.3966  -18.3265   25.7105 O   0  0  0  0  0  0  0  0  0  0  0  0
  1  2  1  0
  2  4  1  0
  3  2  2  0
  5  6  1  0
  5  4  1  0
  7  6  1  0
  7  8  1  0
  8  9  1  1
 10  8  1  0
 10 12  1  0
 11 10  2  0
 13 12  1  0
 13 17  1  0
 13 14  1  6
 15 16  2  0
 15 14  1  0
 17 18  2  0
 19 15  1  0
 20 17  1  0
 20 21  1  0
 22 21  1  0
 22 24  1  0
 23 22  2  0
M  END
$$$$
