RDG.pdb
     RDKit          3D

 24 23  0  0  1  0  0  0  0  0999 V2000
    5.7188  -13.1162   16.2854 N   0  0  0  0  0  0  0  0  0  0  0  0
    6.9300  -13.3159   16.9987 C   0  0  0  0  0  0  0  0  0  0  0  0
    7.9404  -12.5897   16.6809 N   0  0  0  0  0  0  0  0  0  0  0  0
    7.0252  -14.2880   18.0338 N   0  0  0  0  0  0  0  0  0  0  0  0
    8.3068  -14.4348   18.6887 C   0  0  0  0  0  0  0  0  0  0  0  0
    9.3634  -15.0046   17.8115 C   0  0  0  0  0  0  0  0  0  0  0  0
   10.6954  -15.2317   18.4233 C   0  0  0  0  0  0  0  0  0  0  0  0
   11.7574  -15.6980   17.4546 C   0  0  2  0  0  0  0  0  0  0  0  0
   11.3312  -16.9094   16.8326 N   0  0  0  0  0  0  0  0  0  0  0  0
   13.0355  -15.8747   18.2165 C   0  0  0  0  0  0  0  0  0  0  0  0
   13.4829  -17.0153   18.4932 O   0  0  0  0  0  0  0  0  0  0  0  0
    8.8752  -12.6362   17.1401 N   0  0  0  0  0  0  0  0  0  0  0  0
   13.8150  -14.7658   18.6692 C   0  0  2  0  0  0  0  0  0  0  0  0
   15.0273  -14.9782   19.4603 C   0  0  0  0  0  0  0  0  0  0  0  0
   15.9532  -13.7947   19.1557 C   0  0  0  0  0  0  0  0  0  0  0  0
   16.6040  -13.9735   17.8364 O   0  0  0  0  0  0  0  0  0  0  0  0
   16.9628  -12.9962   17.1164 C   0  0  0  0  0  0  0  0  0  0  0  0
   14.7244  -15.0515   20.8957 O   0  0  0  0  0  0  0  0  0  0  0  0
   15.6269  -15.1162   21.7855 O   0  0  0  0  0  0  0  0  0  0  0  0
   16.8549  -15.2413   17.3197 N   0  0  0  0  0  0  0  0  0  0  0  0
   13.3941  -15.0528   21.3425 C   0  0  0  0  0  0  0  0  0  0  0  0
   13.0310  -14.9939   22.7544 C   0  0  0  0  0  0  0  0  0  0  0  0
   13.1315  -16.3352   23.3811 O   0  0  0  0  0  0  0  0  0  0  0  0
   13.5299  -17.3257   22.7204 O   0  0  0  0  0  0  0  0  0  0  0  0
  1  2  1  0
  2  4  1  0
  3  2  2  0
  5  6  1  0
  5  4  1  0
  7  6  1  0
  7  8  1  0
  8  9  1  1
 10  8  1  0
 10 12  1  0
 11 10  2  0
 13 12  1  0
 13 17  1  0
 13 14  1  6
 15 16  2  0
 15 14  1  0
 17 18  2  0
 19 15  1  0
 20 17  1  0
 20 21  1  0
 22 21  1  0
 22 24  1  0
 23 22  2  0
M  END
$$$$
