RDG.pdb
     RDKit          3D

 24 23  0  0  1  0  0  0  0  0999 V2000
    7.1813  -13.4497   21.0732 N   0  0  0  0  0  0  0  0  0  0  0  0
    7.2912  -13.2738   19.6687 C   0  0  0  0  0  0  0  0  0  0  0  0
    7.4450  -12.0791   19.2236 N   0  0  0  0  0  0  0  0  0  0  0  0
    7.2339  -14.3834   18.7793 N   0  0  0  0  0  0  0  0  0  0  0  0
    8.4548  -15.1321   18.5747 C   0  0  0  0  0  0  0  0  0  0  0  0
    9.3379  -14.5582   17.5254 C   0  0  0  0  0  0  0  0  0  0  0  0
   10.7825  -14.8839   17.6099 C   0  0  0  0  0  0  0  0  0  0  0  0
   11.3425  -14.8848   19.0134 C   0  0  2  0  0  0  0  0  0  0  0  0
   11.4580  -13.5403   19.4774 N   0  0  0  0  0  0  0  0  0  0  0  0
   12.6659  -15.5871   18.9851 C   0  0  0  0  0  0  0  0  0  0  0  0
   12.7875  -16.7399   18.5014 O   0  0  0  0  0  0  0  0  0  0  0  0
    7.3807  -11.8046   18.2199 N   0  0  0  0  0  0  0  0  0  0  0  0
   13.8580  -14.9921   19.5017 C   0  0  1  0  0  0  0  0  0  0  0  0
   15.1068  -15.7522   19.5621 C   0  0  0  0  0  0  0  0  0  0  0  0
   16.2242  -14.7762   19.1754 C   0  0  0  0  0  0  0  0  0  0  0  0
   16.2721  -14.6014   17.7047 O   0  0  0  0  0  0  0  0  0  0  0  0
   15.7844  -15.4502   16.9021 C   0  0  0  0  0  0  0  0  0  0  0  0
   15.3335  -16.3044   20.9042 O   0  0  0  0  0  0  0  0  0  0  0  0
   16.3363  -17.0283   21.1883 O   0  0  0  0  0  0  0  0  0  0  0  0
   16.8635  -13.4809   17.1284 N   0  0  0  0  0  0  0  0  0  0  0  0
   14.4265  -16.0438   21.9428 C   0  0  0  0  0  0  0  0  0  0  0  0
   14.5234  -16.6704   23.2569 C   0  0  0  0  0  0  0  0  0  0  0  0
   15.7849  -16.2818   23.9346 O   0  0  0  0  0  0  0  0  0  0  0  0
   16.6239  -15.5458   23.3594 O   0  0  0  0  0  0  0  0  0  0  0  0
  1  2  1  0
  2  4  1  0
  3  2  2  0
  5  6  1  0
  5  4  1  0
  7  6  1  0
  7  8  1  0
  8  9  1  6
 10  8  1  0
 10 12  1  0
 11 10  2  0
 13 12  1  0
 13 17  1  0
 13 14  1  6
 15 16  2  0
 15 14  1  0
 17 18  2  0
 19 15  1  0
 20 17  1  0
 20 21  1  0
 22 21  1  0
 22 24  1  0
 23 22  2  0
M  END
$$$$
