RDG.pdb
     RDKit          3D

 24 23  0  0  1  0  0  0  0  0999 V2000
    6.2837  -12.8699   19.3479 N   0  0  0  0  0  0  0  0  0  0  0  0
    7.0367  -12.8995   18.1446 C   0  0  0  0  0  0  0  0  0  0  0  0
    6.4454  -13.2967   17.0760 N   0  0  0  0  0  0  0  0  0  0  0  0
    8.4031  -12.5019   18.1191 N   0  0  0  0  0  0  0  0  0  0  0  0
    9.3867  -13.5283   17.8508 C   0  0  0  0  0  0  0  0  0  0  0  0
    9.7857  -14.3020   19.0560 C   0  0  0  0  0  0  0  0  0  0  0  0
   11.2292  -14.3191   19.3969 C   0  0  0  0  0  0  0  0  0  0  0  0
   12.0971  -15.0604   18.4066 C   0  0  2  0  0  0  0  0  0  0  0  0
   11.4383  -16.2613   18.0065 N   0  0  0  0  0  0  0  0  0  0  0  0
   13.4181  -15.3327   19.0594 C   0  0  0  0  0  0  0  0  0  0  0  0
   13.5772  -16.3034   19.8405 O   0  0  0  0  0  0  0  0  0  0  0  0
    6.9199  -13.4811   16.1662 N   0  0  0  0  0  0  0  0  0  0  0  0
   14.5657  -14.5115   18.8338 C   0  0  1  0  0  0  0  0  0  0  0  0
   15.8224  -14.7748   19.5353 C   0  0  0  0  0  0  0  0  0  0  0  0
   16.8978  -13.9522   18.8160 C   0  0  0  0  0  0  0  0  0  0  0  0
   17.0985  -14.4565   17.4370 O   0  0  0  0  0  0  0  0  0  0  0  0
   16.9850  -15.6810   17.1368 C   0  0  0  0  0  0  0  0  0  0  0  0
   15.7340  -14.3983   20.9523 O   0  0  0  0  0  0  0  0  0  0  0  0
   15.2608  -13.2861   21.3390 O   0  0  0  0  0  0  0  0  0  0  0  0
   17.4255  -13.5962   16.3928 N   0  0  0  0  0  0  0  0  0  0  0  0
   16.1812  -15.2772   21.9507 C   0  0  0  0  0  0  0  0  0  0  0  0
   15.9488  -15.0471   23.3727 C   0  0  0  0  0  0  0  0  0  0  0  0
   16.5116  -16.1542   24.1848 O   0  0  0  0  0  0  0  0  0  0  0  0
   17.0519  -17.1452   23.6349 O   0  0  0  0  0  0  0  0  0  0  0  0
  1  2  1  0
  2  4  1  0
  3  2  2  0
  5  6  1  0
  5  4  1  0
  7  6  1  0
  7  8  1  0
  8  9  1  1
 10  8  1  0
 10 12  1  0
 11 10  2  0
 13 12  1  0
 13 17  1  0
 13 14  1  1
 15 16  2  0
 15 14  1  0
 17 18  2  0
 19 15  1  0
 20 17  1  0
 20 21  1  0
 22 21  1  0
 22 24  1  0
 23 22  2  0
M  END
$$$$
