RDG.pdb
     RDKit          3D

 24 23  0  0  1  0  0  0  0  0999 V2000
    8.9354  -12.5973   17.8221 N   0  0  0  0  0  0  0  0  0  0  0  0
    7.8195  -13.3717   17.4090 C   0  0  0  0  0  0  0  0  0  0  0  0
    7.8821  -13.9520   16.2650 N   0  0  0  0  0  0  0  0  0  0  0  0
    6.6669  -13.5038   18.2334 N   0  0  0  0  0  0  0  0  0  0  0  0
    6.8840  -13.6648   19.6546 C   0  0  0  0  0  0  0  0  0  0  0  0
    8.0175  -14.5678   19.9866 C   0  0  0  0  0  0  0  0  0  0  0  0
    8.2350  -14.8750   21.4213 C   0  0  0  0  0  0  0  0  0  0  0  0
    9.3511  -15.8581   21.6883 C   0  0  2  0  0  0  0  0  0  0  0  0
    8.9567  -17.1544   21.2410 N   0  0  0  0  0  0  0  0  0  0  0  0
    9.6490  -15.8349   23.1567 C   0  0  0  0  0  0  0  0  0  0  0  0
    9.9445  -14.7680   23.7502 O   0  0  0  0  0  0  0  0  0  0  0  0
    7.1117  -14.5086   15.8365 N   0  0  0  0  0  0  0  0  0  0  0  0
    9.6146  -17.0147   23.9623 C   0  0  1  0  0  0  0  0  0  0  0  0
    9.9580  -16.9594   25.3834 C   0  0  0  0  0  0  0  0  0  0  0  0
    9.0611  -17.9870   26.0836 C   0  0  0  0  0  0  0  0  0  0  0  0
    7.6331  -17.6923   25.8192 O   0  0  0  0  0  0  0  0  0  0  0  0
    7.2061  -16.5175   25.6195 C   0  0  0  0  0  0  0  0  0  0  0  0
   11.3776  -17.2653   25.6038 O   0  0  0  0  0  0  0  0  0  0  0  0
   11.9059  -17.2793   26.7576 O   0  0  0  0  0  0  0  0  0  0  0  0
    6.6810  -18.7068   25.7771 N   0  0  0  0  0  0  0  0  0  0  0  0
   12.2183  -17.5594   24.5194 C   0  0  0  0  0  0  0  0  0  0  0  0
   13.6520  -17.7874   24.6656 C   0  0  0  0  0  0  0  0  0  0  0  0
   14.4092  -16.5264   24.4702 O   0  0  0  0  0  0  0  0  0  0  0  0
   13.9557  -15.4324   24.8874 O   0  0  0  0  0  0  0  0  0  0  0  0
  1  2  1  0
  2  4  1  0
  3  2  2  0
  5  6  1  0
  5  4  1  0
  7  6  1  0
  7  8  1  0
  8  9  1  1
 10  8  1  0
 10 12  1  0
 11 10  2  0
 13 12  1  0
 13 17  1  0
 13 14  1  1
 15 16  2  0
 15 14  1  0
 17 18  2  0
 19 15  1  0
 20 17  1  0
 20 21  1  0
 22 21  1  0
 22 24  1  0
 23 22  2  0
M  END
$$$$
