RDG.pdb
     RDKit          3D

 24 23  0  0  1  0  0  0  0  0999 V2000
    7.9611  -12.8243   20.1224 N   0  0  0  0  0  0  0  0  0  0  0  0
    7.8686  -13.2678   18.7769 C   0  0  0  0  0  0  0  0  0  0  0  0
    7.1839  -12.5560   17.9559 N   0  0  0  0  0  0  0  0  0  0  0  0
    8.5128  -14.4620   18.3475 N   0  0  0  0  0  0  0  0  0  0  0  0
    8.9358  -15.3916   19.3721 C   0  0  0  0  0  0  0  0  0  0  0  0
    7.8310  -15.8487   20.2560 C   0  0  0  0  0  0  0  0  0  0  0  0
    8.1877  -16.7867   21.3483 C   0  0  0  0  0  0  0  0  0  0  0  0
    8.5114  -18.1890   20.8877 C   0  0  2  0  0  0  0  0  0  0  0  0
    7.2983  -18.8896   20.6163 N   0  0  0  0  0  0  0  0  0  0  0  0
    9.3193  -18.8550   21.9596 C   0  0  0  0  0  0  0  0  0  0  0  0
    8.7763  -19.5395   22.8620 O   0  0  0  0  0  0  0  0  0  0  0  0
    7.0044  -12.8036   16.9592 N   0  0  0  0  0  0  0  0  0  0  0  0
   10.7435  -18.7522   22.0184 C   0  0  2  0  0  0  0  0  0  0  0  0
   11.4944  -19.3877   23.1014 C   0  0  0  0  0  0  0  0  0  0  0  0
   12.8886  -19.6894   22.5396 C   0  0  0  0  0  0  0  0  0  0  0  0
   13.7132  -20.3909   23.5515 O   0  0  0  0  0  0  0  0  0  0  0  0
   13.3038  -21.4158   24.1716 C   0  0  0  0  0  0  0  0  0  0  0  0
   11.5809  -18.5132   24.2784 O   0  0  0  0  0  0  0  0  0  0  0  0
   11.6718  -17.2504   24.1903 O   0  0  0  0  0  0  0  0  0  0  0  0
   14.9940  -19.9504   23.8724 N   0  0  0  0  0  0  0  0  0  0  0  0
   11.5657  -19.0578   25.5716 C   0  0  0  0  0  0  0  0  0  0  0  0
   11.4812  -18.2394   26.7765 C   0  0  0  0  0  0  0  0  0  0  0  0
   11.6034  -19.0788   27.9939 O   0  0  0  0  0  0  0  0  0  0  0  0
   11.7305  -20.3249   27.9060 O   0  0  0  0  0  0  0  0  0  0  0  0
  1  2  1  0
  2  4  1  0
  3  2  2  0
  5  6  1  0
  5  4  1  0
  7  6  1  0
  7  8  1  0
  8  9  1  1
 10  8  1  0
 10 12  1  0
 11 10  2  0
 13 12  1  0
 13 17  1  0
 13 14  1  6
 15 16  2  0
 15 14  1  0
 17 18  2  0
 19 15  1  0
 20 17  1  0
 20 21  1  0
 22 21  1  0
 22 24  1  0
 23 22  2  0
M  END
$$$$
