RDG.pdb
     RDKit          3D

 24 23  0  0  1  0  0  0  0  0999 V2000
    6.9011  -14.9607   17.4495 N   0  0  0  0  0  0  0  0  0  0  0  0
    7.8781  -13.9310   17.4166 C   0  0  0  0  0  0  0  0  0  0  0  0
    7.7672  -13.0271   16.5110 N   0  0  0  0  0  0  0  0  0  0  0  0
    8.9471  -13.8977   18.3555 N   0  0  0  0  0  0  0  0  0  0  0  0
    8.6674  -14.3682   19.6947 C   0  0  0  0  0  0  0  0  0  0  0  0
    7.5759  -13.6212   20.3738 C   0  0  0  0  0  0  0  0  0  0  0  0
    7.1568  -14.1096   21.7101 C   0  0  0  0  0  0  0  0  0  0  0  0
    8.2990  -14.4836   22.6260 C   0  0  2  0  0  0  0  0  0  0  0  0
    9.2781  -15.2130   21.8875 N   0  0  0  0  0  0  0  0  0  0  0  0
    7.7398  -15.2830   23.7634 C   0  0  0  0  0  0  0  0  0  0  0  0
    6.8385  -14.8241   24.5082 O   0  0  0  0  0  0  0  0  0  0  0  0
    8.4051  -12.2094   16.4046 N   0  0  0  0  0  0  0  0  0  0  0  0
    8.1943  -16.6038   24.0655 C   0  0  1  0  0  0  0  0  0  0  0  0
    7.7807  -17.2723   25.2994 C   0  0  0  0  0  0  0  0  0  0  0  0
    7.2577  -18.6532   24.8867 C   0  0  0  0  0  0  0  0  0  0  0  0
    6.8322  -19.4227   26.0795 O   0  0  0  0  0  0  0  0  0  0  0  0
    6.3256  -18.8713   27.1001 C   0  0  0  0  0  0  0  0  0  0  0  0
    8.8996  -17.3955   26.2430 O   0  0  0  0  0  0  0  0  0  0  0  0
    8.7564  -17.8373   27.4240 O   0  0  0  0  0  0  0  0  0  0  0  0
    6.9711  -20.8065   26.1348 N   0  0  0  0  0  0  0  0  0  0  0  0
   10.1965  -17.0192   25.8610 C   0  0  0  0  0  0  0  0  0  0  0  0
   11.3474  -17.1220   26.7519 C   0  0  0  0  0  0  0  0  0  0  0  0
   12.1195  -18.3585   26.4755 O   0  0  0  0  0  0  0  0  0  0  0  0
   11.7493  -19.1625   25.5850 O   0  0  0  0  0  0  0  0  0  0  0  0
  1  2  1  0
  2  4  1  0
  3  2  2  0
  5  6  1  0
  5  4  1  0
  7  6  1  0
  7  8  1  0
  8  9  1  6
 10  8  1  0
 10 12  1  0
 11 10  2  0
 13 12  1  0
 13 17  1  0
 13 14  1  1
 15 16  2  0
 15 14  1  0
 17 18  2  0
 19 15  1  0
 20 17  1  0
 20 21  1  0
 22 21  1  0
 22 24  1  0
 23 22  2  0
M  END
$$$$
