RDG.pdb
     RDKit          3D

 24 23  0  0  1  0  0  0  0  0999 V2000
    9.1471  -14.5211   15.1483 N   0  0  0  0  0  0  0  0  0  0  0  0
    7.9819  -14.0183   15.7850 C   0  0  0  0  0  0  0  0  0  0  0  0
    7.6021  -12.8280   15.4882 N   0  0  0  0  0  0  0  0  0  0  0  0
    7.2550  -14.8053   16.7219 N   0  0  0  0  0  0  0  0  0  0  0  0
    7.9602  -15.2445   17.9062 C   0  0  0  0  0  0  0  0  0  0  0  0
    7.6156  -14.4699   19.1276 C   0  0  0  0  0  0  0  0  0  0  0  0
    8.5181  -13.3504   19.4912 C   0  0  0  0  0  0  0  0  0  0  0  0
    9.8451  -13.7802   20.0724 C   0  0  2  0  0  0  0  0  0  0  0  0
   10.5350  -14.5943   19.1251 N   0  0  0  0  0  0  0  0  0  0  0  0
    9.5766  -14.5099   21.3533 C   0  0  0  0  0  0  0  0  0  0  0  0
    8.4465  -14.4820   21.9007 O   0  0  0  0  0  0  0  0  0  0  0  0
    6.7607  -12.3555   15.8829 N   0  0  0  0  0  0  0  0  0  0  0  0
   10.5815  -15.2747   22.0223 C   0  0  2  0  0  0  0  0  0  0  0  0
   10.2303  -16.1625   23.1310 C   0  0  0  0  0  0  0  0  0  0  0  0
    9.1915  -17.1473   22.5818 C   0  0  0  0  0  0  0  0  0  0  0  0
    8.7987  -18.1211   23.6274 O   0  0  0  0  0  0  0  0  0  0  0  0
    8.5045  -17.7708   24.8078 C   0  0  0  0  0  0  0  0  0  0  0  0
   11.4094  -16.8741   23.6417 O   0  0  0  0  0  0  0  0  0  0  0  0
   12.0268  -17.7532   22.9661 O   0  0  0  0  0  0  0  0  0  0  0  0
    8.7335  -19.4850   23.3577 N   0  0  0  0  0  0  0  0  0  0  0  0
   11.9049  -16.5992   24.9256 C   0  0  0  0  0  0  0  0  0  0  0  0
   11.5002  -17.3495   26.1098 C   0  0  0  0  0  0  0  0  0  0  0  0
   12.2499  -18.6262   26.2068 O   0  0  0  0  0  0  0  0  0  0  0  0
   12.6541  -19.2150   25.1741 O   0  0  0  0  0  0  0  0  0  0  0  0
  1  2  1  0
  2  4  1  0
  3  2  2  0
  5  6  1  0
  5  4  1  0
  7  6  1  0
  7  8  1  0
  8  9  1  6
 10  8  1  0
 10 12  1  0
 11 10  2  0
 13 12  1  0
 13 17  1  0
 13 14  1  1
 15 16  2  0
 15 14  1  0
 17 18  2  0
 19 15  1  0
 20 17  1  0
 20 21  1  0
 22 21  1  0
 22 24  1  0
 23 22  2  0
M  END
$$$$
