RDG.pdb
     RDKit          3D

 24 23  0  0  1  0  0  0  0  0999 V2000
    8.4365  -14.4048   18.7843 N   0  0  0  0  0  0  0  0  0  0  0  0
    7.2591  -14.2095   18.0153 C   0  0  0  0  0  0  0  0  0  0  0  0
    6.5927  -13.1278   18.2024 N   0  0  0  0  0  0  0  0  0  0  0  0
    6.8283  -15.1786   17.0662 N   0  0  0  0  0  0  0  0  0  0  0  0
    7.4033  -16.5025   17.1638 C   0  0  0  0  0  0  0  0  0  0  0  0
    8.2346  -16.7039   18.3799 C   0  0  0  0  0  0  0  0  0  0  0  0
    8.8788  -18.0300   18.5423 C   0  0  0  0  0  0  0  0  0  0  0  0
    9.6604  -18.1928   19.8253 C   0  0  2  0  0  0  0  0  0  0  0  0
   10.0835  -16.9108   20.2874 N   0  0  0  0  0  0  0  0  0  0  0  0
   10.8183  -19.1036   19.5514 C   0  0  0  0  0  0  0  0  0  0  0  0
   10.6488  -20.3185   19.2809 O   0  0  0  0  0  0  0  0  0  0  0  0
    5.6944  -12.8922   17.7284 N   0  0  0  0  0  0  0  0  0  0  0  0
   12.1726  -18.6483   19.5809 C   0  0  1  0  0  0  0  0  0  0  0  0
   13.2718  -19.5502   19.2363 C   0  0  0  0  0  0  0  0  0  0  0  0
   14.1625  -18.7864   18.2495 C   0  0  0  0  0  0  0  0  0  0  0  0
   13.4577  -18.5916   16.9607 O   0  0  0  0  0  0  0  0  0  0  0  0
   13.4168  -17.4730   16.3694 C   0  0  0  0  0  0  0  0  0  0  0  0
   14.0314  -19.9491   20.4286 O   0  0  0  0  0  0  0  0  0  0  0  0
   14.9684  -20.8041   20.3915 O   0  0  0  0  0  0  0  0  0  0  0  0
   12.7986  -19.6432   16.3306 N   0  0  0  0  0  0  0  0  0  0  0  0
   13.7392  -19.3843   21.6796 C   0  0  0  0  0  0  0  0  0  0  0  0
   14.3883  -19.8118   22.9144 C   0  0  0  0  0  0  0  0  0  0  0  0
   15.6974  -19.1342   23.0840 O   0  0  0  0  0  0  0  0  0  0  0  0
   16.1180  -18.3227   22.2231 O   0  0  0  0  0  0  0  0  0  0  0  0
  1  2  1  0
  2  4  1  0
  3  2  2  0
  5  6  1  0
  5  4  1  0
  7  6  1  0
  7  8  1  0
  8  9  1  6
 10  8  1  0
 10 12  1  0
 11 10  2  0
 13 12  1  0
 13 17  1  0
 13 14  1  6
 15 16  2  0
 15 14  1  0
 17 18  2  0
 19 15  1  0
 20 17  1  0
 20 21  1  0
 22 21  1  0
 22 24  1  0
 23 22  2  0
M  END
$$$$
