RDG.pdb
     RDKit          3D

 24 23  0  0  1  0  0  0  0  0999 V2000
    8.3773  -15.2525   16.4326 N   0  0  0  0  0  0  0  0  0  0  0  0
    8.2197  -13.9173   16.8888 C   0  0  0  0  0  0  0  0  0  0  0  0
    9.0118  -13.0240   16.4158 N   0  0  0  0  0  0  0  0  0  0  0  0
    7.2169  -13.5757   17.8392 N   0  0  0  0  0  0  0  0  0  0  0  0
    7.6483  -13.3299   19.1980 C   0  0  0  0  0  0  0  0  0  0  0  0
    7.7600  -14.5632   20.0209 C   0  0  0  0  0  0  0  0  0  0  0  0
    8.2995  -14.4092   21.3939 C   0  0  0  0  0  0  0  0  0  0  0  0
    8.4670  -15.7071   22.1494 C   0  0  2  0  0  0  0  0  0  0  0  0
    7.3757  -15.8721   23.0539 N   0  0  0  0  0  0  0  0  0  0  0  0
    9.7860  -15.6645   22.8592 C   0  0  0  0  0  0  0  0  0  0  0  0
   10.0196  -14.8225   23.7614 O   0  0  0  0  0  0  0  0  0  0  0  0
    9.0793  -12.0434   16.7636 N   0  0  0  0  0  0  0  0  0  0  0  0
   10.8474  -16.5718   22.5548 C   0  0  1  0  0  0  0  0  0  0  0  0
   12.1969  -16.3434   23.0718 C   0  0  0  0  0  0  0  0  0  0  0  0
   12.5680  -17.5955   23.8750 C   0  0  0  0  0  0  0  0  0  0  0  0
   11.8184  -17.6311   25.1529 O   0  0  0  0  0  0  0  0  0  0  0  0
   10.7469  -18.2898   25.2954 C   0  0  0  0  0  0  0  0  0  0  0  0
   13.1561  -16.1150   21.9831 O   0  0  0  0  0  0  0  0  0  0  0  0
   13.4364  -17.0001   21.1179 O   0  0  0  0  0  0  0  0  0  0  0  0
   12.2630  -16.9327   26.2718 N   0  0  0  0  0  0  0  0  0  0  0  0
   13.8112  -14.8801   21.8601 C   0  0  0  0  0  0  0  0  0  0  0  0
   14.9725  -14.6799   20.9997 C   0  0  0  0  0  0  0  0  0  0  0  0
   14.5984  -14.8116   19.5699 O   0  0  0  0  0  0  0  0  0  0  0  0
   13.9815  -15.8243   19.1570 O   0  0  0  0  0  0  0  0  0  0  0  0
  1  2  1  0
  2  4  1  0
  3  2  2  0
  5  6  1  0
  5  4  1  0
  7  6  1  0
  7  8  1  0
  8  9  1  1
 10  8  1  0
 10 12  1  0
 11 10  2  0
 13 12  1  0
 13 17  1  0
 13 14  1  1
 15 16  2  0
 15 14  1  0
 17 18  2  0
 19 15  1  0
 20 17  1  0
 20 21  1  0
 22 21  1  0
 22 24  1  0
 23 22  2  0
M  END
$$$$
