RDG.pdb
     RDKit          3D

 24 23  0  0  1  0  0  0  0  0999 V2000
    8.5044  -13.8803   18.1303 N   0  0  0  0  0  0  0  0  0  0  0  0
    8.4115  -12.8325   19.0837 C   0  0  0  0  0  0  0  0  0  0  0  0
    9.0403  -11.7399   18.8380 N   0  0  0  0  0  0  0  0  0  0  0  0
    7.6468  -12.9838   20.2745 N   0  0  0  0  0  0  0  0  0  0  0  0
    7.3714  -14.3330   20.7179 C   0  0  0  0  0  0  0  0  0  0  0  0
    8.5129  -15.2672   20.5308 C   0  0  0  0  0  0  0  0  0  0  0  0
    9.3616  -15.5383   21.7167 C   0  0  0  0  0  0  0  0  0  0  0  0
    9.2679  -16.9517   22.2430 C   0  0  2  0  0  0  0  0  0  0  0  0
    7.9581  -17.1772   22.7624 N   0  0  0  0  0  0  0  0  0  0  0  0
   10.3271  -17.1293   23.2880 C   0  0  0  0  0  0  0  0  0  0  0  0
   10.1508  -16.7515   24.4729 O   0  0  0  0  0  0  0  0  0  0  0  0
    8.9702  -10.8710   19.4098 N   0  0  0  0  0  0  0  0  0  0  0  0
   11.5897  -17.7342   23.0014 C   0  0  1  0  0  0  0  0  0  0  0  0
   12.6442  -17.7783   24.0146 C   0  0  0  0  0  0  0  0  0  0  0  0
   13.1303  -19.2314   24.0674 C   0  0  0  0  0  0  0  0  0  0  0  0
   12.0341  -20.1279   24.5039 O   0  0  0  0  0  0  0  0  0  0  0  0
   11.3137  -19.8799   25.5149 C   0  0  0  0  0  0  0  0  0  0  0  0
   13.7472  -16.8678   23.6799 O   0  0  0  0  0  0  0  0  0  0  0  0
   14.7057  -16.6284   24.4764 O   0  0  0  0  0  0  0  0  0  0  0  0
   11.7405  -21.3005   23.8138 N   0  0  0  0  0  0  0  0  0  0  0  0
   13.7789  -16.2159   22.4376 C   0  0  0  0  0  0  0  0  0  0  0  0
   14.8392  -15.2897   22.0542 C   0  0  0  0  0  0  0  0  0  0  0  0
   14.6451  -14.8129   20.6626 O   0  0  0  0  0  0  0  0  0  0  0  0
   13.6261  -15.1408   20.0064 O   0  0  0  0  0  0  0  0  0  0  0  0
  1  2  1  0
  2  4  1  0
  3  2  2  0
  5  6  1  0
  5  4  1  0
  7  6  1  0
  7  8  1  0
  8  9  1  1
 10  8  1  0
 10 12  1  0
 11 10  2  0
 13 12  1  0
 13 17  1  0
 13 14  1  1
 15 16  2  0
 15 14  1  0
 17 18  2  0
 19 15  1  0
 20 17  1  0
 20 21  1  0
 22 21  1  0
 22 24  1  0
 23 22  2  0
M  END
$$$$
