RDG.pdb
     RDKit          3D

 24 23  0  0  1  0  0  0  0  0999 V2000
    8.2098  -12.1878   19.4449 N   0  0  0  0  0  0  0  0  0  0  0  0
    7.5343  -13.2096   18.7271 C   0  0  0  0  0  0  0  0  0  0  0  0
    7.5252  -13.1369   17.4449 N   0  0  0  0  0  0  0  0  0  0  0  0
    6.8874  -14.2821   19.4029 N   0  0  0  0  0  0  0  0  0  0  0  0
    7.6023  -14.9032   20.4966 C   0  0  0  0  0  0  0  0  0  0  0  0
    8.8216  -15.6396   20.0707 C   0  0  0  0  0  0  0  0  0  0  0  0
    9.6033  -16.3179   21.1332 C   0  0  0  0  0  0  0  0  0  0  0  0
   10.7916  -17.1042   20.6301 C   0  0  2  0  0  0  0  0  0  0  0  0
   10.3330  -18.2041   19.8452 N   0  0  0  0  0  0  0  0  0  0  0  0
   11.5884  -17.5523   21.8174 C   0  0  0  0  0  0  0  0  0  0  0  0
   11.3629  -18.6509   22.3832 O   0  0  0  0  0  0  0  0  0  0  0  0
    7.0817  -13.8365   16.8118 N   0  0  0  0  0  0  0  0  0  0  0  0
   12.6433  -16.7635   22.3718 C   0  0  2  0  0  0  0  0  0  0  0  0
   13.3347  -17.1898   23.5887 C   0  0  0  0  0  0  0  0  0  0  0  0
   14.5868  -16.3123   23.7025 C   0  0  0  0  0  0  0  0  0  0  0  0
   15.5003  -16.5646   22.5634 O   0  0  0  0  0  0  0  0  0  0  0  0
   15.7353  -17.7283   22.1240 C   0  0  0  0  0  0  0  0  0  0  0  0
   12.4784  -17.0383   24.7724 O   0  0  0  0  0  0  0  0  0  0  0  0
   11.7676  -16.0073   24.9783 O   0  0  0  0  0  0  0  0  0  0  0  0
   16.1519  -15.5201   21.9137 N   0  0  0  0  0  0  0  0  0  0  0  0
   12.4161  -18.0533   25.7395 C   0  0  0  0  0  0  0  0  0  0  0  0
   11.5438  -17.9845   26.9072 C   0  0  0  0  0  0  0  0  0  0  0  0
   11.6038  -19.2465   27.6852 O   0  0  0  0  0  0  0  0  0  0  0  0
   12.3002  -20.2135   27.2899 O   0  0  0  0  0  0  0  0  0  0  0  0
  1  2  1  0
  2  4  1  0
  3  2  2  0
  5  6  1  0
  5  4  1  0
  7  6  1  0
  7  8  1  0
  8  9  1  1
 10  8  1  0
 10 12  1  0
 11 10  2  0
 13 12  1  0
 13 17  1  0
 13 14  1  6
 15 16  2  0
 15 14  1  0
 17 18  2  0
 19 15  1  0
 20 17  1  0
 20 21  1  0
 22 21  1  0
 22 24  1  0
 23 22  2  0
M  END
$$$$
