RDG.pdb
     RDKit          3D

 24 23  0  0  1  0  0  0  0  0999 V2000
    7.5599  -14.4237   19.4086 N   0  0  0  0  0  0  0  0  0  0  0  0
    7.5429  -13.2192   18.6571 C   0  0  0  0  0  0  0  0  0  0  0  0
    6.7383  -12.2903   19.0301 N   0  0  0  0  0  0  0  0  0  0  0  0
    8.3892  -13.0427   17.5266 N   0  0  0  0  0  0  0  0  0  0  0  0
    9.3532  -14.0858   17.2514 C   0  0  0  0  0  0  0  0  0  0  0  0
   10.2154  -14.4234   18.4147 C   0  0  0  0  0  0  0  0  0  0  0  0
   11.1781  -15.5377   18.2375 C   0  0  0  0  0  0  0  0  0  0  0  0
   11.9448  -15.9066   19.4864 C   0  0  2  0  0  0  0  0  0  0  0  0
   11.9466  -14.7981   20.3850 N   0  0  0  0  0  0  0  0  0  0  0  0
   13.3309  -16.3049   19.0798 C   0  0  0  0  0  0  0  0  0  0  0  0
   13.5379  -17.2936   18.3332 O   0  0  0  0  0  0  0  0  0  0  0  0
    6.6035  -11.3840   18.5328 N   0  0  0  0  0  0  0  0  0  0  0  0
   14.4898  -15.5897   19.5131 C   0  0  1  0  0  0  0  0  0  0  0  0
   15.8283  -16.0212   19.1097 C   0  0  0  0  0  0  0  0  0  0  0  0
   16.5067  -14.7954   18.4870 C   0  0  0  0  0  0  0  0  0  0  0  0
   15.9871  -14.5555   17.1200 O   0  0  0  0  0  0  0  0  0  0  0  0
   15.8333  -13.3924   16.6447 C   0  0  0  0  0  0  0  0  0  0  0  0
   16.5983  -16.5212   20.2563 O   0  0  0  0  0  0  0  0  0  0  0  0
   17.7806  -16.9691   20.1467 O   0  0  0  0  0  0  0  0  0  0  0  0
   15.6392  -15.6117   16.2829 N   0  0  0  0  0  0  0  0  0  0  0  0
   16.0386  -16.5205   21.5432 C   0  0  0  0  0  0  0  0  0  0  0  0
   16.7151  -17.0914   22.7031 C   0  0  0  0  0  0  0  0  0  0  0  0
   17.7667  -16.1728   23.2052 O   0  0  0  0  0  0  0  0  0  0  0  0
   18.0497  -15.1185   22.5848 O   0  0  0  0  0  0  0  0  0  0  0  0
  1  2  1  0
  2  4  1  0
  3  2  2  0
  5  6  1  0
  5  4  1  0
  7  6  1  0
  7  8  1  0
  8  9  1  1
 10  8  1  0
 10 12  1  0
 11 10  2  0
 13 12  1  0
 13 17  1  0
 13 14  1  6
 15 16  2  0
 15 14  1  0
 17 18  2  0
 19 15  1  0
 20 17  1  0
 20 21  1  0
 22 21  1  0
 22 24  1  0
 23 22  2  0
M  END
$$$$
