FPG.pdb
     RDKit          3D

 23 24  0  0  1  0  0  0  0  0999 V2000
    5.9788  -17.8247   25.7057 N   0  0  0  0  0  0  0  0  0  0  0  0
    6.5410  -16.5237   25.3417 C   0  0  1  0  0  0  0  0  0  0  0  0
    7.1329  -15.8734   26.5815 C   0  0  0  0  0  0  0  0  0  0  0  0
    6.9688  -14.4174   26.5786 C   0  0  0  0  0  0  0  0  0  0  0  0
    8.0874  -13.6115   26.5589 C   0  0  0  0  0  0  0  0  0  0  0  0
    8.0337  -12.2331   26.5545 C   0  0  0  0  0  0  0  0  0  0  0  0
    6.7679  -11.6592   26.5712 C   0  0  0  0  0  0  0  0  0  0  0  0
    5.6459  -12.4648   26.5911 C   0  0  0  0  0  0  0  0  0  0  0  0
    5.7076  -13.8409   26.5953 C   0  0  0  0  0  0  0  0  0  0  0  0
    7.5222  -16.6895   24.2510 C   0  0  0  0  0  0  0  0  0  0  0  0
    8.2454  -17.7409   24.3207 O   0  0  0  0  0  0  0  0  0  0  0  0
    7.7184  -15.8051   23.1657 N   0  0  0  0  0  0  0  0  0  0  0  0
    7.0139  -14.5083   23.1044 C   0  0  0  0  0  0  0  0  0  0  0  0
    7.4148  -13.8351   21.8457 C   0  0  0  0  0  0  0  0  0  0  0  0
    8.0954  -14.8804   21.0314 C   0  0  0  0  0  0  0  0  0  0  0  0
    8.5685  -15.9339   22.0181 C   0  0  1  0  0  0  0  0  0  0  0  0
   10.0040  -15.7619   22.3458 C   0  0  0  0  0  0  0  0  0  0  0  0
   10.3355  -14.8856   23.1823 O   0  0  0  0  0  0  0  0  0  0  0  0
   11.0287  -16.5415   21.7593 N   0  0  0  0  0  0  0  0  0  0  0  0
   12.4303  -16.3718   22.0676 C   0  0  0  0  0  0  0  0  0  0  0  0
   13.2194  -17.2771   21.2129 C   0  0  0  0  0  0  0  0  0  0  0  0
   13.4846  -18.5798   21.5907 O   0  0  0  0  0  0  0  0  0  0  0  0
   13.6599  -16.8587   20.1203 O   0  0  0  0  0  0  0  0  0  0  0  0
  2 10  1  0
  2  1  1  1
  3  2  1  0
  4  3  1  0
  5  4  2  0
  6  5  1  0
  7  6  2  0
  7  8  1  0
  8  9  2  0
  9  4  1  0
 10 12  1  0
 11 10  2  0
 12 13  1  0
 12 16  1  0
 13 14  1  0
 14 15  1  0
 16 15  1  0
 16 17  1  1
 17 19  1  0
 18 17  2  0
 20 19  1  0
 21 20  1  0
 22 21  1  0
 23 21  2  0
M  END
$$$$
