FPG.pdb
     RDKit          3D

 23 24  0  0  1  0  0  0  0  0999 V2000
    5.8189  -17.4609   25.5972 N   0  0  0  0  0  0  0  0  0  0  0  0
    6.5240  -16.2714   25.1187 C   0  0  1  0  0  0  0  0  0  0  0  0
    7.3270  -15.6754   26.2633 C   0  0  0  0  0  0  0  0  0  0  0  0
    7.0980  -14.2360   26.4139 C   0  0  0  0  0  0  0  0  0  0  0  0
    5.8062  -13.7642   26.5125 C   0  0  0  0  0  0  0  0  0  0  0  0
    5.4914  -12.4288   26.6565 C   0  0  0  0  0  0  0  0  0  0  0  0
    6.5582  -11.5390   26.7009 C   0  0  0  0  0  0  0  0  0  0  0  0
    7.8532  -12.0096   26.6023 C   0  0  0  0  0  0  0  0  0  0  0  0
    8.1596  -13.3449   26.4587 C   0  0  0  0  0  0  0  0  0  0  0  0
    7.3546  -16.6184   23.9485 C   0  0  0  0  0  0  0  0  0  0  0  0
    7.8018  -17.8156   23.9304 O   0  0  0  0  0  0  0  0  0  0  0  0
    7.6835  -15.7580   22.8760 N   0  0  0  0  0  0  0  0  0  0  0  0
    7.2698  -14.3401   22.8841 C   0  0  0  0  0  0  0  0  0  0  0  0
    7.7452  -13.7233   21.6224 C   0  0  0  0  0  0  0  0  0  0  0  0
    8.1477  -14.8597   20.7476 C   0  0  0  0  0  0  0  0  0  0  0  0
    8.4312  -16.0235   21.6816 C   0  0  1  0  0  0  0  0  0  0  0  0
    9.8843  -16.1712   21.9358 C   0  0  0  0  0  0  0  0  0  0  0  0
   10.4237  -15.4523   22.8130 O   0  0  0  0  0  0  0  0  0  0  0  0
   10.7015  -17.0890   21.2345 N   0  0  0  0  0  0  0  0  0  0  0  0
   11.9096  -17.6583   21.7861 C   0  0  0  0  0  0  0  0  0  0  0  0
   13.0733  -16.9893   21.1768 C   0  0  0  0  0  0  0  0  0  0  0  0
   12.9642  -16.2852   19.9926 O   0  0  0  0  0  0  0  0  0  0  0  0
   14.1857  -17.0593   21.7429 O   0  0  0  0  0  0  0  0  0  0  0  0
  2 10  1  0
  2  1  1  1
  3  2  1  0
  4  3  1  0
  5  4  2  0
  6  5  1  0
  7  6  2  0
  7  8  1  0
  8  9  2  0
  9  4  1  0
 10 12  1  0
 11 10  2  0
 12 13  1  0
 12 16  1  0
 13 14  1  0
 14 15  1  0
 16 15  1  0
 16 17  1  1
 17 19  1  0
 18 17  2  0
 20 19  1  0
 21 20  1  0
 22 21  1  0
 23 21  2  0
M  END
$$$$
