FPG.pdb
     RDKit          3D

 23 24  0  0  1  0  0  0  0  0999 V2000
    7.2213  -16.8027   26.8055 N   0  0  0  0  0  0  0  0  0  0  0  0
    6.9491  -15.8481   25.7305 C   0  0  1  0  0  0  0  0  0  0  0  0
    7.4078  -14.4657   26.1652 C   0  0  0  0  0  0  0  0  0  0  0  0
    8.6162  -14.5146   26.9924 C   0  0  0  0  0  0  0  0  0  0  0  0
    9.8495  -14.3546   26.3970 C   0  0  0  0  0  0  0  0  0  0  0  0
   11.0409  -14.3850   27.0917 C   0  0  0  0  0  0  0  0  0  0  0  0
   10.9565  -14.5899   28.4638 C   0  0  0  0  0  0  0  0  0  0  0  0
    9.7219  -14.7504   29.0624 C   0  0  0  0  0  0  0  0  0  0  0  0
    8.5363  -14.7187   28.3618 C   0  0  0  0  0  0  0  0  0  0  0  0
    7.5907  -16.3041   24.4814 C   0  0  0  0  0  0  0  0  0  0  0  0
    8.0166  -17.5091   24.4932 O   0  0  0  0  0  0  0  0  0  0  0  0
    7.7643  -15.5375   23.3063 N   0  0  0  0  0  0  0  0  0  0  0  0
    7.2980  -14.1378   23.2355 C   0  0  0  0  0  0  0  0  0  0  0  0
    7.6058  -13.6269   21.8781 C   0  0  0  0  0  0  0  0  0  0  0  0
    7.9539  -14.8271   21.0676 C   0  0  0  0  0  0  0  0  0  0  0  0
    8.3852  -15.8905   22.0628 C   0  0  1  0  0  0  0  0  0  0  0  0
    9.8622  -15.9710   22.1621 C   0  0  0  0  0  0  0  0  0  0  0  0
   10.4528  -15.2668   23.0180 O   0  0  0  0  0  0  0  0  0  0  0  0
   10.6472  -16.8081   21.3344 N   0  0  0  0  0  0  0  0  0  0  0  0
   11.7427  -17.6105   21.8283 C   0  0  0  0  0  0  0  0  0  0  0  0
   13.0098  -16.9112   21.5488 C   0  0  0  0  0  0  0  0  0  0  0  0
   13.5287  -15.9771   22.4253 O   0  0  0  0  0  0  0  0  0  0  0  0
   13.6312  -17.1676   20.4947 O   0  0  0  0  0  0  0  0  0  0  0  0
  2 10  1  0
  2  1  1  1
  3  2  1  0
  4  3  1  0
  5  4  2  0
  6  5  1  0
  7  6  2  0
  7  8  1  0
  8  9  2  0
  9  4  1  0
 10 12  1  0
 11 10  2  0
 12 13  1  0
 12 16  1  0
 13 14  1  0
 14 15  1  0
 16 15  1  0
 16 17  1  1
 17 19  1  0
 18 17  2  0
 20 19  1  0
 21 20  1  0
 22 21  1  0
 23 21  2  0
M  END
$$$$
