FPG.pdb
     RDKit          3D

 23 24  0  0  1  0  0  0  0  0999 V2000
    7.6201  -16.6994   26.4461 N   0  0  0  0  0  0  0  0  0  0  0  0
    6.8002  -16.7735   25.2364 C   0  0  1  0  0  0  0  0  0  0  0  0
    5.8520  -15.5859   25.2049 C   0  0  0  0  0  0  0  0  0  0  0  0
    6.3579  -14.4489   25.9783 C   0  0  0  0  0  0  0  0  0  0  0  0
    7.5874  -14.5446   26.5948 C   0  0  0  0  0  0  0  0  0  0  0  0
    8.1462  -13.5290   27.3427 C   0  0  0  0  0  0  0  0  0  0  0  0
    7.4025  -12.3607   27.4601 C   0  0  0  0  0  0  0  0  0  0  0  0
    6.1704  -12.2627   26.8433 C   0  0  0  0  0  0  0  0  0  0  0  0
    5.6189  -13.2814   26.0979 C   0  0  0  0  0  0  0  0  0  0  0  0
    7.6698  -16.8511   24.0459 C   0  0  0  0  0  0  0  0  0  0  0  0
    8.3527  -17.9260   23.9361 O   0  0  0  0  0  0  0  0  0  0  0  0
    7.8021  -15.8614   23.0451 N   0  0  0  0  0  0  0  0  0  0  0  0
    7.0981  -14.5677   23.1571 C   0  0  0  0  0  0  0  0  0  0  0  0
    7.4238  -13.7699   21.9505 C   0  0  0  0  0  0  0  0  0  0  0  0
    8.0516  -14.7254   20.9957 C   0  0  0  0  0  0  0  0  0  0  0  0
    8.5810  -15.8709   21.8412 C   0  0  1  0  0  0  0  0  0  0  0  0
   10.0342  -15.7272   22.0974 C   0  0  0  0  0  0  0  0  0  0  0  0
   10.4151  -14.9841   23.0355 O   0  0  0  0  0  0  0  0  0  0  0  0
   11.0224  -16.3905   21.3322 N   0  0  0  0  0  0  0  0  0  0  0  0
   12.3945  -16.5349   21.7619 C   0  0  0  0  0  0  0  0  0  0  0  0
   13.1581  -17.2127   20.6988 C   0  0  0  0  0  0  0  0  0  0  0  0
   14.4529  -16.8413   20.3895 O   0  0  0  0  0  0  0  0  0  0  0  0
   12.6239  -18.1457   20.0608 O   0  0  0  0  0  0  0  0  0  0  0  0
  2 10  1  0
  2  1  1  1
  3  2  1  0
  4  3  1  0
  5  4  2  0
  6  5  1  0
  7  6  2  0
  7  8  1  0
  8  9  2  0
  9  4  1  0
 10 12  1  0
 11 10  2  0
 12 13  1  0
 12 16  1  0
 13 14  1  0
 14 15  1  0
 16 15  1  0
 16 17  1  1
 17 19  1  0
 18 17  2  0
 20 19  1  0
 21 20  1  0
 22 21  1  0
 23 21  2  0
M  END
$$$$
