FPG.pdb
     RDKit          3D

 23 24  0  0  1  0  0  0  0  0999 V2000
    6.3865  -16.5545   25.2220 N   0  0  0  0  0  0  0  0  0  0  0  0
    6.9236  -15.4266   24.4602 C   0  0  1  0  0  0  0  0  0  0  0  0
    7.9992  -14.7375   25.2839 C   0  0  0  0  0  0  0  0  0  0  0  0
    7.5028  -13.5303   25.9496 C   0  0  0  0  0  0  0  0  0  0  0  0
    6.2015  -13.1277   25.7364 C   0  0  0  0  0  0  0  0  0  0  0  0
    5.6452  -12.0073   26.3178 C   0  0  0  0  0  0  0  0  0  0  0  0
    6.4692  -11.2677   27.1581 C   0  0  0  0  0  0  0  0  0  0  0  0
    7.7733  -11.6692   27.3731 C   0  0  0  0  0  0  0  0  0  0  0  0
    8.3218  -12.7896   26.7887 C   0  0  0  0  0  0  0  0  0  0  0  0
    7.4114  -15.8954   23.1480 C   0  0  0  0  0  0  0  0  0  0  0  0
    7.5725  -17.1589   23.0435 O   0  0  0  0  0  0  0  0  0  0  0  0
    7.7039  -15.0821   22.0291 N   0  0  0  0  0  0  0  0  0  0  0  0
    7.5147  -13.6182   22.0827 C   0  0  0  0  0  0  0  0  0  0  0  0
    7.8855  -13.0657   20.7577 C   0  0  0  0  0  0  0  0  0  0  0  0
    7.9780  -14.2397   19.8456 C   0  0  0  0  0  0  0  0  0  0  0  0
    8.2178  -15.4436   20.7402 C   0  0  1  0  0  0  0  0  0  0  0  0
    9.6534  -15.8117   20.7781 C   0  0  0  0  0  0  0  0  0  0  0  0
   10.4393  -15.1218   21.4736 O   0  0  0  0  0  0  0  0  0  0  0  0
   10.1880  -16.9103   20.0644 N   0  0  0  0  0  0  0  0  0  0  0  0
   11.6054  -17.1636   19.9423 C   0  0  0  0  0  0  0  0  0  0  0  0
   12.0247  -18.0625   21.0327 C   0  0  0  0  0  0  0  0  0  0  0  0
   13.3531  -18.3882   21.2308 O   0  0  0  0  0  0  0  0  0  0  0  0
   11.1599  -18.5425   21.7974 O   0  0  0  0  0  0  0  0  0  0  0  0
  2 10  1  0
  2  1  1  1
  3  2  1  0
  4  3  1  0
  5  4  2  0
  6  5  1  0
  7  6  2  0
  7  8  1  0
  8  9  2  0
  9  4  1  0
 10 12  1  0
 11 10  2  0
 12 13  1  0
 12 16  1  0
 13 14  1  0
 14 15  1  0
 16 15  1  0
 16 17  1  1
 17 19  1  0
 18 17  2  0
 20 19  1  0
 21 20  1  0
 22 21  1  0
 23 21  2  0
M  END
$$$$
