FPG.pdb
     RDKit          3D

 23 24  0  0  1  0  0  0  0  0999 V2000
    6.2562  -17.9432   25.7009 N   0  0  0  0  0  0  0  0  0  0  0  0
    6.7140  -16.5933   25.3705 C   0  0  1  0  0  0  0  0  0  0  0  0
    7.2964  -15.9468   26.6169 C   0  0  0  0  0  0  0  0  0  0  0  0
    7.1017  -14.4947   26.6337 C   0  0  0  0  0  0  0  0  0  0  0  0
    8.2032  -13.6653   26.6363 C   0  0  0  0  0  0  0  0  0  0  0  0
    8.1205  -12.2884   26.6516 C   0  0  0  0  0  0  0  0  0  0  0  0
    6.8427  -11.7416   26.6647 C   0  0  0  0  0  0  0  0  0  0  0  0
    5.7378  -12.5706   26.6621 C   0  0  0  0  0  0  0  0  0  0  0  0
    5.8285  -13.9451   26.6468 C   0  0  0  0  0  0  0  0  0  0  0  0
    7.6706  -16.6496   24.2473 C   0  0  0  0  0  0  0  0  0  0  0  0
    8.4388  -17.6709   24.2335 O   0  0  0  0  0  0  0  0  0  0  0  0
    7.7995  -15.6930   23.2143 N   0  0  0  0  0  0  0  0  0  0  0  0
    7.0147  -14.4418   23.2341 C   0  0  0  0  0  0  0  0  0  0  0  0
    7.3592  -13.6729   22.0142 C   0  0  0  0  0  0  0  0  0  0  0  0
    8.0949  -14.6242   21.1352 C   0  0  0  0  0  0  0  0  0  0  0  0
    8.6434  -15.7012   22.0551 C   0  0  1  0  0  0  0  0  0  0  0  0
   10.0689  -15.4585   22.3821 C   0  0  0  0  0  0  0  0  0  0  0  0
   10.3515  -14.6875   23.3325 O   0  0  0  0  0  0  0  0  0  0  0  0
   11.1367  -16.0564   21.6719 N   0  0  0  0  0  0  0  0  0  0  0  0
   12.5275  -15.7751   21.9449 C   0  0  0  0  0  0  0  0  0  0  0  0
   12.9698  -16.6106   23.0759 C   0  0  0  0  0  0  0  0  0  0  0  0
   12.6925  -17.9636   23.1271 O   0  0  0  0  0  0  0  0  0  0  0  0
   13.6110  -16.0851   24.0116 O   0  0  0  0  0  0  0  0  0  0  0  0
  2 10  1  0
  2  1  1  1
  3  2  1  0
  4  3  1  0
  5  4  2  0
  6  5  1  0
  7  6  2  0
  7  8  1  0
  8  9  2  0
  9  4  1  0
 10 12  1  0
 11 10  2  0
 12 13  1  0
 12 16  1  0
 13 14  1  0
 14 15  1  0
 16 15  1  0
 16 17  1  1
 17 19  1  0
 18 17  2  0
 20 19  1  0
 21 20  1  0
 22 21  1  0
 23 21  2  0
M  END
$$$$
