FPG.pdb
     RDKit          3D

 23 24  0  0  1  0  0  0  0  0999 V2000
    7.1665  -17.3267   26.7808 N   0  0  0  0  0  0  0  0  0  0  0  0
    6.8839  -16.3412   25.7368 C   0  0  1  0  0  0  0  0  0  0  0  0
    7.0662  -14.9447   26.3088 C   0  0  0  0  0  0  0  0  0  0  0  0
    8.3171  -14.8096   27.0598 C   0  0  0  0  0  0  0  0  0  0  0  0
    8.7164  -13.5614   27.4883 C   0  0  0  0  0  0  0  0  0  0  0  0
    9.8759  -13.3349   28.2005 C   0  0  0  0  0  0  0  0  0  0  0  0
   10.6598  -14.4471   28.4839 C   0  0  0  0  0  0  0  0  0  0  0  0
   10.2616  -15.6986   28.0555 C   0  0  0  0  0  0  0  0  0  0  0  0
    9.1020  -15.9169   27.3446 C   0  0  0  0  0  0  0  0  0  0  0  0
    7.7366  -16.5999   24.5597 C   0  0  0  0  0  0  0  0  0  0  0  0
    8.3991  -17.6924   24.5933 O   0  0  0  0  0  0  0  0  0  0  0  0
    7.8732  -15.7614   23.4297 N   0  0  0  0  0  0  0  0  0  0  0  0
    7.1804  -14.4587   23.3611 C   0  0  0  0  0  0  0  0  0  0  0  0
    7.5079  -13.8408   22.0537 C   0  0  0  0  0  0  0  0  0  0  0  0
    8.1240  -14.9262   21.2406 C   0  0  0  0  0  0  0  0  0  0  0  0
    8.6472  -15.9464   22.2369 C   0  0  1  0  0  0  0  0  0  0  0  0
   10.1025  -15.7810   22.4664 C   0  0  0  0  0  0  0  0  0  0  0  0
   10.4967  -14.8667   23.2319 O   0  0  0  0  0  0  0  0  0  0  0  0
   11.0785  -16.6080   21.8618 N   0  0  0  0  0  0  0  0  0  0  0  0
   12.3006  -16.0998   21.2820 C   0  0  0  0  0  0  0  0  0  0  0  0
   13.0336  -17.2170   20.6596 C   0  0  0  0  0  0  0  0  0  0  0  0
   12.6087  -17.7902   19.4760 O   0  0  0  0  0  0  0  0  0  0  0  0
   14.0639  -17.6578   21.2137 O   0  0  0  0  0  0  0  0  0  0  0  0
  2 10  1  0
  2  1  1  1
  3  2  1  0
  4  3  1  0
  5  4  2  0
  6  5  1  0
  7  6  2  0
  7  8  1  0
  8  9  2  0
  9  4  1  0
 10 12  1  0
 11 10  2  0
 12 13  1  0
 12 16  1  0
 13 14  1  0
 14 15  1  0
 16 15  1  0
 16 17  1  1
 17 19  1  0
 18 17  2  0
 20 19  1  0
 21 20  1  0
 22 21  1  0
 23 21  2  0
M  END
$$$$
