FPG.pdb
     RDKit          3D

 23 24  0  0  1  0  0  0  0  0999 V2000
    5.9285  -17.9032   25.5460 N   0  0  0  0  0  0  0  0  0  0  0  0
    6.4909  -16.5696   25.3306 C   0  0  1  0  0  0  0  0  0  0  0  0
    7.0301  -16.0386   26.6488 C   0  0  0  0  0  0  0  0  0  0  0  0
    7.0770  -14.5745   26.6819 C   0  0  0  0  0  0  0  0  0  0  0  0
    8.2976  -13.9360   26.6217 C   0  0  0  0  0  0  0  0  0  0  0  0
    8.4423  -12.5644   26.6462 C   0  0  0  0  0  0  0  0  0  0  0  0
    7.2742  -11.8166   26.7371 C   0  0  0  0  0  0  0  0  0  0  0  0
    6.0503  -12.4542   26.7975 C   0  0  0  0  0  0  0  0  0  0  0  0
    5.9138  -13.8247   26.7724 C   0  0  0  0  0  0  0  0  0  0  0  0
    7.5133  -16.6229   24.2669 C   0  0  0  0  0  0  0  0  0  0  0  0
    8.2778  -17.6468   24.2934 O   0  0  0  0  0  0  0  0  0  0  0  0
    7.7073  -15.6610   23.2491 N   0  0  0  0  0  0  0  0  0  0  0  0
    6.9436  -14.3967   23.2420 C   0  0  0  0  0  0  0  0  0  0  0  0
    7.3586  -13.6247   22.0462 C   0  0  0  0  0  0  0  0  0  0  0  0
    8.1192  -14.5819   21.1953 C   0  0  0  0  0  0  0  0  0  0  0  0
    8.6052  -15.6751   22.1313 C   0  0  1  0  0  0  0  0  0  0  0  0
   10.0174  -15.4593   22.5275 C   0  0  0  0  0  0  0  0  0  0  0  0
   10.2618  -14.8340   23.5889 O   0  0  0  0  0  0  0  0  0  0  0  0
   11.1135  -15.9261   21.7643 N   0  0  0  0  0  0  0  0  0  0  0  0
   12.4919  -15.6891   22.1274 C   0  0  0  0  0  0  0  0  0  0  0  0
   13.1007  -16.9645   22.5463 C   0  0  0  0  0  0  0  0  0  0  0  0
   14.1698  -17.5138   21.8642 O   0  0  0  0  0  0  0  0  0  0  0  0
   12.6407  -17.5649   23.5417 O   0  0  0  0  0  0  0  0  0  0  0  0
  2 10  1  0
  2  1  1  1
  3  2  1  0
  4  3  1  0
  5  4  2  0
  6  5  1  0
  7  6  2  0
  7  8  1  0
  8  9  2  0
  9  4  1  0
 10 12  1  0
 11 10  2  0
 12 13  1  0
 12 16  1  0
 13 14  1  0
 14 15  1  0
 16 15  1  0
 16 17  1  1
 17 19  1  0
 18 17  2  0
 20 19  1  0
 21 20  1  0
 22 21  1  0
 23 21  2  0
M  END
$$$$
