FPG.pdb
     RDKit          3D

 23 24  0  0  1  0  0  0  0  0999 V2000
    6.0152  -17.7855   25.6506 N   0  0  0  0  0  0  0  0  0  0  0  0
    6.5978  -16.4926   25.2900 C   0  0  1  0  0  0  0  0  0  0  0  0
    7.2747  -15.8940   26.5122 C   0  0  0  0  0  0  0  0  0  0  0  0
    7.2310  -14.4294   26.5116 C   0  0  0  0  0  0  0  0  0  0  0  0
    6.0099  -13.7899   26.5433 C   0  0  0  0  0  0  0  0  0  0  0  0
    5.8679  -12.4178   26.5456 C   0  0  0  0  0  0  0  0  0  0  0  0
    7.0395  -11.6706   26.5137 C   0  0  0  0  0  0  0  0  0  0  0  0
    8.2640  -12.3093   26.4818 C   0  0  0  0  0  0  0  0  0  0  0  0
    8.3977  -13.6803   26.4798 C   0  0  0  0  0  0  0  0  0  0  0  0
    7.5141  -16.6581   24.1442 C   0  0  0  0  0  0  0  0  0  0  0  0
    8.2227  -17.7217   24.1594 O   0  0  0  0  0  0  0  0  0  0  0  0
    7.6643  -15.7615   23.0616 N   0  0  0  0  0  0  0  0  0  0  0  0
    6.9327  -14.4788   23.0292 C   0  0  0  0  0  0  0  0  0  0  0  0
    7.2872  -13.7879   21.7662 C   0  0  0  0  0  0  0  0  0  0  0  0
    7.9672  -14.8128   20.9260 C   0  0  0  0  0  0  0  0  0  0  0  0
    8.4867  -15.8642   21.8914 C   0  0  1  0  0  0  0  0  0  0  0  0
    9.9266  -15.6657   22.1834 C   0  0  0  0  0  0  0  0  0  0  0  0
   10.2566  -14.8823   23.1078 O   0  0  0  0  0  0  0  0  0  0  0  0
   10.9569  -16.3198   21.4675 N   0  0  0  0  0  0  0  0  0  0  0  0
   12.3624  -16.0801   21.7025 C   0  0  0  0  0  0  0  0  0  0  0  0
   12.8839  -17.1346   22.5907 C   0  0  0  0  0  0  0  0  0  0  0  0
   12.4144  -17.2906   23.8811 O   0  0  0  0  0  0  0  0  0  0  0  0
   13.7716  -17.9072   22.1687 O   0  0  0  0  0  0  0  0  0  0  0  0
  2 10  1  0
  2  1  1  1
  3  2  1  0
  4  3  1  0
  5  4  2  0
  6  5  1  0
  7  6  2  0
  7  8  1  0
  8  9  2  0
  9  4  1  0
 10 12  1  0
 11 10  2  0
 12 13  1  0
 12 16  1  0
 13 14  1  0
 14 15  1  0
 16 15  1  0
 16 17  1  1
 17 19  1  0
 18 17  2  0
 20 19  1  0
 21 20  1  0
 22 21  1  0
 23 21  2  0
M  END
$$$$
