FPG.pdb
     RDKit          3D

 23 24  0  0  1  0  0  0  0  0999 V2000
    7.3355  -17.4398   26.7589 N   0  0  0  0  0  0  0  0  0  0  0  0
    6.9393  -16.4891   25.7197 C   0  0  1  0  0  0  0  0  0  0  0  0
    6.9688  -15.0825   26.2951 C   0  0  0  0  0  0  0  0  0  0  0  0
    8.1701  -14.8339   27.0963 C   0  0  0  0  0  0  0  0  0  0  0  0
    8.3889  -13.5744   27.6130 C   0  0  0  0  0  0  0  0  0  0  0  0
    9.4886  -13.2448   28.3778 C   0  0  0  0  0  0  0  0  0  0  0  0
   10.4051  -14.2610   28.6210 C   0  0  0  0  0  0  0  0  0  0  0  0
   10.1879  -15.5236   28.1042 C   0  0  0  0  0  0  0  0  0  0  0  0
    9.0870  -15.8452   27.3412 C   0  0  0  0  0  0  0  0  0  0  0  0
    7.8086  -16.6485   24.5370 C   0  0  0  0  0  0  0  0  0  0  0  0
    8.5539  -17.6869   24.5417 O   0  0  0  0  0  0  0  0  0  0  0  0
    7.8789  -15.7713   23.4306 N   0  0  0  0  0  0  0  0  0  0  0  0
    7.1295  -14.4986   23.4203 C   0  0  0  0  0  0  0  0  0  0  0  0
    7.3951  -13.8280   22.1249 C   0  0  0  0  0  0  0  0  0  0  0  0
    8.0350  -14.8606   21.2630 C   0  0  0  0  0  0  0  0  0  0  0  0
    8.6279  -15.8865   22.2133 C   0  0  1  0  0  0  0  0  0  0  0  0
   10.0804  -15.6648   22.4107 C   0  0  0  0  0  0  0  0  0  0  0  0
   10.4604  -14.9415   23.3645 O   0  0  0  0  0  0  0  0  0  0  0  0
   11.0690  -16.2317   21.5721 N   0  0  0  0  0  0  0  0  0  0  0  0
   12.4875  -16.0831   21.8047 C   0  0  0  0  0  0  0  0  0  0  0  0
   13.2210  -16.8596   20.7890 C   0  0  0  0  0  0  0  0  0  0  0  0
   12.9118  -18.1808   20.5265 O   0  0  0  0  0  0  0  0  0  0  0  0
   14.1448  -16.3121   20.1488 O   0  0  0  0  0  0  0  0  0  0  0  0
  2 10  1  0
  2  1  1  1
  3  2  1  0
  4  3  1  0
  5  4  2  0
  6  5  1  0
  7  6  2  0
  7  8  1  0
  8  9  2  0
  9  4  1  0
 10 12  1  0
 11 10  2  0
 12 13  1  0
 12 16  1  0
 13 14  1  0
 14 15  1  0
 16 15  1  0
 16 17  1  1
 17 19  1  0
 18 17  2  0
 20 19  1  0
 21 20  1  0
 22 21  1  0
 23 21  2  0
M  END
$$$$
