VSP.pdb
     RDKit          3D

 21 21  0  0  1  0  0  0  0  0999 V2000
   22.0119  -12.3096  -19.4842 C   0  0  0  0  0  0  0  0  0  0  0  0
   21.4882  -11.0042  -18.9819 C   0  0  2  0  0  0  0  0  0  0  0  0
   22.3856   -9.8964  -19.4388 C   0  0  0  0  0  0  0  0  0  0  0  0
   21.3401  -10.9441  -17.4963 C   0  0  2  0  0  0  0  0  0  0  0  0
   20.6144  -12.0372  -16.9362 N   0  0  0  0  0  0  0  0  0  0  0  0
   20.7063   -9.6568  -17.0515 C   0  0  0  0  0  0  0  0  0  0  0  0
   20.1168   -8.9084  -17.8751 O   0  0  0  0  0  0  0  0  0  0  0  0
   20.7740   -8.6823  -12.8669 O   0  0  0  0  0  0  0  0  0  0  0  0
   19.7538   -8.2660  -13.7264 C   0  0  0  0  0  0  0  0  0  0  0  0
   20.2024   -8.0627  -15.1372 C   0  0  2  0  0  0  0  0  0  0  0  0
   20.7681   -9.2783  -15.7056 N   0  0  0  0  0  0  0  0  0  0  0  0
   21.1099   -6.9091  -15.3080 C   0  0  0  0  0  0  0  0  0  0  0  0
   22.3263   -7.1786  -15.5749 O   0  0  0  0  0  0  0  0  0  0  0  0
   20.7316   -5.5776  -15.2016 N   0  0  0  0  0  0  0  0  0  0  0  0
   19.4590   -4.9432  -14.8694 C   0  0  0  0  0  0  0  0  0  0  0  0
   19.4830   -3.6112  -15.5934 C   0  0  0  0  0  0  0  0  0  0  0  0
   20.7784   -3.6259  -16.3488 C   0  0  0  0  0  0  0  0  0  0  0  0
   21.6665   -4.4526  -15.4503 C   0  0  1  0  0  0  0  0  0  0  0  0
   21.9514   -3.8344  -14.1486 C   0  0  0  0  0  0  0  0  0  0  0  0
   23.0443   -3.0186  -13.9103 O   0  0  0  0  0  0  0  0  0  0  0  0
   21.1681   -4.0486  -13.1879 O   0  0  0  0  0  0  0  0  0  0  0  0
  2  4  1  0
  2  1  1  1
  3  2  1  0
  4  5  1  6
  6  4  1  0
  7  6  2  0
 10  9  1  1
  9  8  1  0
 10 12  1  0
 10 11  1  0
 11  6  1  0
 12 14  1  0
 13 12  2  0
 14 15  1  0
 14 18  1  0
 15 16  1  0
 16 17  1  0
 18 19  1  1
 18 17  1  0
 19 20  1  0
 21 19  2  0
M  END
$$$$
