VSP.pdb
     RDKit          3D

 21 21  0  0  1  0  0  0  0  0999 V2000
   20.7030  -13.5898  -18.3051 C   0  0  0  0  0  0  0  0  0  0  0  0
   19.4364  -13.2841  -17.5751 C   0  0  2  0  0  0  0  0  0  0  0  0
   18.5021  -12.5457  -18.4824 C   0  0  0  0  0  0  0  0  0  0  0  0
   19.6371  -12.4977  -16.3206 C   0  0  2  0  0  0  0  0  0  0  0  0
   18.4756  -12.4027  -15.4978 N   0  0  0  0  0  0  0  0  0  0  0  0
   20.1487  -11.1145  -16.6063 C   0  0  0  0  0  0  0  0  0  0  0  0
   21.2997  -10.9374  -17.0856 O   0  0  0  0  0  0  0  0  0  0  0  0
   17.5487   -7.7306  -15.8879 O   0  0  0  0  0  0  0  0  0  0  0  0
   18.4545   -7.8099  -16.9491 C   0  0  0  0  0  0  0  0  0  0  0  0
   19.6728   -8.6180  -16.6401 C   0  0  2  0  0  0  0  0  0  0  0  0
   19.3407  -10.0036  -16.3386 N   0  0  0  0  0  0  0  0  0  0  0  0
   20.5261   -8.0227  -15.5909 C   0  0  0  0  0  0  0  0  0  0  0  0
   20.5162   -8.6009  -14.4556 O   0  0  0  0  0  0  0  0  0  0  0  0
   21.3239   -6.8989  -15.7581 N   0  0  0  0  0  0  0  0  0  0  0  0
   21.4659   -5.9522  -16.8608 C   0  0  0  0  0  0  0  0  0  0  0  0
   22.8935   -5.4501  -16.7663 C   0  0  0  0  0  0  0  0  0  0  0  0
   23.4803   -6.2216  -15.6220 C   0  0  0  0  0  0  0  0  0  0  0  0
   22.2829   -6.4316  -14.7268 C   0  0  1  0  0  0  0  0  0  0  0  0
   21.7317   -5.1956  -14.1556 C   0  0  0  0  0  0  0  0  0  0  0  0
   22.2361   -4.5844  -13.0204 O   0  0  0  0  0  0  0  0  0  0  0  0
   20.7474   -4.6506  -14.7181 O   0  0  0  0  0  0  0  0  0  0  0  0
  2  4  1  0
  2  1  1  6
  3  2  1  0
  4  5  1  6
  6  4  1  0
  7  6  2  0
 10  9  1  1
  9  8  1  0
 10 12  1  0
 10 11  1  0
 11  6  1  0
 12 14  1  0
 13 12  2  0
 14 15  1  0
 14 18  1  0
 15 16  1  0
 16 17  1  0
 18 19  1  6
 18 17  1  0
 19 20  1  0
 21 19  2  0
M  END
$$$$
