VSP.pdb
     RDKit          3D

 21 21  0  0  1  0  0  0  0  0999 V2000
   15.3528   -8.3954  -15.3073 C   0  0  0  0  0  0  0  0  0  0  0  0
   15.7352   -9.4758  -16.2649 C   0  0  2  0  0  0  0  0  0  0  0  0
   14.5090  -10.2182  -16.6968 C   0  0  0  0  0  0  0  0  0  0  0  0
   16.7351  -10.4418  -15.7176 C   0  0  2  0  0  0  0  0  0  0  0  0
   16.2714  -11.1905  -14.5953 N   0  0  0  0  0  0  0  0  0  0  0  0
   18.0244   -9.7622  -15.3535 C   0  0  0  0  0  0  0  0  0  0  0  0
   18.1751   -9.2243  -14.2249 O   0  0  0  0  0  0  0  0  0  0  0  0
   22.6221   -8.9078  -16.9264 O   0  0  0  0  0  0  0  0  0  0  0  0
   21.3474   -9.4422  -17.1321 C   0  0  0  0  0  0  0  0  0  0  0  0
   20.3613   -9.0689  -16.0732 C   0  0  2  0  0  0  0  0  0  0  0  0
   19.0759   -9.7227  -16.2762 N   0  0  0  0  0  0  0  0  0  0  0  0
   20.2075   -7.6099  -15.8972 C   0  0  0  0  0  0  0  0  0  0  0  0
   19.2194   -7.0677  -16.4914 O   0  0  0  0  0  0  0  0  0  0  0  0
   21.0502   -6.8074  -15.1401 N   0  0  0  0  0  0  0  0  0  0  0  0
   22.2591   -7.1015  -14.3756 C   0  0  0  0  0  0  0  0  0  0  0  0
   22.2811   -6.0712  -13.2633 C   0  0  0  0  0  0  0  0  0  0  0  0
   21.0138   -5.2932  -13.4568 C   0  0  0  0  0  0  0  0  0  0  0  0
   20.8238   -5.3529  -14.9534 C   0  0  1  0  0  0  0  0  0  0  0  0
   21.8623   -4.6540  -15.7223 C   0  0  0  0  0  0  0  0  0  0  0  0
   22.8147   -5.3026  -16.4898 O   0  0  0  0  0  0  0  0  0  0  0  0
   21.9007   -3.3971  -15.6918 O   0  0  0  0  0  0  0  0  0  0  0  0
  2  4  1  0
  2  1  1  1
  3  2  1  0
  4  5  1  1
  6  4  1  0
  7  6  2  0
 10  9  1  6
  9  8  1  0
 10 12  1  0
 10 11  1  0
 11  6  1  0
 12 14  1  0
 13 12  2  0
 14 15  1  0
 14 18  1  0
 15 16  1  0
 16 17  1  0
 18 19  1  6
 18 17  1  0
 19 20  1  0
 21 19  2  0
M  END
$$$$
