VSP.pdb
     RDKit          3D

 21 21  0  0  1  0  0  0  0  0999 V2000
   22.9335  -18.2226  -15.0374 C   0  0  0  0  0  0  0  0  0  0  0  0
   23.1166  -16.8660  -15.6349 C   0  0  2  0  0  0  0  0  0  0  0  0
   23.8931  -16.0037  -14.6890 C   0  0  0  0  0  0  0  0  0  0  0  0
   21.8353  -16.1851  -15.9915 C   0  0  2  0  0  0  0  0  0  0  0  0
   20.9709  -16.9618  -16.8190 N   0  0  0  0  0  0  0  0  0  0  0  0
   22.0754  -14.8550  -16.6471 C   0  0  0  0  0  0  0  0  0  0  0  0
   22.7227  -14.7728  -17.7242 O   0  0  0  0  0  0  0  0  0  0  0  0
   19.3791  -12.4416  -17.6054 O   0  0  0  0  0  0  0  0  0  0  0  0
   20.7413  -12.2744  -17.8685 C   0  0  0  0  0  0  0  0  0  0  0  0
   21.6032  -12.3576  -16.6507 C   0  0  2  0  0  0  0  0  0  0  0  0
   21.5758  -13.6878  -16.0584 N   0  0  0  0  0  0  0  0  0  0  0  0
   21.3134  -11.3104  -15.6493 C   0  0  0  0  0  0  0  0  0  0  0  0
   20.5699  -11.6500  -14.6719 O   0  0  0  0  0  0  0  0  0  0  0  0
   21.7906  -10.0076  -15.7007 N   0  0  0  0  0  0  0  0  0  0  0  0
   22.5390   -9.2769  -16.7197 C   0  0  0  0  0  0  0  0  0  0  0  0
   23.3438   -8.2461  -15.9524 C   0  0  0  0  0  0  0  0  0  0  0  0
   23.0239   -8.5250  -14.5141 C   0  0  0  0  0  0  0  0  0  0  0  0
   21.6063   -9.0383  -14.5926 C   0  0  1  0  0  0  0  0  0  0  0  0
   20.6280   -8.0427  -15.0505 C   0  0  0  0  0  0  0  0  0  0  0  0
   20.0127   -8.0865  -16.2900 O   0  0  0  0  0  0  0  0  0  0  0  0
   20.3221   -7.0924  -14.2852 O   0  0  0  0  0  0  0  0  0  0  0  0
  2  4  1  0
  2  1  1  1
  3  2  1  0
  4  5  1  6
  6  4  1  0
  7  6  2  0
 10  9  1  6
  9  8  1  0
 10 12  1  0
 10 11  1  0
 11  6  1  0
 12 14  1  0
 13 12  2  0
 14 15  1  0
 14 18  1  0
 15 16  1  0
 16 17  1  0
 18 19  1  6
 18 17  1  0
 19 20  1  0
 21 19  2  0
M  END
$$$$
