VSP.pdb
     RDKit          3D

 21 21  0  0  1  0  0  0  0  0999 V2000
   27.2110   -9.4344  -18.1777 C   0  0  0  0  0  0  0  0  0  0  0  0
   27.4729  -10.4206  -17.0871 C   0  0  2  0  0  0  0  0  0  0  0  0
   28.7923  -11.0877  -17.3224 C   0  0  0  0  0  0  0  0  0  0  0  0
   26.4084  -11.4594  -16.9439 C   0  0  2  0  0  0  0  0  0  0  0  0
   26.3185  -12.3606  -18.0462 N   0  0  0  0  0  0  0  0  0  0  0  0
   25.0591  -10.8444  -16.7033 C   0  0  0  0  0  0  0  0  0  0  0  0
   24.2994  -10.5562  -17.6655 O   0  0  0  0  0  0  0  0  0  0  0  0
   21.6946   -9.8151  -13.2894 O   0  0  0  0  0  0  0  0  0  0  0  0
   22.8879  -10.4192  -13.6945 C   0  0  0  0  0  0  0  0  0  0  0  0
   23.3856   -9.9381  -15.0188 C   0  0  2  0  0  0  0  0  0  0  0  0
   24.6345  -10.5857  -15.3951 N   0  0  0  0  0  0  0  0  0  0  0  0
   23.4859   -8.4670  -15.1131 C   0  0  0  0  0  0  0  0  0  0  0  0
   24.6562   -7.9711  -15.0241 O   0  0  0  0  0  0  0  0  0  0  0  0
   22.4109   -7.6067  -15.2913 N   0  0  0  0  0  0  0  0  0  0  0  0
   20.9777   -7.8454  -15.4379 C   0  0  0  0  0  0  0  0  0  0  0  0
   20.4713   -6.6913  -16.2809 C   0  0  0  0  0  0  0  0  0  0  0  0
   21.7050   -5.9026  -16.6048 C   0  0  0  0  0  0  0  0  0  0  0  0
   22.5652   -6.1340  -15.3858 C   0  0  1  0  0  0  0  0  0  0  0  0
   22.0212   -5.5643  -14.1459 C   0  0  0  0  0  0  0  0  0  0  0  0
   22.2223   -4.2523  -13.7524 O   0  0  0  0  0  0  0  0  0  0  0  0
   21.3324   -6.2966  -13.3898 O   0  0  0  0  0  0  0  0  0  0  0  0
  2  4  1  0
  2  1  1  6
  3  2  1  0
  4  5  1  6
  6  4  1  0
  7  6  2  0
 10  9  1  1
  9  8  1  0
 10 12  1  0
 10 11  1  0
 11  6  1  0
 12 14  1  0
 13 12  2  0
 14 15  1  0
 14 18  1  0
 15 16  1  0
 16 17  1  0
 18 19  1  1
 18 17  1  0
 19 20  1  0
 21 19  2  0
M  END
$$$$
