VSP.pdb
     RDKit          3D

 21 21  0  0  1  0  0  0  0  0999 V2000
   20.8022  -14.4149  -18.4538 C   0  0  0  0  0  0  0  0  0  0  0  0
   21.2489  -13.4199  -19.4741 C   0  0  2  0  0  0  0  0  0  0  0  0
   22.7340  -13.5080  -19.6417 C   0  0  0  0  0  0  0  0  0  0  0  0
   20.8670  -12.0117  -19.1522 C   0  0  2  0  0  0  0  0  0  0  0  0
   20.9372  -11.1183  -20.2622 N   0  0  0  0  0  0  0  0  0  0  0  0
   21.6889  -11.4560  -18.0241 C   0  0  0  0  0  0  0  0  0  0  0  0
   21.7415  -12.0444  -16.9120 O   0  0  0  0  0  0  0  0  0  0  0  0
   25.3865   -8.6436  -16.7362 O   0  0  0  0  0  0  0  0  0  0  0  0
   24.5800   -9.2779  -17.6850 C   0  0  0  0  0  0  0  0  0  0  0  0
   23.2063   -9.5954  -17.1901 C   0  0  2  0  0  0  0  0  0  0  0  0
   22.4079  -10.2690  -18.2049 N   0  0  0  0  0  0  0  0  0  0  0  0
   22.4970   -8.4281  -16.6265 C   0  0  0  0  0  0  0  0  0  0  0  0
   21.8467   -7.7067  -17.4512 O   0  0  0  0  0  0  0  0  0  0  0  0
   22.4904   -8.0740  -15.2841 N   0  0  0  0  0  0  0  0  0  0  0  0
   23.0905   -8.6908  -14.1042 C   0  0  0  0  0  0  0  0  0  0  0  0
   22.1818   -8.3042  -12.9536 C   0  0  0  0  0  0  0  0  0  0  0  0
   21.0747   -7.5288  -13.6031 C   0  0  0  0  0  0  0  0  0  0  0  0
   21.7777   -6.8784  -14.7702 C   0  0  1  0  0  0  0  0  0  0  0  0
   22.8028   -5.8982  -14.3876 C   0  0  0  0  0  0  0  0  0  0  0  0
   24.1594   -6.0906  -14.5867 O   0  0  0  0  0  0  0  0  0  0  0  0
   22.4437   -4.8198  -13.8488 O   0  0  0  0  0  0  0  0  0  0  0  0
  2  4  1  0
  2  1  1  1
  3  2  1  0
  4  5  1  6
  6  4  1  0
  7  6  2  0
 10  9  1  6
  9  8  1  0
 10 12  1  0
 10 11  1  0
 11  6  1  0
 12 14  1  0
 13 12  2  0
 14 15  1  0
 14 18  1  0
 15 16  1  0
 16 17  1  0
 18 19  1  1
 18 17  1  0
 19 20  1  0
 21 19  2  0
M  END
$$$$
