VSP.pdb
     RDKit          3D

 21 21  0  0  1  0  0  0  0  0999 V2000
   20.6350  -20.5291  -15.6571 C   0  0  0  0  0  0  0  0  0  0  0  0
   21.1426  -21.7413  -14.9474 C   0  0  2  0  0  0  0  0  0  0  0  0
   20.1037  -22.8183  -14.9916 C   0  0  0  0  0  0  0  0  0  0  0  0
   21.5383  -21.4892  -13.5288 C   0  0  2  0  0  0  0  0  0  0  0  0
   20.5086  -20.9114  -12.7283 N   0  0  0  0  0  0  0  0  0  0  0  0
   22.7682  -20.6314  -13.4379 C   0  0  0  0  0  0  0  0  0  0  0  0
   22.6768  -19.3847  -13.2855 O   0  0  0  0  0  0  0  0  0  0  0  0
   27.7027  -20.7614  -13.6275 O   0  0  0  0  0  0  0  0  0  0  0  0
   26.4713  -21.3966  -13.4455 C   0  0  0  0  0  0  0  0  0  0  0  0
   25.2950  -20.5055  -13.6810 C   0  0  2  0  0  0  0  0  0  0  0  0
   24.0355  -21.2192  -13.5229 N   0  0  0  0  0  0  0  0  0  0  0  0
   25.3514  -19.7805  -14.9673 C   0  0  0  0  0  0  0  0  0  0  0  0
   24.5933  -20.2122  -15.8959 O   0  0  0  0  0  0  0  0  0  0  0  0
   26.1579  -18.6801  -15.2248 N   0  0  0  0  0  0  0  0  0  0  0  0
   27.1737  -18.0003  -14.4257 C   0  0  0  0  0  0  0  0  0  0  0  0
   27.1502  -16.5611  -14.9023 C   0  0  0  0  0  0  0  0  0  0  0  0
   26.0484  -16.5276  -15.9190 C   0  0  0  0  0  0  0  0  0  0  0  0
   26.1014  -17.9208  -16.4983 C   0  0  1  0  0  0  0  0  0  0  0  0
   27.3367  -18.2223  -17.2338 C   0  0  0  0  0  0  0  0  0  0  0  0
   27.6441  -17.6807  -18.4703 O   0  0  0  0  0  0  0  0  0  0  0  0
   28.1710  -19.0142  -16.7247 O   0  0  0  0  0  0  0  0  0  0  0  0
  2  4  1  0
  2  1  1  1
  3  2  1  0
  4  5  1  1
  6  4  1  0
  7  6  2  0
 10  9  1  6
  9  8  1  0
 10 12  1  0
 10 11  1  0
 11  6  1  0
 12 14  1  0
 13 12  2  0
 14 15  1  0
 14 18  1  0
 15 16  1  0
 16 17  1  0
 18 19  1  6
 18 17  1  0
 19 20  1  0
 21 19  2  0
M  END
$$$$
