VSP.pdb
     RDKit          3D

 21 21  0  0  1  0  0  0  0  0999 V2000
   21.5613  -21.2894  -16.7372 C   0  0  0  0  0  0  0  0  0  0  0  0
   20.7519  -20.7855  -15.5876 C   0  0  2  0  0  0  0  0  0  0  0  0
   20.3480  -19.3670  -15.8441 C   0  0  0  0  0  0  0  0  0  0  0  0
   21.4530  -20.8731  -14.2710 C   0  0  2  0  0  0  0  0  0  0  0  0
   20.6513  -20.4898  -13.1549 N   0  0  0  0  0  0  0  0  0  0  0  0
   22.7218  -20.0690  -14.2612 C   0  0  0  0  0  0  0  0  0  0  0  0
   22.6975  -18.8258  -14.0624 O   0  0  0  0  0  0  0  0  0  0  0  0
   27.6361  -20.4465  -14.3280 O   0  0  0  0  0  0  0  0  0  0  0  0
   26.3668  -21.0309  -14.3151 C   0  0  0  0  0  0  0  0  0  0  0  0
   25.2526  -20.0516  -14.4953 C   0  0  2  0  0  0  0  0  0  0  0  0
   23.9506  -20.7038  -14.4754 N   0  0  0  0  0  0  0  0  0  0  0  0
   25.4107  -19.1894  -15.6848 C   0  0  0  0  0  0  0  0  0  0  0  0
   24.7407  -19.5184  -16.7174 O   0  0  0  0  0  0  0  0  0  0  0  0
   26.2229  -18.0652  -15.7494 N   0  0  0  0  0  0  0  0  0  0  0  0
   27.1341  -17.4569  -14.7839 C   0  0  0  0  0  0  0  0  0  0  0  0
   27.1400  -15.9797  -15.1259 C   0  0  0  0  0  0  0  0  0  0  0  0
   26.1556  -15.8581  -16.2507 C   0  0  0  0  0  0  0  0  0  0  0  0
   26.2940  -17.1909  -16.9461 C   0  0  1  0  0  0  0  0  0  0  0  0
   27.6070  -17.4156  -17.5653 C   0  0  0  0  0  0  0  0  0  0  0  0
   28.0620  -16.7186  -18.6716 O   0  0  0  0  0  0  0  0  0  0  0  0
   28.3713  -18.2856  -17.0742 O   0  0  0  0  0  0  0  0  0  0  0  0
  2  4  1  0
  2  1  1  6
  3  2  1  0
  4  5  1  1
  6  4  1  0
  7  6  2  0
 10  9  1  6
  9  8  1  0
 10 12  1  0
 10 11  1  0
 11  6  1  0
 12 14  1  0
 13 12  2  0
 14 15  1  0
 14 18  1  0
 15 16  1  0
 16 17  1  0
 18 19  1  1
 18 17  1  0
 19 20  1  0
 21 19  2  0
M  END
$$$$
