VSP.pdb
     RDKit          3D

 21 21  0  0  1  0  0  0  0  0999 V2000
   22.1551  -21.0180  -17.4608 C   0  0  0  0  0  0  0  0  0  0  0  0
   22.0362  -19.5292  -17.4563 C   0  0  2  0  0  0  0  0  0  0  0  0
   20.8231  -19.1222  -18.2333 C   0  0  0  0  0  0  0  0  0  0  0  0
   23.2361  -18.8259  -18.0022 C   0  0  2  0  0  0  0  0  0  0  0  0
   23.5032  -19.1049  -19.3755 N   0  0  0  0  0  0  0  0  0  0  0  0
   24.4686  -19.1189  -17.1947 C   0  0  0  0  0  0  0  0  0  0  0  0
   25.3463  -19.9149  -17.6210 O   0  0  0  0  0  0  0  0  0  0  0  0
   25.6601  -16.5258  -14.0614 O   0  0  0  0  0  0  0  0  0  0  0  0
   26.4722  -17.4735  -14.6902 C   0  0  0  0  0  0  0  0  0  0  0  0
   25.7591  -18.7397  -15.0383 C   0  0  2  0  0  0  0  0  0  0  0  0
   24.6498  -18.5024  -15.9515 N   0  0  0  0  0  0  0  0  0  0  0  0
   25.3346  -19.5219  -13.8588 C   0  0  0  0  0  0  0  0  0  0  0  0
   24.0792  -19.6622  -13.6927 O   0  0  0  0  0  0  0  0  0  0  0  0
   26.1963  -20.1046  -12.9393 N   0  0  0  0  0  0  0  0  0  0  0  0
   27.6308  -19.9567  -12.7091 C   0  0  0  0  0  0  0  0  0  0  0  0
   28.0757  -21.2873  -12.1342 C   0  0  0  0  0  0  0  0  0  0  0  0
   26.8329  -22.1265  -12.1430 C   0  0  0  0  0  0  0  0  0  0  0  0
   25.7477  -21.0982  -11.9327 C   0  0  1  0  0  0  0  0  0  0  0  0
   25.7912  -20.4335  -10.6235 C   0  0  0  0  0  0  0  0  0  0  0  0
   25.2496  -20.9755   -9.4704 O   0  0  0  0  0  0  0  0  0  0  0  0
   26.3481  -19.3096  -10.5290 O   0  0  0  0  0  0  0  0  0  0  0  0
  2  4  1  0
  2  1  1  6
  3  2  1  0
  4  5  1  6
  6  4  1  0
  7  6  2  0
 10  9  1  1
  9  8  1  0
 10 12  1  0
 10 11  1  0
 11  6  1  0
 12 14  1  0
 13 12  2  0
 14 15  1  0
 14 18  1  0
 15 16  1  0
 16 17  1  0
 18 19  1  1
 18 17  1  0
 19 20  1  0
 21 19  2  0
M  END
$$$$
