VSP.pdb
     RDKit          3D

 21 21  0  0  1  0  0  0  0  0999 V2000
   21.5780  -15.0043  -17.8636 C   0  0  0  0  0  0  0  0  0  0  0  0
   20.2951  -14.4417  -18.3814 C   0  0  2  0  0  0  0  0  0  0  0  0
   19.9725  -15.0662  -19.7032 C   0  0  0  0  0  0  0  0  0  0  0  0
   20.3011  -12.9541  -18.5220 C   0  0  2  0  0  0  0  0  0  0  0  0
   21.1771  -12.4661  -19.5366 N   0  0  0  0  0  0  0  0  0  0  0  0
   20.6290  -12.2735  -17.2235 C   0  0  0  0  0  0  0  0  0  0  0  0
   19.8773  -12.3978  -16.2208 O   0  0  0  0  0  0  0  0  0  0  0  0
   24.2363   -9.8805  -16.9308 O   0  0  0  0  0  0  0  0  0  0  0  0
   23.6654  -10.5728  -15.8595 C   0  0  0  0  0  0  0  0  0  0  0  0
   22.1806  -10.7099  -15.9557 C   0  0  2  0  0  0  0  0  0  0  0  0
   21.7835  -11.4894  -17.1200 N   0  0  0  0  0  0  0  0  0  0  0  0
   21.4630   -9.4196  -15.8947 C   0  0  0  0  0  0  0  0  0  0  0  0
   21.0331   -8.9565  -17.0011 O   0  0  0  0  0  0  0  0  0  0  0  0
   21.2288   -8.6944  -14.7342 N   0  0  0  0  0  0  0  0  0  0  0  0
   21.6089   -8.9211  -13.3425 C   0  0  0  0  0  0  0  0  0  0  0  0
   20.5198   -8.2555  -12.5243 C   0  0  0  0  0  0  0  0  0  0  0  0
   19.5505   -7.7441  -13.5479 C   0  0  0  0  0  0  0  0  0  0  0  0
   20.4520   -7.4304  -14.7176 C   0  0  1  0  0  0  0  0  0  0  0  0
   21.4070   -6.3421  -14.4691 C   0  0  0  0  0  0  0  0  0  0  0  0
   21.0516   -5.0046  -14.4297 O   0  0  0  0  0  0  0  0  0  0  0  0
   22.6178   -6.6255  -14.2796 O   0  0  0  0  0  0  0  0  0  0  0  0
  2  4  1  0
  2  1  1  6
  3  2  1  0
  4  5  1  6
  6  4  1  0
  7  6  2  0
 10  9  1  6
  9  8  1  0
 10 12  1  0
 10 11  1  0
 11  6  1  0
 12 14  1  0
 13 12  2  0
 14 15  1  0
 14 18  1  0
 15 16  1  0
 16 17  1  0
 18 19  1  1
 18 17  1  0
 19 20  1  0
 21 19  2  0
M  END
$$$$
