VSP.pdb
     RDKit          3D

 21 21  0  0  1  0  0  0  0  0999 V2000
   18.2421  -13.1405  -17.2871 C   0  0  0  0  0  0  0  0  0  0  0  0
   18.0840  -11.7026  -16.9156 C   0  0  2  0  0  0  0  0  0  0  0  0
   19.4144  -11.0195  -16.9829 C   0  0  0  0  0  0  0  0  0  0  0  0
   17.4834  -11.4906  -15.5639 C   0  0  2  0  0  0  0  0  0  0  0  0
   16.1998  -12.0894  -15.3937 N   0  0  0  0  0  0  0  0  0  0  0  0
   17.3924  -10.0316  -15.2177 C   0  0  0  0  0  0  0  0  0  0  0  0
   16.7049   -9.2428  -15.9184 O   0  0  0  0  0  0  0  0  0  0  0  0
   18.7132   -8.5864  -11.3827 O   0  0  0  0  0  0  0  0  0  0  0  0
   17.8015   -7.9724  -12.2458 C   0  0  0  0  0  0  0  0  0  0  0  0
   18.1370   -8.1399  -13.6922 C   0  0  2  0  0  0  0  0  0  0  0  0
   18.0783   -9.5359  -14.1031 N   0  0  0  0  0  0  0  0  0  0  0  0
   19.4183   -7.5130  -14.0779 C   0  0  0  0  0  0  0  0  0  0  0  0
   20.3872   -8.3043  -14.3194 O   0  0  0  0  0  0  0  0  0  0  0  0
   19.6310   -6.1461  -14.1947 N   0  0  0  0  0  0  0  0  0  0  0  0
   18.7609   -4.9953  -13.9682 C   0  0  0  0  0  0  0  0  0  0  0  0
   19.2779   -3.9214  -14.9055 C   0  0  0  0  0  0  0  0  0  0  0  0
   20.3925   -4.5903  -15.6531 C   0  0  0  0  0  0  0  0  0  0  0  0
   20.9250   -5.5670  -14.6325 C   0  0  1  0  0  0  0  0  0  0  0  0
   21.5346   -4.9366  -13.4540 C   0  0  0  0  0  0  0  0  0  0  0  0
   22.8598   -4.5400  -13.3962 O   0  0  0  0  0  0  0  0  0  0  0  0
   20.8260   -4.7393  -12.4336 O   0  0  0  0  0  0  0  0  0  0  0  0
  2  4  1  0
  2  1  1  1
  3  2  1  0
  4  5  1  6
  6  4  1  0
  7  6  2  0
 10  9  1  1
  9  8  1  0
 10 12  1  0
 10 11  1  0
 11  6  1  0
 12 14  1  0
 13 12  2  0
 14 15  1  0
 14 18  1  0
 15 16  1  0
 16 17  1  0
 18 19  1  1
 18 17  1  0
 19 20  1  0
 21 19  2  0
M  END
$$$$
