VSP.pdb
     RDKit          3D

 21 21  0  0  1  0  0  0  0  0999 V2000
   17.7058  -13.2184  -16.1640 C   0  0  0  0  0  0  0  0  0  0  0  0
   16.6168  -12.5008  -15.4363 C   0  0  2  0  0  0  0  0  0  0  0  0
   15.2876  -13.0294  -15.8779 C   0  0  0  0  0  0  0  0  0  0  0  0
   16.6467  -11.0176  -15.6147 C   0  0  2  0  0  0  0  0  0  0  0  0
   16.3430  -10.5815  -16.9386 N   0  0  0  0  0  0  0  0  0  0  0  0
   17.9663  -10.4332  -15.1977 C   0  0  0  0  0  0  0  0  0  0  0  0
   18.3803  -10.5513  -14.0142 O   0  0  0  0  0  0  0  0  0  0  0  0
   22.3405   -9.0671  -16.6926 O   0  0  0  0  0  0  0  0  0  0  0  0
   21.0457   -9.5299  -16.9423 C   0  0  0  0  0  0  0  0  0  0  0  0
   20.0620   -9.1662  -15.8780 C   0  0  2  0  0  0  0  0  0  0  0  0
   18.7509   -9.7472  -16.1317 N   0  0  0  0  0  0  0  0  0  0  0  0
   19.9733   -7.7127  -15.6273 C   0  0  0  0  0  0  0  0  0  0  0  0
   18.9969   -7.1014  -16.1717 O   0  0  0  0  0  0  0  0  0  0  0  0
   20.8645   -6.9842  -14.8510 N   0  0  0  0  0  0  0  0  0  0  0  0
   22.0833   -7.3625  -14.1412 C   0  0  0  0  0  0  0  0  0  0  0  0
   22.1725   -6.4001  -12.9729 C   0  0  0  0  0  0  0  0  0  0  0  0
   20.9283   -5.5703  -13.0835 C   0  0  0  0  0  0  0  0  0  0  0  0
   20.6946   -5.5363  -14.5747 C   0  0  1  0  0  0  0  0  0  0  0  0
   21.7349   -4.8289  -15.3330 C   0  0  0  0  0  0  0  0  0  0  0  0
   21.8387   -3.4494  -15.3885 O   0  0  0  0  0  0  0  0  0  0  0  0
   22.5857   -5.4999  -15.9720 O   0  0  0  0  0  0  0  0  0  0  0  0
  2  4  1  0
  2  1  1  6
  3  2  1  0
  4  5  1  6
  6  4  1  0
  7  6  2  0
 10  9  1  6
  9  8  1  0
 10 12  1  0
 10 11  1  0
 11  6  1  0
 12 14  1  0
 13 12  2  0
 14 15  1  0
 14 18  1  0
 15 16  1  0
 16 17  1  0
 18 19  1  6
 18 17  1  0
 19 20  1  0
 21 19  2  0
M  END
$$$$
