VSP.pdb
     RDKit          3D

 21 21  0  0  1  0  0  0  0  0999 V2000
   10.6944  -10.8640   -9.2657 C   0  0  0  0  0  0  0  0  0  0  0  0
   10.2627  -11.4463  -10.5715 C   0  0  2  0  0  0  0  0  0  0  0  0
    8.8125  -11.8113  -10.5012 C   0  0  0  0  0  0  0  0  0  0  0  0
   11.0565  -12.6402  -10.9924 C   0  0  2  0  0  0  0  0  0  0  0  0
   10.9329  -13.7620  -10.1198 N   0  0  0  0  0  0  0  0  0  0  0  0
   12.5122  -12.3096  -11.1610 C   0  0  0  0  0  0  0  0  0  0  0  0
   13.3357  -12.5255  -10.2330 O   0  0  0  0  0  0  0  0  0  0  0  0
   14.9149  -13.1130  -14.3246 O   0  0  0  0  0  0  0  0  0  0  0  0
   14.6850  -11.7531  -14.0992 C   0  0  0  0  0  0  0  0  0  0  0  0
   14.3493  -11.4277  -12.6800 C   0  0  2  0  0  0  0  0  0  0  0  0
   12.9659  -11.7541  -12.3628 N   0  0  0  0  0  0  0  0  0  0  0  0
   14.6818  -10.0396  -12.2977 C   0  0  0  0  0  0  0  0  0  0  0  0
   13.7066   -9.2233  -12.2195 O   0  0  0  0  0  0  0  0  0  0  0  0
   15.9609   -9.5761  -12.0210 N   0  0  0  0  0  0  0  0  0  0  0  0
   17.2708  -10.2190  -12.0787 C   0  0  0  0  0  0  0  0  0  0  0  0
   18.1052   -9.5052  -11.0331 C   0  0  0  0  0  0  0  0  0  0  0  0
   17.1547   -8.5289  -10.4068 C   0  0  0  0  0  0  0  0  0  0  0  0
   16.2332   -8.1940  -11.5549 C   0  0  1  0  0  0  0  0  0  0  0  0
   16.8844   -7.4862  -12.6652 C   0  0  0  0  0  0  0  0  0  0  0  0
   17.1652   -6.1306  -12.6504 O   0  0  0  0  0  0  0  0  0  0  0  0
   17.2112   -8.1343  -13.6927 O   0  0  0  0  0  0  0  0  0  0  0  0
  2  4  1  0
  2  1  1  1
  3  2  1  0
  4  5  1  1
  6  4  1  0
  7  6  2  0
 10  9  1  6
  9  8  1  0
 10 12  1  0
 10 11  1  0
 11  6  1  0
 12 14  1  0
 13 12  2  0
 14 15  1  0
 14 18  1  0
 15 16  1  0
 16 17  1  0
 18 19  1  6
 18 17  1  0
 19 20  1  0
 21 19  2  0
M  END
$$$$
