VSP.pdb
     RDKit          3D

 21 21  0  0  1  0  0  0  0  0999 V2000
   16.8849  -12.6859  -15.2807 C   0  0  0  0  0  0  0  0  0  0  0  0
   15.9234  -11.5840  -15.5840 C   0  0  2  0  0  0  0  0  0  0  0  0
   14.8288  -12.1033  -16.4635 C   0  0  0  0  0  0  0  0  0  0  0  0
   16.5544  -10.3915  -16.2263 C   0  0  2  0  0  0  0  0  0  0  0  0
   16.8601  -10.5652  -17.6089 N   0  0  0  0  0  0  0  0  0  0  0  0
   17.7972   -9.9608  -15.5007 C   0  0  0  0  0  0  0  0  0  0  0  0
   17.7606   -9.6603  -14.2783 O   0  0  0  0  0  0  0  0  0  0  0  0
   22.6753   -9.5100  -15.8255 O   0  0  0  0  0  0  0  0  0  0  0  0
   21.4537   -9.9833  -16.3119 C   0  0  0  0  0  0  0  0  0  0  0  0
   20.2641   -9.3672  -15.6500 C   0  0  2  0  0  0  0  0  0  0  0  0
   19.0152   -9.8902  -16.1864 N   0  0  0  0  0  0  0  0  0  0  0  0
   20.2828   -7.8897  -15.6580 C   0  0  0  0  0  0  0  0  0  0  0  0
   19.5792   -7.3180  -16.5533 O   0  0  0  0  0  0  0  0  0  0  0  0
   21.0002   -7.0991  -14.7704 N   0  0  0  0  0  0  0  0  0  0  0  0
   21.8458   -7.4286  -13.6263 C   0  0  0  0  0  0  0  0  0  0  0  0
   21.7341   -6.2348  -12.6983 C   0  0  0  0  0  0  0  0  0  0  0  0
   20.7572   -5.3261  -13.3830 C   0  0  0  0  0  0  0  0  0  0  0  0
   21.0139   -5.6171  -14.8421 C   0  0  1  0  0  0  0  0  0  0  0  0
   22.3487   -5.2218  -15.3110 C   0  0  0  0  0  0  0  0  0  0  0  0
   22.7079   -3.9133  -15.5864 O   0  0  0  0  0  0  0  0  0  0  0  0
   23.2243   -6.1097  -15.4757 O   0  0  0  0  0  0  0  0  0  0  0  0
  2  4  1  0
  2  1  1  6
  3  2  1  0
  4  5  1  6
  6  4  1  0
  7  6  2  0
 10  9  1  6
  9  8  1  0
 10 12  1  0
 10 11  1  0
 11  6  1  0
 12 14  1  0
 13 12  2  0
 14 15  1  0
 14 18  1  0
 15 16  1  0
 16 17  1  0
 18 19  1  1
 18 17  1  0
 19 20  1  0
 21 19  2  0
M  END
$$$$
