FAL.pdb
     RDKit          3D

 25 25  0  0  1  0  0  0  0  0999 V2000
   38.1359  -36.8096  -15.9149 N   0  0  0  0  0  0  0  0  0  0  0  0
   37.0334  -36.1793  -15.2611 C   0  0  1  0  0  0  0  0  0  0  0  0
   37.4598  -35.0385  -14.3699 C   0  0  0  0  0  0  0  0  0  0  0  0
   38.1553  -35.4604  -13.1577 C   0  0  0  0  0  0  0  0  0  0  0  0
   39.5269  -35.5887  -13.1864 C   0  0  0  0  0  0  0  0  0  0  0  0
   40.2655  -35.9808  -12.0896 C   0  0  0  0  0  0  0  0  0  0  0  0
   39.6082  -36.2565  -10.9146 C   0  0  0  0  0  0  0  0  0  0  0  0
   38.2447  -36.1384  -10.8531 C   0  0  0  0  0  0  0  0  0  0  0  0
   37.5250  -35.7426  -11.9690 C   0  0  0  0  0  0  0  0  0  0  0  0
   36.1013  -35.6133  -16.2662 C   0  0  0  0  0  0  0  0  0  0  0  0
   36.5738  -35.1902  -17.3479 O   0  0  0  0  0  0  0  0  0  0  0  0
   32.5676  -36.0573  -17.1808 C   0  0  0  0  0  0  0  0  0  0  0  0
   33.7699  -35.1506  -17.1097 C   0  0  2  0  0  0  0  0  0  0  0  0
   34.6974  -35.5189  -16.0811 N   0  0  0  0  0  0  0  0  0  0  0  0
   33.2636  -33.7632  -16.9600 C   0  0  0  0  0  0  0  0  0  0  0  0
   32.9832  -33.4032  -15.7712 O   0  0  0  0  0  0  0  0  0  0  0  0
   34.5760  -29.5928  -17.2125 C   0  0  0  0  0  0  0  0  0  0  0  0
   34.3241  -30.0864  -18.6331 C   0  0  2  0  0  0  0  0  0  0  0  0
   34.8255  -29.1280  -19.6603 C   0  0  0  0  0  0  0  0  0  0  0  0
   32.9356  -30.5711  -18.8168 C   0  0  0  0  0  0  0  0  0  0  0  0
   32.4488  -31.6122  -17.8589 C   0  0  2  0  0  0  0  0  0  0  0  0
   33.0994  -32.8898  -18.0604 N   0  0  0  0  0  0  0  0  0  0  0  0
   30.9959  -31.7343  -17.7362 C   0  0  0  0  0  0  0  0  0  0  0  0
   30.3883  -32.7467  -18.1391 O   0  0  0  0  0  0  0  0  0  0  0  0
   30.2660  -30.7123  -17.1630 O   0  0  0  0  0  0  0  0  0  0  0  0
  2  3  1  0
  2  1  1  6
  2 10  1  0
  4  3  1  0
  4  9  2  0
  5  4  1  0
  6  5  2  0
  6  7  1  0
  7  8  2  0
  8  9  1  0
 10 14  1  0
 11 10  2  0
 13 12  1  1
 14 13  1  0
 15 16  2  0
 15 13  1  0
 18 20  1  0
 18 17  1  1
 18 19  1  0
 21 22  1  0
 21 20  1  6
 22 15  1  0
 23 21  1  0
 24 23  2  0
 25 23  1  0
M  END
$$$$
