FAL.pdb
     RDKit          3D

 25 25  0  0  1  0  0  0  0  0999 V2000
   27.7733  -21.4433  -14.8795 N   0  0  0  0  0  0  0  0  0  0  0  0
   26.7251  -21.6276  -13.9268 C   0  0  1  0  0  0  0  0  0  0  0  0
   26.7626  -20.6076  -12.8152 C   0  0  0  0  0  0  0  0  0  0  0  0
   27.9407  -20.7062  -11.9587 C   0  0  0  0  0  0  0  0  0  0  0  0
   29.1064  -20.0870  -12.3542 C   0  0  0  0  0  0  0  0  0  0  0  0
   30.2659  -20.1273  -11.6086 C   0  0  0  0  0  0  0  0  0  0  0  0
   30.2627  -20.8141  -10.4184 C   0  0  0  0  0  0  0  0  0  0  0  0
   29.1196  -21.4407   -9.9967 C   0  0  0  0  0  0  0  0  0  0  0  0
   27.9671  -21.3856  -10.7639 C   0  0  0  0  0  0  0  0  0  0  0  0
   25.4054  -21.4919  -14.5894 C   0  0  0  0  0  0  0  0  0  0  0  0
   25.1382  -20.4155  -15.1744 O   0  0  0  0  0  0  0  0  0  0  0  0
   22.9013  -23.3995  -16.3208 C   0  0  0  0  0  0  0  0  0  0  0  0
   23.1352  -22.3831  -15.2323 C   0  0  2  0  0  0  0  0  0  0  0  0
   24.4170  -22.5103  -14.6041 N   0  0  0  0  0  0  0  0  0  0  0  0
   22.0084  -22.5018  -14.2732 C   0  0  0  0  0  0  0  0  0  0  0  0
   22.1614  -23.3605  -13.3455 O   0  0  0  0  0  0  0  0  0  0  0  0
   20.4678  -18.4037  -10.8459 C   0  0  0  0  0  0  0  0  0  0  0  0
   20.2160  -19.8859  -11.1004 C   0  0  2  0  0  0  0  0  0  0  0  0
   20.4476  -20.7146   -9.8819 C   0  0  0  0  0  0  0  0  0  0  0  0
   20.8715  -20.3574  -12.3433 C   0  0  0  0  0  0  0  0  0  0  0  0
   20.1210  -21.3539  -13.1693 C   0  0  2  0  0  0  0  0  0  0  0  0
   20.8363  -21.7166  -14.3746 N   0  0  0  0  0  0  0  0  0  0  0  0
   18.7148  -21.0397  -13.4231 C   0  0  0  0  0  0  0  0  0  0  0  0
   18.3618  -20.3797  -14.4212 O   0  0  0  0  0  0  0  0  0  0  0  0
   17.7432  -21.4772  -12.5453 O   0  0  0  0  0  0  0  0  0  0  0  0
  2  3  1  0
  2  1  1  6
  2 10  1  0
  4  3  1  0
  4  9  2  0
  5  4  1  0
  6  5  2  0
  6  7  1  0
  7  8  2  0
  8  9  1  0
 10 14  1  0
 11 10  2  0
 13 12  1  6
 14 13  1  0
 15 16  2  0
 15 13  1  0
 18 20  1  0
 18 17  1  1
 18 19  1  0
 21 22  1  0
 21 20  1  6
 22 15  1  0
 23 21  1  0
 24 23  2  0
 25 23  1  0
M  END
$$$$
