FAL.pdb
     RDKit          3D

 25 25  0  0  1  0  0  0  0  0999 V2000
   16.4053  -12.7387    5.5579 N   0  0  0  0  0  0  0  0  0  0  0  0
   16.6380  -14.0369    5.0094 C   0  0  1  0  0  0  0  0  0  0  0  0
   17.9916  -14.1577    4.3533 C   0  0  0  0  0  0  0  0  0  0  0  0
   19.0946  -13.6652    5.1731 C   0  0  0  0  0  0  0  0  0  0  0  0
   19.4707  -12.3444    5.0610 C   0  0  0  0  0  0  0  0  0  0  0  0
   20.4998  -11.7939    5.7958 C   0  0  0  0  0  0  0  0  0  0  0  0
   21.1826  -12.5945    6.6796 C   0  0  0  0  0  0  0  0  0  0  0  0
   20.8332  -13.9124    6.8147 C   0  0  0  0  0  0  0  0  0  0  0  0
   19.7953  -14.4420    6.0650 C   0  0  0  0  0  0  0  0  0  0  0  0
   16.5885  -15.0593    6.0825 C   0  0  0  0  0  0  0  0  0  0  0  0
   16.7202  -14.6842    7.2718 O   0  0  0  0  0  0  0  0  0  0  0  0
   15.5644  -18.6489    6.5450 C   0  0  0  0  0  0  0  0  0  0  0  0
   16.4147  -17.4480    6.8730 C   0  0  2  0  0  0  0  0  0  0  0  0
   16.4001  -16.4463    5.8482 N   0  0  0  0  0  0  0  0  0  0  0  0
   17.7803  -17.9472    7.1723 C   0  0  0  0  0  0  0  0  0  0  0  0
   18.6506  -17.7526    6.2634 O   0  0  0  0  0  0  0  0  0  0  0  0
   22.2076  -18.0361    7.9040 C   0  0  0  0  0  0  0  0  0  0  0  0
   21.1946  -16.9255    8.1604 C   0  0  2  0  0  0  0  0  0  0  0  0
   21.8516  -15.6321    8.5075 C   0  0  0  0  0  0  0  0  0  0  0  0
   20.1027  -17.3642    9.0615 C   0  0  0  0  0  0  0  0  0  0  0  0
   19.4917  -18.7017    8.7848 C   0  0  2  0  0  0  0  0  0  0  0  0
   18.1040  -18.5985    8.3855 N   0  0  0  0  0  0  0  0  0  0  0  0
   19.7074  -19.7238    9.8093 C   0  0  0  0  0  0  0  0  0  0  0  0
   18.9760  -19.8048   10.8168 O   0  0  0  0  0  0  0  0  0  0  0  0
   20.7418  -20.6277    9.6717 O   0  0  0  0  0  0  0  0  0  0  0  0
  2  3  1  0
  2  1  1  1
  2 10  1  0
  4  3  1  0
  4  9  2  0
  5  4  1  0
  6  5  2  0
  6  7  1  0
  7  8  2  0
  8  9  1  0
 10 14  1  0
 11 10  2  0
 13 12  1  6
 14 13  1  0
 15 16  2  0
 15 13  1  0
 18 20  1  0
 18 17  1  1
 18 19  1  0
 21 22  1  0
 21 20  1  1
 22 15  1  0
 23 21  1  0
 24 23  2  0
 25 23  1  0
M  END
$$$$
