FAL.pdb
     RDKit          3D

 25 25  0  0  1  0  0  0  0  0999 V2000
   24.5791  -20.8724  -19.8138 N   0  0  0  0  0  0  0  0  0  0  0  0
   23.3043  -20.4834  -19.3002 C   0  0  1  0  0  0  0  0  0  0  0  0
   22.3205  -21.6269  -19.2568 C   0  0  0  0  0  0  0  0  0  0  0  0
   21.4705  -21.7238  -20.4397 C   0  0  0  0  0  0  0  0  0  0  0  0
   21.7058  -22.7318  -21.3492 C   0  0  0  0  0  0  0  0  0  0  0  0
   20.9534  -22.8993  -22.4928 C   0  0  0  0  0  0  0  0  0  0  0  0
   19.9229  -22.0243  -22.7399 C   0  0  0  0  0  0  0  0  0  0  0  0
   19.6629  -21.0111  -21.8552 C   0  0  0  0  0  0  0  0  0  0  0  0
   20.4333  -20.8639  -20.7130 C   0  0  0  0  0  0  0  0  0  0  0  0
   23.4456  -19.9859  -17.9104 C   0  0  0  0  0  0  0  0  0  0  0  0
   24.5206  -20.2056  -17.3034 O   0  0  0  0  0  0  0  0  0  0  0  0
   21.5271  -17.6645  -15.5953 C   0  0  0  0  0  0  0  0  0  0  0  0
   22.6164  -18.6481  -15.9396 C   0  0  2  0  0  0  0  0  0  0  0  0
   22.4341  -19.2713  -17.2172 N   0  0  0  0  0  0  0  0  0  0  0  0
   22.6906  -19.6267  -14.8258 C   0  0  0  0  0  0  0  0  0  0  0  0
   21.9565  -20.6598  -14.9490 O   0  0  0  0  0  0  0  0  0  0  0  0
   25.8855  -20.7118   -9.6154 C   0  0  0  0  0  0  0  0  0  0  0  0
   24.9674  -21.1670  -10.7445 C   0  0  2  0  0  0  0  0  0  0  0  0
   25.5825  -22.2454  -11.5714 C   0  0  0  0  0  0  0  0  0  0  0  0
   24.3909  -20.0231  -11.4898 C   0  0  0  0  0  0  0  0  0  0  0  0
   23.4145  -20.3452  -12.5768 C   0  0  2  0  0  0  0  0  0  0  0  0
   23.5195  -19.4331  -13.6962 N   0  0  0  0  0  0  0  0  0  0  0  0
   22.0309  -20.5522  -12.1483 C   0  0  0  0  0  0  0  0  0  0  0  0
   21.2896  -19.5954  -11.8458 O   0  0  0  0  0  0  0  0  0  0  0  0
   21.5190  -21.8321  -12.0716 O   0  0  0  0  0  0  0  0  0  0  0  0
  2  3  1  0
  2  1  1  1
  2 10  1  0
  4  3  1  0
  4  9  2  0
  5  4  1  0
  6  5  2  0
  6  7  1  0
  7  8  2  0
  8  9  1  0
 10 14  1  0
 11 10  2  0
 13 12  1  1
 14 13  1  0
 15 16  2  0
 15 13  1  0
 18 20  1  0
 18 17  1  1
 18 19  1  0
 21 22  1  0
 21 20  1  1
 22 15  1  0
 23 21  1  0
 24 23  2  0
 25 23  1  0
M  END
$$$$
