FAL.pdb
     RDKit          3D

 25 25  0  0  1  0  0  0  0  0999 V2000
   22.8723   -9.8277  -17.4737 N   0  0  0  0  0  0  0  0  0  0  0  0
   22.6183   -8.9631  -16.3654 C   0  0  1  0  0  0  0  0  0  0  0  0
   23.7981   -8.0835  -16.0309 C   0  0  0  0  0  0  0  0  0  0  0  0
   25.0596   -8.8067  -15.9009 C   0  0  0  0  0  0  0  0  0  0  0  0
   25.1501   -9.8297  -14.9822 C   0  0  0  0  0  0  0  0  0  0  0  0
   26.3006  -10.5661  -14.7924 C   0  0  0  0  0  0  0  0  0  0  0  0
   27.4076  -10.2697  -15.5508 C   0  0  0  0  0  0  0  0  0  0  0  0
   27.3503   -9.2583  -16.4733 C   0  0  0  0  0  0  0  0  0  0  0  0
   26.1824   -8.5329  -16.6453 C   0  0  0  0  0  0  0  0  0  0  0  0
   21.4835   -8.0598  -16.6742 C   0  0  0  0  0  0  0  0  0  0  0  0
   21.4263   -7.5401  -17.8139 O   0  0  0  0  0  0  0  0  0  0  0  0
   18.0901   -7.2958  -15.2370 C   0  0  0  0  0  0  0  0  0  0  0  0
   19.2950   -6.9572  -16.0773 C   0  0  2  0  0  0  0  0  0  0  0  0
   20.4495   -7.7429  -15.7551 N   0  0  0  0  0  0  0  0  0  0  0  0
   19.5320   -5.4987  -15.9352 C   0  0  0  0  0  0  0  0  0  0  0  0
   20.3253   -5.1570  -14.9997 O   0  0  0  0  0  0  0  0  0  0  0  0
   18.9535   -0.1113  -18.8828 C   0  0  0  0  0  0  0  0  0  0  0  0
   19.5771   -0.9278  -17.7561 C   0  0  2  0  0  0  0  0  0  0  0  0
   21.0248   -0.6196  -17.5709 C   0  0  0  0  0  0  0  0  0  0  0  0
   19.2230   -2.3641  -17.8466 C   0  0  0  0  0  0  0  0  0  0  0  0
   19.1887   -3.1358  -16.5652 C   0  0  2  0  0  0  0  0  0  0  0  0
   18.9206   -4.5423  -16.7791 N   0  0  0  0  0  0  0  0  0  0  0  0
   18.3664   -2.5626  -15.4992 C   0  0  0  0  0  0  0  0  0  0  0  0
   17.1512   -2.8257  -15.3973 O   0  0  0  0  0  0  0  0  0  0  0  0
   18.9352   -1.7077  -14.5763 O   0  0  0  0  0  0  0  0  0  0  0  0
  2  3  1  0
  2  1  1  6
  2 10  1  0
  4  3  1  0
  4  9  2  0
  5  4  1  0
  6  5  2  0
  6  7  1  0
  7  8  2  0
  8  9  1  0
 10 14  1  0
 11 10  2  0
 13 12  1  1
 14 13  1  0
 15 16  2  0
 15 13  1  0
 18 20  1  0
 18 17  1  6
 18 19  1  0
 21 22  1  0
 21 20  1  6
 22 15  1  0
 23 21  1  0
 24 23  2  0
 25 23  1  0
M  END
$$$$
