FAL.pdb
     RDKit          3D

 25 25  0  0  1  0  0  0  0  0999 V2000
   29.6444  -19.2439  -14.2575 N   0  0  0  0  0  0  0  0  0  0  0  0
   28.8713  -20.4445  -14.2248 C   0  0  1  0  0  0  0  0  0  0  0  0
   28.7057  -20.9924  -12.8284 C   0  0  0  0  0  0  0  0  0  0  0  0
   29.9597  -21.3850  -12.1923 C   0  0  0  0  0  0  0  0  0  0  0  0
   30.4573  -22.6490  -12.4232 C   0  0  0  0  0  0  0  0  0  0  0  0
   31.6335  -23.1042  -11.8652 C   0  0  0  0  0  0  0  0  0  0  0  0
   32.3434  -22.2633  -11.0422 C   0  0  0  0  0  0  0  0  0  0  0  0
   31.8757  -20.9999  -10.7926 C   0  0  0  0  0  0  0  0  0  0  0  0
   30.6911  -20.5659  -11.3653 C   0  0  0  0  0  0  0  0  0  0  0  0
   27.5082  -20.1867  -14.7490 C   0  0  0  0  0  0  0  0  0  0  0  0
   26.8703  -19.2057  -14.2983 O   0  0  0  0  0  0  0  0  0  0  0  0
   25.1200  -21.7083  -17.2967 C   0  0  0  0  0  0  0  0  0  0  0  0
   25.4889  -20.8840  -16.0896 C   0  0  2  0  0  0  0  0  0  0  0  0
   26.8740  -20.9853  -15.7360 N   0  0  0  0  0  0  0  0  0  0  0  0
   24.5810  -21.2907  -14.9878 C   0  0  0  0  0  0  0  0  0  0  0  0
   24.7940  -22.4453  -14.4950 O   0  0  0  0  0  0  0  0  0  0  0  0
   22.0220  -20.1449  -10.4351 C   0  0  0  0  0  0  0  0  0  0  0  0
   23.3279  -20.8723  -10.7360 C   0  0  2  0  0  0  0  0  0  0  0  0
   24.3046  -20.7653   -9.6137 C   0  0  0  0  0  0  0  0  0  0  0  0
   23.8481  -20.5488  -12.0856 C   0  0  0  0  0  0  0  0  0  0  0  0
   22.9193  -20.7623  -13.2391 C   0  0  2  0  0  0  0  0  0  0  0  0
   23.5434  -20.4570  -14.5092 N   0  0  0  0  0  0  0  0  0  0  0  0
   21.5916  -20.1621  -13.1064 C   0  0  0  0  0  0  0  0  0  0  0  0
   21.3845  -18.9638  -13.3852 O   0  0  0  0  0  0  0  0  0  0  0  0
   20.5320  -20.9280  -12.6627 O   0  0  0  0  0  0  0  0  0  0  0  0
  2  3  1  0
  2  1  1  1
  2 10  1  0
  4  3  1  0
  4  9  2  0
  5  4  1  0
  6  5  2  0
  6  7  1  0
  7  8  2  0
  8  9  1  0
 10 14  1  0
 11 10  2  0
 13 12  1  6
 14 13  1  0
 15 16  2  0
 15 13  1  0
 18 20  1  0
 18 17  1  1
 18 19  1  0
 21 22  1  0
 21 20  1  1
 22 15  1  0
 23 21  1  0
 24 23  2  0
 25 23  1  0
M  END
$$$$
