FAL.pdb
     RDKit          3D

 25 25  0  0  1  0  0  0  0  0999 V2000
   24.2849  -20.3928  -16.8270 N   0  0  0  0  0  0  0  0  0  0  0  0
   24.7337  -19.7590  -15.6282 C   0  0  1  0  0  0  0  0  0  0  0  0
   23.6233  -19.5547  -14.6268 C   0  0  0  0  0  0  0  0  0  0  0  0
   22.5560  -18.6757  -15.0952 C   0  0  0  0  0  0  0  0  0  0  0  0
   21.4057  -19.2371  -15.6055 C   0  0  0  0  0  0  0  0  0  0  0  0
   20.3474  -18.4844  -16.0698 C   0  0  0  0  0  0  0  0  0  0  0  0
   20.4403  -17.1141  -16.0233 C   0  0  0  0  0  0  0  0  0  0  0  0
   21.5709  -16.5248  -15.5215 C   0  0  0  0  0  0  0  0  0  0  0  0
   22.6207  -17.3030  -15.0610 C   0  0  0  0  0  0  0  0  0  0  0  0
   25.7618  -20.5962  -14.9639 C   0  0  0  0  0  0  0  0  0  0  0  0
   25.6894  -21.8419  -15.0876 O   0  0  0  0  0  0  0  0  0  0  0  0
   29.2152  -20.3187  -13.6498 C   0  0  0  0  0  0  0  0  0  0  0  0
   27.8195  -20.8766  -13.5327 C   0  0  2  0  0  0  0  0  0  0  0  0
   26.8313  -20.0740  -14.1908 N   0  0  0  0  0  0  0  0  0  0  0  0
   27.5422  -21.0620  -12.0862 C   0  0  0  0  0  0  0  0  0  0  0  0
   28.3588  -20.4951  -11.2906 O   0  0  0  0  0  0  0  0  0  0  0  0
   27.0632  -19.1828   -7.4994 C   0  0  0  0  0  0  0  0  0  0  0  0
   26.1229  -20.1492   -8.2116 C   0  0  2  0  0  0  0  0  0  0  0  0
   25.5518  -21.1675   -7.2833 C   0  0  0  0  0  0  0  0  0  0  0  0
   26.7073  -20.6697   -9.4702 C   0  0  0  0  0  0  0  0  0  0  0  0
   25.7905  -21.4214  -10.3831 C   0  0  2  0  0  0  0  0  0  0  0  0
   26.4447  -21.8180  -11.6122 N   0  0  0  0  0  0  0  0  0  0  0  0
   24.4816  -20.8100  -10.6148 C   0  0  0  0  0  0  0  0  0  0  0  0
   24.3442  -19.8234  -11.3661 O   0  0  0  0  0  0  0  0  0  0  0  0
   23.3619  -21.3261   -9.9936 O   0  0  0  0  0  0  0  0  0  0  0  0
  2  3  1  0
  2  1  1  6
  2 10  1  0
  4  3  1  0
  4  9  2  0
  5  4  1  0
  6  5  2  0
  6  7  1  0
  7  8  2  0
  8  9  1  0
 10 14  1  0
 11 10  2  0
 13 12  1  1
 14 13  1  0
 15 16  2  0
 15 13  1  0
 18 20  1  0
 18 17  1  1
 18 19  1  0
 21 22  1  0
 21 20  1  6
 22 15  1  0
 23 21  1  0
 24 23  2  0
 25 23  1  0
M  END
$$$$
