FAL.pdb
     RDKit          3D

 25 25  0  0  1  0  0  0  0  0999 V2000
   29.0933  -20.5614  -15.1942 N   0  0  0  0  0  0  0  0  0  0  0  0
   28.2532  -21.4309  -14.4336 C   0  0  1  0  0  0  0  0  0  0  0  0
   28.1183  -20.9978  -12.9942 C   0  0  0  0  0  0  0  0  0  0  0  0
   29.3587  -21.0855  -12.2294 C   0  0  0  0  0  0  0  0  0  0  0  0
   29.6058  -22.2201  -11.4875 C   0  0  0  0  0  0  0  0  0  0  0  0
   30.7499  -22.3891  -10.7362 C   0  0  0  0  0  0  0  0  0  0  0  0
   31.6871  -21.3841  -10.7243 C   0  0  0  0  0  0  0  0  0  0  0  0
   31.4715  -20.2431  -11.4515 C   0  0  0  0  0  0  0  0  0  0  0  0
   30.3137  -20.0972  -12.1986 C   0  0  0  0  0  0  0  0  0  0  0  0
   26.8855  -21.4471  -15.0068 C   0  0  0  0  0  0  0  0  0  0  0  0
   26.3789  -20.3607  -15.3747 O   0  0  0  0  0  0  0  0  0  0  0  0
   24.1256  -23.9983  -15.6336 C   0  0  0  0  0  0  0  0  0  0  0  0
   24.6814  -22.6335  -15.3157 C   0  0  2  0  0  0  0  0  0  0  0  0
   26.1068  -22.6227  -15.1669 N   0  0  0  0  0  0  0  0  0  0  0  0
   23.9717  -22.1423  -14.1079 C   0  0  0  0  0  0  0  0  0  0  0  0
   22.7100  -22.0146  -14.2229 O   0  0  0  0  0  0  0  0  0  0  0  0
   25.1016  -19.6212   -8.5567 C   0  0  0  0  0  0  0  0  0  0  0  0
   24.1064  -20.3733   -9.4336 C   0  0  2  0  0  0  0  0  0  0  0  0
   23.2069  -21.2564   -8.6361 C   0  0  0  0  0  0  0  0  0  0  0  0
   24.7595  -20.9985  -10.6080 C   0  0  0  0  0  0  0  0  0  0  0  0
   23.8937  -21.2790  -11.7956 C   0  0  2  0  0  0  0  0  0  0  0  0
   24.6443  -21.8332  -12.9026 N   0  0  0  0  0  0  0  0  0  0  0  0
   23.0060  -20.1911  -12.2068 C   0  0  0  0  0  0  0  0  0  0  0  0
   23.4107  -19.2505  -12.9195 O   0  0  0  0  0  0  0  0  0  0  0  0
   21.6855  -20.1916  -11.8039 O   0  0  0  0  0  0  0  0  0  0  0  0
  2  3  1  0
  2  1  1  6
  2 10  1  0
  4  3  1  0
  4  9  2  0
  5  4  1  0
  6  5  2  0
  6  7  1  0
  7  8  2  0
  8  9  1  0
 10 14  1  0
 11 10  2  0
 13 12  1  1
 14 13  1  0
 15 16  2  0
 15 13  1  0
 18 20  1  0
 18 17  1  1
 18 19  1  0
 21 22  1  0
 21 20  1  1
 22 15  1  0
 23 21  1  0
 24 23  2  0
 25 23  1  0
M  END
$$$$
