FAL.pdb
     RDKit          3D

 25 25  0  0  1  0  0  0  0  0999 V2000
   24.1284  -20.9757  -16.4364 N   0  0  0  0  0  0  0  0  0  0  0  0
   24.5001  -20.0605  -15.4046 C   0  0  1  0  0  0  0  0  0  0  0  0
   23.3218  -19.6029  -14.5801 C   0  0  0  0  0  0  0  0  0  0  0  0
   22.3770  -18.7630  -15.3104 C   0  0  0  0  0  0  0  0  0  0  0  0
   22.8069  -17.5513  -15.8060 C   0  0  0  0  0  0  0  0  0  0  0  0
   21.9844  -16.6949  -16.5074 C   0  0  0  0  0  0  0  0  0  0  0  0
   20.6779  -17.0624  -16.7236 C   0  0  0  0  0  0  0  0  0  0  0  0
   20.2193  -18.2610  -16.2438 C   0  0  0  0  0  0  0  0  0  0  0  0
   21.0656  -19.1042  -15.5420 C   0  0  0  0  0  0  0  0  0  0  0  0
   25.4527  -20.7069  -14.4697 C   0  0  0  0  0  0  0  0  0  0  0  0
   25.1945  -21.8628  -14.0578 O   0  0  0  0  0  0  0  0  0  0  0  0
   28.7006  -19.7946  -12.6923 C   0  0  0  0  0  0  0  0  0  0  0  0
   27.4595  -20.6123  -12.9450 C   0  0  2  0  0  0  0  0  0  0  0  0
   26.6476  -20.0965  -14.0074 N   0  0  0  0  0  0  0  0  0  0  0  0
   26.7294  -20.7094  -11.6561 C   0  0  0  0  0  0  0  0  0  0  0  0
   25.8624  -19.8015  -11.4431 O   0  0  0  0  0  0  0  0  0  0  0  0
   26.4505  -20.9823   -6.6355 C   0  0  0  0  0  0  0  0  0  0  0  0
   27.7384  -20.4265   -7.2333 C   0  0  2  0  0  0  0  0  0  0  0  0
   27.9391  -18.9864   -6.9005 C   0  0  0  0  0  0  0  0  0  0  0  0
   27.8941  -20.7932   -8.6608 C   0  0  0  0  0  0  0  0  0  0  0  0
   26.7394  -21.4869   -9.3122 C   0  0  2  0  0  0  0  0  0  0  0  0
   26.9740  -21.7396  -10.7183 N   0  0  0  0  0  0  0  0  0  0  0  0
   25.4216  -20.9043   -9.0580 C   0  0  0  0  0  0  0  0  0  0  0  0
   24.5251  -21.5447   -8.4726 O   0  0  0  0  0  0  0  0  0  0  0  0
   25.1484  -19.6153   -9.4702 O   0  0  0  0  0  0  0  0  0  0  0  0
  2  3  1  0
  2  1  1  6
  2 10  1  0
  4  3  1  0
  4  9  2  0
  5  4  1  0
  6  5  2  0
  6  7  1  0
  7  8  2  0
  8  9  1  0
 10 14  1  0
 11 10  2  0
 13 12  1  1
 14 13  1  0
 15 16  2  0
 15 13  1  0
 18 20  1  0
 18 17  1  6
 18 19  1  0
 21 22  1  0
 21 20  1  6
 22 15  1  0
 23 21  1  0
 24 23  2  0
 25 23  1  0
M  END
$$$$
