FAL.pdb
     RDKit          3D

 25 25  0  0  1  0  0  0  0  0999 V2000
   24.4374  -10.8920  -17.6261 N   0  0  0  0  0  0  0  0  0  0  0  0
   24.3938  -10.3282  -16.3144 C   0  0  1  0  0  0  0  0  0  0  0  0
   25.4407   -9.2617  -16.1040 C   0  0  0  0  0  0  0  0  0  0  0  0
   26.8101   -9.7272  -16.3017 C   0  0  0  0  0  0  0  0  0  0  0  0
   27.6351   -9.0285  -17.1561 C   0  0  0  0  0  0  0  0  0  0  0  0
   28.9416   -9.3952  -17.4021 C   0  0  0  0  0  0  0  0  0  0  0  0
   29.4467  -10.5056  -16.7693 C   0  0  0  0  0  0  0  0  0  0  0  0
   28.6522  -11.2222  -15.9135 C   0  0  0  0  0  0  0  0  0  0  0  0
   27.3425  -10.8333  -15.6829 C   0  0  0  0  0  0  0  0  0  0  0  0
   23.0766   -9.6890  -16.0786 C   0  0  0  0  0  0  0  0  0  0  0  0
   22.4185   -9.2930  -17.0699 O   0  0  0  0  0  0  0  0  0  0  0  0
   20.7997   -8.9682  -13.1079 C   0  0  0  0  0  0  0  0  0  0  0  0
   21.2041   -8.9480  -14.5601 C   0  0  2  0  0  0  0  0  0  0  0  0
   22.5083   -9.4948  -14.7928 N   0  0  0  0  0  0  0  0  0  0  0  0
   21.0737   -7.5464  -15.0314 C   0  0  0  0  0  0  0  0  0  0  0  0
   22.1611   -6.8892  -15.1161 O   0  0  0  0  0  0  0  0  0  0  0  0
   19.3132   -3.8329  -18.3870 C   0  0  0  0  0  0  0  0  0  0  0  0
   20.6920   -4.3034  -17.9367 C   0  0  2  0  0  0  0  0  0  0  0  0
   21.7076   -4.1952  -19.0239 C   0  0  0  0  0  0  0  0  0  0  0  0
   20.6332   -5.6031  -17.2268 C   0  0  0  0  0  0  0  0  0  0  0  0
   19.7970   -5.6613  -15.9875 C   0  0  2  0  0  0  0  0  0  0  0  0
   19.8269   -6.9688  -15.3667 N   0  0  0  0  0  0  0  0  0  0  0  0
   18.4400   -5.1281  -16.1101 C   0  0  0  0  0  0  0  0  0  0  0  0
   17.4583   -5.8747  -16.2984 O   0  0  0  0  0  0  0  0  0  0  0  0
   18.2248   -3.7675  -16.0175 O   0  0  0  0  0  0  0  0  0  0  0  0
  2  3  1  0
  2  1  1  6
  2 10  1  0
  4  3  1  0
  4  9  2  0
  5  4  1  0
  6  5  2  0
  6  7  1  0
  7  8  2  0
  8  9  1  0
 10 14  1  0
 11 10  2  0
 13 12  1  1
 14 13  1  0
 15 16  2  0
 15 13  1  0
 18 20  1  0
 18 17  1  6
 18 19  1  0
 21 22  1  0
 21 20  1  6
 22 15  1  0
 23 21  1  0
 24 23  2  0
 25 23  1  0
M  END
$$$$
