ADN.pdb
     RDKit          3D

 22 21  0  0  1  0  0  0  0  0999 V2000
   17.9778  -12.8900  -17.2557 C   0  0  0  0  0  0  0  0  0  0  0  0
   19.2656  -12.1832  -16.8995 C   0  0  2  0  0  0  0  0  0  0  0  0
   19.8163  -12.6687  -15.6506 N   0  0  0  0  0  0  0  0  0  0  0  0
   19.0155  -10.7184  -16.8518 C   0  0  0  0  0  0  0  0  0  0  0  0
   19.5972   -9.8896  -17.5972 O   0  0  0  0  0  0  0  0  0  0  0  0
   18.0651  -10.1474  -15.9223 N   0  0  0  0  0  0  0  0  0  0  0  0
   17.7221   -8.7512  -15.9276 C   0  0  1  0  0  0  0  0  0  0  0  0
   16.2543   -8.5122  -15.6862 C   0  0  0  0  0  0  0  0  0  0  0  0
   15.8921   -7.0834  -15.7163 C   0  0  0  0  0  0  0  0  0  0  0  0
   16.1118   -6.3159  -16.6843 O   0  0  0  0  0  0  0  0  0  0  0  0
   18.5890   -8.0060  -14.9824 C   0  0  0  0  0  0  0  0  0  0  0  0
   19.1237   -8.5546  -13.9778 O   0  0  0  0  0  0  0  0  0  0  0  0
   15.2661   -6.5580  -14.5944 O   0  0  0  0  0  0  0  0  0  0  0  0
   22.1633   -4.8390  -13.3511 N   0  0  0  0  0  0  0  0  0  0  0  0
   22.4182   -6.0457  -14.0933 C   0  0  0  0  0  0  0  0  0  0  0  0
   23.6185   -6.4608  -14.1419 O   0  0  0  0  0  0  0  0  0  0  0  0
   21.3053   -6.7521  -14.7638 C   0  0  0  0  0  0  0  0  0  0  0  0
   20.0371   -5.9775  -14.5594 C   0  0  2  0  0  0  0  0  0  0  0  0
   18.8807   -6.6112  -15.1438 N   0  0  0  0  0  0  0  0  0  0  0  0
   20.1380   -4.5415  -14.9030 C   0  0  0  0  0  0  0  0  0  0  0  0
   20.6962   -3.5828  -14.0663 O   0  0  0  0  0  0  0  0  0  0  0  0
   19.7075   -4.1173  -16.0041 O   0  0  0  0  0  0  0  0  0  0  0  0
  2  1  1  1
  3  2  1  0
  4  6  1  0
  4  2  1  0
  5  4  2  0
  7  6  1  0
  7 11  1  0
  7  8  1  1
  9  8  1  0
 10  9  2  0
 11 19  1  0
 12 11  2  0
 13  9  1  0
 15 14  1  0
 16 15  2  0
 17 15  1  0
 18 20  1  0
 18 17  1  6
 19 18  1  0
 20 21  1  0
 22 20  2  0
M  END
$$$$
