ADN.pdb
     RDKit          3D

 22 21  0  0  1  0  0  0  0  0999 V2000
   19.1772  -11.9680  -20.4756 C   0  0  0  0  0  0  0  0  0  0  0  0
   19.1126  -10.4691  -20.2908 C   0  0  2  0  0  0  0  0  0  0  0  0
   20.1395   -9.7898  -21.0542 N   0  0  0  0  0  0  0  0  0  0  0  0
   19.2149  -10.1564  -18.8409 C   0  0  0  0  0  0  0  0  0  0  0  0
   18.3763  -10.5406  -17.9864 O   0  0  0  0  0  0  0  0  0  0  0  0
   20.3119   -9.3727  -18.3159 N   0  0  0  0  0  0  0  0  0  0  0  0
   20.4607   -9.0935  -16.9134 C   0  0  1  0  0  0  0  0  0  0  0  0
   21.0779  -10.2395  -16.1547 C   0  0  0  0  0  0  0  0  0  0  0  0
   21.2429   -9.9548  -14.7176 C   0  0  0  0  0  0  0  0  0  0  0  0
   20.3723   -9.4081  -13.9980 O   0  0  0  0  0  0  0  0  0  0  0  0
   21.1895   -7.8163  -16.7187 C   0  0  0  0  0  0  0  0  0  0  0  0
   22.1954   -7.4980  -17.4135 O   0  0  0  0  0  0  0  0  0  0  0  0
   22.4450  -10.3186  -14.1269 O   0  0  0  0  0  0  0  0  0  0  0  0
   22.4663   -2.5641  -16.8638 N   0  0  0  0  0  0  0  0  0  0  0  0
   21.6949   -3.2310  -15.8478 C   0  0  0  0  0  0  0  0  0  0  0  0
   21.7199   -2.7391  -14.6762 O   0  0  0  0  0  0  0  0  0  0  0  0
   20.9144   -4.4411  -16.1851 C   0  0  0  0  0  0  0  0  0  0  0  0
   21.5256   -5.6272  -15.4997 C   0  0  2  0  0  0  0  0  0  0  0  0
   20.8022   -6.8539  -15.7285 N   0  0  0  0  0  0  0  0  0  0  0  0
   21.8442   -5.4083  -14.0712 C   0  0  0  0  0  0  0  0  0  0  0  0
   22.9209   -4.6515  -13.6255 O   0  0  0  0  0  0  0  0  0  0  0  0
   21.1282   -5.9162  -13.1728 O   0  0  0  0  0  0  0  0  0  0  0  0
  2  1  1  1
  3  2  1  0
  4  6  1  0
  4  2  1  0
  5  4  2  0
  7  6  1  0
  7 11  1  0
  7  8  1  1
  9  8  1  0
 10  9  2  0
 11 19  1  0
 12 11  2  0
 13  9  1  0
 15 14  1  0
 16 15  2  0
 17 15  1  0
 18 20  1  0
 18 17  1  1
 19 18  1  0
 20 21  1  0
 22 20  2  0
M  END
$$$$
