ADN.pdb
     RDKit          3D

 22 21  0  0  1  0  0  0  0  0999 V2000
   16.7464   -8.9315  -19.8602 C   0  0  0  0  0  0  0  0  0  0  0  0
   17.4844   -7.7572  -19.2589 C   0  0  2  0  0  0  0  0  0  0  0  0
   18.8477   -7.6759  -19.7424 N   0  0  0  0  0  0  0  0  0  0  0  0
   17.4374   -7.8649  -17.7768 C   0  0  0  0  0  0  0  0  0  0  0  0
   16.3680   -7.9294  -17.1185 O   0  0  0  0  0  0  0  0  0  0  0  0
   18.6486   -7.9023  -16.9864 N   0  0  0  0  0  0  0  0  0  0  0  0
   18.6327   -7.9722  -15.5505 C   0  0  1  0  0  0  0  0  0  0  0  0
   19.5096   -9.0727  -15.0122 C   0  0  0  0  0  0  0  0  0  0  0  0
   18.9017  -10.4092  -15.1456 C   0  0  0  0  0  0  0  0  0  0  0  0
   17.7226  -10.6882  -14.8195 O   0  0  0  0  0  0  0  0  0  0  0  0
   18.9521   -6.6458  -14.9683 C   0  0  0  0  0  0  0  0  0  0  0  0
   18.6973   -6.3552  -13.7656 O   0  0  0  0  0  0  0  0  0  0  0  0
   19.6928  -11.4230  -15.6679 O   0  0  0  0  0  0  0  0  0  0  0  0
   21.4453   -5.9426  -13.6224 N   0  0  0  0  0  0  0  0  0  0  0  0
   22.1426   -4.9165  -14.3524 C   0  0  0  0  0  0  0  0  0  0  0  0
   23.3972   -4.8201  -14.1734 O   0  0  0  0  0  0  0  0  0  0  0  0
   21.3995   -4.0232  -15.2673 C   0  0  0  0  0  0  0  0  0  0  0  0
   19.9336   -4.3245  -15.1656 C   0  0  2  0  0  0  0  0  0  0  0  0
   19.5728   -5.6016  -15.7305 N   0  0  0  0  0  0  0  0  0  0  0  0
   19.0526   -3.2267  -15.6228 C   0  0  0  0  0  0  0  0  0  0  0  0
   18.8386   -2.0562  -14.9053 O   0  0  0  0  0  0  0  0  0  0  0  0
   18.4416   -3.3127  -16.7169 O   0  0  0  0  0  0  0  0  0  0  0  0
  2  1  1  6
  3  2  1  0
  4  6  1  0
  4  2  1  0
  5  4  2  0
  7  6  1  0
  7 11  1  0
  7  8  1  6
  9  8  1  0
 10  9  2  0
 11 19  1  0
 12 11  2  0
 13  9  1  0
 15 14  1  0
 16 15  2  0
 17 15  1  0
 18 20  1  0
 18 17  1  6
 19 18  1  0
 20 21  1  0
 22 20  2  0
M  END
$$$$
