ADN.pdb
     RDKit          3D

 22 21  0  0  1  0  0  0  0  0999 V2000
   14.7782  -11.3462  -17.5058 C   0  0  0  0  0  0  0  0  0  0  0  0
   15.7563  -10.2944  -17.9769 C   0  0  2  0  0  0  0  0  0  0  0  0
   16.2619  -10.5875  -19.3026 N   0  0  0  0  0  0  0  0  0  0  0  0
   16.8588  -10.1816  -16.9860 C   0  0  0  0  0  0  0  0  0  0  0  0
   16.6756   -9.9238  -15.7690 O   0  0  0  0  0  0  0  0  0  0  0  0
   18.2406  -10.3662  -17.3735 N   0  0  0  0  0  0  0  0  0  0  0  0
   19.3349  -10.1222  -16.4736 C   0  0  1  0  0  0  0  0  0  0  0  0
   20.5335  -10.9863  -16.7680 C   0  0  0  0  0  0  0  0  0  0  0  0
   20.2519  -12.4266  -16.6282 C   0  0  0  0  0  0  0  0  0  0  0  0
   19.6503  -12.9408  -15.6545 O   0  0  0  0  0  0  0  0  0  0  0  0
   19.6623   -8.6757  -16.4437 C   0  0  0  0  0  0  0  0  0  0  0  0
   18.7747   -7.7827  -16.3408 O   0  0  0  0  0  0  0  0  0  0  0  0
   20.6843  -13.2651  -17.6462 O   0  0  0  0  0  0  0  0  0  0  0  0
   22.4214   -4.7894  -14.6411 N   0  0  0  0  0  0  0  0  0  0  0  0
   21.6237   -5.6782  -13.8375 C   0  0  0  0  0  0  0  0  0  0  0  0
   21.4149   -5.3461  -12.6286 O   0  0  0  0  0  0  0  0  0  0  0  0
   21.0829   -6.9233  -14.4243 C   0  0  0  0  0  0  0  0  0  0  0  0
   21.4526   -6.9833  -15.8768 C   0  0  2  0  0  0  0  0  0  0  0  0
   21.0092   -8.1909  -16.5292 N   0  0  0  0  0  0  0  0  0  0  0  0
   22.8710   -6.6682  -16.1582 C   0  0  0  0  0  0  0  0  0  0  0  0
   23.7189   -7.4969  -16.8828 O   0  0  0  0  0  0  0  0  0  0  0  0
   23.3827   -5.6008  -15.7382 O   0  0  0  0  0  0  0  0  0  0  0  0
  2  1  1  1
  3  2  1  0
  4  6  1  0
  4  2  1  0
  5  4  2  0
  7  6  1  0
  7 11  1  0
  7  8  1  6
  9  8  1  0
 10  9  2  0
 11 19  1  0
 12 11  2  0
 13  9  1  0
 15 14  1  0
 16 15  2  0
 17 15  1  0
 18 20  1  0
 18 17  1  1
 19 18  1  0
 20 21  1  0
 22 20  2  0
M  END
$$$$
