YGF.pdb
     RDKit          3D

 28 29  0  0  1  0  0  0  0  0999 V2000
   15.9586  -16.1253  -20.9404 O   0  0  0  0  0  0  0  0  0  0  0  0
   16.7715  -15.2988  -20.1804 C   0  0  0  0  0  0  0  0  0  0  0  0
   18.1105  -15.2058  -20.4066 C   0  0  0  0  0  0  0  0  0  0  0  0
   18.9088  -14.3745  -19.6373 C   0  0  0  0  0  0  0  0  0  0  0  0
   18.3565  -13.6196  -18.6198 C   0  0  0  0  0  0  0  0  0  0  0  0
   19.1915  -12.7127  -17.7717 C   0  0  0  0  0  0  0  0  0  0  0  0
   20.3954  -12.3350  -18.6039 C   0  0  2  0  0  0  0  0  0  0  0  0
   21.4384  -13.3010  -18.3102 N   0  0  0  0  0  0  0  0  0  0  0  0
   20.8322  -10.9523  -18.4022 C   0  0  0  0  0  0  0  0  0  0  0  0
   21.9540  -10.7338  -17.8874 O   0  0  0  0  0  0  0  0  0  0  0  0
   16.9883  -13.7377  -18.4155 C   0  0  0  0  0  0  0  0  0  0  0  0
   16.1971  -14.5609  -19.1771 C   0  0  0  0  0  0  0  0  0  0  0  0
   20.0265   -9.8459  -18.7706 N   0  0  0  0  0  0  0  0  0  0  0  0
   20.4563   -8.4739  -18.5894 C   0  0  0  0  0  0  0  0  0  0  0  0
   20.4538   -8.1494  -17.1459 C   0  0  0  0  0  0  0  0  0  0  0  0
   20.0887   -9.0296  -16.3203 O   0  0  0  0  0  0  0  0  0  0  0  0
   20.8377   -6.9028  -16.6182 N   0  0  0  0  0  0  0  0  0  0  0  0
   20.7640   -6.6573  -15.1935 C   0  0  1  0  0  0  0  0  0  0  0  0
   22.0794   -7.1167  -14.6110 C   0  0  0  0  0  0  0  0  0  0  0  0
   23.2517   -6.4410  -15.1725 C   0  0  0  0  0  0  0  0  0  0  0  0
   24.0598   -7.1134  -16.0541 C   0  0  0  0  0  0  0  0  0  0  0  0
   25.1597   -6.5109  -16.5975 C   0  0  0  0  0  0  0  0  0  0  0  0
   25.4402   -5.1999  -16.2355 C   0  0  0  0  0  0  0  0  0  0  0  0
   24.6370   -4.5201  -15.3544 C   0  0  0  0  0  0  0  0  0  0  0  0
   23.5455   -5.1458  -14.8272 C   0  0  0  0  0  0  0  0  0  0  0  0
   20.4344   -5.2561  -14.8848 C   0  0  0  0  0  0  0  0  0  0  0  0
   20.4362   -4.3801  -15.7833 O   0  0  0  0  0  0  0  0  0  0  0  0
   20.1129   -4.8596  -13.6002 O   0  0  0  0  0  0  0  0  0  0  0  0
  2  3  2  0
  2  1  1  0
  4  3  1  0
  5  4  2  0
  6  5  1  0
  7  6  1  0
  7  8  1  1
  9 10  2  0
  9  7  1  0
 11  5  1  0
 11 12  2  0
 12  2  1  0
 13  9  1  0
 14 15  1  0
 14 13  1  0
 15 16  2  0
 17 15  1  0
 17 18  1  0
 18 19  1  1
 19 20  1  0
 20 21  2  0
 21 22  1  0
 23 22  2  0
 24 23  1  0
 25 24  2  0
 25 20  1  0
 26 28  1  0
 26 18  1  0
 27 26  2  0
M  END
$$$$
