YGF.pdb
     RDKit          3D

 28 29  0  0  1  0  0  0  0  0999 V2000
    8.1121  -10.5441    0.1264 O   0  0  0  0  0  0  0  0  0  0  0  0
    9.1799  -10.8550    0.9537 C   0  0  0  0  0  0  0  0  0  0  0  0
    9.4840  -10.1012    2.0455 C   0  0  0  0  0  0  0  0  0  0  0  0
   10.5552  -10.4261    2.8622 C   0  0  0  0  0  0  0  0  0  0  0  0
   11.3397  -11.5288    2.5813 C   0  0  0  0  0  0  0  0  0  0  0  0
   12.5030  -11.9061    3.4435 C   0  0  0  0  0  0  0  0  0  0  0  0
   12.1081  -13.1737    4.1661 C   0  0  2  0  0  0  0  0  0  0  0  0
   11.0519  -12.8233    5.0982 N   0  0  0  0  0  0  0  0  0  0  0  0
   13.2336  -13.8489    4.8147 C   0  0  0  0  0  0  0  0  0  0  0  0
   14.3954  -13.4153    4.6315 O   0  0  0  0  0  0  0  0  0  0  0  0
   11.0026  -12.2761    1.4608 C   0  0  0  0  0  0  0  0  0  0  0  0
    9.9417  -11.9548    0.6516 C   0  0  0  0  0  0  0  0  0  0  0  0
   13.0547  -14.9821    5.6471 N   0  0  0  0  0  0  0  0  0  0  0  0
   14.1601  -15.6460    6.3083 C   0  0  0  0  0  0  0  0  0  0  0  0
   14.8247  -16.5567    5.3502 C   0  0  0  0  0  0  0  0  0  0  0  0
   14.2285  -16.8646    4.2827 O   0  0  0  0  0  0  0  0  0  0  0  0
   16.1007  -17.1150    5.5497 N   0  0  0  0  0  0  0  0  0  0  0  0
   16.6417  -18.0625    4.5982 C   0  0  1  0  0  0  0  0  0  0  0  0
   17.9754  -17.5103    4.1546 C   0  0  0  0  0  0  0  0  0  0  0  0
   17.8892  -16.2256    3.4559 C   0  0  0  0  0  0  0  0  0  0  0  0
   17.6347  -16.2066    2.1079 C   0  0  0  0  0  0  0  0  0  0  0  0
   17.5460  -15.0248    1.4270 C   0  0  0  0  0  0  0  0  0  0  0  0
   17.7198  -13.8419    2.1332 C   0  0  0  0  0  0  0  0  0  0  0  0
   17.9747  -13.8520    3.4818 C   0  0  0  0  0  0  0  0  0  0  0  0
   18.0580  -15.0459    4.1364 C   0  0  0  0  0  0  0  0  0  0  0  0
   16.7165  -19.4257    5.1491 C   0  0  0  0  0  0  0  0  0  0  0  0
   16.6801  -19.6238    6.3877 O   0  0  0  0  0  0  0  0  0  0  0  0
   16.8289  -20.5291    4.3240 O   0  0  0  0  0  0  0  0  0  0  0  0
  2  3  2  0
  2  1  1  0
  4  3  1  0
  5  4  2  0
  6  5  1  0
  7  6  1  0
  7  8  1  1
  9 10  2  0
  9  7  1  0
 11  5  1  0
 11 12  2  0
 12  2  1  0
 13  9  1  0
 14 15  1  0
 14 13  1  0
 15 16  2  0
 17 15  1  0
 17 18  1  0
 18 19  1  1
 19 20  1  0
 20 21  2  0
 21 22  1  0
 23 22  2  0
 24 23  1  0
 25 24  2  0
 25 20  1  0
 26 28  1  0
 26 18  1  0
 27 26  2  0
M  END
$$$$
