YGF.pdb
     RDKit          3D

 28 29  0  0  1  0  0  0  0  0999 V2000
   21.9988  -28.0022  -16.8706 O   0  0  0  0  0  0  0  0  0  0  0  0
   22.9248  -27.0500  -16.4740 C   0  0  0  0  0  0  0  0  0  0  0  0
   23.6932  -26.3787  -17.3750 C   0  0  0  0  0  0  0  0  0  0  0  0
   24.6143  -25.4297  -16.9615 C   0  0  0  0  0  0  0  0  0  0  0  0
   24.7707  -25.1454  -15.6180 C   0  0  0  0  0  0  0  0  0  0  0  0
   25.7564  -24.1264  -15.1396 C   0  0  0  0  0  0  0  0  0  0  0  0
   24.9667  -22.8722  -14.8421 C   0  0  2  0  0  0  0  0  0  0  0  0
   24.2925  -22.4902  -16.0696 N   0  0  0  0  0  0  0  0  0  0  0  0
   25.7800  -21.7908  -14.2835 C   0  0  0  0  0  0  0  0  0  0  0  0
   25.8509  -20.6994  -14.8958 O   0  0  0  0  0  0  0  0  0  0  0  0
   23.9717  -25.8476  -14.7256 C   0  0  0  0  0  0  0  0  0  0  0  0
   23.0593  -26.7877  -15.1345 C   0  0  0  0  0  0  0  0  0  0  0  0
   26.4942  -21.9355  -13.0678 N   0  0  0  0  0  0  0  0  0  0  0  0
   26.8448  -20.8059  -12.2304 C   0  0  0  0  0  0  0  0  0  0  0  0
   26.5413  -21.1327  -10.8197 C   0  0  0  0  0  0  0  0  0  0  0  0
   25.3373  -21.2113  -10.4540 O   0  0  0  0  0  0  0  0  0  0  0  0
   27.5210  -21.3669   -9.8372 N   0  0  0  0  0  0  0  0  0  0  0  0
   27.2779  -20.9972   -8.4589 C   0  0  1  0  0  0  0  0  0  0  0  0
   28.5444  -20.3425   -7.9611 C   0  0  0  0  0  0  0  0  0  0  0  0
   28.4892  -19.9197   -6.5596 C   0  0  0  0  0  0  0  0  0  0  0  0
   28.2336  -18.6052   -6.2612 C   0  0  0  0  0  0  0  0  0  0  0  0
   28.1732  -18.1789   -4.9640 C   0  0  0  0  0  0  0  0  0  0  0  0
   28.3772  -19.1095   -3.9536 C   0  0  0  0  0  0  0  0  0  0  0  0
   28.6334  -20.4263   -4.2434 C   0  0  0  0  0  0  0  0  0  0  0  0
   28.6880  -20.8244   -5.5470 C   0  0  0  0  0  0  0  0  0  0  0  0
   26.0771  -20.1587   -8.3094 C   0  0  0  0  0  0  0  0  0  0  0  0
   25.9583  -19.0831   -8.9448 O   0  0  0  0  0  0  0  0  0  0  0  0
   25.0441  -20.5262   -7.4676 O   0  0  0  0  0  0  0  0  0  0  0  0
  2  3  2  0
  2  1  1  0
  4  3  1  0
  5  4  2  0
  6  5  1  0
  7  6  1  0
  7  8  1  6
  9 10  2  0
  9  7  1  0
 11  5  1  0
 11 12  2  0
 12  2  1  0
 13  9  1  0
 14 15  1  0
 14 13  1  0
 15 16  2  0
 17 15  1  0
 17 18  1  0
 18 19  1  6
 19 20  1  0
 20 21  2  0
 21 22  1  0
 23 22  2  0
 24 23  1  0
 25 24  2  0
 25 20  1  0
 26 28  1  0
 26 18  1  0
 27 26  2  0
M  END
$$$$
