YGF.pdb
     RDKit          3D

 28 29  0  0  1  0  0  0  0  0999 V2000
   33.4246  -41.6897  -11.7549 O   0  0  0  0  0  0  0  0  0  0  0  0
   32.4102  -41.3333  -10.8799 C   0  0  0  0  0  0  0  0  0  0  0  0
   31.8850  -42.2210   -9.9917 C   0  0  0  0  0  0  0  0  0  0  0  0
   30.8711  -41.8482   -9.1239 C   0  0  0  0  0  0  0  0  0  0  0  0
   30.3713  -40.5598   -9.1444 C   0  0  0  0  0  0  0  0  0  0  0  0
   29.2771  -40.1264   -8.2204 C   0  0  0  0  0  0  0  0  0  0  0  0
   29.9275  -39.2728   -7.1559 C   0  0  2  0  0  0  0  0  0  0  0  0
   30.7323  -40.1562   -6.3319 N   0  0  0  0  0  0  0  0  0  0  0  0
   28.9707  -38.4868   -6.3748 C   0  0  0  0  0  0  0  0  0  0  0  0
   28.1947  -37.7016   -6.9684 O   0  0  0  0  0  0  0  0  0  0  0  0
   30.9287  -39.6796  -10.0620 C   0  0  0  0  0  0  0  0  0  0  0  0
   31.9329  -40.0482  -10.9218 C   0  0  0  0  0  0  0  0  0  0  0  0
   28.8907  -38.5832   -4.9629 N   0  0  0  0  0  0  0  0  0  0  0  0
   27.9885  -37.7669   -4.1757 C   0  0  0  0  0  0  0  0  0  0  0  0
   28.7772  -36.8175   -3.3599 C   0  0  0  0  0  0  0  0  0  0  0  0
   30.0087  -37.0295   -3.1919 O   0  0  0  0  0  0  0  0  0  0  0  0
   28.2397  -35.6713   -2.7457 N   0  0  0  0  0  0  0  0  0  0  0  0
   29.1011  -34.7495   -2.0358 C   0  0  1  0  0  0  0  0  0  0  0  0
   29.2651  -33.5425   -2.9283 C   0  0  0  0  0  0  0  0  0  0  0  0
   30.2450  -33.7207   -4.0027 C   0  0  0  0  0  0  0  0  0  0  0  0
   29.8628  -33.5180   -5.3046 C   0  0  0  0  0  0  0  0  0  0  0  0
   30.7533  -33.6739   -6.3298 C   0  0  0  0  0  0  0  0  0  0  0  0
   32.0560  -34.0428   -6.0216 C   0  0  0  0  0  0  0  0  0  0  0  0
   32.4466  -34.2476   -4.7219 C   0  0  0  0  0  0  0  0  0  0  0  0
   31.5371  -34.0850   -3.7183 C   0  0  0  0  0  0  0  0  0  0  0  0
   28.5903  -34.4303   -0.6924 C   0  0  0  0  0  0  0  0  0  0  0  0
   27.3581  -34.3277   -0.4784 O   0  0  0  0  0  0  0  0  0  0  0  0
   29.4473  -34.2336    0.3743 O   0  0  0  0  0  0  0  0  0  0  0  0
  2  3  2  0
  2  1  1  0
  4  3  1  0
  5  4  2  0
  6  5  1  0
  7  6  1  0
  7  8  1  1
  9 10  2  0
  9  7  1  0
 11  5  1  0
 11 12  2  0
 12  2  1  0
 13  9  1  0
 14 15  1  0
 14 13  1  0
 15 16  2  0
 17 15  1  0
 17 18  1  0
 18 19  1  6
 19 20  1  0
 20 21  2  0
 21 22  1  0
 23 22  2  0
 24 23  1  0
 25 24  2  0
 25 20  1  0
 26 28  1  0
 26 18  1  0
 27 26  2  0
M  END
$$$$
