YGF.pdb
     RDKit          3D

 28 29  0  0  1  0  0  0  0  0999 V2000
   17.5781  -24.0072  -15.5679 O   0  0  0  0  0  0  0  0  0  0  0  0
   18.3354  -23.2615  -14.6780 C   0  0  0  0  0  0  0  0  0  0  0  0
   18.1880  -21.9130  -14.5662 C   0  0  0  0  0  0  0  0  0  0  0  0
   18.9534  -21.1825  -13.6714 C   0  0  0  0  0  0  0  0  0  0  0  0
   19.8864  -21.8139  -12.8708 C   0  0  0  0  0  0  0  0  0  0  0  0
   20.7280  -21.0535  -11.8949 C   0  0  0  0  0  0  0  0  0  0  0  0
   21.8922  -20.4920  -12.6786 C   0  0  2  0  0  0  0  0  0  0  0  0
   22.6973  -21.6185  -13.1146 N   0  0  0  0  0  0  0  0  0  0  0  0
   22.6677  -19.4965  -11.9364 C   0  0  0  0  0  0  0  0  0  0  0  0
   22.0834  -18.4927  -11.4652 O   0  0  0  0  0  0  0  0  0  0  0  0
   20.0116  -23.1896  -13.0096 C   0  0  0  0  0  0  0  0  0  0  0  0
   19.2539  -23.9137  -13.8957 C   0  0  0  0  0  0  0  0  0  0  0  0
   24.0639  -19.6287  -11.7309 N   0  0  0  0  0  0  0  0  0  0  0  0
   24.8530  -18.6136  -11.0624 C   0  0  0  0  0  0  0  0  0  0  0  0
   26.1347  -19.2060  -10.6203 C   0  0  0  0  0  0  0  0  0  0  0  0
   27.1710  -19.0107  -11.3113 O   0  0  0  0  0  0  0  0  0  0  0  0
   26.2821  -19.9880   -9.4597 N   0  0  0  0  0  0  0  0  0  0  0  0
   27.5046  -20.7273   -9.2261 C   0  0  1  0  0  0  0  0  0  0  0  0
   27.4656  -21.1752   -7.7845 C   0  0  0  0  0  0  0  0  0  0  0  0
   27.7438  -20.1096   -6.8185 C   0  0  0  0  0  0  0  0  0  0  0  0
   28.8661  -20.1870   -6.0333 C   0  0  0  0  0  0  0  0  0  0  0  0
   29.1554  -19.2084   -5.1240 C   0  0  0  0  0  0  0  0  0  0  0  0
   28.2848  -18.1322   -5.0138 C   0  0  0  0  0  0  0  0  0  0  0  0
   27.1599  -18.0470   -5.7954 C   0  0  0  0  0  0  0  0  0  0  0  0
   26.8956  -19.0379   -6.6948 C   0  0  0  0  0  0  0  0  0  0  0  0
   27.6826  -21.8292  -10.1862 C   0  0  0  0  0  0  0  0  0  0  0  0
   26.6949  -22.3575  -10.7520 O   0  0  0  0  0  0  0  0  0  0  0  0
   28.9384  -22.3171  -10.4955 O   0  0  0  0  0  0  0  0  0  0  0  0
  2  3  2  0
  2  1  1  0
  4  3  1  0
  5  4  2  0
  6  5  1  0
  7  6  1  0
  7  8  1  1
  9 10  2  0
  9  7  1  0
 11  5  1  0
 11 12  2  0
 12  2  1  0
 13  9  1  0
 14 15  1  0
 14 13  1  0
 15 16  2  0
 17 15  1  0
 17 18  1  0
 18 19  1  1
 19 20  1  0
 20 21  2  0
 21 22  1  0
 23 22  2  0
 24 23  1  0
 25 24  2  0
 25 20  1  0
 26 28  1  0
 26 18  1  0
 27 26  2  0
M  END
$$$$
