YGF.pdb
     RDKit          3D

 28 29  0  0  1  0  0  0  0  0999 V2000
   27.3140  -18.2895  -22.6542 O   0  0  0  0  0  0  0  0  0  0  0  0
   27.2672  -17.9570  -21.3093 C   0  0  0  0  0  0  0  0  0  0  0  0
   26.1472  -17.4350  -20.7385 C   0  0  0  0  0  0  0  0  0  0  0  0
   26.1174  -17.1081  -19.3923 C   0  0  0  0  0  0  0  0  0  0  0  0
   27.2317  -17.3075  -18.5992 C   0  0  0  0  0  0  0  0  0  0  0  0
   27.2313  -16.9649  -17.1426 C   0  0  0  0  0  0  0  0  0  0  0  0
   27.3247  -18.2747  -16.3939 C   0  0  2  0  0  0  0  0  0  0  0  0
   26.1580  -19.0586  -16.7563 N   0  0  0  0  0  0  0  0  0  0  0  0
   27.4672  -18.1089  -14.9463 C   0  0  0  0  0  0  0  0  0  0  0  0
   28.4121  -17.4171  -14.4995 O   0  0  0  0  0  0  0  0  0  0  0  0
   28.3572  -17.8414  -19.2123 C   0  0  0  0  0  0  0  0  0  0  0  0
   28.3873  -18.1653  -20.5456 C   0  0  0  0  0  0  0  0  0  0  0  0
   26.5690  -18.7067  -14.0271 N   0  0  0  0  0  0  0  0  0  0  0  0
   26.6742  -18.5113  -12.5951 C   0  0  0  0  0  0  0  0  0  0  0  0
   26.0034  -19.6320  -11.9001 C   0  0  0  0  0  0  0  0  0  0  0  0
   25.6017  -20.6189  -12.5741 O   0  0  0  0  0  0  0  0  0  0  0  0
   25.7772  -19.6756  -10.5119 N   0  0  0  0  0  0  0  0  0  0  0  0
   25.0640  -20.7884   -9.9214 C   0  0  1  0  0  0  0  0  0  0  0  0
   25.2014  -20.6397   -8.4249 C   0  0  0  0  0  0  0  0  0  0  0  0
   26.5647  -20.3489   -7.9745 C   0  0  0  0  0  0  0  0  0  0  0  0
   27.5790  -21.2172   -8.2901 C   0  0  0  0  0  0  0  0  0  0  0  0
   28.8620  -20.9738   -7.8869 C   0  0  0  0  0  0  0  0  0  0  0  0
   29.1150  -19.8249   -7.1491 C   0  0  0  0  0  0  0  0  0  0  0  0
   28.1061  -18.9510   -6.8291 C   0  0  0  0  0  0  0  0  0  0  0  0
   26.8347  -19.2187   -7.2445 C   0  0  0  0  0  0  0  0  0  0  0  0
   23.6690  -20.8666  -10.3854 C   0  0  0  0  0  0  0  0  0  0  0  0
   22.9757  -21.8910  -10.1747 O   0  0  0  0  0  0  0  0  0  0  0  0
   23.0782  -19.8184  -11.0659 O   0  0  0  0  0  0  0  0  0  0  0  0
  2  3  2  0
  2  1  1  0
  4  3  1  0
  5  4  2  0
  6  5  1  0
  7  6  1  0
  7  8  1  1
  9 10  2  0
  9  7  1  0
 11  5  1  0
 11 12  2  0
 12  2  1  0
 13  9  1  0
 14 15  1  0
 14 13  1  0
 15 16  2  0
 17 15  1  0
 17 18  1  0
 18 19  1  1
 19 20  1  0
 20 21  2  0
 21 22  1  0
 23 22  2  0
 24 23  1  0
 25 24  2  0
 25 20  1  0
 26 28  1  0
 26 18  1  0
 27 26  2  0
M  END
$$$$
