YGF.pdb
     RDKit          3D

 28 29  0  0  1  0  0  0  0  0999 V2000
   23.8006  -16.7835  -22.2128 O   0  0  0  0  0  0  0  0  0  0  0  0
   23.9178  -16.8403  -20.8328 C   0  0  0  0  0  0  0  0  0  0  0  0
   22.8388  -17.0495  -20.0298 C   0  0  0  0  0  0  0  0  0  0  0  0
   22.9737  -17.1035  -18.6517 C   0  0  0  0  0  0  0  0  0  0  0  0
   24.2143  -16.9449  -18.0635 C   0  0  0  0  0  0  0  0  0  0  0  0
   24.3929  -16.9979  -16.5789 C   0  0  0  0  0  0  0  0  0  0  0  0
   25.2387  -18.2174  -16.2918 C   0  0  2  0  0  0  0  0  0  0  0  0
   24.5072  -19.3707  -16.7839 N   0  0  0  0  0  0  0  0  0  0  0  0
   25.6159  -18.3459  -14.8831 C   0  0  0  0  0  0  0  0  0  0  0  0
   24.7229  -18.3073  -14.0044 O   0  0  0  0  0  0  0  0  0  0  0  0
   25.2936  -16.7332  -18.9107 C   0  0  0  0  0  0  0  0  0  0  0  0
   25.1607  -16.6796  -20.2756 C   0  0  0  0  0  0  0  0  0  0  0  0
   26.9631  -18.5133  -14.4757 N   0  0  0  0  0  0  0  0  0  0  0  0
   27.3460  -18.6469  -13.0845 C   0  0  0  0  0  0  0  0  0  0  0  0
   26.7259  -19.8676  -12.5238 C   0  0  0  0  0  0  0  0  0  0  0  0
   26.0340  -20.6051  -13.2770 O   0  0  0  0  0  0  0  0  0  0  0  0
   26.8560  -20.2723  -11.1825 N   0  0  0  0  0  0  0  0  0  0  0  0
   26.0855  -21.3888  -10.6771 C   0  0  1  0  0  0  0  0  0  0  0  0
   26.9148  -22.0227   -9.5858 C   0  0  0  0  0  0  0  0  0  0  0  0
   27.4364  -21.0719   -8.6009 C   0  0  0  0  0  0  0  0  0  0  0  0
   28.7896  -20.8632   -8.5157 C   0  0  0  0  0  0  0  0  0  0  0  0
   29.3080  -19.9814   -7.6091 C   0  0  0  0  0  0  0  0  0  0  0  0
   28.4309  -19.3007   -6.7751 C   0  0  0  0  0  0  0  0  0  0  0  0
   27.0758  -19.5036   -6.8539 C   0  0  0  0  0  0  0  0  0  0  0  0
   26.5856  -20.3896   -7.7679 C   0  0  0  0  0  0  0  0  0  0  0  0
   24.7383  -20.9854  -10.2413 C   0  0  0  0  0  0  0  0  0  0  0  0
   23.8787  -21.8433   -9.9256 O   0  0  0  0  0  0  0  0  0  0  0  0
   24.3763  -19.6535  -10.1655 O   0  0  0  0  0  0  0  0  0  0  0  0
  2  3  2  0
  2  1  1  0
  4  3  1  0
  5  4  2  0
  6  5  1  0
  7  6  1  0
  7  8  1  1
  9 10  2  0
  9  7  1  0
 11  5  1  0
 11 12  2  0
 12  2  1  0
 13  9  1  0
 14 15  1  0
 14 13  1  0
 15 16  2  0
 17 15  1  0
 17 18  1  0
 18 19  1  1
 19 20  1  0
 20 21  2  0
 21 22  1  0
 23 22  2  0
 24 23  1  0
 25 24  2  0
 25 20  1  0
 26 28  1  0
 26 18  1  0
 27 26  2  0
M  END
$$$$
