YGF.pdb
     RDKit          3D

 28 29  0  0  1  0  0  0  0  0999 V2000
   22.7081  -11.6566  -22.8737 O   0  0  0  0  0  0  0  0  0  0  0  0
   21.8132  -10.9168  -22.1165 C   0  0  0  0  0  0  0  0  0  0  0  0
   20.5783  -11.3929  -21.7988 C   0  0  0  0  0  0  0  0  0  0  0  0
   19.6957  -10.6401  -21.0408 C   0  0  0  0  0  0  0  0  0  0  0  0
   20.0556   -9.3839  -20.5905 C   0  0  0  0  0  0  0  0  0  0  0  0
   19.1255   -8.5466  -19.7703 C   0  0  0  0  0  0  0  0  0  0  0  0
   19.7443   -8.4396  -18.3953 C   0  0  2  0  0  0  0  0  0  0  0  0
   19.6068   -9.7387  -17.7623 N   0  0  0  0  0  0  0  0  0  0  0  0
   19.1840   -7.3549  -17.5874 C   0  0  0  0  0  0  0  0  0  0  0  0
   19.2880   -6.1733  -17.9927 O   0  0  0  0  0  0  0  0  0  0  0  0
   21.3218   -8.9282  -20.9320 C   0  0  0  0  0  0  0  0  0  0  0  0
   22.1964   -9.6733  -21.6828 C   0  0  0  0  0  0  0  0  0  0  0  0
   18.5243   -7.5952  -16.3562 N   0  0  0  0  0  0  0  0  0  0  0  0
   17.9256   -6.5335  -15.5723 C   0  0  0  0  0  0  0  0  0  0  0  0
   18.8685   -6.1224  -14.5088 C   0  0  0  0  0  0  0  0  0  0  0  0
   18.6584   -6.4989  -13.3240 O   0  0  0  0  0  0  0  0  0  0  0  0
   20.0064   -5.3248  -14.7303 N   0  0  0  0  0  0  0  0  0  0  0  0
   20.9240   -5.0424  -13.6469 C   0  0  1  0  0  0  0  0  0  0  0  0
   21.9013   -6.1928  -13.6023 C   0  0  0  0  0  0  0  0  0  0  0  0
   22.6120   -6.4242  -14.8622 C   0  0  0  0  0  0  0  0  0  0  0  0
   23.6078   -5.5608  -15.2433 C   0  0  0  0  0  0  0  0  0  0  0  0
   24.2915   -5.7499  -16.4116 C   0  0  0  0  0  0  0  0  0  0  0  0
   23.9536   -6.8384  -17.2049 C   0  0  0  0  0  0  0  0  0  0  0  0
   22.9587   -7.7068  -16.8310 C   0  0  0  0  0  0  0  0  0  0  0  0
   22.2927   -7.4942  -15.6598 C   0  0  0  0  0  0  0  0  0  0  0  0
   21.5641   -3.7239  -13.7869 C   0  0  0  0  0  0  0  0  0  0  0  0
   21.3614   -3.0130  -14.8009 O   0  0  0  0  0  0  0  0  0  0  0  0
   22.4064   -3.2266  -12.8102 O   0  0  0  0  0  0  0  0  0  0  0  0
  2  3  2  0
  2  1  1  0
  4  3  1  0
  5  4  2  0
  6  5  1  0
  7  6  1  0
  7  8  1  1
  9 10  2  0
  9  7  1  0
 11  5  1  0
 11 12  2  0
 12  2  1  0
 13  9  1  0
 14 15  1  0
 14 13  1  0
 15 16  2  0
 17 15  1  0
 17 18  1  0
 18 19  1  6
 19 20  1  0
 20 21  2  0
 21 22  1  0
 23 22  2  0
 24 23  1  0
 25 24  2  0
 25 20  1  0
 26 28  1  0
 26 18  1  0
 27 26  2  0
M  END
$$$$
