YGF.pdb
     RDKit          3D

 28 29  0  0  1  0  0  0  0  0999 V2000
   23.6076  -25.6093  -18.7938 O   0  0  0  0  0  0  0  0  0  0  0  0
   23.7476  -25.0130  -17.5504 C   0  0  0  0  0  0  0  0  0  0  0  0
   23.2424  -23.7768  -17.2873 C   0  0  0  0  0  0  0  0  0  0  0  0
   23.3912  -23.1951  -16.0385 C   0  0  0  0  0  0  0  0  0  0  0  0
   24.0598  -23.8639  -15.0305 C   0  0  0  0  0  0  0  0  0  0  0  0
   24.2372  -23.2630  -13.6717 C   0  0  0  0  0  0  0  0  0  0  0  0
   25.2380  -22.1407  -13.8262 C   0  0  2  0  0  0  0  0  0  0  0  0
   26.5129  -22.7479  -14.1626 N   0  0  0  0  0  0  0  0  0  0  0  0
   25.3193  -21.2676  -12.6539 C   0  0  0  0  0  0  0  0  0  0  0  0
   24.2969  -20.6445  -12.2828 O   0  0  0  0  0  0  0  0  0  0  0  0
   24.5627  -25.1224  -15.3317 C   0  0  0  0  0  0  0  0  0  0  0  0
   24.4156  -25.6991  -16.5684 C   0  0  0  0  0  0  0  0  0  0  0  0
   26.5202  -21.1012  -11.9197 N   0  0  0  0  0  0  0  0  0  0  0  0
   26.6423  -20.1551  -10.8288 C   0  0  0  0  0  0  0  0  0  0  0  0
   26.2486  -20.8159   -9.5649 C   0  0  0  0  0  0  0  0  0  0  0  0
   25.9071  -22.0294   -9.5881 O   0  0  0  0  0  0  0  0  0  0  0  0
   26.2278  -20.1731   -8.3134 N   0  0  0  0  0  0  0  0  0  0  0  0
   25.8345  -20.8992   -7.1244 C   0  0  1  0  0  0  0  0  0  0  0  0
   26.1747  -20.0138   -5.9494 C   0  0  0  0  0  0  0  0  0  0  0  0
   27.6099  -19.7807   -5.7708 C   0  0  0  0  0  0  0  0  0  0  0  0
   28.3512  -20.6698   -5.0345 C   0  0  0  0  0  0  0  0  0  0  0  0
   29.6925  -20.4824   -4.8508 C   0  0  0  0  0  0  0  0  0  0  0  0
   30.2881  -19.3688   -5.4282 C   0  0  0  0  0  0  0  0  0  0  0  0
   29.5539  -18.4744   -6.1663 C   0  0  0  0  0  0  0  0  0  0  0  0
   28.2168  -18.6861   -6.3336 C   0  0  0  0  0  0  0  0  0  0  0  0
   24.4229  -21.3153   -7.1660 C   0  0  0  0  0  0  0  0  0  0  0  0
   23.6287  -20.8196   -8.0015 O   0  0  0  0  0  0  0  0  0  0  0  0
   23.9266  -22.2622   -6.2896 O   0  0  0  0  0  0  0  0  0  0  0  0
  2  3  2  0
  2  1  1  0
  4  3  1  0
  5  4  2  0
  6  5  1  0
  7  6  1  0
  7  8  1  1
  9 10  2  0
  9  7  1  0
 11  5  1  0
 11 12  2  0
 12  2  1  0
 13  9  1  0
 14 15  1  0
 14 13  1  0
 15 16  2  0
 17 15  1  0
 17 18  1  0
 18 19  1  1
 19 20  1  0
 20 21  2  0
 21 22  1  0
 23 22  2  0
 24 23  1  0
 25 24  2  0
 25 20  1  0
 26 28  1  0
 26 18  1  0
 27 26  2  0
M  END
$$$$
