YGF.pdb
     RDKit          3D

 28 29  0  0  1  0  0  0  0  0999 V2000
   20.1797  -20.5181  -18.4056 O   0  0  0  0  0  0  0  0  0  0  0  0
   20.9027  -20.6469  -17.2300 C   0  0  0  0  0  0  0  0  0  0  0  0
   21.0900  -21.8555  -16.6325 C   0  0  0  0  0  0  0  0  0  0  0  0
   21.8156  -21.9665  -15.4572 C   0  0  0  0  0  0  0  0  0  0  0  0
   22.3661  -20.8449  -14.8663 C   0  0  0  0  0  0  0  0  0  0  0  0
   23.1546  -20.9316  -13.5976 C   0  0  0  0  0  0  0  0  0  0  0  0
   24.5967  -20.6740  -13.9703 C   0  0  2  0  0  0  0  0  0  0  0  0
   25.0268  -21.7808  -14.8054 N   0  0  0  0  0  0  0  0  0  0  0  0
   25.4690  -20.4665  -12.8131 C   0  0  0  0  0  0  0  0  0  0  0  0
   25.1536  -19.6091  -11.9549 O   0  0  0  0  0  0  0  0  0  0  0  0
   22.1565  -19.6281  -15.5012 C   0  0  0  0  0  0  0  0  0  0  0  0
   21.4380  -19.5174  -16.6652 C   0  0  0  0  0  0  0  0  0  0  0  0
   26.6645  -21.2052  -12.6282 N   0  0  0  0  0  0  0  0  0  0  0  0
   27.6100  -20.9062  -11.5714 C   0  0  0  0  0  0  0  0  0  0  0  0
   27.0090  -21.2588  -10.2662 C   0  0  0  0  0  0  0  0  0  0  0  0
   26.8852  -22.4747   -9.9567 O   0  0  0  0  0  0  0  0  0  0  0  0
   26.5565  -20.3141   -9.3266 N   0  0  0  0  0  0  0  0  0  0  0  0
   26.0113  -20.7477   -8.0576 C   0  0  1  0  0  0  0  0  0  0  0  0
   26.2696  -19.6297   -7.0758 C   0  0  0  0  0  0  0  0  0  0  0  0
   27.6042  -19.6588   -6.4725 C   0  0  0  0  0  0  0  0  0  0  0  0
   28.5689  -18.7958   -6.9272 C   0  0  0  0  0  0  0  0  0  0  0  0
   29.8232  -18.7961   -6.3842 C   0  0  0  0  0  0  0  0  0  0  0  0
   30.0983  -19.6922   -5.3597 C   0  0  0  0  0  0  0  0  0  0  0  0
   29.1390  -20.5589   -4.8989 C   0  0  0  0  0  0  0  0  0  0  0  0
   27.8954  -20.5371   -5.4591 C   0  0  0  0  0  0  0  0  0  0  0  0
   24.5939  -21.1320   -8.1612 C   0  0  0  0  0  0  0  0  0  0  0  0
   23.9470  -20.9322   -9.2178 O   0  0  0  0  0  0  0  0  0  0  0  0
   23.9304  -21.7235   -7.1026 O   0  0  0  0  0  0  0  0  0  0  0  0
  2  3  2  0
  2  1  1  0
  4  3  1  0
  5  4  2  0
  6  5  1  0
  7  6  1  0
  7  8  1  1
  9 10  2  0
  9  7  1  0
 11  5  1  0
 11 12  2  0
 12  2  1  0
 13  9  1  0
 14 15  1  0
 14 13  1  0
 15 16  2  0
 17 15  1  0
 17 18  1  0
 18 19  1  1
 19 20  1  0
 20 21  2  0
 21 22  1  0
 23 22  2  0
 24 23  1  0
 25 24  2  0
 25 20  1  0
 26 28  1  0
 26 18  1  0
 27 26  2  0
M  END
$$$$
