YGF.pdb
     RDKit          3D

 28 29  0  0  1  0  0  0  0  0999 V2000
   17.9170  -19.6018  -17.3064 O   0  0  0  0  0  0  0  0  0  0  0  0
   19.1550  -19.3737  -16.7263 C   0  0  0  0  0  0  0  0  0  0  0  0
   20.2317  -20.1594  -17.0025 C   0  0  0  0  0  0  0  0  0  0  0  0
   21.4625  -19.9174  -16.4137 C   0  0  0  0  0  0  0  0  0  0  0  0
   21.6205  -18.8671  -15.5294 C   0  0  0  0  0  0  0  0  0  0  0  0
   22.9361  -18.5797  -14.8772 C   0  0  0  0  0  0  0  0  0  0  0  0
   23.2617  -19.7815  -14.0201 C   0  0  2  0  0  0  0  0  0  0  0  0
   22.1914  -19.9166  -13.0488 N   0  0  0  0  0  0  0  0  0  0  0  0
   24.5848  -19.7115  -13.3975 C   0  0  0  0  0  0  0  0  0  0  0  0
   25.6050  -19.7165  -14.1258 O   0  0  0  0  0  0  0  0  0  0  0  0
   20.5029  -18.0854  -15.2694 C   0  0  0  0  0  0  0  0  0  0  0  0
   19.2836  -18.3246  -15.8523 C   0  0  0  0  0  0  0  0  0  0  0  0
   24.7537  -19.6377  -11.9921 N   0  0  0  0  0  0  0  0  0  0  0  0
   26.0576  -19.6722  -11.3608 C   0  0  0  0  0  0  0  0  0  0  0  0
   26.0085  -20.5769  -10.1911 C   0  0  0  0  0  0  0  0  0  0  0  0
   25.3441  -21.6456  -10.2701 O   0  0  0  0  0  0  0  0  0  0  0  0
   26.6639  -20.3242   -8.9718 N   0  0  0  0  0  0  0  0  0  0  0  0
   26.6010  -21.2884   -7.8938 C   0  0  1  0  0  0  0  0  0  0  0  0
   27.9877  -21.3583   -7.3001 C   0  0  0  0  0  0  0  0  0  0  0  0
   28.2452  -20.3588   -6.2604 C   0  0  0  0  0  0  0  0  0  0  0  0
   28.8274  -19.1645   -6.6023 C   0  0  0  0  0  0  0  0  0  0  0  0
   29.0789  -18.2103   -5.6567 C   0  0  0  0  0  0  0  0  0  0  0  0
   28.7307  -18.4788   -4.3395 C   0  0  0  0  0  0  0  0  0  0  0  0
   28.1479  -19.6710   -3.9890 C   0  0  0  0  0  0  0  0  0  0  0  0
   27.9082  -20.6056   -4.9533 C   0  0  0  0  0  0  0  0  0  0  0  0
   25.5509  -20.9630   -6.9146 C   0  0  0  0  0  0  0  0  0  0  0  0
   25.0358  -19.8193   -6.8773 O   0  0  0  0  0  0  0  0  0  0  0  0
   25.0986  -21.9024   -6.0069 O   0  0  0  0  0  0  0  0  0  0  0  0
  2  3  2  0
  2  1  1  0
  4  3  1  0
  5  4  2  0
  6  5  1  0
  7  6  1  0
  7  8  1  1
  9 10  2  0
  9  7  1  0
 11  5  1  0
 11 12  2  0
 12  2  1  0
 13  9  1  0
 14 15  1  0
 14 13  1  0
 15 16  2  0
 17 15  1  0
 17 18  1  0
 18 19  1  1
 19 20  1  0
 20 21  2  0
 21 22  1  0
 23 22  2  0
 24 23  1  0
 25 24  2  0
 25 20  1  0
 26 28  1  0
 26 18  1  0
 27 26  2  0
M  END
$$$$
