YLT.pdb
     RDKit          3D

 28 28  0  0  1  0  0  0  0  0999 V2000
   29.2155  -15.2919  -18.7676 O   0  0  0  0  0  0  0  0  0  0  0  0
   28.4310  -16.1415  -17.9740 C   0  0  0  0  0  0  0  0  0  0  0  0
   28.7919  -16.3716  -16.6630 C   0  0  0  0  0  0  0  0  0  0  0  0
   27.9723  -17.2248  -15.9269 C   0  0  0  0  0  0  0  0  0  0  0  0
   26.8551  -17.8100  -16.4829 C   0  0  0  0  0  0  0  0  0  0  0  0
   26.0029  -18.7033  -15.6979 C   0  0  0  0  0  0  0  0  0  0  0  0
   26.7011  -19.8322  -15.0186 C   0  0  2  0  0  0  0  0  0  0  0  0
   27.3557  -20.7327  -15.9348 N   0  0  0  0  0  0  0  0  0  0  0  0
   25.7718  -20.6176  -14.1786 C   0  0  0  0  0  0  0  0  0  0  0  0
   25.2488  -21.6682  -14.6679 O   0  0  0  0  0  0  0  0  0  0  0  0
   26.5139  -17.5665  -17.7924 C   0  0  0  0  0  0  0  0  0  0  0  0
   27.3130  -16.7272  -18.5303 C   0  0  0  0  0  0  0  0  0  0  0  0
   26.0132  -20.3807   -8.6621 C   0  0  0  0  0  0  0  0  0  0  0  0
   26.0399  -20.7387  -10.1572 C   0  0  1  0  0  0  0  0  0  0  0  0
   26.6743  -22.1045  -10.3457 C   0  0  0  0  0  0  0  0  0  0  0  0
   24.6200  -20.7457  -10.6072 C   0  0  0  0  0  0  0  0  0  0  0  0
   24.5008  -20.9919  -12.1031 C   0  0  2  0  0  0  0  0  0  0  0  0
   25.4584  -20.2254  -12.8598 N   0  0  0  0  0  0  0  0  0  0  0  0
   23.1336  -20.5287  -12.4698 C   0  0  0  0  0  0  0  0  0  0  0  0
   22.7759  -19.3835  -12.1455 O   0  0  0  0  0  0  0  0  0  0  0  0
   21.4639  -19.4908  -15.4141 C   0  0  0  0  0  0  0  0  0  0  0  0
   20.7433  -20.7327  -14.9525 C   0  0  1  0  0  0  0  0  0  0  0  0
   21.1707  -21.8773  -15.6139 O   0  0  0  0  0  0  0  0  0  0  0  0
   20.9034  -20.9299  -13.4529 C   0  0  2  0  0  0  0  0  0  0  0  0
   22.2460  -21.3662  -13.1750 N   0  0  0  0  0  0  0  0  0  0  0  0
   19.8993  -21.9219  -12.9883 C   0  0  0  0  0  0  0  0  0  0  0  0
   18.5482  -21.6582  -13.0284 O   0  0  0  0  0  0  0  0  0  0  0  0
   20.3079  -23.0218  -12.5517 O   0  0  0  0  0  0  0  0  0  0  0  0
  2  1  1  0
  3  2  2  0
  4  3  1  0
  5 11  1  0
  5  4  2  0
  6  5  1  0
  7  6  1  0
  7  8  1  6
  9  7  1  0
  9 10  2  0
 11 12  2  0
 12  2  1  0
 14 13  1  1
 14 15  1  0
 16 14  1  0
 17 16  1  1
 17 18  1  0
 18  9  1  0
 19 17  1  0
 20 19  2  0
 22 23  1  0
 22 21  1  6
 24 22  1  0
 24 25  1  6
 25 19  1  0
 26 27  1  0
 26 24  1  0
 28 26  2  0
M  END
$$$$
