YLT.pdb
     RDKit          3D

 28 28  0  0  1  0  0  0  0  0999 V2000
   24.4477  -14.0133  -19.0953 O   0  0  0  0  0  0  0  0  0  0  0  0
   24.6147  -15.0032  -18.1158 C   0  0  0  0  0  0  0  0  0  0  0  0
   25.7382  -14.9851  -17.3164 C   0  0  0  0  0  0  0  0  0  0  0  0
   25.8461  -15.9951  -16.3624 C   0  0  0  0  0  0  0  0  0  0  0  0
   24.8763  -16.9648  -16.2252 C   0  0  0  0  0  0  0  0  0  0  0  0
   25.0020  -18.0189  -15.2185 C   0  0  0  0  0  0  0  0  0  0  0  0
   26.0669  -19.0315  -15.4717 C   0  0  2  0  0  0  0  0  0  0  0  0
   25.8267  -19.8308  -16.6474 N   0  0  0  0  0  0  0  0  0  0  0  0
   26.2359  -19.9405  -14.3178 C   0  0  0  0  0  0  0  0  0  0  0  0
   25.4503  -20.9338  -14.2051 O   0  0  0  0  0  0  0  0  0  0  0  0
   23.7638  -16.9635  -17.0333 C   0  0  0  0  0  0  0  0  0  0  0  0
   23.6442  -15.9736  -17.9784 C   0  0  0  0  0  0  0  0  0  0  0  0
   30.9611  -20.1830  -11.3056 C   0  0  0  0  0  0  0  0  0  0  0  0
   29.7681  -20.6034  -12.1798 C   0  0  1  0  0  0  0  0  0  0  0  0
   29.8876  -22.0736  -12.5369 C   0  0  0  0  0  0  0  0  0  0  0  0
   28.5475  -20.3524  -11.3636 C   0  0  0  0  0  0  0  0  0  0  0  0
   27.2747  -20.5533  -12.1711 C   0  0  2  0  0  0  0  0  0  0  0  0
   27.2413  -19.7265  -13.3511 N   0  0  0  0  0  0  0  0  0  0  0  0
   26.1669  -20.1305  -11.2700 C   0  0  0  0  0  0  0  0  0  0  0  0
   26.0506  -18.9281  -10.9777 O   0  0  0  0  0  0  0  0  0  0  0  0
   22.6877  -20.0447  -11.7609 C   0  0  0  0  0  0  0  0  0  0  0  0
   22.8576  -20.9044  -10.5334 C   0  0  1  0  0  0  0  0  0  0  0  0
   22.7382  -22.2610  -10.8086 O   0  0  0  0  0  0  0  0  0  0  0  0
   24.1996  -20.6434   -9.8670 C   0  0  2  0  0  0  0  0  0  0  0  0
   25.2547  -21.0695  -10.7477 N   0  0  0  0  0  0  0  0  0  0  0  0
   24.2426  -21.3698   -8.5714 C   0  0  0  0  0  0  0  0  0  0  0  0
   25.2019  -22.3216   -8.3061 O   0  0  0  0  0  0  0  0  0  0  0  0
   23.3773  -21.0983   -7.7084 O   0  0  0  0  0  0  0  0  0  0  0  0
  2  1  1  0
  3  2  2  0
  4  3  1  0
  5 11  1  0
  5  4  2  0
  6  5  1  0
  7  6  1  0
  7  8  1  6
  9  7  1  0
  9 10  2  0
 11 12  2  0
 12  2  1  0
 14 13  1  1
 14 15  1  0
 16 14  1  0
 17 16  1  1
 17 18  1  0
 18  9  1  0
 19 17  1  0
 20 19  2  0
 22 23  1  0
 22 21  1  6
 24 22  1  0
 24 25  1  6
 25 19  1  0
 26 27  1  0
 26 24  1  0
 28 26  2  0
M  END
$$$$
