YLT.pdb
     RDKit          3D

 28 28  0  0  1  0  0  0  0  0999 V2000
   22.9301  -18.8383  -16.8516 O   0  0  0  0  0  0  0  0  0  0  0  0
   23.3597  -19.1896  -15.5635 C   0  0  0  0  0  0  0  0  0  0  0  0
   24.3924  -18.4886  -14.9771 C   0  0  0  0  0  0  0  0  0  0  0  0
   24.7728  -18.8856  -13.6967 C   0  0  0  0  0  0  0  0  0  0  0  0
   24.1468  -19.9284  -13.0484 C   0  0  0  0  0  0  0  0  0  0  0  0
   24.5561  -20.3340  -11.7037 C   0  0  0  0  0  0  0  0  0  0  0  0
   25.9749  -20.7703  -11.5633 C   0  0  2  0  0  0  0  0  0  0  0  0
   26.2884  -21.9494  -12.3316 N   0  0  0  0  0  0  0  0  0  0  0  0
   26.3252  -21.0291  -10.1503 C   0  0  0  0  0  0  0  0  0  0  0  0
   26.1098  -22.1873   -9.6719 O   0  0  0  0  0  0  0  0  0  0  0  0
   23.1189  -20.6137  -13.6523 C   0  0  0  0  0  0  0  0  0  0  0  0
   22.7332  -20.2332  -14.9148 C   0  0  0  0  0  0  0  0  0  0  0  0
   29.3307  -20.6990   -5.7617 C   0  0  0  0  0  0  0  0  0  0  0  0
   28.3305  -19.5374   -5.8826 C   0  0  1  0  0  0  0  0  0  0  0  0
   28.8973  -18.3011   -5.2092 C   0  0  0  0  0  0  0  0  0  0  0  0
   28.1376  -19.3068   -7.3415 C   0  0  0  0  0  0  0  0  0  0  0  0
   27.1819  -20.3189   -7.9537 C   0  0  2  0  0  0  0  0  0  0  0  0
   26.8866  -20.0247   -9.3333 N   0  0  0  0  0  0  0  0  0  0  0  0
   25.9230  -20.1959   -7.1675 C   0  0  0  0  0  0  0  0  0  0  0  0
   25.1678  -19.2324   -7.3819 O   0  0  0  0  0  0  0  0  0  0  0  0
   22.8700  -21.8605   -7.2223 C   0  0  0  0  0  0  0  0  0  0  0  0
   23.3865  -22.0887   -5.8238 C   0  0  1  0  0  0  0  0  0  0  0  0
   23.9883  -23.3315   -5.6709 O   0  0  0  0  0  0  0  0  0  0  0  0
   24.3712  -21.0011   -5.4225 C   0  0  2  0  0  0  0  0  0  0  0  0
   25.5789  -21.1514   -6.1901 N   0  0  0  0  0  0  0  0  0  0  0  0
   24.6345  -21.1051   -3.9638 C   0  0  0  0  0  0  0  0  0  0  0  0
   23.6465  -20.8791   -3.0315 O   0  0  0  0  0  0  0  0  0  0  0  0
   25.7899  -21.4069   -3.5880 O   0  0  0  0  0  0  0  0  0  0  0  0
  2  1  1  0
  3  2  2  0
  4  3  1  0
  5 11  1  0
  5  4  2  0
  6  5  1  0
  7  6  1  0
  7  8  1  6
  9  7  1  0
  9 10  2  0
 11 12  2  0
 12  2  1  0
 14 13  1  6
 14 15  1  0
 16 14  1  0
 17 16  1  1
 17 18  1  0
 18  9  1  0
 19 17  1  0
 20 19  2  0
 22 23  1  0
 22 21  1  6
 24 22  1  0
 24 25  1  6
 25 19  1  0
 26 27  1  0
 26 24  1  0
 28 26  2  0
M  END
$$$$
