YLT.pdb
     RDKit          3D

 28 28  0  0  1  0  0  0  0  0999 V2000
   15.5436  -24.5536  -14.4576 O   0  0  0  0  0  0  0  0  0  0  0  0
   16.7191  -23.7956  -14.3534 C   0  0  0  0  0  0  0  0  0  0  0  0
   16.6640  -22.4290  -14.5298 C   0  0  0  0  0  0  0  0  0  0  0  0
   17.8652  -21.7323  -14.4137 C   0  0  0  0  0  0  0  0  0  0  0  0
   19.0505  -22.3785  -14.1359 C   0  0  0  0  0  0  0  0  0  0  0  0
   20.3043  -21.6342  -14.0160 C   0  0  0  0  0  0  0  0  0  0  0  0
   20.7348  -21.3118  -12.6253 C   0  0  2  0  0  0  0  0  0  0  0  0
   19.7745  -20.5178  -11.9000 N   0  0  0  0  0  0  0  0  0  0  0  0
   22.0317  -20.6020  -12.6101 C   0  0  0  0  0  0  0  0  0  0  0  0
   22.0298  -19.3305  -12.6025 O   0  0  0  0  0  0  0  0  0  0  0  0
   19.0821  -23.7423  -13.9638 C   0  0  0  0  0  0  0  0  0  0  0  0
   17.9052  -24.4422  -14.0754 C   0  0  0  0  0  0  0  0  0  0  0  0
   25.8380  -21.8193   -9.1561 C   0  0  0  0  0  0  0  0  0  0  0  0
   24.8237  -21.1326  -10.0855 C   0  0  1  0  0  0  0  0  0  0  0  0
   24.5957  -19.7035   -9.6284 C   0  0  0  0  0  0  0  0  0  0  0  0
   25.4227  -21.1652  -11.4490 C   0  0  0  0  0  0  0  0  0  0  0  0
   24.4910  -20.5677  -12.4917 C   0  0  2  0  0  0  0  0  0  0  0  0
   23.2565  -21.3028  -12.6049 N   0  0  0  0  0  0  0  0  0  0  0  0
   25.2239  -20.6792  -13.7834 C   0  0  0  0  0  0  0  0  0  0  0  0
   26.3038  -20.0792  -13.9197 O   0  0  0  0  0  0  0  0  0  0  0  0
   27.1369  -22.9948  -15.6877 C   0  0  0  0  0  0  0  0  0  0  0  0
   25.9098  -22.7126  -16.5179 C   0  0  1  0  0  0  0  0  0  0  0  0
   24.9400  -23.6996  -16.3935 O   0  0  0  0  0  0  0  0  0  0  0  0
   25.3045  -21.3653  -16.1550 C   0  0  2  0  0  0  0  0  0  0  0  0
   24.7127  -21.4509  -14.8462 N   0  0  0  0  0  0  0  0  0  0  0  0
   24.2999  -20.9959  -17.1857 C   0  0  0  0  0  0  0  0  0  0  0  0
   24.6307  -20.9040  -18.5194 O   0  0  0  0  0  0  0  0  0  0  0  0
   23.1261  -20.7653  -16.8165 O   0  0  0  0  0  0  0  0  0  0  0  0
  2  1  1  0
  3  2  2  0
  4  3  1  0
  5 11  1  0
  5  4  2  0
  6  5  1  0
  7  6  1  0
  7  8  1  6
  9  7  1  0
  9 10  2  0
 11 12  2  0
 12  2  1  0
 14 13  1  1
 14 15  1  0
 16 14  1  0
 17 16  1  1
 17 18  1  0
 18  9  1  0
 19 17  1  0
 20 19  2  0
 22 23  1  0
 22 21  1  1
 24 22  1  0
 24 25  1  1
 25 19  1  0
 26 27  1  0
 26 24  1  0
 28 26  2  0
M  END
$$$$
