YLT.pdb
     RDKit          3D

 28 28  0  0  1  0  0  0  0  0999 V2000
   18.3656  -25.6266  -18.1719 O   0  0  0  0  0  0  0  0  0  0  0  0
   19.6511  -26.1872  -18.1563 C   0  0  0  0  0  0  0  0  0  0  0  0
   19.9245  -27.2359  -17.3035 C   0  0  0  0  0  0  0  0  0  0  0  0
   21.2197  -27.7491  -17.3350 C   0  0  0  0  0  0  0  0  0  0  0  0
   22.1803  -27.2329  -18.1778 C   0  0  0  0  0  0  0  0  0  0  0  0
   23.5361  -27.7822  -18.2009 C   0  0  0  0  0  0  0  0  0  0  0  0
   24.3970  -27.4294  -17.0358 C   0  0  2  0  0  0  0  0  0  0  0  0
   24.6891  -26.0202  -16.9477 N   0  0  0  0  0  0  0  0  0  0  0  0
   25.6770  -28.1689  -17.0640 C   0  0  0  0  0  0  0  0  0  0  0  0
   26.7574  -27.5111  -17.1930 O   0  0  0  0  0  0  0  0  0  0  0  0
   21.8855  -26.1867  -19.0200 C   0  0  0  0  0  0  0  0  0  0  0  0
   20.6125  -25.6707  -18.9997 C   0  0  0  0  0  0  0  0  0  0  0  0
   29.1766  -31.4581  -15.2881 C   0  0  0  0  0  0  0  0  0  0  0  0
   28.2311  -32.2831  -16.1768 C   0  0  1  0  0  0  0  0  0  0  0  0
   28.0884  -33.6840  -15.6108 C   0  0  0  0  0  0  0  0  0  0  0  0
   26.9236  -31.5695  -16.1652 C   0  0  0  0  0  0  0  0  0  0  0  0
   26.9962  -30.2418  -16.9031 C   0  0  2  0  0  0  0  0  0  0  0  0
   25.7195  -29.5749  -16.9525 N   0  0  0  0  0  0  0  0  0  0  0  0
   27.3996  -30.5872  -18.2945 C   0  0  0  0  0  0  0  0  0  0  0  0
   26.5349  -30.9850  -19.0937 O   0  0  0  0  0  0  0  0  0  0  0  0
   30.8237  -30.3627  -21.8320 C   0  0  0  0  0  0  0  0  0  0  0  0
   30.3832  -30.0377  -20.4267 C   0  0  1  0  0  0  0  0  0  0  0  0
   30.1922  -28.6762  -20.2263 O   0  0  0  0  0  0  0  0  0  0  0  0
   29.1053  -30.7818  -20.0705 C   0  0  2  0  0  0  0  0  0  0  0  0
   28.7400  -30.4698  -18.7143 N   0  0  0  0  0  0  0  0  0  0  0  0
   29.3302  -32.2390  -20.2544 C   0  0  0  0  0  0  0  0  0  0  0  0
   28.7911  -32.9265  -21.3190 O   0  0  0  0  0  0  0  0  0  0  0  0
   30.0303  -32.8439  -19.4110 O   0  0  0  0  0  0  0  0  0  0  0  0
  2  1  1  0
  3  2  2  0
  4  3  1  0
  5 11  1  0
  5  4  2  0
  6  5  1  0
  7  6  1  0
  7  8  1  6
  9  7  1  0
  9 10  2  0
 11 12  2  0
 12  2  1  0
 14 13  1  1
 14 15  1  0
 16 14  1  0
 17 16  1  1
 17 18  1  0
 18  9  1  0
 19 17  1  0
 20 19  2  0
 22 23  1  0
 22 21  1  6
 24 22  1  0
 24 25  1  1
 25 19  1  0
 26 27  1  0
 26 24  1  0
 28 26  2  0
M  END
$$$$
