YLT.pdb
     RDKit          3D

 28 28  0  0  1  0  0  0  0  0999 V2000
   28.5577  -14.5721  -18.0264 O   0  0  0  0  0  0  0  0  0  0  0  0
   27.9295  -15.5850  -17.2874 C   0  0  0  0  0  0  0  0  0  0  0  0
   27.6057  -15.3606  -15.9658 C   0  0  0  0  0  0  0  0  0  0  0  0
   26.9833  -16.4056  -15.2859 C   0  0  0  0  0  0  0  0  0  0  0  0
   26.7050  -17.6051  -15.9050 C   0  0  0  0  0  0  0  0  0  0  0  0
   26.0502  -18.6936  -15.1791 C   0  0  0  0  0  0  0  0  0  0  0  0
   26.9447  -19.5422  -14.3407 C   0  0  2  0  0  0  0  0  0  0  0  0
   27.8978  -20.3018  -15.1110 N   0  0  0  0  0  0  0  0  0  0  0  0
   26.1705  -20.4816  -13.5015 C   0  0  0  0  0  0  0  0  0  0  0  0
   25.9284  -21.6448  -13.9543 O   0  0  0  0  0  0  0  0  0  0  0  0
   27.0368  -17.8072  -17.2240 C   0  0  0  0  0  0  0  0  0  0  0  0
   27.6509  -16.7855  -17.9068 C   0  0  0  0  0  0  0  0  0  0  0  0
   26.0723  -20.2278   -8.0367 C   0  0  0  0  0  0  0  0  0  0  0  0
   26.1950  -20.6793   -9.5014 C   0  0  1  0  0  0  0  0  0  0  0  0
   26.8804  -22.0319   -9.5648 C   0  0  0  0  0  0  0  0  0  0  0  0
   24.8038  -20.7634  -10.0271 C   0  0  0  0  0  0  0  0  0  0  0  0
   24.7789  -20.9797  -11.5321 C   0  0  2  0  0  0  0  0  0  0  0  0
   25.7008  -20.1135  -12.2227 N   0  0  0  0  0  0  0  0  0  0  0  0
   23.3956  -20.6272  -11.9568 C   0  0  0  0  0  0  0  0  0  0  0  0
   22.9118  -19.5396  -11.5992 O   0  0  0  0  0  0  0  0  0  0  0  0
   21.8619  -20.2139  -15.3369 C   0  0  0  0  0  0  0  0  0  0  0  0
   21.1092  -21.3018  -14.6127 C   0  0  1  0  0  0  0  0  0  0  0  0
   21.4956  -22.5760  -15.0093 O   0  0  0  0  0  0  0  0  0  0  0  0
   21.2784  -21.1717  -13.1068 C   0  0  2  0  0  0  0  0  0  0  0  0
   22.6328  -21.5047  -12.7535 N   0  0  0  0  0  0  0  0  0  0  0  0
   20.3022  -22.0674  -12.4339 C   0  0  0  0  0  0  0  0  0  0  0  0
   18.9438  -21.8652  -12.5358 O   0  0  0  0  0  0  0  0  0  0  0  0
   20.7416  -23.0268  -11.7603 O   0  0  0  0  0  0  0  0  0  0  0  0
  2  1  1  0
  3  2  2  0
  4  3  1  0
  5 11  1  0
  5  4  2  0
  6  5  1  0
  7  6  1  0
  7  8  1  6
  9  7  1  0
  9 10  2  0
 11 12  2  0
 12  2  1  0
 14 13  1  1
 14 15  1  0
 16 14  1  0
 17 16  1  1
 17 18  1  0
 18  9  1  0
 19 17  1  0
 20 19  2  0
 22 23  1  0
 22 21  1  6
 24 22  1  0
 24 25  1  6
 25 19  1  0
 26 27  1  0
 26 24  1  0
 28 26  2  0
M  END
$$$$
