YLT.pdb
     RDKit          3D

 28 28  0  0  1  0  0  0  0  0999 V2000
   28.3676  -17.1687  -20.2539 O   0  0  0  0  0  0  0  0  0  0  0  0
   27.7522  -17.7666  -19.1446 C   0  0  0  0  0  0  0  0  0  0  0  0
   28.2495  -17.5271  -17.8808 C   0  0  0  0  0  0  0  0  0  0  0  0
   27.5945  -18.1498  -16.8202 C   0  0  0  0  0  0  0  0  0  0  0  0
   26.5026  -18.9655  -17.0251 C   0  0  0  0  0  0  0  0  0  0  0  0
   25.8240  -19.6124  -15.9020 C   0  0  0  0  0  0  0  0  0  0  0  0
   26.5705  -20.7262  -15.2497 C   0  0  2  0  0  0  0  0  0  0  0  0
   26.7810  -21.8579  -16.1178 N   0  0  0  0  0  0  0  0  0  0  0  0
   25.8826  -21.1979  -14.0288 C   0  0  0  0  0  0  0  0  0  0  0  0
   25.3650  -22.3592  -14.0319 O   0  0  0  0  0  0  0  0  0  0  0  0
   26.0236  -19.1905  -18.2942 C   0  0  0  0  0  0  0  0  0  0  0  0
   26.6595  -18.5829  -19.3496 C   0  0  0  0  0  0  0  0  0  0  0  0
   25.6072  -22.1139   -8.9975 C   0  0  0  0  0  0  0  0  0  0  0  0
   24.9215  -20.7559   -9.2206 C   0  0  1  0  0  0  0  0  0  0  0  0
   25.1454  -19.8645   -8.0129 C   0  0  0  0  0  0  0  0  0  0  0  0
   25.5491  -20.1696  -10.4376 C   0  0  0  0  0  0  0  0  0  0  0  0
   25.1352  -20.9085  -11.7006 C   0  0  2  0  0  0  0  0  0  0  0  0
   25.7911  -20.3909  -12.8749 N   0  0  0  0  0  0  0  0  0  0  0  0
   23.6718  -20.6669  -11.8353 C   0  0  0  0  0  0  0  0  0  0  0  0
   22.9779  -20.5695  -10.8088 O   0  0  0  0  0  0  0  0  0  0  0  0
   22.0003  -18.0987  -14.4235 C   0  0  0  0  0  0  0  0  0  0  0  0
   21.4123  -19.4854  -14.4999 C   0  0  1  0  0  0  0  0  0  0  0  0
   21.9027  -20.2170  -15.5744 O   0  0  0  0  0  0  0  0  0  0  0  0
   21.6628  -20.2551  -13.2122 C   0  0  2  0  0  0  0  0  0  0  0  0
   23.0673  -20.5479  -13.1030 N   0  0  0  0  0  0  0  0  0  0  0  0
   20.8455  -21.4960  -13.2268 C   0  0  0  0  0  0  0  0  0  0  0  0
   19.4690  -21.4570  -13.2124 O   0  0  0  0  0  0  0  0  0  0  0  0
   21.4384  -22.5984  -13.2530 O   0  0  0  0  0  0  0  0  0  0  0  0
  2  1  1  0
  3  2  2  0
  4  3  1  0
  5 11  1  0
  5  4  2  0
  6  5  1  0
  7  6  1  0
  7  8  1  6
  9  7  1  0
  9 10  2  0
 11 12  2  0
 12  2  1  0
 14 13  1  1
 14 15  1  0
 16 14  1  0
 17 16  1  1
 17 18  1  0
 18  9  1  0
 19 17  1  0
 20 19  2  0
 22 23  1  0
 22 21  1  1
 24 22  1  0
 24 25  1  6
 25 19  1  0
 26 27  1  0
 26 24  1  0
 28 26  2  0
M  END
$$$$
