YLT.pdb
     RDKit          3D

 28 28  0  0  1  0  0  0  0  0999 V2000
   24.0094  -15.3210  -20.3601 O   0  0  0  0  0  0  0  0  0  0  0  0
   24.1333  -16.2186  -19.2896 C   0  0  0  0  0  0  0  0  0  0  0  0
   23.3009  -17.3161  -19.2236 C   0  0  0  0  0  0  0  0  0  0  0  0
   23.4733  -18.1701  -18.1361 C   0  0  0  0  0  0  0  0  0  0  0  0
   24.4298  -17.9288  -17.1735 C   0  0  0  0  0  0  0  0  0  0  0  0
   24.6005  -18.8345  -16.0372 C   0  0  0  0  0  0  0  0  0  0  0  0
   25.7313  -19.8005  -16.1440 C   0  0  2  0  0  0  0  0  0  0  0  0
   25.5957  -20.7185  -17.2474 N   0  0  0  0  0  0  0  0  0  0  0  0
   25.8919  -20.5865  -14.9020 C   0  0  0  0  0  0  0  0  0  0  0  0
   25.1970  -21.6410  -14.7546 O   0  0  0  0  0  0  0  0  0  0  0  0
   25.2492  -16.8280  -17.2593 C   0  0  0  0  0  0  0  0  0  0  0  0
   25.0904  -15.9772  -18.3263 C   0  0  0  0  0  0  0  0  0  0  0  0
   30.5201  -20.2066  -12.0361 C   0  0  0  0  0  0  0  0  0  0  0  0
   29.2690  -20.4498  -12.8963 C   0  0  1  0  0  0  0  0  0  0  0  0
   29.5260  -21.5909  -13.8632 C   0  0  0  0  0  0  0  0  0  0  0  0
   28.1739  -20.7940  -11.9470 C   0  0  0  0  0  0  0  0  0  0  0  0
   26.8339  -20.9299  -12.6530 C   0  0  2  0  0  0  0  0  0  0  0  0
   26.7916  -20.1906  -13.8894 N   0  0  0  0  0  0  0  0  0  0  0  0
   25.8359  -20.3393  -11.7185 C   0  0  0  0  0  0  0  0  0  0  0  0
   25.9618  -19.1531  -11.3698 O   0  0  0  0  0  0  0  0  0  0  0  0
   22.2554  -19.8959  -12.2469 C   0  0  0  0  0  0  0  0  0  0  0  0
   22.3952  -20.6871  -10.9705 C   0  0  1  0  0  0  0  0  0  0  0  0
   22.1522  -22.0430  -11.1512 O   0  0  0  0  0  0  0  0  0  0  0  0
   23.7772  -20.5013  -10.3630 C   0  0  2  0  0  0  0  0  0  0  0  0
   24.7575  -21.1028  -11.2275 N   0  0  0  0  0  0  0  0  0  0  0  0
   23.7936  -21.1134   -9.0091 C   0  0  0  0  0  0  0  0  0  0  0  0
   22.9308  -20.7021   -8.0176 O   0  0  0  0  0  0  0  0  0  0  0  0
   24.6192  -22.0259   -8.7789 O   0  0  0  0  0  0  0  0  0  0  0  0
  2  1  1  0
  3  2  2  0
  4  3  1  0
  5 11  1  0
  5  4  2  0
  6  5  1  0
  7  6  1  0
  7  8  1  6
  9  7  1  0
  9 10  2  0
 11 12  2  0
 12  2  1  0
 14 13  1  1
 14 15  1  0
 16 14  1  0
 17 16  1  1
 17 18  1  0
 18  9  1  0
 19 17  1  0
 20 19  2  0
 22 23  1  0
 22 21  1  6
 24 22  1  0
 24 25  1  6
 25 19  1  0
 26 27  1  0
 26 24  1  0
 28 26  2  0
M  END
$$$$
