YLT.pdb
     RDKit          3D

 28 28  0  0  1  0  0  0  0  0999 V2000
   28.1193  -13.5364  -17.7167 O   0  0  0  0  0  0  0  0  0  0  0  0
   27.4699  -14.6621  -17.1896 C   0  0  0  0  0  0  0  0  0  0  0  0
   27.2644  -14.7528  -15.8289 C   0  0  0  0  0  0  0  0  0  0  0  0
   26.6137  -15.8952  -15.3672 C   0  0  0  0  0  0  0  0  0  0  0  0
   26.1961  -16.8862  -16.2293 C   0  0  0  0  0  0  0  0  0  0  0  0
   25.5133  -18.0801  -15.7306 C   0  0  0  0  0  0  0  0  0  0  0  0
   26.3716  -19.0617  -15.0074 C   0  0  2  0  0  0  0  0  0  0  0  0
   27.3261  -19.7236  -15.8616 N   0  0  0  0  0  0  0  0  0  0  0  0
   25.5601  -20.0946  -14.3286 C   0  0  0  0  0  0  0  0  0  0  0  0
   25.3079  -21.1755  -14.9487 O   0  0  0  0  0  0  0  0  0  0  0  0
   26.4115  -16.7750  -17.5827 C   0  0  0  0  0  0  0  0  0  0  0  0
   27.0519  -15.6539  -18.0522 C   0  0  0  0  0  0  0  0  0  0  0  0
   25.8175  -20.9734   -8.9366 C   0  0  0  0  0  0  0  0  0  0  0  0
   25.8231  -21.0526  -10.4721 C   0  0  1  0  0  0  0  0  0  0  0  0
   26.4270  -22.3727  -10.9148 C   0  0  0  0  0  0  0  0  0  0  0  0
   24.3993  -20.9502  -10.8977 C   0  0  0  0  0  0  0  0  0  0  0  0
   24.2604  -20.9315  -12.4119 C   0  0  2  0  0  0  0  0  0  0  0  0
   25.0661  -19.9032  -13.0207 N   0  0  0  0  0  0  0  0  0  0  0  0
   22.8273  -20.6201  -12.6711 C   0  0  0  0  0  0  0  0  0  0  0  0
   22.2897  -19.6863  -12.0518 O   0  0  0  0  0  0  0  0  0  0  0  0
   21.1362  -19.5099  -15.7816 C   0  0  0  0  0  0  0  0  0  0  0  0
   20.5054  -20.8089  -15.3464 C   0  0  1  0  0  0  0  0  0  0  0  0
   20.9976  -21.9042  -16.0451 O   0  0  0  0  0  0  0  0  0  0  0  0
   20.6996  -21.0361  -13.8550 C   0  0  2  0  0  0  0  0  0  0  0  0
   22.0775  -21.3654  -13.6033 N   0  0  0  0  0  0  0  0  0  0  0  0
   19.7883  -22.1226  -13.4114 C   0  0  0  0  0  0  0  0  0  0  0  0
   18.4226  -21.9506  -13.3693 O   0  0  0  0  0  0  0  0  0  0  0  0
   20.2902  -23.2176  -13.0700 O   0  0  0  0  0  0  0  0  0  0  0  0
  2  1  1  0
  3  2  2  0
  4  3  1  0
  5 11  1  0
  5  4  2  0
  6  5  1  0
  7  6  1  0
  7  8  1  6
  9  7  1  0
  9 10  2  0
 11 12  2  0
 12  2  1  0
 14 13  1  1
 14 15  1  0
 16 14  1  0
 17 16  1  1
 17 18  1  0
 18  9  1  0
 19 17  1  0
 20 19  2  0
 22 23  1  0
 22 21  1  6
 24 22  1  0
 24 25  1  6
 25 19  1  0
 26 27  1  0
 26 24  1  0
 28 26  2  0
M  END
$$$$
