YLT.pdb
     RDKit          3D

 28 28  0  0  1  0  0  0  0  0999 V2000
   27.5979  -13.0034  -17.6647 O   0  0  0  0  0  0  0  0  0  0  0  0
   26.9195  -14.1337  -17.1858 C   0  0  0  0  0  0  0  0  0  0  0  0
   26.3417  -15.0092  -18.0810 C   0  0  0  0  0  0  0  0  0  0  0  0
   25.6824  -16.1127  -17.5431 C   0  0  0  0  0  0  0  0  0  0  0  0
   25.6116  -16.3184  -16.1821 C   0  0  0  0  0  0  0  0  0  0  0  0
   24.9167  -17.4819  -15.6311 C   0  0  0  0  0  0  0  0  0  0  0  0
   25.7862  -18.6248  -15.2301 C   0  0  2  0  0  0  0  0  0  0  0  0
   26.4818  -19.2295  -16.3388 N   0  0  0  0  0  0  0  0  0  0  0  0
   25.0129  -19.6770  -14.5365 C   0  0  0  0  0  0  0  0  0  0  0  0
   24.7160  -20.7355  -15.1754 O   0  0  0  0  0  0  0  0  0  0  0  0
   26.1951  -15.4322  -15.3076 C   0  0  0  0  0  0  0  0  0  0  0  0
   26.8486  -14.3396  -15.8238 C   0  0  0  0  0  0  0  0  0  0  0  0
   25.7980  -20.6011   -9.2250 C   0  0  0  0  0  0  0  0  0  0  0  0
   25.6615  -20.7118  -10.7525 C   0  0  1  0  0  0  0  0  0  0  0  0
   26.2536  -22.0265  -11.2258 C   0  0  0  0  0  0  0  0  0  0  0  0
   24.2019  -20.6509  -11.0436 C   0  0  0  0  0  0  0  0  0  0  0  0
   23.9232  -20.6163  -12.5382 C   0  0  2  0  0  0  0  0  0  0  0  0
   24.6030  -19.5281  -13.1945 N   0  0  0  0  0  0  0  0  0  0  0  0
   22.4555  -20.3941  -12.6590 C   0  0  0  0  0  0  0  0  0  0  0  0
   21.9327  -19.4546  -12.0355 O   0  0  0  0  0  0  0  0  0  0  0  0
   20.2867  -19.5007  -15.5509 C   0  0  0  0  0  0  0  0  0  0  0  0
   19.8550  -20.8460  -15.0232 C   0  0  1  0  0  0  0  0  0  0  0  0
   20.3832  -21.9030  -15.7541 O   0  0  0  0  0  0  0  0  0  0  0  0
   20.2385  -21.0060  -13.5601 C   0  0  2  0  0  0  0  0  0  0  0  0
   21.6567  -21.2295  -13.4657 N   0  0  0  0  0  0  0  0  0  0  0  0
   19.4675  -22.1369  -12.9817 C   0  0  0  0  0  0  0  0  0  0  0  0
   18.1133  -22.0461  -12.7483 O   0  0  0  0  0  0  0  0  0  0  0  0
   20.0791  -23.1936  -12.7046 O   0  0  0  0  0  0  0  0  0  0  0  0
  2  1  1  0
  3  2  2  0
  4  3  1  0
  5 11  1  0
  5  4  2  0
  6  5  1  0
  7  6  1  0
  7  8  1  6
  9  7  1  0
  9 10  2  0
 11 12  2  0
 12  2  1  0
 14 13  1  1
 14 15  1  0
 16 14  1  0
 17 16  1  1
 17 18  1  0
 18  9  1  0
 19 17  1  0
 20 19  2  0
 22 23  1  0
 22 21  1  6
 24 22  1  0
 24 25  1  6
 25 19  1  0
 26 27  1  0
 26 24  1  0
 28 26  2  0
M  END
$$$$
