YLT.pdb
     RDKit          3D

 28 28  0  0  1  0  0  0  0  0999 V2000
   25.8265  -33.1516   -5.1964 O   0  0  0  0  0  0  0  0  0  0  0  0
   25.9102  -32.9528   -3.8106 C   0  0  0  0  0  0  0  0  0  0  0  0
   26.5049  -33.9145   -3.0211 C   0  0  0  0  0  0  0  0  0  0  0  0
   26.5572  -33.6584   -1.6523 C   0  0  0  0  0  0  0  0  0  0  0  0
   26.0393  -32.4999   -1.1145 C   0  0  0  0  0  0  0  0  0  0  0  0
   26.1019  -32.2438    0.3246 C   0  0  0  0  0  0  0  0  0  0  0  0
   25.0342  -32.8866    1.1432 C   0  0  2  0  0  0  0  0  0  0  0  0
   23.7177  -32.3616    0.8784 N   0  0  0  0  0  0  0  0  0  0  0  0
   25.3060  -32.7526    2.5904 C   0  0  0  0  0  0  0  0  0  0  0  0
   24.9190  -31.6989    3.1875 O   0  0  0  0  0  0  0  0  0  0  0  0
   25.4505  -31.5544   -1.9207 C   0  0  0  0  0  0  0  0  0  0  0  0
   25.3919  -31.7936   -3.2722 C   0  0  0  0  0  0  0  0  0  0  0  0
   24.8153  -34.0556    7.4570 C   0  0  0  0  0  0  0  0  0  0  0  0
   26.1588  -34.6301    6.9782 C   0  0  1  0  0  0  0  0  0  0  0  0
   26.4456  -35.9332    7.7013 C   0  0  0  0  0  0  0  0  0  0  0  0
   26.0144  -34.8560    5.5129 C   0  0  0  0  0  0  0  0  0  0  0  0
   26.2300  -33.5774    4.7185 C   0  0  2  0  0  0  0  0  0  0  0  0
   25.9801  -33.7613    3.3111 N   0  0  0  0  0  0  0  0  0  0  0  0
   27.6694  -33.2405    4.8996 C   0  0  0  0  0  0  0  0  0  0  0  0
   28.3526  -32.9499    3.9029 O   0  0  0  0  0  0  0  0  0  0  0  0
   29.4787  -31.1860    4.4622 C   0  0  0  0  0  0  0  0  0  0  0  0
   29.7421  -31.3560    5.9374 C   0  0  1  0  0  0  0  0  0  0  0  0
   28.8923  -30.5896    6.7253 O   0  0  0  0  0  0  0  0  0  0  0  0
   29.6257  -32.8162    6.3468 C   0  0  2  0  0  0  0  0  0  0  0  0
   28.2632  -33.2466    6.1779 N   0  0  0  0  0  0  0  0  0  0  0  0
   30.0725  -32.9575    7.7569 C   0  0  0  0  0  0  0  0  0  0  0  0
   31.3934  -32.8080    8.1167 O   0  0  0  0  0  0  0  0  0  0  0  0
   29.2138  -33.2192    8.6295 O   0  0  0  0  0  0  0  0  0  0  0  0
  2  1  1  0
  3  2  2  0
  4  3  1  0
  5 11  1  0
  5  4  2  0
  6  5  1  0
  7  6  1  0
  7  8  1  1
  9  7  1  0
  9 10  2  0
 11 12  2  0
 12  2  1  0
 14 13  1  1
 14 15  1  0
 16 14  1  0
 17 16  1  1
 17 18  1  0
 18  9  1  0
 19 17  1  0
 20 19  2  0
 22 23  1  0
 22 21  1  6
 24 22  1  0
 24 25  1  1
 25 19  1  0
 26 27  1  0
 26 24  1  0
 28 26  2  0
M  END
$$$$
