KIA.pdb
     RDKit          3D

 23 22  0  0  1  0  0  0  0  0999 V2000
    7.6508  -15.2343   20.4481 N   0  0  0  0  0  0  0  0  0  0  0  0
    7.1263  -15.7117   21.7087 C   0  0  1  0  0  0  0  0  0  0  0  0
    7.1652  -17.2276   21.7783 C   0  0  0  0  0  0  0  0  0  0  0  0
    6.4966  -17.8377   20.5749 C   0  0  0  0  0  0  0  0  0  0  0  0
    6.4616  -19.3370   20.6160 C   0  0  0  0  0  0  0  0  0  0  0  0
    5.7528  -19.9269   19.4164 C   0  0  0  0  0  0  0  0  0  0  0  0
    5.7386  -21.3784   19.5880 N   0  0  0  0  0  0  0  0  0  0  0  0
    7.9606  -15.1617   22.8027 C   0  0  0  0  0  0  0  0  0  0  0  0
    9.2032  -15.0802   22.6373 O   0  0  0  0  0  0  0  0  0  0  0  0
    5.9407  -12.0810   27.2638 C   0  0  0  0  0  0  0  0  0  0  0  0
    6.4529  -13.2225   26.4435 C   0  0  0  0  0  0  0  0  0  0  0  0
    7.6307  -12.9308   25.5926 C   0  0  2  0  0  0  0  0  0  0  0  0
    7.4539  -11.7474   24.6664 C   0  0  0  0  0  0  0  0  0  0  0  0
    8.3278  -14.1026   25.0176 C   0  0  2  0  0  0  0  0  0  0  0  0
    7.4304  -14.7232   24.0244 N   0  0  0  0  0  0  0  0  0  0  0  0
    8.8265  -15.1250   25.9436 C   0  0  0  0  0  0  0  0  0  0  0  0
    8.1105  -15.9749   26.5134 O   0  0  0  0  0  0  0  0  0  0  0  0
   12.2117  -16.4541   26.8751 C   0  0  0  0  0  0  0  0  0  0  0  0
   10.7243  -16.1951   27.1103 C   0  0  2  0  0  0  0  0  0  0  0  0
   10.2385  -15.1780   26.2366 N   0  0  0  0  0  0  0  0  0  0  0  0
   10.4861  -15.8689   28.5313 C   0  0  0  0  0  0  0  0  0  0  0  0
   10.0651  -14.6117   28.8997 O   0  0  0  0  0  0  0  0  0  0  0  0
   10.6670  -16.7379   29.4088 O   0  0  0  0  0  0  0  0  0  0  0  0
  2  1  1  6
  3  2  1  0
  4  3  1  0
  5  4  1  0
  6  5  1  0
  7  6  1  0
  8  2  1  0
  8  9  2  0
 11 10  1  0
 12 11  1  0
 12 13  1  6
 14 15  1  6
 14 12  1  0
 15  8  1  0
 16 14  1  0
 17 16  2  0
 19 18  1  1
 19 20  1  0
 20 16  1  0
 21 19  1  0
 21 22  1  0
 23 21  2  0
M  END
$$$$
