KIA.pdb
     RDKit          3D

 23 22  0  0  1  0  0  0  0  0999 V2000
    7.6248  -14.7873   20.3590 N   0  0  0  0  0  0  0  0  0  0  0  0
    6.9275  -15.3011   21.5174 C   0  0  1  0  0  0  0  0  0  0  0  0
    6.6587  -16.7887   21.3788 C   0  0  0  0  0  0  0  0  0  0  0  0
    5.8001  -17.0692   20.1740 C   0  0  0  0  0  0  0  0  0  0  0  0
    6.3983  -18.0857   19.2468 C   0  0  0  0  0  0  0  0  0  0  0  0
    5.4788  -18.4200   18.0926 C   0  0  0  0  0  0  0  0  0  0  0  0
    6.1866  -19.3642   17.2299 N   0  0  0  0  0  0  0  0  0  0  0  0
    7.7746  -15.0780   22.7124 C   0  0  0  0  0  0  0  0  0  0  0  0
    9.0241  -15.0964   22.5837 O   0  0  0  0  0  0  0  0  0  0  0  0
    6.2217  -11.4778   26.1973 C   0  0  0  0  0  0  0  0  0  0  0  0
    7.0907  -12.3623   25.3601 C   0  0  0  0  0  0  0  0  0  0  0  0
    7.5655  -13.6063   26.0107 C   0  0  2  0  0  0  0  0  0  0  0  0
    8.2617  -13.3906   27.3367 C   0  0  0  0  0  0  0  0  0  0  0  0
    8.1733  -14.6189   25.1192 C   0  0  2  0  0  0  0  0  0  0  0  0
    7.2493  -14.8452   23.9914 N   0  0  0  0  0  0  0  0  0  0  0  0
    8.5622  -15.9048   25.7083 C   0  0  0  0  0  0  0  0  0  0  0  0
    7.8042  -16.6337   26.3820 O   0  0  0  0  0  0  0  0  0  0  0  0
   11.4860  -18.2390   25.3993 C   0  0  0  0  0  0  0  0  0  0  0  0
   10.2959  -17.6153   26.1271 C   0  0  2  0  0  0  0  0  0  0  0  0
    9.9078  -16.3881   25.5131 N   0  0  0  0  0  0  0  0  0  0  0  0
   10.6120  -17.4454   27.5602 C   0  0  0  0  0  0  0  0  0  0  0  0
   10.7444  -18.5409   28.3823 O   0  0  0  0  0  0  0  0  0  0  0  0
   10.7611  -16.3003   28.0338 O   0  0  0  0  0  0  0  0  0  0  0  0
  2  1  1  6
  3  2  1  0
  4  3  1  0
  5  4  1  0
  6  5  1  0
  7  6  1  0
  8  2  1  0
  8  9  2  0
 11 10  1  0
 12 11  1  0
 12 13  1  1
 14 15  1  6
 14 12  1  0
 15  8  1  0
 16 14  1  0
 17 16  2  0
 19 18  1  6
 19 20  1  0
 20 16  1  0
 21 19  1  0
 21 22  1  0
 23 21  2  0
M  END
$$$$
