KIA.pdb
     RDKit          3D

 23 22  0  0  1  0  0  0  0  0999 V2000
    6.8581  -14.9892   20.8367 N   0  0  0  0  0  0  0  0  0  0  0  0
    6.6096  -15.6658   22.0907 C   0  0  1  0  0  0  0  0  0  0  0  0
    6.8973  -17.1520   21.9767 C   0  0  0  0  0  0  0  0  0  0  0  0
    6.0517  -17.7816   20.9016 C   0  0  0  0  0  0  0  0  0  0  0  0
    5.4994  -19.1203   21.2935 C   0  0  0  0  0  0  0  0  0  0  0  0
    4.6522  -19.7333   20.1998 C   0  0  0  0  0  0  0  0  0  0  0  0
    4.1692  -21.0220   20.6924 N   0  0  0  0  0  0  0  0  0  0  0  0
    7.5004  -15.0845   23.1222 C   0  0  0  0  0  0  0  0  0  0  0  0
    8.7156  -14.9168   22.8514 O   0  0  0  0  0  0  0  0  0  0  0  0
    5.7783  -11.1272   26.3193 C   0  0  0  0  0  0  0  0  0  0  0  0
    6.6027  -12.0468   25.4748 C   0  0  0  0  0  0  0  0  0  0  0  0
    7.2840  -13.1492   26.1936 C   0  0  2  0  0  0  0  0  0  0  0  0
    7.9789  -12.7268   27.4696 C   0  0  0  0  0  0  0  0  0  0  0  0
    8.0134  -14.1247   25.3533 C   0  0  2  0  0  0  0  0  0  0  0  0
    7.0535  -14.7084   24.3969 N   0  0  0  0  0  0  0  0  0  0  0  0
    8.7520  -15.1953   26.0315 C   0  0  0  0  0  0  0  0  0  0  0  0
    9.7249  -15.0126   26.7929 O   0  0  0  0  0  0  0  0  0  0  0  0
    8.3244  -18.9212   26.4408 C   0  0  0  0  0  0  0  0  0  0  0  0
    9.1033  -17.6067   26.4429 C   0  0  2  0  0  0  0  0  0  0  0  0
    8.3501  -16.5656   25.8243 N   0  0  0  0  0  0  0  0  0  0  0  0
   10.4201  -17.7980   25.8012 C   0  0  0  0  0  0  0  0  0  0  0  0
   11.3014  -18.7404   26.2794 O   0  0  0  0  0  0  0  0  0  0  0  0
   10.7405  -17.1011   24.8165 O   0  0  0  0  0  0  0  0  0  0  0  0
  2  1  1  6
  3  2  1  0
  4  3  1  0
  5  4  1  0
  6  5  1  0
  7  6  1  0
  8  2  1  0
  8  9  2  0
 11 10  1  0
 12 11  1  0
 12 13  1  1
 14 15  1  6
 14 12  1  0
 15  8  1  0
 16 14  1  0
 17 16  2  0
 19 18  1  6
 19 20  1  0
 20 16  1  0
 21 19  1  0
 21 22  1  0
 23 21  2  0
M  END
$$$$
