KIA.pdb
     RDKit          3D

 23 22  0  0  1  0  0  0  0  0999 V2000
    8.7060  -15.2709   20.2021 N   0  0  0  0  0  0  0  0  0  0  0  0
    7.7521  -15.5685   21.2479 C   0  0  1  0  0  0  0  0  0  0  0  0
    7.4389  -17.0530   21.2963 C   0  0  0  0  0  0  0  0  0  0  0  0
    7.8999  -17.7403   20.0383 C   0  0  0  0  0  0  0  0  0  0  0  0
    7.5583  -19.2008   20.0046 C   0  0  0  0  0  0  0  0  0  0  0  0
    6.0851  -19.4504   20.2437 C   0  0  0  0  0  0  0  0  0  0  0  0
    5.8567  -20.8869   20.0990 N   0  0  0  0  0  0  0  0  0  0  0  0
    8.3374  -15.1611   22.5467 C   0  0  0  0  0  0  0  0  0  0  0  0
    9.5850  -15.1965   22.6890 O   0  0  0  0  0  0  0  0  0  0  0  0
    7.0944  -11.6803   27.4508 C   0  0  0  0  0  0  0  0  0  0  0  0
    7.9570  -12.7001   26.7769 C   0  0  0  0  0  0  0  0  0  0  0  0
    7.3961  -13.3131   25.5498 C   0  0  2  0  0  0  0  0  0  0  0  0
    5.9182  -13.6276   25.6287 C   0  0  0  0  0  0  0  0  0  0  0  0
    8.2386  -14.3315   24.8843 C   0  0  2  0  0  0  0  0  0  0  0  0
    7.5639  -14.7342   23.6355 N   0  0  0  0  0  0  0  0  0  0  0  0
    8.6097  -15.5231   25.6549 C   0  0  0  0  0  0  0  0  0  0  0  0
    7.8005  -16.3796   26.0688 O   0  0  0  0  0  0  0  0  0  0  0  0
   11.7403  -17.4455   26.1142 C   0  0  0  0  0  0  0  0  0  0  0  0
   10.3724  -16.9721   26.6039 C   0  0  2  0  0  0  0  0  0  0  0  0
    9.9990  -15.7491   25.9726 N   0  0  0  0  0  0  0  0  0  0  0  0
   10.3733  -16.8608   28.0770 C   0  0  0  0  0  0  0  0  0  0  0  0
   10.1007  -15.6584   28.6881 O   0  0  0  0  0  0  0  0  0  0  0  0
   10.6228  -17.8633   28.7774 O   0  0  0  0  0  0  0  0  0  0  0  0
  2  1  1  6
  3  2  1  0
  4  3  1  0
  5  4  1  0
  6  5  1  0
  7  6  1  0
  8  2  1  0
  8  9  2  0
 11 10  1  0
 12 11  1  0
 12 13  1  1
 14 15  1  6
 14 12  1  0
 15  8  1  0
 16 14  1  0
 17 16  2  0
 19 18  1  6
 19 20  1  0
 20 16  1  0
 21 19  1  0
 21 22  1  0
 23 21  2  0
M  END
$$$$
