KIA.pdb
     RDKit          3D

 23 22  0  0  1  0  0  0  0  0999 V2000
    7.6323  -15.0362   20.1849 N   0  0  0  0  0  0  0  0  0  0  0  0
    7.0348  -15.5816   21.3840 C   0  0  1  0  0  0  0  0  0  0  0  0
    7.0541  -17.0994   21.3630 C   0  0  0  0  0  0  0  0  0  0  0  0
    5.8869  -17.6404   20.5805 C   0  0  0  0  0  0  0  0  0  0  0  0
    5.4238  -18.9830   21.0641 C   0  0  0  0  0  0  0  0  0  0  0  0
    4.1606  -19.4388   20.3668 C   0  0  0  0  0  0  0  0  0  0  0  0
    3.7469  -20.6946   20.9901 N   0  0  0  0  0  0  0  0  0  0  0  0
    7.8138  -15.1100   22.5528 C   0  0  0  0  0  0  0  0  0  0  0  0
    9.0670  -15.0750   22.4740 O   0  0  0  0  0  0  0  0  0  0  0  0
    7.3228  -11.6549   27.6067 C   0  0  0  0  0  0  0  0  0  0  0  0
    8.0738  -12.6775   26.8139 C   0  0  0  0  0  0  0  0  0  0  0  0
    7.3663  -13.2297   25.6346 C   0  0  2  0  0  0  0  0  0  0  0  0
    5.8852  -13.4571   25.8453 C   0  0  0  0  0  0  0  0  0  0  0  0
    8.0801  -14.2821   24.8779 C   0  0  2  0  0  0  0  0  0  0  0  0
    7.2193  -14.6970   23.7537 N   0  0  0  0  0  0  0  0  0  0  0  0
    8.5381  -15.4645   25.6153 C   0  0  0  0  0  0  0  0  0  0  0  0
    7.7849  -16.3461   26.0791 O   0  0  0  0  0  0  0  0  0  0  0  0
   11.7734  -17.2567   26.0100 C   0  0  0  0  0  0  0  0  0  0  0  0
   10.3966  -16.8242   26.5123 C   0  0  2  0  0  0  0  0  0  0  0  0
    9.9521  -15.6499   25.8363 N   0  0  0  0  0  0  0  0  0  0  0  0
   10.4264  -16.6451   27.9784 C   0  0  0  0  0  0  0  0  0  0  0  0
   10.7474  -17.6969   28.8056 O   0  0  0  0  0  0  0  0  0  0  0  0
   10.1589  -15.5320   28.4756 O   0  0  0  0  0  0  0  0  0  0  0  0
  2  1  1  6
  3  2  1  0
  4  3  1  0
  5  4  1  0
  6  5  1  0
  7  6  1  0
  8  2  1  0
  8  9  2  0
 11 10  1  0
 12 11  1  0
 12 13  1  1
 14 15  1  6
 14 12  1  0
 15  8  1  0
 16 14  1  0
 17 16  2  0
 19 18  1  6
 19 20  1  0
 20 16  1  0
 21 19  1  0
 21 22  1  0
 23 21  2  0
M  END
$$$$
