KIA.pdb
     RDKit          3D

 23 22  0  0  1  0  0  0  0  0999 V2000
    9.1719  -15.9005   20.4933 N   0  0  0  0  0  0  0  0  0  0  0  0
    8.2867  -16.2853   21.5705 C   0  0  1  0  0  0  0  0  0  0  0  0
    8.2846  -17.7907   21.7654 C   0  0  0  0  0  0  0  0  0  0  0  0
    7.5278  -18.4745   20.6576 C   0  0  0  0  0  0  0  0  0  0  0  0
    7.5077  -19.9686   20.7914 C   0  0  0  0  0  0  0  0  0  0  0  0
    6.7699  -20.6362   19.6515 C   0  0  0  0  0  0  0  0  0  0  0  0
    7.7566  -20.9585   18.6223 N   0  0  0  0  0  0  0  0  0  0  0  0
    8.7597  -15.6426   22.8190 C   0  0  0  0  0  0  0  0  0  0  0  0
    9.9956  -15.5457   23.0222 O   0  0  0  0  0  0  0  0  0  0  0  0
    7.0561  -11.5127   27.0055 C   0  0  0  0  0  0  0  0  0  0  0  0
    7.9963  -12.5913   26.5684 C   0  0  0  0  0  0  0  0  0  0  0  0
    7.5467  -13.4167   25.4227 C   0  0  2  0  0  0  0  0  0  0  0  0
    6.0726  -13.7577   25.4395 C   0  0  0  0  0  0  0  0  0  0  0  0
    8.4570  -14.5061   25.0051 C   0  0  2  0  0  0  0  0  0  0  0  0
    7.8916  -15.1322   23.7946 N   0  0  0  0  0  0  0  0  0  0  0  0
    8.7852  -15.5404   25.9921 C   0  0  0  0  0  0  0  0  0  0  0  0
    7.9830  -16.4020   26.4089 O   0  0  0  0  0  0  0  0  0  0  0  0
   11.8306  -17.2267   27.1124 C   0  0  0  0  0  0  0  0  0  0  0  0
   10.4567  -16.6435   27.4400 C   0  0  2  0  0  0  0  0  0  0  0  0
   10.1200  -15.5916   26.5379 N   0  0  0  0  0  0  0  0  0  0  0  0
   10.4174  -16.2024   28.8493 C   0  0  0  0  0  0  0  0  0  0  0  0
   10.6184  -17.1028   29.8703 O   0  0  0  0  0  0  0  0  0  0  0  0
   10.2004  -15.0037   29.1211 O   0  0  0  0  0  0  0  0  0  0  0  0
  2  1  1  6
  3  2  1  0
  4  3  1  0
  5  4  1  0
  6  5  1  0
  7  6  1  0
  8  2  1  0
  8  9  2  0
 11 10  1  0
 12 11  1  0
 12 13  1  1
 14 15  1  6
 14 12  1  0
 15  8  1  0
 16 14  1  0
 17 16  2  0
 19 18  1  6
 19 20  1  0
 20 16  1  0
 21 19  1  0
 21 22  1  0
 23 21  2  0
M  END
$$$$
