KIA.pdb
     RDKit          3D

 23 22  0  0  1  0  0  0  0  0999 V2000
    5.9602  -17.5648   21.8572 N   0  0  0  0  0  0  0  0  0  0  0  0
    5.8806  -17.5639   23.3015 C   0  0  1  0  0  0  0  0  0  0  0  0
    6.0393  -18.9669   23.8589 C   0  0  0  0  0  0  0  0  0  0  0  0
    4.9631  -19.8788   23.3320 C   0  0  0  0  0  0  0  0  0  0  0  0
    5.0685  -21.2806   23.8562 C   0  0  0  0  0  0  0  0  0  0  0  0
    3.9999  -22.1875   23.2862 C   0  0  0  0  0  0  0  0  0  0  0  0
    4.1943  -23.5128   23.8716 N   0  0  0  0  0  0  0  0  0  0  0  0
    6.9721  -16.7132   23.8311 C   0  0  0  0  0  0  0  0  0  0  0  0
    8.0597  -16.6599   23.2046 O   0  0  0  0  0  0  0  0  0  0  0  0
    5.9631  -12.0440   26.2598 C   0  0  0  0  0  0  0  0  0  0  0  0
    6.6130  -13.1365   25.4708 C   0  0  0  0  0  0  0  0  0  0  0  0
    7.5361  -14.0177   26.2241 C   0  0  2  0  0  0  0  0  0  0  0  0
    8.5620  -13.2807   27.0570 C   0  0  0  0  0  0  0  0  0  0  0  0
    8.0262  -15.2159   25.5072 C   0  0  2  0  0  0  0  0  0  0  0  0
    6.8532  -15.9575   25.0061 N   0  0  0  0  0  0  0  0  0  0  0  0
    8.9191  -16.1284   26.2294 C   0  0  0  0  0  0  0  0  0  0  0  0
    8.6106  -16.7456   27.2704 O   0  0  0  0  0  0  0  0  0  0  0  0
   12.2516  -17.7106   25.4377 C   0  0  0  0  0  0  0  0  0  0  0  0
   11.0582  -17.3623   26.3262 C   0  0  2  0  0  0  0  0  0  0  0  0
   10.2536  -16.3490   25.7265 N   0  0  0  0  0  0  0  0  0  0  0  0
   11.5260  -16.9772   27.6735 C   0  0  0  0  0  0  0  0  0  0  0  0
   12.1714  -17.8887   28.4773 O   0  0  0  0  0  0  0  0  0  0  0  0
   11.3366  -15.8162   28.0905 O   0  0  0  0  0  0  0  0  0  0  0  0
  2  1  1  6
  3  2  1  0
  4  3  1  0
  5  4  1  0
  6  5  1  0
  7  6  1  0
  8  2  1  0
  8  9  2  0
 11 10  1  0
 12 11  1  0
 12 13  1  6
 14 15  1  1
 14 12  1  0
 15  8  1  0
 16 14  1  0
 17 16  2  0
 19 18  1  6
 19 20  1  0
 20 16  1  0
 21 19  1  0
 21 22  1  0
 23 21  2  0
M  END
$$$$
