KIA.pdb
     RDKit          3D

 23 22  0  0  1  0  0  0  0  0999 V2000
    8.1204  -14.6770   19.8477 N   0  0  0  0  0  0  0  0  0  0  0  0
    7.2746  -15.0472   20.9612 C   0  0  1  0  0  0  0  0  0  0  0  0
    6.8806  -16.5112   20.8857 C   0  0  0  0  0  0  0  0  0  0  0  0
    7.9590  -17.3238   20.2192 C   0  0  0  0  0  0  0  0  0  0  0  0
    7.5428  -18.7371   19.9356 C   0  0  0  0  0  0  0  0  0  0  0  0
    8.6447  -19.5378   19.2767 C   0  0  0  0  0  0  0  0  0  0  0  0
    8.1200  -20.8790   19.0269 N   0  0  0  0  0  0  0  0  0  0  0  0
    8.0262  -14.8190   22.2176 C   0  0  0  0  0  0  0  0  0  0  0  0
    9.2806  -14.8827   22.1956 O   0  0  0  0  0  0  0  0  0  0  0  0
    7.5732  -11.8738   27.5654 C   0  0  0  0  0  0  0  0  0  0  0  0
    8.2984  -12.8343   26.6767 C   0  0  0  0  0  0  0  0  0  0  0  0
    7.5509  -13.3062   25.4872 C   0  0  2  0  0  0  0  0  0  0  0  0
    6.0779  -13.5506   25.7322 C   0  0  0  0  0  0  0  0  0  0  0  0
    8.2384  -14.3028   24.6365 C   0  0  2  0  0  0  0  0  0  0  0  0
    7.4044  -14.5330   23.4413 N   0  0  0  0  0  0  0  0  0  0  0  0
    8.6012  -15.5877   25.2438 C   0  0  0  0  0  0  0  0  0  0  0  0
    7.7805  -16.4515   25.6180 O   0  0  0  0  0  0  0  0  0  0  0  0
   11.6231  -17.7113   25.3014 C   0  0  0  0  0  0  0  0  0  0  0  0
   10.3472  -17.1847   25.9570 C   0  0  2  0  0  0  0  0  0  0  0  0
    9.9959  -15.9047   25.4355 N   0  0  0  0  0  0  0  0  0  0  0  0
   10.5048  -17.1635   27.4257 C   0  0  0  0  0  0  0  0  0  0  0  0
   10.3820  -15.9853   28.1258 O   0  0  0  0  0  0  0  0  0  0  0  0
   10.7516  -18.2209   28.0411 O   0  0  0  0  0  0  0  0  0  0  0  0
  2  1  1  6
  3  2  1  0
  4  3  1  0
  5  4  1  0
  6  5  1  0
  7  6  1  0
  8  2  1  0
  8  9  2  0
 11 10  1  0
 12 11  1  0
 12 13  1  1
 14 15  1  6
 14 12  1  0
 15  8  1  0
 16 14  1  0
 17 16  2  0
 19 18  1  6
 19 20  1  0
 20 16  1  0
 21 19  1  0
 21 22  1  0
 23 21  2  0
M  END
$$$$
