HFS.pdb
     RDKit          3D

 28 29  0  0  1  0  0  0  0  0999 V2000
   28.2388  -21.1295  -14.2673 N   0  0  0  0  0  0  0  0  0  0  0  0
   27.5614  -20.0701  -13.5479 C   0  0  1  0  0  0  0  0  0  0  0  0
   26.8791  -19.0976  -14.4687 C   0  0  0  0  0  0  0  0  0  0  0  0
   27.8524  -18.3115  -15.2721 C   0  0  0  0  0  0  0  0  0  0  0  0
   28.7784  -18.7105  -16.1851 C   0  0  0  0  0  0  0  0  0  0  0  0
   29.4443  -17.6533  -16.6671 N   0  0  0  0  0  0  0  0  0  0  0  0
   28.9187  -16.5766  -16.0385 C   0  0  0  0  0  0  0  0  0  0  0  0
   27.9489  -16.9726  -15.1879 N   0  0  0  0  0  0  0  0  0  0  0  0
   26.5188  -20.6971  -12.7037 C   0  0  0  0  0  0  0  0  0  0  0  0
   26.0461  -21.8242  -12.9983 O   0  0  0  0  0  0  0  0  0  0  0  0
   25.9849  -20.0984  -11.5320 N   0  0  0  0  0  0  0  0  0  0  0  0
   24.9279  -20.6179  -10.7268 C   0  0  1  0  0  0  0  0  0  0  0  0
   24.8480  -20.0907   -9.3385 C   0  0  0  0  0  0  0  0  0  0  0  0
   26.1265  -20.2073   -8.5924 C   0  0  0  0  0  0  0  0  0  0  0  0
   26.5021  -19.2296   -7.6980 C   0  0  0  0  0  0  0  0  0  0  0  0
   27.7047  -19.3231   -6.9854 C   0  0  0  0  0  0  0  0  0  0  0  0
   28.5201  -20.4121   -7.1865 C   0  0  0  0  0  0  0  0  0  0  0  0
   28.1686  -21.4043   -8.0750 C   0  0  0  0  0  0  0  0  0  0  0  0
   26.9779  -21.2776   -8.7578 C   0  0  0  0  0  0  0  0  0  0  0  0
   23.6468  -20.3172  -11.4256 C   0  0  0  0  0  0  0  0  0  0  0  0
   23.5765  -19.4568  -12.3453 O   0  0  0  0  0  0  0  0  0  0  0  0
   21.5990  -22.6156  -13.2275 O   0  0  0  0  0  0  0  0  0  0  0  0
   21.3705  -21.2415  -13.1627 C   0  0  0  0  0  0  0  0  0  0  0  0
   21.2096  -20.8294  -11.7206 C   0  0  2  0  0  0  0  0  0  0  0  0
   22.4677  -21.0181  -11.0483 N   0  0  0  0  0  0  0  0  0  0  0  0
   20.1165  -21.5774  -11.0362 C   0  0  0  0  0  0  0  0  0  0  0  0
   18.9506  -21.4837  -11.4408 O   0  0  0  0  0  0  0  0  0  0  0  0
   20.3847  -22.3849   -9.9430 O   0  0  0  0  0  0  0  0  0  0  0  0
  2  1  1  6
  2  9  1  0
  3  2  1  0
  4  8  1  0
  4  3  1  0
  5  4  2  0
  6  5  1  0
  6  7  1  0
  7  8  2  0
  9 10  2  0
  9 11  1  0
 11 12  1  0
 12 13  1  1
 14 13  1  0
 14 19  1  0
 15 14  2  0
 16 15  1  0
 16 17  2  0
 17 18  1  0
 18 19  2  0
 20 12  1  0
 20 21  2  0
 22 23  1  0
 24 23  1  6
 24 25  1  0
 25 20  1  0
 26 24  1  0
 27 26  2  0
 28 26  1  0
M  END
$$$$
