HFS.pdb
     RDKit          3D

 28 29  0  0  1  0  0  0  0  0999 V2000
   22.6264  -11.1077  -17.7024 N   0  0  0  0  0  0  0  0  0  0  0  0
   23.7917  -10.6253  -18.4152 C   0  0  1  0  0  0  0  0  0  0  0  0
   23.8919  -11.1958  -19.8022 C   0  0  0  0  0  0  0  0  0  0  0  0
   24.0035  -12.6785  -19.7899 C   0  0  0  0  0  0  0  0  0  0  0  0
   24.0439  -13.5579  -18.7531 C   0  0  0  0  0  0  0  0  0  0  0  0
   24.1501  -14.8125  -19.2091 N   0  0  0  0  0  0  0  0  0  0  0  0
   24.1760  -14.7069  -20.5577 C   0  0  0  0  0  0  0  0  0  0  0  0
   24.0870  -13.4091  -20.9161 N   0  0  0  0  0  0  0  0  0  0  0  0
   23.6630   -9.1555  -18.5418 C   0  0  0  0  0  0  0  0  0  0  0  0
   24.5279   -8.4862  -19.1620 O   0  0  0  0  0  0  0  0  0  0  0  0
   22.5892   -8.4059  -17.9925 N   0  0  0  0  0  0  0  0  0  0  0  0
   22.4161   -6.9925  -18.0811 C   0  0  1  0  0  0  0  0  0  0  0  0
   21.2640   -6.5281  -18.8988 C   0  0  0  0  0  0  0  0  0  0  0  0
   21.4742   -6.6989  -20.3587 C   0  0  0  0  0  0  0  0  0  0  0  0
   22.3215   -5.8561  -21.0433 C   0  0  0  0  0  0  0  0  0  0  0  0
   22.5318   -6.0025  -22.4206 C   0  0  0  0  0  0  0  0  0  0  0  0
   21.8782   -7.0069  -23.0954 C   0  0  0  0  0  0  0  0  0  0  0  0
   21.0254   -7.8637  -22.4353 C   0  0  0  0  0  0  0  0  0  0  0  0
   20.8436   -7.6887  -21.0802 C   0  0  0  0  0  0  0  0  0  0  0  0
   22.2548   -6.4759  -16.6929 C   0  0  0  0  0  0  0  0  0  0  0  0
   21.7987   -7.1964  -15.7635 O   0  0  0  0  0  0  0  0  0  0  0  0
   24.5539   -3.3823  -15.2109 O   0  0  0  0  0  0  0  0  0  0  0  0
   23.1754   -3.2154  -15.0828 C   0  0  0  0  0  0  0  0  0  0  0  0
   22.5061   -4.5672  -15.0857 C   0  0  2  0  0  0  0  0  0  0  0  0
   22.6247   -5.1331  -16.4033 N   0  0  0  0  0  0  0  0  0  0  0  0
   21.0797   -4.4941  -14.6582 C   0  0  0  0  0  0  0  0  0  0  0  0
   20.7597   -4.8042  -13.5035 O   0  0  0  0  0  0  0  0  0  0  0  0
   20.0942   -4.0806  -15.5395 O   0  0  0  0  0  0  0  0  0  0  0  0
  2  1  1  6
  2  9  1  0
  3  2  1  0
  4  8  1  0
  4  3  1  0
  5  4  2  0
  6  5  1  0
  6  7  1  0
  7  8  2  0
  9 10  2  0
  9 11  1  0
 11 12  1  0
 12 13  1  6
 14 13  1  0
 14 19  1  0
 15 14  2  0
 16 15  1  0
 16 17  2  0
 17 18  1  0
 18 19  2  0
 20 12  1  0
 20 21  2  0
 22 23  1  0
 24 23  1  6
 24 25  1  0
 25 20  1  0
 26 24  1  0
 27 26  2  0
 28 26  1  0
M  END
$$$$
