HFS.pdb
     RDKit          3D

 28 29  0  0  1  0  0  0  0  0999 V2000
   17.8721   -5.7342  -19.5902 N   0  0  0  0  0  0  0  0  0  0  0  0
   18.0328   -4.9809  -18.3632 C   0  0  1  0  0  0  0  0  0  0  0  0
   18.9477   -5.6651  -17.3864 C   0  0  0  0  0  0  0  0  0  0  0  0
   18.3625   -6.9275  -16.8624 C   0  0  0  0  0  0  0  0  0  0  0  0
   18.7493   -8.2213  -17.0261 C   0  0  0  0  0  0  0  0  0  0  0  0
   17.9214   -9.0427  -16.3679 N   0  0  0  0  0  0  0  0  0  0  0  0
   17.0023   -8.2395  -15.7843 C   0  0  0  0  0  0  0  0  0  0  0  0
   17.2668   -6.9504  -16.0827 N   0  0  0  0  0  0  0  0  0  0  0  0
   18.6430   -3.6780  -18.7139 C   0  0  0  0  0  0  0  0  0  0  0  0
   19.5808   -3.6121  -19.5486 O   0  0  0  0  0  0  0  0  0  0  0  0
   18.2337   -2.4379  -18.1562 N   0  0  0  0  0  0  0  0  0  0  0  0
   18.6748   -1.1438  -18.5641 C   0  0  1  0  0  0  0  0  0  0  0  0
   17.6691   -0.3064  -19.2704 C   0  0  0  0  0  0  0  0  0  0  0  0
   17.4276   -0.7361  -20.6710 C   0  0  0  0  0  0  0  0  0  0  0  0
   16.3001   -1.4587  -20.9928 C   0  0  0  0  0  0  0  0  0  0  0  0
   16.0559   -1.8725  -22.3088 C   0  0  0  0  0  0  0  0  0  0  0  0
   16.9612   -1.5486  -23.2921 C   0  0  0  0  0  0  0  0  0  0  0  0
   18.0969   -0.8269  -22.9978 C   0  0  0  0  0  0  0  0  0  0  0  0
   18.3031   -0.4373  -21.6918 C   0  0  0  0  0  0  0  0  0  0  0  0
   19.1237   -0.4204  -17.3413 C   0  0  0  0  0  0  0  0  0  0  0  0
   18.3570   -0.2388  -16.3564 O   0  0  0  0  0  0  0  0  0  0  0  0
   23.1849    0.2108  -16.7207 O   0  0  0  0  0  0  0  0  0  0  0  0
   22.2462    0.1136  -15.6942 C   0  0  0  0  0  0  0  0  0  0  0  0
   20.9623    0.7770  -16.1268 C   0  0  2  0  0  0  0  0  0  0  0  0
   20.4538    0.0805  -17.2786 N   0  0  0  0  0  0  0  0  0  0  0  0
   21.1434    2.2290  -16.4128 C   0  0  0  0  0  0  0  0  0  0  0  0
   21.5380    2.9936  -15.5232 O   0  0  0  0  0  0  0  0  0  0  0  0
   20.8750    2.7442  -17.6704 O   0  0  0  0  0  0  0  0  0  0  0  0
  2  1  1  6
  2  9  1  0
  3  2  1  0
  4  8  1  0
  4  3  1  0
  5  4  2  0
  6  5  1  0
  6  7  1  0
  7  8  2  0
  9 10  2  0
  9 11  1  0
 11 12  1  0
 12 13  1  1
 14 13  1  0
 14 19  1  0
 15 14  2  0
 16 15  1  0
 16 17  2  0
 17 18  1  0
 18 19  2  0
 20 12  1  0
 20 21  2  0
 22 23  1  0
 24 23  1  6
 24 25  1  0
 25 20  1  0
 26 24  1  0
 27 26  2  0
 28 26  1  0
M  END
$$$$
