HFS.pdb
     RDKit          3D

 28 29  0  0  1  0  0  0  0  0999 V2000
   28.5970  -21.1770  -14.9991 N   0  0  0  0  0  0  0  0  0  0  0  0
   27.7931  -20.1381  -14.3880 C   0  0  1  0  0  0  0  0  0  0  0  0
   27.1515  -19.2369  -15.4055 C   0  0  0  0  0  0  0  0  0  0  0  0
   28.1538  -18.4192  -16.1388 C   0  0  0  0  0  0  0  0  0  0  0  0
   28.9510  -18.7290  -17.1964 C   0  0  0  0  0  0  0  0  0  0  0  0
   29.7073  -17.6770  -17.5347 N   0  0  0  0  0  0  0  0  0  0  0  0
   29.3707  -16.6947  -16.6673 C   0  0  0  0  0  0  0  0  0  0  0  0
   28.4248  -17.1422  -15.8152 N   0  0  0  0  0  0  0  0  0  0  0  0
   26.7092  -20.7999  -13.6265 C   0  0  0  0  0  0  0  0  0  0  0  0
   26.1824  -21.8603  -14.0491 O   0  0  0  0  0  0  0  0  0  0  0  0
   26.1925  -20.3089  -12.3982 N   0  0  0  0  0  0  0  0  0  0  0  0
   25.1397  -20.8934  -11.6331 C   0  0  1  0  0  0  0  0  0  0  0  0
   25.0741  -20.4912  -10.2029 C   0  0  0  0  0  0  0  0  0  0  0  0
   26.3687  -20.6411   -9.4914 C   0  0  0  0  0  0  0  0  0  0  0  0
   27.3115  -21.5377   -9.9431 C   0  0  0  0  0  0  0  0  0  0  0  0
   28.5383  -21.6923   -9.2844 C   0  0  0  0  0  0  0  0  0  0  0  0
   28.8000  -20.9330   -8.1680 C   0  0  0  0  0  0  0  0  0  0  0  0
   27.8748  -20.0288   -7.6949 C   0  0  0  0  0  0  0  0  0  0  0  0
   26.6791  -19.9045   -8.3693 C   0  0  0  0  0  0  0  0  0  0  0  0
   23.8543  -20.5266  -12.2912 C   0  0  0  0  0  0  0  0  0  0  0  0
   23.6421  -19.3656  -12.7361 O   0  0  0  0  0  0  0  0  0  0  0  0
   21.9798  -22.9359  -14.6755 O   0  0  0  0  0  0  0  0  0  0  0  0
   21.0777  -22.5152  -13.6989 C   0  0  0  0  0  0  0  0  0  0  0  0
   21.5798  -21.2384  -13.0717 C   0  0  2  0  0  0  0  0  0  0  0  0
   22.8354  -21.5106  -12.4240 N   0  0  0  0  0  0  0  0  0  0  0  0
   20.5973  -20.6523  -12.1157 C   0  0  0  0  0  0  0  0  0  0  0  0
   19.5419  -20.1586  -12.5331 O   0  0  0  0  0  0  0  0  0  0  0  0
   20.8466  -20.6499  -10.7531 O   0  0  0  0  0  0  0  0  0  0  0  0
  2  1  1  6
  2  9  1  0
  3  2  1  0
  4  8  1  0
  4  3  1  0
  5  4  2  0
  6  5  1  0
  6  7  1  0
  7  8  2  0
  9 10  2  0
  9 11  1  0
 11 12  1  0
 12 13  1  1
 14 13  1  0
 14 19  1  0
 15 14  2  0
 16 15  1  0
 16 17  2  0
 17 18  1  0
 18 19  2  0
 20 12  1  0
 20 21  2  0
 22 23  1  0
 24 23  1  1
 24 25  1  0
 25 20  1  0
 26 24  1  0
 27 26  2  0
 28 26  1  0
M  END
$$$$
