HFS.pdb
     RDKit          3D

 28 29  0  0  1  0  0  0  0  0999 V2000
   20.9037  -20.3214  -12.0480 N   0  0  0  0  0  0  0  0  0  0  0  0
   21.5820  -20.8090  -13.2316 C   0  0  1  0  0  0  0  0  0  0  0  0
   20.9311  -20.3356  -14.5010 C   0  0  0  0  0  0  0  0  0  0  0  0
   19.9586  -21.3263  -15.0336 C   0  0  0  0  0  0  0  0  0  0  0  0
   18.5989  -21.3076  -15.0662 C   0  0  0  0  0  0  0  0  0  0  0  0
   18.1307  -22.4207  -15.6451 N   0  0  0  0  0  0  0  0  0  0  0  0
   19.2247  -23.1438  -15.9780 C   0  0  0  0  0  0  0  0  0  0  0  0
   20.3403  -22.4812  -15.6075 N   0  0  0  0  0  0  0  0  0  0  0  0
   22.9631  -20.2753  -13.2084 C   0  0  0  0  0  0  0  0  0  0  0  0
   23.1802  -19.0671  -12.9371 O   0  0  0  0  0  0  0  0  0  0  0  0
   24.1171  -21.0567  -13.4811 N   0  0  0  0  0  0  0  0  0  0  0  0
   25.4716  -20.6162  -13.4000 C   0  0  1  0  0  0  0  0  0  0  0  0
   26.3133  -21.2860  -12.3731 C   0  0  0  0  0  0  0  0  0  0  0  0
   25.9583  -20.9032  -10.9830 C   0  0  0  0  0  0  0  0  0  0  0  0
   26.4479  -19.7383  -10.4351 C   0  0  0  0  0  0  0  0  0  0  0  0
   26.1234  -19.3615   -9.1254 C   0  0  0  0  0  0  0  0  0  0  0  0
   25.3014  -20.1727   -8.3787 C   0  0  0  0  0  0  0  0  0  0  0  0
   24.7978  -21.3431   -8.9021 C   0  0  0  0  0  0  0  0  0  0  0  0
   25.1391  -21.6807  -10.1941 C   0  0  0  0  0  0  0  0  0  0  0  0
   26.0907  -20.8310  -14.7381 C   0  0  0  0  0  0  0  0  0  0  0  0
   25.9275  -21.9030  -15.3825 O   0  0  0  0  0  0  0  0  0  0  0  0
   28.9306  -18.1447  -16.0048 O   0  0  0  0  0  0  0  0  0  0  0  0
   28.0571  -18.5785  -17.0015 C   0  0  0  0  0  0  0  0  0  0  0  0
   27.4828  -19.9184  -16.6139 C   0  0  2  0  0  0  0  0  0  0  0  0
   26.8884  -19.8006  -15.3089 N   0  0  0  0  0  0  0  0  0  0  0  0
   28.5055  -21.0030  -16.6432 C   0  0  0  0  0  0  0  0  0  0  0  0
   28.8331  -21.5774  -15.5970 O   0  0  0  0  0  0  0  0  0  0  0  0
   29.1027  -21.3842  -17.8335 O   0  0  0  0  0  0  0  0  0  0  0  0
  2  1  1  1
  2  9  1  0
  3  2  1  0
  4  8  1  0
  4  3  1  0
  5  4  2  0
  6  5  1  0
  6  7  1  0
  7  8  2  0
  9 10  2  0
  9 11  1  0
 11 12  1  0
 12 13  1  1
 14 13  1  0
 14 19  1  0
 15 14  2  0
 16 15  1  0
 16 17  2  0
 17 18  1  0
 18 19  2  0
 20 12  1  0
 20 21  2  0
 22 23  1  0
 24 23  1  1
 24 25  1  0
 25 20  1  0
 26 24  1  0
 27 26  2  0
 28 26  1  0
M  END
$$$$
