HFS.pdb
     RDKit          3D

 28 29  0  0  1  0  0  0  0  0999 V2000
   17.5113  -12.7452  -18.1291 N   0  0  0  0  0  0  0  0  0  0  0  0
   18.3856  -11.6786  -18.5726 C   0  0  1  0  0  0  0  0  0  0  0  0
   17.7866  -10.8751  -19.6928 C   0  0  0  0  0  0  0  0  0  0  0  0
   17.6156  -11.6819  -20.9300 C   0  0  0  0  0  0  0  0  0  0  0  0
   18.4382  -11.8533  -21.9997 C   0  0  0  0  0  0  0  0  0  0  0  0
   17.8748  -12.6750  -22.8946 N   0  0  0  0  0  0  0  0  0  0  0  0
   16.6776  -13.0194  -22.3670 C   0  0  0  0  0  0  0  0  0  0  0  0
   16.5153  -12.4170  -21.1705 N   0  0  0  0  0  0  0  0  0  0  0  0
   18.5952  -10.7651  -17.4261 C   0  0  0  0  0  0  0  0  0  0  0  0
   17.6578  -10.5106  -16.6280 O   0  0  0  0  0  0  0  0  0  0  0  0
   19.8297  -10.1229  -17.1427 N   0  0  0  0  0  0  0  0  0  0  0  0
   20.0890   -9.2386  -16.0535 C   0  0  1  0  0  0  0  0  0  0  0  0
   21.4983   -9.1831  -15.5819 C   0  0  0  0  0  0  0  0  0  0  0  0
   21.7054   -8.2281  -14.4639 C   0  0  0  0  0  0  0  0  0  0  0  0
   22.0805   -6.9278  -14.7195 C   0  0  0  0  0  0  0  0  0  0  0  0
   22.2804   -6.0133  -13.6771 C   0  0  0  0  0  0  0  0  0  0  0  0
   22.0974   -6.4268  -12.3784 C   0  0  0  0  0  0  0  0  0  0  0  0
   21.7225   -7.7215  -12.0946 C   0  0  0  0  0  0  0  0  0  0  0  0
   21.5352   -8.5926  -13.1463 C   0  0  0  0  0  0  0  0  0  0  0  0
   19.6748   -7.8726  -16.4807 C   0  0  0  0  0  0  0  0  0  0  0  0
   19.8415   -7.4659  -17.6629 O   0  0  0  0  0  0  0  0  0  0  0  0
   16.8237   -4.7109  -17.1957 O   0  0  0  0  0  0  0  0  0  0  0  0
   17.4074   -5.9375  -16.8807 C   0  0  0  0  0  0  0  0  0  0  0  0
   18.5305   -5.7185  -15.8978 C   0  0  2  0  0  0  0  0  0  0  0  0
   19.0736   -6.9996  -15.5317 N   0  0  0  0  0  0  0  0  0  0  0  0
   18.0895   -4.9575  -14.6940 C   0  0  0  0  0  0  0  0  0  0  0  0
   17.7748   -5.5585  -13.6589 O   0  0  0  0  0  0  0  0  0  0  0  0
   18.0246   -3.5738  -14.7127 O   0  0  0  0  0  0  0  0  0  0  0  0
  2  1  1  1
  2  9  1  0
  3  2  1  0
  4  8  1  0
  4  3  1  0
  5  4  2  0
  6  5  1  0
  6  7  1  0
  7  8  2  0
  9 10  2  0
  9 11  1  0
 11 12  1  0
 12 13  1  6
 14 13  1  0
 14 19  1  0
 15 14  2  0
 16 15  1  0
 16 17  2  0
 17 18  1  0
 18 19  2  0
 20 12  1  0
 20 21  2  0
 22 23  1  0
 24 23  1  6
 24 25  1  0
 25 20  1  0
 26 24  1  0
 27 26  2  0
 28 26  1  0
M  END
$$$$
