HFS.pdb
     RDKit          3D

 28 29  0  0  1  0  0  0  0  0999 V2000
   27.9198  -22.6774  -17.2359 N   0  0  0  0  0  0  0  0  0  0  0  0
   26.6820  -21.9288  -17.3139 C   0  0  1  0  0  0  0  0  0  0  0  0
   25.7593  -22.4564  -18.3768 C   0  0  0  0  0  0  0  0  0  0  0  0
   25.9435  -21.7554  -19.6750 C   0  0  0  0  0  0  0  0  0  0  0  0
   25.0329  -21.2311  -20.5387 C   0  0  0  0  0  0  0  0  0  0  0  0
   25.6508  -20.6872  -21.5950 N   0  0  0  0  0  0  0  0  0  0  0  0
   26.9726  -20.8792  -21.3801 C   0  0  0  0  0  0  0  0  0  0  0  0
   27.1558  -21.5294  -20.2119 N   0  0  0  0  0  0  0  0  0  0  0  0
   25.9921  -22.0665  -16.0109 C   0  0  0  0  0  0  0  0  0  0  0  0
   26.1342  -23.1042  -15.3155 O   0  0  0  0  0  0  0  0  0  0  0  0
   25.1423  -21.0724  -15.4575 N   0  0  0  0  0  0  0  0  0  0  0  0
   24.5704  -21.0849  -14.1505 C   0  0  1  0  0  0  0  0  0  0  0  0
   25.0864  -20.0598  -13.2047 C   0  0  0  0  0  0  0  0  0  0  0  0
   26.4279  -20.3876  -12.6591 C   0  0  0  0  0  0  0  0  0  0  0  0
   27.5641  -19.8974  -13.2639 C   0  0  0  0  0  0  0  0  0  0  0  0
   28.8379  -20.1963  -12.7628 C   0  0  0  0  0  0  0  0  0  0  0  0
   28.9494  -20.9934  -11.6477 C   0  0  0  0  0  0  0  0  0  0  0  0
   27.8296  -21.4969  -11.0234 C   0  0  0  0  0  0  0  0  0  0  0  0
   26.5934  -21.1812  -11.5452 C   0  0  0  0  0  0  0  0  0  0  0  0
   23.1009  -20.8940  -14.3056 C   0  0  0  0  0  0  0  0  0  0  0  0
   22.6190  -20.1121  -15.1701 O   0  0  0  0  0  0  0  0  0  0  0  0
   18.7630  -22.1927  -12.5445 O   0  0  0  0  0  0  0  0  0  0  0  0
   20.1432  -22.3913  -12.5444 C   0  0  0  0  0  0  0  0  0  0  0  0
   20.7951  -21.3680  -13.4408 C   0  0  2  0  0  0  0  0  0  0  0  0
   22.2130  -21.6122  -13.4573 N   0  0  0  0  0  0  0  0  0  0  0  0
   20.4949  -19.9705  -13.0171 C   0  0  0  0  0  0  0  0  0  0  0  0
   21.1843  -19.4225  -12.1475 O   0  0  0  0  0  0  0  0  0  0  0  0
   19.4465  -19.2656  -13.5853 O   0  0  0  0  0  0  0  0  0  0  0  0
  2  1  1  1
  2  9  1  0
  3  2  1  0
  4  8  1  0
  4  3  1  0
  5  4  2  0
  6  5  1  0
  6  7  1  0
  7  8  2  0
  9 10  2  0
  9 11  1  0
 11 12  1  0
 12 13  1  1
 14 13  1  0
 14 19  1  0
 15 14  2  0
 16 15  1  0
 16 17  2  0
 17 18  1  0
 18 19  2  0
 20 12  1  0
 20 21  2  0
 22 23  1  0
 24 23  1  1
 24 25  1  0
 25 20  1  0
 26 24  1  0
 27 26  2  0
 28 26  1  0
M  END
$$$$
