HFS.pdb
     RDKit          3D

 28 29  0  0  1  0  0  0  0  0999 V2000
   11.9928  -15.4610    4.0389 N   0  0  0  0  0  0  0  0  0  0  0  0
   12.8905  -14.5713    4.7471 C   0  0  1  0  0  0  0  0  0  0  0  0
   12.2163  -13.8701    5.8929 C   0  0  0  0  0  0  0  0  0  0  0  0
   11.1975  -12.8919    5.4281 C   0  0  0  0  0  0  0  0  0  0  0  0
   11.3090  -11.5718    5.1197 C   0  0  0  0  0  0  0  0  0  0  0  0
   10.1226  -11.0792    4.7413 N   0  0  0  0  0  0  0  0  0  0  0  0
    9.2583  -12.1173    4.8173 C   0  0  0  0  0  0  0  0  0  0  0  0
    9.9084  -13.2234    5.2352 N   0  0  0  0  0  0  0  0  0  0  0  0
   13.9878  -15.3937    5.3061 C   0  0  0  0  0  0  0  0  0  0  0  0
   13.9336  -16.6491    5.2666 O   0  0  0  0  0  0  0  0  0  0  0  0
   15.1519  -14.8516    5.9123 N   0  0  0  0  0  0  0  0  0  0  0  0
   16.3239  -15.5756    6.2834 C   0  0  1  0  0  0  0  0  0  0  0  0
   17.6209  -14.9323    5.9438 C   0  0  0  0  0  0  0  0  0  0  0  0
   17.8956  -14.8999    4.4850 C   0  0  0  0  0  0  0  0  0  0  0  0
   18.0183  -13.6966    3.8262 C   0  0  0  0  0  0  0  0  0  0  0  0
   18.2773  -13.6472    2.4503 C   0  0  0  0  0  0  0  0  0  0  0  0
   18.4103  -14.8236    1.7506 C   0  0  0  0  0  0  0  0  0  0  0  0
   18.2923  -16.0407    2.3846 C   0  0  0  0  0  0  0  0  0  0  0  0
   18.0372  -16.0495    3.7391 C   0  0  0  0  0  0  0  0  0  0  0  0
   16.2681  -15.7880    7.7571 C   0  0  0  0  0  0  0  0  0  0  0  0
   15.8623  -14.8896    8.5439 O   0  0  0  0  0  0  0  0  0  0  0  0
   14.5504  -18.4489    9.9279 O   0  0  0  0  0  0  0  0  0  0  0  0
   15.9294  -18.6528    9.8919 C   0  0  0  0  0  0  0  0  0  0  0  0
   16.6256  -17.3279    9.7039 C   0  0  2  0  0  0  0  0  0  0  0  0
   16.6828  -17.0376    8.2958 N   0  0  0  0  0  0  0  0  0  0  0  0
   17.9866  -17.3117   10.3122 C   0  0  0  0  0  0  0  0  0  0  0  0
   18.9826  -17.5414    9.6143 O   0  0  0  0  0  0  0  0  0  0  0  0
   18.1593  -17.0411   11.6598 O   0  0  0  0  0  0  0  0  0  0  0  0
  2  1  1  1
  2  9  1  0
  3  2  1  0
  4  8  1  0
  4  3  1  0
  5  4  2  0
  6  5  1  0
  6  7  1  0
  7  8  2  0
  9 10  2  0
  9 11  1  0
 11 12  1  0
 12 13  1  1
 14 13  1  0
 14 19  1  0
 15 14  2  0
 16 15  1  0
 16 17  2  0
 17 18  1  0
 18 19  2  0
 20 12  1  0
 20 21  2  0
 22 23  1  0
 24 23  1  6
 24 25  1  0
 25 20  1  0
 26 24  1  0
 27 26  2  0
 28 26  1  0
M  END
$$$$
