HFS.pdb
     RDKit          3D

 28 29  0  0  1  0  0  0  0  0999 V2000
   27.6248  -35.1790   -8.3959 N   0  0  0  0  0  0  0  0  0  0  0  0
   27.8642  -34.2451   -7.3145 C   0  0  1  0  0  0  0  0  0  0  0  0
   26.6248  -33.9705   -6.5096 C   0  0  0  0  0  0  0  0  0  0  0  0
   25.6016  -33.2299   -7.2941 C   0  0  0  0  0  0  0  0  0  0  0  0
   25.6430  -31.9979   -7.8690 C   0  0  0  0  0  0  0  0  0  0  0  0
   24.4833  -31.7302   -8.4830 N   0  0  0  0  0  0  0  0  0  0  0  0
   23.7076  -32.8205   -8.2834 C   0  0  0  0  0  0  0  0  0  0  0  0
   24.3844  -33.7365   -7.5598 N   0  0  0  0  0  0  0  0  0  0  0  0
   28.8631  -34.8558   -6.4078 C   0  0  0  0  0  0  0  0  0  0  0  0
   29.1116  -36.0869   -6.4621 O   0  0  0  0  0  0  0  0  0  0  0  0
   29.5977  -34.1269   -5.4354 N   0  0  0  0  0  0  0  0  0  0  0  0
   30.5883  -34.6567   -4.5559 C   0  0  1  0  0  0  0  0  0  0  0  0
   31.7779  -33.7957   -4.3216 C   0  0  0  0  0  0  0  0  0  0  0  0
   32.7018  -33.7430   -5.4828 C   0  0  0  0  0  0  0  0  0  0  0  0
   32.6121  -32.7174   -6.3977 C   0  0  0  0  0  0  0  0  0  0  0  0
   33.4754  -32.6517   -7.4992 C   0  0  0  0  0  0  0  0  0  0  0  0
   34.4267  -33.6309   -7.6645 C   0  0  0  0  0  0  0  0  0  0  0  0
   34.5382  -34.6677   -6.7646 C   0  0  0  0  0  0  0  0  0  0  0  0
   33.6713  -34.6988   -5.6934 C   0  0  0  0  0  0  0  0  0  0  0  0
   29.9262  -34.9219   -3.2477 C   0  0  0  0  0  0  0  0  0  0  0  0
   28.9927  -34.1927   -2.8145 O   0  0  0  0  0  0  0  0  0  0  0  0
   29.0032  -38.5458   -1.4796 O   0  0  0  0  0  0  0  0  0  0  0  0
   30.0123  -37.7912   -0.8824 C   0  0  0  0  0  0  0  0  0  0  0  0
   29.7839  -36.3295   -1.1771 C   0  0  2  0  0  0  0  0  0  0  0  0
   30.3557  -36.0277   -2.4624 N   0  0  0  0  0  0  0  0  0  0  0  0
   30.3451  -35.4435   -0.1173 C   0  0  0  0  0  0  0  0  0  0  0  0
   29.9344  -35.5294    1.0470 O   0  0  0  0  0  0  0  0  0  0  0  0
   31.3291  -34.5151   -0.4152 O   0  0  0  0  0  0  0  0  0  0  0  0
  2  1  1  6
  2  9  1  0
  3  2  1  0
  4  8  1  0
  4  3  1  0
  5  4  2  0
  6  5  1  0
  6  7  1  0
  7  8  2  0
  9 10  2  0
  9 11  1  0
 11 12  1  0
 12 13  1  1
 14 13  1  0
 14 19  1  0
 15 14  2  0
 16 15  1  0
 16 17  2  0
 17 18  1  0
 18 19  2  0
 20 12  1  0
 20 21  2  0
 22 23  1  0
 24 23  1  1
 24 25  1  0
 25 20  1  0
 26 24  1  0
 27 26  2  0
 28 26  1  0
M  END
$$$$
