HFS.pdb
     RDKit          3D

 28 29  0  0  1  0  0  0  0  0999 V2000
   28.2396  -23.1158  -17.4654 N   0  0  0  0  0  0  0  0  0  0  0  0
   27.7711  -21.7922  -17.1086 C   0  0  1  0  0  0  0  0  0  0  0  0
   26.9403  -21.1666  -18.1937 C   0  0  0  0  0  0  0  0  0  0  0  0
   27.7606  -20.7756  -19.3706 C   0  0  0  0  0  0  0  0  0  0  0  0
   27.9311  -21.3824  -20.5760 C   0  0  0  0  0  0  0  0  0  0  0  0
   28.7686  -20.6716  -21.3420 N   0  0  0  0  0  0  0  0  0  0  0  0
   29.1241  -19.6017  -20.5941 C   0  0  0  0  0  0  0  0  0  0  0  0
   28.5126  -19.6607  -19.3926 N   0  0  0  0  0  0  0  0  0  0  0  0
   26.9145  -21.9284  -15.9084 C   0  0  0  0  0  0  0  0  0  0  0  0
   26.1596  -22.9239  -15.7679 O   0  0  0  0  0  0  0  0  0  0  0  0
   26.8757  -20.9790  -14.8531 N   0  0  0  0  0  0  0  0  0  0  0  0
   26.1276  -21.0933  -13.6437 C   0  0  1  0  0  0  0  0  0  0  0  0
   26.6799  -20.3721  -12.4663 C   0  0  0  0  0  0  0  0  0  0  0  0
   25.8107  -20.4572  -11.2655 C   0  0  0  0  0  0  0  0  0  0  0  0
   26.1223  -21.3227  -10.2405 C   0  0  0  0  0  0  0  0  0  0  0  0
   25.3138  -21.4162   -9.1002 C   0  0  0  0  0  0  0  0  0  0  0  0
   24.1908  -20.6277   -9.0084 C   0  0  0  0  0  0  0  0  0  0  0  0
   23.8558  -19.7536  -10.0189 C   0  0  0  0  0  0  0  0  0  0  0  0
   24.6755  -19.6893  -11.1252 C   0  0  0  0  0  0  0  0  0  0  0  0
   24.7563  -20.5790  -13.9180 C   0  0  0  0  0  0  0  0  0  0  0  0
   24.5629  -19.4984  -14.5392 O   0  0  0  0  0  0  0  0  0  0  0  0
   21.4403  -22.7558  -14.8519 O   0  0  0  0  0  0  0  0  0  0  0  0
   21.7930  -21.4146  -14.9978 C   0  0  0  0  0  0  0  0  0  0  0  0
   22.2785  -20.8790  -13.6738 C   0  0  2  0  0  0  0  0  0  0  0  0
   23.6311  -21.3247  -13.4689 N   0  0  0  0  0  0  0  0  0  0  0  0
   21.4000  -21.2878  -12.5408 C   0  0  0  0  0  0  0  0  0  0  0  0
   21.7516  -22.1965  -11.7776 O   0  0  0  0  0  0  0  0  0  0  0  0
   20.1832  -20.6623  -12.3238 O   0  0  0  0  0  0  0  0  0  0  0  0
  2  1  1  6
  2  9  1  0
  3  2  1  0
  4  8  1  0
  4  3  1  0
  5  4  2  0
  6  5  1  0
  6  7  1  0
  7  8  2  0
  9 10  2  0
  9 11  1  0
 11 12  1  0
 12 13  1  1
 14 13  1  0
 14 19  1  0
 15 14  2  0
 16 15  1  0
 16 17  2  0
 17 18  1  0
 18 19  2  0
 20 12  1  0
 20 21  2  0
 22 23  1  0
 24 23  1  6
 24 25  1  0
 25 20  1  0
 26 24  1  0
 27 26  2  0
 28 26  1  0
M  END
$$$$
