HFS.pdb
     RDKit          3D

 28 29  0  0  1  0  0  0  0  0999 V2000
   27.2394  -20.5980  -17.5406 N   0  0  0  0  0  0  0  0  0  0  0  0
   26.4968  -19.5755  -16.8321 C   0  0  1  0  0  0  0  0  0  0  0  0
   25.3931  -18.9874  -17.6659 C   0  0  0  0  0  0  0  0  0  0  0  0
   25.9179  -18.2062  -18.8171 C   0  0  0  0  0  0  0  0  0  0  0  0
   26.2651  -16.8948  -18.9165 C   0  0  0  0  0  0  0  0  0  0  0  0
   26.6927  -16.6178  -20.1549 N   0  0  0  0  0  0  0  0  0  0  0  0
   26.6082  -17.7834  -20.8366 C   0  0  0  0  0  0  0  0  0  0  0  0
   26.1368  -18.7536  -20.0259 N   0  0  0  0  0  0  0  0  0  0  0  0
   25.8756  -20.2120  -15.6482 C   0  0  0  0  0  0  0  0  0  0  0  0
   25.1852  -21.2558  -15.7684 O   0  0  0  0  0  0  0  0  0  0  0  0
   26.0035  -19.7137  -14.3246 N   0  0  0  0  0  0  0  0  0  0  0  0
   25.4149  -20.2748  -13.1523 C   0  0  1  0  0  0  0  0  0  0  0  0
   25.9502  -19.7815  -11.8555 C   0  0  0  0  0  0  0  0  0  0  0  0
   25.2282  -20.3257  -10.6777 C   0  0  0  0  0  0  0  0  0  0  0  0
   24.0002  -19.8164  -10.3176 C   0  0  0  0  0  0  0  0  0  0  0  0
   23.3048  -20.3177   -9.2095 C   0  0  0  0  0  0  0  0  0  0  0  0
   23.8628  -21.3359   -8.4725 C   0  0  0  0  0  0  0  0  0  0  0  0
   25.0894  -21.8636   -8.8106 C   0  0  0  0  0  0  0  0  0  0  0  0
   25.7437  -21.3447   -9.9072 C   0  0  0  0  0  0  0  0  0  0  0  0
   23.9541  -19.9865  -13.2059 C   0  0  0  0  0  0  0  0  0  0  0  0
   23.5125  -18.8265  -13.4303 O   0  0  0  0  0  0  0  0  0  0  0  0
   20.3069  -22.6812  -13.8507 O   0  0  0  0  0  0  0  0  0  0  0  0
   21.0876  -21.6088  -14.2809 C   0  0  0  0  0  0  0  0  0  0  0  0
   21.6045  -20.8543  -13.0813 C   0  0  2  0  0  0  0  0  0  0  0  0
   23.0280  -21.0465  -12.9992 N   0  0  0  0  0  0  0  0  0  0  0  0
   20.9318  -21.2702  -11.8175 C   0  0  0  0  0  0  0  0  0  0  0  0
   21.5431  -21.9475  -10.9812 O   0  0  0  0  0  0  0  0  0  0  0  0
   19.6199  -20.9084  -11.5587 O   0  0  0  0  0  0  0  0  0  0  0  0
  2  1  1  6
  2  9  1  0
  3  2  1  0
  4  8  1  0
  4  3  1  0
  5  4  2  0
  6  5  1  0
  6  7  1  0
  7  8  2  0
  9 10  2  0
  9 11  1  0
 11 12  1  0
 12 13  1  1
 14 13  1  0
 14 19  1  0
 15 14  2  0
 16 15  1  0
 16 17  2  0
 17 18  1  0
 18 19  2  0
 20 12  1  0
 20 21  2  0
 22 23  1  0
 24 23  1  6
 24 25  1  0
 25 20  1  0
 26 24  1  0
 27 26  2  0
 28 26  1  0
M  END
$$$$
