HFS.pdb
     RDKit          3D

 28 29  0  0  1  0  0  0  0  0999 V2000
   28.4871  -22.0543  -16.7224 N   0  0  0  0  0  0  0  0  0  0  0  0
   27.5058  -21.0090  -16.5141 C   0  0  1  0  0  0  0  0  0  0  0  0
   26.5704  -20.8605  -17.6812 C   0  0  0  0  0  0  0  0  0  0  0  0
   27.2259  -20.2033  -18.8428 C   0  0  0  0  0  0  0  0  0  0  0  0
   27.8263  -18.9878  -18.9536 C   0  0  0  0  0  0  0  0  0  0  0  0
   28.2850  -18.8057  -20.1986 N   0  0  0  0  0  0  0  0  0  0  0  0
   27.9612  -19.9332  -20.8726 C   0  0  0  0  0  0  0  0  0  0  0  0
   27.3160  -20.7873  -20.0510 N   0  0  0  0  0  0  0  0  0  0  0  0
   26.6952  -21.3842  -15.3330 C   0  0  0  0  0  0  0  0  0  0  0  0
   26.3904  -22.5848  -15.1185 O   0  0  0  0  0  0  0  0  0  0  0  0
   26.2116  -20.4514  -14.3777 N   0  0  0  0  0  0  0  0  0  0  0  0
   25.5385  -20.7651  -13.1595 C   0  0  1  0  0  0  0  0  0  0  0  0
   26.0618  -20.0994  -11.9370 C   0  0  0  0  0  0  0  0  0  0  0  0
   27.4342  -20.5346  -11.5739 C   0  0  0  0  0  0  0  0  0  0  0  0
   27.6434  -21.3253  -10.4657 C   0  0  0  0  0  0  0  0  0  0  0  0
   28.9312  -21.7453  -10.1082 C   0  0  0  0  0  0  0  0  0  0  0  0
   30.0011  -21.3584  -10.8809 C   0  0  0  0  0  0  0  0  0  0  0  0
   29.8201  -20.5679  -11.9943 C   0  0  0  0  0  0  0  0  0  0  0  0
   28.5385  -20.1744  -12.3145 C   0  0  0  0  0  0  0  0  0  0  0  0
   24.1072  -20.3888  -13.3320 C   0  0  0  0  0  0  0  0  0  0  0  0
   23.7582  -19.2091  -13.6103 O   0  0  0  0  0  0  0  0  0  0  0  0
   21.3895  -22.4674  -15.1642 O   0  0  0  0  0  0  0  0  0  0  0  0
   20.9864  -22.2825  -13.8421 C   0  0  0  0  0  0  0  0  0  0  0  0
   21.6986  -21.0841  -13.2657 C   0  0  2  0  0  0  0  0  0  0  0  0
   23.1030  -21.3850  -13.1798 N   0  0  0  0  0  0  0  0  0  0  0  0
   21.1518  -20.6850  -11.9374 C   0  0  0  0  0  0  0  0  0  0  0  0
   20.1431  -19.9710  -11.8690 O   0  0  0  0  0  0  0  0  0  0  0  0
   21.7587  -21.1032  -10.7645 O   0  0  0  0  0  0  0  0  0  0  0  0
  2  1  1  6
  2  9  1  0
  3  2  1  0
  4  8  1  0
  4  3  1  0
  5  4  2  0
  6  5  1  0
  6  7  1  0
  7  8  2  0
  9 10  2  0
  9 11  1  0
 11 12  1  0
 12 13  1  1
 14 13  1  0
 14 19  1  0
 15 14  2  0
 16 15  1  0
 16 17  2  0
 17 18  1  0
 18 19  2  0
 20 12  1  0
 20 21  2  0
 22 23  1  0
 24 23  1  1
 24 25  1  0
 25 20  1  0
 26 24  1  0
 27 26  2  0
 28 26  1  0
M  END
$$$$
