HFS.pdb
     RDKit          3D

 28 29  0  0  1  0  0  0  0  0999 V2000
   23.9937  -33.5696  -15.3501 N   0  0  0  0  0  0  0  0  0  0  0  0
   23.1415  -33.2457  -14.2241 C   0  0  1  0  0  0  0  0  0  0  0  0
   21.8615  -34.0335  -14.2291 C   0  0  0  0  0  0  0  0  0  0  0  0
   20.9547  -33.6195  -15.3324 C   0  0  0  0  0  0  0  0  0  0  0  0
   20.2608  -32.4659  -15.5267 C   0  0  0  0  0  0  0  0  0  0  0  0
   19.5640  -32.5270  -16.6687 N   0  0  0  0  0  0  0  0  0  0  0  0
   19.8328  -33.7452  -17.1923 C   0  0  0  0  0  0  0  0  0  0  0  0
   20.6793  -34.4142  -16.3820 N   0  0  0  0  0  0  0  0  0  0  0  0
   23.8794  -33.5947  -12.9886 C   0  0  0  0  0  0  0  0  0  0  0  0
   24.6434  -34.5927  -12.9571 O   0  0  0  0  0  0  0  0  0  0  0  0
   23.7887  -32.8569  -11.7787 N   0  0  0  0  0  0  0  0  0  0  0  0
   24.5447  -33.0891  -10.5912 C   0  0  1  0  0  0  0  0  0  0  0  0
   24.7407  -31.9118   -9.7041 C   0  0  0  0  0  0  0  0  0  0  0  0
   25.5260  -32.2221   -8.4826 C   0  0  0  0  0  0  0  0  0  0  0  0
   26.8813  -32.4523   -8.5663 C   0  0  0  0  0  0  0  0  0  0  0  0
   27.6379  -32.7464   -7.4244 C   0  0  0  0  0  0  0  0  0  0  0  0
   27.0111  -32.8047   -6.2017 C   0  0  0  0  0  0  0  0  0  0  0  0
   25.6570  -32.5786   -6.0897 C   0  0  0  0  0  0  0  0  0  0  0  0
   24.9458  -32.2922   -7.2351 C   0  0  0  0  0  0  0  0  0  0  0  0
   23.8466  -34.1562   -9.8205 C   0  0  0  0  0  0  0  0  0  0  0  0
   22.5909  -34.1796   -9.7038 O   0  0  0  0  0  0  0  0  0  0  0  0
   25.8495  -37.6560   -7.9127 O   0  0  0  0  0  0  0  0  0  0  0  0
   24.8107  -37.5361   -8.8351 C   0  0  0  0  0  0  0  0  0  0  0  0
   24.0076  -36.2974   -8.5249 C   0  0  2  0  0  0  0  0  0  0  0  0
   24.6141  -35.1794   -9.1976 N   0  0  0  0  0  0  0  0  0  0  0  0
   23.8956  -36.0471   -7.0595 C   0  0  0  0  0  0  0  0  0  0  0  0
   24.8150  -35.4827   -6.4528 O   0  0  0  0  0  0  0  0  0  0  0  0
   22.7685  -36.4391   -6.3560 O   0  0  0  0  0  0  0  0  0  0  0  0
  2  1  1  6
  2  9  1  0
  3  2  1  0
  4  8  1  0
  4  3  1  0
  5  4  2  0
  6  5  1  0
  6  7  1  0
  7  8  2  0
  9 10  2  0
  9 11  1  0
 11 12  1  0
 12 13  1  1
 14 13  1  0
 14 19  1  0
 15 14  2  0
 16 15  1  0
 16 17  2  0
 17 18  1  0
 18 19  2  0
 20 12  1  0
 20 21  2  0
 22 23  1  0
 24 23  1  1
 24 25  1  0
 25 20  1  0
 26 24  1  0
 27 26  2  0
 28 26  1  0
M  END
$$$$
