FLR.pdb
     RDKit          3D

 31 31  0  0  1  0  0  0  0  0999 V2000
   28.0478  -21.7598  -15.0758 N   0  0  0  0  0  0  0  0  0  0  0  0
   27.6735  -20.7539  -14.1353 C   0  0  1  0  0  0  0  0  0  0  0  0
   26.7620  -19.7605  -14.8194 C   0  0  0  0  0  0  0  0  0  0  0  0
   27.5274  -19.0292  -15.8608 C   0  0  0  0  0  0  0  0  0  0  0  0
   28.3201  -17.9584  -15.5154 C   0  0  0  0  0  0  0  0  0  0  0  0
   29.0240  -17.2890  -16.4916 C   0  0  0  0  0  0  0  0  0  0  0  0
   28.9300  -17.6968  -17.8129 C   0  0  0  0  0  0  0  0  0  0  0  0
   28.1266  -18.7756  -18.1325 C   0  0  0  0  0  0  0  0  0  0  0  0
   27.4091  -19.4646  -17.1689 C   0  0  0  0  0  0  0  0  0  0  0  0
   26.9793  -21.3025  -12.9385 C   0  0  0  0  0  0  0  0  0  0  0  0
   26.1136  -22.1941  -13.1195 O   0  0  0  0  0  0  0  0  0  0  0  0
   26.3420  -19.3994   -7.0045 C   0  0  0  0  0  0  0  0  0  0  0  0
   25.7450  -20.2039   -8.1742 C   0  0  2  0  0  0  0  0  0  0  0  0
   25.5861  -21.6155   -7.5984 C   0  0  0  0  0  0  0  0  0  0  0  0
   26.7476  -20.2449   -9.2830 C   0  0  0  0  0  0  0  0  0  0  0  0
   26.3122  -20.8571  -10.5549 C   0  0  2  0  0  0  0  0  0  0  0  0
   27.2722  -20.8454  -11.6277 N   0  0  0  0  0  0  0  0  0  0  0  0
   25.0144  -20.2582  -10.9756 C   0  0  0  0  0  0  0  0  0  0  0  0
   24.9623  -19.1980  -11.6429 O   0  0  0  0  0  0  0  0  0  0  0  0
   18.5944  -22.6762  -15.2712 N   0  0  0  0  0  0  0  0  0  0  0  0
   19.2617  -21.6077  -15.9290 C   0  0  0  0  0  0  0  0  0  0  0  0
   18.6415  -20.8905  -16.8006 N   0  0  0  0  0  0  0  0  0  0  0  0
   20.6071  -21.2679  -15.6765 N   0  0  0  0  0  0  0  0  0  0  0  0
   21.3808  -21.9776  -14.6637 C   0  0  0  0  0  0  0  0  0  0  0  0
   21.3087  -21.3332  -13.3395 C   0  0  0  0  0  0  0  0  0  0  0  0
   22.4786  -21.1159  -12.5115 C   0  0  0  0  0  0  0  0  0  0  0  0
   22.4886  -20.4228  -11.2174 C   0  0  2  0  0  0  0  0  0  0  0  0
   23.8147  -20.8834  -10.6251 N   0  0  0  0  0  0  0  0  0  0  0  0
   21.5399  -20.7940  -10.1827 C   0  0  0  0  0  0  0  0  0  0  0  0
   21.7248  -21.7382   -9.4011 O   0  0  0  0  0  0  0  0  0  0  0  0
   20.3230  -20.1052   -9.9811 O   0  0  0  0  0  0  0  0  0  0  0  0
  2  1  1  6
  3  2  1  0
  4  3  1  0
  4  5  2  0
  6  5  1  0
  7  6  2  0
  8  9  2  0
  8  7  1  0
  9  4  1  0
 10  2  1  0
 11 10  2  0
 13 12  1  1
 13 14  1  0
 15 13  1  0
 16 15  1  1
 16 17  1  0
 17 10  1  0
 18 16  1  0
 19 18  2  0
 20 21  1  0
 21 23  1  0
 21 22  2  0
 23 24  1  0
 25 24  1  0
 26 25  1  0
 27 26  1  6
 27 28  1  0
 28 18  1  0
 29 31  1  0
 29 27  1  0
 30 29  2  0
M  END
$$$$
