FLR.pdb
     RDKit          3D

 31 31  0  0  1  0  0  0  0  0999 V2000
   26.5691  -21.5848  -13.2995 N   0  0  0  0  0  0  0  0  0  0  0  0
   26.3037  -20.4634  -12.4577 C   0  0  1  0  0  0  0  0  0  0  0  0
   25.1412  -19.6859  -13.0320 C   0  0  0  0  0  0  0  0  0  0  0  0
   25.5723  -19.0120  -14.2831 C   0  0  0  0  0  0  0  0  0  0  0  0
   25.2561  -19.5548  -15.5078 C   0  0  0  0  0  0  0  0  0  0  0  0
   25.6628  -18.9195  -16.6600 C   0  0  0  0  0  0  0  0  0  0  0  0
   26.3864  -17.7401  -16.5793 C   0  0  0  0  0  0  0  0  0  0  0  0
   26.6905  -17.2165  -15.3364 C   0  0  0  0  0  0  0  0  0  0  0  0
   26.2928  -17.8368  -14.1637 C   0  0  0  0  0  0  0  0  0  0  0  0
   25.9830  -20.8480  -11.0562 C   0  0  0  0  0  0  0  0  0  0  0  0
   25.3004  -21.8862  -10.8740 O   0  0  0  0  0  0  0  0  0  0  0  0
   25.9694  -19.5388   -5.6915 C   0  0  0  0  0  0  0  0  0  0  0  0
   27.1937  -20.3166   -6.2091 C   0  0  2  0  0  0  0  0  0  0  0  0
   28.3644  -19.7098   -5.4276 C   0  0  0  0  0  0  0  0  0  0  0  0
   27.3723  -20.0093   -7.6616 C   0  0  0  0  0  0  0  0  0  0  0  0
   26.3513  -20.5411   -8.5873 C   0  0  2  0  0  0  0  0  0  0  0  0
   26.4248  -20.0789   -9.9488 N   0  0  0  0  0  0  0  0  0  0  0  0
   24.9954  -20.3244   -8.0086 C   0  0  0  0  0  0  0  0  0  0  0  0
   24.4797  -19.1834   -7.9447 O   0  0  0  0  0  0  0  0  0  0  0  0
   18.9615  -25.3296   -6.1457 N   0  0  0  0  0  0  0  0  0  0  0  0
   18.1119  -24.4011   -6.8056 C   0  0  0  0  0  0  0  0  0  0  0  0
   16.8856  -24.2638   -6.4369 N   0  0  0  0  0  0  0  0  0  0  0  0
   18.5424  -23.5880   -7.8748 N   0  0  0  0  0  0  0  0  0  0  0  0
   19.9538  -23.5121   -8.2359 C   0  0  0  0  0  0  0  0  0  0  0  0
   20.6904  -22.5135   -7.4395 C   0  0  0  0  0  0  0  0  0  0  0  0
   22.0894  -22.2096   -7.6679 C   0  0  0  0  0  0  0  0  0  0  0  0
   22.8781  -21.2208   -6.9228 C   0  0  2  0  0  0  0  0  0  0  0  0
   24.2666  -21.4123   -7.5204 N   0  0  0  0  0  0  0  0  0  0  0  0
   23.1228  -21.4014   -5.5029 C   0  0  0  0  0  0  0  0  0  0  0  0
   24.0934  -22.0307   -5.0574 O   0  0  0  0  0  0  0  0  0  0  0  0
   22.2705  -20.8715   -4.5087 O   0  0  0  0  0  0  0  0  0  0  0  0
  2  1  1  6
  3  2  1  0
  4  3  1  0
  4  5  2  0
  6  5  1  0
  7  6  2  0
  8  9  2  0
  8  7  1  0
  9  4  1  0
 10  2  1  0
 11 10  2  0
 13 12  1  1
 13 14  1  0
 15 13  1  0
 16 15  1  1
 16 17  1  0
 17 10  1  0
 18 16  1  0
 19 18  2  0
 20 21  1  0
 21 23  1  0
 21 22  2  0
 23 24  1  0
 25 24  1  0
 26 25  1  0
 27 26  1  6
 27 28  1  0
 28 18  1  0
 29 31  1  0
 29 27  1  0
 30 29  2  0
M  END
$$$$
