FLR.pdb
     RDKit          3D

 31 31  0  0  1  0  0  0  0  0999 V2000
   28.5036  -19.6303  -15.3030 N   0  0  0  0  0  0  0  0  0  0  0  0
   27.3801  -19.0493  -14.6422 C   0  0  1  0  0  0  0  0  0  0  0  0
   26.5595  -18.2840  -15.6555 C   0  0  0  0  0  0  0  0  0  0  0  0
   27.2564  -17.0175  -15.9949 C   0  0  0  0  0  0  0  0  0  0  0  0
   27.8760  -16.8723  -17.2155 C   0  0  0  0  0  0  0  0  0  0  0  0
   28.5191  -15.6923  -17.5167 C   0  0  0  0  0  0  0  0  0  0  0  0
   28.5385  -14.6608  -16.5912 C   0  0  0  0  0  0  0  0  0  0  0  0
   27.9082  -14.8330  -15.3728 C   0  0  0  0  0  0  0  0  0  0  0  0
   27.2551  -16.0099  -15.0466 C   0  0  0  0  0  0  0  0  0  0  0  0
   26.5095  -20.0559  -13.9759 C   0  0  0  0  0  0  0  0  0  0  0  0
   26.2987  -21.1387  -14.5761 O   0  0  0  0  0  0  0  0  0  0  0  0
   26.9896  -22.0810  -10.0123 C   0  0  0  0  0  0  0  0  0  0  0  0
   26.3491  -20.6877   -9.8701 C   0  0  2  0  0  0  0  0  0  0  0  0
   26.1078  -20.5527   -8.3625 C   0  0  0  0  0  0  0  0  0  0  0  0
   25.0282  -20.6985  -10.5712 C   0  0  0  0  0  0  0  0  0  0  0  0
   25.0557  -20.7565  -12.0470 C   0  0  2  0  0  0  0  0  0  0  0  0
   25.9272  -19.8177  -12.7042 N   0  0  0  0  0  0  0  0  0  0  0  0
   23.6643  -20.6721  -12.5732 C   0  0  0  0  0  0  0  0  0  0  0  0
   23.1202  -19.5713  -12.8267 O   0  0  0  0  0  0  0  0  0  0  0  0
   17.5626  -23.8871  -15.1195 N   0  0  0  0  0  0  0  0  0  0  0  0
   18.0399  -24.6858  -16.1935 C   0  0  0  0  0  0  0  0  0  0  0  0
   17.3210  -24.8561  -17.2485 N   0  0  0  0  0  0  0  0  0  0  0  0
   19.2978  -25.3238  -16.1793 N   0  0  0  0  0  0  0  0  0  0  0  0
   20.2399  -25.0964  -15.0890 C   0  0  0  0  0  0  0  0  0  0  0  0
   20.4230  -23.6650  -14.7864 C   0  0  0  0  0  0  0  0  0  0  0  0
   21.2878  -23.1958  -13.7218 C   0  0  0  0  0  0  0  0  0  0  0  0
   21.5258  -21.7890  -13.3763 C   0  0  2  0  0  0  0  0  0  0  0  0
   22.9336  -21.8424  -12.7958 N   0  0  0  0  0  0  0  0  0  0  0  0
   20.7714  -21.1620  -12.3056 C   0  0  0  0  0  0  0  0  0  0  0  0
   21.0881  -21.2524  -11.1106 O   0  0  0  0  0  0  0  0  0  0  0  0
   19.6094  -20.3934  -12.5401 O   0  0  0  0  0  0  0  0  0  0  0  0
  2  1  1  6
  3  2  1  0
  4  3  1  0
  4  5  2  0
  6  5  1  0
  7  6  2  0
  8  9  2  0
  8  7  1  0
  9  4  1  0
 10  2  1  0
 11 10  2  0
 13 12  1  1
 13 14  1  0
 15 13  1  0
 16 15  1  1
 16 17  1  0
 17 10  1  0
 18 16  1  0
 19 18  2  0
 20 21  1  0
 21 23  1  0
 21 22  2  0
 23 24  1  0
 25 24  1  0
 26 25  1  0
 27 26  1  1
 27 28  1  0
 28 18  1  0
 29 31  1  0
 29 27  1  0
 30 29  2  0
M  END
$$$$
