FLR.pdb
     RDKit          3D

 31 31  0  0  1  0  0  0  0  0999 V2000
   37.0496  -23.0241    5.1606 N   0  0  0  0  0  0  0  0  0  0  0  0
   35.9437  -22.6642    5.9877 C   0  0  1  0  0  0  0  0  0  0  0  0
   34.6671  -23.1339    5.3278 C   0  0  0  0  0  0  0  0  0  0  0  0
   33.9415  -21.9625    4.7742 C   0  0  0  0  0  0  0  0  0  0  0  0
   34.1473  -21.5718    3.4706 C   0  0  0  0  0  0  0  0  0  0  0  0
   33.4680  -20.4832    2.9705 C   0  0  0  0  0  0  0  0  0  0  0  0
   32.5834  -19.7894    3.7811 C   0  0  0  0  0  0  0  0  0  0  0  0
   32.3953  -20.2032    5.0868 C   0  0  0  0  0  0  0  0  0  0  0  0
   33.0666  -21.2945    5.6126 C   0  0  0  0  0  0  0  0  0  0  0  0
   36.0235  -23.2457    7.3553 C   0  0  0  0  0  0  0  0  0  0  0  0
   36.4525  -24.4205    7.4694 O   0  0  0  0  0  0  0  0  0  0  0  0
   38.2884  -22.5391   11.3907 C   0  0  0  0  0  0  0  0  0  0  0  0
   37.2582  -21.4744   10.9700 C   0  0  2  0  0  0  0  0  0  0  0  0
   37.2968  -20.4601   12.1185 C   0  0  0  0  0  0  0  0  0  0  0  0
   35.9055  -22.1108   10.9334 C   0  0  0  0  0  0  0  0  0  0  0  0
   35.6449  -23.0634    9.8350 C   0  0  2  0  0  0  0  0  0  0  0  0
   35.6317  -22.5124    8.5049 N   0  0  0  0  0  0  0  0  0  0  0  0
   34.3973  -23.8252   10.1238 C   0  0  0  0  0  0  0  0  0  0  0  0
   33.2663  -23.3812    9.8144 O   0  0  0  0  0  0  0  0  0  0  0  0
   35.5967  -31.0948    9.9261 N   0  0  0  0  0  0  0  0  0  0  0  0
   34.3043  -31.5977   10.2366 C   0  0  0  0  0  0  0  0  0  0  0  0
   34.1619  -32.7974   10.6829 N   0  0  0  0  0  0  0  0  0  0  0  0
   33.1254  -30.8382   10.0855 N   0  0  0  0  0  0  0  0  0  0  0  0
   33.1799  -29.4564    9.6210 C   0  0  0  0  0  0  0  0  0  0  0  0
   32.9656  -28.4833   10.7079 C   0  0  0  0  0  0  0  0  0  0  0  0
   33.7599  -27.2785   10.8459 C   0  0  0  0  0  0  0  0  0  0  0  0
   33.2259  -25.9168   10.9712 C   0  0  2  0  0  0  0  0  0  0  0  0
   34.4737  -25.0694   10.7555 N   0  0  0  0  0  0  0  0  0  0  0  0
   32.7418  -25.4371   12.2535 C   0  0  0  0  0  0  0  0  0  0  0  0
   31.5645  -25.5586   12.6217 O   0  0  0  0  0  0  0  0  0  0  0  0
   33.5778  -24.7902   13.1907 O   0  0  0  0  0  0  0  0  0  0  0  0
  2  1  1  6
  3  2  1  0
  4  3  1  0
  4  5  2  0
  6  5  1  0
  7  6  2  0
  8  9  2  0
  8  7  1  0
  9  4  1  0
 10  2  1  0
 11 10  2  0
 13 12  1  1
 13 14  1  0
 15 13  1  0
 16 15  1  1
 16 17  1  0
 17 10  1  0
 18 16  1  0
 19 18  2  0
 20 21  1  0
 21 23  1  0
 21 22  2  0
 23 24  1  0
 25 24  1  0
 26 25  1  0
 27 26  1  1
 27 28  1  0
 28 18  1  0
 29 31  1  0
 29 27  1  0
 30 29  2  0
M  END
$$$$
