FLR.pdb
     RDKit          3D

 31 31  0  0  1  0  0  0  0  0999 V2000
   27.7899  -21.2797   -8.4214 N   0  0  0  0  0  0  0  0  0  0  0  0
   26.5405  -20.5915   -8.4654 C   0  0  1  0  0  0  0  0  0  0  0  0
   26.6478  -19.3310   -7.6374 C   0  0  0  0  0  0  0  0  0  0  0  0
   27.3827  -19.6300   -6.3822 C   0  0  0  0  0  0  0  0  0  0  0  0
   28.6422  -19.1145   -6.1762 C   0  0  0  0  0  0  0  0  0  0  0  0
   29.3125  -19.4004   -5.0076 C   0  0  0  0  0  0  0  0  0  0  0  0
   28.7161  -20.2037   -4.0484 C   0  0  0  0  0  0  0  0  0  0  0  0
   27.4501  -20.7084   -4.2806 C   0  0  0  0  0  0  0  0  0  0  0  0
   26.7560  -20.4352   -5.4476 C   0  0  0  0  0  0  0  0  0  0  0  0
   26.1219  -20.2285   -9.8467 C   0  0  0  0  0  0  0  0  0  0  0  0
   25.0817  -19.5381   -9.9824 O   0  0  0  0  0  0  0  0  0  0  0  0
   28.6037  -19.9678  -15.5552 C   0  0  0  0  0  0  0  0  0  0  0  0
   27.3511  -19.7658  -14.6822 C   0  0  2  0  0  0  0  0  0  0  0  0
   27.1831  -18.2429  -14.6377 C   0  0  0  0  0  0  0  0  0  0  0  0
   27.6495  -20.2589  -13.3023 C   0  0  0  0  0  0  0  0  0  0  0  0
   26.5409  -20.2247  -12.3266 C   0  0  2  0  0  0  0  0  0  0  0  0
   26.8609  -20.6402  -10.9857 N   0  0  0  0  0  0  0  0  0  0  0  0
   25.3774  -20.9802  -12.8703 C   0  0  0  0  0  0  0  0  0  0  0  0
   25.4358  -22.2130  -13.0910 O   0  0  0  0  0  0  0  0  0  0  0  0
   19.4122  -23.2644   -8.6360 N   0  0  0  0  0  0  0  0  0  0  0  0
   19.7459  -23.9460   -9.8375 C   0  0  0  0  0  0  0  0  0  0  0  0
   19.5814  -25.2199   -9.9312 N   0  0  0  0  0  0  0  0  0  0  0  0
   20.2608  -23.2924  -10.9764 N   0  0  0  0  0  0  0  0  0  0  0  0
   20.0009  -21.8756  -11.2075 C   0  0  0  0  0  0  0  0  0  0  0  0
   20.6853  -21.3614  -12.4080 C   0  0  0  0  0  0  0  0  0  0  0  0
   22.1050  -21.0689  -12.4331 C   0  0  0  0  0  0  0  0  0  0  0  0
   22.9529  -21.0691  -13.6314 C   0  0  2  0  0  0  0  0  0  0  0  0
   24.1821  -20.3107  -13.1460 N   0  0  0  0  0  0  0  0  0  0  0  0
   22.5605  -20.3079  -14.8041 C   0  0  0  0  0  0  0  0  0  0  0  0
   22.7041  -19.0800  -14.8940 O   0  0  0  0  0  0  0  0  0  0  0  0
   21.9808  -20.9081  -15.9440 O   0  0  0  0  0  0  0  0  0  0  0  0
  2  1  1  6
  3  2  1  0
  4  3  1  0
  4  5  2  0
  6  5  1  0
  7  6  2  0
  8  9  2  0
  8  7  1  0
  9  4  1  0
 10  2  1  0
 11 10  2  0
 13 12  1  6
 13 14  1  0
 15 13  1  0
 16 15  1  6
 16 17  1  0
 17 10  1  0
 18 16  1  0
 19 18  2  0
 20 21  1  0
 21 23  1  0
 21 22  2  0
 23 24  1  0
 25 24  1  0
 26 25  1  0
 27 26  1  1
 27 28  1  0
 28 18  1  0
 29 31  1  0
 29 27  1  0
 30 29  2  0
M  END
$$$$
