FLR.pdb
     RDKit          3D

 31 31  0  0  1  0  0  0  0  0999 V2000
   28.4494  -20.4358  -16.0303 N   0  0  0  0  0  0  0  0  0  0  0  0
   27.8881  -19.6868  -14.9530 C   0  0  1  0  0  0  0  0  0  0  0  0
   26.9265  -18.6656  -15.5171 C   0  0  0  0  0  0  0  0  0  0  0  0
   27.6943  -17.5152  -16.0575 C   0  0  0  0  0  0  0  0  0  0  0  0
   28.0571  -17.4855  -17.3849 C   0  0  0  0  0  0  0  0  0  0  0  0
   28.7696  -16.4125  -17.8725 C   0  0  0  0  0  0  0  0  0  0  0  0
   29.1161  -15.3716  -17.0255 C   0  0  0  0  0  0  0  0  0  0  0  0
   28.7390  -15.4266  -15.6965 C   0  0  0  0  0  0  0  0  0  0  0  0
   28.0224  -16.4946  -15.1827 C   0  0  0  0  0  0  0  0  0  0  0  0
   27.1678  -20.5351  -13.9648 C   0  0  0  0  0  0  0  0  0  0  0  0
   26.5962  -21.5708  -14.3865 O   0  0  0  0  0  0  0  0  0  0  0  0
   24.2123  -20.5352   -9.2852 C   0  0  0  0  0  0  0  0  0  0  0  0
   25.5785  -21.2444   -9.2378 C   0  0  2  0  0  0  0  0  0  0  0  0
   26.0868  -20.9557   -7.8209 C   0  0  0  0  0  0  0  0  0  0  0  0
   26.4908  -20.5842  -10.2217 C   0  0  0  0  0  0  0  0  0  0  0  0
   26.2255  -20.8372  -11.6527 C   0  0  2  0  0  0  0  0  0  0  0  0
   27.1169  -20.2006  -12.5870 N   0  0  0  0  0  0  0  0  0  0  0  0
   24.8006  -20.5245  -11.9564 C   0  0  0  0  0  0  0  0  0  0  0  0
   24.4026  -19.3461  -12.1141 O   0  0  0  0  0  0  0  0  0  0  0  0
   18.9744  -25.7366  -13.2008 N   0  0  0  0  0  0  0  0  0  0  0  0
   18.5159  -25.0212  -14.3397 C   0  0  0  0  0  0  0  0  0  0  0  0
   17.2635  -25.0069  -14.6395 N   0  0  0  0  0  0  0  0  0  0  0  0
   19.3753  -24.2963  -15.1916 N   0  0  0  0  0  0  0  0  0  0  0  0
   20.7675  -24.0605  -14.8253 C   0  0  0  0  0  0  0  0  0  0  0  0
   20.9286  -22.9096  -13.9179 C   0  0  0  0  0  0  0  0  0  0  0  0
   22.2227  -22.4724  -13.4323 C   0  0  0  0  0  0  0  0  0  0  0  0
   22.4613  -21.2973  -12.5855 C   0  0  2  0  0  0  0  0  0  0  0  0
   23.8713  -21.5618  -12.0720 N   0  0  0  0  0  0  0  0  0  0  0  0
   21.7105  -21.1186  -11.3555 C   0  0  0  0  0  0  0  0  0  0  0  0
   22.0813  -21.5728  -10.2634 O   0  0  0  0  0  0  0  0  0  0  0  0
   20.4905  -20.4083  -11.3030 O   0  0  0  0  0  0  0  0  0  0  0  0
  2  1  1  6
  3  2  1  0
  4  3  1  0
  4  5  2  0
  6  5  1  0
  7  6  2  0
  8  9  2  0
  8  7  1  0
  9  4  1  0
 10  2  1  0
 11 10  2  0
 13 12  1  1
 13 14  1  0
 15 13  1  0
 16 15  1  1
 16 17  1  0
 17 10  1  0
 18 16  1  0
 19 18  2  0
 20 21  1  0
 21 23  1  0
 21 22  2  0
 23 24  1  0
 25 24  1  0
 26 25  1  0
 27 26  1  1
 27 28  1  0
 28 18  1  0
 29 31  1  0
 29 27  1  0
 30 29  2  0
M  END
$$$$
