FLR.pdb
     RDKit          3D

 31 31  0  0  1  0  0  0  0  0999 V2000
   28.1527  -20.7133  -15.7242 N   0  0  0  0  0  0  0  0  0  0  0  0
   27.1950  -19.8780  -15.0749 C   0  0  1  0  0  0  0  0  0  0  0  0
   26.4704  -19.0614  -16.1208 C   0  0  0  0  0  0  0  0  0  0  0  0
   27.3414  -17.9412  -16.5585 C   0  0  0  0  0  0  0  0  0  0  0  0
   28.0330  -18.0232  -17.7457 C   0  0  0  0  0  0  0  0  0  0  0  0
   28.8377  -16.9771  -18.1389 C   0  0  0  0  0  0  0  0  0  0  0  0
   28.9457  -15.8506  -17.3387 C   0  0  0  0  0  0  0  0  0  0  0  0
   28.2401  -15.7940  -16.1512 C   0  0  0  0  0  0  0  0  0  0  0  0
   27.4247  -16.8330  -15.7342 C   0  0  0  0  0  0  0  0  0  0  0  0
   26.1955  -20.6432  -14.2809 C   0  0  0  0  0  0  0  0  0  0  0  0
   25.7915  -21.7381  -14.7445 O   0  0  0  0  0  0  0  0  0  0  0  0
   26.2036  -22.2183   -9.8953 C   0  0  0  0  0  0  0  0  0  0  0  0
   25.9251  -20.7128  -10.0622 C   0  0  2  0  0  0  0  0  0  0  0  0
   25.7051  -20.2244   -8.6261 C   0  0  0  0  0  0  0  0  0  0  0  0
   24.6516  -20.5475  -10.8285 C   0  0  0  0  0  0  0  0  0  0  0  0
   24.6963  -20.8549  -12.2727 C   0  0  2  0  0  0  0  0  0  0  0  0
   25.7030  -20.1671  -13.0384 N   0  0  0  0  0  0  0  0  0  0  0  0
   23.3401  -20.6708  -12.8618 C   0  0  0  0  0  0  0  0  0  0  0  0
   22.9015  -19.5366  -13.1669 O   0  0  0  0  0  0  0  0  0  0  0  0
   22.2601  -26.3082  -16.5652 N   0  0  0  0  0  0  0  0  0  0  0  0
   20.9766  -26.5119  -15.9903 C   0  0  0  0  0  0  0  0  0  0  0  0
   20.6881  -27.6301  -15.4201 N   0  0  0  0  0  0  0  0  0  0  0  0
   19.9631  -25.5310  -16.0011 N   0  0  0  0  0  0  0  0  0  0  0  0
   20.2020  -24.2147  -16.5828 C   0  0  0  0  0  0  0  0  0  0  0  0
   20.0913  -23.1279  -15.5926 C   0  0  0  0  0  0  0  0  0  0  0  0
   21.1897  -22.7437  -14.7280 C   0  0  0  0  0  0  0  0  0  0  0  0
   21.1680  -21.6348  -13.7662 C   0  0  2  0  0  0  0  0  0  0  0  0
   22.5237  -21.7826  -13.0866 N   0  0  0  0  0  0  0  0  0  0  0  0
   20.2510  -21.6618  -12.6407 C   0  0  0  0  0  0  0  0  0  0  0  0
   20.5143  -22.2196  -11.5655 O   0  0  0  0  0  0  0  0  0  0  0  0
   18.9778  -21.0508  -12.6794 O   0  0  0  0  0  0  0  0  0  0  0  0
  2  1  1  6
  3  2  1  0
  4  3  1  0
  4  5  2  0
  6  5  1  0
  7  6  2  0
  8  9  2  0
  8  7  1  0
  9  4  1  0
 10  2  1  0
 11 10  2  0
 13 12  1  1
 13 14  1  0
 15 13  1  0
 16 15  1  1
 16 17  1  0
 17 10  1  0
 18 16  1  0
 19 18  2  0
 20 21  1  0
 21 23  1  0
 21 22  2  0
 23 24  1  0
 25 24  1  0
 26 25  1  0
 27 26  1  6
 27 28  1  0
 28 18  1  0
 29 31  1  0
 29 27  1  0
 30 29  2  0
M  END
$$$$
