FLR.pdb
     RDKit          3D

 31 31  0  0  1  0  0  0  0  0999 V2000
   20.5373  -19.5799  -11.5001 N   0  0  0  0  0  0  0  0  0  0  0  0
   21.4283  -20.6908  -11.4079 C   0  0  1  0  0  0  0  0  0  0  0  0
   21.3355  -21.4984  -12.6827 C   0  0  0  0  0  0  0  0  0  0  0  0
   19.9993  -22.1415  -12.7596 C   0  0  0  0  0  0  0  0  0  0  0  0
   19.7245  -23.2618  -12.0087 C   0  0  0  0  0  0  0  0  0  0  0  0
   18.4811  -23.8484  -12.0903 C   0  0  0  0  0  0  0  0  0  0  0  0
   17.5165  -23.3081  -12.9261 C   0  0  0  0  0  0  0  0  0  0  0  0
   17.8187  -22.1821  -13.6692 C   0  0  0  0  0  0  0  0  0  0  0  0
   19.0616  -21.5745  -13.6044 C   0  0  0  0  0  0  0  0  0  0  0  0
   22.8447  -20.2875  -11.1930 C   0  0  0  0  0  0  0  0  0  0  0  0
   23.3331  -19.4256  -11.9649 O   0  0  0  0  0  0  0  0  0  0  0  0
   27.3251  -20.7422   -6.8818 C   0  0  0  0  0  0  0  0  0  0  0  0
   26.9059  -20.2381   -8.2753 C   0  0  2  0  0  0  0  0  0  0  0  0
   26.7693  -18.7232   -8.0857 C   0  0  0  0  0  0  0  0  0  0  0  0
   25.5620  -20.8068   -8.6017 C   0  0  0  0  0  0  0  0  0  0  0  0
   25.0144  -20.5015   -9.9392 C   0  0  2  0  0  0  0  0  0  0  0  0
   23.6337  -20.8476  -10.1554 N   0  0  0  0  0  0  0  0  0  0  0  0
   25.8967  -21.0934  -10.9840 C   0  0  0  0  0  0  0  0  0  0  0  0
   26.5026  -22.1756  -10.8004 O   0  0  0  0  0  0  0  0  0  0  0  0
   25.2976  -26.5067  -15.7677 N   0  0  0  0  0  0  0  0  0  0  0  0
   25.9027  -25.7175  -16.7828 C   0  0  0  0  0  0  0  0  0  0  0  0
   25.6866  -25.9772  -18.0256 N   0  0  0  0  0  0  0  0  0  0  0  0
   26.7524  -24.6262  -16.5063 N   0  0  0  0  0  0  0  0  0  0  0  0
   26.8175  -24.0488  -15.1682 C   0  0  0  0  0  0  0  0  0  0  0  0
   25.8937  -22.9128  -14.9946 C   0  0  0  0  0  0  0  0  0  0  0  0
   25.8289  -22.1383  -13.7709 C   0  0  0  0  0  0  0  0  0  0  0  0
   26.7920  -21.1079  -13.3638 C   0  0  2  0  0  0  0  0  0  0  0  0
   26.0628  -20.4368  -12.2064 N   0  0  0  0  0  0  0  0  0  0  0  0
   27.0787  -19.9879  -14.2423 C   0  0  0  0  0  0  0  0  0  0  0  0
   28.0110  -19.9889  -15.0591 O   0  0  0  0  0  0  0  0  0  0  0  0
   26.3138  -18.8001  -14.2381 O   0  0  0  0  0  0  0  0  0  0  0  0
  2  1  1  6
  3  2  1  0
  4  3  1  0
  4  5  2  0
  6  5  1  0
  7  6  2  0
  8  9  2  0
  8  7  1  0
  9  4  1  0
 10  2  1  0
 11 10  2  0
 13 12  1  1
 13 14  1  0
 15 13  1  0
 16 15  1  1
 16 17  1  0
 17 10  1  0
 18 16  1  0
 19 18  2  0
 20 21  1  0
 21 23  1  0
 21 22  2  0
 23 24  1  0
 25 24  1  0
 26 25  1  0
 27 26  1  6
 27 28  1  0
 28 18  1  0
 29 31  1  0
 29 27  1  0
 30 29  2  0
M  END
$$$$
