FLR.pdb
     RDKit          3D

 31 31  0  0  1  0  0  0  0  0999 V2000
   23.8279  -20.3006  -10.2744 N   0  0  0  0  0  0  0  0  0  0  0  0
   25.0708  -20.0513  -10.9299 C   0  0  1  0  0  0  0  0  0  0  0  0
   26.1288  -20.9482  -10.3282 C   0  0  0  0  0  0  0  0  0  0  0  0
   26.4115  -20.5088   -8.9382 C   0  0  0  0  0  0  0  0  0  0  0  0
   26.9613  -19.2696   -8.7007 C   0  0  0  0  0  0  0  0  0  0  0  0
   27.2188  -18.8753   -7.4066 C   0  0  0  0  0  0  0  0  0  0  0  0
   26.9233  -19.7269   -6.3537 C   0  0  0  0  0  0  0  0  0  0  0  0
   26.3714  -20.9661   -6.6202 C   0  0  0  0  0  0  0  0  0  0  0  0
   26.1035  -21.3852   -7.9128 C   0  0  0  0  0  0  0  0  0  0  0  0
   25.0145  -20.2875  -12.3982 C   0  0  0  0  0  0  0  0  0  0  0  0
   23.9322  -20.6979  -12.8856 O   0  0  0  0  0  0  0  0  0  0  0  0
   27.2132  -18.6020  -17.1858 C   0  0  0  0  0  0  0  0  0  0  0  0
   27.2029  -17.6268  -15.9940 C   0  0  2  0  0  0  0  0  0  0  0  0
   28.5249  -16.8648  -16.1387 C   0  0  0  0  0  0  0  0  0  0  0  0
   27.2408  -18.4228  -14.7286 C   0  0  0  0  0  0  0  0  0  0  0  0
   26.0748  -19.2848  -14.4465 C   0  0  2  0  0  0  0  0  0  0  0  0
   26.1368  -20.0625  -13.2365 N   0  0  0  0  0  0  0  0  0  0  0  0
   25.7914  -20.1406  -15.6329 C   0  0  0  0  0  0  0  0  0  0  0  0
   25.6897  -19.6581  -16.7856 O   0  0  0  0  0  0  0  0  0  0  0  0
   30.3862  -26.5894  -17.3410 N   0  0  0  0  0  0  0  0  0  0  0  0
   29.0085  -26.9310  -17.4084 C   0  0  0  0  0  0  0  0  0  0  0  0
   28.6222  -27.9477  -18.0981 N   0  0  0  0  0  0  0  0  0  0  0  0
   28.0009  -26.2037  -16.7409 N   0  0  0  0  0  0  0  0  0  0  0  0
   28.3303  -25.0254  -15.9464 C   0  0  0  0  0  0  0  0  0  0  0  0
   27.6342  -23.8127  -16.4140 C   0  0  0  0  0  0  0  0  0  0  0  0
   26.2040  -23.6269  -16.2671 C   0  0  0  0  0  0  0  0  0  0  0  0
   25.4541  -22.4337  -16.6784 C   0  0  2  0  0  0  0  0  0  0  0  0
   25.6327  -21.5198  -15.4724 N   0  0  0  0  0  0  0  0  0  0  0  0
   24.0096  -22.4900  -16.8151 C   0  0  0  0  0  0  0  0  0  0  0  0
   23.2310  -22.2589  -15.8788 O   0  0  0  0  0  0  0  0  0  0  0  0
   23.3709  -22.8136  -18.0329 O   0  0  0  0  0  0  0  0  0  0  0  0
  2  1  1  1
  3  2  1  0
  4  3  1  0
  4  5  2  0
  6  5  1  0
  7  6  2  0
  8  9  2  0
  8  7  1  0
  9  4  1  0
 10  2  1  0
 11 10  2  0
 13 12  1  6
 13 14  1  0
 15 13  1  0
 16 15  1  6
 16 17  1  0
 17 10  1  0
 18 16  1  0
 19 18  2  0
 20 21  1  0
 21 23  1  0
 21 22  2  0
 23 24  1  0
 25 24  1  0
 26 25  1  0
 27 26  1  1
 27 28  1  0
 28 18  1  0
 29 31  1  0
 29 27  1  0
 30 29  2  0
M  END
$$$$
