FLR.pdb
     RDKit          3D

 31 31  0  0  1  0  0  0  0  0999 V2000
   27.2073  -18.2548  -16.8208 N   0  0  0  0  0  0  0  0  0  0  0  0
   26.4415  -17.8394  -15.6905 C   0  0  1  0  0  0  0  0  0  0  0  0
   25.3617  -16.8885  -16.1549 C   0  0  0  0  0  0  0  0  0  0  0  0
   25.9753  -15.5814  -16.5013 C   0  0  0  0  0  0  0  0  0  0  0  0
   26.0346  -15.1689  -17.8131 C   0  0  0  0  0  0  0  0  0  0  0  0
   26.6070  -13.9545  -18.1200 C   0  0  0  0  0  0  0  0  0  0  0  0
   27.1185  -13.1570  -17.1084 C   0  0  0  0  0  0  0  0  0  0  0  0
   27.0459  -13.5952  -15.7992 C   0  0  0  0  0  0  0  0  0  0  0  0
   26.4753  -14.8123  -15.4654 C   0  0  0  0  0  0  0  0  0  0  0  0
   25.8076  -18.9741  -14.9656 C   0  0  0  0  0  0  0  0  0  0  0  0
   25.3369  -19.9172  -15.6483 O   0  0  0  0  0  0  0  0  0  0  0  0
   25.1933  -21.1016   -9.1149 C   0  0  0  0  0  0  0  0  0  0  0  0
   24.7516  -21.2254  -10.5851 C   0  0  2  0  0  0  0  0  0  0  0  0
   25.2740  -22.6039  -11.0048 C   0  0  0  0  0  0  0  0  0  0  0  0
   25.4593  -20.1775  -11.3835 C   0  0  0  0  0  0  0  0  0  0  0  0
   25.1190  -20.0874  -12.8181 C   0  0  2  0  0  0  0  0  0  0  0  0
   25.7276  -19.0068  -13.5494 N   0  0  0  0  0  0  0  0  0  0  0  0
   23.6376  -20.0902  -12.9781 C   0  0  0  0  0  0  0  0  0  0  0  0
   22.9241  -19.1594  -12.5347 O   0  0  0  0  0  0  0  0  0  0  0  0
   23.8389  -25.6820  -16.9108 N   0  0  0  0  0  0  0  0  0  0  0  0
   22.9574  -26.3838  -16.0449 C   0  0  0  0  0  0  0  0  0  0  0  0
   23.2830  -27.5406  -15.5817 N   0  0  0  0  0  0  0  0  0  0  0  0
   21.7051  -25.8744  -15.6426 N   0  0  0  0  0  0  0  0  0  0  0  0
   21.3296  -24.4953  -15.9343 C   0  0  0  0  0  0  0  0  0  0  0  0
   21.5312  -23.5965  -14.7830 C   0  0  0  0  0  0  0  0  0  0  0  0
   21.3176  -22.1649  -14.8624 C   0  0  0  0  0  0  0  0  0  0  0  0
   21.4945  -21.2154  -13.7569 C   0  0  2  0  0  0  0  0  0  0  0  0
   23.0123  -21.1514  -13.6383 N   0  0  0  0  0  0  0  0  0  0  0  0
   21.0921  -21.5792  -12.4100 C   0  0  0  0  0  0  0  0  0  0  0  0
   20.0269  -21.2067  -11.8972 O   0  0  0  0  0  0  0  0  0  0  0  0
   21.8858  -22.3922  -11.5703 O   0  0  0  0  0  0  0  0  0  0  0  0
  2  1  1  6
  3  2  1  0
  4  3  1  0
  4  5  2  0
  6  5  1  0
  7  6  2  0
  8  9  2  0
  8  7  1  0
  9  4  1  0
 10  2  1  0
 11 10  2  0
 13 12  1  1
 13 14  1  0
 15 13  1  0
 16 15  1  1
 16 17  1  0
 17 10  1  0
 18 16  1  0
 19 18  2  0
 20 21  1  0
 21 23  1  0
 21 22  2  0
 23 24  1  0
 25 24  1  0
 26 25  1  0
 27 26  1  6
 27 28  1  0
 28 18  1  0
 29 31  1  0
 29 27  1  0
 30 29  2  0
M  END
$$$$
