YWT.pdb
     RDKit          3D

 34 36  0  0  1  0  0  0  0  0999 V2000
    8.7338  -18.0061   13.1865 O   0  0  0  0  0  0  0  0  0  0  0  0
    8.9851  -17.7432   14.5369 C   0  0  0  0  0  0  0  0  0  0  0  0
    8.8974  -18.7393   15.4730 C   0  0  0  0  0  0  0  0  0  0  0  0
    9.1471  -18.4793   16.8169 C   0  0  0  0  0  0  0  0  0  0  0  0
    9.4906  -17.2187   17.2596 C   0  0  0  0  0  0  0  0  0  0  0  0
    9.7448  -16.9982   18.6952 C   0  0  0  0  0  0  0  0  0  0  0  0
   10.0988  -15.5744   19.0151 C   0  0  2  0  0  0  0  0  0  0  0  0
   11.4349  -15.2136   18.6197 N   0  0  0  0  0  0  0  0  0  0  0  0
    9.9460  -15.3893   20.4894 C   0  0  0  0  0  0  0  0  0  0  0  0
   10.9681  -15.2247   21.2031 O   0  0  0  0  0  0  0  0  0  0  0  0
    9.5750  -16.2260   16.3053 C   0  0  0  0  0  0  0  0  0  0  0  0
    9.3275  -16.4770   14.9632 C   0  0  0  0  0  0  0  0  0  0  0  0
    8.6727  -15.3927   21.1211 N   0  0  0  0  0  0  0  0  0  0  0  0
    8.4697  -15.1975   22.5411 C   0  0  1  0  0  0  0  0  0  0  0  0
    7.0909  -14.7078   22.8432 C   0  0  0  0  0  0  0  0  0  0  0  0
    6.8259  -14.6059   24.3003 C   0  0  0  0  0  0  0  0  0  0  0  0
    6.1913  -15.5146   25.1221 C   0  0  0  0  0  0  0  0  0  0  0  0
    6.1510  -15.0489   26.3804 N   0  0  0  0  0  0  0  0  0  0  0  0
    6.7459  -13.8539   26.4004 C   0  0  0  0  0  0  0  0  0  0  0  0
    7.0001  -12.9117   27.4016 C   0  0  0  0  0  0  0  0  0  0  0  0
    7.6527  -11.7468   27.0855 C   0  0  0  0  0  0  0  0  0  0  0  0
    8.0699  -11.4682   25.8115 C   0  0  0  0  0  0  0  0  0  0  0  0
    7.8298  -12.3767   24.8232 C   0  0  0  0  0  0  0  0  0  0  0  0
    7.1702  -13.5577   25.1337 C   0  0  0  0  0  0  0  0  0  0  0  0
    8.8229  -16.4631   23.2248 C   0  0  0  0  0  0  0  0  0  0  0  0
    8.5580  -17.5319   22.6102 O   0  0  0  0  0  0  0  0  0  0  0  0
   10.3324  -18.6782   22.7508 C   0  0  0  0  0  0  0  0  0  0  0  0
   10.9191  -18.4523   24.1351 C   0  0  1  0  0  0  0  0  0  0  0  0
   12.0409  -17.6268   24.0308 O   0  0  0  0  0  0  0  0  0  0  0  0
    9.8458  -17.8312   24.9912 C   0  0  2  0  0  0  0  0  0  0  0  0
    9.4208  -16.5464   24.4863 N   0  0  0  0  0  0  0  0  0  0  0  0
   10.4333  -17.6852   26.3713 C   0  0  0  0  0  0  0  0  0  0  0  0
   10.5766  -16.4287   26.9402 O   0  0  0  0  0  0  0  0  0  0  0  0
   10.8083  -18.6745   27.0458 O   0  0  0  0  0  0  0  0  0  0  0  0
  2  1  1  0
  3  2  2  0
  4  3  1  0
  5 11  1  0
  5  4  2  0
  6  7  1  0
  6  5  1  0
  7  9  1  0
  7  8  1  1
  9 10  2  0
 11 12  2  0
 12  2  1  0
 13 14  1  0
 13  9  1  0
 14 25  1  0
 15 16  1  0
 14 15  1  6
 16 24  1  0
 17 16  2  0
 17 18  1  0
 18 19  1  0
 19 20  1  0
 20 21  2  0
 22 21  1  0
 23 22  2  0
 24 19  2  0
 24 23  1  0
 25 31  1  0
 26 25  2  0
 28 27  1  6
 28 29  1  0
 30 28  1  0
 30 31  1  6
 32 30  1  0
 33 32  1  0
 34 32  2  0
M  END
$$$$
