YWT.pdb
     RDKit          3D

 34 36  0  0  1  0  0  0  0  0999 V2000
    9.9009  -20.8809   14.2997 O   0  0  0  0  0  0  0  0  0  0  0  0
   10.0039  -20.1230   15.4704 C   0  0  0  0  0  0  0  0  0  0  0  0
   10.9289  -20.4382   16.4303 C   0  0  0  0  0  0  0  0  0  0  0  0
   11.0327  -19.6852   17.5957 C   0  0  0  0  0  0  0  0  0  0  0  0
   10.2158  -18.5988   17.8317 C   0  0  0  0  0  0  0  0  0  0  0  0
   10.3682  -17.8350   19.0837 C   0  0  0  0  0  0  0  0  0  0  0  0
    9.4522  -16.6476   19.1604 C   0  0  2  0  0  0  0  0  0  0  0  0
    9.7824  -15.6079   18.2214 N   0  0  0  0  0  0  0  0  0  0  0  0
    9.5249  -16.1076   20.5511 C   0  0  0  0  0  0  0  0  0  0  0  0
   10.3837  -15.2334   20.8329 O   0  0  0  0  0  0  0  0  0  0  0  0
    9.2894  -18.2936   16.8561 C   0  0  0  0  0  0  0  0  0  0  0  0
    9.1795  -19.0396   15.6912 C   0  0  0  0  0  0  0  0  0  0  0  0
    8.6487  -16.5515   21.5784 N   0  0  0  0  0  0  0  0  0  0  0  0
    8.5316  -15.9198   22.8758 C   0  0  1  0  0  0  0  0  0  0  0  0
    7.1365  -15.4581   23.1453 C   0  0  0  0  0  0  0  0  0  0  0  0
    6.9337  -15.0413   24.5555 C   0  0  0  0  0  0  0  0  0  0  0  0
    6.4798  -15.7977   25.6165 C   0  0  0  0  0  0  0  0  0  0  0  0
    6.4363  -15.0503   26.7306 N   0  0  0  0  0  0  0  0  0  0  0  0
    6.8521  -13.8197   26.4219 C   0  0  0  0  0  0  0  0  0  0  0  0
    7.0174  -12.6384   27.1512 C   0  0  0  0  0  0  0  0  0  0  0  0
    7.4775  -11.5108   26.5190 C   0  0  0  0  0  0  0  0  0  0  0  0
    7.7848  -11.4979   25.1848 C   0  0  0  0  0  0  0  0  0  0  0  0
    7.6292  -12.6418   24.4590 C   0  0  0  0  0  0  0  0  0  0  0  0
    7.1643  -13.7872   25.0900 C   0  0  0  0  0  0  0  0  0  0  0  0
    9.0592  -16.8654   23.8864 C   0  0  0  0  0  0  0  0  0  0  0  0
    8.4930  -17.9898   23.9601 O   0  0  0  0  0  0  0  0  0  0  0  0
   12.0431  -18.6812   23.9906 C   0  0  0  0  0  0  0  0  0  0  0  0
   12.0169  -18.0268   25.3628 C   0  0  1  0  0  0  0  0  0  0  0  0
   12.8781  -16.9273   25.3653 O   0  0  0  0  0  0  0  0  0  0  0  0
   10.5938  -17.6227   25.6499 C   0  0  2  0  0  0  0  0  0  0  0  0
   10.1263  -16.5951   24.7489 N   0  0  0  0  0  0  0  0  0  0  0  0
   10.5713  -17.1247   27.0721 C   0  0  0  0  0  0  0  0  0  0  0  0
   10.7824  -18.0039   28.1235 O   0  0  0  0  0  0  0  0  0  0  0  0
   10.3648  -15.9198   27.3547 O   0  0  0  0  0  0  0  0  0  0  0  0
  2  1  1  0
  3  2  2  0
  4  3  1  0
  5 11  1  0
  5  4  2  0
  6  7  1  0
  6  5  1  0
  7  9  1  0
  7  8  1  6
  9 10  2  0
 11 12  2  0
 12  2  1  0
 13 14  1  0
 13  9  1  0
 14 25  1  0
 15 16  1  0
 14 15  1  1
 16 24  1  0
 17 16  2  0
 17 18  1  0
 18 19  1  0
 19 20  1  0
 20 21  2  0
 22 21  1  0
 23 22  2  0
 24 19  2  0
 24 23  1  0
 25 31  1  0
 26 25  2  0
 28 27  1  6
 28 29  1  0
 30 28  1  0
 30 31  1  6
 32 30  1  0
 33 32  1  0
 34 32  2  0
M  END
$$$$
