YWT.pdb
     RDKit          3D

 34 36  0  0  1  0  0  0  0  0999 V2000
    6.8785  -13.7381   15.0075 O   0  0  0  0  0  0  0  0  0  0  0  0
    7.8011  -13.7453   16.0584 C   0  0  0  0  0  0  0  0  0  0  0  0
    8.9790  -14.4365   15.9523 C   0  0  0  0  0  0  0  0  0  0  0  0
    9.8979  -14.4448   16.9970 C   0  0  0  0  0  0  0  0  0  0  0  0
    9.6640  -13.7632   18.1734 C   0  0  0  0  0  0  0  0  0  0  0  0
   10.6719  -13.8052   19.2488 C   0  0  0  0  0  0  0  0  0  0  0  0
   10.7773  -15.1541   19.9002 C   0  0  2  0  0  0  0  0  0  0  0  0
    9.8700  -16.1275   19.3517 N   0  0  0  0  0  0  0  0  0  0  0  0
   10.5005  -14.9771   21.3572 C   0  0  0  0  0  0  0  0  0  0  0  0
   11.2441  -14.2305   22.0436 O   0  0  0  0  0  0  0  0  0  0  0  0
    8.4737  -13.0719   18.2654 C   0  0  0  0  0  0  0  0  0  0  0  0
    7.5520  -13.0586   17.2282 C   0  0  0  0  0  0  0  0  0  0  0  0
    9.4152  -15.6295   22.0027 N   0  0  0  0  0  0  0  0  0  0  0  0
    8.9987  -15.3611   23.3630 C   0  0  1  0  0  0  0  0  0  0  0  0
    7.5207  -15.1672   23.4636 C   0  0  0  0  0  0  0  0  0  0  0  0
    7.0901  -14.7419   24.8191 C   0  0  0  0  0  0  0  0  0  0  0  0
    6.4858  -15.4970   25.8033 C   0  0  0  0  0  0  0  0  0  0  0  0
    6.2540  -14.7409   26.8878 N   0  0  0  0  0  0  0  0  0  0  0  0
    6.6937  -13.5059   26.6350 C   0  0  0  0  0  0  0  0  0  0  0  0
    6.7223  -12.3156   27.3680 C   0  0  0  0  0  0  0  0  0  0  0  0
    7.2586  -11.1856   26.8040 C   0  0  0  0  0  0  0  0  0  0  0  0
    7.7735  -11.1787   25.5353 C   0  0  0  0  0  0  0  0  0  0  0  0
    7.7534  -12.3313   24.8069 C   0  0  0  0  0  0  0  0  0  0  0  0
    7.2127  -13.4793   25.3692 C   0  0  0  0  0  0  0  0  0  0  0  0
    9.5231  -16.4510   24.2180 C   0  0  0  0  0  0  0  0  0  0  0  0
    9.0090  -16.5695   25.3634 O   0  0  0  0  0  0  0  0  0  0  0  0
    9.7201  -20.2246   23.6550 C   0  0  0  0  0  0  0  0  0  0  0  0
   11.1018  -19.7162   24.0347 C   0  0  1  0  0  0  0  0  0  0  0  0
   11.8768  -19.5829   22.8805 O   0  0  0  0  0  0  0  0  0  0  0  0
   10.9255  -18.3988   24.7448 C   0  0  2  0  0  0  0  0  0  0  0  0
   10.5343  -17.3410   23.8424 N   0  0  0  0  0  0  0  0  0  0  0  0
   12.2517  -18.0795   25.3852 C   0  0  0  0  0  0  0  0  0  0  0  0
   12.7469  -18.8808   26.4030 O   0  0  0  0  0  0  0  0  0  0  0  0
   12.9456  -17.0964   25.0300 O   0  0  0  0  0  0  0  0  0  0  0  0
  2  1  1  0
  3  2  2  0
  4  3  1  0
  5 11  1  0
  5  4  2  0
  6  7  1  0
  6  5  1  0
  7  9  1  0
  7  8  1  6
  9 10  2  0
 11 12  2  0
 12  2  1  0
 13 14  1  0
 13  9  1  0
 14 25  1  0
 15 16  1  0
 14 15  1  6
 16 24  1  0
 17 16  2  0
 17 18  1  0
 18 19  1  0
 19 20  1  0
 20 21  2  0
 22 21  1  0
 23 22  2  0
 24 19  2  0
 24 23  1  0
 25 31  1  0
 26 25  2  0
 28 27  1  6
 28 29  1  0
 30 28  1  0
 30 31  1  6
 32 30  1  0
 33 32  1  0
 34 32  2  0
M  END
$$$$
