YWT.pdb
     RDKit          3D

 34 36  0  0  1  0  0  0  0  0999 V2000
    7.2991  -12.9488   16.3471 O   0  0  0  0  0  0  0  0  0  0  0  0
    7.5680  -13.2499   17.6860 C   0  0  0  0  0  0  0  0  0  0  0  0
    8.6446  -12.6959   18.3266 C   0  0  0  0  0  0  0  0  0  0  0  0
    8.9135  -12.9946   19.6586 C   0  0  0  0  0  0  0  0  0  0  0  0
    8.1144  -13.8535   20.3844 C   0  0  0  0  0  0  0  0  0  0  0  0
    8.4447  -14.1354   21.7935 C   0  0  0  0  0  0  0  0  0  0  0  0
    9.1642  -15.4407   21.9763 C   0  0  2  0  0  0  0  0  0  0  0  0
    8.4151  -16.5779   21.5106 N   0  0  0  0  0  0  0  0  0  0  0  0
    9.4575  -15.5968   23.4326 C   0  0  0  0  0  0  0  0  0  0  0  0
   10.2402  -14.7909   23.9976 O   0  0  0  0  0  0  0  0  0  0  0  0
    7.0340  -14.4035   19.7259 C   0  0  0  0  0  0  0  0  0  0  0  0
    6.7590  -14.1108   18.3977 C   0  0  0  0  0  0  0  0  0  0  0  0
    8.8775  -16.6351   24.2108 N   0  0  0  0  0  0  0  0  0  0  0  0
    9.1309  -16.8308   25.6227 C   0  0  1  0  0  0  0  0  0  0  0  0
    7.8781  -16.7334   26.4309 C   0  0  0  0  0  0  0  0  0  0  0  0
    7.1091  -15.4956   26.1480 C   0  0  0  0  0  0  0  0  0  0  0  0
    5.9022  -15.3669   25.4916 C   0  0  0  0  0  0  0  0  0  0  0  0
    5.5404  -14.0753   25.4404 N   0  0  0  0  0  0  0  0  0  0  0  0
    6.4849  -13.3547   26.0496 C   0  0  0  0  0  0  0  0  0  0  0  0
    6.6544  -11.9901   26.3020 C   0  0  0  0  0  0  0  0  0  0  0  0
    7.7710  -11.5589   26.9728 C   0  0  0  0  0  0  0  0  0  0  0  0
    8.7376  -12.4245   27.4100 C   0  0  0  0  0  0  0  0  0  0  0  0
    8.5876  -13.7588   27.1720 C   0  0  0  0  0  0  0  0  0  0  0  0
    7.4613  -14.2041   26.4941 C   0  0  0  0  0  0  0  0  0  0  0  0
    9.8494  -18.1167   25.7774 C   0  0  0  0  0  0  0  0  0  0  0  0
    9.1484  -19.1646   25.7461 O   0  0  0  0  0  0  0  0  0  0  0  0
   12.6468  -19.7777   23.8814 C   0  0  0  0  0  0  0  0  0  0  0  0
   13.0558  -19.7578   25.3457 C   0  0  1  0  0  0  0  0  0  0  0  0
   13.9889  -18.7388   25.5496 O   0  0  0  0  0  0  0  0  0  0  0  0
   11.8095  -19.5468   26.1660 C   0  0  2  0  0  0  0  0  0  0  0  0
   11.2312  -18.2405   25.9531 N   0  0  0  0  0  0  0  0  0  0  0  0
   12.2156  -19.7131   27.6078 C   0  0  0  0  0  0  0  0  0  0  0  0
   12.1127  -18.6480   28.4898 O   0  0  0  0  0  0  0  0  0  0  0  0
   12.6537  -20.7995   28.0573 O   0  0  0  0  0  0  0  0  0  0  0  0
  2  1  1  0
  3  2  2  0
  4  3  1  0
  5 11  1  0
  5  4  2  0
  6  7  1  0
  6  5  1  0
  7  9  1  0
  7  8  1  1
  9 10  2  0
 11 12  2  0
 12  2  1  0
 13 14  1  0
 13  9  1  0
 14 25  1  0
 15 16  1  0
 14 15  1  1
 16 24  1  0
 17 16  2  0
 17 18  1  0
 18 19  1  0
 19 20  1  0
 20 21  2  0
 22 21  1  0
 23 22  2  0
 24 19  2  0
 24 23  1  0
 25 31  1  0
 26 25  2  0
 28 27  1  6
 28 29  1  0
 30 28  1  0
 30 31  1  1
 32 30  1  0
 33 32  1  0
 34 32  2  0
M  END
$$$$
