YWT.pdb
     RDKit          3D

 34 36  0  0  1  0  0  0  0  0999 V2000
   12.0646  -16.6703   32.3637 O   0  0  0  0  0  0  0  0  0  0  0  0
   11.7939  -16.6936   30.9919 C   0  0  0  0  0  0  0  0  0  0  0  0
   11.0182  -15.7237   30.4140 C   0  0  0  0  0  0  0  0  0  0  0  0
   10.7480  -15.7455   29.0493 C   0  0  0  0  0  0  0  0  0  0  0  0
   11.2455  -16.7357   28.2276 C   0  0  0  0  0  0  0  0  0  0  0  0
   10.9284  -16.7110   26.7878 C   0  0  0  0  0  0  0  0  0  0  0  0
    9.6553  -17.4348   26.4561 C   0  0  2  0  0  0  0  0  0  0  0  0
    9.6647  -18.8195   26.8486 N   0  0  0  0  0  0  0  0  0  0  0  0
    9.4475  -17.3342   24.9804 C   0  0  0  0  0  0  0  0  0  0  0  0
    9.5907  -18.3568   24.2628 O   0  0  0  0  0  0  0  0  0  0  0  0
   12.0249  -17.7053   28.8239 C   0  0  0  0  0  0  0  0  0  0  0  0
   12.2991  -17.6908   30.1841 C   0  0  0  0  0  0  0  0  0  0  0  0
    9.0900  -16.1107   24.3516 N   0  0  0  0  0  0  0  0  0  0  0  0
    8.7294  -15.9901   22.9547 C   0  0  1  0  0  0  0  0  0  0  0  0
    7.7698  -14.8685   22.7233 C   0  0  0  0  0  0  0  0  0  0  0  0
    6.9587  -14.5518   23.9255 C   0  0  0  0  0  0  0  0  0  0  0  0
    6.0722  -15.3655   24.6007 C   0  0  0  0  0  0  0  0  0  0  0  0
    5.5384  -14.7041   25.6396 N   0  0  0  0  0  0  0  0  0  0  0  0
    6.0565  -13.4738   25.6595 C   0  0  0  0  0  0  0  0  0  0  0  0
    5.8849  -12.3604   26.4876 C   0  0  0  0  0  0  0  0  0  0  0  0
    6.5870  -11.2101   26.2300 C   0  0  0  0  0  0  0  0  0  0  0  0
    7.4603  -11.1093   25.1802 C   0  0  0  0  0  0  0  0  0  0  0  0
    7.6393  -12.1861   24.3629 C   0  0  0  0  0  0  0  0  0  0  0  0
    6.9332  -13.3540   24.6157 C   0  0  0  0  0  0  0  0  0  0  0  0
    9.9831  -15.8813   22.1735 C   0  0  0  0  0  0  0  0  0  0  0  0
   11.0477  -15.7219   22.8304 O   0  0  0  0  0  0  0  0  0  0  0  0
   12.4691  -18.5651   19.6045 C   0  0  0  0  0  0  0  0  0  0  0  0
   11.3169  -18.0164   20.4310 C   0  0  1  0  0  0  0  0  0  0  0  0
   11.5558  -18.2742   21.7827 O   0  0  0  0  0  0  0  0  0  0  0  0
   11.2173  -16.5388   20.1529 C   0  0  2  0  0  0  0  0  0  0  0  0
   10.0598  -15.9429   20.7786 N   0  0  0  0  0  0  0  0  0  0  0  0
   11.1392  -16.3916   18.6551 C   0  0  0  0  0  0  0  0  0  0  0  0
   12.2539  -15.9923   17.9334 O   0  0  0  0  0  0  0  0  0  0  0  0
   10.0842  -16.6199   18.0156 O   0  0  0  0  0  0  0  0  0  0  0  0
  2  1  1  0
  3  2  2  0
  4  3  1  0
  5 11  1  0
  5  4  2  0
  6  7  1  0
  6  5  1  0
  7  9  1  0
  7  8  1  6
  9 10  2  0
 11 12  2  0
 12  2  1  0
 13 14  1  0
 13  9  1  0
 14 25  1  0
 15 16  1  0
 14 15  1  1
 16 24  1  0
 17 16  2  0
 17 18  1  0
 18 19  1  0
 19 20  1  0
 20 21  2  0
 22 21  1  0
 23 22  2  0
 24 19  2  0
 24 23  1  0
 25 31  1  0
 26 25  2  0
 28 27  1  6
 28 29  1  0
 30 28  1  0
 30 31  1  1
 32 30  1  0
 33 32  1  0
 34 32  2  0
M  END
$$$$
