YWT.pdb
     RDKit          3D

 34 36  0  0  1  0  0  0  0  0999 V2000
    7.7527  -13.6848   15.9284 O   0  0  0  0  0  0  0  0  0  0  0  0
    8.0273  -13.7893   17.2957 C   0  0  0  0  0  0  0  0  0  0  0  0
    8.8029  -14.8097   17.7789 C   0  0  0  0  0  0  0  0  0  0  0  0
    9.0770  -14.9151   19.1389 C   0  0  0  0  0  0  0  0  0  0  0  0
    8.5838  -14.0044   20.0503 C   0  0  0  0  0  0  0  0  0  0  0  0
    8.9051  -14.1628   21.4806 C   0  0  0  0  0  0  0  0  0  0  0  0
    8.9244  -15.5983   21.9209 C   0  0  2  0  0  0  0  0  0  0  0  0
    7.6912  -16.2937   21.6613 N   0  0  0  0  0  0  0  0  0  0  0  0
    9.2120  -15.6196   23.3864 C   0  0  0  0  0  0  0  0  0  0  0  0
    9.7200  -14.6077   23.9335 O   0  0  0  0  0  0  0  0  0  0  0  0
    7.8045  -12.9825   19.5488 C   0  0  0  0  0  0  0  0  0  0  0  0
    7.5265  -12.8703   18.1940 C   0  0  0  0  0  0  0  0  0  0  0  0
    8.9292  -16.7549   24.1934 N   0  0  0  0  0  0  0  0  0  0  0  0
    9.2685  -16.8591   25.5969 C   0  0  1  0  0  0  0  0  0  0  0  0
    8.0814  -16.6286   26.4742 C   0  0  0  0  0  0  0  0  0  0  0  0
    7.2871  -15.4437   26.0632 C   0  0  0  0  0  0  0  0  0  0  0  0
    6.1439  -15.4033   25.2916 C   0  0  0  0  0  0  0  0  0  0  0  0
    5.7300  -14.1347   25.1465 N   0  0  0  0  0  0  0  0  0  0  0  0
    6.5781  -13.3428   25.8069 C   0  0  0  0  0  0  0  0  0  0  0  0
    6.6602  -11.9619   26.0099 C   0  0  0  0  0  0  0  0  0  0  0  0
    7.6868  -11.4476   26.7612 C   0  0  0  0  0  0  0  0  0  0  0  0
    8.6457  -12.2447   27.3268 C   0  0  0  0  0  0  0  0  0  0  0  0
    8.5802  -13.5937   27.1385 C   0  0  0  0  0  0  0  0  0  0  0  0
    7.5453  -14.1228   26.3799 C   0  0  0  0  0  0  0  0  0  0  0  0
    9.9263  -18.1698   25.8052 C   0  0  0  0  0  0  0  0  0  0  0  0
    9.1703  -19.1530   26.0335 O   0  0  0  0  0  0  0  0  0  0  0  0
   13.2965  -19.6787   24.1563 C   0  0  0  0  0  0  0  0  0  0  0  0
   13.2684  -19.8477   25.6670 C   0  0  1  0  0  0  0  0  0  0  0  0
   14.1142  -18.9027   26.2521 O   0  0  0  0  0  0  0  0  0  0  0  0
   11.8414  -19.6769   26.1201 C   0  0  2  0  0  0  0  0  0  0  0  0
   11.3079  -18.3823   25.7657 N   0  0  0  0  0  0  0  0  0  0  0  0
   11.8461  -19.8516   27.6169 C   0  0  0  0  0  0  0  0  0  0  0  0
   12.2644  -21.0481   28.1793 O   0  0  0  0  0  0  0  0  0  0  0  0
   11.4790  -18.9400   28.3970 O   0  0  0  0  0  0  0  0  0  0  0  0
  2  1  1  0
  3  2  2  0
  4  3  1  0
  5 11  1  0
  5  4  2  0
  6  7  1  0
  6  5  1  0
  7  9  1  0
  7  8  1  1
  9 10  2  0
 11 12  2  0
 12  2  1  0
 13 14  1  0
 13  9  1  0
 14 25  1  0
 15 16  1  0
 14 15  1  1
 16 24  1  0
 17 16  2  0
 17 18  1  0
 18 19  1  0
 19 20  1  0
 20 21  2  0
 22 21  1  0
 23 22  2  0
 24 19  2  0
 24 23  1  0
 25 31  1  0
 26 25  2  0
 28 27  1  6
 28 29  1  0
 30 28  1  0
 30 31  1  1
 32 30  1  0
 33 32  1  0
 34 32  2  0
M  END
$$$$
