YWT.pdb
     RDKit          3D

 34 36  0  0  1  0  0  0  0  0999 V2000
    7.5830  -13.4771   15.7329 O   0  0  0  0  0  0  0  0  0  0  0  0
    7.9144  -13.6188   17.0842 C   0  0  0  0  0  0  0  0  0  0  0  0
    9.1182  -14.1549   17.4581 C   0  0  0  0  0  0  0  0  0  0  0  0
    9.4493  -14.2967   18.8021 C   0  0  0  0  0  0  0  0  0  0  0  0
    8.5872  -13.9067   19.8060 C   0  0  0  0  0  0  0  0  0  0  0  0
    8.9883  -14.0792   21.2143 C   0  0  0  0  0  0  0  0  0  0  0  0
    9.0461  -15.5198   21.6344 C   0  0  2  0  0  0  0  0  0  0  0  0
    7.8044  -16.2222   21.4439 N   0  0  0  0  0  0  0  0  0  0  0  0
    9.4253  -15.5562   23.0787 C   0  0  0  0  0  0  0  0  0  0  0  0
   10.0739  -14.5996   23.5740 O   0  0  0  0  0  0  0  0  0  0  0  0
    7.3789  -13.3687   19.4139 C   0  0  0  0  0  0  0  0  0  0  0  0
    7.0410  -13.2239   18.0759 C   0  0  0  0  0  0  0  0  0  0  0  0
    9.0756  -16.6455   23.9222 N   0  0  0  0  0  0  0  0  0  0  0  0
    9.4221  -16.7305   25.3252 C   0  0  1  0  0  0  0  0  0  0  0  0
    8.2104  -16.7106   26.1991 C   0  0  0  0  0  0  0  0  0  0  0  0
    7.3403  -15.5352   25.9447 C   0  0  0  0  0  0  0  0  0  0  0  0
    6.1326  -15.4902   25.2787 C   0  0  0  0  0  0  0  0  0  0  0  0
    5.6616  -14.2334   25.2622 N   0  0  0  0  0  0  0  0  0  0  0  0
    6.5352  -13.4537   25.9035 C   0  0  0  0  0  0  0  0  0  0  0  0
    6.5845  -12.0879   26.1987 C   0  0  0  0  0  0  0  0  0  0  0  0
    7.6539  -11.5836   26.8948 C   0  0  0  0  0  0  0  0  0  0  0  0
    8.6875  -12.3763   27.3169 C   0  0  0  0  0  0  0  0  0  0  0  0
    8.6549  -13.7106   27.0372 C   0  0  0  0  0  0  0  0  0  0  0  0
    7.5771  -14.2295   26.3334 C   0  0  0  0  0  0  0  0  0  0  0  0
   10.2762  -17.9269   25.5065 C   0  0  0  0  0  0  0  0  0  0  0  0
    9.9335  -18.9675   24.8820 O   0  0  0  0  0  0  0  0  0  0  0  0
   14.0092  -20.6331   26.8467 C   0  0  0  0  0  0  0  0  0  0  0  0
   13.5080  -19.2159   26.6186 C   0  0  1  0  0  0  0  0  0  0  0  0
   13.9911  -18.7477   25.3947 O   0  0  0  0  0  0  0  0  0  0  0  0
   12.0018  -19.2531   26.6476 C   0  0  2  0  0  0  0  0  0  0  0  0
   11.4182  -17.9751   26.3122 N   0  0  0  0  0  0  0  0  0  0  0  0
   11.6127  -19.6576   28.0462 C   0  0  0  0  0  0  0  0  0  0  0  0
   11.8526  -20.9486   28.4922 O   0  0  0  0  0  0  0  0  0  0  0  0
   11.0675  -18.8587   28.8454 O   0  0  0  0  0  0  0  0  0  0  0  0
  2  1  1  0
  3  2  2  0
  4  3  1  0
  5 11  1  0
  5  4  2  0
  6  7  1  0
  6  5  1  0
  7  9  1  0
  7  8  1  1
  9 10  2  0
 11 12  2  0
 12  2  1  0
 13 14  1  0
 13  9  1  0
 14 25  1  0
 15 16  1  0
 14 15  1  1
 16 24  1  0
 17 16  2  0
 17 18  1  0
 18 19  1  0
 19 20  1  0
 20 21  2  0
 22 21  1  0
 23 22  2  0
 24 19  2  0
 24 23  1  0
 25 31  1  0
 26 25  2  0
 28 27  1  6
 28 29  1  0
 30 28  1  0
 30 31  1  1
 32 30  1  0
 33 32  1  0
 34 32  2  0
M  END
$$$$
