YWT.pdb
     RDKit          3D

 34 36  0  0  1  0  0  0  0  0999 V2000
    9.6110  -22.0024   14.9546 O   0  0  0  0  0  0  0  0  0  0  0  0
    9.6988  -21.2145   16.1067 C   0  0  0  0  0  0  0  0  0  0  0  0
   10.6120  -20.1971   16.1922 C   0  0  0  0  0  0  0  0  0  0  0  0
   10.7005  -19.4123   17.3377 C   0  0  0  0  0  0  0  0  0  0  0  0
    9.8797  -19.6234   18.4262 C   0  0  0  0  0  0  0  0  0  0  0  0
   10.0155  -18.7621   19.6152 C   0  0  0  0  0  0  0  0  0  0  0  0
    9.2472  -17.4772   19.4982 C   0  0  2  0  0  0  0  0  0  0  0  0
    9.7119  -16.6268   18.4341 N   0  0  0  0  0  0  0  0  0  0  0  0
    9.3654  -16.7577   20.8018 C   0  0  0  0  0  0  0  0  0  0  0  0
   10.3811  -16.0527   21.0313 O   0  0  0  0  0  0  0  0  0  0  0  0
    8.9652  -20.6514   18.3252 C   0  0  0  0  0  0  0  0  0  0  0  0
    8.8705  -21.4387   17.1864 C   0  0  0  0  0  0  0  0  0  0  0  0
    8.3601  -16.8425   21.8029 N   0  0  0  0  0  0  0  0  0  0  0  0
    8.4140  -16.1440   23.0699 C   0  0  1  0  0  0  0  0  0  0  0  0
    7.0526  -15.7623   23.5525 C   0  0  0  0  0  0  0  0  0  0  0  0
    7.0682  -15.2054   24.9284 C   0  0  0  0  0  0  0  0  0  0  0  0
    6.9353  -15.8764   26.1268 C   0  0  0  0  0  0  0  0  0  0  0  0
    7.0030  -15.0106   27.1502 N   0  0  0  0  0  0  0  0  0  0  0  0
    7.1775  -13.7861   26.6477 C   0  0  0  0  0  0  0  0  0  0  0  0
    7.3144  -12.5144   27.2125 C   0  0  0  0  0  0  0  0  0  0  0  0
    7.4841  -11.4252   26.3956 C   0  0  0  0  0  0  0  0  0  0  0  0
    7.5252  -11.5370   25.0316 C   0  0  0  0  0  0  0  0  0  0  0  0
    7.3932  -12.7702   24.4646 C   0  0  0  0  0  0  0  0  0  0  0  0
    7.2211  -13.8778   25.2832 C   0  0  0  0  0  0  0  0  0  0  0  0
    9.1745  -16.9899   24.0186 C   0  0  0  0  0  0  0  0  0  0  0  0
    8.7935  -18.1857   24.1420 O   0  0  0  0  0  0  0  0  0  0  0  0
   12.4248  -18.2999   23.8177 C   0  0  0  0  0  0  0  0  0  0  0  0
   12.4142  -17.6580   25.1960 C   0  0  1  0  0  0  0  0  0  0  0  0
   13.0806  -16.4319   25.1383 O   0  0  0  0  0  0  0  0  0  0  0  0
   10.9755  -17.4930   25.6128 C   0  0  2  0  0  0  0  0  0  0  0  0
   10.2686  -16.5544   24.7729 N   0  0  0  0  0  0  0  0  0  0  0  0
   10.9985  -17.0078   27.0394 C   0  0  0  0  0  0  0  0  0  0  0  0
   11.5181  -17.8120   28.0425 O   0  0  0  0  0  0  0  0  0  0  0  0
   10.5573  -15.8804   27.3687 O   0  0  0  0  0  0  0  0  0  0  0  0
  2  1  1  0
  3  2  2  0
  4  3  1  0
  5 11  1  0
  5  4  2  0
  6  7  1  0
  6  5  1  0
  7  9  1  0
  7  8  1  6
  9 10  2  0
 11 12  2  0
 12  2  1  0
 13 14  1  0
 13  9  1  0
 14 25  1  0
 15 16  1  0
 14 15  1  1
 16 24  1  0
 17 16  2  0
 17 18  1  0
 18 19  1  0
 19 20  1  0
 20 21  2  0
 22 21  1  0
 23 22  2  0
 24 19  2  0
 24 23  1  0
 25 31  1  0
 26 25  2  0
 28 27  1  6
 28 29  1  0
 30 28  1  0
 30 31  1  6
 32 30  1  0
 33 32  1  0
 34 32  2  0
M  END
$$$$
