YWT.pdb
     RDKit          3D

 34 36  0  0  1  0  0  0  0  0999 V2000
    7.1015  -12.9697   16.5474 O   0  0  0  0  0  0  0  0  0  0  0  0
    7.3730  -13.2804   17.8836 C   0  0  0  0  0  0  0  0  0  0  0  0
    6.4956  -14.0304   18.6211 C   0  0  0  0  0  0  0  0  0  0  0  0
    6.7642  -14.3403   19.9506 C   0  0  0  0  0  0  0  0  0  0  0  0
    7.9153  -13.9094   20.5770 C   0  0  0  0  0  0  0  0  0  0  0  0
    8.1506  -14.2666   21.9881 C   0  0  0  0  0  0  0  0  0  0  0  0
    9.0682  -15.4443   22.1487 C   0  0  2  0  0  0  0  0  0  0  0  0
    8.4494  -16.7016   21.8203 N   0  0  0  0  0  0  0  0  0  0  0  0
    9.5296  -15.4695   23.5691 C   0  0  0  0  0  0  0  0  0  0  0  0
   10.2789  -14.5534   23.9942 O   0  0  0  0  0  0  0  0  0  0  0  0
    8.7892  -13.1552   19.8216 C   0  0  0  0  0  0  0  0  0  0  0  0
    8.5288  -12.8417   18.4952 C   0  0  0  0  0  0  0  0  0  0  0  0
    9.1480  -16.5030   24.4670 N   0  0  0  0  0  0  0  0  0  0  0  0
    9.7253  -16.6919   25.7812 C   0  0  1  0  0  0  0  0  0  0  0  0
    8.7685  -16.3210   26.8670 C   0  0  0  0  0  0  0  0  0  0  0  0
    7.6639  -15.4541   26.3854 C   0  0  0  0  0  0  0  0  0  0  0  0
    6.4953  -15.8260   25.7528 C   0  0  0  0  0  0  0  0  0  0  0  0
    5.7548  -14.7410   25.4768 N   0  0  0  0  0  0  0  0  0  0  0  0
    6.4136  -13.6657   25.9152 C   0  0  0  0  0  0  0  0  0  0  0  0
    6.1472  -12.2932   25.9083 C   0  0  0  0  0  0  0  0  0  0  0  0
    7.0571  -11.4239   26.4551 C   0  0  0  0  0  0  0  0  0  0  0  0
    8.2304  -11.8541   27.0145 C   0  0  0  0  0  0  0  0  0  0  0  0
    8.5056  -13.1897   27.0294 C   0  0  0  0  0  0  0  0  0  0  0  0
    7.5911  -14.0765   26.4784 C   0  0  0  0  0  0  0  0  0  0  0  0
   10.2162  -18.0871   25.8612 C   0  0  0  0  0  0  0  0  0  0  0  0
    9.3428  -18.9966   25.8464 O   0  0  0  0  0  0  0  0  0  0  0  0
   13.6740  -20.0244   24.7502 C   0  0  0  0  0  0  0  0  0  0  0  0
   13.3790  -20.0713   26.2410 C   0  0  1  0  0  0  0  0  0  0  0  0
   14.1864  -19.1414   26.8999 O   0  0  0  0  0  0  0  0  0  0  0  0
   11.9142  -19.7708   26.4273 C   0  0  2  0  0  0  0  0  0  0  0  0
   11.5629  -18.4533   25.9508 N   0  0  0  0  0  0  0  0  0  0  0  0
   11.6405  -19.8856   27.9048 C   0  0  0  0  0  0  0  0  0  0  0  0
   11.7098  -21.1193   28.5342 O   0  0  0  0  0  0  0  0  0  0  0  0
   11.3451  -18.8899   28.6088 O   0  0  0  0  0  0  0  0  0  0  0  0
  2  1  1  0
  3  2  2  0
  4  3  1  0
  5 11  1  0
  5  4  2  0
  6  7  1  0
  6  5  1  0
  7  9  1  0
  7  8  1  1
  9 10  2  0
 11 12  2  0
 12  2  1  0
 13 14  1  0
 13  9  1  0
 14 25  1  0
 15 16  1  0
 14 15  1  1
 16 24  1  0
 17 16  2  0
 17 18  1  0
 18 19  1  0
 19 20  1  0
 20 21  2  0
 22 21  1  0
 23 22  2  0
 24 19  2  0
 24 23  1  0
 25 31  1  0
 26 25  2  0
 28 27  1  6
 28 29  1  0
 30 28  1  0
 30 31  1  1
 32 30  1  0
 33 32  1  0
 34 32  2  0
M  END
$$$$
