YWT.pdb
     RDKit          3D

 34 36  0  0  1  0  0  0  0  0999 V2000
    8.9273  -13.7488   13.3543 O   0  0  0  0  0  0  0  0  0  0  0  0
    8.9965  -14.1638   14.6880 C   0  0  0  0  0  0  0  0  0  0  0  0
    9.7695  -15.2353   15.0495 C   0  0  0  0  0  0  0  0  0  0  0  0
    9.8394  -15.6494   16.3759 C   0  0  0  0  0  0  0  0  0  0  0  0
    9.1395  -15.0042   17.3745 C   0  0  0  0  0  0  0  0  0  0  0  0
    9.2495  -15.4845   18.7642 C   0  0  0  0  0  0  0  0  0  0  0  0
   10.1843  -14.6561   19.5977 C   0  0  2  0  0  0  0  0  0  0  0  0
   11.5582  -14.7465   19.1785 N   0  0  0  0  0  0  0  0  0  0  0  0
   10.0612  -15.1186   21.0126 C   0  0  0  0  0  0  0  0  0  0  0  0
   11.0982  -15.4029   21.6647 O   0  0  0  0  0  0  0  0  0  0  0  0
    8.3656  -13.9270   16.9951 C   0  0  0  0  0  0  0  0  0  0  0  0
    8.2905  -13.5077   15.6745 C   0  0  0  0  0  0  0  0  0  0  0  0
    8.8003  -15.2505   21.6552 N   0  0  0  0  0  0  0  0  0  0  0  0
    8.5882  -15.0627   23.0749 C   0  0  1  0  0  0  0  0  0  0  0  0
    7.1957  -14.6114   23.3739 C   0  0  0  0  0  0  0  0  0  0  0  0
    6.9353  -14.4838   24.8297 C   0  0  0  0  0  0  0  0  0  0  0  0
    6.4910  -15.4496   25.7093 C   0  0  0  0  0  0  0  0  0  0  0  0
    6.3813  -14.9339   26.9437 N   0  0  0  0  0  0  0  0  0  0  0  0
    6.7444  -13.6502   26.8915 C   0  0  0  0  0  0  0  0  0  0  0  0
    6.8323  -12.6259   27.8392 C   0  0  0  0  0  0  0  0  0  0  0  0
    7.2532  -11.3788   27.4515 C   0  0  0  0  0  0  0  0  0  0  0  0
    7.5950  -11.0954   26.1563 C   0  0  0  0  0  0  0  0  0  0  0  0
    7.5149  -12.0832   25.2196 C   0  0  0  0  0  0  0  0  0  0  0  0
    7.0900  -13.3477   25.6026 C   0  0  0  0  0  0  0  0  0  0  0  0
    8.9743  -16.3189   23.7581 C   0  0  0  0  0  0  0  0  0  0  0  0
    8.3940  -17.3720   23.3776 O   0  0  0  0  0  0  0  0  0  0  0  0
   11.6613  -18.3808   23.4678 C   0  0  0  0  0  0  0  0  0  0  0  0
   11.6366  -18.1513   24.9706 C   0  0  1  0  0  0  0  0  0  0  0  0
   12.5981  -17.1956   25.3066 O   0  0  0  0  0  0  0  0  0  0  0  0
   10.2473  -17.7007   25.3419 C   0  0  2  0  0  0  0  0  0  0  0  0
    9.9243  -16.4098   24.7802 N   0  0  0  0  0  0  0  0  0  0  0  0
   10.2062  -17.6440   26.8473 C   0  0  0  0  0  0  0  0  0  0  0  0
   10.3769  -18.7995   27.5947 O   0  0  0  0  0  0  0  0  0  0  0  0
   10.0196  -16.5711   27.4705 O   0  0  0  0  0  0  0  0  0  0  0  0
  2  1  1  0
  3  2  2  0
  4  3  1  0
  5 11  1  0
  5  4  2  0
  6  7  1  0
  6  5  1  0
  7  9  1  0
  7  8  1  6
  9 10  2  0
 11 12  2  0
 12  2  1  0
 13 14  1  0
 13  9  1  0
 14 25  1  0
 15 16  1  0
 14 15  1  6
 16 24  1  0
 17 16  2  0
 17 18  1  0
 18 19  1  0
 19 20  1  0
 20 21  2  0
 22 21  1  0
 23 22  2  0
 24 19  2  0
 24 23  1  0
 25 31  1  0
 26 25  2  0
 28 27  1  6
 28 29  1  0
 30 28  1  0
 30 31  1  6
 32 30  1  0
 33 32  1  0
 34 32  2  0
M  END
$$$$
