TSG.pdb
     RDKit          3D

 18 17  0  0  1  0  0  0  0  0999 V2000
   23.8584  -20.2336   -9.8363 C   0  0  0  0  0  0  0  0  0  0  0  0
   25.3065  -20.2722  -10.2409 C   0  0  1  0  0  0  0  0  0  0  0  0
   26.0350  -20.6464   -9.0990 O   0  0  0  0  0  0  0  0  0  0  0  0
   25.4908  -21.4209  -11.2192 C   0  0  2  0  0  0  0  0  0  0  0  0
   26.9356  -21.5030  -11.5646 N   0  0  0  0  0  0  0  0  0  0  0  0
   24.7921  -21.2088  -12.5038 C   0  0  0  0  0  0  0  0  0  0  0  0
   25.4154  -20.6247  -13.4489 O   0  0  0  0  0  0  0  0  0  0  0  0
   20.7945  -21.7475  -12.7910 O   0  0  0  0  0  0  0  0  0  0  0  0
   21.4557  -22.0319  -13.9875 C   0  0  0  0  0  0  0  0  0  0  0  0
   22.8094  -21.3554  -14.0458 C   0  0  2  0  0  0  0  0  0  0  0  0
   23.4799  -21.6038  -12.7770 N   0  0  0  0  0  0  0  0  0  0  0  0
   22.5646  -19.8918  -14.2306 C   0  0  0  0  0  0  0  0  0  0  0  0
   22.3040  -19.1252  -13.2583 O   0  0  0  0  0  0  0  0  0  0  0  0
   22.6134  -19.2861  -15.5195 N   0  0  0  0  0  0  0  0  0  0  0  0
   22.4457  -17.8601  -15.6865 C   0  0  0  0  0  0  0  0  0  0  0  0
   22.5377  -17.4549  -17.0981 C   0  0  0  0  0  0  0  0  0  0  0  0
   22.7427  -18.3353  -17.9697 O   0  0  0  0  0  0  0  0  0  0  0  0
   22.4094  -16.1436  -17.5225 O   0  0  0  0  0  0  0  0  0  0  0  0
  2  1  1  1
  3  2  1  0
  4  6  1  0
  4  2  1  0
  4  5  1  6
  6  7  2  0
  8  9  1  0
 10  9  1  1
 11 10  1  0
 11  6  1  0
 12 14  1  0
 12 10  1  0
 13 12  2  0
 15 14  1  0
 15 16  1  0
 16 18  1  0
 17 16  2  0
M  END
$$$$
