TSG.pdb
     RDKit          3D

 18 17  0  0  1  0  0  0  0  0999 V2000
   17.5450   -9.1470  -17.9429 C   0  0  0  0  0  0  0  0  0  0  0  0
   16.9819  -10.3254  -17.1970 C   0  0  1  0  0  0  0  0  0  0  0  0
   16.0664  -10.9500  -18.0609 O   0  0  0  0  0  0  0  0  0  0  0  0
   18.0986  -11.3391  -17.0074 C   0  0  2  0  0  0  0  0  0  0  0  0
   17.5236  -12.5363  -16.3370 N   0  0  0  0  0  0  0  0  0  0  0  0
   19.1700  -10.8629  -16.1081 C   0  0  0  0  0  0  0  0  0  0  0  0
   18.8945  -10.6674  -14.8798 O   0  0  0  0  0  0  0  0  0  0  0  0
   22.9923  -11.9748  -15.3167 O   0  0  0  0  0  0  0  0  0  0  0  0
   22.8219  -10.7556  -15.9755 C   0  0  0  0  0  0  0  0  0  0  0  0
   21.5115  -10.0991  -15.5940 C   0  0  2  0  0  0  0  0  0  0  0  0
   20.4871  -10.6051  -16.4972 N   0  0  0  0  0  0  0  0  0  0  0  0
   21.6866   -8.6251  -15.7744 C   0  0  0  0  0  0  0  0  0  0  0  0
   21.6953   -8.0836  -16.9179 O   0  0  0  0  0  0  0  0  0  0  0  0
   21.8531   -7.7535  -14.6595 N   0  0  0  0  0  0  0  0  0  0  0  0
   21.9339   -6.3205  -14.8313 C   0  0  0  0  0  0  0  0  0  0  0  0
   21.9839   -5.6118  -13.5427 C   0  0  0  0  0  0  0  0  0  0  0  0
   21.8615   -6.2726  -12.4819 O   0  0  0  0  0  0  0  0  0  0  0  0
   22.1603   -4.2432  -13.4342 O   0  0  0  0  0  0  0  0  0  0  0  0
  2  1  1  6
  3  2  1  0
  4  6  1  0
  4  2  1  0
  4  5  1  1
  6  7  2  0
  8  9  1  0
 10  9  1  6
 11 10  1  0
 11  6  1  0
 12 14  1  0
 12 10  1  0
 13 12  2  0
 15 14  1  0
 15 16  1  0
 16 18  1  0
 17 16  2  0
M  END
$$$$
