TSG.pdb
     RDKit          3D

 18 17  0  0  1  0  0  0  0  0999 V2000
   17.7881   -7.8471  -16.9669 C   0  0  0  0  0  0  0  0  0  0  0  0
   17.2014   -8.7860  -15.9489 C   0  0  1  0  0  0  0  0  0  0  0  0
   16.0726   -9.3736  -16.5449 O   0  0  0  0  0  0  0  0  0  0  0  0
   18.1803   -9.9311  -15.7462 C   0  0  2  0  0  0  0  0  0  0  0  0
   17.5468  -10.9214  -14.8344 N   0  0  0  0  0  0  0  0  0  0  0  0
   19.4273   -9.5175  -15.0701 C   0  0  0  0  0  0  0  0  0  0  0  0
   19.3629   -9.1132  -13.8637 O   0  0  0  0  0  0  0  0  0  0  0  0
   23.3647  -10.9088  -15.3954 O   0  0  0  0  0  0  0  0  0  0  0  0
   23.0924   -9.5846  -15.7445 C   0  0  0  0  0  0  0  0  0  0  0  0
   21.8975   -9.0467  -14.9853 C   0  0  2  0  0  0  0  0  0  0  0  0
   20.6977   -9.5338  -15.6519 N   0  0  0  0  0  0  0  0  0  0  0  0
   21.9652   -7.5545  -15.0541 C   0  0  0  0  0  0  0  0  0  0  0  0
   21.6045   -6.9114  -16.0823 O   0  0  0  0  0  0  0  0  0  0  0  0
   22.4424   -6.7799  -13.9574 N   0  0  0  0  0  0  0  0  0  0  0  0
   22.5990   -5.3466  -14.0614 C   0  0  0  0  0  0  0  0  0  0  0  0
   21.3470   -4.6316  -13.7673 C   0  0  0  0  0  0  0  0  0  0  0  0
   21.3643   -3.3774  -13.7083 O   0  0  0  0  0  0  0  0  0  0  0  0
   20.1391   -5.2717  -13.5500 O   0  0  0  0  0  0  0  0  0  0  0  0
  2  1  1  6
  3  2  1  0
  4  6  1  0
  4  2  1  0
  4  5  1  1
  6  7  2  0
  8  9  1  0
 10  9  1  6
 11 10  1  0
 11  6  1  0
 12 14  1  0
 12 10  1  0
 13 12  2  0
 15 14  1  0
 15 16  1  0
 16 18  1  0
 17 16  2  0
M  END
$$$$
