TSG.pdb
     RDKit          3D

 18 17  0  0  1  0  0  0  0  0999 V2000
   17.8908   -8.7255  -17.8806 C   0  0  0  0  0  0  0  0  0  0  0  0
   17.4844   -9.8529  -16.9719 C   0  0  1  0  0  0  0  0  0  0  0  0
   16.8542  -10.8151  -17.7792 O   0  0  0  0  0  0  0  0  0  0  0  0
   18.7488  -10.5295  -16.4676 C   0  0  2  0  0  0  0  0  0  0  0  0
   18.3457  -11.6945  -15.6348 N   0  0  0  0  0  0  0  0  0  0  0  0
   19.5526   -9.6690  -15.5751 C   0  0  0  0  0  0  0  0  0  0  0  0
   19.0613   -9.3281  -14.4502 O   0  0  0  0  0  0  0  0  0  0  0  0
   23.5030   -9.7420  -14.6974 O   0  0  0  0  0  0  0  0  0  0  0  0
   23.0582   -8.5411  -15.2536 C   0  0  0  0  0  0  0  0  0  0  0  0
   21.5866   -8.3145  -14.9764 C   0  0  2  0  0  0  0  0  0  0  0  0
   20.8324   -9.1886  -15.8643 N   0  0  0  0  0  0  0  0  0  0  0  0
   21.2949   -6.8801  -15.2822 C   0  0  0  0  0  0  0  0  0  0  0  0
   21.0452   -6.4798  -16.4562 O   0  0  0  0  0  0  0  0  0  0  0  0
   21.2840   -5.8884  -14.2591 N   0  0  0  0  0  0  0  0  0  0  0  0
   20.9150   -4.5199  -14.5427 C   0  0  0  0  0  0  0  0  0  0  0  0
   22.0129   -3.7716  -15.1750 C   0  0  0  0  0  0  0  0  0  0  0  0
   23.1336   -4.3251  -15.2956 O   0  0  0  0  0  0  0  0  0  0  0  0
   21.8772   -2.4781  -15.6488 O   0  0  0  0  0  0  0  0  0  0  0  0
  2  1  1  6
  3  2  1  0
  4  6  1  0
  4  2  1  0
  4  5  1  1
  6  7  2  0
  8  9  1  0
 10  9  1  6
 11 10  1  0
 11  6  1  0
 12 14  1  0
 12 10  1  0
 13 12  2  0
 15 14  1  0
 15 16  1  0
 16 18  1  0
 17 16  2  0
M  END
$$$$
