TSG.pdb
     RDKit          3D

 18 17  0  0  1  0  0  0  0  0999 V2000
   18.3436   -8.8173  -18.6886 C   0  0  0  0  0  0  0  0  0  0  0  0
   17.4845   -9.7842  -17.9211 C   0  0  1  0  0  0  0  0  0  0  0  0
   16.5984  -10.3601  -18.8473 O   0  0  0  0  0  0  0  0  0  0  0  0
   18.3675  -10.9307  -17.4558 C   0  0  2  0  0  0  0  0  0  0  0  0
   17.5111  -11.9025  -16.7238 N   0  0  0  0  0  0  0  0  0  0  0  0
   19.4018  -10.5123  -16.4871 C   0  0  0  0  0  0  0  0  0  0  0  0
   19.0476  -10.2443  -15.2931 O   0  0  0  0  0  0  0  0  0  0  0  0
   23.2205  -11.8477  -15.8909 O   0  0  0  0  0  0  0  0  0  0  0  0
   23.0957  -10.4997  -16.2328 C   0  0  0  0  0  0  0  0  0  0  0  0
   21.7549   -9.9418  -15.8032 C   0  0  2  0  0  0  0  0  0  0  0  0
   20.7633  -10.3845  -16.7738 N   0  0  0  0  0  0  0  0  0  0  0  0
   21.8715   -8.4511  -15.8170 C   0  0  0  0  0  0  0  0  0  0  0  0
   21.8489   -7.7844  -16.8921 O   0  0  0  0  0  0  0  0  0  0  0  0
   22.0146   -7.7047  -14.6116 N   0  0  0  0  0  0  0  0  0  0  0  0
   21.9327   -6.2615  -14.6071 C   0  0  0  0  0  0  0  0  0  0  0  0
   22.1533   -5.7002  -13.2649 C   0  0  0  0  0  0  0  0  0  0  0  0
   22.2489   -6.4834  -12.2881 O   0  0  0  0  0  0  0  0  0  0  0  0
   22.2623   -4.3427  -13.0172 O   0  0  0  0  0  0  0  0  0  0  0  0
  2  1  1  6
  3  2  1  0
  4  6  1  0
  4  2  1  0
  4  5  1  1
  6  7  2  0
  8  9  1  0
 10  9  1  6
 11 10  1  0
 11  6  1  0
 12 14  1  0
 12 10  1  0
 13 12  2  0
 15 14  1  0
 15 16  1  0
 16 18  1  0
 17 16  2  0
M  END
$$$$
