TSG.pdb
     RDKit          3D

 18 17  0  0  1  0  0  0  0  0999 V2000
   36.8968  -10.4287  -13.3566 C   0  0  0  0  0  0  0  0  0  0  0  0
   38.1011   -9.9747  -14.1348 C   0  0  1  0  0  0  0  0  0  0  0  0
   39.2200  -10.5778  -13.5355 O   0  0  0  0  0  0  0  0  0  0  0  0
   38.0212  -10.5866  -15.5240 C   0  0  2  0  0  0  0  0  0  0  0  0
   39.2294  -10.1642  -16.2825 N   0  0  0  0  0  0  0  0  0  0  0  0
   36.8720  -10.0940  -16.3114 C   0  0  0  0  0  0  0  0  0  0  0  0
   36.9340   -8.9267  -16.8178 O   0  0  0  0  0  0  0  0  0  0  0  0
   34.3996  -12.3561  -18.4557 O   0  0  0  0  0  0  0  0  0  0  0  0
   33.6815  -11.4366  -17.6888 C   0  0  0  0  0  0  0  0  0  0  0  0
   34.5507  -10.2707  -17.2656 C   0  0  2  0  0  0  0  0  0  0  0  0
   35.6996  -10.8144  -16.5546 N   0  0  0  0  0  0  0  0  0  0  0  0
   33.7293   -9.4144  -16.3556 C   0  0  0  0  0  0  0  0  0  0  0  0
   33.6146   -9.6625  -15.1202 O   0  0  0  0  0  0  0  0  0  0  0  0
   33.0316   -8.2700  -16.8394 N   0  0  0  0  0  0  0  0  0  0  0  0
   32.3465   -7.3710  -15.9383 C   0  0  0  0  0  0  0  0  0  0  0  0
   33.1699   -6.2013  -15.5935 C   0  0  0  0  0  0  0  0  0  0  0  0
   34.3101   -6.3862  -15.1008 O   0  0  0  0  0  0  0  0  0  0  0  0
   32.7528   -4.8953  -15.7842 O   0  0  0  0  0  0  0  0  0  0  0  0
  2  1  1  1
  3  2  1  0
  4  6  1  0
  4  2  1  0
  4  5  1  6
  6  7  2  0
  8  9  1  0
 10  9  1  1
 11 10  1  0
 11  6  1  0
 12 14  1  0
 12 10  1  0
 13 12  2  0
 15 14  1  0
 15 16  1  0
 16 18  1  0
 17 16  2  0
M  END
$$$$
