TSG.pdb
     RDKit          3D

 18 17  0  0  1  0  0  0  0  0999 V2000
   14.9381  -10.4837  -11.6757 C   0  0  0  0  0  0  0  0  0  0  0  0
   16.3243   -9.9970  -11.3537 C   0  0  1  0  0  0  0  0  0  0  0  0
   17.1964  -11.0713  -11.5985 O   0  0  0  0  0  0  0  0  0  0  0  0
   16.7022   -8.9415  -12.3802 C   0  0  2  0  0  0  0  0  0  0  0  0
   16.6181   -9.5621  -13.7298 N   0  0  0  0  0  0  0  0  0  0  0  0
   18.0984   -8.4762  -12.2491 C   0  0  0  0  0  0  0  0  0  0  0  0
   18.4526   -7.9042  -11.1673 O   0  0  0  0  0  0  0  0  0  0  0  0
   22.6593   -8.4612  -13.9337 O   0  0  0  0  0  0  0  0  0  0  0  0
   21.3376   -8.9075  -13.9932 C   0  0  0  0  0  0  0  0  0  0  0  0
   20.4353   -8.0862  -13.0961 C   0  0  2  0  0  0  0  0  0  0  0  0
   19.0845   -8.6141  -13.2295 N   0  0  0  0  0  0  0  0  0  0  0  0
   20.4956   -6.6735  -13.5825 C   0  0  0  0  0  0  0  0  0  0  0  0
   19.8300   -6.2775  -14.5831 O   0  0  0  0  0  0  0  0  0  0  0  0
   21.3111   -5.6987  -12.9381 N   0  0  0  0  0  0  0  0  0  0  0  0
   21.3010   -4.3151  -13.3565 C   0  0  0  0  0  0  0  0  0  0  0  0
   22.3293   -4.0378  -14.3718 C   0  0  0  0  0  0  0  0  0  0  0  0
   23.1088   -4.9611  -14.7136 O   0  0  0  0  0  0  0  0  0  0  0  0
   22.4863   -2.8030  -14.9772 O   0  0  0  0  0  0  0  0  0  0  0  0
  2  1  1  6
  3  2  1  0
  4  6  1  0
  4  2  1  0
  4  5  1  6
  6  7  2  0
  8  9  1  0
 10  9  1  6
 11 10  1  0
 11  6  1  0
 12 14  1  0
 12 10  1  0
 13 12  2  0
 15 14  1  0
 15 16  1  0
 16 18  1  0
 17 16  2  0
M  END
$$$$
