TSG.pdb
     RDKit          3D

 18 17  0  0  1  0  0  0  0  0999 V2000
   24.9816  -12.7139  -15.8340 C   0  0  0  0  0  0  0  0  0  0  0  0
   24.3795  -11.3426  -15.9713 C   0  0  1  0  0  0  0  0  0  0  0  0
   24.9030  -10.7880  -17.1516 O   0  0  0  0  0  0  0  0  0  0  0  0
   22.8923  -11.5068  -16.2397 C   0  0  2  0  0  0  0  0  0  0  0  0
   22.7321  -12.0862  -17.6005 N   0  0  0  0  0  0  0  0  0  0  0  0
   22.1617  -10.2229  -16.2718 C   0  0  0  0  0  0  0  0  0  0  0  0
   22.0967   -9.5845  -17.3723 O   0  0  0  0  0  0  0  0  0  0  0  0
   19.5781   -9.2013  -13.3606 O   0  0  0  0  0  0  0  0  0  0  0  0
   19.4721   -8.5426  -14.5871 C   0  0  0  0  0  0  0  0  0  0  0  0
   20.8284   -8.3580  -15.2350 C   0  0  2  0  0  0  0  0  0  0  0  0
   21.5213   -9.6377  -15.1764 N   0  0  0  0  0  0  0  0  0  0  0  0
   21.5628   -7.3281  -14.4376 C   0  0  0  0  0  0  0  0  0  0  0  0
   22.5251   -7.6293  -13.6732 O   0  0  0  0  0  0  0  0  0  0  0  0
   21.2118   -5.9485  -14.5006 N   0  0  0  0  0  0  0  0  0  0  0  0
   21.9581   -4.9490  -13.7701 C   0  0  0  0  0  0  0  0  0  0  0  0
   21.5120   -3.5837  -14.0899 C   0  0  0  0  0  0  0  0  0  0  0  0
   20.6432   -3.4228  -14.9821 O   0  0  0  0  0  0  0  0  0  0  0  0
   22.0023   -2.4556  -13.4550 O   0  0  0  0  0  0  0  0  0  0  0  0
  2  1  1  6
  3  2  1  0
  4  6  1  0
  4  2  1  0
  4  5  1  6
  6  7  2  0
  8  9  1  0
 10  9  1  1
 11 10  1  0
 11  6  1  0
 12 14  1  0
 12 10  1  0
 13 12  2  0
 15 14  1  0
 15 16  1  0
 16 18  1  0
 17 16  2  0
M  END
$$$$
