TSG.pdb
     RDKit          3D

 18 17  0  0  1  0  0  0  0  0999 V2000
   15.3712  -11.4007  -11.4505 C   0  0  0  0  0  0  0  0  0  0  0  0
   13.9586  -11.0791  -11.0466 C   0  0  1  0  0  0  0  0  0  0  0  0
   13.3939  -12.2734  -10.5675 O   0  0  0  0  0  0  0  0  0  0  0  0
   14.0131  -10.1574   -9.8391 C   0  0  2  0  0  0  0  0  0  0  0  0
   12.6158   -9.8707   -9.4164 N   0  0  0  0  0  0  0  0  0  0  0  0
   14.6099   -8.8396  -10.1397 C   0  0  0  0  0  0  0  0  0  0  0  0
   14.0077   -8.0680  -10.9551 O   0  0  0  0  0  0  0  0  0  0  0  0
   15.4930   -5.7983   -8.1877 O   0  0  0  0  0  0  0  0  0  0  0  0
   16.6788   -6.3008   -8.7268 C   0  0  0  0  0  0  0  0  0  0  0  0
   16.4191   -7.0976   -9.9882 C   0  0  2  0  0  0  0  0  0  0  0  0
   15.8020   -8.3565   -9.5937 N   0  0  0  0  0  0  0  0  0  0  0  0
   17.7441   -7.3447  -10.6357 C   0  0  0  0  0  0  0  0  0  0  0  0
   18.5698   -8.1872  -10.1783 O   0  0  0  0  0  0  0  0  0  0  0  0
   18.1432   -6.6382  -11.8071 N   0  0  0  0  0  0  0  0  0  0  0  0
   19.4220   -6.8848  -12.4344 C   0  0  0  0  0  0  0  0  0  0  0  0
   19.6143   -6.0611  -13.6384 C   0  0  0  0  0  0  0  0  0  0  0  0
   18.6361   -5.4227  -14.0993 O   0  0  0  0  0  0  0  0  0  0  0  0
   20.8263   -5.9500  -14.2978 O   0  0  0  0  0  0  0  0  0  0  0  0
  2  1  1  1
  3  2  1  0
  4  6  1  0
  4  2  1  0
  4  5  1  6
  6  7  2  0
  8  9  1  0
 10  9  1  1
 11 10  1  0
 11  6  1  0
 12 14  1  0
 12 10  1  0
 13 12  2  0
 15 14  1  0
 15 16  1  0
 16 18  1  0
 17 16  2  0
M  END
$$$$
