TSG.pdb
     RDKit          3D

 18 17  0  0  1  0  0  0  0  0999 V2000
   17.0709   -8.6811  -17.3863 C   0  0  0  0  0  0  0  0  0  0  0  0
   16.4829   -9.6198  -16.3690 C   0  0  1  0  0  0  0  0  0  0  0  0
   15.3751  -10.2332  -16.9784 O   0  0  0  0  0  0  0  0  0  0  0  0
   17.4779  -10.7454  -16.1375 C   0  0  2  0  0  0  0  0  0  0  0  0
   16.8620  -11.7163  -15.1933 N   0  0  0  0  0  0  0  0  0  0  0  0
   18.7226  -10.2955  -15.4805 C   0  0  0  0  0  0  0  0  0  0  0  0
   18.6523   -9.8149  -14.3028 O   0  0  0  0  0  0  0  0  0  0  0  0
   22.7303  -11.6976  -15.5430 O   0  0  0  0  0  0  0  0  0  0  0  0
   22.3907  -10.4639  -16.1017 C   0  0  0  0  0  0  0  0  0  0  0  0
   21.1974   -9.8488  -15.4007 C   0  0  2  0  0  0  0  0  0  0  0  0
   19.9966  -10.3549  -16.0513 N   0  0  0  0  0  0  0  0  0  0  0  0
   21.3000   -8.3668  -15.5714 C   0  0  0  0  0  0  0  0  0  0  0  0
   21.0343   -7.7960  -16.6689 O   0  0  0  0  0  0  0  0  0  0  0  0
   21.7046   -7.5205  -14.4988 N   0  0  0  0  0  0  0  0  0  0  0  0
   21.7167   -6.0819  -14.6400 C   0  0  0  0  0  0  0  0  0  0  0  0
   22.2248   -5.4128  -13.4321 C   0  0  0  0  0  0  0  0  0  0  0  0
   22.4696   -4.1820  -13.4779 O   0  0  0  0  0  0  0  0  0  0  0  0
   22.4502   -6.0719  -12.2359 O   0  0  0  0  0  0  0  0  0  0  0  0
  2  1  1  6
  3  2  1  0
  4  6  1  0
  4  2  1  0
  4  5  1  1
  6  7  2  0
  8  9  1  0
 10  9  1  6
 11 10  1  0
 11  6  1  0
 12 14  1  0
 12 10  1  0
 13 12  2  0
 15 14  1  0
 15 16  1  0
 16 18  1  0
 17 16  2  0
M  END
$$$$
