TSG.pdb
     RDKit          3D

 18 17  0  0  1  0  0  0  0  0999 V2000
   17.8109   -9.0926  -17.9699 C   0  0  0  0  0  0  0  0  0  0  0  0
   17.2922   -9.9214  -16.8270 C   0  0  1  0  0  0  0  0  0  0  0  0
   16.7599  -11.0946  -17.3881 O   0  0  0  0  0  0  0  0  0  0  0  0
   18.4830  -10.3842  -16.0034 C   0  0  2  0  0  0  0  0  0  0  0  0
   17.9776  -11.2776  -14.9265 N   0  0  0  0  0  0  0  0  0  0  0  0
   19.1720   -9.2793  -15.3050 C   0  0  0  0  0  0  0  0  0  0  0  0
   18.5792   -8.7070  -14.3335 O   0  0  0  0  0  0  0  0  0  0  0  0
   23.0379   -8.8218  -14.1723 O   0  0  0  0  0  0  0  0  0  0  0  0
   22.5741   -7.8520  -15.0633 C   0  0  0  0  0  0  0  0  0  0  0  0
   21.0746   -7.6710  -14.9527 C   0  0  2  0  0  0  0  0  0  0  0  0
   20.4450   -8.7996  -15.6243 N   0  0  0  0  0  0  0  0  0  0  0  0
   20.7314   -6.3915  -15.6463 C   0  0  0  0  0  0  0  0  0  0  0  0
   20.8126   -6.2644  -16.9025 O   0  0  0  0  0  0  0  0  0  0  0  0
   20.2934   -5.2461  -14.9206 N   0  0  0  0  0  0  0  0  0  0  0  0
   19.9960   -4.0003  -15.5908 C   0  0  0  0  0  0  0  0  0  0  0  0
   19.6002   -2.9451  -14.6448 C   0  0  0  0  0  0  0  0  0  0  0  0
   19.4780   -1.7682  -15.0651 O   0  0  0  0  0  0  0  0  0  0  0  0
   19.3526   -3.1806  -13.3034 O   0  0  0  0  0  0  0  0  0  0  0  0
  2  1  1  6
  3  2  1  0
  4  6  1  0
  4  2  1  0
  4  5  1  1
  6  7  2  0
  8  9  1  0
 10  9  1  6
 11 10  1  0
 11  6  1  0
 12 14  1  0
 12 10  1  0
 13 12  2  0
 15 14  1  0
 15 16  1  0
 16 18  1  0
 17 16  2  0
M  END
$$$$
