MHV.pdb
     RDKit          3D

 26 26  0  0  1  0  0  0  0  0999 V2000
    8.5824  -11.3520   21.1482 C   0  0  0  0  0  0  0  0  0  0  0  0
    7.5068  -12.2121   20.0157 S   0  0  0  0  0  0  0  0  0  0  0  0
    7.8870  -13.9304   19.7229 C   0  0  0  0  0  0  0  0  0  0  0  0
    8.2038  -14.6586   20.9883 C   0  0  0  0  0  0  0  0  0  0  0  0
    8.5310  -16.0964   20.7282 C   0  0  2  0  0  0  0  0  0  0  0  0
    7.4147  -16.7907   20.1078 N   0  0  0  0  0  0  0  0  0  0  0  0
    8.8049  -16.7033   22.0798 C   0  0  0  0  0  0  0  0  0  0  0  0
    7.8743  -17.1514   22.7644 O   0  0  0  0  0  0  0  0  0  0  0  0
   10.1226  -16.7608   22.5647 N   0  0  0  0  0  0  0  0  0  0  0  0
   10.4934  -17.4378   23.7926 C   0  0  1  0  0  0  0  0  0  0  0  0
   11.6703  -18.2959   23.5427 C   0  0  0  0  0  0  0  0  0  0  0  0
   11.4541  -19.5421   22.8125 C   0  0  0  0  0  0  0  0  0  0  0  0
   11.7769  -19.9841   21.5745 C   0  0  0  0  0  0  0  0  0  0  0  0
   11.3114  -21.2309   21.4229 N   0  0  0  0  0  0  0  0  0  0  0  0
   10.6961  -21.5734   22.5637 C   0  0  0  0  0  0  0  0  0  0  0  0
   10.7725  -20.5630   23.4167 N   0  0  0  0  0  0  0  0  0  0  0  0
   10.8273  -16.3178   24.7573 C   0  0  0  0  0  0  0  0  0  0  0  0
   11.6235  -15.3907   24.4673 O   0  0  0  0  0  0  0  0  0  0  0  0
    8.0972  -14.5594   27.0774 C   0  0  0  0  0  0  0  0  0  0  0  0
    9.5174  -14.1123   27.0289 C   0  0  1  0  0  0  0  0  0  0  0  0
    9.7911  -13.0919   28.1147 C   0  0  0  0  0  0  0  0  0  0  0  0
   10.5309  -15.2091   26.9963 C   0  0  2  0  0  0  0  0  0  0  0  0
   10.2462  -16.2630   26.0573 N   0  0  0  0  0  0  0  0  0  0  0  0
   10.5708  -15.8193   28.3503 C   0  0  0  0  0  0  0  0  0  0  0  0
   10.2348  -17.1450   28.5731 O   0  0  0  0  0  0  0  0  0  0  0  0
   10.9165  -15.1178   29.3132 O   0  0  0  0  0  0  0  0  0  0  0  0
  2  1  1  0
  3  4  1  0
  3  2  1  0
  4  5  1  0
  5  6  1  1
  5  7  1  0
  7  8  2  0
  9  7  1  0
  9 10  1  0
 10 11  1  6
 11 12  1  0
 12 16  1  0
 12 13  2  0
 13 14  1  0
 15 14  1  0
 16 15  2  0
 17 10  1  0
 17 18  2  0
 20 19  1  1
 20 22  1  0
 21 20  1  0
 22 23  1  6
 23 17  1  0
 24 22  1  0
 24 25  1  0
 26 24  2  0
M  END
$$$$
