MHV.pdb
     RDKit          3D

 26 26  0  0  1  0  0  0  0  0999 V2000
    6.5928  -10.4609   26.5513 C   0  0  0  0  0  0  0  0  0  0  0  0
    5.7902  -11.8189   27.3826 S   0  0  0  0  0  0  0  0  0  0  0  0
    4.8145  -12.9026   26.3548 C   0  0  0  0  0  0  0  0  0  0  0  0
    5.6118  -14.0565   25.8403 C   0  0  0  0  0  0  0  0  0  0  0  0
    6.9982  -13.6400   25.4579 C   0  0  2  0  0  0  0  0  0  0  0  0
    6.9799  -12.6441   24.3991 N   0  0  0  0  0  0  0  0  0  0  0  0
    7.6750  -14.8885   24.9547 C   0  0  0  0  0  0  0  0  0  0  0  0
    7.4266  -15.9866   25.4725 O   0  0  0  0  0  0  0  0  0  0  0  0
    8.5919  -14.8055   23.8930 N   0  0  0  0  0  0  0  0  0  0  0  0
    9.3961  -15.9252   23.4423 C   0  0  1  0  0  0  0  0  0  0  0  0
    9.9389  -15.6296   22.1000 C   0  0  0  0  0  0  0  0  0  0  0  0
    9.0192  -15.0846   21.1051 C   0  0  0  0  0  0  0  0  0  0  0  0
    7.6741  -14.9549   21.0274 C   0  0  0  0  0  0  0  0  0  0  0  0
    7.3595  -14.3799   19.8592 N   0  0  0  0  0  0  0  0  0  0  0  0
    8.5049  -14.1482   19.2021 C   0  0  0  0  0  0  0  0  0  0  0  0
    9.5204  -14.5684   19.9413 N   0  0  0  0  0  0  0  0  0  0  0  0
   10.5049  -16.0336   24.4697 C   0  0  0  0  0  0  0  0  0  0  0  0
   11.6417  -15.5295   24.2932 O   0  0  0  0  0  0  0  0  0  0  0  0
   10.4443  -15.9172   29.2433 C   0  0  0  0  0  0  0  0  0  0  0  0
   10.5172  -15.4750   27.8227 C   0  0  1  0  0  0  0  0  0  0  0  0
   11.1705  -14.1118   27.7227 C   0  0  0  0  0  0  0  0  0  0  0  0
   11.1035  -16.4690   26.8742 C   0  0  2  0  0  0  0  0  0  0  0  0
   10.3077  -16.7227   25.7013 N   0  0  0  0  0  0  0  0  0  0  0  0
   11.2401  -17.7552   27.6051 C   0  0  0  0  0  0  0  0  0  0  0  0
   12.1738  -17.9365   28.6128 O   0  0  0  0  0  0  0  0  0  0  0  0
   10.4929  -18.6981   27.3027 O   0  0  0  0  0  0  0  0  0  0  0  0
  2  1  1  0
  3  4  1  0
  3  2  1  0
  4  5  1  0
  5  6  1  6
  5  7  1  0
  7  8  2  0
  9  7  1  0
  9 10  1  0
 10 11  1  6
 11 12  1  0
 12 16  1  0
 12 13  2  0
 13 14  1  0
 15 14  1  0
 16 15  2  0
 17 10  1  0
 17 18  2  0
 20 19  1  1
 20 22  1  0
 21 20  1  0
 22 23  1  6
 23 17  1  0
 24 22  1  0
 24 25  1  0
 26 24  2  0
M  END
$$$$
