MHV.pdb
     RDKit          3D

 26 26  0  0  1  0  0  0  0  0999 V2000
    6.9833  -11.8874   18.1151 C   0  0  0  0  0  0  0  0  0  0  0  0
    7.3749  -13.3996   17.2554 S   0  0  0  0  0  0  0  0  0  0  0  0
    8.2705  -14.6261   18.1916 C   0  0  0  0  0  0  0  0  0  0  0  0
    8.2713  -14.3249   19.6548 C   0  0  0  0  0  0  0  0  0  0  0  0
    9.0868  -15.3201   20.4206 C   0  0  2  0  0  0  0  0  0  0  0  0
    9.0364  -16.6350   19.8028 N   0  0  0  0  0  0  0  0  0  0  0  0
    8.4638  -15.3901   21.7907 C   0  0  0  0  0  0  0  0  0  0  0  0
    7.9864  -14.3730   22.3134 O   0  0  0  0  0  0  0  0  0  0  0  0
    8.4246  -16.6155   22.4775 N   0  0  0  0  0  0  0  0  0  0  0  0
    7.7566  -16.7961   23.7522 C   0  0  1  0  0  0  0  0  0  0  0  0
    8.0051  -18.1667   24.2456 C   0  0  0  0  0  0  0  0  0  0  0  0
    7.4931  -18.5106   25.5694 C   0  0  0  0  0  0  0  0  0  0  0  0
    6.8053  -17.8410   26.5236 C   0  0  0  0  0  0  0  0  0  0  0  0
    6.6038  -18.6562   27.5672 N   0  0  0  0  0  0  0  0  0  0  0  0
    7.1643  -19.8374   27.2706 C   0  0  0  0  0  0  0  0  0  0  0  0
    7.7077  -19.7678   26.0647 N   0  0  0  0  0  0  0  0  0  0  0  0
    8.3904  -15.7632   24.6622 C   0  0  0  0  0  0  0  0  0  0  0  0
    9.6259  -15.5373   24.6711 O   0  0  0  0  0  0  0  0  0  0  0  0
    6.6314  -12.0686   25.6016 C   0  0  0  0  0  0  0  0  0  0  0  0
    7.1776  -12.8593   26.7398 C   0  0  1  0  0  0  0  0  0  0  0  0
    6.0550  -13.3720   27.6185 C   0  0  0  0  0  0  0  0  0  0  0  0
    8.1533  -13.9266   26.3653 C   0  0  2  0  0  0  0  0  0  0  0  0
    7.6038  -14.9891   25.5636 N   0  0  0  0  0  0  0  0  0  0  0  0
    8.6543  -14.5341   27.6251 C   0  0  0  0  0  0  0  0  0  0  0  0
    9.4690  -13.8412   28.5061 O   0  0  0  0  0  0  0  0  0  0  0  0
    8.3321  -15.7008   27.8968 O   0  0  0  0  0  0  0  0  0  0  0  0
  2  1  1  0
  3  4  1  0
  3  2  1  0
  4  5  1  0
  5  6  1  6
  5  7  1  0
  7  8  2  0
  9  7  1  0
  9 10  1  0
 10 11  1  1
 11 12  1  0
 12 16  1  0
 12 13  2  0
 13 14  1  0
 15 14  1  0
 16 15  2  0
 17 10  1  0
 17 18  2  0
 20 19  1  6
 20 22  1  0
 21 20  1  0
 22 23  1  6
 23 17  1  0
 24 22  1  0
 24 25  1  0
 26 24  2  0
M  END
$$$$
