MHV.pdb
     RDKit          3D

 26 26  0  0  1  0  0  0  0  0999 V2000
    7.8096  -11.1492   20.4134 C   0  0  0  0  0  0  0  0  0  0  0  0
    7.7116  -12.0235   18.8625 S   0  0  0  0  0  0  0  0  0  0  0  0
    8.0950  -13.7650   18.9170 C   0  0  0  0  0  0  0  0  0  0  0  0
    7.8579  -14.3498   20.2711 C   0  0  0  0  0  0  0  0  0  0  0  0
    8.1454  -15.8191   20.2936 C   0  0  2  0  0  0  0  0  0  0  0  0
    7.2152  -16.5546   19.4529 N   0  0  0  0  0  0  0  0  0  0  0  0
    7.9662  -16.2479   21.7268 C   0  0  0  0  0  0  0  0  0  0  0  0
    6.8302  -16.4232   22.1898 O   0  0  0  0  0  0  0  0  0  0  0  0
    9.0938  -16.4495   22.5409 N   0  0  0  0  0  0  0  0  0  0  0  0
    9.0125  -16.7962   23.9469 C   0  0  1  0  0  0  0  0  0  0  0  0
    9.9999  -17.8534   24.2487 C   0  0  0  0  0  0  0  0  0  0  0  0
    9.6920  -19.2106   23.8062 C   0  0  0  0  0  0  0  0  0  0  0  0
    8.5566  -19.8598   23.4573 C   0  0  0  0  0  0  0  0  0  0  0  0
    8.8597  -21.1251   23.1386 N   0  0  0  0  0  0  0  0  0  0  0  0
   10.1839  -21.2724   23.2868 C   0  0  0  0  0  0  0  0  0  0  0  0
   10.7046  -20.1235   23.6906 N   0  0  0  0  0  0  0  0  0  0  0  0
    9.3478  -15.5099   24.6747 C   0  0  0  0  0  0  0  0  0  0  0  0
   10.4587  -14.9359   24.5560 O   0  0  0  0  0  0  0  0  0  0  0  0
    7.3561  -12.0198   24.9716 C   0  0  0  0  0  0  0  0  0  0  0  0
    7.6230  -12.6624   26.2888 C   0  0  1  0  0  0  0  0  0  0  0  0
    6.3346  -13.1679   26.9049 C   0  0  0  0  0  0  0  0  0  0  0  0
    8.7072  -13.6899   26.2894 C   0  0  2  0  0  0  0  0  0  0  0  0
    8.4060  -14.8823   25.5405 N   0  0  0  0  0  0  0  0  0  0  0  0
    8.9344  -14.0969   27.7001 C   0  0  0  0  0  0  0  0  0  0  0  0
    9.4530  -13.2265   28.6454 O   0  0  0  0  0  0  0  0  0  0  0  0
    8.6502  -15.2548   28.0425 O   0  0  0  0  0  0  0  0  0  0  0  0
  2  1  1  0
  3  4  1  0
  3  2  1  0
  4  5  1  0
  5  6  1  6
  5  7  1  0
  7  8  2  0
  9  7  1  0
  9 10  1  0
 10 11  1  6
 11 12  1  0
 12 16  1  0
 12 13  2  0
 13 14  1  0
 15 14  1  0
 16 15  2  0
 17 10  1  0
 17 18  2  0
 20 19  1  6
 20 22  1  0
 21 20  1  0
 22 23  1  6
 23 17  1  0
 24 22  1  0
 24 25  1  0
 26 24  2  0
M  END
$$$$
