MHV.pdb
     RDKit          3D

 26 26  0  0  1  0  0  0  0  0999 V2000
    7.4102  -11.4855   20.2811 C   0  0  0  0  0  0  0  0  0  0  0  0
    7.5847  -12.3057   18.7075 S   0  0  0  0  0  0  0  0  0  0  0  0
    8.2107  -13.9756   18.7573 C   0  0  0  0  0  0  0  0  0  0  0  0
    8.0846  -14.5819   20.1169 C   0  0  0  0  0  0  0  0  0  0  0  0
    8.5844  -15.9932   20.1380 C   0  0  2  0  0  0  0  0  0  0  0  0
    7.8234  -16.8391   19.2333 N   0  0  0  0  0  0  0  0  0  0  0  0
    8.3878  -16.4744   21.5522 C   0  0  0  0  0  0  0  0  0  0  0  0
    7.2702  -16.8472   21.9363 O   0  0  0  0  0  0  0  0  0  0  0  0
    9.4781  -16.4998   22.4384 N   0  0  0  0  0  0  0  0  0  0  0  0
    9.3618  -16.8616   23.8382 C   0  0  1  0  0  0  0  0  0  0  0  0
   10.3888  -17.8709   24.1702 C   0  0  0  0  0  0  0  0  0  0  0  0
   10.1417  -19.2481   23.7520 C   0  0  0  0  0  0  0  0  0  0  0  0
    9.5922  -20.3348   24.3431 C   0  0  0  0  0  0  0  0  0  0  0  0
    9.6305  -21.3626   23.4849 N   0  0  0  0  0  0  0  0  0  0  0  0
   10.2035  -20.9238   22.3552 C   0  0  0  0  0  0  0  0  0  0  0  0
   10.5197  -19.6457   22.4985 N   0  0  0  0  0  0  0  0  0  0  0  0
    9.6050  -15.5663   24.5862 C   0  0  0  0  0  0  0  0  0  0  0  0
   10.5849  -14.8190   24.3431 O   0  0  0  0  0  0  0  0  0  0  0  0
    7.7238  -12.2367   24.9986 C   0  0  0  0  0  0  0  0  0  0  0  0
    7.8646  -12.9205   26.3145 C   0  0  1  0  0  0  0  0  0  0  0  0
    6.5267  -13.4567   26.7812 C   0  0  0  0  0  0  0  0  0  0  0  0
    8.9550  -13.9385   26.3912 C   0  0  2  0  0  0  0  0  0  0  0  0
    8.7217  -15.1290   25.6153 N   0  0  0  0  0  0  0  0  0  0  0  0
    9.0793  -14.3519   27.8127 C   0  0  0  0  0  0  0  0  0  0  0  0
    9.5298  -13.4866   28.7967 O   0  0  0  0  0  0  0  0  0  0  0  0
    8.7693  -15.5108   28.1286 O   0  0  0  0  0  0  0  0  0  0  0  0
  2  1  1  0
  3  4  1  0
  3  2  1  0
  4  5  1  0
  5  6  1  6
  5  7  1  0
  7  8  2  0
  9  7  1  0
  9 10  1  0
 10 11  1  1
 11 12  1  0
 12 16  1  0
 12 13  2  0
 13 14  1  0
 15 14  1  0
 16 15  2  0
 17 10  1  0
 17 18  2  0
 20 19  1  6
 20 22  1  0
 21 20  1  0
 22 23  1  6
 23 17  1  0
 24 22  1  0
 24 25  1  0
 26 24  2  0
M  END
$$$$
