MHV.pdb
     RDKit          3D

 26 26  0  0  1  0  0  0  0  0999 V2000
    1.3082  -19.3303   20.6530 C   0  0  0  0  0  0  0  0  0  0  0  0
    2.7259  -18.2488   20.6591 S   0  0  0  0  0  0  0  0  0  0  0  0
    4.3213  -19.0455   20.7127 C   0  0  0  0  0  0  0  0  0  0  0  0
    5.4417  -18.0574   20.7281 C   0  0  0  0  0  0  0  0  0  0  0  0
    5.7252  -17.5692   22.1149 C   0  0  2  0  0  0  0  0  0  0  0  0
    4.7834  -16.5375   22.5170 N   0  0  0  0  0  0  0  0  0  0  0  0
    7.1128  -16.9840   22.0655 C   0  0  0  0  0  0  0  0  0  0  0  0
    8.0803  -17.6938   21.7564 O   0  0  0  0  0  0  0  0  0  0  0  0
    7.3087  -15.6265   22.3716 N   0  0  0  0  0  0  0  0  0  0  0  0
    8.5936  -14.9616   22.2692 C   0  0  1  0  0  0  0  0  0  0  0  0
    8.4564  -13.7581   21.4227 C   0  0  0  0  0  0  0  0  0  0  0  0
    8.2167  -13.9599   19.9963 C   0  0  0  0  0  0  0  0  0  0  0  0
    7.3807  -13.4057   19.0874 C   0  0  0  0  0  0  0  0  0  0  0  0
    7.5814  -13.9903   17.8989 N   0  0  0  0  0  0  0  0  0  0  0  0
    8.5422  -14.9114   18.0594 C   0  0  0  0  0  0  0  0  0  0  0  0
    8.9388  -14.9072   19.3231 N   0  0  0  0  0  0  0  0  0  0  0  0
    8.9434  -14.5905   23.6962 C   0  0  0  0  0  0  0  0  0  0  0  0
    9.9367  -13.8781   23.9853 O   0  0  0  0  0  0  0  0  0  0  0  0
    7.6369  -12.3389   26.1892 C   0  0  0  0  0  0  0  0  0  0  0  0
    7.5634  -13.7023   26.7849 C   0  0  1  0  0  0  0  0  0  0  0  0
    6.1241  -14.1665   26.8751 C   0  0  0  0  0  0  0  0  0  0  0  0
    8.4621  -14.7201   26.1623 C   0  0  2  0  0  0  0  0  0  0  0  0
    8.1516  -15.0388   24.7928 N   0  0  0  0  0  0  0  0  0  0  0  0
    8.3305  -15.9724   26.9507 C   0  0  0  0  0  0  0  0  0  0  0  0
    8.7353  -16.0584   28.2731 O   0  0  0  0  0  0  0  0  0  0  0  0
    7.8419  -16.9742   26.4063 O   0  0  0  0  0  0  0  0  0  0  0  0
  2  1  1  0
  3  4  1  0
  3  2  1  0
  4  5  1  0
  5  6  1  6
  5  7  1  0
  7  8  2  0
  9  7  1  0
  9 10  1  0
 10 11  1  6
 11 12  1  0
 12 16  1  0
 12 13  2  0
 13 14  1  0
 15 14  1  0
 16 15  2  0
 17 10  1  0
 17 18  2  0
 20 19  1  6
 20 22  1  0
 21 20  1  0
 22 23  1  6
 23 17  1  0
 24 22  1  0
 24 25  1  0
 26 24  2  0
M  END
$$$$
