MHV.pdb
     RDKit          3D

 26 26  0  0  1  0  0  0  0  0999 V2000
    5.9139  -11.7179   26.4988 C   0  0  0  0  0  0  0  0  0  0  0  0
    6.8790  -11.1869   25.0968 S   0  0  0  0  0  0  0  0  0  0  0  0
    6.8959  -12.2876   23.6928 C   0  0  0  0  0  0  0  0  0  0  0  0
    7.5136  -13.6075   24.0217 C   0  0  0  0  0  0  0  0  0  0  0  0
    7.6019  -14.4893   22.8149 C   0  0  2  0  0  0  0  0  0  0  0  0
    6.2821  -14.8430   22.3186 N   0  0  0  0  0  0  0  0  0  0  0  0
    8.3119  -15.7370   23.2725 C   0  0  0  0  0  0  0  0  0  0  0  0
    7.6641  -16.7107   23.6820 O   0  0  0  0  0  0  0  0  0  0  0  0
    9.7154  -15.7949   23.2338 N   0  0  0  0  0  0  0  0  0  0  0  0
   10.4824  -16.9236   23.7251 C   0  0  1  0  0  0  0  0  0  0  0  0
   11.5242  -17.2751   22.7377 C   0  0  0  0  0  0  0  0  0  0  0  0
   11.0844  -17.8384   21.4641 C   0  0  0  0  0  0  0  0  0  0  0  0
   10.5799  -19.0342   21.0797 C   0  0  0  0  0  0  0  0  0  0  0  0
   10.3573  -19.0079   19.7591 N   0  0  0  0  0  0  0  0  0  0  0  0
   10.7214  -17.7974   19.3125 C   0  0  0  0  0  0  0  0  0  0  0  0
   11.1643  -17.0757   20.3310 N   0  0  0  0  0  0  0  0  0  0  0  0
   11.0983  -16.4294   25.0186 C   0  0  0  0  0  0  0  0  0  0  0  0
   12.1445  -15.7349   25.0471 O   0  0  0  0  0  0  0  0  0  0  0  0
   10.6737  -14.7172   29.5084 C   0  0  0  0  0  0  0  0  0  0  0  0
   10.1729  -15.2091   28.1945 C   0  0  1  0  0  0  0  0  0  0  0  0
    9.8296  -14.0458   27.2867 C   0  0  0  0  0  0  0  0  0  0  0  0
   11.0329  -16.2312   27.5258 C   0  0  2  0  0  0  0  0  0  0  0  0
   10.5119  -16.7339   26.2811 N   0  0  0  0  0  0  0  0  0  0  0  0
   11.1572  -17.3848   28.4537 C   0  0  0  0  0  0  0  0  0  0  0  0
   11.9519  -17.3380   29.5878 O   0  0  0  0  0  0  0  0  0  0  0  0
   10.5280  -18.4244   28.2042 O   0  0  0  0  0  0  0  0  0  0  0  0
  2  1  1  0
  3  4  1  0
  3  2  1  0
  4  5  1  0
  5  6  1  1
  5  7  1  0
  7  8  2  0
  9  7  1  0
  9 10  1  0
 10 11  1  6
 11 12  1  0
 12 16  1  0
 12 13  2  0
 13 14  1  0
 15 14  1  0
 16 15  2  0
 17 10  1  0
 17 18  2  0
 20 19  1  1
 20 22  1  0
 21 20  1  0
 22 23  1  6
 23 17  1  0
 24 22  1  0
 24 25  1  0
 26 24  2  0
M  END
$$$$
