MHV.pdb
     RDKit          3D

 26 26  0  0  1  0  0  0  0  0999 V2000
    7.9290  -11.8175   20.3871 C   0  0  0  0  0  0  0  0  0  0  0  0
    7.7172  -12.9255   19.0063 S   0  0  0  0  0  0  0  0  0  0  0  0
    6.9700  -14.5036   19.3729 C   0  0  0  0  0  0  0  0  0  0  0  0
    6.8401  -14.7349   20.8431 C   0  0  0  0  0  0  0  0  0  0  0  0
    8.1486  -15.1281   21.4556 C   0  0  2  0  0  0  0  0  0  0  0  0
    8.7668  -16.2243   20.7280 N   0  0  0  0  0  0  0  0  0  0  0  0
    7.8240  -15.5809   22.8555 C   0  0  0  0  0  0  0  0  0  0  0  0
    7.0240  -14.9389   23.5508 O   0  0  0  0  0  0  0  0  0  0  0  0
    8.4323  -16.7369   23.3735 N   0  0  0  0  0  0  0  0  0  0  0  0
    8.2150  -17.2171   24.7248 C   0  0  1  0  0  0  0  0  0  0  0  0
    8.2237  -18.6948   24.7269 C   0  0  0  0  0  0  0  0  0  0  0  0
    7.1007  -19.3773   24.0899 C   0  0  0  0  0  0  0  0  0  0  0  0
    5.7687  -19.4335   24.3242 C   0  0  0  0  0  0  0  0  0  0  0  0
    5.2012  -20.2386   23.4163 N   0  0  0  0  0  0  0  0  0  0  0  0
    6.1745  -20.6888   22.6117 C   0  0  0  0  0  0  0  0  0  0  0  0
    7.3315  -20.1778   23.0046 N   0  0  0  0  0  0  0  0  0  0  0  0
    9.3815  -16.6615   25.5168 C   0  0  0  0  0  0  0  0  0  0  0  0
   10.5557  -16.6477   25.0712 O   0  0  0  0  0  0  0  0  0  0  0  0
    9.9211  -13.1721   26.8659 C   0  0  0  0  0  0  0  0  0  0  0  0
   10.0805  -14.1330   27.9930 C   0  0  1  0  0  0  0  0  0  0  0  0
    8.9670  -13.9555   29.0049 C   0  0  0  0  0  0  0  0  0  0  0  0
   10.2775  -15.5587   27.5931 C   0  0  2  0  0  0  0  0  0  0  0  0
    9.1989  -16.1216   26.8228 N   0  0  0  0  0  0  0  0  0  0  0  0
   10.3980  -16.3584   28.8393 C   0  0  0  0  0  0  0  0  0  0  0  0
   11.4691  -16.2169   29.7069 O   0  0  0  0  0  0  0  0  0  0  0  0
    9.5096  -17.1801   29.1117 O   0  0  0  0  0  0  0  0  0  0  0  0
  2  1  1  0
  3  4  1  0
  3  2  1  0
  4  5  1  0
  5  6  1  6
  5  7  1  0
  7  8  2  0
  9  7  1  0
  9 10  1  0
 10 11  1  6
 11 12  1  0
 12 16  1  0
 12 13  2  0
 13 14  1  0
 15 14  1  0
 16 15  2  0
 17 10  1  0
 17 18  2  0
 20 19  1  6
 20 22  1  0
 21 20  1  0
 22 23  1  1
 23 17  1  0
 24 22  1  0
 24 25  1  0
 26 24  2  0
M  END
$$$$
