MHV.pdb
     RDKit          3D

 26 26  0  0  1  0  0  0  0  0999 V2000
    7.8778  -11.2208   20.4892 C   0  0  0  0  0  0  0  0  0  0  0  0
    7.6739  -11.9326   18.8671 S   0  0  0  0  0  0  0  0  0  0  0  0
    8.2822  -13.5966   18.6573 C   0  0  0  0  0  0  0  0  0  0  0  0
    8.1949  -14.3894   19.9205 C   0  0  0  0  0  0  0  0  0  0  0  0
    8.7115  -15.7821   19.7323 C   0  0  2  0  0  0  0  0  0  0  0  0
    7.8984  -16.5260   18.7843 N   0  0  0  0  0  0  0  0  0  0  0  0
    8.6211  -16.4371   21.0863 C   0  0  0  0  0  0  0  0  0  0  0  0
    7.5935  -17.0438   21.4202 O   0  0  0  0  0  0  0  0  0  0  0  0
    9.7083  -16.3586   21.9732 N   0  0  0  0  0  0  0  0  0  0  0  0
    9.6915  -16.9214   23.3098 C   0  0  1  0  0  0  0  0  0  0  0  0
   10.8489  -17.8251   23.4755 C   0  0  0  0  0  0  0  0  0  0  0  0
   10.7815  -19.1334   22.8301 C   0  0  0  0  0  0  0  0  0  0  0  0
    9.9088  -20.1673   22.8710 C   0  0  0  0  0  0  0  0  0  0  0  0
   10.3545  -21.1444   22.0705 N   0  0  0  0  0  0  0  0  0  0  0  0
   11.5064  -20.7265   21.5265 C   0  0  0  0  0  0  0  0  0  0  0  0
   11.7807  -19.5109   21.9751 N   0  0  0  0  0  0  0  0  0  0  0  0
    9.7982  -15.7208   24.2283 C   0  0  0  0  0  0  0  0  0  0  0  0
   10.7691  -14.9248   24.1902 O   0  0  0  0  0  0  0  0  0  0  0  0
    6.3254  -14.0383   26.0672 C   0  0  0  0  0  0  0  0  0  0  0  0
    7.6521  -13.3729   25.9402 C   0  0  1  0  0  0  0  0  0  0  0  0
    7.7391  -12.1784   26.8679 C   0  0  0  0  0  0  0  0  0  0  0  0
    8.8340  -14.2796   26.0512 C   0  0  2  0  0  0  0  0  0  0  0  0
    8.7886  -15.4344   25.1922 N   0  0  0  0  0  0  0  0  0  0  0  0
    8.8890  -14.7701   27.4525 C   0  0  0  0  0  0  0  0  0  0  0  0
    9.2033  -13.9375   28.5145 O   0  0  0  0  0  0  0  0  0  0  0  0
    8.6451  -15.9652   27.6786 O   0  0  0  0  0  0  0  0  0  0  0  0
  2  1  1  0
  3  4  1  0
  3  2  1  0
  4  5  1  0
  5  6  1  6
  5  7  1  0
  7  8  2  0
  9  7  1  0
  9 10  1  0
 10 11  1  6
 11 12  1  0
 12 16  1  0
 12 13  2  0
 13 14  1  0
 15 14  1  0
 16 15  2  0
 17 10  1  0
 17 18  2  0
 20 19  1  1
 20 22  1  0
 21 20  1  0
 22 23  1  6
 23 17  1  0
 24 22  1  0
 24 25  1  0
 26 24  2  0
M  END
$$$$
