MHV.pdb
     RDKit          3D

 26 26  0  0  1  0  0  0  0  0999 V2000
    7.9441  -11.6453   18.9709 C   0  0  0  0  0  0  0  0  0  0  0  0
    7.6573  -13.0960   17.9747 S   0  0  0  0  0  0  0  0  0  0  0  0
    7.9874  -14.6646   18.7579 C   0  0  0  0  0  0  0  0  0  0  0  0
    7.6051  -14.6622   20.2021 C   0  0  0  0  0  0  0  0  0  0  0  0
    8.2652  -15.7805   20.9475 C   0  0  2  0  0  0  0  0  0  0  0  0
    8.1469  -17.0390   20.2297 N   0  0  0  0  0  0  0  0  0  0  0  0
    7.5314  -15.8853   22.2593 C   0  0  0  0  0  0  0  0  0  0  0  0
    6.5961  -15.1141   22.5161 O   0  0  0  0  0  0  0  0  0  0  0  0
    7.9109  -16.8629   23.1948 N   0  0  0  0  0  0  0  0  0  0  0  0
    7.3549  -16.9481   24.5317 C   0  0  1  0  0  0  0  0  0  0  0  0
    7.4425  -18.3433   25.0106 C   0  0  0  0  0  0  0  0  0  0  0  0
    6.6426  -19.3474   24.3144 C   0  0  0  0  0  0  0  0  0  0  0  0
    5.4239  -19.3476   23.7255 C   0  0  0  0  0  0  0  0  0  0  0  0
    5.1753  -20.5714   23.2409 N   0  0  0  0  0  0  0  0  0  0  0  0
    6.2360  -21.3408   23.5244 C   0  0  0  0  0  0  0  0  0  0  0  0
    7.1345  -20.6165   24.1743 N   0  0  0  0  0  0  0  0  0  0  0  0
    8.2252  -16.0278   25.3637 C   0  0  0  0  0  0  0  0  0  0  0  0
    9.4778  -16.0164   25.2721 O   0  0  0  0  0  0  0  0  0  0  0  0
    7.3114  -12.0868   26.0348 C   0  0  0  0  0  0  0  0  0  0  0  0
    7.7171  -12.8410   27.2536 C   0  0  1  0  0  0  0  0  0  0  0  0
    6.5423  -12.9990   28.1970 C   0  0  0  0  0  0  0  0  0  0  0  0
    8.4325  -14.1274   26.9994 C   0  0  2  0  0  0  0  0  0  0  0  0
    7.6558  -15.1199   26.3028 N   0  0  0  0  0  0  0  0  0  0  0  0
    8.8033  -14.6994   28.3194 C   0  0  0  0  0  0  0  0  0  0  0  0
    9.7237  -14.0893   29.1564 O   0  0  0  0  0  0  0  0  0  0  0  0
    8.2705  -15.7587   28.6840 O   0  0  0  0  0  0  0  0  0  0  0  0
  2  1  1  0
  3  4  1  0
  3  2  1  0
  4  5  1  0
  5  6  1  6
  5  7  1  0
  7  8  2  0
  9  7  1  0
  9 10  1  0
 10 11  1  1
 11 12  1  0
 12 16  1  0
 12 13  2  0
 13 14  1  0
 15 14  1  0
 16 15  2  0
 17 10  1  0
 17 18  2  0
 20 19  1  6
 20 22  1  0
 21 20  1  0
 22 23  1  1
 23 17  1  0
 24 22  1  0
 24 25  1  0
 26 24  2  0
M  END
$$$$
