MHV.pdb
     RDKit          3D

 26 26  0  0  1  0  0  0  0  0999 V2000
    8.6337  -11.7994   19.9655 C   0  0  0  0  0  0  0  0  0  0  0  0
    7.9599  -12.8157   18.6646 S   0  0  0  0  0  0  0  0  0  0  0  0
    7.5904  -14.5060   19.1000 C   0  0  0  0  0  0  0  0  0  0  0  0
    8.8212  -15.2775   19.4490 C   0  0  0  0  0  0  0  0  0  0  0  0
    8.4997  -16.6981   19.7961 C   0  0  2  0  0  0  0  0  0  0  0  0
    7.6460  -17.3096   18.7910 N   0  0  0  0  0  0  0  0  0  0  0  0
    7.7606  -16.6402   21.1078 C   0  0  0  0  0  0  0  0  0  0  0  0
    6.5220  -16.6725   21.1297 O   0  0  0  0  0  0  0  0  0  0  0  0
    8.4808  -16.5493   22.3110 N   0  0  0  0  0  0  0  0  0  0  0  0
    7.8682  -16.6700   23.6201 C   0  0  1  0  0  0  0  0  0  0  0  0
    8.2142  -17.9828   24.2038 C   0  0  0  0  0  0  0  0  0  0  0  0
    7.7510  -18.2614   25.5604 C   0  0  0  0  0  0  0  0  0  0  0  0
    7.0461  -17.5663   26.4835 C   0  0  0  0  0  0  0  0  0  0  0  0
    6.9140  -18.3166   27.5853 N   0  0  0  0  0  0  0  0  0  0  0  0
    7.5351  -19.4824   27.3564 C   0  0  0  0  0  0  0  0  0  0  0  0
    8.0479  -19.4670   26.1353 N   0  0  0  0  0  0  0  0  0  0  0  0
    8.4698  -15.5366   24.4264 C   0  0  0  0  0  0  0  0  0  0  0  0
    9.6696  -15.1847   24.3070 O   0  0  0  0  0  0  0  0  0  0  0  0
    6.8337  -11.8245   25.2044 C   0  0  0  0  0  0  0  0  0  0  0  0
    7.2507  -12.6059   26.4022 C   0  0  1  0  0  0  0  0  0  0  0  0
    6.0384  -13.0666   27.1853 C   0  0  0  0  0  0  0  0  0  0  0  0
    8.2226  -13.7090   26.1377 C   0  0  2  0  0  0  0  0  0  0  0  0
    7.6922  -14.8068   25.3716 N   0  0  0  0  0  0  0  0  0  0  0  0
    8.6501  -14.2509   27.4533 C   0  0  0  0  0  0  0  0  0  0  0  0
    9.3963  -13.5054   28.3519 O   0  0  0  0  0  0  0  0  0  0  0  0
    8.3279  -15.4097   27.7569 O   0  0  0  0  0  0  0  0  0  0  0  0
  2  1  1  0
  3  4  1  0
  3  2  1  0
  4  5  1  0
  5  6  1  6
  5  7  1  0
  7  8  2  0
  9  7  1  0
  9 10  1  0
 10 11  1  1
 11 12  1  0
 12 16  1  0
 12 13  2  0
 13 14  1  0
 15 14  1  0
 16 15  2  0
 17 10  1  0
 17 18  2  0
 20 19  1  6
 20 22  1  0
 21 20  1  0
 22 23  1  6
 23 17  1  0
 24 22  1  0
 24 25  1  0
 26 24  2  0
M  END
$$$$
