MHV.pdb
     RDKit          3D

 26 26  0  0  1  0  0  0  0  0999 V2000
    9.1153  -11.9342   19.7224 C   0  0  0  0  0  0  0  0  0  0  0  0
    7.6871  -12.5610   18.8583 S   0  0  0  0  0  0  0  0  0  0  0  0
    7.2742  -14.2702   19.1598 C   0  0  0  0  0  0  0  0  0  0  0  0
    8.4557  -15.0603   19.6198 C   0  0  0  0  0  0  0  0  0  0  0  0
    8.0963  -16.4923   19.8693 C   0  0  2  0  0  0  0  0  0  0  0  0
    7.1232  -16.9713   18.9015 N   0  0  0  0  0  0  0  0  0  0  0  0
    7.4859  -16.5255   21.2464 C   0  0  0  0  0  0  0  0  0  0  0  0
    6.2589  -16.4268   21.3892 O   0  0  0  0  0  0  0  0  0  0  0  0
    8.3134  -16.6694   22.3730 N   0  0  0  0  0  0  0  0  0  0  0  0
    7.8057  -16.8302   23.7221 C   0  0  1  0  0  0  0  0  0  0  0  0
    8.2791  -18.1169   24.2736 C   0  0  0  0  0  0  0  0  0  0  0  0
    8.0332  -18.3755   25.6897 C   0  0  0  0  0  0  0  0  0  0  0  0
    8.8237  -18.5144   26.7797 C   0  0  0  0  0  0  0  0  0  0  0  0
    8.0527  -18.7570   27.8479 N   0  0  0  0  0  0  0  0  0  0  0  0
    6.7786  -18.7711   27.4311 C   0  0  0  0  0  0  0  0  0  0  0  0
    6.7475  -18.5420   26.1270 N   0  0  0  0  0  0  0  0  0  0  0  0
    8.3870  -15.6590   24.4882 C   0  0  0  0  0  0  0  0  0  0  0  0
    9.5653  -15.2584   24.3189 O   0  0  0  0  0  0  0  0  0  0  0  0
    6.6196  -12.0100   25.5340 C   0  0  0  0  0  0  0  0  0  0  0  0
    7.1601  -12.8360   26.6496 C   0  0  1  0  0  0  0  0  0  0  0  0
    6.0323  -13.3937   27.4935 C   0  0  0  0  0  0  0  0  0  0  0  0
    8.1533  -13.8775   26.2494 C   0  0  2  0  0  0  0  0  0  0  0  0
    7.6138  -14.9473   25.4507 N   0  0  0  0  0  0  0  0  0  0  0  0
    8.6922  -14.4813   27.4953 C   0  0  0  0  0  0  0  0  0  0  0  0
    9.4627  -13.7593   28.3925 O   0  0  0  0  0  0  0  0  0  0  0  0
    8.4436  -15.6718   27.7398 O   0  0  0  0  0  0  0  0  0  0  0  0
  2  1  1  0
  3  4  1  0
  3  2  1  0
  4  5  1  0
  5  6  1  6
  5  7  1  0
  7  8  2  0
  9  7  1  0
  9 10  1  0
 10 11  1  1
 11 12  1  0
 12 16  1  0
 12 13  2  0
 13 14  1  0
 15 14  1  0
 16 15  2  0
 17 10  1  0
 17 18  2  0
 20 19  1  6
 20 22  1  0
 21 20  1  0
 22 23  1  6
 23 17  1  0
 24 22  1  0
 24 25  1  0
 26 24  2  0
M  END
$$$$
