MHV.pdb
     RDKit          3D

 26 26  0  0  1  0  0  0  0  0999 V2000
    7.5791  -11.7005   21.3515 C   0  0  0  0  0  0  0  0  0  0  0  0
    7.8321  -12.2178   19.6640 S   0  0  0  0  0  0  0  0  0  0  0  0
    8.5081  -13.8531   19.4368 C   0  0  0  0  0  0  0  0  0  0  0  0
    8.6515  -14.5859   20.7307 C   0  0  0  0  0  0  0  0  0  0  0  0
    9.1918  -15.9669   20.5237 C   0  0  2  0  0  0  0  0  0  0  0  0
    8.3475  -16.7377   19.6259 N   0  0  0  0  0  0  0  0  0  0  0  0
    9.1912  -16.6134   21.8846 C   0  0  0  0  0  0  0  0  0  0  0  0
    8.1719  -17.1758   22.3094 O   0  0  0  0  0  0  0  0  0  0  0  0
   10.3529  -16.5776   22.6745 N   0  0  0  0  0  0  0  0  0  0  0  0
   10.4358  -17.1596   24.0004 C   0  0  1  0  0  0  0  0  0  0  0  0
   11.5084  -18.1758   24.0232 C   0  0  0  0  0  0  0  0  0  0  0  0
   11.2244  -19.4707   23.4104 C   0  0  0  0  0  0  0  0  0  0  0  0
   10.1009  -20.0889   22.9771 C   0  0  0  0  0  0  0  0  0  0  0  0
   10.4260  -21.2982   22.5014 N   0  0  0  0  0  0  0  0  0  0  0  0
   11.7522  -21.4413   22.6353 C   0  0  0  0  0  0  0  0  0  0  0  0
   12.2525  -20.3446   23.1840 N   0  0  0  0  0  0  0  0  0  0  0  0
   10.7687  -15.9917   24.9071 C   0  0  0  0  0  0  0  0  0  0  0  0
   11.7727  -15.2594   24.7250 O   0  0  0  0  0  0  0  0  0  0  0  0
    8.9043  -12.7470   26.0862 C   0  0  0  0  0  0  0  0  0  0  0  0
    9.2279  -13.6366   27.2365 C   0  0  1  0  0  0  0  0  0  0  0  0
    7.9652  -14.2501   27.8061 C   0  0  0  0  0  0  0  0  0  0  0  0
   10.2980  -14.6468   26.9806 C   0  0  2  0  0  0  0  0  0  0  0  0
    9.9473  -15.6651   26.0248 N   0  0  0  0  0  0  0  0  0  0  0  0
   10.5854  -15.3275   28.2695 C   0  0  0  0  0  0  0  0  0  0  0  0
   11.2118  -14.6805   29.3227 O   0  0  0  0  0  0  0  0  0  0  0  0
   10.2533  -16.5147   28.4069 O   0  0  0  0  0  0  0  0  0  0  0  0
  2  1  1  0
  3  4  1  0
  3  2  1  0
  4  5  1  0
  5  6  1  6
  5  7  1  0
  7  8  2  0
  9  7  1  0
  9 10  1  0
 10 11  1  6
 11 12  1  0
 12 16  1  0
 12 13  2  0
 13 14  1  0
 15 14  1  0
 16 15  2  0
 17 10  1  0
 17 18  2  0
 20 19  1  6
 20 22  1  0
 21 20  1  0
 22 23  1  6
 23 17  1  0
 24 22  1  0
 24 25  1  0
 26 24  2  0
M  END
$$$$
