MHV.pdb
     RDKit          3D

 26 26  0  0  1  0  0  0  0  0999 V2000
    6.6479  -12.0759   17.8371 C   0  0  0  0  0  0  0  0  0  0  0  0
    7.3019  -13.5656   17.1074 S   0  0  0  0  0  0  0  0  0  0  0  0
    8.3670  -14.5480   18.1482 C   0  0  0  0  0  0  0  0  0  0  0  0
    8.0657  -14.3569   19.5989 C   0  0  0  0  0  0  0  0  0  0  0  0
    9.0110  -15.1319   20.4635 C   0  0  2  0  0  0  0  0  0  0  0  0
    9.3331  -16.4212   19.8745 N   0  0  0  0  0  0  0  0  0  0  0  0
    8.2875  -15.3476   21.7674 C   0  0  0  0  0  0  0  0  0  0  0  0
    7.6048  -14.4392   22.2616 O   0  0  0  0  0  0  0  0  0  0  0  0
    8.3886  -16.5855   22.4248 N   0  0  0  0  0  0  0  0  0  0  0  0
    7.7340  -16.8763   23.6861 C   0  0  1  0  0  0  0  0  0  0  0  0
    8.0822  -18.2471   24.1141 C   0  0  0  0  0  0  0  0  0  0  0  0
    7.5951  -18.6916   25.4171 C   0  0  0  0  0  0  0  0  0  0  0  0
    6.7328  -18.1863   26.3301 C   0  0  0  0  0  0  0  0  0  0  0  0
    6.6646  -19.0234   27.3736 N   0  0  0  0  0  0  0  0  0  0  0  0
    7.4829  -20.0542   27.1182 C   0  0  0  0  0  0  0  0  0  0  0  0
    8.0549  -19.8703   25.9378 N   0  0  0  0  0  0  0  0  0  0  0  0
    8.2887  -15.8448   24.6478 C   0  0  0  0  0  0  0  0  0  0  0  0
    9.5000  -15.5128   24.6583 O   0  0  0  0  0  0  0  0  0  0  0  0
    7.3298  -12.2901   28.0591 C   0  0  0  0  0  0  0  0  0  0  0  0
    6.8638  -13.2876   27.0557 C   0  0  1  0  0  0  0  0  0  0  0  0
    6.0261  -12.6157   25.9870 C   0  0  0  0  0  0  0  0  0  0  0  0
    7.9293  -14.1674   26.4882 C   0  0  2  0  0  0  0  0  0  0  0  0
    7.4509  -15.1942   25.5993 N   0  0  0  0  0  0  0  0  0  0  0  0
    8.6020  -14.8437   27.6272 C   0  0  0  0  0  0  0  0  0  0  0  0
    9.4562  -14.1705   28.4857 O   0  0  0  0  0  0  0  0  0  0  0  0
    8.3914  -16.0516   27.8153 O   0  0  0  0  0  0  0  0  0  0  0  0
  2  1  1  0
  3  4  1  0
  3  2  1  0
  4  5  1  0
  5  6  1  6
  5  7  1  0
  7  8  2  0
  9  7  1  0
  9 10  1  0
 10 11  1  1
 11 12  1  0
 12 16  1  0
 12 13  2  0
 13 14  1  0
 15 14  1  0
 16 15  2  0
 17 10  1  0
 17 18  2  0
 20 19  1  6
 20 22  1  0
 21 20  1  0
 22 23  1  6
 23 17  1  0
 24 22  1  0
 24 25  1  0
 26 24  2  0
M  END
$$$$
