MHV.pdb
     RDKit          3D

 26 26  0  0  1  0  0  0  0  0999 V2000
    6.9602  -11.6303   19.3992 C   0  0  0  0  0  0  0  0  0  0  0  0
    7.3682  -13.0352   18.3798 S   0  0  0  0  0  0  0  0  0  0  0  0
    8.5955  -14.1516   19.0357 C   0  0  0  0  0  0  0  0  0  0  0  0
    8.8426  -13.9217   20.4910 C   0  0  0  0  0  0  0  0  0  0  0  0
    9.8534  -14.8828   21.0357 C   0  0  2  0  0  0  0  0  0  0  0  0
    9.9055  -16.1020   20.2458 N   0  0  0  0  0  0  0  0  0  0  0  0
    9.3911  -15.2136   22.4310 C   0  0  0  0  0  0  0  0  0  0  0  0
    8.9825  -14.3177   23.1834 O   0  0  0  0  0  0  0  0  0  0  0  0
    9.4241  -16.5449   22.8797 N   0  0  0  0  0  0  0  0  0  0  0  0
    8.9411  -16.9614   24.1823 C   0  0  1  0  0  0  0  0  0  0  0  0
    8.8731  -18.4367   24.2309 C   0  0  0  0  0  0  0  0  0  0  0  0
    9.9937  -19.1830   23.6651 C   0  0  0  0  0  0  0  0  0  0  0  0
   10.9502  -18.9073   22.7478 C   0  0  0  0  0  0  0  0  0  0  0  0
   11.7341  -19.9834   22.6002 N   0  0  0  0  0  0  0  0  0  0  0  0
   11.2717  -20.9354   23.4231 C   0  0  0  0  0  0  0  0  0  0  0  0
   10.2182  -20.4686   24.0760 N   0  0  0  0  0  0  0  0  0  0  0  0
    9.9716  -16.4282   25.1572 C   0  0  0  0  0  0  0  0  0  0  0  0
   11.1749  -16.2554   24.8414 O   0  0  0  0  0  0  0  0  0  0  0  0
   10.0569  -13.1028   27.0888 C   0  0  0  0  0  0  0  0  0  0  0  0
   10.1543  -14.2429   28.0426 C   0  0  1  0  0  0  0  0  0  0  0  0
    8.8929  -14.3496   28.8748 C   0  0  0  0  0  0  0  0  0  0  0  0
   10.5616  -15.5470   27.4387 C   0  0  2  0  0  0  0  0  0  0  0  0
    9.6195  -16.0937   26.4968 N   0  0  0  0  0  0  0  0  0  0  0  0
   10.7014  -16.5267   28.5467 C   0  0  0  0  0  0  0  0  0  0  0  0
   11.7146  -16.4376   29.4878 O   0  0  0  0  0  0  0  0  0  0  0  0
    9.8833  -17.4553   28.6317 O   0  0  0  0  0  0  0  0  0  0  0  0
  2  1  1  0
  3  4  1  0
  3  2  1  0
  4  5  1  0
  5  6  1  6
  5  7  1  0
  7  8  2  0
  9  7  1  0
  9 10  1  0
 10 11  1  6
 11 12  1  0
 12 16  1  0
 12 13  2  0
 13 14  1  0
 15 14  1  0
 16 15  2  0
 17 10  1  0
 17 18  2  0
 20 19  1  6
 20 22  1  0
 21 20  1  0
 22 23  1  6
 23 17  1  0
 24 22  1  0
 24 25  1  0
 26 24  2  0
M  END
$$$$
