YTV.pdb
     RDKit          3D

 27 27  0  0  1  0  0  0  0  0999 V2000
    7.8993  -12.3058   16.4904 O   0  0  0  0  0  0  0  0  0  0  0  0
    7.8155  -12.8793   17.7493 C   0  0  0  0  0  0  0  0  0  0  0  0
    6.5826  -13.2558   18.2369 C   0  0  0  0  0  0  0  0  0  0  0  0
    6.4748  -13.8344   19.5002 C   0  0  0  0  0  0  0  0  0  0  0  0
    7.6245  -14.0211   20.2486 C   0  0  0  0  0  0  0  0  0  0  0  0
    7.5460  -14.6263   21.5798 C   0  0  0  0  0  0  0  0  0  0  0  0
    8.0430  -16.0543   21.5750 C   0  0  2  0  0  0  0  0  0  0  0  0
    7.0159  -16.8554   20.9316 N   0  0  0  0  0  0  0  0  0  0  0  0
    8.2227  -16.5614   22.9504 C   0  0  0  0  0  0  0  0  0  0  0  0
    7.2184  -16.9275   23.5986 O   0  0  0  0  0  0  0  0  0  0  0  0
    8.8461  -13.6361   19.7389 C   0  0  0  0  0  0  0  0  0  0  0  0
    8.9784  -13.0567   18.4808 C   0  0  0  0  0  0  0  0  0  0  0  0
    9.5391  -19.4979   23.9983 C   0  0  0  0  0  0  0  0  0  0  0  0
   10.3832  -18.4843   24.7772 C   0  0  1  0  0  0  0  0  0  0  0  0
   11.5630  -18.3249   24.0789 O   0  0  0  0  0  0  0  0  0  0  0  0
    9.6122  -17.1624   24.8803 C   0  0  2  0  0  0  0  0  0  0  0  0
    9.4962  -16.6451   23.5558 N   0  0  0  0  0  0  0  0  0  0  0  0
   10.4171  -16.2921   25.7738 C   0  0  0  0  0  0  0  0  0  0  0  0
   11.4768  -15.7981   25.3145 O   0  0  0  0  0  0  0  0  0  0  0  0
    8.8952  -14.3663   29.2224 C   0  0  0  0  0  0  0  0  0  0  0  0
   10.1489  -13.9992   28.4893 C   0  0  2  0  0  0  0  0  0  0  0  0
    9.9308  -12.9918   27.3935 C   0  0  0  0  0  0  0  0  0  0  0  0
   10.8652  -15.2307   28.0228 C   0  0  2  0  0  0  0  0  0  0  0  0
   10.0435  -15.9993   27.1077 N   0  0  0  0  0  0  0  0  0  0  0  0
   11.1239  -16.0690   29.2470 C   0  0  0  0  0  0  0  0  0  0  0  0
   10.4730  -17.2865   29.4153 O   0  0  0  0  0  0  0  0  0  0  0  0
   11.9155  -15.7096   30.1373 O   0  0  0  0  0  0  0  0  0  0  0  0
  2 12  2  0
  2  1  1  0
  3  2  1  0
  4  5  1  0
  4  3  2  0
  5 11  2  0
  6  5  1  0
  7  6  1  0
  7  8  1  1
  9  7  1  0
  9 10  2  0
 11 12  1  0
 14 13  1  6
 14 15  1  0
 14 16  1  0
 16 17  1  6
 17  9  1  0
 18 16  1  0
 19 18  2  0
 21 20  1  6
 22 21  1  0
 23 24  1  6
 23 21  1  0
 24 18  1  0
 25 23  1  0
 26 25  1  0
 27 25  2  0
M  END
$$$$
