YTV.pdb
     RDKit          3D

 27 27  0  0  1  0  0  0  0  0999 V2000
    7.8025  -12.0094   16.4297 O   0  0  0  0  0  0  0  0  0  0  0  0
    7.8913  -12.7237   17.6140 C   0  0  0  0  0  0  0  0  0  0  0  0
    6.7994  -13.4427   18.0501 C   0  0  0  0  0  0  0  0  0  0  0  0
    6.8662  -14.1683   19.2382 C   0  0  0  0  0  0  0  0  0  0  0  0
    8.0445  -14.1508   19.9649 C   0  0  0  0  0  0  0  0  0  0  0  0
    8.1479  -14.9024   21.2175 C   0  0  0  0  0  0  0  0  0  0  0  0
    8.9380  -16.1793   21.0398 C   0  0  2  0  0  0  0  0  0  0  0  0
    8.1923  -17.0099   20.1100 N   0  0  0  0  0  0  0  0  0  0  0  0
    9.0571  -16.9149   22.3149 C   0  0  0  0  0  0  0  0  0  0  0  0
    8.3767  -17.9499   22.4845 O   0  0  0  0  0  0  0  0  0  0  0  0
    9.1229  -13.4239   19.5078 C   0  0  0  0  0  0  0  0  0  0  0  0
    9.0797  -12.6922   18.3251 C   0  0  0  0  0  0  0  0  0  0  0  0
    9.9699  -19.3682   23.2135 C   0  0  0  0  0  0  0  0  0  0  0  0
   10.8002  -18.5275   24.1884 C   0  0  1  0  0  0  0  0  0  0  0  0
   11.9863  -18.2280   23.5493 O   0  0  0  0  0  0  0  0  0  0  0  0
   10.0208  -17.2555   24.5446 C   0  0  2  0  0  0  0  0  0  0  0  0
    9.9172  -16.4838   23.3491 N   0  0  0  0  0  0  0  0  0  0  0  0
   10.8107  -16.5793   25.6040 C   0  0  0  0  0  0  0  0  0  0  0  0
   11.9611  -16.1700   25.3088 O   0  0  0  0  0  0  0  0  0  0  0  0
   10.6965  -13.5808   29.3656 C   0  0  0  0  0  0  0  0  0  0  0  0
   10.2313  -14.2621   28.1153 C   0  0  2  0  0  0  0  0  0  0  0  0
    8.7390  -14.4390   28.0473 C   0  0  0  0  0  0  0  0  0  0  0  0
   10.9860  -15.5394   27.9004 C   0  0  2  0  0  0  0  0  0  0  0  0
   10.3259  -16.3788   26.9191 N   0  0  0  0  0  0  0  0  0  0  0  0
   10.9901  -16.2652   29.2201 C   0  0  0  0  0  0  0  0  0  0  0  0
   11.8456  -15.8633   30.2403 O   0  0  0  0  0  0  0  0  0  0  0  0
   10.2416  -17.2340   29.4425 O   0  0  0  0  0  0  0  0  0  0  0  0
  2 12  2  0
  2  1  1  0
  3  2  1  0
  4  5  1  0
  4  3  2  0
  5 11  2  0
  6  5  1  0
  7  6  1  0
  7  8  1  6
  9  7  1  0
  9 10  2  0
 11 12  1  0
 14 13  1  6
 14 15  1  0
 14 16  1  0
 16 17  1  6
 17  9  1  0
 18 16  1  0
 19 18  2  0
 21 20  1  1
 22 21  1  0
 23 24  1  6
 23 21  1  0
 24 18  1  0
 25 23  1  0
 26 25  1  0
 27 25  2  0
M  END
$$$$
