YTV.pdb
     RDKit          3D

 27 27  0  0  1  0  0  0  0  0999 V2000
    8.8635  -13.0927   16.1917 O   0  0  0  0  0  0  0  0  0  0  0  0
    8.3191  -13.5877   17.3661 C   0  0  0  0  0  0  0  0  0  0  0  0
    7.4816  -12.7853   18.1106 C   0  0  0  0  0  0  0  0  0  0  0  0
    6.9228  -13.2624   19.2949 C   0  0  0  0  0  0  0  0  0  0  0  0
    7.2253  -14.5501   19.7037 C   0  0  0  0  0  0  0  0  0  0  0  0
    6.6548  -15.0819   20.9432 C   0  0  0  0  0  0  0  0  0  0  0  0
    7.0485  -16.5247   21.1660 C   0  0  2  0  0  0  0  0  0  0  0  0
    6.0071  -17.3424   20.5682 N   0  0  0  0  0  0  0  0  0  0  0  0
    7.1099  -16.8447   22.6065 C   0  0  0  0  0  0  0  0  0  0  0  0
    6.2655  -17.6292   23.0906 O   0  0  0  0  0  0  0  0  0  0  0  0
    8.0657  -15.3332   18.9417 C   0  0  0  0  0  0  0  0  0  0  0  0
    8.6352  -14.8788   17.7563 C   0  0  0  0  0  0  0  0  0  0  0  0
    7.3157  -18.9273   24.1029 C   0  0  0  0  0  0  0  0  0  0  0  0
    8.4353  -18.1907   24.8448 C   0  0  1  0  0  0  0  0  0  0  0  0
    9.6127  -18.4850   24.1874 O   0  0  0  0  0  0  0  0  0  0  0  0
    8.1454  -16.6847   24.8242 C   0  0  2  0  0  0  0  0  0  0  0  0
    8.0947  -16.2905   23.4540 N   0  0  0  0  0  0  0  0  0  0  0  0
    9.2595  -16.0470   25.5697 C   0  0  0  0  0  0  0  0  0  0  0  0
   10.3999  -16.0552   25.0429 O   0  0  0  0  0  0  0  0  0  0  0  0
    8.4617  -13.5218   28.9253 C   0  0  0  0  0  0  0  0  0  0  0  0
    9.5774  -13.3261   27.9451 C   0  0  2  0  0  0  0  0  0  0  0  0
    9.2217  -12.4115   26.8050 C   0  0  0  0  0  0  0  0  0  0  0  0
   10.1174  -14.6491   27.4920 C   0  0  2  0  0  0  0  0  0  0  0  0
    9.0914  -15.4366   26.8361 N   0  0  0  0  0  0  0  0  0  0  0  0
   10.5588  -15.3822   28.7314 C   0  0  0  0  0  0  0  0  0  0  0  0
   11.6756  -14.9537   29.4409 O   0  0  0  0  0  0  0  0  0  0  0  0
    9.9513  -16.3805   29.1589 O   0  0  0  0  0  0  0  0  0  0  0  0
  2 12  2  0
  2  1  1  0
  3  2  1  0
  4  5  1  0
  4  3  2  0
  5 11  2  0
  6  5  1  0
  7  6  1  0
  7  8  1  6
  9  7  1  0
  9 10  2  0
 11 12  1  0
 14 13  1  6
 14 15  1  0
 14 16  1  0
 16 17  1  6
 17  9  1  0
 18 16  1  0
 19 18  2  0
 21 20  1  6
 22 21  1  0
 23 24  1  1
 23 21  1  0
 24 18  1  0
 25 23  1  0
 26 25  1  0
 27 25  2  0
M  END
$$$$
