YTV.pdb
     RDKit          3D

 27 27  0  0  1  0  0  0  0  0999 V2000
    8.3165  -12.4856   16.2745 O   0  0  0  0  0  0  0  0  0  0  0  0
    8.1310  -12.9941   17.5503 C   0  0  0  0  0  0  0  0  0  0  0  0
    6.8600  -13.0316   18.0819 C   0  0  0  0  0  0  0  0  0  0  0  0
    6.6501  -13.5388   19.3630 C   0  0  0  0  0  0  0  0  0  0  0  0
    7.7381  -14.0004   20.0840 C   0  0  0  0  0  0  0  0  0  0  0  0
    7.5520  -14.5395   21.4328 C   0  0  0  0  0  0  0  0  0  0  0  0
    7.7703  -16.0352   21.4722 C   0  0  2  0  0  0  0  0  0  0  0  0
    6.6681  -16.6408   20.7448 N   0  0  0  0  0  0  0  0  0  0  0  0
    7.7363  -16.5431   22.8586 C   0  0  0  0  0  0  0  0  0  0  0  0
    6.7298  -17.1729   23.2500 O   0  0  0  0  0  0  0  0  0  0  0  0
    8.9996  -13.9523   19.5304 C   0  0  0  0  0  0  0  0  0  0  0  0
    9.2335  -13.4505   18.2539 C   0  0  0  0  0  0  0  0  0  0  0  0
    7.8192  -18.9767   23.8284 C   0  0  0  0  0  0  0  0  0  0  0  0
    8.9776  -18.5093   24.7151 C   0  0  1  0  0  0  0  0  0  0  0  0
   10.1419  -18.7558   24.0160 O   0  0  0  0  0  0  0  0  0  0  0  0
    8.8107  -17.0140   25.0127 C   0  0  2  0  0  0  0  0  0  0  0  0
    8.8076  -16.3385   23.7562 N   0  0  0  0  0  0  0  0  0  0  0  0
    9.9641  -16.6397   25.8690 C   0  0  0  0  0  0  0  0  0  0  0  0
   11.0090  -16.2330   25.3026 O   0  0  0  0  0  0  0  0  0  0  0  0
   10.5001  -13.3913   27.7839 C   0  0  0  0  0  0  0  0  0  0  0  0
    9.8685  -14.5815   28.4383 C   0  0  2  0  0  0  0  0  0  0  0  0
    9.5860  -14.3826   29.9023 C   0  0  0  0  0  0  0  0  0  0  0  0
   10.6631  -15.8208   28.1550 C   0  0  2  0  0  0  0  0  0  0  0  0
    9.9351  -16.7215   27.2821 N   0  0  0  0  0  0  0  0  0  0  0  0
   10.8747  -16.5092   29.4777 C   0  0  0  0  0  0  0  0  0  0  0  0
   11.9363  -16.1433   30.2984 O   0  0  0  0  0  0  0  0  0  0  0  0
   10.1210  -17.4147   29.8781 O   0  0  0  0  0  0  0  0  0  0  0  0
  2 12  2  0
  2  1  1  0
  3  2  1  0
  4  5  1  0
  4  3  2  0
  5 11  2  0
  6  5  1  0
  7  6  1  0
  7  8  1  6
  9  7  1  0
  9 10  2  0
 11 12  1  0
 14 13  1  6
 14 15  1  0
 14 16  1  0
 16 17  1  6
 17  9  1  0
 18 16  1  0
 19 18  2  0
 21 20  1  1
 22 21  1  0
 23 24  1  6
 23 21  1  0
 24 18  1  0
 25 23  1  0
 26 25  1  0
 27 25  2  0
M  END
$$$$
