YTV.pdb
     RDKit          3D

 27 27  0  0  1  0  0  0  0  0999 V2000
   11.8733  -22.3582   28.2153 O   0  0  0  0  0  0  0  0  0  0  0  0
   11.8941  -21.1644   27.5116 C   0  0  0  0  0  0  0  0  0  0  0  0
   10.7309  -20.7025   26.9348 C   0  0  0  0  0  0  0  0  0  0  0  0
   10.7286  -19.5044   26.2226 C   0  0  0  0  0  0  0  0  0  0  0  0
   11.9116  -18.7944   26.1083 C   0  0  0  0  0  0  0  0  0  0  0  0
   11.9435  -17.5319   25.3668 C   0  0  0  0  0  0  0  0  0  0  0  0
   11.6210  -17.7347   23.9035 C   0  0  2  0  0  0  0  0  0  0  0  0
   12.8890  -17.8731   23.2081 N   0  0  0  0  0  0  0  0  0  0  0  0
   10.9192  -16.5617   23.3443 C   0  0  0  0  0  0  0  0  0  0  0  0
   11.5875  -15.5665   22.9898 O   0  0  0  0  0  0  0  0  0  0  0  0
   13.0621  -19.2773   26.6943 C   0  0  0  0  0  0  0  0  0  0  0  0
   13.0886  -20.4703   27.4099 C   0  0  0  0  0  0  0  0  0  0  0  0
    8.2373  -15.5125   20.7647 C   0  0  0  0  0  0  0  0  0  0  0  0
    7.6752  -15.4110   22.1861 C   0  0  1  0  0  0  0  0  0  0  0  0
    6.9522  -16.5643   22.4142 O   0  0  0  0  0  0  0  0  0  0  0  0
    8.8376  -15.2751   23.1775 C   0  0  2  0  0  0  0  0  0  0  0  0
    9.5146  -16.5307   23.1979 N   0  0  0  0  0  0  0  0  0  0  0  0
    8.2197  -14.9287   24.4820 C   0  0  0  0  0  0  0  0  0  0  0  0
    8.1443  -15.8295   25.3543 O   0  0  0  0  0  0  0  0  0  0  0  0
    5.7522  -11.5213   24.9663 C   0  0  0  0  0  0  0  0  0  0  0  0
    6.7079  -11.8426   26.0741 C   0  0  2  0  0  0  0  0  0  0  0  0
    7.8976  -10.9235   26.1266 C   0  0  0  0  0  0  0  0  0  0  0  0
    7.0855  -13.2930   26.0387 C   0  0  2  0  0  0  0  0  0  0  0  0
    7.7174  -13.6390   24.7800 N   0  0  0  0  0  0  0  0  0  0  0  0
    5.8041  -14.0753   26.1576 C   0  0  0  0  0  0  0  0  0  0  0  0
    5.1094  -14.1071   27.3621 O   0  0  0  0  0  0  0  0  0  0  0  0
    5.3280  -14.7109   25.1996 O   0  0  0  0  0  0  0  0  0  0  0  0
  2 12  2  0
  2  1  1  0
  3  2  1  0
  4  5  1  0
  4  3  2  0
  5 11  2  0
  6  5  1  0
  7  6  1  0
  7  8  1  6
  9  7  1  0
  9 10  2  0
 11 12  1  0
 14 13  1  6
 14 15  1  0
 14 16  1  0
 16 17  1  1
 17  9  1  0
 18 16  1  0
 19 18  2  0
 21 20  1  6
 22 21  1  0
 23 24  1  6
 23 21  1  0
 24 18  1  0
 25 23  1  0
 26 25  1  0
 27 25  2  0
M  END
$$$$
