YTV.pdb
     RDKit          3D

 27 27  0  0  1  0  0  0  0  0999 V2000
   11.9277  -21.7775   26.4405 O   0  0  0  0  0  0  0  0  0  0  0  0
   11.9883  -20.6099   25.6963 C   0  0  0  0  0  0  0  0  0  0  0  0
   10.9944  -19.6664   25.8420 C   0  0  0  0  0  0  0  0  0  0  0  0
   11.0350  -18.4849   25.1037 C   0  0  0  0  0  0  0  0  0  0  0  0
   12.0877  -18.2818   24.2277 C   0  0  0  0  0  0  0  0  0  0  0  0
   12.1603  -17.0513   23.4371 C   0  0  0  0  0  0  0  0  0  0  0  0
   11.3653  -17.1622   22.1558 C   0  0  2  0  0  0  0  0  0  0  0  0
   12.3016  -16.9715   21.0615 N   0  0  0  0  0  0  0  0  0  0  0  0
   10.3407  -16.1019   22.0700 C   0  0  0  0  0  0  0  0  0  0  0  0
   10.2710  -15.4074   21.0330 O   0  0  0  0  0  0  0  0  0  0  0  0
   13.0698  -19.2406   24.0998 C   0  0  0  0  0  0  0  0  0  0  0  0
   13.0504  -20.4274   24.8260 C   0  0  0  0  0  0  0  0  0  0  0  0
    8.0362  -15.8101   20.6414 C   0  0  0  0  0  0  0  0  0  0  0  0
    7.3669  -15.5415   21.9929 C   0  0  1  0  0  0  0  0  0  0  0  0
    6.9318  -16.7600   22.4736 O   0  0  0  0  0  0  0  0  0  0  0  0
    8.3880  -14.8996   22.9404 C   0  0  2  0  0  0  0  0  0  0  0  0
    9.4366  -15.8491   23.1255 N   0  0  0  0  0  0  0  0  0  0  0  0
    7.6482  -14.6020   24.1925 C   0  0  0  0  0  0  0  0  0  0  0  0
    7.3324  -15.5670   24.9321 O   0  0  0  0  0  0  0  0  0  0  0  0
    7.0516  -10.8890   27.4568 C   0  0  0  0  0  0  0  0  0  0  0  0
    6.9554  -11.3708   26.0418 C   0  0  2  0  0  0  0  0  0  0  0  0
    5.6460  -11.0366   25.3810 C   0  0  0  0  0  0  0  0  0  0  0  0
    7.3028  -12.8267   25.9573 C   0  0  2  0  0  0  0  0  0  0  0  0
    7.2880  -13.2896   24.5830 N   0  0  0  0  0  0  0  0  0  0  0  0
    6.2373  -13.5693   26.7199 C   0  0  0  0  0  0  0  0  0  0  0  0
    6.3718  -13.7828   28.0876 O   0  0  0  0  0  0  0  0  0  0  0  0
    5.2154  -14.0114   26.1643 O   0  0  0  0  0  0  0  0  0  0  0  0
  2 12  2  0
  2  1  1  0
  3  2  1  0
  4  5  1  0
  4  3  2  0
  5 11  2  0
  6  5  1  0
  7  6  1  0
  7  8  1  6
  9  7  1  0
  9 10  2  0
 11 12  1  0
 14 13  1  6
 14 15  1  0
 14 16  1  0
 16 17  1  1
 17  9  1  0
 18 16  1  0
 19 18  2  0
 21 20  1  1
 22 21  1  0
 23 24  1  6
 23 21  1  0
 24 18  1  0
 25 23  1  0
 26 25  1  0
 27 25  2  0
M  END
$$$$
