YTV.pdb
     RDKit          3D

 27 27  0  0  1  0  0  0  0  0999 V2000
   10.4273  -14.2265   31.0840 O   0  0  0  0  0  0  0  0  0  0  0  0
   10.1954  -14.4419   29.7348 C   0  0  0  0  0  0  0  0  0  0  0  0
    9.4861  -13.5044   29.0155 C   0  0  0  0  0  0  0  0  0  0  0  0
    9.2410  -13.7003   27.6575 C   0  0  0  0  0  0  0  0  0  0  0  0
    9.7222  -14.8487   27.0520 C   0  0  0  0  0  0  0  0  0  0  0  0
    9.4821  -15.0850   25.6268 C   0  0  0  0  0  0  0  0  0  0  0  0
    8.0395  -15.4475   25.3554 C   0  0  2  0  0  0  0  0  0  0  0  0
    7.7517  -16.6407   26.1325 N   0  0  0  0  0  0  0  0  0  0  0  0
    7.8294  -15.7696   23.9294 C   0  0  0  0  0  0  0  0  0  0  0  0
    6.6772  -16.0496   23.5336 O   0  0  0  0  0  0  0  0  0  0  0  0
   10.4289  -15.7715   27.7929 C   0  0  0  0  0  0  0  0  0  0  0  0
   10.6858  -15.5976   29.1493 C   0  0  0  0  0  0  0  0  0  0  0  0
    7.7226  -14.7671   19.6170 C   0  0  0  0  0  0  0  0  0  0  0  0
    7.7765  -14.7757   21.1479 C   0  0  1  0  0  0  0  0  0  0  0  0
    6.4737  -14.8689   21.5940 O   0  0  0  0  0  0  0  0  0  0  0  0
    8.6139  -15.9730   21.6144 C   0  0  2  0  0  0  0  0  0  0  0  0
    8.8922  -15.7706   22.9989 N   0  0  0  0  0  0  0  0  0  0  0  0
    9.8354  -15.9669   20.7710 C   0  0  0  0  0  0  0  0  0  0  0  0
   10.4751  -14.8904   20.6707 O   0  0  0  0  0  0  0  0  0  0  0  0
   13.5006  -19.0775   20.1018 C   0  0  0  0  0  0  0  0  0  0  0  0
   12.0579  -18.7740   20.3674 C   0  0  2  0  0  0  0  0  0  0  0  0
   11.1188  -19.8397   19.8721 C   0  0  0  0  0  0  0  0  0  0  0  0
   11.7085  -17.4038   19.8698 C   0  0  2  0  0  0  0  0  0  0  0  0
   10.3039  -17.1119   20.0825 N   0  0  0  0  0  0  0  0  0  0  0  0
   11.9745  -17.4025   18.3873 C   0  0  0  0  0  0  0  0  0  0  0  0
   13.2523  -17.1439   17.9030 O   0  0  0  0  0  0  0  0  0  0  0  0
   11.0768  -17.6287   17.5559 O   0  0  0  0  0  0  0  0  0  0  0  0
  2 12  2  0
  2  1  1  0
  3  2  1  0
  4  5  1  0
  4  3  2  0
  5 11  2  0
  6  5  1  0
  7  6  1  0
  7  8  1  1
  9  7  1  0
  9 10  2  0
 11 12  1  0
 14 13  1  6
 14 15  1  0
 14 16  1  0
 16 17  1  1
 17  9  1  0
 18 16  1  0
 19 18  2  0
 21 20  1  6
 22 21  1  0
 23 24  1  6
 23 21  1  0
 24 18  1  0
 25 23  1  0
 26 25  1  0
 27 25  2  0
M  END
$$$$
