YTV.pdb
     RDKit          3D

 27 27  0  0  1  0  0  0  0  0999 V2000
    7.7089  -23.8247   29.4767 O   0  0  0  0  0  0  0  0  0  0  0  0
    8.0275  -22.6172   28.8758 C   0  0  0  0  0  0  0  0  0  0  0  0
    7.1663  -22.0818   27.9426 C   0  0  0  0  0  0  0  0  0  0  0  0
    7.4664  -20.8686   27.3256 C   0  0  0  0  0  0  0  0  0  0  0  0
    8.6397  -20.2184   27.6684 C   0  0  0  0  0  0  0  0  0  0  0  0
    8.9848  -18.9421   27.0389 C   0  0  0  0  0  0  0  0  0  0  0  0
    9.3185  -19.1132   25.5741 C   0  0  2  0  0  0  0  0  0  0  0  0
   10.6376  -19.7186   25.5106 N   0  0  0  0  0  0  0  0  0  0  0  0
    9.3813  -17.8084   24.8851 C   0  0  0  0  0  0  0  0  0  0  0  0
   10.4512  -17.1622   24.9050 O   0  0  0  0  0  0  0  0  0  0  0  0
    9.4849  -20.7744   28.6048 C   0  0  0  0  0  0  0  0  0  0  0  0
    9.2064  -21.9839   29.2337 C   0  0  0  0  0  0  0  0  0  0  0  0
    7.9212  -16.1727   21.5525 C   0  0  0  0  0  0  0  0  0  0  0  0
    7.2495  -15.6260   22.8160 C   0  0  1  0  0  0  0  0  0  0  0  0
    6.0572  -16.3059   22.9619 O   0  0  0  0  0  0  0  0  0  0  0  0
    8.1750  -15.8571   24.0170 C   0  0  2  0  0  0  0  0  0  0  0  0
    8.2679  -17.2684   24.2039 N   0  0  0  0  0  0  0  0  0  0  0  0
    7.5349  -15.1620   25.1618 C   0  0  0  0  0  0  0  0  0  0  0  0
    6.8774  -15.8552   25.9773 O   0  0  0  0  0  0  0  0  0  0  0  0
    7.0491  -10.9060   25.1994 C   0  0  0  0  0  0  0  0  0  0  0  0
    7.3438  -11.6206   26.4826 C   0  0  2  0  0  0  0  0  0  0  0  0
    8.7673  -11.4652   26.9434 C   0  0  0  0  0  0  0  0  0  0  0  0
    6.9045  -13.0516   26.4005 C   0  0  2  0  0  0  0  0  0  0  0  0
    7.6341  -13.7650   25.3700 N   0  0  0  0  0  0  0  0  0  0  0  0
    5.4463  -13.0342   26.0242 C   0  0  0  0  0  0  0  0  0  0  0  0
    4.4810  -12.7002   26.9681 O   0  0  0  0  0  0  0  0  0  0  0  0
    5.0582  -13.3130   24.8752 O   0  0  0  0  0  0  0  0  0  0  0  0
  2 12  2  0
  2  1  1  0
  3  2  1  0
  4  5  1  0
  4  3  2  0
  5 11  2  0
  6  5  1  0
  7  6  1  0
  7  8  1  1
  9  7  1  0
  9 10  2  0
 11 12  1  0
 14 13  1  6
 14 15  1  0
 14 16  1  0
 16 17  1  1
 17  9  1  0
 18 16  1  0
 19 18  2  0
 21 20  1  6
 22 21  1  0
 23 24  1  6
 23 21  1  0
 24 18  1  0
 25 23  1  0
 26 25  1  0
 27 25  2  0
M  END
$$$$
