YTV.pdb
     RDKit          3D

 27 27  0  0  1  0  0  0  0  0999 V2000
   15.0424  -14.4233   19.8503 O   0  0  0  0  0  0  0  0  0  0  0  0
   13.6781  -14.2085   19.7358 C   0  0  0  0  0  0  0  0  0  0  0  0
   12.8848  -14.3050   20.8586 C   0  0  0  0  0  0  0  0  0  0  0  0
   11.5103  -14.0930   20.7669 C   0  0  0  0  0  0  0  0  0  0  0  0
   10.9639  -13.7858   19.5324 C   0  0  0  0  0  0  0  0  0  0  0  0
    9.5234  -13.5572   19.4015 C   0  0  0  0  0  0  0  0  0  0  0  0
    8.7493  -14.8561   19.3959 C   0  0  2  0  0  0  0  0  0  0  0  0
    7.7936  -14.7719   18.3050 N   0  0  0  0  0  0  0  0  0  0  0  0
    7.9936  -15.0324   20.6524 C   0  0  0  0  0  0  0  0  0  0  0  0
    6.8094  -14.6360   20.7094 O   0  0  0  0  0  0  0  0  0  0  0  0
   11.7784  -13.6951   18.4240 C   0  0  0  0  0  0  0  0  0  0  0  0
   13.1526  -13.9025   18.4912 C   0  0  0  0  0  0  0  0  0  0  0  0
    6.9237  -17.5197   24.5591 C   0  0  0  0  0  0  0  0  0  0  0  0
    7.8002  -17.2855   23.3248 C   0  0  1  0  0  0  0  0  0  0  0  0
    7.2655  -18.0452   22.3039 O   0  0  0  0  0  0  0  0  0  0  0  0
    7.7873  -15.7921   22.9755 C   0  0  2  0  0  0  0  0  0  0  0  0
    8.5693  -15.6358   21.7925 N   0  0  0  0  0  0  0  0  0  0  0  0
    8.3686  -15.0958   24.1505 C   0  0  0  0  0  0  0  0  0  0  0  0
    9.6142  -15.1446   24.3057 O   0  0  0  0  0  0  0  0  0  0  0  0
    5.8985  -13.2045   27.1608 C   0  0  0  0  0  0  0  0  0  0  0  0
    7.2336  -12.6533   26.7639 C   0  0  2  0  0  0  0  0  0  0  0  0
    7.1451  -11.4940   25.8095 C   0  0  0  0  0  0  0  0  0  0  0  0
    8.1315  -13.7502   26.2762 C   0  0  2  0  0  0  0  0  0  0  0  0
    7.5854  -14.3867   25.0930 N   0  0  0  0  0  0  0  0  0  0  0  0
    8.1988  -14.7746   27.3782 C   0  0  0  0  0  0  0  0  0  0  0  0
    9.0009  -14.5556   28.4930 O   0  0  0  0  0  0  0  0  0  0  0  0
    7.5506  -15.8359   27.3328 O   0  0  0  0  0  0  0  0  0  0  0  0
  2 12  2  0
  2  1  1  0
  3  2  1  0
  4  5  1  0
  4  3  2  0
  5 11  2  0
  6  5  1  0
  7  6  1  0
  7  8  1  6
  9  7  1  0
  9 10  2  0
 11 12  1  0
 14 13  1  1
 14 15  1  0
 14 16  1  0
 16 17  1  6
 17  9  1  0
 18 16  1  0
 19 18  2  0
 21 20  1  6
 22 21  1  0
 23 24  1  6
 23 21  1  0
 24 18  1  0
 25 23  1  0
 26 25  1  0
 27 25  2  0
M  END
$$$$
