YTV.pdb
     RDKit          3D

 27 27  0  0  1  0  0  0  0  0999 V2000
    7.4246  -25.7199   12.5420 O   0  0  0  0  0  0  0  0  0  0  0  0
    8.1479  -25.1157   13.5582 C   0  0  0  0  0  0  0  0  0  0  0  0
    9.5155  -25.2810   13.6012 C   0  0  0  0  0  0  0  0  0  0  0  0
   10.2629  -24.6826   14.6140 C   0  0  0  0  0  0  0  0  0  0  0  0
    9.6062  -23.9245   15.5684 C   0  0  0  0  0  0  0  0  0  0  0  0
   10.3619  -23.2823   16.6459 C   0  0  0  0  0  0  0  0  0  0  0  0
   10.3953  -21.7791   16.4865 C   0  0  2  0  0  0  0  0  0  0  0  0
   11.2750  -21.4940   15.3661 N   0  0  0  0  0  0  0  0  0  0  0  0
   10.9583  -21.1276   17.6864 C   0  0  0  0  0  0  0  0  0  0  0  0
   12.1627  -20.7924   17.6866 O   0  0  0  0  0  0  0  0  0  0  0  0
    8.2375  -23.7742   15.5038 C   0  0  0  0  0  0  0  0  0  0  0  0
    7.4706  -24.3618   14.5025 C   0  0  0  0  0  0  0  0  0  0  0  0
   10.3775  -18.1983   21.4279 C   0  0  0  0  0  0  0  0  0  0  0  0
    9.7963  -19.0093   20.2656 C   0  0  1  0  0  0  0  0  0  0  0  0
    9.6636  -18.1429   19.1995 O   0  0  0  0  0  0  0  0  0  0  0  0
   10.7498  -20.1635   19.9321 C   0  0  2  0  0  0  0  0  0  0  0  0
   10.1763  -20.8718   18.8345 N   0  0  0  0  0  0  0  0  0  0  0  0
   10.8415  -20.9832   21.1663 C   0  0  0  0  0  0  0  0  0  0  0  0
    9.7900  -21.5210   21.5942 O   0  0  0  0  0  0  0  0  0  0  0  0
   14.5945  -21.6456   23.2101 C   0  0  0  0  0  0  0  0  0  0  0  0
   13.4908  -22.6575   23.1665 C   0  0  2  0  0  0  0  0  0  0  0  0
   13.6849  -23.7129   22.1124 C   0  0  0  0  0  0  0  0  0  0  0  0
   12.1573  -21.9778   23.0807 C   0  0  2  0  0  0  0  0  0  0  0  0
   12.0522  -21.1817   21.8730 N   0  0  0  0  0  0  0  0  0  0  0  0
   12.0665  -21.0548   24.2673 C   0  0  0  0  0  0  0  0  0  0  0  0
   11.8453  -21.5676   25.5410 O   0  0  0  0  0  0  0  0  0  0  0  0
   12.1839  -19.8212   24.1539 O   0  0  0  0  0  0  0  0  0  0  0  0
  2 12  2  0
  2  1  1  0
  3  2  1  0
  4  5  1  0
  4  3  2  0
  5 11  2  0
  6  5  1  0
  7  6  1  0
  7  8  1  6
  9  7  1  0
  9 10  2  0
 11 12  1  0
 14 13  1  1
 14 15  1  0
 14 16  1  0
 16 17  1  6
 17  9  1  0
 18 16  1  0
 19 18  2  0
 21 20  1  6
 22 21  1  0
 23 24  1  6
 23 21  1  0
 24 18  1  0
 25 23  1  0
 26 25  1  0
 27 25  2  0
M  END
$$$$
