YTV.pdb
     RDKit          3D

 27 27  0  0  1  0  0  0  0  0999 V2000
   10.9026  -22.0869   31.2160 O   0  0  0  0  0  0  0  0  0  0  0  0
   11.0439  -21.0929   30.2606 C   0  0  0  0  0  0  0  0  0  0  0  0
   10.1006  -20.9797   29.2622 C   0  0  0  0  0  0  0  0  0  0  0  0
   10.2226  -19.9876   28.2910 C   0  0  0  0  0  0  0  0  0  0  0  0
   11.3039  -19.1251   28.3510 C   0  0  0  0  0  0  0  0  0  0  0  0
   11.4617  -18.0717   27.3460 C   0  0  0  0  0  0  0  0  0  0  0  0
   11.4137  -18.6278   25.9407 C   0  0  2  0  0  0  0  0  0  0  0  0
   12.7549  -19.0872   25.6237 N   0  0  0  0  0  0  0  0  0  0  0  0
   11.0468  -17.5816   24.9650 C   0  0  0  0  0  0  0  0  0  0  0  0
   11.9184  -16.7665   24.5923 O   0  0  0  0  0  0  0  0  0  0  0  0
   12.2341  -19.2586   29.3594 C   0  0  0  0  0  0  0  0  0  0  0  0
   12.1333  -20.2410   30.3397 C   0  0  0  0  0  0  0  0  0  0  0  0
    7.1445  -17.2666   23.1908 C   0  0  0  0  0  0  0  0  0  0  0  0
    8.3974  -16.5194   22.7234 C   0  0  1  0  0  0  0  0  0  0  0  0
    7.9672  -15.3575   22.1152 O   0  0  0  0  0  0  0  0  0  0  0  0
    9.2852  -16.2188   23.9374 C   0  0  2  0  0  0  0  0  0  0  0  0
    9.7399  -17.4742   24.4401 N   0  0  0  0  0  0  0  0  0  0  0  0
    8.4230  -15.4875   24.8993 C   0  0  0  0  0  0  0  0  0  0  0  0
    7.8491  -16.1523   25.7974 O   0  0  0  0  0  0  0  0  0  0  0  0
    6.6009  -11.1469   26.5158 C   0  0  0  0  0  0  0  0  0  0  0  0
    7.3943  -11.8901   25.4853 C   0  0  2  0  0  0  0  0  0  0  0  0
    7.0329  -11.5260   24.0712 C   0  0  0  0  0  0  0  0  0  0  0  0
    7.3422  -13.3657   25.7450 C   0  0  2  0  0  0  0  0  0  0  0  0
    8.2230  -14.0869   24.8465 N   0  0  0  0  0  0  0  0  0  0  0  0
    5.9264  -13.8017   25.4733 C   0  0  0  0  0  0  0  0  0  0  0  0
    4.9343  -13.6013   26.4271 O   0  0  0  0  0  0  0  0  0  0  0  0
    5.5979  -14.3475   24.4044 O   0  0  0  0  0  0  0  0  0  0  0  0
  2 12  2  0
  2  1  1  0
  3  2  1  0
  4  5  1  0
  4  3  2  0
  5 11  2  0
  6  5  1  0
  7  6  1  0
  7  8  1  6
  9  7  1  0
  9 10  2  0
 11 12  1  0
 14 13  1  1
 14 15  1  0
 14 16  1  0
 16 17  1  1
 17  9  1  0
 18 16  1  0
 19 18  2  0
 21 20  1  1
 22 21  1  0
 23 24  1  6
 23 21  1  0
 24 18  1  0
 25 23  1  0
 26 25  1  0
 27 25  2  0
M  END
$$$$
