YVM.pdb
     RDKit          3D

 28 28  0  0  1  0  0  0  0  0999 V2000
   22.9066  -12.5294  -23.7181 O   0  0  0  0  0  0  0  0  0  0  0  0
   22.3413  -11.7967  -22.6812 C   0  0  0  0  0  0  0  0  0  0  0  0
   21.0176  -11.4720  -22.7727 C   0  0  0  0  0  0  0  0  0  0  0  0
   20.4397  -10.7385  -21.7408 C   0  0  0  0  0  0  0  0  0  0  0  0
   21.1813  -10.3496  -20.6557 C   0  0  0  0  0  0  0  0  0  0  0  0
   20.6025   -9.5702  -19.5407 C   0  0  0  0  0  0  0  0  0  0  0  0
   20.2969  -10.4632  -18.3307 C   0  0  2  0  0  0  0  0  0  0  0  0
   19.1540  -11.2716  -18.7155 N   0  0  0  0  0  0  0  0  0  0  0  0
   19.9565   -9.5409  -17.2195 C   0  0  0  0  0  0  0  0  0  0  0  0
   18.9094   -8.8571  -17.3242 O   0  0  0  0  0  0  0  0  0  0  0  0
   22.5104  -10.6945  -20.5980 C   0  0  0  0  0  0  0  0  0  0  0  0
   23.1319  -11.4200  -21.5930 C   0  0  0  0  0  0  0  0  0  0  0  0
   19.2690  -10.4481  -13.8426 C   0  0  0  0  0  0  0  0  0  0  0  0
   20.2518   -9.3063  -13.7070 C   0  0  2  0  0  0  0  0  0  0  0  0
   19.9604   -8.4690  -12.4899 C   0  0  0  0  0  0  0  0  0  0  0  0
   20.3452   -8.4877  -14.9655 C   0  0  2  0  0  0  0  0  0  0  0  0
   20.7340   -9.3772  -16.0433 N   0  0  0  0  0  0  0  0  0  0  0  0
   21.2620   -7.3343  -14.8403 C   0  0  0  0  0  0  0  0  0  0  0  0
   22.4175   -7.4643  -15.3200 O   0  0  0  0  0  0  0  0  0  0  0  0
   24.5493   -2.2441  -18.1928 C   0  0  0  0  0  0  0  0  0  0  0  0
   23.4237   -3.5891  -17.7423 S   0  0  0  0  0  0  0  0  0  0  0  0
   23.1044   -3.5879  -15.9402 C   0  0  0  0  0  0  0  0  0  0  0  0
   22.2386   -4.7699  -15.6596 C   0  0  0  0  0  0  0  0  0  0  0  0
   21.8266   -4.9510  -14.2356 C   0  0  2  0  0  0  0  0  0  0  0  0
   20.9242   -6.1175  -14.2256 N   0  0  0  0  0  0  0  0  0  0  0  0
   21.1168   -3.7687  -13.6870 C   0  0  0  0  0  0  0  0  0  0  0  0
   21.8068   -2.7165  -13.1119 O   0  0  0  0  0  0  0  0  0  0  0  0
   19.8577   -3.7062  -13.7375 O   0  0  0  0  0  0  0  0  0  0  0  0
  2 12  2  0
  2  1  1  0
  3  2  1  0
  4  5  1  0
  4  3  2  0
  5 11  2  0
  6  5  1  0
  7  6  1  0
  7  8  1  6
  9 10  2  0
  9  7  1  0
 11 12  1  0
 14 13  1  6
 14 16  1  0
 15 14  1  0
 16 17  1  6
 17  9  1  0
 18 19  2  0
 18 16  1  0
 20 21  1  0
 22 21  1  0
 23 22  1  0
 24 23  1  6
 24 25  1  0
 25 18  1  0
 26 24  1  0
 27 26  1  0
 28 26  2  0
M  END
$$$$
