YVM.pdb
     RDKit          3D

 28 28  0  0  1  0  0  0  0  0999 V2000
   27.2964  -12.1885  -17.7362 O   0  0  0  0  0  0  0  0  0  0  0  0
   26.8554  -13.4325  -17.3012 C   0  0  0  0  0  0  0  0  0  0  0  0
   26.9774  -13.7278  -15.9730 C   0  0  0  0  0  0  0  0  0  0  0  0
   26.5395  -14.9704  -15.5248 C   0  0  0  0  0  0  0  0  0  0  0  0
   25.9973  -15.8793  -16.3958 C   0  0  0  0  0  0  0  0  0  0  0  0
   25.5212  -17.2083  -15.9568 C   0  0  0  0  0  0  0  0  0  0  0  0
   26.6913  -18.1288  -15.5843 C   0  0  2  0  0  0  0  0  0  0  0  0
   27.3157  -18.5014  -16.8410 N   0  0  0  0  0  0  0  0  0  0  0  0
   26.0860  -19.3051  -14.9124 C   0  0  0  0  0  0  0  0  0  0  0  0
   25.6400  -20.2288  -15.6353 O   0  0  0  0  0  0  0  0  0  0  0  0
   25.8904  -15.5474  -17.7252 C   0  0  0  0  0  0  0  0  0  0  0  0
   26.3089  -14.3302  -18.2213 C   0  0  0  0  0  0  0  0  0  0  0  0
   27.5596  -21.0983  -11.8181 C   0  0  0  0  0  0  0  0  0  0  0  0
   26.0759  -20.8977  -11.6038 C   0  0  2  0  0  0  0  0  0  0  0  0
   25.4696  -22.0418  -10.8352 C   0  0  0  0  0  0  0  0  0  0  0  0
   25.3513  -20.6155  -12.8915 C   0  0  2  0  0  0  0  0  0  0  0  0
   25.9759  -19.4593  -13.5057 N   0  0  0  0  0  0  0  0  0  0  0  0
   23.8960  -20.4279  -12.7089 C   0  0  0  0  0  0  0  0  0  0  0  0
   23.5281  -19.5115  -11.9299 O   0  0  0  0  0  0  0  0  0  0  0  0
   17.0917  -20.1094  -16.3049 C   0  0  0  0  0  0  0  0  0  0  0  0
   18.8937  -20.1943  -16.1486 S   0  0  0  0  0  0  0  0  0  0  0  0
   19.3768  -20.5261  -14.4147 C   0  0  0  0  0  0  0  0  0  0  0  0
   20.8539  -20.7346  -14.4159 C   0  0  0  0  0  0  0  0  0  0  0  0
   21.4720  -21.0169  -13.0860 C   0  0  2  0  0  0  0  0  0  0  0  0
   22.9120  -21.2022  -13.3454 N   0  0  0  0  0  0  0  0  0  0  0  0
   20.9219  -22.2360  -12.4427 C   0  0  0  0  0  0  0  0  0  0  0  0
   19.8349  -22.1726  -11.5893 O   0  0  0  0  0  0  0  0  0  0  0  0
   21.4451  -23.3618  -12.6677 O   0  0  0  0  0  0  0  0  0  0  0  0
  2 12  2  0
  2  1  1  0
  3  2  1  0
  4  5  1  0
  4  3  2  0
  5 11  2  0
  6  5  1  0
  7  6  1  0
  7  8  1  6
  9 10  2  0
  9  7  1  0
 11 12  1  0
 14 13  1  6
 14 16  1  0
 15 14  1  0
 16 17  1  1
 17  9  1  0
 18 19  2  0
 18 16  1  0
 20 21  1  0
 22 21  1  0
 23 22  1  0
 24 23  1  6
 24 25  1  0
 25 18  1  0
 26 24  1  0
 27 26  1  0
 28 26  2  0
M  END
$$$$
