YVM.pdb
     RDKit          3D

 28 28  0  0  1  0  0  0  0  0999 V2000
   19.0065  -16.9590  -16.0130 O   0  0  0  0  0  0  0  0  0  0  0  0
   19.8543  -17.7973  -15.2990 C   0  0  0  0  0  0  0  0  0  0  0  0
   20.9974  -17.2607  -14.7780 C   0  0  0  0  0  0  0  0  0  0  0  0
   21.8548  -18.0897  -14.0609 C   0  0  0  0  0  0  0  0  0  0  0  0
   21.5601  -19.4161  -13.8804 C   0  0  0  0  0  0  0  0  0  0  0  0
   22.4460  -20.3272  -13.1248 C   0  0  0  0  0  0  0  0  0  0  0  0
   23.6837  -20.7148  -13.9451 C   0  0  2  0  0  0  0  0  0  0  0  0
   23.2406  -21.7484  -14.8634 N   0  0  0  0  0  0  0  0  0  0  0  0
   24.6687  -21.2447  -12.9702 C   0  0  0  0  0  0  0  0  0  0  0  0
   24.4972  -22.4099  -12.5370 O   0  0  0  0  0  0  0  0  0  0  0  0
   20.4010  -19.9211  -14.4191 C   0  0  0  0  0  0  0  0  0  0  0  0
   19.5173  -19.1432  -15.1379 C   0  0  0  0  0  0  0  0  0  0  0  0
   28.3142  -21.5481  -13.3373 C   0  0  0  0  0  0  0  0  0  0  0  0
   28.1024  -20.8778  -11.9981 C   0  0  2  0  0  0  0  0  0  0  0  0
   29.1413  -21.3064  -10.9959 C   0  0  0  0  0  0  0  0  0  0  0  0
   26.6979  -21.0585  -11.4908 C   0  0  2  0  0  0  0  0  0  0  0  0
   25.7943  -20.5243  -12.4920 N   0  0  0  0  0  0  0  0  0  0  0  0
   26.4778  -20.4470  -10.1626 C   0  0  0  0  0  0  0  0  0  0  0  0
   25.3769  -19.8694   -9.9714 O   0  0  0  0  0  0  0  0  0  0  0  0
   23.3793  -21.2413   -3.9153 C   0  0  0  0  0  0  0  0  0  0  0  0
   24.0305  -21.5231   -5.5813 S   0  0  0  0  0  0  0  0  0  0  0  0
   25.5265  -20.5090   -5.8702 C   0  0  0  0  0  0  0  0  0  0  0  0
   25.9601  -20.7783   -7.2720 C   0  0  0  0  0  0  0  0  0  0  0  0
   27.1033  -19.9556   -7.7684 C   0  0  2  0  0  0  0  0  0  0  0  0
   27.4128  -20.4721   -9.1148 N   0  0  0  0  0  0  0  0  0  0  0  0
   28.3066  -20.0625   -6.9063 C   0  0  0  0  0  0  0  0  0  0  0  0
   28.5550  -19.1476   -5.8987 O   0  0  0  0  0  0  0  0  0  0  0  0
   29.1309  -21.0012   -7.0830 O   0  0  0  0  0  0  0  0  0  0  0  0
  2 12  2  0
  2  1  1  0
  3  2  1  0
  4  5  1  0
  4  3  2  0
  5 11  2  0
  6  5  1  0
  7  6  1  0
  7  8  1  6
  9 10  2  0
  9  7  1  0
 11 12  1  0
 14 13  1  6
 14 16  1  0
 15 14  1  0
 16 17  1  6
 17  9  1  0
 18 19  2  0
 18 16  1  0
 20 21  1  0
 22 21  1  0
 23 22  1  0
 24 23  1  1
 24 25  1  0
 25 18  1  0
 26 24  1  0
 27 26  1  0
 28 26  2  0
M  END
$$$$
