YVM.pdb
     RDKit          3D

 28 28  0  0  1  0  0  0  0  0999 V2000
   28.0807  -20.6629   -5.7540 O   0  0  0  0  0  0  0  0  0  0  0  0
   27.7109  -20.5474   -7.0886 C   0  0  0  0  0  0  0  0  0  0  0  0
   28.6419  -20.8518   -8.0408 C   0  0  0  0  0  0  0  0  0  0  0  0
   28.2840  -20.7402   -9.3810 C   0  0  0  0  0  0  0  0  0  0  0  0
   27.0250  -20.3336   -9.7394 C   0  0  0  0  0  0  0  0  0  0  0  0
   26.6084  -20.2033  -11.1519 C   0  0  0  0  0  0  0  0  0  0  0  0
   25.6230  -21.3101  -11.5508 C   0  0  2  0  0  0  0  0  0  0  0  0
   26.4321  -22.4919  -11.7885 N   0  0  0  0  0  0  0  0  0  0  0  0
   24.9696  -20.8432  -12.7984 C   0  0  0  0  0  0  0  0  0  0  0  0
   25.5628  -21.0504  -13.8847 O   0  0  0  0  0  0  0  0  0  0  0  0
   26.1145  -20.0357   -8.7539 C   0  0  0  0  0  0  0  0  0  0  0  0
   26.4177  -20.1297   -7.4116 C   0  0  0  0  0  0  0  0  0  0  0  0
   21.4346  -21.7069  -13.6473 C   0  0  0  0  0  0  0  0  0  0  0  0
   21.6058  -20.2371  -13.9606 C   0  0  2  0  0  0  0  0  0  0  0  0
   20.7806  -19.8268  -15.1515 C   0  0  0  0  0  0  0  0  0  0  0  0
   23.0536  -19.8528  -14.0981 C   0  0  2  0  0  0  0  0  0  0  0  0
   23.7173  -20.1770  -12.8497 N   0  0  0  0  0  0  0  0  0  0  0  0
   23.2442  -18.4359  -14.4757 C   0  0  0  0  0  0  0  0  0  0  0  0
   22.8354  -17.5653  -13.6650 O   0  0  0  0  0  0  0  0  0  0  0  0
   28.4018  -13.8026  -17.9862 C   0  0  0  0  0  0  0  0  0  0  0  0
   27.7168  -15.3821  -17.4251 S   0  0  0  0  0  0  0  0  0  0  0  0
   25.9549  -15.1955  -16.9662 C   0  0  0  0  0  0  0  0  0  0  0  0
   25.5235  -16.5021  -16.3899 C   0  0  0  0  0  0  0  0  0  0  0  0
   24.0943  -16.5852  -15.9647 C   0  0  2  0  0  0  0  0  0  0  0  0
   23.8468  -18.0091  -15.6705 N   0  0  0  0  0  0  0  0  0  0  0  0
   23.1534  -16.1240  -17.0157 C   0  0  0  0  0  0  0  0  0  0  0  0
   22.7635  -14.7995  -17.1032 O   0  0  0  0  0  0  0  0  0  0  0  0
   22.6894  -16.9442  -17.8546 O   0  0  0  0  0  0  0  0  0  0  0  0
  2 12  2  0
  2  1  1  0
  3  2  1  0
  4  5  1  0
  4  3  2  0
  5 11  2  0
  6  5  1  0
  7  6  1  0
  7  8  1  6
  9 10  2  0
  9  7  1  0
 11 12  1  0
 14 13  1  6
 14 16  1  0
 15 14  1  0
 16 17  1  1
 17  9  1  0
 18 19  2  0
 18 16  1  0
 20 21  1  0
 22 21  1  0
 23 22  1  0
 24 23  1  6
 24 25  1  0
 25 18  1  0
 26 24  1  0
 27 26  1  0
 28 26  2  0
M  END
$$$$
