YVM.pdb
     RDKit          3D

 28 28  0  0  1  0  0  0  0  0999 V2000
   17.5661  -18.3677  -15.5743 O   0  0  0  0  0  0  0  0  0  0  0  0
   18.7342  -18.9470  -15.0933 C   0  0  0  0  0  0  0  0  0  0  0  0
   18.9179  -20.2851  -15.2977 C   0  0  0  0  0  0  0  0  0  0  0  0
   20.0836  -20.8771  -14.8209 C   0  0  0  0  0  0  0  0  0  0  0  0
   21.0279  -20.1349  -14.1604 C   0  0  0  0  0  0  0  0  0  0  0  0
   22.2779  -20.7284  -13.6399 C   0  0  0  0  0  0  0  0  0  0  0  0
   23.4990  -20.2576  -14.4414 C   0  0  2  0  0  0  0  0  0  0  0  0
   23.3528  -20.8415  -15.7626 N   0  0  0  0  0  0  0  0  0  0  0  0
   24.6844  -20.8055  -13.7371 C   0  0  0  0  0  0  0  0  0  0  0  0
   24.8679  -22.0463  -13.7748 O   0  0  0  0  0  0  0  0  0  0  0  0
   20.8089  -18.7911  -13.9732 C   0  0  0  0  0  0  0  0  0  0  0  0
   19.6714  -18.1553  -14.4254 C   0  0  0  0  0  0  0  0  0  0  0  0
   28.1697  -20.1070  -14.2198 C   0  0  0  0  0  0  0  0  0  0  0  0
   27.9953  -19.9888  -12.7220 C   0  0  2  0  0  0  0  0  0  0  0  0
   29.1973  -20.5150  -11.9832 C   0  0  0  0  0  0  0  0  0  0  0  0
   26.7081  -20.6090  -12.2516 C   0  0  2  0  0  0  0  0  0  0  0  0
   25.6278  -20.0226  -13.0217 N   0  0  0  0  0  0  0  0  0  0  0  0
   26.4930  -20.4648  -10.7957 C   0  0  0  0  0  0  0  0  0  0  0  0
   25.9586  -19.3983  -10.3968 O   0  0  0  0  0  0  0  0  0  0  0  0
   29.5087  -21.0394   -5.4368 C   0  0  0  0  0  0  0  0  0  0  0  0
   28.8267  -19.4096   -5.8337 S   0  0  0  0  0  0  0  0  0  0  0  0
   27.1753  -19.5711   -6.6060 C   0  0  0  0  0  0  0  0  0  0  0  0
   27.4007  -20.0655   -7.9953 C   0  0  0  0  0  0  0  0  0  0  0  0
   26.5930  -21.2542   -8.4016 C   0  0  2  0  0  0  0  0  0  0  0  0
   26.8453  -21.4352   -9.8435 N   0  0  0  0  0  0  0  0  0  0  0  0
   25.1388  -21.0681   -8.1710 C   0  0  0  0  0  0  0  0  0  0  0  0
   24.3715  -20.2779   -9.0081 O   0  0  0  0  0  0  0  0  0  0  0  0
   24.5747  -21.6350   -7.1952 O   0  0  0  0  0  0  0  0  0  0  0  0
  2 12  2  0
  2  1  1  0
  3  2  1  0
  4  5  1  0
  4  3  2  0
  5 11  2  0
  6  5  1  0
  7  6  1  0
  7  8  1  6
  9 10  2  0
  9  7  1  0
 11 12  1  0
 14 13  1  6
 14 16  1  0
 15 14  1  0
 16 17  1  6
 17  9  1  0
 18 19  2  0
 18 16  1  0
 20 21  1  0
 22 21  1  0
 23 22  1  0
 24 23  1  6
 24 25  1  0
 25 18  1  0
 26 24  1  0
 27 26  1  0
 28 26  2  0
M  END
$$$$
