YVM.pdb
     RDKit          3D

 28 28  0  0  1  0  0  0  0  0999 V2000
   19.0395  -17.5258  -15.2946 O   0  0  0  0  0  0  0  0  0  0  0  0
   19.9524  -18.2242  -14.5136 C   0  0  0  0  0  0  0  0  0  0  0  0
   21.2768  -17.9166  -14.6452 C   0  0  0  0  0  0  0  0  0  0  0  0
   22.2010  -18.6089  -13.8685 C   0  0  0  0  0  0  0  0  0  0  0  0
   21.7928  -19.5788  -12.9902 C   0  0  0  0  0  0  0  0  0  0  0  0
   22.7448  -20.3349  -12.1489 C   0  0  0  0  0  0  0  0  0  0  0  0
   23.9473  -20.8269  -12.9655 C   0  0  2  0  0  0  0  0  0  0  0  0
   23.4668  -21.9641  -13.7295 N   0  0  0  0  0  0  0  0  0  0  0  0
   24.9724  -21.2367  -11.9742 C   0  0  0  0  0  0  0  0  0  0  0  0
   24.7565  -22.2735  -11.3009 O   0  0  0  0  0  0  0  0  0  0  0  0
   20.4520  -19.8614  -12.8846 C   0  0  0  0  0  0  0  0  0  0  0  0
   19.4951  -19.2053  -13.6306 C   0  0  0  0  0  0  0  0  0  0  0  0
   28.6751  -21.6280  -12.6085 C   0  0  0  0  0  0  0  0  0  0  0  0
   28.5208  -20.8172  -11.3410 C   0  0  2  0  0  0  0  0  0  0  0  0
   29.6213  -21.1157  -10.3575 C   0  0  0  0  0  0  0  0  0  0  0  0
   27.1499  -20.9632  -10.7393 C   0  0  2  0  0  0  0  0  0  0  0  0
   26.1834  -20.5365  -11.7333 N   0  0  0  0  0  0  0  0  0  0  0  0
   26.9950  -20.2300   -9.4646 C   0  0  0  0  0  0  0  0  0  0  0  0
   26.5684  -19.0485   -9.5297 O   0  0  0  0  0  0  0  0  0  0  0  0
   25.7760  -22.0328   -3.0186 C   0  0  0  0  0  0  0  0  0  0  0  0
   27.5124  -21.5856   -3.2712 S   0  0  0  0  0  0  0  0  0  0  0  0
   27.6602  -20.2396   -4.5026 C   0  0  0  0  0  0  0  0  0  0  0  0
   27.4434  -20.8606   -5.8415 C   0  0  0  0  0  0  0  0  0  0  0  0
   27.4552  -19.9224   -7.0033 C   0  0  2  0  0  0  0  0  0  0  0  0
   27.2919  -20.7670   -8.2012 N   0  0  0  0  0  0  0  0  0  0  0  0
   28.7189  -19.1511   -7.1074 C   0  0  0  0  0  0  0  0  0  0  0  0
   28.7856  -17.8222   -6.7283 O   0  0  0  0  0  0  0  0  0  0  0  0
   29.7635  -19.7036   -7.5495 O   0  0  0  0  0  0  0  0  0  0  0  0
  2 12  2  0
  2  1  1  0
  3  2  1  0
  4  5  1  0
  4  3  2  0
  5 11  2  0
  6  5  1  0
  7  6  1  0
  7  8  1  1
  9 10  2  0
  9  7  1  0
 11 12  1  0
 14 13  1  6
 14 16  1  0
 15 14  1  0
 16 17  1  6
 17  9  1  0
 18 19  2  0
 18 16  1  0
 20 21  1  0
 22 21  1  0
 23 22  1  0
 24 23  1  1
 24 25  1  0
 25 18  1  0
 26 24  1  0
 27 26  1  0
 28 26  2  0
M  END
$$$$
