YVM.pdb
     RDKit          3D

 28 28  0  0  1  0  0  0  0  0999 V2000
   22.1320  -15.0785  -25.4940 O   0  0  0  0  0  0  0  0  0  0  0  0
   22.7801  -14.3394  -24.5117 C   0  0  0  0  0  0  0  0  0  0  0  0
   23.8040  -14.9353  -23.8315 C   0  0  0  0  0  0  0  0  0  0  0  0
   24.4611  -14.2057  -22.8453 C   0  0  0  0  0  0  0  0  0  0  0  0
   24.0902  -12.9171  -22.5615 C   0  0  0  0  0  0  0  0  0  0  0  0
   24.7644  -12.1111  -21.5216 C   0  0  0  0  0  0  0  0  0  0  0  0
   24.4296  -12.6192  -20.1128 C   0  0  2  0  0  0  0  0  0  0  0  0
   23.0766  -12.1680  -19.8417 N   0  0  0  0  0  0  0  0  0  0  0  0
   25.4071  -11.9719  -19.2034 C   0  0  0  0  0  0  0  0  0  0  0  0
   25.1326  -10.8287  -18.7645 O   0  0  0  0  0  0  0  0  0  0  0  0
   23.0555  -12.3502  -23.2665 C   0  0  0  0  0  0  0  0  0  0  0  0
   22.3713  -13.0290  -24.2533 C   0  0  0  0  0  0  0  0  0  0  0  0
   26.5273  -13.4861  -16.0878 C   0  0  0  0  0  0  0  0  0  0  0  0
   27.7895  -12.9786  -16.7489 C   0  0  2  0  0  0  0  0  0  0  0  0
   28.7930  -12.5041  -15.7314 C   0  0  0  0  0  0  0  0  0  0  0  0
   27.4999  -11.9457  -17.8034 C   0  0  2  0  0  0  0  0  0  0  0  0
   26.6341  -12.5564  -18.7940 N   0  0  0  0  0  0  0  0  0  0  0  0
   28.7230  -11.3780  -18.4104 C   0  0  0  0  0  0  0  0  0  0  0  0
   29.2928  -12.0605  -19.3001 O   0  0  0  0  0  0  0  0  0  0  0  0
   31.7185   -8.4670  -23.9804 C   0  0  0  0  0  0  0  0  0  0  0  0
   30.4694   -8.9564  -22.7641 S   0  0  0  0  0  0  0  0  0  0  0  0
   31.1847   -8.9859  -21.0797 C   0  0  0  0  0  0  0  0  0  0  0  0
   30.1497   -9.5840  -20.1872 C   0  0  0  0  0  0  0  0  0  0  0  0
   30.4721   -9.5881  -18.7290 C   0  0  2  0  0  0  0  0  0  0  0  0
   29.2796  -10.1377  -18.0573 N   0  0  0  0  0  0  0  0  0  0  0  0
   30.7601   -8.2319  -18.1994 C   0  0  0  0  0  0  0  0  0  0  0  0
   31.9770   -7.6136  -18.4246 O   0  0  0  0  0  0  0  0  0  0  0  0
   29.8879   -7.6162  -17.5270 O   0  0  0  0  0  0  0  0  0  0  0  0
  2 12  2  0
  2  1  1  0
  3  2  1  0
  4  5  1  0
  4  3  2  0
  5 11  2  0
  6  5  1  0
  7  6  1  0
  7  8  1  1
  9 10  2  0
  9  7  1  0
 11 12  1  0
 14 13  1  1
 14 16  1  0
 15 14  1  0
 16 17  1  6
 17  9  1  0
 18 19  2  0
 18 16  1  0
 20 21  1  0
 22 21  1  0
 23 22  1  0
 24 23  1  6
 24 25  1  0
 25 18  1  0
 26 24  1  0
 27 26  1  0
 28 26  2  0
M  END
$$$$
