YVM.pdb
     RDKit          3D

 28 28  0  0  1  0  0  0  0  0999 V2000
   29.0563  -14.9614  -18.2447 O   0  0  0  0  0  0  0  0  0  0  0  0
   28.3793  -16.0015  -17.6194 C   0  0  0  0  0  0  0  0  0  0  0  0
   27.9533  -15.8094  -16.3357 C   0  0  0  0  0  0  0  0  0  0  0  0
   27.2741  -16.8434  -15.6983 C   0  0  0  0  0  0  0  0  0  0  0  0
   27.0369  -18.0293  -16.3432 C   0  0  0  0  0  0  0  0  0  0  0  0
   26.3190  -19.1498  -15.6991 C   0  0  0  0  0  0  0  0  0  0  0  0
   27.2342  -19.9278  -14.7441 C   0  0  2  0  0  0  0  0  0  0  0  0
   27.9805  -20.8523  -15.5785 N   0  0  0  0  0  0  0  0  0  0  0  0
   26.3321  -20.6488  -13.8126 C   0  0  0  0  0  0  0  0  0  0  0  0
   25.9063  -21.7762  -14.1626 O   0  0  0  0  0  0  0  0  0  0  0  0
   27.4802  -18.1867  -17.6345 C   0  0  0  0  0  0  0  0  0  0  0  0
   28.1579  -17.1943  -18.3117 C   0  0  0  0  0  0  0  0  0  0  0  0
   26.8152  -21.0608   -9.9739 C   0  0  0  0  0  0  0  0  0  0  0  0
   25.4030  -20.6031  -10.2632 C   0  0  2  0  0  0  0  0  0  0  0  0
   24.4250  -21.1664   -9.2663 C   0  0  0  0  0  0  0  0  0  0  0  0
   25.0008  -20.8743  -11.6871 C   0  0  2  0  0  0  0  0  0  0  0  0
   25.9158  -20.1516  -12.5500 N   0  0  0  0  0  0  0  0  0  0  0  0
   23.5893  -20.5332  -11.9660 C   0  0  0  0  0  0  0  0  0  0  0  0
   23.2762  -19.3153  -11.9379 O   0  0  0  0  0  0  0  0  0  0  0  0
   17.7217  -22.1259  -16.7002 C   0  0  0  0  0  0  0  0  0  0  0  0
   19.3294  -22.4365  -15.9270 S   0  0  0  0  0  0  0  0  0  0  0  0
   19.4620  -21.5472  -14.3328 C   0  0  0  0  0  0  0  0  0  0  0  0
   20.8538  -21.7603  -13.8401 C   0  0  0  0  0  0  0  0  0  0  0  0
   21.1987  -21.0853  -12.5533 C   0  0  2  0  0  0  0  0  0  0  0  0
   22.5896  -21.4760  -12.2569 N   0  0  0  0  0  0  0  0  0  0  0  0
   20.3171  -21.4974  -11.4328 C   0  0  0  0  0  0  0  0  0  0  0  0
   19.2270  -20.7339  -11.0550 O   0  0  0  0  0  0  0  0  0  0  0  0
   20.5529  -22.5634  -10.8005 O   0  0  0  0  0  0  0  0  0  0  0  0
  2 12  2  0
  2  1  1  0
  3  2  1  0
  4  5  1  0
  4  3  2  0
  5 11  2  0
  6  5  1  0
  7  6  1  0
  7  8  1  6
  9 10  2  0
  9  7  1  0
 11 12  1  0
 14 13  1  1
 14 16  1  0
 15 14  1  0
 16 17  1  6
 17  9  1  0
 18 19  2  0
 18 16  1  0
 20 21  1  0
 22 21  1  0
 23 22  1  0
 24 23  1  6
 24 25  1  0
 25 18  1  0
 26 24  1  0
 27 26  1  0
 28 26  2  0
M  END
$$$$
