YVM.pdb
     RDKit          3D

 28 28  0  0  1  0  0  0  0  0999 V2000
   18.4780  -15.5511  -17.9495 O   0  0  0  0  0  0  0  0  0  0  0  0
   19.4042  -16.4196  -17.3845 C   0  0  0  0  0  0  0  0  0  0  0  0
   19.1658  -17.7614  -17.4788 C   0  0  0  0  0  0  0  0  0  0  0  0
   20.0857  -18.6417  -16.9171 C   0  0  0  0  0  0  0  0  0  0  0  0
   21.2071  -18.1740  -16.2826 C   0  0  0  0  0  0  0  0  0  0  0  0
   22.2064  -19.0780  -15.6743 C   0  0  0  0  0  0  0  0  0  0  0  0
   23.4525  -19.2142  -16.5595 C   0  0  2  0  0  0  0  0  0  0  0  0
   23.0425  -20.0179  -17.6970 N   0  0  0  0  0  0  0  0  0  0  0  0
   24.4627  -19.9216  -15.7346 C   0  0  0  0  0  0  0  0  0  0  0  0
   24.3029  -21.1506  -15.5371 O   0  0  0  0  0  0  0  0  0  0  0  0
   21.4139  -16.8174  -16.2071 C   0  0  0  0  0  0  0  0  0  0  0  0
   20.5341  -15.9023  -16.7467 C   0  0  0  0  0  0  0  0  0  0  0  0
   28.2250  -20.1039  -15.9635 C   0  0  0  0  0  0  0  0  0  0  0  0
   27.8826  -19.6676  -14.5563 C   0  0  2  0  0  0  0  0  0  0  0  0
   28.8671  -20.2111  -13.5549 C   0  0  0  0  0  0  0  0  0  0  0  0
   26.4563  -19.9831  -14.1974 C   0  0  2  0  0  0  0  0  0  0  0  0
   25.6001  -19.3043  -15.1516 N   0  0  0  0  0  0  0  0  0  0  0  0
   26.1183  -19.6319  -12.8014 C   0  0  0  0  0  0  0  0  0  0  0  0
   25.7525  -18.4492  -12.5789 O   0  0  0  0  0  0  0  0  0  0  0  0
   19.9465  -19.8408   -9.6433 C   0  0  0  0  0  0  0  0  0  0  0  0
   21.2778  -20.3933  -10.7394 S   0  0  0  0  0  0  0  0  0  0  0  0
   22.9035  -20.2291   -9.9149 C   0  0  0  0  0  0  0  0  0  0  0  0
   23.9390  -20.4321  -10.9693 C   0  0  0  0  0  0  0  0  0  0  0  0
   25.3580  -20.3622  -10.5093 C   0  0  2  0  0  0  0  0  0  0  0  0
   26.1804  -20.5288  -11.7222 N   0  0  0  0  0  0  0  0  0  0  0  0
   25.6982  -21.4229   -9.5286 C   0  0  0  0  0  0  0  0  0  0  0  0
   25.6527  -21.1865   -8.1663 O   0  0  0  0  0  0  0  0  0  0  0  0
   26.0385  -22.5700   -9.9289 O   0  0  0  0  0  0  0  0  0  0  0  0
  2 12  2  0
  2  1  1  0
  3  2  1  0
  4  5  1  0
  4  3  2  0
  5 11  2  0
  6  5  1  0
  7  6  1  0
  7  8  1  6
  9 10  2  0
  9  7  1  0
 11 12  1  0
 14 13  1  6
 14 16  1  0
 15 14  1  0
 16 17  1  6
 17  9  1  0
 18 19  2  0
 18 16  1  0
 20 21  1  0
 22 21  1  0
 23 22  1  0
 24 23  1  6
 24 25  1  0
 25 18  1  0
 26 24  1  0
 27 26  1  0
 28 26  2  0
M  END
$$$$
