YVM.pdb
     RDKit          3D

 28 28  0  0  1  0  0  0  0  0999 V2000
   20.2901   -7.7513  -14.0723 O   0  0  0  0  0  0  0  0  0  0  0  0
   21.4294   -8.0025  -14.8273 C   0  0  0  0  0  0  0  0  0  0  0  0
   22.3420   -6.9955  -14.9659 C   0  0  0  0  0  0  0  0  0  0  0  0
   23.4872   -7.2345  -15.7196 C   0  0  0  0  0  0  0  0  0  0  0  0
   23.6964   -8.4533  -16.3107 C   0  0  0  0  0  0  0  0  0  0  0  0
   24.9002   -8.7442  -17.1181 C   0  0  0  0  0  0  0  0  0  0  0  0
   24.8722   -7.9955  -18.4574 C   0  0  2  0  0  0  0  0  0  0  0  0
   23.7773   -8.5779  -19.2123 N   0  0  0  0  0  0  0  0  0  0  0  0
   26.1794   -8.2686  -19.1040 C   0  0  0  0  0  0  0  0  0  0  0  0
   26.2877   -9.3135  -19.7905 O   0  0  0  0  0  0  0  0  0  0  0  0
   22.7563   -9.4428  -16.1496 C   0  0  0  0  0  0  0  0  0  0  0  0
   21.6047   -9.2584  -15.4132 C   0  0  0  0  0  0  0  0  0  0  0  0
   28.0822   -5.8168  -21.2709 C   0  0  0  0  0  0  0  0  0  0  0  0
   29.0576   -6.4076  -20.2772 C   0  0  2  0  0  0  0  0  0  0  0  0
   30.4394   -6.5258  -20.8638 C   0  0  0  0  0  0  0  0  0  0  0  0
   28.5602   -7.7040  -19.6987 C   0  0  2  0  0  0  0  0  0  0  0  0
   27.3190   -7.4288  -19.0003 N   0  0  0  0  0  0  0  0  0  0  0  0
   29.5522   -8.3678  -18.8257 C   0  0  0  0  0  0  0  0  0  0  0  0
   29.8344   -7.7984  -17.7402 O   0  0  0  0  0  0  0  0  0  0  0  0
   33.5278  -15.1793  -18.0937 C   0  0  0  0  0  0  0  0  0  0  0  0
   32.2104  -14.1175  -18.7387 S   0  0  0  0  0  0  0  0  0  0  0  0
   32.2583  -12.4714  -17.9401 C   0  0  0  0  0  0  0  0  0  0  0  0
   31.1857  -11.6556  -18.5799 C   0  0  0  0  0  0  0  0  0  0  0  0
   31.1766  -10.2038  -18.2298 C   0  0  2  0  0  0  0  0  0  0  0  0
   30.1902   -9.5810  -19.1322 N   0  0  0  0  0  0  0  0  0  0  0  0
   32.4995   -9.5580  -18.4177 C   0  0  0  0  0  0  0  0  0  0  0  0
   33.3749   -9.3871  -17.3601 O   0  0  0  0  0  0  0  0  0  0  0  0
   32.8487   -9.1500  -19.5594 O   0  0  0  0  0  0  0  0  0  0  0  0
  2 12  2  0
  2  1  1  0
  3  2  1  0
  4  5  1  0
  4  3  2  0
  5 11  2  0
  6  5  1  0
  7  6  1  0
  7  8  1  6
  9 10  2  0
  9  7  1  0
 11 12  1  0
 14 13  1  6
 14 16  1  0
 15 14  1  0
 16 17  1  1
 17  9  1  0
 18 19  2  0
 18 16  1  0
 20 21  1  0
 22 21  1  0
 23 22  1  0
 24 23  1  6
 24 25  1  0
 25 18  1  0
 26 24  1  0
 27 26  1  0
 28 26  2  0
M  END
$$$$
