YVM.pdb
     RDKit          3D

 28 28  0  0  1  0  0  0  0  0999 V2000
   26.5867  -30.4160  -18.3101 O   0  0  0  0  0  0  0  0  0  0  0  0
   26.7426  -29.1757  -17.7030 C   0  0  0  0  0  0  0  0  0  0  0  0
   27.8426  -28.9800  -16.9171 C   0  0  0  0  0  0  0  0  0  0  0  0
   28.0102  -27.7422  -16.3035 C   0  0  0  0  0  0  0  0  0  0  0  0
   27.0923  -26.7402  -16.4830 C   0  0  0  0  0  0  0  0  0  0  0  0
   27.2364  -25.4129  -15.8480 C   0  0  0  0  0  0  0  0  0  0  0  0
   27.5734  -24.3298  -16.8816 C   0  0  2  0  0  0  0  0  0  0  0  0
   28.8984  -24.6562  -17.3775 N   0  0  0  0  0  0  0  0  0  0  0  0
   27.5760  -23.0451  -16.1393 C   0  0  0  0  0  0  0  0  0  0  0  0
   28.4296  -22.1832  -16.4606 O   0  0  0  0  0  0  0  0  0  0  0  0
   25.9977  -26.9733  -17.2807 C   0  0  0  0  0  0  0  0  0  0  0  0
   25.7841  -28.1812  -17.9116 C   0  0  0  0  0  0  0  0  0  0  0  0
   24.7506  -20.8297  -16.2468 C   0  0  0  0  0  0  0  0  0  0  0  0
   26.1262  -20.4872  -15.7192 C   0  0  2  0  0  0  0  0  0  0  0  0
   27.1503  -20.4630  -16.8228 C   0  0  0  0  0  0  0  0  0  0  0  0
   26.5294  -21.3741  -14.5731 C   0  0  2  0  0  0  0  0  0  0  0  0
   26.6784  -22.7218  -15.0884 N   0  0  0  0  0  0  0  0  0  0  0  0
   25.5863  -21.3164  -13.4356 C   0  0  0  0  0  0  0  0  0  0  0  0
   24.4413  -21.8057  -13.6133 O   0  0  0  0  0  0  0  0  0  0  0  0
   27.6271  -18.9441   -8.1125 C   0  0  0  0  0  0  0  0  0  0  0  0
   25.9659  -19.1898   -7.4351 S   0  0  0  0  0  0  0  0  0  0  0  0
   24.9155  -20.1101   -8.6181 C   0  0  0  0  0  0  0  0  0  0  0  0
   25.6836  -20.1946   -9.8941 C   0  0  0  0  0  0  0  0  0  0  0  0
   25.0114  -20.9239  -11.0107 C   0  0  2  0  0  0  0  0  0  0  0  0
   25.8888  -20.7550  -12.1841 N   0  0  0  0  0  0  0  0  0  0  0  0
   23.6618  -20.3883  -11.3180 C   0  0  0  0  0  0  0  0  0  0  0  0
   22.5234  -20.9364  -10.7544 O   0  0  0  0  0  0  0  0  0  0  0  0
   23.5322  -19.4134  -12.1082 O   0  0  0  0  0  0  0  0  0  0  0  0
  2 12  2  0
  2  1  1  0
  3  2  1  0
  4  5  1  0
  4  3  2  0
  5 11  2  0
  6  5  1  0
  7  6  1  0
  7  8  1  1
  9 10  2  0
  9  7  1  0
 11 12  1  0
 14 13  1  6
 14 16  1  0
 15 14  1  0
 16 17  1  6
 17  9  1  0
 18 19  2  0
 18 16  1  0
 20 21  1  0
 22 21  1  0
 23 22  1  0
 24 23  1  1
 24 25  1  0
 25 18  1  0
 26 24  1  0
 27 26  1  0
 28 26  2  0
M  END
$$$$
