YVM.pdb
     RDKit          3D

 28 28  0  0  1  0  0  0  0  0999 V2000
   25.8184  -12.6694  -19.9548 O   0  0  0  0  0  0  0  0  0  0  0  0
   25.3858  -13.4466  -18.8870 C   0  0  0  0  0  0  0  0  0  0  0  0
   25.8007  -14.7469  -18.8306 C   0  0  0  0  0  0  0  0  0  0  0  0
   25.3744  -15.5357  -17.7663 C   0  0  0  0  0  0  0  0  0  0  0  0
   24.5560  -15.0205  -16.7950 C   0  0  0  0  0  0  0  0  0  0  0  0
   24.0830  -15.8273  -15.6499 C   0  0  0  0  0  0  0  0  0  0  0  0
   23.4707  -17.1557  -16.1141 C   0  0  2  0  0  0  0  0  0  0  0  0
   22.2289  -16.8064  -16.7804 N   0  0  0  0  0  0  0  0  0  0  0  0
   23.2193  -17.9413  -14.8808 C   0  0  0  0  0  0  0  0  0  0  0  0
   22.2418  -17.6136  -14.1653 O   0  0  0  0  0  0  0  0  0  0  0  0
   24.1587  -13.7079  -16.8847 C   0  0  0  0  0  0  0  0  0  0  0  0
   24.5522  -12.8833  -17.9180 C   0  0  0  0  0  0  0  0  0  0  0  0
   22.7480  -21.9930  -12.5127 C   0  0  0  0  0  0  0  0  0  0  0  0
   23.1075  -21.1146  -13.6904 C   0  0  2  0  0  0  0  0  0  0  0  0
   23.9723  -21.8472  -14.6817 C   0  0  0  0  0  0  0  0  0  0  0  0
   23.7047  -19.8037  -13.2570 C   0  0  2  0  0  0  0  0  0  0  0  0
   24.0089  -19.0402  -14.4523 N   0  0  0  0  0  0  0  0  0  0  0  0
   24.8887  -19.9656  -12.3861 C   0  0  0  0  0  0  0  0  0  0  0  0
   26.0119  -19.7073  -12.8898 O   0  0  0  0  0  0  0  0  0  0  0  0
   27.7004  -17.5224   -6.8409 C   0  0  0  0  0  0  0  0  0  0  0  0
   27.2186  -19.2636   -6.9634 S   0  0  0  0  0  0  0  0  0  0  0  0
   27.6536  -19.9401   -8.6075 C   0  0  0  0  0  0  0  0  0  0  0  0
   26.4811  -19.6904   -9.4953 C   0  0  0  0  0  0  0  0  0  0  0  0
   26.0289  -20.8521  -10.3176 C   0  0  2  0  0  0  0  0  0  0  0  0
   24.8349  -20.3853  -11.0468 N   0  0  0  0  0  0  0  0  0  0  0  0
   25.6777  -22.0370   -9.4958 C   0  0  0  0  0  0  0  0  0  0  0  0
   24.3634  -22.4374   -9.3330 O   0  0  0  0  0  0  0  0  0  0  0  0
   26.5845  -22.7042   -8.9264 O   0  0  0  0  0  0  0  0  0  0  0  0
  2 12  2  0
  2  1  1  0
  3  2  1  0
  4  5  1  0
  4  3  2  0
  5 11  2  0
  6  5  1  0
  7  6  1  0
  7  8  1  1
  9 10  2  0
  9  7  1  0
 11 12  1  0
 14 13  1  1
 14 16  1  0
 15 14  1  0
 16 17  1  6
 17  9  1  0
 18 19  2  0
 18 16  1  0
 20 21  1  0
 22 21  1  0
 23 22  1  0
 24 23  1  1
 24 25  1  0
 25 18  1  0
 26 24  1  0
 27 26  1  0
 28 26  2  0
M  END
$$$$
