YVM.pdb
     RDKit          3D

 28 28  0  0  1  0  0  0  0  0999 V2000
   13.2303  -14.6309  -15.6192 O   0  0  0  0  0  0  0  0  0  0  0  0
   14.3476  -13.8258  -15.8057 C   0  0  0  0  0  0  0  0  0  0  0  0
   15.5359  -14.2457  -15.2787 C   0  0  0  0  0  0  0  0  0  0  0  0
   16.6622  -13.4484  -15.4587 C   0  0  0  0  0  0  0  0  0  0  0  0
   16.5826  -12.2672  -16.1495 C   0  0  0  0  0  0  0  0  0  0  0  0
   17.7569  -11.3943  -16.3611 C   0  0  0  0  0  0  0  0  0  0  0  0
   18.0518  -11.2024  -17.8548 C   0  0  2  0  0  0  0  0  0  0  0  0
   18.6284  -12.4556  -18.3074 N   0  0  0  0  0  0  0  0  0  0  0  0
   19.0356  -10.0947  -17.9365 C   0  0  0  0  0  0  0  0  0  0  0  0
   20.2397  -10.3608  -17.7043 O   0  0  0  0  0  0  0  0  0  0  0  0
   15.3702  -11.8769  -16.6657 C   0  0  0  0  0  0  0  0  0  0  0  0
   14.2239  -12.6294  -16.5160 C   0  0  0  0  0  0  0  0  0  0  0  0
   18.0603   -6.3682  -19.6926 C   0  0  0  0  0  0  0  0  0  0  0  0
   19.4513   -6.9608  -19.6522 C   0  0  2  0  0  0  0  0  0  0  0  0
   19.7337   -7.7901  -20.8769 C   0  0  0  0  0  0  0  0  0  0  0  0
   19.7109   -7.7084  -18.3730 C   0  0  2  0  0  0  0  0  0  0  0  0
   18.7094   -8.7516  -18.2599 N   0  0  0  0  0  0  0  0  0  0  0  0
   19.7343   -6.8308  -17.1830 C   0  0  0  0  0  0  0  0  0  0  0  0
   18.6267   -6.4240  -16.7474 O   0  0  0  0  0  0  0  0  0  0  0  0
   22.0361   -8.2449  -11.9580 C   0  0  0  0  0  0  0  0  0  0  0  0
   22.7234   -6.5725  -11.8601 S   0  0  0  0  0  0  0  0  0  0  0  0
   21.8646   -5.4519  -13.0247 C   0  0  0  0  0  0  0  0  0  0  0  0
   21.6445   -6.2281  -14.2795 C   0  0  0  0  0  0  0  0  0  0  0  0
   20.8798   -5.5258  -15.3529 C   0  0  2  0  0  0  0  0  0  0  0  0
   20.9046   -6.4294  -16.5183 N   0  0  0  0  0  0  0  0  0  0  0  0
   21.4774   -4.2190  -15.7245 C   0  0  0  0  0  0  0  0  0  0  0  0
   22.3110   -4.0935  -16.8214 O   0  0  0  0  0  0  0  0  0  0  0  0
   21.2307   -3.1911  -15.0358 O   0  0  0  0  0  0  0  0  0  0  0  0
  2 12  2  0
  2  1  1  0
  3  2  1  0
  4  5  1  0
  4  3  2  0
  5 11  2  0
  6  5  1  0
  7  6  1  0
  7  8  1  1
  9 10  2  0
  9  7  1  0
 11 12  1  0
 14 13  1  1
 14 16  1  0
 15 14  1  0
 16 17  1  1
 17  9  1  0
 18 19  2  0
 18 16  1  0
 20 21  1  0
 22 21  1  0
 23 22  1  0
 24 23  1  1
 24 25  1  0
 25 18  1  0
 26 24  1  0
 27 26  1  0
 28 26  2  0
M  END
$$$$
