KQS.pdb
     RDKit          3D

 25 24  0  0  1  0  0  0  0  0999 V2000
    0.9904  -20.1073   14.5328 N   0  0  0  0  0  0  0  0  0  0  0  0
    2.3084  -20.0103   15.0309 C   0  0  1  0  0  0  0  0  0  0  0  0
    3.0832  -18.8134   14.5816 C   0  0  0  0  0  0  0  0  0  0  0  0
    3.2099  -18.6400   13.1103 C   0  0  0  0  0  0  0  0  0  0  0  0
    4.0378  -17.4683   12.6766 C   0  0  0  0  0  0  0  0  0  0  0  0
    4.0705  -17.3660   11.1653 C   0  0  0  0  0  0  0  0  0  0  0  0
    4.7650  -16.1547   10.7728 N   0  0  0  0  0  0  0  0  0  0  0  0
    2.2239  -19.9068   16.5408 C   0  0  0  0  0  0  0  0  0  0  0  0
    1.5138  -18.9458   16.9581 O   0  0  0  0  0  0  0  0  0  0  0  0
    0.8765  -24.2549   20.0104 N   0  0  0  0  0  0  0  0  0  0  0  0
    1.1142  -23.3271   21.0845 C   0  0  0  0  0  0  0  0  0  0  0  0
    0.7212  -23.6593   22.2142 O   0  0  0  0  0  0  0  0  0  0  0  0
    1.7981  -22.0542   20.7921 C   0  0  0  0  0  0  0  0  0  0  0  0
    1.9946  -21.8953   19.3290 C   0  0  0  0  0  0  0  0  0  0  0  0
    2.7430  -20.7177   18.8314 C   0  0  2  0  0  0  0  0  0  0  0  0
    2.8912  -20.8193   17.3605 N   0  0  0  0  0  0  0  0  0  0  0  0
    4.1068  -20.5887   19.3682 C   0  0  0  0  0  0  0  0  0  0  0  0
    5.1319  -21.0605   18.7462 O   0  0  0  0  0  0  0  0  0  0  0  0
    4.8986  -19.0652   23.1454 O   0  0  0  0  0  0  0  0  0  0  0  0
    5.8316  -18.7465   22.1660 C   0  0  0  0  0  0  0  0  0  0  0  0
    5.7812  -19.7873   21.0555 C   0  0  2  0  0  0  0  0  0  0  0  0
    4.4062  -19.9474   20.5793 N   0  0  0  0  0  0  0  0  0  0  0  0
    6.2156  -21.0626   21.6419 C   0  0  0  0  0  0  0  0  0  0  0  0
    7.5033  -21.3025   22.0602 O   0  0  0  0  0  0  0  0  0  0  0  0
    5.3317  -21.9662   21.7528 O   0  0  0  0  0  0  0  0  0  0  0  0
  2  1  1  6
  3  2  1  0
  4  3  1  0
  5  6  1  0
  5  4  1  0
  7  6  1  0
  8  2  1  0
  8  9  2  0
 10 11  1  0
 11 13  1  0
 11 12  2  0
 13 14  1  0
 15 14  1  1
 16 15  1  0
 16  8  1  0
 17 18  2  0
 17 15  1  0
 20 19  1  0
 21 20  1  1
 21 22  1  0
 22 17  1  0
 23 21  1  0
 23 24  1  0
 25 23  2  0
M  END
$$$$
