KQS.pdb
     RDKit          3D

 25 24  0  0  1  0  0  0  0  0999 V2000
    5.5841  -17.1551   21.5197 N   0  0  0  0  0  0  0  0  0  0  0  0
    6.8894  -16.6342   21.6587 C   0  0  1  0  0  0  0  0  0  0  0  0
    7.0803  -15.2311   21.1795 C   0  0  0  0  0  0  0  0  0  0  0  0
    7.7279  -15.0846   19.8491 C   0  0  0  0  0  0  0  0  0  0  0  0
    8.0348  -13.6750   19.4424 C   0  0  0  0  0  0  0  0  0  0  0  0
    8.7075  -13.6438   18.0852 C   0  0  0  0  0  0  0  0  0  0  0  0
    8.9255  -12.2684   17.6798 N   0  0  0  0  0  0  0  0  0  0  0  0
    7.2234  -16.6166   23.1372 C   0  0  0  0  0  0  0  0  0  0  0  0
    6.2180  -16.4994   23.8969 O   0  0  0  0  0  0  0  0  0  0  0  0
   11.8444  -19.6339   25.4612 N   0  0  0  0  0  0  0  0  0  0  0  0
   11.4569  -18.9923   26.6896 C   0  0  0  0  0  0  0  0  0  0  0  0
   12.0751  -19.3180   27.7156 O   0  0  0  0  0  0  0  0  0  0  0  0
   10.3655  -18.0014   26.6659 C   0  0  0  0  0  0  0  0  0  0  0  0
    9.8739  -17.8046   25.2787 C   0  0  0  0  0  0  0  0  0  0  0  0
    8.8256  -16.7883   25.0286 C   0  0  2  0  0  0  0  0  0  0  0  0
    8.5451  -16.7238   23.5750 N   0  0  0  0  0  0  0  0  0  0  0  0
    9.1909  -15.4213   25.4319 C   0  0  0  0  0  0  0  0  0  0  0  0
   10.2281  -14.8238   24.9548 O   0  0  0  0  0  0  0  0  0  0  0  0
    6.6050  -13.0132   27.3534 O   0  0  0  0  0  0  0  0  0  0  0  0
    7.7224  -12.3736   26.8305 C   0  0  0  0  0  0  0  0  0  0  0  0
    8.8980  -13.3413   26.8031 C   0  0  2  0  0  0  0  0  0  0  0  0
    8.4525  -14.6600   26.3500 N   0  0  0  0  0  0  0  0  0  0  0  0
    9.3811  -13.4694   28.1849 C   0  0  0  0  0  0  0  0  0  0  0  0
    9.4569  -14.6699   28.8509 O   0  0  0  0  0  0  0  0  0  0  0  0
    9.7382  -12.3975   28.7625 O   0  0  0  0  0  0  0  0  0  0  0  0
  2  1  1  1
  3  2  1  0
  4  3  1  0
  5  6  1  0
  5  4  1  0
  7  6  1  0
  8  2  1  0
  8  9  2  0
 10 11  1  0
 11 13  1  0
 11 12  2  0
 13 14  1  0
 15 14  1  6
 16 15  1  0
 16  8  1  0
 17 18  2  0
 17 15  1  0
 20 19  1  0
 21 20  1  1
 21 22  1  0
 22 17  1  0
 23 21  1  0
 23 24  1  0
 25 23  2  0
M  END
$$$$
