KQS.pdb
     RDKit          3D

 25 24  0  0  1  0  0  0  0  0999 V2000
    7.8959  -18.6927   16.2781 N   0  0  0  0  0  0  0  0  0  0  0  0
    7.2130  -18.4663   17.4934 C   0  0  1  0  0  0  0  0  0  0  0  0
    7.1060  -19.6464   18.4048 C   0  0  0  0  0  0  0  0  0  0  0  0
    6.6835  -20.9208   17.7659 C   0  0  0  0  0  0  0  0  0  0  0  0
    6.4838  -22.0694   18.7079 C   0  0  0  0  0  0  0  0  0  0  0  0
    5.9843  -23.2912   17.9640 C   0  0  0  0  0  0  0  0  0  0  0  0
    5.7663  -24.3774   18.9000 N   0  0  0  0  0  0  0  0  0  0  0  0
    7.9838  -17.4142   18.2659 C   0  0  0  0  0  0  0  0  0  0  0  0
    9.2353  -17.4444   18.0802 O   0  0  0  0  0  0  0  0  0  0  0  0
    8.5678  -11.6048   19.1240 N   0  0  0  0  0  0  0  0  0  0  0  0
    8.8775  -12.5410   20.1721 C   0  0  0  0  0  0  0  0  0  0  0  0
   10.0787  -12.7539   20.4017 O   0  0  0  0  0  0  0  0  0  0  0  0
    7.7725  -13.1869   20.9039 C   0  0  0  0  0  0  0  0  0  0  0  0
    7.2237  -14.3212   20.1186 C   0  0  0  0  0  0  0  0  0  0  0  0
    8.1064  -15.4696   19.8078 C   0  0  2  0  0  0  0  0  0  0  0  0
    7.3234  -16.5096   19.0998 N   0  0  0  0  0  0  0  0  0  0  0  0
    8.6863  -16.1315   20.9870 C   0  0  0  0  0  0  0  0  0  0  0  0
    8.0383  -17.0211   21.6571 O   0  0  0  0  0  0  0  0  0  0  0  0
   11.4410  -18.7076   23.2394 O   0  0  0  0  0  0  0  0  0  0  0  0
   10.7303  -18.0610   22.2354 C   0  0  0  0  0  0  0  0  0  0  0  0
   10.5487  -16.5942   22.6024 C   0  0  2  0  0  0  0  0  0  0  0  0
    9.9741  -15.8614   21.4729 N   0  0  0  0  0  0  0  0  0  0  0  0
   11.8869  -16.0496   22.8702 C   0  0  0  0  0  0  0  0  0  0  0  0
   12.6905  -16.4892   23.8957 O   0  0  0  0  0  0  0  0  0  0  0  0
   12.2895  -15.1281   22.0964 O   0  0  0  0  0  0  0  0  0  0  0  0
  2  1  1  6
  3  2  1  0
  4  3  1  0
  5  6  1  0
  5  4  1  0
  7  6  1  0
  8  2  1  0
  8  9  2  0
 10 11  1  0
 11 13  1  0
 11 12  2  0
 13 14  1  0
 15 14  1  1
 16 15  1  0
 16  8  1  0
 17 18  2  0
 17 15  1  0
 20 19  1  0
 21 20  1  6
 21 22  1  0
 22 17  1  0
 23 21  1  0
 23 24  1  0
 25 23  2  0
M  END
$$$$
