KQS.pdb
     RDKit          3D

 25 24  0  0  1  0  0  0  0  0999 V2000
    7.9295  -15.7175   19.8511 N   0  0  0  0  0  0  0  0  0  0  0  0
    9.0216  -14.8220   19.8455 C   0  0  1  0  0  0  0  0  0  0  0  0
    8.7423  -13.4649   19.2843 C   0  0  0  0  0  0  0  0  0  0  0  0
    8.6848  -13.3778   17.8011 C   0  0  0  0  0  0  0  0  0  0  0  0
    7.4190  -13.8888   17.1822 C   0  0  0  0  0  0  0  0  0  0  0  0
    7.7141  -14.6297   15.8939 C   0  0  0  0  0  0  0  0  0  0  0  0
    8.2196  -13.7008   14.9013 N   0  0  0  0  0  0  0  0  0  0  0  0
    9.4406  -14.5974   21.2849 C   0  0  0  0  0  0  0  0  0  0  0  0
   10.5348  -13.9755   21.4178 O   0  0  0  0  0  0  0  0  0  0  0  0
    6.4369  -12.9292   26.1599 N   0  0  0  0  0  0  0  0  0  0  0  0
    6.0469  -14.2734   25.8256 C   0  0  0  0  0  0  0  0  0  0  0  0
    4.9820  -14.6888   26.3097 O   0  0  0  0  0  0  0  0  0  0  0  0
    6.9168  -15.0723   24.9432 C   0  0  0  0  0  0  0  0  0  0  0  0
    8.1315  -14.3012   24.5763 C   0  0  0  0  0  0  0  0  0  0  0  0
    9.1604  -14.9475   23.7288 C   0  0  2  0  0  0  0  0  0  0  0  0
    8.6516  -15.0570   22.3414 N   0  0  0  0  0  0  0  0  0  0  0  0
    9.5189  -16.3145   24.1382 C   0  0  0  0  0  0  0  0  0  0  0  0
    9.2012  -17.3435   23.4307 O   0  0  0  0  0  0  0  0  0  0  0  0
   12.8215  -17.5209   25.5120 O   0  0  0  0  0  0  0  0  0  0  0  0
   11.8417  -18.4498   25.1829 C   0  0  0  0  0  0  0  0  0  0  0  0
   10.4973  -17.9885   25.7296 C   0  0  2  0  0  0  0  0  0  0  0  0
   10.2301  -16.6118   25.3101 N   0  0  0  0  0  0  0  0  0  0  0  0
   10.5992  -18.0105   27.1953 C   0  0  0  0  0  0  0  0  0  0  0  0
   10.4124  -16.8989   27.9827 O   0  0  0  0  0  0  0  0  0  0  0  0
   10.8751  -19.1287   27.7279 O   0  0  0  0  0  0  0  0  0  0  0  0
  2  1  1  1
  3  2  1  0
  4  3  1  0
  5  6  1  0
  5  4  1  0
  7  6  1  0
  8  2  1  0
  8  9  2  0
 10 11  1  0
 11 13  1  0
 11 12  2  0
 13 14  1  0
 15 14  1  1
 16 15  1  0
 16  8  1  0
 17 18  2  0
 17 15  1  0
 20 19  1  0
 21 20  1  6
 21 22  1  0
 22 17  1  0
 23 21  1  0
 23 24  1  0
 25 23  2  0
M  END
$$$$
