KQS.pdb
     RDKit          3D

 25 24  0  0  1  0  0  0  0  0999 V2000
   10.4722  -17.3735   16.4432 N   0  0  0  0  0  0  0  0  0  0  0  0
    9.7407  -17.1957   17.6381 C   0  0  1  0  0  0  0  0  0  0  0  0
    8.7428  -18.2640   17.9506 C   0  0  0  0  0  0  0  0  0  0  0  0
    8.2046  -19.0083   16.7814 C   0  0  0  0  0  0  0  0  0  0  0  0
    6.7109  -19.0060   16.6581 C   0  0  0  0  0  0  0  0  0  0  0  0
    6.2721  -19.8090   15.4505 C   0  0  0  0  0  0  0  0  0  0  0  0
    4.8372  -19.6867   15.2779 N   0  0  0  0  0  0  0  0  0  0  0  0
   10.7283  -17.2015   18.7880 C   0  0  0  0  0  0  0  0  0  0  0  0
   10.6137  -18.1915   19.5681 O   0  0  0  0  0  0  0  0  0  0  0  0
   16.1488  -14.1482   19.3868 N   0  0  0  0  0  0  0  0  0  0  0  0
   15.1559  -13.9784   18.3591 C   0  0  0  0  0  0  0  0  0  0  0  0
   15.4694  -13.2803   17.3817 O   0  0  0  0  0  0  0  0  0  0  0  0
   13.8427  -14.6292   18.5186 C   0  0  0  0  0  0  0  0  0  0  0  0
   13.8149  -15.4438   19.7596 C   0  0  0  0  0  0  0  0  0  0  0  0
   12.5803  -16.1889   20.0990 C   0  0  2  0  0  0  0  0  0  0  0  0
   11.6671  -16.1778   18.9320 N   0  0  0  0  0  0  0  0  0  0  0  0
   11.8131  -15.6224   21.2194 C   0  0  0  0  0  0  0  0  0  0  0  0
   11.2272  -14.4779   21.1350 O   0  0  0  0  0  0  0  0  0  0  0  0
    9.0344  -16.9051   23.0756 O   0  0  0  0  0  0  0  0  0  0  0  0
    9.4720  -15.6172   23.3603 C   0  0  0  0  0  0  0  0  0  0  0  0
   10.9782  -15.6282   23.5849 C   0  0  2  0  0  0  0  0  0  0  0  0
   11.6500  -16.2694   22.4533 N   0  0  0  0  0  0  0  0  0  0  0  0
   11.2276  -16.4375   24.7857 C   0  0  0  0  0  0  0  0  0  0  0  0
   10.7690  -16.0959   26.0361 O   0  0  0  0  0  0  0  0  0  0  0  0
   11.9041  -17.4988   24.6239 O   0  0  0  0  0  0  0  0  0  0  0  0
  2  1  1  6
  3  2  1  0
  4  3  1  0
  5  6  1  0
  5  4  1  0
  7  6  1  0
  8  2  1  0
  8  9  2  0
 10 11  1  0
 11 13  1  0
 11 12  2  0
 13 14  1  0
 15 14  1  6
 16 15  1  0
 16  8  1  0
 17 18  2  0
 17 15  1  0
 20 19  1  0
 21 20  1  6
 21 22  1  0
 22 17  1  0
 23 21  1  0
 23 24  1  0
 25 23  2  0
M  END
$$$$
