KQS.pdb
     RDKit          3D

 25 24  0  0  1  0  0  0  0  0999 V2000
    5.4127  -23.3453   13.9238 N   0  0  0  0  0  0  0  0  0  0  0  0
    6.5022  -22.5176   14.2739 C   0  0  1  0  0  0  0  0  0  0  0  0
    6.2940  -21.0519   14.0661 C   0  0  0  0  0  0  0  0  0  0  0  0
    6.0559  -20.6252   12.6618 C   0  0  0  0  0  0  0  0  0  0  0  0
    5.9630  -19.1438   12.4540 C   0  0  0  0  0  0  0  0  0  0  0  0
    5.8476  -18.8164   10.9791 C   0  0  0  0  0  0  0  0  0  0  0  0
    5.7035  -17.3835   10.8069 N   0  0  0  0  0  0  0  0  0  0  0  0
    6.7567  -22.6941   15.7578 C   0  0  0  0  0  0  0  0  0  0  0  0
    5.7546  -23.1044   16.4129 O   0  0  0  0  0  0  0  0  0  0  0  0
    9.8107  -26.4087   18.5648 N   0  0  0  0  0  0  0  0  0  0  0  0
   10.6006  -25.6207   17.6560 C   0  0  0  0  0  0  0  0  0  0  0  0
   11.6455  -26.1343   17.2255 O   0  0  0  0  0  0  0  0  0  0  0  0
   10.1367  -24.2695   17.2916 C   0  0  0  0  0  0  0  0  0  0  0  0
    8.8461  -23.9665   17.9602 C   0  0  0  0  0  0  0  0  0  0  0  0
    8.2306  -22.6344   17.7573 C   0  0  2  0  0  0  0  0  0  0  0  0
    8.0090  -22.4146   16.3087 N   0  0  0  0  0  0  0  0  0  0  0  0
    9.0530  -21.5045   18.2175 C   0  0  0  0  0  0  0  0  0  0  0  0
    9.6949  -20.7487   17.3947 O   0  0  0  0  0  0  0  0  0  0  0  0
    8.1556  -18.7413   20.6987 O   0  0  0  0  0  0  0  0  0  0  0  0
    9.3589  -19.2815   21.1364 C   0  0  0  0  0  0  0  0  0  0  0  0
   10.0322  -20.0235   19.9896 C   0  0  2  0  0  0  0  0  0  0  0  0
    9.2032  -21.1537   19.5673 N   0  0  0  0  0  0  0  0  0  0  0  0
   11.3015  -20.5529   20.5070 C   0  0  0  0  0  0  0  0  0  0  0  0
   12.3496  -19.7542   20.8995 O   0  0  0  0  0  0  0  0  0  0  0  0
   11.4009  -21.8157   20.5817 O   0  0  0  0  0  0  0  0  0  0  0  0
  2  1  1  1
  3  2  1  0
  4  3  1  0
  5  6  1  0
  5  4  1  0
  7  6  1  0
  8  2  1  0
  8  9  2  0
 10 11  1  0
 11 13  1  0
 11 12  2  0
 13 14  1  0
 15 14  1  6
 16 15  1  0
 16  8  1  0
 17 18  2  0
 17 15  1  0
 20 19  1  0
 21 20  1  1
 21 22  1  0
 22 17  1  0
 23 21  1  0
 23 24  1  0
 25 23  2  0
M  END
$$$$
