KQS.pdb
     RDKit          3D

 25 24  0  0  1  0  0  0  0  0999 V2000
    8.4874  -14.5599   16.8900 N   0  0  0  0  0  0  0  0  0  0  0  0
    9.2949  -13.7352   17.7039 C   0  0  1  0  0  0  0  0  0  0  0  0
    8.6157  -13.1368   18.8936 C   0  0  0  0  0  0  0  0  0  0  0  0
    7.8278  -14.0798   19.7308 C   0  0  0  0  0  0  0  0  0  0  0  0
    7.9417  -13.8652   21.2098 C   0  0  0  0  0  0  0  0  0  0  0  0
    7.1721  -14.9291   21.9658 C   0  0  0  0  0  0  0  0  0  0  0  0
    7.0985  -14.5734   23.3700 N   0  0  0  0  0  0  0  0  0  0  0  0
   10.4189  -14.5902   18.2545 C   0  0  0  0  0  0  0  0  0  0  0  0
   10.1566  -15.8274   18.3027 O   0  0  0  0  0  0  0  0  0  0  0  0
   16.2131  -15.9302   17.3515 N   0  0  0  0  0  0  0  0  0  0  0  0
   14.9244  -15.4543   16.9232 C   0  0  0  0  0  0  0  0  0  0  0  0
   14.2835  -16.1817   16.1478 O   0  0  0  0  0  0  0  0  0  0  0  0
   14.4423  -14.1517   17.4176 C   0  0  0  0  0  0  0  0  0  0  0  0
   14.0215  -14.2595   18.8374 C   0  0  0  0  0  0  0  0  0  0  0  0
   12.7170  -14.8875   19.1513 C   0  0  2  0  0  0  0  0  0  0  0  0
   11.6244  -14.0147   18.6613 N   0  0  0  0  0  0  0  0  0  0  0  0
   12.4641  -15.0861   20.5871 C   0  0  0  0  0  0  0  0  0  0  0  0
   12.3279  -14.0948   21.3989 O   0  0  0  0  0  0  0  0  0  0  0  0
   10.3912  -17.9930   21.9149 O   0  0  0  0  0  0  0  0  0  0  0  0
   10.7047  -17.0327   22.8692 C   0  0  0  0  0  0  0  0  0  0  0  0
   12.1133  -16.5093   22.6227 C   0  0  2  0  0  0  0  0  0  0  0  0
   12.3452  -16.3488   21.1863 N   0  0  0  0  0  0  0  0  0  0  0  0
   13.0445  -17.5278   23.1274 C   0  0  0  0  0  0  0  0  0  0  0  0
   13.1099  -17.9040   24.4482 O   0  0  0  0  0  0  0  0  0  0  0  0
   13.8127  -18.0668   22.2733 O   0  0  0  0  0  0  0  0  0  0  0  0
  2  1  1  1
  3  2  1  0
  4  3  1  0
  5  6  1  0
  5  4  1  0
  7  6  1  0
  8  2  1  0
  8  9  2  0
 10 11  1  0
 11 13  1  0
 11 12  2  0
 13 14  1  0
 15 14  1  1
 16 15  1  0
 16  8  1  0
 17 18  2  0
 17 15  1  0
 20 19  1  0
 21 20  1  6
 21 22  1  0
 22 17  1  0
 23 21  1  0
 23 24  1  0
 25 23  2  0
M  END
$$$$
