KQS.pdb
     RDKit          3D

 25 24  0  0  1  0  0  0  0  0999 V2000
    7.9570  -12.4748   19.5289 N   0  0  0  0  0  0  0  0  0  0  0  0
    7.7426  -13.7175   20.1646 C   0  0  1  0  0  0  0  0  0  0  0  0
    8.1849  -14.9216   19.3969 C   0  0  0  0  0  0  0  0  0  0  0  0
    7.4079  -15.2250   18.1660 C   0  0  0  0  0  0  0  0  0  0  0  0
    7.7935  -16.4933   17.4665 C   0  0  0  0  0  0  0  0  0  0  0  0
    6.8628  -16.7669   16.3026 C   0  0  0  0  0  0  0  0  0  0  0  0
    7.2593  -17.9938   15.6384 N   0  0  0  0  0  0  0  0  0  0  0  0
    8.5501  -13.7241   21.4475 C   0  0  0  0  0  0  0  0  0  0  0  0
    9.7461  -13.3331   21.3122 O   0  0  0  0  0  0  0  0  0  0  0  0
    6.9471  -11.8389   26.8953 N   0  0  0  0  0  0  0  0  0  0  0  0
    6.1138  -12.8678   26.3316 C   0  0  0  0  0  0  0  0  0  0  0  0
    4.9842  -13.0126   26.8255 O   0  0  0  0  0  0  0  0  0  0  0  0
    6.6360  -13.6816   25.2186 C   0  0  0  0  0  0  0  0  0  0  0  0
    8.0441  -13.3142   24.9239 C   0  0  0  0  0  0  0  0  0  0  0  0
    8.7836  -14.0820   23.8952 C   0  0  2  0  0  0  0  0  0  0  0  0
    7.9777  -14.1357   22.6529 N   0  0  0  0  0  0  0  0  0  0  0  0
    9.0616  -15.4804   24.2586 C   0  0  0  0  0  0  0  0  0  0  0  0
    8.2732  -16.4422   23.9215 O   0  0  0  0  0  0  0  0  0  0  0  0
   12.1690  -18.9581   25.1917 O   0  0  0  0  0  0  0  0  0  0  0  0
   11.9149  -17.6198   24.9164 C   0  0  0  0  0  0  0  0  0  0  0  0
   10.4713  -17.2908   25.2724 C   0  0  2  0  0  0  0  0  0  0  0  0
   10.1917  -15.8828   24.9857 N   0  0  0  0  0  0  0  0  0  0  0  0
   10.3268  -17.5025   26.7193 C   0  0  0  0  0  0  0  0  0  0  0  0
   10.4103  -18.7392   27.3143 O   0  0  0  0  0  0  0  0  0  0  0  0
   10.1148  -16.4696   27.4251 O   0  0  0  0  0  0  0  0  0  0  0  0
  2  1  1  6
  3  2  1  0
  4  3  1  0
  5  6  1  0
  5  4  1  0
  7  6  1  0
  8  2  1  0
  8  9  2  0
 10 11  1  0
 11 13  1  0
 11 12  2  0
 13 14  1  0
 15 14  1  1
 16 15  1  0
 16  8  1  0
 17 18  2  0
 17 15  1  0
 20 19  1  0
 21 20  1  1
 21 22  1  0
 22 17  1  0
 23 21  1  0
 23 24  1  0
 25 23  2  0
M  END
$$$$
