KQS.pdb
     RDKit          3D

 25 24  0  0  1  0  0  0  0  0999 V2000
    9.1195  -18.5501   16.8075 N   0  0  0  0  0  0  0  0  0  0  0  0
    9.7870  -19.2348   17.8468 C   0  0  1  0  0  0  0  0  0  0  0  0
   11.0283  -19.9657   17.4470 C   0  0  0  0  0  0  0  0  0  0  0  0
   11.0464  -20.4982   16.0589 C   0  0  0  0  0  0  0  0  0  0  0  0
   12.1986  -20.0403   15.2166 C   0  0  0  0  0  0  0  0  0  0  0  0
   12.1533  -20.6903   13.8487 C   0  0  0  0  0  0  0  0  0  0  0  0
   13.2587  -20.2089   13.0425 N   0  0  0  0  0  0  0  0  0  0  0  0
   10.2233  -18.2057   18.8707 C   0  0  0  0  0  0  0  0  0  0  0  0
   11.4689  -17.9821   18.8864 O   0  0  0  0  0  0  0  0  0  0  0  0
    6.8263  -13.4939   20.7745 N   0  0  0  0  0  0  0  0  0  0  0  0
    7.5209  -13.5648   19.5163 C   0  0  0  0  0  0  0  0  0  0  0  0
    7.1831  -12.7542   18.6389 O   0  0  0  0  0  0  0  0  0  0  0  0
    8.5770  -14.5780   19.3382 C   0  0  0  0  0  0  0  0  0  0  0  0
    8.7186  -15.4006   20.5661 C   0  0  0  0  0  0  0  0  0  0  0  0
    9.7319  -16.4810   20.5905 C   0  0  2  0  0  0  0  0  0  0  0  0
    9.2914  -17.5837   19.7041 N   0  0  0  0  0  0  0  0  0  0  0  0
    9.9479  -17.0866   21.9140 C   0  0  0  0  0  0  0  0  0  0  0  0
    9.2188  -18.0568   22.3470 O   0  0  0  0  0  0  0  0  0  0  0  0
   13.4689  -16.8836   23.7124 O   0  0  0  0  0  0  0  0  0  0  0  0
   12.5879  -17.8435   24.1958 C   0  0  0  0  0  0  0  0  0  0  0  0
   11.1606  -17.3218   24.0972 C   0  0  2  0  0  0  0  0  0  0  0  0
   10.9517  -16.6725   22.8020 N   0  0  0  0  0  0  0  0  0  0  0  0
   10.9997  -16.3093   25.1499 C   0  0  0  0  0  0  0  0  0  0  0  0
   11.1352  -16.5844   26.4902 O   0  0  0  0  0  0  0  0  0  0  0  0
   10.7217  -15.1321   24.7666 O   0  0  0  0  0  0  0  0  0  0  0  0
  2  1  1  6
  3  2  1  0
  4  3  1  0
  5  6  1  0
  5  4  1  0
  7  6  1  0
  8  2  1  0
  8  9  2  0
 10 11  1  0
 11 13  1  0
 11 12  2  0
 13 14  1  0
 15 14  1  1
 16 15  1  0
 16  8  1  0
 17 18  2  0
 17 15  1  0
 20 19  1  0
 21 20  1  6
 21 22  1  0
 22 17  1  0
 23 21  1  0
 23 24  1  0
 25 23  2  0
M  END
$$$$
