KQS.pdb
     RDKit          3D

 25 24  0  0  1  0  0  0  0  0999 V2000
   12.6890  -24.0645   14.2410 N   0  0  0  0  0  0  0  0  0  0  0  0
   13.4779  -22.9588   14.6281 C   0  0  1  0  0  0  0  0  0  0  0  0
   12.8334  -21.6188   14.4736 C   0  0  0  0  0  0  0  0  0  0  0  0
   11.3792  -21.6324   14.1640 C   0  0  0  0  0  0  0  0  0  0  0  0
   10.7367  -20.2818   14.0665 C   0  0  0  0  0  0  0  0  0  0  0  0
    9.2573  -20.4131   13.7671 C   0  0  0  0  0  0  0  0  0  0  0  0
    8.6995  -19.1057   13.4787 N   0  0  0  0  0  0  0  0  0  0  0  0
   13.7821  -23.1048   16.1058 C   0  0  0  0  0  0  0  0  0  0  0  0
   12.8196  -23.5539   16.7939 O   0  0  0  0  0  0  0  0  0  0  0  0
   17.9198  -26.2660   19.8779 N   0  0  0  0  0  0  0  0  0  0  0  0
   18.1483  -24.8629   19.6550 C   0  0  0  0  0  0  0  0  0  0  0  0
   19.3225  -24.5046   19.4714 O   0  0  0  0  0  0  0  0  0  0  0  0
   16.9974  -23.9414   19.6573 C   0  0  0  0  0  0  0  0  0  0  0  0
   16.4795  -23.7552   18.2783 C   0  0  0  0  0  0  0  0  0  0  0  0
   15.2889  -22.8984   18.0707 C   0  0  2  0  0  0  0  0  0  0  0  0
   15.0347  -22.7596   16.6175 N   0  0  0  0  0  0  0  0  0  0  0  0
   15.4233  -21.5288   18.5913 C   0  0  0  0  0  0  0  0  0  0  0  0
   15.8024  -20.5496   17.8445 O   0  0  0  0  0  0  0  0  0  0  0  0
   14.1376  -20.5158   22.4044 O   0  0  0  0  0  0  0  0  0  0  0  0
   14.0003  -19.5833   21.3832 C   0  0  0  0  0  0  0  0  0  0  0  0
   15.1122  -19.7786   20.3612 C   0  0  2  0  0  0  0  0  0  0  0  0
   15.1499  -21.1741   19.9206 N   0  0  0  0  0  0  0  0  0  0  0  0
   16.3791  -19.4774   21.0418 C   0  0  0  0  0  0  0  0  0  0  0  0
   16.7153  -18.2227   21.4927 O   0  0  0  0  0  0  0  0  0  0  0  0
   17.1800  -20.4480   21.2049 O   0  0  0  0  0  0  0  0  0  0  0  0
  2  1  1  1
  3  2  1  0
  4  3  1  0
  5  6  1  0
  5  4  1  0
  7  6  1  0
  8  2  1  0
  8  9  2  0
 10 11  1  0
 11 13  1  0
 11 12  2  0
 13 14  1  0
 15 14  1  6
 16 15  1  0
 16  8  1  0
 17 18  2  0
 17 15  1  0
 20 19  1  0
 21 20  1  1
 21 22  1  0
 22 17  1  0
 23 21  1  0
 23 24  1  0
 25 23  2  0
M  END
$$$$
