KQS.pdb
     RDKit          3D

 25 24  0  0  1  0  0  0  0  0999 V2000
    7.9606  -21.2958   20.0297 N   0  0  0  0  0  0  0  0  0  0  0  0
    8.0811  -19.9212   20.3309 C   0  0  1  0  0  0  0  0  0  0  0  0
    7.1554  -19.0126   19.5877 C   0  0  0  0  0  0  0  0  0  0  0  0
    6.9690  -19.3189   18.1447 C   0  0  0  0  0  0  0  0  0  0  0  0
    7.2249  -18.1732   17.2128 C   0  0  0  0  0  0  0  0  0  0  0  0
    7.0123  -18.5962   15.7735 C   0  0  0  0  0  0  0  0  0  0  0  0
    7.3583  -17.5018   14.8868 N   0  0  0  0  0  0  0  0  0  0  0  0
    7.7495  -19.7405   21.7989 C   0  0  0  0  0  0  0  0  0  0  0  0
    7.6864  -18.5334   22.1739 O   0  0  0  0  0  0  0  0  0  0  0  0
    3.1385  -23.3357   23.5281 N   0  0  0  0  0  0  0  0  0  0  0  0
    4.2690  -22.8488   24.2736 C   0  0  0  0  0  0  0  0  0  0  0  0
    4.4091  -23.2774   25.4302 O   0  0  0  0  0  0  0  0  0  0  0  0
    5.1839  -21.8838   23.6370 C   0  0  0  0  0  0  0  0  0  0  0  0
    6.2698  -21.5024   24.5749 C   0  0  0  0  0  0  0  0  0  0  0  0
    7.3673  -20.6365   24.0848 C   0  0  2  0  0  0  0  0  0  0  0  0
    7.5398  -20.8445   22.6279 N   0  0  0  0  0  0  0  0  0  0  0  0
    8.6795  -20.9105   24.6915 C   0  0  0  0  0  0  0  0  0  0  0  0
    9.4746  -21.8081   24.2200 O   0  0  0  0  0  0  0  0  0  0  0  0
   11.0100  -18.1960   26.0768 O   0  0  0  0  0  0  0  0  0  0  0  0
   11.5031  -19.4772   25.8609 C   0  0  0  0  0  0  0  0  0  0  0  0
   10.4989  -20.5028   26.3696 C   0  0  2  0  0  0  0  0  0  0  0  0
    9.1736  -20.2271   25.8124 N   0  0  0  0  0  0  0  0  0  0  0  0
   10.4256  -20.3453   27.8286 C   0  0  0  0  0  0  0  0  0  0  0  0
   11.4857  -20.5896   28.6694 O   0  0  0  0  0  0  0  0  0  0  0  0
    9.3123  -19.9630   28.3026 O   0  0  0  0  0  0  0  0  0  0  0  0
  2  1  1  6
  3  2  1  0
  4  3  1  0
  5  6  1  0
  5  4  1  0
  7  6  1  0
  8  2  1  0
  8  9  2  0
 10 11  1  0
 11 13  1  0
 11 12  2  0
 13 14  1  0
 15 14  1  1
 16 15  1  0
 16  8  1  0
 17 18  2  0
 17 15  1  0
 20 19  1  0
 21 20  1  6
 21 22  1  0
 22 17  1  0
 23 21  1  0
 23 24  1  0
 25 23  2  0
M  END
$$$$
