KQS.pdb
     RDKit          3D

 25 24  0  0  1  0  0  0  0  0999 V2000
    9.8210  -17.2653   21.0852 N   0  0  0  0  0  0  0  0  0  0  0  0
    8.6895  -16.4224   21.0225 C   0  0  1  0  0  0  0  0  0  0  0  0
    7.5103  -16.9761   20.2893 C   0  0  0  0  0  0  0  0  0  0  0  0
    7.7833  -17.4930   18.9221 C   0  0  0  0  0  0  0  0  0  0  0  0
    7.9725  -18.9769   18.8288 C   0  0  0  0  0  0  0  0  0  0  0  0
    8.0615  -19.4152   17.3812 C   0  0  0  0  0  0  0  0  0  0  0  0
    8.1754  -20.8596   17.3145 N   0  0  0  0  0  0  0  0  0  0  0  0
    8.2178  -16.1780   22.4422 C   0  0  0  0  0  0  0  0  0  0  0  0
    6.9823  -15.9231   22.5439 O   0  0  0  0  0  0  0  0  0  0  0  0
   11.0844  -18.0126   27.7706 N   0  0  0  0  0  0  0  0  0  0  0  0
   10.5411  -16.7206   28.0967 C   0  0  0  0  0  0  0  0  0  0  0  0
   11.0648  -16.1106   29.0425 O   0  0  0  0  0  0  0  0  0  0  0  0
    9.4114  -16.1993   27.3058 C   0  0  0  0  0  0  0  0  0  0  0  0
    9.6029  -16.5033   25.8652 C   0  0  0  0  0  0  0  0  0  0  0  0
    8.6115  -15.9953   24.8887 C   0  0  2  0  0  0  0  0  0  0  0  0
    9.1097  -16.2402   23.5148 N   0  0  0  0  0  0  0  0  0  0  0  0
    8.3544  -14.5492   24.9748 C   0  0  0  0  0  0  0  0  0  0  0  0
    9.0781  -13.6893   24.3446 O   0  0  0  0  0  0  0  0  0  0  0  0
    4.9503  -12.8699   26.7578 O   0  0  0  0  0  0  0  0  0  0  0  0
    5.6416  -12.2033   25.7533 C   0  0  0  0  0  0  0  0  0  0  0  0
    7.1234  -12.5429   25.8420 C   0  0  2  0  0  0  0  0  0  0  0  0
    7.3144  -13.9901   25.7321 N   0  0  0  0  0  0  0  0  0  0  0  0
    7.5825  -12.1187   27.1718 C   0  0  0  0  0  0  0  0  0  0  0  0
    7.6071  -10.8058   27.5797 O   0  0  0  0  0  0  0  0  0  0  0  0
    7.9689  -13.0367   27.9579 O   0  0  0  0  0  0  0  0  0  0  0  0
  2  1  1  1
  3  2  1  0
  4  3  1  0
  5  6  1  0
  5  4  1  0
  7  6  1  0
  8  2  1  0
  8  9  2  0
 10 11  1  0
 11 13  1  0
 11 12  2  0
 13 14  1  0
 15 14  1  1
 16 15  1  0
 16  8  1  0
 17 18  2  0
 17 15  1  0
 20 19  1  0
 21 20  1  1
 21 22  1  0
 22 17  1  0
 23 21  1  0
 23 24  1  0
 25 23  2  0
M  END
$$$$
