KQS.pdb
     RDKit          3D

 25 24  0  0  1  0  0  0  0  0999 V2000
    7.2077  -17.6049   20.5207 N   0  0  0  0  0  0  0  0  0  0  0  0
    8.2221  -16.8458   21.1446 C   0  0  1  0  0  0  0  0  0  0  0  0
    8.0639  -15.3617   21.0605 C   0  0  0  0  0  0  0  0  0  0  0  0
    8.5749  -14.7263   19.8171 C   0  0  0  0  0  0  0  0  0  0  0  0
    8.3812  -13.2423   19.7349 C   0  0  0  0  0  0  0  0  0  0  0  0
    8.8366  -12.7168   18.3888 C   0  0  0  0  0  0  0  0  0  0  0  0
    8.5465  -11.2988   18.2947 N   0  0  0  0  0  0  0  0  0  0  0  0
    8.2056  -17.1816   22.6227 C   0  0  0  0  0  0  0  0  0  0  0  0
    7.0487  -17.3624   23.1029 O   0  0  0  0  0  0  0  0  0  0  0  0
   11.9191  -20.6829   24.0680 N   0  0  0  0  0  0  0  0  0  0  0  0
   12.3458  -19.8404   25.1538 C   0  0  0  0  0  0  0  0  0  0  0  0
   13.5036  -20.0015   25.5715 O   0  0  0  0  0  0  0  0  0  0  0  0
   11.4027  -18.8495   25.7036 C   0  0  0  0  0  0  0  0  0  0  0  0
   10.1081  -18.9080   24.9790 C   0  0  0  0  0  0  0  0  0  0  0  0
    9.3417  -17.6558   24.7810 C   0  0  2  0  0  0  0  0  0  0  0  0
    9.3938  -17.2724   23.3506 N   0  0  0  0  0  0  0  0  0  0  0  0
    9.8571  -16.4989   25.5298 C   0  0  0  0  0  0  0  0  0  0  0  0
   10.8211  -15.7710   25.0813 O   0  0  0  0  0  0  0  0  0  0  0  0
    8.6149  -12.8059   28.2119 O   0  0  0  0  0  0  0  0  0  0  0  0
    8.3353  -14.0254   27.6070 C   0  0  0  0  0  0  0  0  0  0  0  0
    9.6357  -14.7689   27.3327 C   0  0  2  0  0  0  0  0  0  0  0  0
    9.3499  -16.0907   26.7722 N   0  0  0  0  0  0  0  0  0  0  0  0
   10.3059  -14.9540   28.6272 C   0  0  0  0  0  0  0  0  0  0  0  0
   10.8733  -13.9234   29.3388 O   0  0  0  0  0  0  0  0  0  0  0  0
   10.3445  -16.1382   29.0816 O   0  0  0  0  0  0  0  0  0  0  0  0
  2  1  1  6
  3  2  1  0
  4  3  1  0
  5  6  1  0
  5  4  1  0
  7  6  1  0
  8  2  1  0
  8  9  2  0
 10 11  1  0
 11 13  1  0
 11 12  2  0
 13 14  1  0
 15 14  1  6
 16 15  1  0
 16  8  1  0
 17 18  2  0
 17 15  1  0
 20 19  1  0
 21 20  1  1
 21 22  1  0
 22 17  1  0
 23 21  1  0
 23 24  1  0
 25 23  2  0
M  END
$$$$
