KQS.pdb
     RDKit          3D

 25 24  0  0  1  0  0  0  0  0999 V2000
    7.1596  -17.6101   20.9057 N   0  0  0  0  0  0  0  0  0  0  0  0
    8.0872  -16.6564   21.3797 C   0  0  1  0  0  0  0  0  0  0  0  0
    7.9952  -15.3001   20.7579 C   0  0  0  0  0  0  0  0  0  0  0  0
    8.5598  -15.1771   19.3879 C   0  0  0  0  0  0  0  0  0  0  0  0
    8.4554  -13.8125   18.7768 C   0  0  0  0  0  0  0  0  0  0  0  0
    8.9322  -13.8321   17.3387 C   0  0  0  0  0  0  0  0  0  0  0  0
    8.8299  -12.5009   16.7722 N   0  0  0  0  0  0  0  0  0  0  0  0
    7.8241  -16.4534   22.8587 C   0  0  0  0  0  0  0  0  0  0  0  0
    6.6065  -16.5515   23.1894 O   0  0  0  0  0  0  0  0  0  0  0  0
   11.8914  -17.4643   27.2169 N   0  0  0  0  0  0  0  0  0  0  0  0
   10.9319  -16.7998   28.0587 C   0  0  0  0  0  0  0  0  0  0  0  0
   11.2051  -16.7137   29.2666 O   0  0  0  0  0  0  0  0  0  0  0  0
    9.6973  -16.2672   27.4541 C   0  0  0  0  0  0  0  0  0  0  0  0
    9.6825  -16.5260   25.9921 C   0  0  0  0  0  0  0  0  0  0  0  0
    8.5728  -15.9760   25.1793 C   0  0  2  0  0  0  0  0  0  0  0  0
    8.8708  -16.1830   23.7426 N   0  0  0  0  0  0  0  0  0  0  0  0
    8.3532  -14.5304   25.3435 C   0  0  0  0  0  0  0  0  0  0  0  0
    9.1392  -13.6569   24.8148 O   0  0  0  0  0  0  0  0  0  0  0  0
    5.1235  -13.1089   27.4175 O   0  0  0  0  0  0  0  0  0  0  0  0
    5.6371  -12.2224   26.4786 C   0  0  0  0  0  0  0  0  0  0  0  0
    7.1044  -12.5414   26.2249 C   0  0  2  0  0  0  0  0  0  0  0  0
    7.2850  -13.9860   26.0717 N   0  0  0  0  0  0  0  0  0  0  0  0
    7.8500  -12.1090   27.4149 C   0  0  0  0  0  0  0  0  0  0  0  0
    7.8526  -10.8136   27.8759 O   0  0  0  0  0  0  0  0  0  0  0  0
    8.5144  -13.0024   28.0236 O   0  0  0  0  0  0  0  0  0  0  0  0
  2  1  1  6
  3  2  1  0
  4  3  1  0
  5  6  1  0
  5  4  1  0
  7  6  1  0
  8  2  1  0
  8  9  2  0
 10 11  1  0
 11 13  1  0
 11 12  2  0
 13 14  1  0
 15 14  1  1
 16 15  1  0
 16  8  1  0
 17 18  2  0
 17 15  1  0
 20 19  1  0
 21 20  1  1
 21 22  1  0
 22 17  1  0
 23 21  1  0
 23 24  1  0
 25 23  2  0
M  END
$$$$
