GGE.pdb
     RDKit          3D

 18 17  0  0  1  0  0  0  0  0999 V2000
   17.7574  -13.1275  -15.5095 N   0  0  0  0  0  0  0  0  0  0  0  0
   18.8821  -12.2306  -15.5841 C   0  0  0  0  0  0  0  0  0  0  0  0
   18.3795  -10.8232  -15.5308 C   0  0  0  0  0  0  0  0  0  0  0  0
   17.2161  -10.5421  -15.9611 O   0  0  0  0  0  0  0  0  0  0  0  0
   19.1663   -9.7624  -15.0070 N   0  0  0  0  0  0  0  0  0  0  0  0
   18.6654   -8.4339  -14.8476 C   0  0  0  0  0  0  0  0  0  0  0  0
   19.7350   -7.5167  -14.3691 C   0  0  0  0  0  0  0  0  0  0  0  0
   20.2144   -7.6960  -13.2238 O   0  0  0  0  0  0  0  0  0  0  0  0
   20.2404   -6.4516  -15.1400 N   0  0  0  0  0  0  0  0  0  0  0  0
   21.3190   -5.5508  -14.6523 C   0  0  1  0  0  0  0  0  0  0  0  0
   22.4109   -5.5465  -15.6536 C   0  0  0  0  0  0  0  0  0  0  0  0
   23.3398   -6.6877  -15.5547 C   0  0  0  0  0  0  0  0  0  0  0  0
   24.6175   -6.4382  -16.2512 C   0  0  0  0  0  0  0  0  0  0  0  0
   25.0856   -5.2652  -16.2828 O   0  0  0  0  0  0  0  0  0  0  0  0
   20.7417   -4.2802  -14.2966 C   0  0  0  0  0  0  0  0  0  0  0  0
   21.1989   -3.4250  -13.2920 O   0  0  0  0  0  0  0  0  0  0  0  0
   25.3379   -7.4356  -16.8794 O   0  0  0  0  0  0  0  0  0  0  0  0
   19.7119   -3.8647  -14.9251 O   0  0  0  0  0  0  0  0  0  0  0  0
  2  1  1  0
  3  2  1  0
  4  3  2  0
  5  3  1  0
  6  5  1  0
  7  9  1  0
  7  6  1  0
  8  7  2  0
 10 11  1  6
 10  9  1  0
 12 13  1  0
 12 11  1  0
 13 14  2  0
 15 16  1  0
 15 10  1  0
 17 13  1  0
 18 15  2  0
M  END
$$$$
