GGE.pdb
     RDKit          3D

 18 17  0  0  1  0  0  0  0  0999 V2000
   17.5480  -13.1249  -15.5902 N   0  0  0  0  0  0  0  0  0  0  0  0
   18.6690  -13.3585  -16.4641 C   0  0  0  0  0  0  0  0  0  0  0  0
   19.3451  -12.0533  -16.7387 C   0  0  0  0  0  0  0  0  0  0  0  0
   18.6888  -11.0847  -17.2374 O   0  0  0  0  0  0  0  0  0  0  0  0
   20.7226  -11.8457  -16.4588 N   0  0  0  0  0  0  0  0  0  0  0  0
   21.4007  -10.6282  -16.7736 C   0  0  0  0  0  0  0  0  0  0  0  0
   21.3132   -9.6639  -15.6437 C   0  0  0  0  0  0  0  0  0  0  0  0
   21.3753  -10.1035  -14.4704 O   0  0  0  0  0  0  0  0  0  0  0  0
   21.1636   -8.2749  -15.8241 N   0  0  0  0  0  0  0  0  0  0  0  0
   21.1242   -7.3187  -14.6854 C   0  0  1  0  0  0  0  0  0  0  0  0
   21.8839   -6.1060  -15.0685 C   0  0  0  0  0  0  0  0  0  0  0  0
   21.9234   -5.0538  -14.0358 C   0  0  0  0  0  0  0  0  0  0  0  0
   22.6248   -3.8382  -14.4943 C   0  0  0  0  0  0  0  0  0  0  0  0
   22.1923   -2.7048  -14.1416 O   0  0  0  0  0  0  0  0  0  0  0  0
   19.7561   -7.1400  -14.2721 C   0  0  0  0  0  0  0  0  0  0  0  0
   19.3098   -6.9942  -12.9572 O   0  0  0  0  0  0  0  0  0  0  0  0
   23.7456   -3.8767  -15.3010 O   0  0  0  0  0  0  0  0  0  0  0  0
   18.8354   -7.1165  -15.1552 O   0  0  0  0  0  0  0  0  0  0  0  0
  2  1  1  0
  3  2  1  0
  4  3  2  0
  5  3  1  0
  6  5  1  0
  7  9  1  0
  7  6  1  0
  8  7  2  0
 10 11  1  6
 10  9  1  0
 12 13  1  0
 12 11  1  0
 13 14  2  0
 15 16  1  0
 15 10  1  0
 17 13  1  0
 18 15  2  0
M  END
$$$$
