GGE.pdb
     RDKit          3D

 18 17  0  0  1  0  0  0  0  0999 V2000
   15.6058  -14.0569  -15.1720 N   0  0  0  0  0  0  0  0  0  0  0  0
   15.0488  -12.7546  -15.4345 C   0  0  0  0  0  0  0  0  0  0  0  0
   16.1446  -11.8459  -15.8920 C   0  0  0  0  0  0  0  0  0  0  0  0
   16.0903  -11.3060  -17.0424 O   0  0  0  0  0  0  0  0  0  0  0  0
   17.2701  -11.5537  -15.0757 N   0  0  0  0  0  0  0  0  0  0  0  0
   18.3382  -10.7075  -15.5053 C   0  0  0  0  0  0  0  0  0  0  0  0
   18.3570   -9.4393  -14.7272 C   0  0  0  0  0  0  0  0  0  0  0  0
   17.7406   -9.3930  -13.6357 O   0  0  0  0  0  0  0  0  0  0  0  0
   19.0352   -8.2811  -15.1550 N   0  0  0  0  0  0  0  0  0  0  0  0
   19.0693   -7.0298  -14.3517 C   0  0  1  0  0  0  0  0  0  0  0  0
   20.4691   -6.5479  -14.2985 C   0  0  0  0  0  0  0  0  0  0  0  0
   20.6698   -5.3308  -13.4900 C   0  0  0  0  0  0  0  0  0  0  0  0
   22.0590   -4.8347  -13.5510 C   0  0  0  0  0  0  0  0  0  0  0  0
   22.2682   -3.6064  -13.7596 O   0  0  0  0  0  0  0  0  0  0  0  0
   18.0749   -6.1205  -14.8604 C   0  0  0  0  0  0  0  0  0  0  0  0
   17.4236   -5.1256  -14.1286 O   0  0  0  0  0  0  0  0  0  0  0  0
   23.1579   -5.6562  -13.3897 O   0  0  0  0  0  0  0  0  0  0  0  0
   17.7206   -6.2036  -16.0833 O   0  0  0  0  0  0  0  0  0  0  0  0
  2  1  1  0
  3  2  1  0
  4  3  2  0
  5  3  1  0
  6  5  1  0
  7  9  1  0
  7  6  1  0
  8  7  2  0
 10 11  1  6
 10  9  1  0
 12 13  1  0
 12 11  1  0
 13 14  2  0
 15 16  1  0
 15 10  1  0
 17 13  1  0
 18 15  2  0
M  END
$$$$
