GGE.pdb
     RDKit          3D

 18 17  0  0  1  0  0  0  0  0999 V2000
   27.4095  -20.2805  -14.8188 N   0  0  0  0  0  0  0  0  0  0  0  0
   26.7936  -21.5654  -15.0304 C   0  0  0  0  0  0  0  0  0  0  0  0
   25.7774  -21.7943  -13.9576 C   0  0  0  0  0  0  0  0  0  0  0  0
   24.7736  -22.5443  -14.1760 O   0  0  0  0  0  0  0  0  0  0  0  0
   25.8897  -21.1948  -12.6743 N   0  0  0  0  0  0  0  0  0  0  0  0
   25.0142  -21.5157  -11.5917 C   0  0  0  0  0  0  0  0  0  0  0  0
   23.6840  -20.8749  -11.7764 C   0  0  0  0  0  0  0  0  0  0  0  0
   23.2061  -20.1968  -10.8355 O   0  0  0  0  0  0  0  0  0  0  0  0
   22.9292  -20.9906  -12.9601 N   0  0  0  0  0  0  0  0  0  0  0  0
   21.6257  -20.2996  -13.1499 C   0  0  1  0  0  0  0  0  0  0  0  0
   21.6678  -19.5710  -14.4391 C   0  0  0  0  0  0  0  0  0  0  0  0
   20.4225  -18.8599  -14.7839 C   0  0  0  0  0  0  0  0  0  0  0  0
   20.4892  -18.2146  -16.1102 C   0  0  0  0  0  0  0  0  0  0  0  0
   21.4321  -17.4118  -16.3604 O   0  0  0  0  0  0  0  0  0  0  0  0
   20.5606  -21.2507  -12.9613 C   0  0  0  0  0  0  0  0  0  0  0  0
   19.3252  -20.9897  -12.3655 O   0  0  0  0  0  0  0  0  0  0  0  0
   19.5601  -18.4464  -17.1059 O   0  0  0  0  0  0  0  0  0  0  0  0
   20.7229  -22.4548  -13.3509 O   0  0  0  0  0  0  0  0  0  0  0  0
  2  1  1  0
  3  2  1  0
  4  3  2  0
  5  3  1  0
  6  5  1  0
  7  9  1  0
  7  6  1  0
  8  7  2  0
 10 11  1  6
 10  9  1  0
 12 13  1  0
 12 11  1  0
 13 14  2  0
 15 16  1  0
 15 10  1  0
 17 13  1  0
 18 15  2  0
M  END
$$$$
