GGE.pdb
     RDKit          3D

 18 17  0  0  1  0  0  0  0  0999 V2000
   17.0262  -11.4813  -14.7434 N   0  0  0  0  0  0  0  0  0  0  0  0
   16.7403  -10.1225  -15.1266 C   0  0  0  0  0  0  0  0  0  0  0  0
   17.7135   -9.7055  -16.1826 C   0  0  0  0  0  0  0  0  0  0  0  0
   17.5827  -10.1260  -17.3759 O   0  0  0  0  0  0  0  0  0  0  0  0
   18.8036   -8.8387  -15.9014 N   0  0  0  0  0  0  0  0  0  0  0  0
   20.1668   -9.2282  -16.0782 C   0  0  0  0  0  0  0  0  0  0  0  0
   21.0891   -8.1992  -15.5262 C   0  0  0  0  0  0  0  0  0  0  0  0
   22.3237   -8.4194  -15.5546 O   0  0  0  0  0  0  0  0  0  0  0  0
   20.6453   -6.9833  -14.9705 N   0  0  0  0  0  0  0  0  0  0  0  0
   21.5797   -5.8996  -14.5644 C   0  0  1  0  0  0  0  0  0  0  0  0
   21.2319   -4.6757  -15.3231 C   0  0  0  0  0  0  0  0  0  0  0  0
   22.0019   -3.4768  -14.9421 C   0  0  0  0  0  0  0  0  0  0  0  0
   21.5831   -2.2749  -15.6903 C   0  0  0  0  0  0  0  0  0  0  0  0
   21.9366   -2.1428  -16.8959 O   0  0  0  0  0  0  0  0  0  0  0  0
   21.5916   -5.8067  -13.1272 C   0  0  0  0  0  0  0  0  0  0  0  0
   22.5129   -5.0911  -12.3600 O   0  0  0  0  0  0  0  0  0  0  0  0
   20.8136   -1.2727  -15.1319 O   0  0  0  0  0  0  0  0  0  0  0  0
   20.7028   -6.4275  -12.4543 O   0  0  0  0  0  0  0  0  0  0  0  0
  2  1  1  0
  3  2  1  0
  4  3  2  0
  5  3  1  0
  6  5  1  0
  7  9  1  0
  7  6  1  0
  8  7  2  0
 10 11  1  6
 10  9  1  0
 12 13  1  0
 12 11  1  0
 13 14  2  0
 15 16  1  0
 15 10  1  0
 17 13  1  0
 18 15  2  0
M  END
$$$$
