GGE.pdb
     RDKit          3D

 18 17  0  0  1  0  0  0  0  0999 V2000
   13.9191  -11.7729  -12.1422 N   0  0  0  0  0  0  0  0  0  0  0  0
   12.8522  -12.1351  -11.2446 C   0  0  0  0  0  0  0  0  0  0  0  0
   12.9642  -11.3065  -10.0049 C   0  0  0  0  0  0  0  0  0  0  0  0
   12.1360  -11.4640   -9.0525 O   0  0  0  0  0  0  0  0  0  0  0  0
   13.9814  -10.3278   -9.8432 N   0  0  0  0  0  0  0  0  0  0  0  0
   14.1486   -9.5780   -8.6385 C   0  0  0  0  0  0  0  0  0  0  0  0
   15.2206   -8.5575   -8.7925 C   0  0  0  0  0  0  0  0  0  0  0  0
   16.4162   -8.9369   -8.8047 O   0  0  0  0  0  0  0  0  0  0  0  0
   14.9611   -7.1795   -8.9264 N   0  0  0  0  0  0  0  0  0  0  0  0
   15.9925   -6.2108   -9.3851 C   0  0  1  0  0  0  0  0  0  0  0  0
   16.5323   -6.6834  -10.6811 C   0  0  0  0  0  0  0  0  0  0  0  0
   17.5187   -5.7798  -11.3022 C   0  0  0  0  0  0  0  0  0  0  0  0
   17.9056   -6.2130  -12.6595 C   0  0  0  0  0  0  0  0  0  0  0  0
   17.1373   -5.9632  -13.6308 O   0  0  0  0  0  0  0  0  0  0  0  0
   15.4373   -4.8824   -9.3439 C   0  0  0  0  0  0  0  0  0  0  0  0
   16.1507   -3.7028   -9.1226 O   0  0  0  0  0  0  0  0  0  0  0  0
   19.0814   -6.8874  -12.9262 O   0  0  0  0  0  0  0  0  0  0  0  0
   14.1820   -4.7252   -9.5104 O   0  0  0  0  0  0  0  0  0  0  0  0
  2  1  1  0
  3  2  1  0
  4  3  2  0
  5  3  1  0
  6  5  1  0
  7  9  1  0
  7  6  1  0
  8  7  2  0
 10 11  1  6
 10  9  1  0
 12 13  1  0
 12 11  1  0
 13 14  2  0
 15 16  1  0
 15 10  1  0
 17 13  1  0
 18 15  2  0
M  END
$$$$
