GGE.pdb
     RDKit          3D

 18 17  0  0  1  0  0  0  0  0999 V2000
   16.7044  -14.3169  -15.2428 N   0  0  0  0  0  0  0  0  0  0  0  0
   16.6790  -14.1739  -16.6760 C   0  0  0  0  0  0  0  0  0  0  0  0
   17.6422  -13.0999  -17.0694 C   0  0  0  0  0  0  0  0  0  0  0  0
   18.3587  -13.2328  -18.1120 O   0  0  0  0  0  0  0  0  0  0  0  0
   17.7935  -11.9092  -16.3091 N   0  0  0  0  0  0  0  0  0  0  0  0
   18.7063  -10.8713  -16.6711 C   0  0  0  0  0  0  0  0  0  0  0  0
   18.6690   -9.7617  -15.6803 C   0  0  0  0  0  0  0  0  0  0  0  0
   17.9224   -9.8736  -14.6785 O   0  0  0  0  0  0  0  0  0  0  0  0
   19.4331   -8.5854  -15.8095 N   0  0  0  0  0  0  0  0  0  0  0  0
   19.4178   -7.5038  -14.7885 C   0  0  1  0  0  0  0  0  0  0  0  0
   20.7693   -6.9000  -14.7289 C   0  0  0  0  0  0  0  0  0  0  0  0
   20.9241   -5.8389  -13.7163 C   0  0  0  0  0  0  0  0  0  0  0  0
   22.2856   -5.2681  -13.6996 C   0  0  0  0  0  0  0  0  0  0  0  0
   23.2393   -5.9293  -14.1988 O   0  0  0  0  0  0  0  0  0  0  0  0
   18.3103   -6.6231  -15.0571 C   0  0  0  0  0  0  0  0  0  0  0  0
   17.5518   -5.9455  -14.1006 O   0  0  0  0  0  0  0  0  0  0  0  0
   22.5747   -4.0304  -13.1583 O   0  0  0  0  0  0  0  0  0  0  0  0
   17.9503   -6.4235  -16.2648 O   0  0  0  0  0  0  0  0  0  0  0  0
  2  1  1  0
  3  2  1  0
  4  3  2  0
  5  3  1  0
  6  5  1  0
  7  9  1  0
  7  6  1  0
  8  7  2  0
 10 11  1  6
 10  9  1  0
 12 13  1  0
 12 11  1  0
 13 14  2  0
 15 16  1  0
 15 10  1  0
 17 13  1  0
 18 15  2  0
M  END
$$$$
