GGE.pdb
     RDKit          3D

 18 17  0  0  1  0  0  0  0  0999 V2000
   28.7793  -22.1403  -15.8910 N   0  0  0  0  0  0  0  0  0  0  0  0
   27.6500  -21.8358  -15.0502 C   0  0  0  0  0  0  0  0  0  0  0  0
   26.7914  -20.8274  -15.7445 C   0  0  0  0  0  0  0  0  0  0  0  0
   27.2227  -20.2209  -16.7759 O   0  0  0  0  0  0  0  0  0  0  0  0
   25.4831  -20.5117  -15.2890 N   0  0  0  0  0  0  0  0  0  0  0  0
   24.6444  -19.5595  -15.9458 C   0  0  0  0  0  0  0  0  0  0  0  0
   23.3209  -19.4639  -15.2725 C   0  0  0  0  0  0  0  0  0  0  0  0
   23.1374  -20.1060  -14.2106 O   0  0  0  0  0  0  0  0  0  0  0  0
   22.2570  -18.6850  -15.7684 N   0  0  0  0  0  0  0  0  0  0  0  0
   20.9493  -18.5762  -15.0680 C   0  0  1  0  0  0  0  0  0  0  0  0
   20.3121  -17.2995  -15.4662 C   0  0  0  0  0  0  0  0  0  0  0  0
   19.0042  -17.0423  -14.8348 C   0  0  0  0  0  0  0  0  0  0  0  0
   18.3477  -15.8322  -15.3679 C   0  0  0  0  0  0  0  0  0  0  0  0
   18.4027  -15.5941  -16.6074 O   0  0  0  0  0  0  0  0  0  0  0  0
   20.2000  -19.7867  -15.2863 C   0  0  0  0  0  0  0  0  0  0  0  0
   19.2768  -20.3494  -14.4029 O   0  0  0  0  0  0  0  0  0  0  0  0
   17.6666  -14.9336  -14.5698 O   0  0  0  0  0  0  0  0  0  0  0  0
   20.3723  -20.4407  -16.3683 O   0  0  0  0  0  0  0  0  0  0  0  0
  2  1  1  0
  3  2  1  0
  4  3  2  0
  5  3  1  0
  6  5  1  0
  7  9  1  0
  7  6  1  0
  8  7  2  0
 10 11  1  6
 10  9  1  0
 12 13  1  0
 12 11  1  0
 13 14  2  0
 15 16  1  0
 15 10  1  0
 17 13  1  0
 18 15  2  0
M  END
$$$$
