GGE.pdb
     RDKit          3D

 18 17  0  0  1  0  0  0  0  0999 V2000
   17.6177  -13.2670  -15.4598 N   0  0  0  0  0  0  0  0  0  0  0  0
   16.2404  -12.8458  -15.4840 C   0  0  0  0  0  0  0  0  0  0  0  0
   16.1729  -11.4516  -16.0204 C   0  0  0  0  0  0  0  0  0  0  0  0
   15.0931  -10.7848  -15.9363 O   0  0  0  0  0  0  0  0  0  0  0  0
   17.2915  -10.8265  -16.6343 N   0  0  0  0  0  0  0  0  0  0  0  0
   17.2268   -9.5219  -17.2134 C   0  0  0  0  0  0  0  0  0  0  0  0
   17.4876   -8.4732  -16.1904 C   0  0  0  0  0  0  0  0  0  0  0  0
   16.9329   -8.5736  -15.0698 O   0  0  0  0  0  0  0  0  0  0  0  0
   18.3302   -7.3672  -16.4162 N   0  0  0  0  0  0  0  0  0  0  0  0
   18.6251   -6.3568  -15.3652 C   0  0  1  0  0  0  0  0  0  0  0  0
   20.0670   -6.4354  -15.0345 C   0  0  0  0  0  0  0  0  0  0  0  0
   20.5039   -5.5154  -13.9677 C   0  0  0  0  0  0  0  0  0  0  0  0
   21.9581   -5.5845  -13.7226 C   0  0  0  0  0  0  0  0  0  0  0  0
   22.6157   -6.5633  -14.1759 O   0  0  0  0  0  0  0  0  0  0  0  0
   18.1113   -5.0793  -15.7876 C   0  0  0  0  0  0  0  0  0  0  0  0
   17.8538   -3.9853  -14.9592 O   0  0  0  0  0  0  0  0  0  0  0  0
   22.6469   -4.6201  -13.0127 O   0  0  0  0  0  0  0  0  0  0  0  0
   17.8444   -4.8908  -17.0210 O   0  0  0  0  0  0  0  0  0  0  0  0
  2  1  1  0
  3  2  1  0
  4  3  2  0
  5  3  1  0
  6  5  1  0
  7  9  1  0
  7  6  1  0
  8  7  2  0
 10 11  1  6
 10  9  1  0
 12 13  1  0
 12 11  1  0
 13 14  2  0
 15 16  1  0
 15 10  1  0
 17 13  1  0
 18 15  2  0
M  END
$$$$
