GGE.pdb
     RDKit          3D

 18 17  0  0  1  0  0  0  0  0999 V2000
   20.8282  -16.6146  -18.5517 N   0  0  0  0  0  0  0  0  0  0  0  0
   21.4593  -15.9189  -19.6438 C   0  0  0  0  0  0  0  0  0  0  0  0
   21.7044  -14.5018  -19.2341 C   0  0  0  0  0  0  0  0  0  0  0  0
   22.3505  -14.2459  -18.1688 O   0  0  0  0  0  0  0  0  0  0  0  0
   21.2343  -13.4038  -20.0036 N   0  0  0  0  0  0  0  0  0  0  0  0
   21.4205  -12.0443  -19.6054 C   0  0  0  0  0  0  0  0  0  0  0  0
   20.2342  -11.5419  -18.8607 C   0  0  0  0  0  0  0  0  0  0  0  0
   19.1866  -11.2831  -19.5004 O   0  0  0  0  0  0  0  0  0  0  0  0
   20.2263  -11.3408  -17.4665 N   0  0  0  0  0  0  0  0  0  0  0  0
   19.0464  -10.7972  -16.7420 C   0  0  1  0  0  0  0  0  0  0  0  0
   18.3587  -11.9198  -16.0628 C   0  0  0  0  0  0  0  0  0  0  0  0
   17.1992  -11.5237  -15.2419 C   0  0  0  0  0  0  0  0  0  0  0  0
   16.5484  -12.6772  -14.5895 C   0  0  0  0  0  0  0  0  0  0  0  0
   15.3425  -12.5820  -14.2250 O   0  0  0  0  0  0  0  0  0  0  0  0
   19.4691   -9.6885  -15.9257 C   0  0  0  0  0  0  0  0  0  0  0  0
   20.7757   -9.4314  -15.5059 O   0  0  0  0  0  0  0  0  0  0  0  0
   17.1995  -13.8726  -14.3534 O   0  0  0  0  0  0  0  0  0  0  0  0
   18.6011   -8.8461  -15.5194 O   0  0  0  0  0  0  0  0  0  0  0  0
  2  1  1  0
  3  2  1  0
  4  3  2  0
  5  3  1  0
  6  5  1  0
  7  9  1  0
  7  6  1  0
  8  7  2  0
 10 11  1  1
 10  9  1  0
 12 13  1  0
 12 11  1  0
 13 14  2  0
 15 16  1  0
 15 10  1  0
 17 13  1  0
 18 15  2  0
M  END
$$$$
