GGE.pdb
     RDKit          3D

 18 17  0  0  1  0  0  0  0  0999 V2000
   18.8616  -15.2604  -16.3186 N   0  0  0  0  0  0  0  0  0  0  0  0
   19.6228  -14.5942  -17.3443 C   0  0  0  0  0  0  0  0  0  0  0  0
   19.2189  -13.1551  -17.3850 C   0  0  0  0  0  0  0  0  0  0  0  0
   18.0000  -12.8368  -17.5609 O   0  0  0  0  0  0  0  0  0  0  0  0
   20.1625  -12.1039  -17.2317 N   0  0  0  0  0  0  0  0  0  0  0  0
   19.7896  -10.7247  -17.2267 C   0  0  0  0  0  0  0  0  0  0  0  0
   20.0097  -10.1198  -15.8851 C   0  0  0  0  0  0  0  0  0  0  0  0
   19.6972  -10.7826  -14.8669 O   0  0  0  0  0  0  0  0  0  0  0  0
   20.5541   -8.8342  -15.6978 N   0  0  0  0  0  0  0  0  0  0  0  0
   20.7713   -8.2446  -14.3496 C   0  0  1  0  0  0  0  0  0  0  0  0
   21.8910   -7.2787  -14.4380 C   0  0  0  0  0  0  0  0  0  0  0  0
   21.5187   -5.9532  -14.9668 C   0  0  0  0  0  0  0  0  0  0  0  0
   22.6860   -5.0663  -15.1413 C   0  0  0  0  0  0  0  0  0  0  0  0
   23.4195   -4.8067  -14.1460 O   0  0  0  0  0  0  0  0  0  0  0  0
   19.5138   -7.7563  -13.8448 C   0  0  0  0  0  0  0  0  0  0  0  0
   19.1696   -7.6177  -12.4988 O   0  0  0  0  0  0  0  0  0  0  0  0
   23.0224   -4.4972  -16.3543 O   0  0  0  0  0  0  0  0  0  0  0  0
   18.5999   -7.4178  -14.6683 O   0  0  0  0  0  0  0  0  0  0  0  0
  2  1  1  0
  3  2  1  0
  4  3  2  0
  5  3  1  0
  6  5  1  0
  7  9  1  0
  7  6  1  0
  8  7  2  0
 10 11  1  6
 10  9  1  0
 12 13  1  0
 12 11  1  0
 13 14  2  0
 15 16  1  0
 15 10  1  0
 17 13  1  0
 18 15  2  0
M  END
$$$$
