GGE.pdb
     RDKit          3D

 18 17  0  0  1  0  0  0  0  0999 V2000
   16.1930  -14.0949  -12.9942 N   0  0  0  0  0  0  0  0  0  0  0  0
   16.7621  -12.8033  -12.7063 C   0  0  0  0  0  0  0  0  0  0  0  0
   16.5132  -11.8977  -13.8699 C   0  0  0  0  0  0  0  0  0  0  0  0
   15.6095  -12.1802  -14.7192 O   0  0  0  0  0  0  0  0  0  0  0  0
   17.2619  -10.7070  -14.0706 N   0  0  0  0  0  0  0  0  0  0  0  0
   16.8714   -9.6955  -15.0011 C   0  0  0  0  0  0  0  0  0  0  0  0
   16.7665   -8.3704  -14.3323 C   0  0  0  0  0  0  0  0  0  0  0  0
   16.3385   -7.3941  -14.9935 O   0  0  0  0  0  0  0  0  0  0  0  0
   17.1247   -8.1541  -12.9872 N   0  0  0  0  0  0  0  0  0  0  0  0
   16.9843   -6.8303  -12.3236 C   0  0  1  0  0  0  0  0  0  0  0  0
   16.7862   -7.0549  -10.8728 C   0  0  0  0  0  0  0  0  0  0  0  0
   15.4710   -7.6165  -10.5118 C   0  0  0  0  0  0  0  0  0  0  0  0
   15.3378   -7.8558   -9.0610 C   0  0  0  0  0  0  0  0  0  0  0  0
   16.3439   -7.6978   -8.3134 O   0  0  0  0  0  0  0  0  0  0  0  0
   18.0850   -5.9899  -12.7194 C   0  0  0  0  0  0  0  0  0  0  0  0
   19.1967   -6.3918  -13.4624 O   0  0  0  0  0  0  0  0  0  0  0  0
   14.1527   -8.2495   -8.4703 O   0  0  0  0  0  0  0  0  0  0  0  0
   18.0891   -4.7622  -12.3720 O   0  0  0  0  0  0  0  0  0  0  0  0
  2  1  1  0
  3  2  1  0
  4  3  2  0
  5  3  1  0
  6  5  1  0
  7  9  1  0
  7  6  1  0
  8  7  2  0
 10 11  1  1
 10  9  1  0
 12 13  1  0
 12 11  1  0
 13 14  2  0
 15 16  1  0
 15 10  1  0
 17 13  1  0
 18 15  2  0
M  END
$$$$
