LSW.pdb
     RDKit          3D

 29 30  0  0  1  0  0  0  0  0999 V2000
    8.7504  -12.0834   19.3404 C   0  0  0  0  0  0  0  0  0  0  0  0
    7.9747  -13.3023   18.8833 C   0  0  2  0  0  0  0  0  0  0  0  0
    6.6705  -12.8333   18.3222 C   0  0  0  0  0  0  0  0  0  0  0  0
    7.8778  -14.2449   20.0282 C   0  0  0  0  0  0  0  0  0  0  0  0
    9.2061  -14.6352   20.6063 C   0  0  2  0  0  0  0  0  0  0  0  0
    9.9431  -15.2796   19.5040 N   0  0  0  0  0  0  0  0  0  0  0  0
    9.1359  -15.6069   21.6851 C   0  0  0  0  0  0  0  0  0  0  0  0
    8.2832  -15.3514   22.6101 O   0  0  0  0  0  0  0  0  0  0  0  0
   12.0132  -18.2099   22.2457 O   0  0  0  0  0  0  0  0  0  0  0  0
   10.8179  -18.7768   22.7065 C   0  0  0  0  0  0  0  0  0  0  0  0
    9.7735  -17.6815   22.9827 C   0  0  2  0  0  0  0  0  0  0  0  0
    9.8734  -16.7837   21.8491 N   0  0  0  0  0  0  0  0  0  0  0  0
   10.2198  -17.0139   24.2339 C   0  0  0  0  0  0  0  0  0  0  0  0
   11.1789  -16.1937   24.2084 O   0  0  0  0  0  0  0  0  0  0  0  0
    9.6026  -17.2621   25.4874 N   0  0  0  0  0  0  0  0  0  0  0  0
   10.1018  -16.6310   26.7331 C   0  0  1  0  0  0  0  0  0  0  0  0
    8.9041  -16.2981   27.5383 C   0  0  0  0  0  0  0  0  0  0  0  0
    7.8754  -15.5106   26.8310 C   0  0  0  0  0  0  0  0  0  0  0  0
    6.7556  -16.0581   26.1723 C   0  0  0  0  0  0  0  0  0  0  0  0
    6.0771  -15.0458   25.6171 N   0  0  0  0  0  0  0  0  0  0  0  0
    6.6663  -13.8783   25.8630 C   0  0  0  0  0  0  0  0  0  0  0  0
    6.3172  -12.5783   25.5090 C   0  0  0  0  0  0  0  0  0  0  0  0
    7.1247  -11.5626   25.9360 C   0  0  0  0  0  0  0  0  0  0  0  0
    8.2653  -11.7966   26.7019 C   0  0  0  0  0  0  0  0  0  0  0  0
    8.5735  -13.0935   27.0281 C   0  0  0  0  0  0  0  0  0  0  0  0
    7.7827  -14.1593   26.6159 C   0  0  0  0  0  0  0  0  0  0  0  0
   11.0335  -17.5147   27.4213 C   0  0  0  0  0  0  0  0  0  0  0  0
   11.8035  -17.1821   28.3439 O   0  0  0  0  0  0  0  0  0  0  0  0
   11.0941  -18.8597   27.0376 O   0  0  0  0  0  0  0  0  0  0  0  0
  2  1  1  1
  2  4  1  0
  3  2  1  0
  5  4  1  0
  5  7  1  0
  5  6  1  6
  7  8  2  0
  7 12  1  0
  9 10  1  0
 11 10  1  6
 11 13  1  0
 12 11  1  0
 13 15  1  0
 14 13  2  0
 15 16  1  0
 16 17  1  1
 16 27  1  0
 18 17  1  0
 19 18  2  0
 20 19  1  0
 21 20  1  0
 21 26  2  0
 22 23  2  0
 22 21  1  0
 23 24  1  0
 24 25  2  0
 26 25  1  0
 26 18  1  0
 27 28  2  0
 27 29  1  0
M  END
$$$$
