LSW.pdb
     RDKit          3D

 29 30  0  0  1  0  0  0  0  0999 V2000
    9.6147  -13.3324   18.8240 C   0  0  0  0  0  0  0  0  0  0  0  0
    8.2098  -13.1866   19.3731 C   0  0  2  0  0  0  0  0  0  0  0  0
    7.9511  -11.7303   19.5929 C   0  0  0  0  0  0  0  0  0  0  0  0
    8.0930  -14.0472   20.5790 C   0  0  0  0  0  0  0  0  0  0  0  0
    8.3214  -15.5050   20.3078 C   0  0  2  0  0  0  0  0  0  0  0  0
    7.0881  -15.9843   19.6577 N   0  0  0  0  0  0  0  0  0  0  0  0
    8.5103  -16.3205   21.4962 C   0  0  0  0  0  0  0  0  0  0  0  0
    7.5143  -16.3652   22.3050 O   0  0  0  0  0  0  0  0  0  0  0  0
   12.0487  -17.9518   22.4051 O   0  0  0  0  0  0  0  0  0  0  0  0
   10.9830  -18.7508   22.8393 C   0  0  0  0  0  0  0  0  0  0  0  0
    9.7230  -17.8958   23.0588 C   0  0  2  0  0  0  0  0  0  0  0  0
    9.6327  -17.0635   21.8756 N   0  0  0  0  0  0  0  0  0  0  0  0
   10.0044  -17.0773   24.2676 C   0  0  0  0  0  0  0  0  0  0  0  0
   10.6196  -15.9802   24.1622 O   0  0  0  0  0  0  0  0  0  0  0  0
    9.6039  -17.4821   25.5674 N   0  0  0  0  0  0  0  0  0  0  0  0
   10.0464  -16.7465   26.7766 C   0  0  1  0  0  0  0  0  0  0  0  0
    8.8223  -16.4621   27.5604 C   0  0  0  0  0  0  0  0  0  0  0  0
    7.7723  -15.7231   26.8323 C   0  0  0  0  0  0  0  0  0  0  0  0
    6.7024  -16.3225   26.1371 C   0  0  0  0  0  0  0  0  0  0  0  0
    5.9856  -15.3420   25.5731 N   0  0  0  0  0  0  0  0  0  0  0  0
    6.5038  -14.1473   25.8469 C   0  0  0  0  0  0  0  0  0  0  0  0
    6.0947  -12.8640   25.4962 C   0  0  0  0  0  0  0  0  0  0  0  0
    6.8340  -11.8113   25.9558 C   0  0  0  0  0  0  0  0  0  0  0  0
    7.9641  -11.9923   26.7510 C   0  0  0  0  0  0  0  0  0  0  0  0
    8.3329  -13.2743   27.0728 C   0  0  0  0  0  0  0  0  0  0  0  0
    7.6126  -14.3764   26.6281 C   0  0  0  0  0  0  0  0  0  0  0  0
   11.0391  -17.5166   27.5142 C   0  0  0  0  0  0  0  0  0  0  0  0
   11.4056  -18.6773   27.2441 O   0  0  0  0  0  0  0  0  0  0  0  0
   11.6537  -16.9315   28.6278 O   0  0  0  0  0  0  0  0  0  0  0  0
  2  1  1  1
  2  4  1  0
  3  2  1  0
  5  4  1  0
  5  7  1  0
  5  6  1  1
  7  8  2  0
  7 12  1  0
  9 10  1  0
 11 10  1  6
 11 13  1  0
 12 11  1  0
 13 15  1  0
 14 13  2  0
 15 16  1  0
 16 17  1  1
 16 27  1  0
 18 17  1  0
 19 18  2  0
 20 19  1  0
 21 20  1  0
 21 26  2  0
 22 23  2  0
 22 21  1  0
 23 24  1  0
 24 25  2  0
 26 25  1  0
 26 18  1  0
 27 28  2  0
 27 29  1  0
M  END
$$$$
