LSW.pdb
     RDKit          3D

 29 30  0  0  1  0  0  0  0  0999 V2000
    9.2604  -12.3529   18.7825 C   0  0  0  0  0  0  0  0  0  0  0  0
    8.0823  -13.2996   18.6718 C   0  0  2  0  0  0  0  0  0  0  0  0
    6.8892  -12.5015   18.2527 C   0  0  0  0  0  0  0  0  0  0  0  0
    7.9477  -14.0234   19.9627 C   0  0  0  0  0  0  0  0  0  0  0  0
    9.1931  -14.7450   20.3859 C   0  0  2  0  0  0  0  0  0  0  0  0
    9.5438  -15.6245   19.2559 N   0  0  0  0  0  0  0  0  0  0  0  0
    9.0313  -15.6034   21.5478 C   0  0  0  0  0  0  0  0  0  0  0  0
    8.4511  -15.0674   22.5598 O   0  0  0  0  0  0  0  0  0  0  0  0
   11.2325  -18.8529   22.1953 O   0  0  0  0  0  0  0  0  0  0  0  0
    9.9123  -19.0685   22.6115 C   0  0  0  0  0  0  0  0  0  0  0  0
    9.2144  -17.7292   22.9050 C   0  0  2  0  0  0  0  0  0  0  0  0
    9.4232  -16.9360   21.7099 N   0  0  0  0  0  0  0  0  0  0  0  0
    9.9408  -17.1488   24.0650 C   0  0  0  0  0  0  0  0  0  0  0  0
   10.9778  -16.4531   23.8811 O   0  0  0  0  0  0  0  0  0  0  0  0
    9.5122  -17.3457   25.4035 N   0  0  0  0  0  0  0  0  0  0  0  0
   10.2935  -16.8222   26.5500 C   0  0  1  0  0  0  0  0  0  0  0  0
    9.9222  -15.3951   26.6881 C   0  0  0  0  0  0  0  0  0  0  0  0
    8.4887  -15.1014   26.4942 C   0  0  0  0  0  0  0  0  0  0  0  0
    7.4922  -16.0730   26.2696 C   0  0  0  0  0  0  0  0  0  0  0  0
    6.3298  -15.4297   26.1008 N   0  0  0  0  0  0  0  0  0  0  0  0
    6.4893  -14.1123   26.1989 C   0  0  0  0  0  0  0  0  0  0  0  0
    5.5760  -13.0655   26.1136 C   0  0  0  0  0  0  0  0  0  0  0  0
    6.0458  -11.7940   26.2828 C   0  0  0  0  0  0  0  0  0  0  0  0
    7.3910  -11.5299   26.5336 C   0  0  0  0  0  0  0  0  0  0  0  0
    8.2579  -12.5910   26.6092 C   0  0  0  0  0  0  0  0  0  0  0  0
    7.8265  -13.9016   26.4432 C   0  0  0  0  0  0  0  0  0  0  0  0
   10.0348  -17.6055   27.7509 C   0  0  0  0  0  0  0  0  0  0  0  0
   10.5525  -17.4138   28.8689 O   0  0  0  0  0  0  0  0  0  0  0  0
    9.1316  -18.6727   27.6772 O   0  0  0  0  0  0  0  0  0  0  0  0
  2  1  1  1
  2  4  1  0
  3  2  1  0
  5  4  1  0
  5  7  1  0
  5  6  1  6
  7  8  2  0
  7 12  1  0
  9 10  1  0
 11 10  1  6
 11 13  1  0
 12 11  1  0
 13 15  1  0
 14 13  2  0
 15 16  1  0
 16 17  1  1
 16 27  1  0
 18 17  1  0
 19 18  2  0
 20 19  1  0
 21 20  1  0
 21 26  2  0
 22 23  2  0
 22 21  1  0
 23 24  1  0
 24 25  2  0
 26 25  1  0
 26 18  1  0
 27 28  2  0
 27 29  1  0
M  END
$$$$
