LSW.pdb
     RDKit          3D

 29 30  0  0  1  0  0  0  0  0999 V2000
    6.8692  -21.0825   18.0759 C   0  0  0  0  0  0  0  0  0  0  0  0
    7.5368  -19.7765   17.6950 C   0  0  2  0  0  0  0  0  0  0  0  0
    7.3306  -19.5654   16.2291 C   0  0  0  0  0  0  0  0  0  0  0  0
    8.9533  -19.8340   18.1409 C   0  0  0  0  0  0  0  0  0  0  0  0
    9.2597  -18.9367   19.3037 C   0  0  2  0  0  0  0  0  0  0  0  0
    8.0130  -18.8654   20.0874 N   0  0  0  0  0  0  0  0  0  0  0  0
    9.6034  -17.5715   18.9419 C   0  0  0  0  0  0  0  0  0  0  0  0
   10.7146  -17.4241   18.3161 O   0  0  0  0  0  0  0  0  0  0  0  0
    7.3457  -14.6096   18.3929 O   0  0  0  0  0  0  0  0  0  0  0  0
    8.6467  -14.1228   18.5747 C   0  0  0  0  0  0  0  0  0  0  0  0
    9.4703  -15.0952   19.4367 C   0  0  2  0  0  0  0  0  0  0  0  0
    8.8844  -16.3968   19.1845 N   0  0  0  0  0  0  0  0  0  0  0  0
    9.2422  -14.6700   20.8429 C   0  0  0  0  0  0  0  0  0  0  0  0
    8.4620  -13.7110   21.0975 O   0  0  0  0  0  0  0  0  0  0  0  0
    9.8769  -15.3079   21.9403 N   0  0  0  0  0  0  0  0  0  0  0  0
    9.5071  -14.9870   23.3400 C   0  0  1  0  0  0  0  0  0  0  0  0
    8.0411  -15.1750   23.4354 C   0  0  0  0  0  0  0  0  0  0  0  0
    7.4489  -14.8147   24.7385 C   0  0  0  0  0  0  0  0  0  0  0  0
    6.7844  -15.7150   25.5961 C   0  0  0  0  0  0  0  0  0  0  0  0
    6.3514  -15.0203   26.6560 N   0  0  0  0  0  0  0  0  0  0  0  0
    6.6826  -13.7352   26.5581 C   0  0  0  0  0  0  0  0  0  0  0  0
    6.4643  -12.6604   27.4150 C   0  0  0  0  0  0  0  0  0  0  0  0
    6.9535  -11.4400   27.0444 C   0  0  0  0  0  0  0  0  0  0  0  0
    7.6512  -11.2537   25.8524 C   0  0  0  0  0  0  0  0  0  0  0  0
    7.8437  -12.3400   25.0362 C   0  0  0  0  0  0  0  0  0  0  0  0
    7.3640  -13.6007   25.3707 C   0  0  0  0  0  0  0  0  0  0  0  0
   10.2579  -15.8150   24.2745 C   0  0  0  0  0  0  0  0  0  0  0  0
   10.5091  -15.5264   25.4612 O   0  0  0  0  0  0  0  0  0  0  0  0
   10.7540  -17.0477   23.8335 O   0  0  0  0  0  0  0  0  0  0  0  0
  2  1  1  6
  2  4  1  0
  3  2  1  0
  5  4  1  0
  5  7  1  0
  5  6  1  1
  7  8  2  0
  7 12  1  0
  9 10  1  0
 11 10  1  6
 11 13  1  0
 12 11  1  0
 13 15  1  0
 14 13  2  0
 15 16  1  0
 16 17  1  6
 16 27  1  0
 18 17  1  0
 19 18  2  0
 20 19  1  0
 21 20  1  0
 21 26  2  0
 22 23  2  0
 22 21  1  0
 23 24  1  0
 24 25  2  0
 26 25  1  0
 26 18  1  0
 27 28  2  0
 27 29  1  0
M  END
$$$$
