LSW.pdb
     RDKit          3D

 29 30  0  0  1  0  0  0  0  0999 V2000
    8.9193  -12.2057   18.8309 C   0  0  0  0  0  0  0  0  0  0  0  0
    7.8472  -13.2723   18.7344 C   0  0  2  0  0  0  0  0  0  0  0  0
    6.5729  -12.6072   18.3226 C   0  0  0  0  0  0  0  0  0  0  0  0
    7.8008  -13.9999   20.0293 C   0  0  0  0  0  0  0  0  0  0  0  0
    9.1141  -14.6023   20.4336 C   0  0  2  0  0  0  0  0  0  0  0  0
    9.5895  -15.3441   19.2516 N   0  0  0  0  0  0  0  0  0  0  0  0
    9.0314  -15.5618   21.5225 C   0  0  0  0  0  0  0  0  0  0  0  0
    8.4751  -15.1365   22.5985 O   0  0  0  0  0  0  0  0  0  0  0  0
   11.4186  -18.7412   21.9340 O   0  0  0  0  0  0  0  0  0  0  0  0
   10.0939  -19.0596   22.2601 C   0  0  0  0  0  0  0  0  0  0  0  0
    9.3217  -17.7947   22.6732 C   0  0  2  0  0  0  0  0  0  0  0  0
    9.4769  -16.8870   21.5538 N   0  0  0  0  0  0  0  0  0  0  0  0
   10.0209  -17.2792   23.8798 C   0  0  0  0  0  0  0  0  0  0  0  0
   11.1299  -16.6872   23.7665 O   0  0  0  0  0  0  0  0  0  0  0  0
    9.4863  -17.4257   25.1862 N   0  0  0  0  0  0  0  0  0  0  0  0
   10.2140  -16.9288   26.3790 C   0  0  1  0  0  0  0  0  0  0  0  0
    9.9424  -15.4748   26.4549 C   0  0  0  0  0  0  0  0  0  0  0  0
    8.5259  -15.0947   26.2882 C   0  0  0  0  0  0  0  0  0  0  0  0
    7.4766  -15.9987   26.0246 C   0  0  0  0  0  0  0  0  0  0  0  0
    6.3500  -15.2859   25.8978 N   0  0  0  0  0  0  0  0  0  0  0  0
    6.5815  -13.9855   26.0593 C   0  0  0  0  0  0  0  0  0  0  0  0
    5.7261  -12.8880   26.0335 C   0  0  0  0  0  0  0  0  0  0  0  0
    6.2654  -11.6537   26.2610 C   0  0  0  0  0  0  0  0  0  0  0  0
    7.6245  -11.4755   26.5129 C   0  0  0  0  0  0  0  0  0  0  0  0
    8.4328  -12.5843   26.5286 C   0  0  0  0  0  0  0  0  0  0  0  0
    7.9296  -13.8598   26.3020 C   0  0  0  0  0  0  0  0  0  0  0  0
    9.8044  -17.6563   27.5730 C   0  0  0  0  0  0  0  0  0  0  0  0
   10.2544  -17.4786   28.7222 O   0  0  0  0  0  0  0  0  0  0  0  0
    8.8224  -18.6471   27.4541 O   0  0  0  0  0  0  0  0  0  0  0  0
  2  1  1  1
  2  4  1  0
  3  2  1  0
  5  4  1  0
  5  7  1  0
  5  6  1  6
  7  8  2  0
  7 12  1  0
  9 10  1  0
 11 10  1  6
 11 13  1  0
 12 11  1  0
 13 15  1  0
 14 13  2  0
 15 16  1  0
 16 17  1  1
 16 27  1  0
 18 17  1  0
 19 18  2  0
 20 19  1  0
 21 20  1  0
 21 26  2  0
 22 23  2  0
 22 21  1  0
 23 24  1  0
 24 25  2  0
 26 25  1  0
 26 18  1  0
 27 28  2  0
 27 29  1  0
M  END
$$$$
