LSW.pdb
     RDKit          3D

 29 30  0  0  1  0  0  0  0  0999 V2000
    9.2621  -12.8057   19.0143 C   0  0  0  0  0  0  0  0  0  0  0  0
    7.8452  -13.1822   19.3976 C   0  0  2  0  0  0  0  0  0  0  0  0
    7.1040  -11.9221   19.7122 C   0  0  0  0  0  0  0  0  0  0  0  0
    7.9131  -14.1775   20.4991 C   0  0  0  0  0  0  0  0  0  0  0  0
    8.5667  -15.4703   20.1086 C   0  0  2  0  0  0  0  0  0  0  0  0
    7.6355  -16.1148   19.1647 N   0  0  0  0  0  0  0  0  0  0  0  0
    8.7636  -16.4053   21.2040 C   0  0  0  0  0  0  0  0  0  0  0  0
    7.6958  -16.9268   21.6899 O   0  0  0  0  0  0  0  0  0  0  0  0
   12.4118  -17.5807   22.3520 O   0  0  0  0  0  0  0  0  0  0  0  0
   11.3883  -18.4706   22.7025 C   0  0  0  0  0  0  0  0  0  0  0  0
   10.0694  -17.7120   22.9307 C   0  0  2  0  0  0  0  0  0  0  0  0
    9.9618  -16.8128   21.7990 N   0  0  0  0  0  0  0  0  0  0  0  0
   10.2600  -16.9566   24.1970 C   0  0  0  0  0  0  0  0  0  0  0  0
   10.9472  -15.8980   24.2073 O   0  0  0  0  0  0  0  0  0  0  0  0
    9.6913  -17.3812   25.4259 N   0  0  0  0  0  0  0  0  0  0  0  0
   10.0383  -16.7201   26.7072 C   0  0  1  0  0  0  0  0  0  0  0  0
    8.7632  -16.5367   27.4381 C   0  0  0  0  0  0  0  0  0  0  0  0
    7.7736  -15.6760   26.7608 C   0  0  0  0  0  0  0  0  0  0  0  0
    6.6141  -16.1432   26.1091 C   0  0  0  0  0  0  0  0  0  0  0  0
    5.9896  -15.0819   25.5828 N   0  0  0  0  0  0  0  0  0  0  0  0
    6.6508  -13.9565   25.8410 C   0  0  0  0  0  0  0  0  0  0  0  0
    6.3751  -12.6315   25.5162 C   0  0  0  0  0  0  0  0  0  0  0  0
    7.2477  -11.6740   25.9496 C   0  0  0  0  0  0  0  0  0  0  0  0
    8.3828  -11.9900   26.6937 C   0  0  0  0  0  0  0  0  0  0  0  0
    8.6175  -13.3089   26.9915 C   0  0  0  0  0  0  0  0  0  0  0  0
    7.7588  -14.3178   26.5718 C   0  0  0  0  0  0  0  0  0  0  0  0
   11.0189  -17.5063   27.4441 C   0  0  0  0  0  0  0  0  0  0  0  0
   11.4284  -18.6401   27.1260 O   0  0  0  0  0  0  0  0  0  0  0  0
   11.5685  -16.9708   28.6151 O   0  0  0  0  0  0  0  0  0  0  0  0
  2  1  1  1
  2  4  1  0
  3  2  1  0
  5  4  1  0
  5  7  1  0
  5  6  1  6
  7  8  2  0
  7 12  1  0
  9 10  1  0
 11 10  1  6
 11 13  1  0
 12 11  1  0
 13 15  1  0
 14 13  2  0
 15 16  1  0
 16 17  1  1
 16 27  1  0
 18 17  1  0
 19 18  2  0
 20 19  1  0
 21 20  1  0
 21 26  2  0
 22 23  2  0
 22 21  1  0
 23 24  1  0
 24 25  2  0
 26 25  1  0
 26 18  1  0
 27 28  2  0
 27 29  1  0
M  END
$$$$
