LSW.pdb
     RDKit          3D

 29 30  0  0  1  0  0  0  0  0999 V2000
    8.4736  -13.0471   18.2699 C   0  0  0  0  0  0  0  0  0  0  0  0
    7.5363  -13.5523   19.3482 C   0  0  2  0  0  0  0  0  0  0  0  0
    6.9623  -12.3643   20.0517 C   0  0  0  0  0  0  0  0  0  0  0  0
    8.2891  -14.5034   20.2068 C   0  0  0  0  0  0  0  0  0  0  0  0
    8.8991  -15.6483   19.4531 C   0  0  2  0  0  0  0  0  0  0  0  0
    7.7623  -16.4392   18.9475 N   0  0  0  0  0  0  0  0  0  0  0  0
    9.7047  -16.5470   20.2633 C   0  0  0  0  0  0  0  0  0  0  0  0
    9.0607  -17.2502   21.1229 O   0  0  0  0  0  0  0  0  0  0  0  0
   13.3685  -17.9373   19.3264 O   0  0  0  0  0  0  0  0  0  0  0  0
   13.2881  -17.5082   20.6575 C   0  0  0  0  0  0  0  0  0  0  0  0
   11.8348  -17.5745   21.1582 C   0  0  2  0  0  0  0  0  0  0  0  0
   11.0882  -16.7479   20.2306 N   0  0  0  0  0  0  0  0  0  0  0  0
   11.8548  -16.9695   22.5161 C   0  0  0  0  0  0  0  0  0  0  0  0
   11.5575  -15.7530   22.6735 O   0  0  0  0  0  0  0  0  0  0  0  0
   12.2017  -17.7147   23.6730 N   0  0  0  0  0  0  0  0  0  0  0  0
   12.0894  -17.1301   25.0311 C   0  0  1  0  0  0  0  0  0  0  0  0
   10.6467  -16.8847   25.2593 C   0  0  0  0  0  0  0  0  0  0  0  0
   10.2739  -16.6119   26.6612 C   0  0  0  0  0  0  0  0  0  0  0  0
    9.7436  -17.5669   27.5524 C   0  0  0  0  0  0  0  0  0  0  0  0
    9.4932  -16.9445   28.7114 N   0  0  0  0  0  0  0  0  0  0  0  0
    9.8200  -15.6562   28.6471 C   0  0  0  0  0  0  0  0  0  0  0  0
    9.7539  -14.6411   29.5970 C   0  0  0  0  0  0  0  0  0  0  0  0
   10.1925  -13.3992   29.2346 C   0  0  0  0  0  0  0  0  0  0  0  0
   10.6937  -13.1342   27.9615 C   0  0  0  0  0  0  0  0  0  0  0  0
   10.7407  -14.1634   27.0551 C   0  0  0  0  0  0  0  0  0  0  0  0
   10.3053  -15.4430   27.3777 C   0  0  0  0  0  0  0  0  0  0  0  0
   12.6897  -18.0119   26.0234 C   0  0  0  0  0  0  0  0  0  0  0  0
   13.1710  -17.6544   27.1166 O   0  0  0  0  0  0  0  0  0  0  0  0
   12.7463  -19.3852   25.7572 O   0  0  0  0  0  0  0  0  0  0  0  0
  2  1  1  6
  2  4  1  0
  3  2  1  0
  5  4  1  0
  5  7  1  0
  5  6  1  1
  7  8  2  0
  7 12  1  0
  9 10  1  0
 11 10  1  6
 11 13  1  0
 12 11  1  0
 13 15  1  0
 14 13  2  0
 15 16  1  0
 16 17  1  1
 16 27  1  0
 18 17  1  0
 19 18  2  0
 20 19  1  0
 21 20  1  0
 21 26  2  0
 22 23  2  0
 22 21  1  0
 23 24  1  0
 24 25  2  0
 26 25  1  0
 26 18  1  0
 27 28  2  0
 27 29  1  0
M  END
$$$$
