LSW.pdb
     RDKit          3D

 29 30  0  0  1  0  0  0  0  0999 V2000
    8.7438  -12.5695   18.0549 C   0  0  0  0  0  0  0  0  0  0  0  0
    7.7465  -13.6739   18.3414 C   0  0  2  0  0  0  0  0  0  0  0  0
    6.3829  -13.1602   18.0059 C   0  0  0  0  0  0  0  0  0  0  0  0
    7.9367  -14.1154   19.7476 C   0  0  0  0  0  0  0  0  0  0  0  0
    9.2964  -14.6854   20.0255 C   0  0  2  0  0  0  0  0  0  0  0  0
    9.7050  -15.3590   18.7794 N   0  0  0  0  0  0  0  0  0  0  0  0
    9.3293  -15.6920   21.0736 C   0  0  0  0  0  0  0  0  0  0  0  0
    8.5798  -15.4621   22.0903 O   0  0  0  0  0  0  0  0  0  0  0  0
   12.4746  -18.2748   21.7007 O   0  0  0  0  0  0  0  0  0  0  0  0
   11.1956  -18.8250   21.8559 C   0  0  0  0  0  0  0  0  0  0  0  0
   10.1903  -17.7406   22.2804 C   0  0  2  0  0  0  0  0  0  0  0  0
   10.0685  -16.8782   21.1218 N   0  0  0  0  0  0  0  0  0  0  0  0
   10.8335  -17.0249   23.4138 C   0  0  0  0  0  0  0  0  0  0  0  0
   11.5561  -16.0129   23.1974 O   0  0  0  0  0  0  0  0  0  0  0  0
   10.6692  -17.4371   24.7618 N   0  0  0  0  0  0  0  0  0  0  0  0
   10.4493  -16.4532   25.8493 C   0  0  1  0  0  0  0  0  0  0  0  0
    9.0530  -15.9806   25.7053 C   0  0  0  0  0  0  0  0  0  0  0  0
    8.6171  -15.0024   26.7210 C   0  0  0  0  0  0  0  0  0  0  0  0
    8.7130  -15.1935   28.1145 C   0  0  0  0  0  0  0  0  0  0  0  0
    8.1835  -14.1164   28.7085 N   0  0  0  0  0  0  0  0  0  0  0  0
    7.7498  -13.2351   27.8108 C   0  0  0  0  0  0  0  0  0  0  0  0
    7.1554  -11.9854   27.9601 C   0  0  0  0  0  0  0  0  0  0  0  0
    6.8353  -11.2923   26.8274 C   0  0  0  0  0  0  0  0  0  0  0  0
    7.0863  -11.7998   25.5539 C   0  0  0  0  0  0  0  0  0  0  0  0
    7.6732  -13.0360   25.4517 C   0  0  0  0  0  0  0  0  0  0  0  0
    8.0159  -13.7784   26.5755 C   0  0  0  0  0  0  0  0  0  0  0  0
   10.7261  -17.0507   27.1489 C   0  0  0  0  0  0  0  0  0  0  0  0
   11.1114  -16.4369   28.1635 O   0  0  0  0  0  0  0  0  0  0  0  0
   10.5541  -18.4312   27.3057 O   0  0  0  0  0  0  0  0  0  0  0  0
  2  1  1  1
  2  4  1  0
  3  2  1  0
  5  4  1  0
  5  7  1  0
  5  6  1  6
  7  8  2  0
  7 12  1  0
  9 10  1  0
 11 10  1  6
 11 13  1  0
 12 11  1  0
 13 15  1  0
 14 13  2  0
 15 16  1  0
 16 17  1  1
 16 27  1  0
 18 17  1  0
 19 18  2  0
 20 19  1  0
 21 20  1  0
 21 26  2  0
 22 23  2  0
 22 21  1  0
 23 24  1  0
 24 25  2  0
 26 25  1  0
 26 18  1  0
 27 28  2  0
 27 29  1  0
M  END
$$$$
