LSW.pdb
     RDKit          3D

 29 30  0  0  1  0  0  0  0  0999 V2000
    8.9307  -12.2341   19.3027 C   0  0  0  0  0  0  0  0  0  0  0  0
    7.9210  -13.3546   19.1571 C   0  0  2  0  0  0  0  0  0  0  0  0
    6.6315  -12.7543   18.6959 C   0  0  0  0  0  0  0  0  0  0  0  0
    7.8596  -14.0921   20.4458 C   0  0  0  0  0  0  0  0  0  0  0  0
    9.1889  -14.6074   20.9134 C   0  0  2  0  0  0  0  0  0  0  0  0
    9.7205  -15.4043   19.7928 N   0  0  0  0  0  0  0  0  0  0  0  0
    9.1249  -15.4949   22.0628 C   0  0  0  0  0  0  0  0  0  0  0  0
    8.1933  -15.2433   22.9095 O   0  0  0  0  0  0  0  0  0  0  0  0
   12.1301  -17.9952   22.9840 O   0  0  0  0  0  0  0  0  0  0  0  0
   10.8877  -18.5053   23.3825 C   0  0  0  0  0  0  0  0  0  0  0  0
    9.8782  -17.3632   23.5913 C   0  0  2  0  0  0  0  0  0  0  0  0
    9.9431  -16.5870   22.3689 N   0  0  0  0  0  0  0  0  0  0  0  0
   10.3942  -16.5836   24.7472 C   0  0  0  0  0  0  0  0  0  0  0  0
   11.3326  -15.7550   24.5859 O   0  0  0  0  0  0  0  0  0  0  0  0
    9.8681  -16.7314   26.0569 N   0  0  0  0  0  0  0  0  0  0  0  0
   10.6235  -16.2765   27.2491 C   0  0  1  0  0  0  0  0  0  0  0  0
    9.8524  -15.1503   27.8241 C   0  0  0  0  0  0  0  0  0  0  0  0
    8.4975  -14.9721   27.2663 C   0  0  0  0  0  0  0  0  0  0  0  0
    7.6160  -16.0241   26.9442 C   0  0  0  0  0  0  0  0  0  0  0  0
    6.5067  -15.4796   26.4282 N   0  0  0  0  0  0  0  0  0  0  0  0
    6.5943  -14.1524   26.3893 C   0  0  0  0  0  0  0  0  0  0  0  0
    5.6934  -13.1825   25.9594 C   0  0  0  0  0  0  0  0  0  0  0  0
    6.0670  -11.8730   26.0669 C   0  0  0  0  0  0  0  0  0  0  0  0
    7.3041  -11.4970   26.5868 C   0  0  0  0  0  0  0  0  0  0  0  0
    8.1628  -12.4852   26.9985 C   0  0  0  0  0  0  0  0  0  0  0  0
    7.8271  -13.8307   26.9080 C   0  0  0  0  0  0  0  0  0  0  0  0
   10.8238  -17.3764   28.1834 C   0  0  0  0  0  0  0  0  0  0  0  0
   11.4953  -17.3252   29.2327 O   0  0  0  0  0  0  0  0  0  0  0  0
   10.2236  -18.6110   27.9085 O   0  0  0  0  0  0  0  0  0  0  0  0
  2  1  1  1
  2  4  1  0
  3  2  1  0
  5  4  1  0
  5  7  1  0
  5  6  1  6
  7  8  2  0
  7 12  1  0
  9 10  1  0
 11 10  1  6
 11 13  1  0
 12 11  1  0
 13 15  1  0
 14 13  2  0
 15 16  1  0
 16 17  1  1
 16 27  1  0
 18 17  1  0
 19 18  2  0
 20 19  1  0
 21 20  1  0
 21 26  2  0
 22 23  2  0
 22 21  1  0
 23 24  1  0
 24 25  2  0
 26 25  1  0
 26 18  1  0
 27 28  2  0
 27 29  1  0
M  END
$$$$
