LSW.pdb
     RDKit          3D

 29 30  0  0  1  0  0  0  0  0999 V2000
    6.8189  -12.5652   20.8649 C   0  0  0  0  0  0  0  0  0  0  0  0
    7.9546  -13.5502   20.6745 C   0  0  2  0  0  0  0  0  0  0  0  0
    9.0496  -12.8516   19.9336 C   0  0  0  0  0  0  0  0  0  0  0  0
    7.4080  -14.7644   20.0146 C   0  0  0  0  0  0  0  0  0  0  0  0
    8.3872  -15.8975   19.9231 C   0  0  2  0  0  0  0  0  0  0  0  0
    7.7160  -16.9363   19.1208 N   0  0  0  0  0  0  0  0  0  0  0  0
    8.7272  -16.5094   21.1971 C   0  0  0  0  0  0  0  0  0  0  0  0
    7.7354  -16.9303   21.8951 O   0  0  0  0  0  0  0  0  0  0  0  0
   12.5459  -16.9069   22.3990 O   0  0  0  0  0  0  0  0  0  0  0  0
   11.7175  -17.9779   22.7584 C   0  0  0  0  0  0  0  0  0  0  0  0
   10.2669  -17.4992   22.9417 C   0  0  2  0  0  0  0  0  0  0  0  0
    9.9914  -16.7012   21.7635 N   0  0  0  0  0  0  0  0  0  0  0  0
   10.2788  -16.6568   24.1667 C   0  0  0  0  0  0  0  0  0  0  0  0
   10.7035  -15.4693   24.1164 O   0  0  0  0  0  0  0  0  0  0  0  0
    9.8236  -17.1377   25.4219 N   0  0  0  0  0  0  0  0  0  0  0  0
   10.1317  -16.4198   26.6824 C   0  0  1  0  0  0  0  0  0  0  0  0
    8.8534  -16.3143   27.4229 C   0  0  0  0  0  0  0  0  0  0  0  0
    7.7816  -15.5846   26.7176 C   0  0  0  0  0  0  0  0  0  0  0  0
    6.7682  -16.1911   25.9477 C   0  0  0  0  0  0  0  0  0  0  0  0
    6.0101  -15.2140   25.4338 N   0  0  0  0  0  0  0  0  0  0  0  0
    6.4491  -14.0153   25.8093 C   0  0  0  0  0  0  0  0  0  0  0  0
    5.9745  -12.7350   25.5396 C   0  0  0  0  0  0  0  0  0  0  0  0
    6.6374  -11.6787   26.0969 C   0  0  0  0  0  0  0  0  0  0  0  0
    7.7543  -11.8532   26.9120 C   0  0  0  0  0  0  0  0  0  0  0  0
    8.1895  -13.1324   27.1518 C   0  0  0  0  0  0  0  0  0  0  0  0
    7.5480  -14.2379   26.6063 C   0  0  0  0  0  0  0  0  0  0  0  0
   11.1759  -17.1107   27.4273 C   0  0  0  0  0  0  0  0  0  0  0  0
   11.6798  -16.7242   28.5002 O   0  0  0  0  0  0  0  0  0  0  0  0
   11.6785  -18.3158   26.9220 O   0  0  0  0  0  0  0  0  0  0  0  0
  2  1  1  6
  2  4  1  0
  3  2  1  0
  5  4  1  0
  5  7  1  0
  5  6  1  6
  7  8  2  0
  7 12  1  0
  9 10  1  0
 11 10  1  6
 11 13  1  0
 12 11  1  0
 13 15  1  0
 14 13  2  0
 15 16  1  0
 16 17  1  1
 16 27  1  0
 18 17  1  0
 19 18  2  0
 20 19  1  0
 21 20  1  0
 21 26  2  0
 22 23  2  0
 22 21  1  0
 23 24  1  0
 24 25  2  0
 26 25  1  0
 26 18  1  0
 27 28  2  0
 27 29  1  0
M  END
$$$$
