LSW.pdb
     RDKit          3D

 29 30  0  0  1  0  0  0  0  0999 V2000
    9.0745  -12.3331   19.3019 C   0  0  0  0  0  0  0  0  0  0  0  0
    7.9042  -13.2729   19.0931 C   0  0  2  0  0  0  0  0  0  0  0  0
    6.6875  -12.4420   18.8375 C   0  0  0  0  0  0  0  0  0  0  0  0
    7.8250  -14.1808   20.2669 C   0  0  0  0  0  0  0  0  0  0  0  0
    9.0718  -14.9828   20.4982 C   0  0  2  0  0  0  0  0  0  0  0  0
    9.2668  -15.7737   19.2695 N   0  0  0  0  0  0  0  0  0  0  0  0
    8.9872  -15.9318   21.5960 C   0  0  0  0  0  0  0  0  0  0  0  0
    7.9006  -15.8982   22.2788 O   0  0  0  0  0  0  0  0  0  0  0  0
   12.1131  -18.2198   22.6628 O   0  0  0  0  0  0  0  0  0  0  0  0
   10.8841  -18.8219   22.9620 C   0  0  0  0  0  0  0  0  0  0  0  0
    9.7932  -17.7540   23.1530 C   0  0  2  0  0  0  0  0  0  0  0  0
    9.9321  -16.8773   22.0072 N   0  0  0  0  0  0  0  0  0  0  0  0
   10.1460  -17.0471   24.4124 C   0  0  0  0  0  0  0  0  0  0  0  0
   11.0165  -16.1331   24.4050 O   0  0  0  0  0  0  0  0  0  0  0  0
    9.5345  -17.3600   25.6543 N   0  0  0  0  0  0  0  0  0  0  0  0
   10.0122  -16.7604   26.9237 C   0  0  1  0  0  0  0  0  0  0  0  0
    8.7999  -16.3852   27.6874 C   0  0  0  0  0  0  0  0  0  0  0  0
    7.7884  -15.6306   26.9217 C   0  0  0  0  0  0  0  0  0  0  0  0
    6.7021  -16.2106   26.2354 C   0  0  0  0  0  0  0  0  0  0  0  0
    6.0316  -15.2225   25.6293 N   0  0  0  0  0  0  0  0  0  0  0  0
    6.5951  -14.0408   25.8673 C   0  0  0  0  0  0  0  0  0  0  0  0
    6.2422  -12.7553   25.4673 C   0  0  0  0  0  0  0  0  0  0  0  0
    7.0190  -11.7176   25.8985 C   0  0  0  0  0  0  0  0  0  0  0  0
    8.1326  -11.9158   26.7126 C   0  0  0  0  0  0  0  0  0  0  0  0
    8.4456  -13.1995   27.0833 C   0  0  0  0  0  0  0  0  0  0  0  0
    7.6857  -14.2867   26.6688 C   0  0  0  0  0  0  0  0  0  0  0  0
   10.8808  -17.6873   27.6371 C   0  0  0  0  0  0  0  0  0  0  0  0
   11.0940  -18.8739   27.3194 O   0  0  0  0  0  0  0  0  0  0  0  0
   11.5489  -17.2380   28.7825 O   0  0  0  0  0  0  0  0  0  0  0  0
  2  1  1  1
  2  4  1  0
  3  2  1  0
  5  4  1  0
  5  7  1  0
  5  6  1  6
  7  8  2  0
  7 12  1  0
  9 10  1  0
 11 10  1  6
 11 13  1  0
 12 11  1  0
 13 15  1  0
 14 13  2  0
 15 16  1  0
 16 17  1  1
 16 27  1  0
 18 17  1  0
 19 18  2  0
 20 19  1  0
 21 20  1  0
 21 26  2  0
 22 23  2  0
 22 21  1  0
 23 24  1  0
 24 25  2  0
 26 25  1  0
 26 18  1  0
 27 28  2  0
 27 29  1  0
M  END
$$$$
