LSW.pdb
     RDKit          3D

 29 30  0  0  1  0  0  0  0  0999 V2000
    9.3008  -12.4417   18.6418 C   0  0  0  0  0  0  0  0  0  0  0  0
    7.9553  -13.1385   18.6650 C   0  0  2  0  0  0  0  0  0  0  0  0
    6.8980  -12.1034   18.4490 C   0  0  0  0  0  0  0  0  0  0  0  0
    7.8527  -13.9038   19.9348 C   0  0  0  0  0  0  0  0  0  0  0  0
    8.9130  -14.9528   20.0978 C   0  0  2  0  0  0  0  0  0  0  0  0
    8.7604  -15.8525   18.9400 N   0  0  0  0  0  0  0  0  0  0  0  0
    8.7732  -15.7765   21.2873 C   0  0  0  0  0  0  0  0  0  0  0  0
    8.1579  -15.2311   22.2732 O   0  0  0  0  0  0  0  0  0  0  0  0
   10.9683  -19.0669   21.9992 O   0  0  0  0  0  0  0  0  0  0  0  0
    9.6409  -19.2244   22.4186 C   0  0  0  0  0  0  0  0  0  0  0  0
    9.0014  -17.8555   22.7084 C   0  0  2  0  0  0  0  0  0  0  0  0
    9.2194  -17.0846   21.5005 N   0  0  0  0  0  0  0  0  0  0  0  0
    9.7710  -17.2913   23.8485 C   0  0  0  0  0  0  0  0  0  0  0  0
   10.8814  -16.7260   23.6469 O   0  0  0  0  0  0  0  0  0  0  0  0
    9.3039  -17.3606   25.1867 N   0  0  0  0  0  0  0  0  0  0  0  0
   10.1645  -16.9630   26.3271 C   0  0  1  0  0  0  0  0  0  0  0  0
    9.9138  -15.5209   26.5532 C   0  0  0  0  0  0  0  0  0  0  0  0
    8.5184  -15.0890   26.3406 C   0  0  0  0  0  0  0  0  0  0  0  0
    7.4604  -15.9430   25.9683 C   0  0  0  0  0  0  0  0  0  0  0  0
    6.3613  -15.1903   25.8310 N   0  0  0  0  0  0  0  0  0  0  0  0
    6.6189  -13.9100   26.0861 C   0  0  0  0  0  0  0  0  0  0  0  0
    5.7955  -12.7878   26.0875 C   0  0  0  0  0  0  0  0  0  0  0  0
    6.3553  -11.5868   26.4194 C   0  0  0  0  0  0  0  0  0  0  0  0
    7.7038  -11.4653   26.7494 C   0  0  0  0  0  0  0  0  0  0  0  0
    8.4803  -12.5967   26.7350 C   0  0  0  0  0  0  0  0  0  0  0  0
    7.9555  -13.8400   26.4031 C   0  0  0  0  0  0  0  0  0  0  0  0
    9.8862  -17.7881   27.4953 C   0  0  0  0  0  0  0  0  0  0  0  0
    8.9896  -18.6505   27.5787 O   0  0  0  0  0  0  0  0  0  0  0  0
   10.6758  -17.6232   28.6396 O   0  0  0  0  0  0  0  0  0  0  0  0
  2  1  1  1
  2  4  1  0
  3  2  1  0
  5  4  1  0
  5  7  1  0
  5  6  1  6
  7  8  2  0
  7 12  1  0
  9 10  1  0
 11 10  1  6
 11 13  1  0
 12 11  1  0
 13 15  1  0
 14 13  2  0
 15 16  1  0
 16 17  1  1
 16 27  1  0
 18 17  1  0
 19 18  2  0
 20 19  1  0
 21 20  1  0
 21 26  2  0
 22 23  2  0
 22 21  1  0
 23 24  1  0
 24 25  2  0
 26 25  1  0
 26 18  1  0
 27 28  2  0
 27 29  1  0
M  END
$$$$
