LSW.pdb
     RDKit          3D

 29 30  0  0  1  0  0  0  0  0999 V2000
    9.4407  -13.0775   18.6857 C   0  0  0  0  0  0  0  0  0  0  0  0
    8.0417  -13.3218   19.2144 C   0  0  2  0  0  0  0  0  0  0  0  0
    7.4001  -11.9916   19.4485 C   0  0  0  0  0  0  0  0  0  0  0  0
    8.1453  -14.2019   20.4074 C   0  0  0  0  0  0  0  0  0  0  0  0
    8.8323  -15.5084   20.1390 C   0  0  2  0  0  0  0  0  0  0  0  0
    7.9257  -16.2565   19.2492 N   0  0  0  0  0  0  0  0  0  0  0  0
    9.0397  -16.3372   21.3151 C   0  0  0  0  0  0  0  0  0  0  0  0
    7.9743  -16.7502   21.9003 O   0  0  0  0  0  0  0  0  0  0  0  0
   12.7009  -17.2753   22.5223 O   0  0  0  0  0  0  0  0  0  0  0  0
   11.7640  -18.2315   22.9354 C   0  0  0  0  0  0  0  0  0  0  0  0
   10.3671  -17.5988   23.0589 C   0  0  2  0  0  0  0  0  0  0  0  0
   10.2457  -16.7449   21.8939 N   0  0  0  0  0  0  0  0  0  0  0  0
   10.4046  -16.7948   24.3089 C   0  0  0  0  0  0  0  0  0  0  0  0
   10.9080  -15.6373   24.3043 O   0  0  0  0  0  0  0  0  0  0  0  0
    9.8880  -17.2802   25.5383 N   0  0  0  0  0  0  0  0  0  0  0  0
   10.0933  -16.5421   26.8080 C   0  0  1  0  0  0  0  0  0  0  0  0
    8.7677  -16.4695   27.4647 C   0  0  0  0  0  0  0  0  0  0  0  0
    7.7411  -15.7170   26.7172 C   0  0  0  0  0  0  0  0  0  0  0  0
    6.6473  -16.2998   26.0452 C   0  0  0  0  0  0  0  0  0  0  0  0
    5.9630  -15.3127   25.4530 N   0  0  0  0  0  0  0  0  0  0  0  0
    6.5244  -14.1291   25.6869 C   0  0  0  0  0  0  0  0  0  0  0  0
    6.1593  -12.8438   25.2972 C   0  0  0  0  0  0  0  0  0  0  0  0
    6.9375  -11.8040   25.7204 C   0  0  0  0  0  0  0  0  0  0  0  0
    8.0642  -11.9998   26.5169 C   0  0  0  0  0  0  0  0  0  0  0  0
    8.3890  -13.2833   26.8780 C   0  0  0  0  0  0  0  0  0  0  0  0
    7.6281  -14.3727   26.4710 C   0  0  0  0  0  0  0  0  0  0  0  0
   11.1081  -17.1939   27.6252 C   0  0  0  0  0  0  0  0  0  0  0  0
   11.5624  -16.7602   28.7023 O   0  0  0  0  0  0  0  0  0  0  0  0
   11.6396  -18.4145   27.1920 O   0  0  0  0  0  0  0  0  0  0  0  0
  2  1  1  1
  2  4  1  0
  3  2  1  0
  5  4  1  0
  5  7  1  0
  5  6  1  6
  7  8  2  0
  7 12  1  0
  9 10  1  0
 11 10  1  6
 11 13  1  0
 12 11  1  0
 13 15  1  0
 14 13  2  0
 15 16  1  0
 16 17  1  1
 16 27  1  0
 18 17  1  0
 19 18  2  0
 20 19  1  0
 21 20  1  0
 21 26  2  0
 22 23  2  0
 22 21  1  0
 23 24  1  0
 24 25  2  0
 26 25  1  0
 26 18  1  0
 27 28  2  0
 27 29  1  0
M  END
$$$$
