LSW.pdb
     RDKit          3D

 29 30  0  0  1  0  0  0  0  0999 V2000
    8.8879  -12.8186   19.0591 C   0  0  0  0  0  0  0  0  0  0  0  0
    7.5527  -13.3095   19.5811 C   0  0  2  0  0  0  0  0  0  0  0  0
    6.7013  -12.1129   19.8628 C   0  0  0  0  0  0  0  0  0  0  0  0
    7.8094  -14.2007   20.7422 C   0  0  0  0  0  0  0  0  0  0  0  0
    8.6315  -15.4104   20.4078 C   0  0  2  0  0  0  0  0  0  0  0  0
    7.7656  -16.2568   19.5669 N   0  0  0  0  0  0  0  0  0  0  0  0
    9.0169  -16.2173   21.5539 C   0  0  0  0  0  0  0  0  0  0  0  0
    8.0623  -16.8447   22.1397 O   0  0  0  0  0  0  0  0  0  0  0  0
   12.6547  -17.6367   22.2799 O   0  0  0  0  0  0  0  0  0  0  0  0
   11.5788  -18.1714   23.0005 C   0  0  0  0  0  0  0  0  0  0  0  0
   10.5692  -17.0675   23.3599 C   0  0  2  0  0  0  0  0  0  0  0  0
   10.2897  -16.4014   22.1033 N   0  0  0  0  0  0  0  0  0  0  0  0
   11.2870  -16.1627   24.2961 C   0  0  0  0  0  0  0  0  0  0  0  0
   12.5419  -16.0452   24.2285 O   0  0  0  0  0  0  0  0  0  0  0  0
   10.6101  -15.4060   25.2876 N   0  0  0  0  0  0  0  0  0  0  0  0
    9.9341  -16.0621   26.4329 C   0  0  1  0  0  0  0  0  0  0  0  0
    8.6465  -16.5785   25.9144 C   0  0  0  0  0  0  0  0  0  0  0  0
    7.5610  -15.5815   25.8336 C   0  0  0  0  0  0  0  0  0  0  0  0
    6.2283  -15.8712   25.4768 C   0  0  0  0  0  0  0  0  0  0  0  0
    5.5497  -14.7167   25.4731 N   0  0  0  0  0  0  0  0  0  0  0  0
    6.3358  -13.6945   25.8012 C   0  0  0  0  0  0  0  0  0  0  0  0
    6.0685  -12.3359   25.9426 C   0  0  0  0  0  0  0  0  0  0  0  0
    7.0967  -11.5196   26.3199 C   0  0  0  0  0  0  0  0  0  0  0  0
    8.3793  -12.0089   26.5608 C   0  0  0  0  0  0  0  0  0  0  0  0
    8.5998  -13.3548   26.4092 C   0  0  0  0  0  0  0  0  0  0  0  0
    7.5852  -14.2240   26.0264 C   0  0  0  0  0  0  0  0  0  0  0  0
   10.7825  -17.0975   27.0082 C   0  0  0  0  0  0  0  0  0  0  0  0
   11.1376  -17.1658   28.2014 O   0  0  0  0  0  0  0  0  0  0  0  0
   11.2566  -18.1187   26.1761 O   0  0  0  0  0  0  0  0  0  0  0  0
  2  1  1  1
  2  4  1  0
  3  2  1  0
  5  4  1  0
  5  7  1  0
  5  6  1  6
  7  8  2  0
  7 12  1  0
  9 10  1  0
 11 10  1  6
 11 13  1  0
 12 11  1  0
 13 15  1  0
 14 13  2  0
 15 16  1  0
 16 17  1  6
 16 27  1  0
 18 17  1  0
 19 18  2  0
 20 19  1  0
 21 20  1  0
 21 26  2  0
 22 23  2  0
 22 21  1  0
 23 24  1  0
 24 25  2  0
 26 25  1  0
 26 18  1  0
 27 28  2  0
 27 29  1  0
M  END
$$$$
