FID.pdb
     RDKit          3D

 28 28  0  0  1  0  0  0  0  0999 V2000
    5.4723  -17.6066   25.1283 N   0  0  0  0  0  0  0  0  0  0  0  0
    6.1477  -16.3342   25.0262 C   0  0  1  0  0  0  0  0  0  0  0  0
    6.8728  -16.0336   26.3337 C   0  0  0  0  0  0  0  0  0  0  0  0
    7.1769  -14.5993   26.4902 C   0  0  0  0  0  0  0  0  0  0  0  0
    6.1136  -13.7285   26.5811 C   0  0  0  0  0  0  0  0  0  0  0  0
    6.3459  -12.3713   26.7289 C   0  0  0  0  0  0  0  0  0  0  0  0
    7.6497  -11.9142   26.7826 C   0  0  0  0  0  0  0  0  0  0  0  0
    8.7071  -12.7880   26.6913 C   0  0  0  0  0  0  0  0  0  0  0  0
    8.4765  -14.1281   26.5453 C   0  0  0  0  0  0  0  0  0  0  0  0
    7.1992  -16.4397   23.9841 C   0  0  0  0  0  0  0  0  0  0  0  0
    7.7349  -17.5641   23.8104 O   0  0  0  0  0  0  0  0  0  0  0  0
    7.2299  -12.3811   20.3527 C   0  0  0  0  0  0  0  0  0  0  0  0
    7.2156  -13.7517   20.9383 C   0  0  0  0  0  0  0  0  0  0  0  0
    8.6100  -14.2713   21.2654 C   0  0  2  0  0  0  0  0  0  0  0  0
    9.3524  -14.4367   19.9845 C   0  0  0  0  0  0  0  0  0  0  0  0
    8.4343  -15.5978   21.9837 C   0  0  2  0  0  0  0  0  0  0  0  0
    7.6149  -15.3512   23.1949 N   0  0  0  0  0  0  0  0  0  0  0  0
    9.6931  -16.2458   22.3774 C   0  0  0  0  0  0  0  0  0  0  0  0
   10.1273  -17.2069   21.6936 O   0  0  0  0  0  0  0  0  0  0  0  0
   10.4253  -15.8174   23.4948 N   0  0  0  0  0  0  0  0  0  0  0  0
   11.7087  -16.4590   23.7955 C   0  0  1  0  0  0  0  0  0  0  0  0
   12.7908  -15.4086   23.7329 C   0  0  0  0  0  0  0  0  0  0  0  0
   13.8110  -15.6599   22.6972 C   0  0  0  0  0  0  0  0  0  0  0  0
   13.7441  -16.6361   21.9390 O   0  0  0  0  0  0  0  0  0  0  0  0
   11.6564  -17.0774   25.1321 C   0  0  0  0  0  0  0  0  0  0  0  0
   12.5910  -17.9919   25.5379 O   0  0  0  0  0  0  0  0  0  0  0  0
   14.8804  -14.7828   22.5610 O   0  0  0  0  0  0  0  0  0  0  0  0
   10.7392  -16.7639   25.9176 O   0  0  0  0  0  0  0  0  0  0  0  0
  2  1  1  1
  3  2  1  0
  4  3  1  0
  5  4  2  0
  6  5  1  0
  7  6  2  0
  7  8  1  0
  8  9  2  0
  9  4  1  0
 10 11  2  0
 10  2  1  0
 12 13  1  0
 13 14  1  0
 14 16  1  0
 14 15  1  6
 16 18  1  0
 16 17  1  1
 17 10  1  0
 18 20  1  0
 19 18  2  0
 20 21  1  0
 21 22  1  1
 21 25  1  0
 22 23  1  0
 23 27  1  0
 23 24  2  0
 25 28  2  0
 25 26  1  0
M  END
$$$$
