FID.pdb
     RDKit          3D

 28 28  0  0  1  0  0  0  0  0999 V2000
    7.1170  -19.0804   27.2894 N   0  0  0  0  0  0  0  0  0  0  0  0
    7.6761  -17.7731   27.5423 C   0  0  1  0  0  0  0  0  0  0  0  0
    9.0171  -17.9190   28.2535 C   0  0  0  0  0  0  0  0  0  0  0  0
    9.5931  -16.6175   28.6386 C   0  0  0  0  0  0  0  0  0  0  0  0
   10.8300  -16.6222   29.2448 C   0  0  0  0  0  0  0  0  0  0  0  0
   11.4145  -15.4260   29.6258 C   0  0  0  0  0  0  0  0  0  0  0  0
   10.7402  -14.2425   29.3884 C   0  0  0  0  0  0  0  0  0  0  0  0
    9.5059  -14.2439   28.7830 C   0  0  0  0  0  0  0  0  0  0  0  0
    8.9296  -15.4258   28.4072 C   0  0  0  0  0  0  0  0  0  0  0  0
    7.9664  -17.1233   26.2399 C   0  0  0  0  0  0  0  0  0  0  0  0
    8.2420  -17.8701   25.2662 O   0  0  0  0  0  0  0  0  0  0  0  0
    6.2131  -12.2450   26.0300 C   0  0  0  0  0  0  0  0  0  0  0  0
    6.4130  -13.5204   25.2850 C   0  0  0  0  0  0  0  0  0  0  0  0
    7.8330  -13.6822   24.7569 C   0  0  2  0  0  0  0  0  0  0  0  0
    7.8984  -13.0499   23.4096 C   0  0  0  0  0  0  0  0  0  0  0  0
    8.1158  -15.1727   24.6880 C   0  0  2  0  0  0  0  0  0  0  0  0
    7.9464  -15.7288   26.0522 N   0  0  0  0  0  0  0  0  0  0  0  0
    9.4565  -15.5134   24.1919 C   0  0  0  0  0  0  0  0  0  0  0  0
   10.4606  -14.9714   24.7190 O   0  0  0  0  0  0  0  0  0  0  0  0
    9.6455  -16.4309   23.1476 N   0  0  0  0  0  0  0  0  0  0  0  0
   11.0018  -16.6710   22.6457 C   0  0  1  0  0  0  0  0  0  0  0  0
   11.1509  -18.1472   22.3683 C   0  0  0  0  0  0  0  0  0  0  0  0
   11.4248  -18.9582   23.5700 C   0  0  0  0  0  0  0  0  0  0  0  0
   11.6297  -18.4388   24.6748 O   0  0  0  0  0  0  0  0  0  0  0  0
   11.2275  -15.8830   21.4210 C   0  0  0  0  0  0  0  0  0  0  0  0
   12.4888  -15.5722   20.9886 O   0  0  0  0  0  0  0  0  0  0  0  0
   11.4557  -20.3440   23.4695 O   0  0  0  0  0  0  0  0  0  0  0  0
   10.2481  -15.4862   20.7578 O   0  0  0  0  0  0  0  0  0  0  0  0
  2  1  1  6
  3  2  1  0
  4  3  1  0
  5  4  2  0
  6  5  1  0
  7  6  2  0
  7  8  1  0
  8  9  2  0
  9  4  1  0
 10 11  2  0
 10  2  1  0
 12 13  1  0
 13 14  1  0
 14 16  1  0
 14 15  1  6
 16 18  1  0
 16 17  1  1
 17 10  1  0
 18 20  1  0
 19 18  2  0
 20 21  1  0
 21 22  1  6
 21 25  1  0
 22 23  1  0
 23 27  1  0
 23 24  2  0
 25 28  2  0
 25 26  1  0
M  END
$$$$
