FID.pdb
     RDKit          3D

 28 28  0  0  1  0  0  0  0  0999 V2000
    7.6809  -15.6347   20.5081 N   0  0  0  0  0  0  0  0  0  0  0  0
    6.9663  -15.9213   21.7298 C   0  0  1  0  0  0  0  0  0  0  0  0
    6.7712  -17.4275   21.8670 C   0  0  0  0  0  0  0  0  0  0  0  0
    5.8080  -17.9607   20.8862 C   0  0  0  0  0  0  0  0  0  0  0  0
    6.2130  -19.0222   20.1073 C   0  0  0  0  0  0  0  0  0  0  0  0
    5.3456  -19.5594   19.1711 C   0  0  0  0  0  0  0  0  0  0  0  0
    4.0815  -19.0160   19.0358 C   0  0  0  0  0  0  0  0  0  0  0  0
    3.6827  -17.9566   19.8159 C   0  0  0  0  0  0  0  0  0  0  0  0
    4.5401  -17.4267   20.7403 C   0  0  0  0  0  0  0  0  0  0  0  0
    7.8091  -15.5063   22.8787 C   0  0  0  0  0  0  0  0  0  0  0  0
    9.0529  -15.4569   22.6996 O   0  0  0  0  0  0  0  0  0  0  0  0
    6.1924  -11.6014   26.0050 C   0  0  0  0  0  0  0  0  0  0  0  0
    7.1064  -12.5444   25.3002 C   0  0  0  0  0  0  0  0  0  0  0  0
    7.4289  -13.7849   26.1242 C   0  0  2  0  0  0  0  0  0  0  0  0
    8.2460  -13.3604   27.2953 C   0  0  0  0  0  0  0  0  0  0  0  0
    8.1986  -14.7324   25.2208 C   0  0  2  0  0  0  0  0  0  0  0  0
    7.2828  -15.1711   24.1401 N   0  0  0  0  0  0  0  0  0  0  0  0
    8.7399  -15.9157   25.9035 C   0  0  0  0  0  0  0  0  0  0  0  0
    7.9700  -16.6302   26.5939 O   0  0  0  0  0  0  0  0  0  0  0  0
   10.0931  -16.2715   25.8019 N   0  0  0  0  0  0  0  0  0  0  0  0
   10.5679  -17.4756   26.4902 C   0  0  1  0  0  0  0  0  0  0  0  0
   11.8654  -17.9073   25.8512 C   0  0  0  0  0  0  0  0  0  0  0  0
   12.5492  -19.0032   26.5641 C   0  0  0  0  0  0  0  0  0  0  0  0
   11.9194  -19.8891   27.1564 O   0  0  0  0  0  0  0  0  0  0  0  0
   10.7602  -17.1884   27.9228 C   0  0  0  0  0  0  0  0  0  0  0  0
   10.4437  -18.1059   28.8885 O   0  0  0  0  0  0  0  0  0  0  0  0
   13.9381  -19.0513   26.5770 O   0  0  0  0  0  0  0  0  0  0  0  0
   11.2223  -16.0829   28.2701 O   0  0  0  0  0  0  0  0  0  0  0  0
  2  1  1  6
  3  2  1  0
  4  3  1  0
  5  4  2  0
  6  5  1  0
  7  6  2  0
  7  8  1  0
  8  9  2  0
  9  4  1  0
 10 11  2  0
 10  2  1  0
 12 13  1  0
 13 14  1  0
 14 16  1  0
 14 15  1  1
 16 18  1  0
 16 17  1  6
 17 10  1  0
 18 20  1  0
 19 18  2  0
 20 21  1  0
 21 22  1  6
 21 25  1  0
 22 23  1  0
 23 27  1  0
 23 24  2  0
 25 28  2  0
 25 26  1  0
M  END
$$$$
