FID.pdb
     RDKit          3D

 28 28  0  0  1  0  0  0  0  0999 V2000
    6.4965  -17.4004   25.7415 N   0  0  0  0  0  0  0  0  0  0  0  0
    6.8071  -16.1198   25.1508 C   0  0  1  0  0  0  0  0  0  0  0  0
    7.8449  -15.4003   26.0057 C   0  0  0  0  0  0  0  0  0  0  0  0
    7.3723  -14.0845   26.4739 C   0  0  0  0  0  0  0  0  0  0  0  0
    6.7197  -13.2812   25.5649 C   0  0  0  0  0  0  0  0  0  0  0  0
    6.2563  -12.0359   25.9548 C   0  0  0  0  0  0  0  0  0  0  0  0
    6.4591  -11.6207   27.2579 C   0  0  0  0  0  0  0  0  0  0  0  0
    7.1111  -12.4266   28.1609 C   0  0  0  0  0  0  0  0  0  0  0  0
    7.5685  -13.6563   27.7747 C   0  0  0  0  0  0  0  0  0  0  0  0
    7.4455  -16.3505   23.8310 C   0  0  0  0  0  0  0  0  0  0  0  0
    7.6652  -17.5414   23.4917 O   0  0  0  0  0  0  0  0  0  0  0  0
    6.9856  -12.3243   20.2847 C   0  0  0  0  0  0  0  0  0  0  0  0
    7.0086  -13.6988   20.8608 C   0  0  0  0  0  0  0  0  0  0  0  0
    8.3906  -14.3387   20.8127 C   0  0  2  0  0  0  0  0  0  0  0  0
    8.7340  -14.5866   19.3844 C   0  0  0  0  0  0  0  0  0  0  0  0
    8.3092  -15.6348   21.6000 C   0  0  2  0  0  0  0  0  0  0  0  0
    7.8092  -15.3089   22.9575 N   0  0  0  0  0  0  0  0  0  0  0  0
    9.5850  -16.3548   21.7165 C   0  0  0  0  0  0  0  0  0  0  0  0
    9.9047  -17.1825   20.8263 O   0  0  0  0  0  0  0  0  0  0  0  0
   10.4576  -16.1398   22.7938 N   0  0  0  0  0  0  0  0  0  0  0  0
   11.8068  -16.7111   22.7439 C   0  0  1  0  0  0  0  0  0  0  0  0
   12.8035  -15.5780   22.7744 C   0  0  0  0  0  0  0  0  0  0  0  0
   14.2117  -16.0175   22.7472 C   0  0  0  0  0  0  0  0  0  0  0  0
   14.7228  -16.5068   21.7315 O   0  0  0  0  0  0  0  0  0  0  0  0
   12.0081  -17.6161   23.8894 C   0  0  0  0  0  0  0  0  0  0  0  0
   13.0821  -18.4626   23.9564 O   0  0  0  0  0  0  0  0  0  0  0  0
   14.9941  -15.8828   23.8878 O   0  0  0  0  0  0  0  0  0  0  0  0
   11.1821  -17.6154   24.8244 O   0  0  0  0  0  0  0  0  0  0  0  0
  2  1  1  1
  3  2  1  0
  4  3  1  0
  5  4  2  0
  6  5  1  0
  7  6  2  0
  7  8  1  0
  8  9  2  0
  9  4  1  0
 10 11  2  0
 10  2  1  0
 12 13  1  0
 13 14  1  0
 14 16  1  0
 14 15  1  6
 16 18  1  0
 16 17  1  1
 17 10  1  0
 18 20  1  0
 19 18  2  0
 20 21  1  0
 21 22  1  1
 21 25  1  0
 22 23  1  0
 23 27  1  0
 23 24  2  0
 25 28  2  0
 25 26  1  0
M  END
$$$$
