FID.pdb
     RDKit          3D

 28 28  0  0  1  0  0  0  0  0999 V2000
   10.1214  -14.1058   21.0568 N   0  0  0  0  0  0  0  0  0  0  0  0
    8.8477  -14.2004   21.7306 C   0  0  1  0  0  0  0  0  0  0  0  0
    7.9592  -15.2061   21.0062 C   0  0  0  0  0  0  0  0  0  0  0  0
    7.3948  -14.6600   19.7582 C   0  0  0  0  0  0  0  0  0  0  0  0
    8.2068  -14.6424   18.6457 C   0  0  0  0  0  0  0  0  0  0  0  0
    7.7242  -14.1396   17.4491 C   0  0  0  0  0  0  0  0  0  0  0  0
    6.4279  -13.6619   17.3944 C   0  0  0  0  0  0  0  0  0  0  0  0
    5.6220  -13.6819   18.5080 C   0  0  0  0  0  0  0  0  0  0  0  0
    6.0996  -14.1787   19.6893 C   0  0  0  0  0  0  0  0  0  0  0  0
    9.0723  -14.7504   23.0907 C   0  0  0  0  0  0  0  0  0  0  0  0
   10.1438  -15.3762   23.2952 O   0  0  0  0  0  0  0  0  0  0  0  0
    6.0442  -12.0083   26.3659 C   0  0  0  0  0  0  0  0  0  0  0  0
    7.3339  -12.5951   25.9032 C   0  0  0  0  0  0  0  0  0  0  0  0
    7.5605  -14.0104   26.4201 C   0  0  2  0  0  0  0  0  0  0  0  0
    7.9978  -13.9175   27.8411 C   0  0  0  0  0  0  0  0  0  0  0  0
    8.6326  -14.6377   25.5463 C   0  0  2  0  0  0  0  0  0  0  0  0
    8.1509  -14.6029   24.1441 N   0  0  0  0  0  0  0  0  0  0  0  0
    8.9739  -16.0215   25.9042 C   0  0  0  0  0  0  0  0  0  0  0  0
    8.0802  -16.9041   25.8591 O   0  0  0  0  0  0  0  0  0  0  0  0
   10.2726  -16.3843   26.2916 N   0  0  0  0  0  0  0  0  0  0  0  0
   10.5655  -17.7927   26.5739 C   0  0  1  0  0  0  0  0  0  0  0  0
   11.9767  -18.0835   26.1240 C   0  0  0  0  0  0  0  0  0  0  0  0
   12.4536  -19.4332   26.4813 C   0  0  0  0  0  0  0  0  0  0  0  0
   12.9716  -19.6725   27.5798 O   0  0  0  0  0  0  0  0  0  0  0  0
   10.4114  -18.0552   28.0158 C   0  0  0  0  0  0  0  0  0  0  0  0
   10.1559  -17.0472   28.9064 O   0  0  0  0  0  0  0  0  0  0  0  0
   12.3222  -20.4712   25.5666 O   0  0  0  0  0  0  0  0  0  0  0  0
   10.5158  -19.2233   28.4413 O   0  0  0  0  0  0  0  0  0  0  0  0
  2  1  1  6
  3  2  1  0
  4  3  1  0
  5  4  2  0
  6  5  1  0
  7  6  2  0
  7  8  1  0
  8  9  2  0
  9  4  1  0
 10 11  2  0
 10  2  1  0
 12 13  1  0
 13 14  1  0
 14 16  1  0
 14 15  1  1
 16 18  1  0
 16 17  1  6
 17 10  1  0
 18 20  1  0
 19 18  2  0
 20 21  1  0
 21 22  1  1
 21 25  1  0
 22 23  1  0
 23 27  1  0
 23 24  2  0
 25 28  2  0
 25 26  1  0
M  END
$$$$
