FID.pdb
     RDKit          3D

 28 28  0  0  1  0  0  0  0  0999 V2000
    5.8754  -15.7951   22.2878 N   0  0  0  0  0  0  0  0  0  0  0  0
    7.1916  -16.3889   22.2676 C   0  0  1  0  0  0  0  0  0  0  0  0
    7.8570  -16.1124   20.9235 C   0  0  0  0  0  0  0  0  0  0  0  0
    7.8477  -14.6793   20.5766 C   0  0  0  0  0  0  0  0  0  0  0  0
    6.7610  -14.1995   19.8792 C   0  0  0  0  0  0  0  0  0  0  0  0
    6.7041  -12.8609   19.5291 C   0  0  0  0  0  0  0  0  0  0  0  0
    7.7464  -12.0268   19.8891 C   0  0  0  0  0  0  0  0  0  0  0  0
    8.8285  -12.5113   20.5852 C   0  0  0  0  0  0  0  0  0  0  0  0
    8.8837  -13.8335   20.9304 C   0  0  0  0  0  0  0  0  0  0  0  0
    8.0295  -15.7157   23.2910 C   0  0  0  0  0  0  0  0  0  0  0  0
    9.2023  -15.3991   22.9657 O   0  0  0  0  0  0  0  0  0  0  0  0
    6.3499  -11.8721   26.2791 C   0  0  0  0  0  0  0  0  0  0  0  0
    7.2375  -12.8349   25.5672 C   0  0  0  0  0  0  0  0  0  0  0  0
    7.7885  -13.9214   26.4823 C   0  0  2  0  0  0  0  0  0  0  0  0
    8.7005  -13.2755   27.4673 C   0  0  0  0  0  0  0  0  0  0  0  0
    8.5299  -14.9121   25.6018 C   0  0  2  0  0  0  0  0  0  0  0  0
    7.5734  -15.4215   24.5893 N   0  0  0  0  0  0  0  0  0  0  0  0
    9.1146  -16.0487   26.3268 C   0  0  0  0  0  0  0  0  0  0  0  0
    8.3515  -16.8993   26.8502 O   0  0  0  0  0  0  0  0  0  0  0  0
   10.5028  -16.2116   26.4470 N   0  0  0  0  0  0  0  0  0  0  0  0
   11.0252  -17.3930   27.1402 C   0  0  1  0  0  0  0  0  0  0  0  0
   12.4282  -17.6510   26.6472 C   0  0  0  0  0  0  0  0  0  0  0  0
   12.5558  -17.6552   25.1774 C   0  0  0  0  0  0  0  0  0  0  0  0
   11.9234  -18.4502   24.4700 O   0  0  0  0  0  0  0  0  0  0  0  0
   11.0161  -17.1622   28.5957 C   0  0  0  0  0  0  0  0  0  0  0  0
   11.2743  -18.1708   29.4849 O   0  0  0  0  0  0  0  0  0  0  0  0
   13.4065  -16.7457   24.5604 O   0  0  0  0  0  0  0  0  0  0  0  0
   10.7670  -16.0212   29.0343 O   0  0  0  0  0  0  0  0  0  0  0  0
  2  1  1  6
  3  2  1  0
  4  3  1  0
  5  4  2  0
  6  5  1  0
  7  6  2  0
  7  8  1  0
  8  9  2  0
  9  4  1  0
 10 11  2  0
 10  2  1  0
 12 13  1  0
 13 14  1  0
 14 16  1  0
 14 15  1  1
 16 18  1  0
 16 17  1  6
 17 10  1  0
 18 20  1  0
 19 18  2  0
 20 21  1  0
 21 22  1  6
 21 25  1  0
 22 23  1  0
 23 27  1  0
 23 24  2  0
 25 28  2  0
 25 26  1  0
M  END
$$$$
