FID.pdb
     RDKit          3D

 28 28  0  0  1  0  0  0  0  0999 V2000
    7.3893  -17.2290   26.6942 N   0  0  0  0  0  0  0  0  0  0  0  0
    6.7705  -16.4913   25.6179 C   0  0  1  0  0  0  0  0  0  0  0  0
    6.6596  -15.0201   26.0036 C   0  0  0  0  0  0  0  0  0  0  0  0
    7.8109  -14.5605   26.8018 C   0  0  0  0  0  0  0  0  0  0  0  0
    8.7650  -15.4944   27.1407 C   0  0  0  0  0  0  0  0  0  0  0  0
    9.8658  -15.1134   27.8896 C   0  0  0  0  0  0  0  0  0  0  0  0
    9.9860  -13.7940   28.2851 C   0  0  0  0  0  0  0  0  0  0  0  0
    9.0306  -12.8663   27.9440 C   0  0  0  0  0  0  0  0  0  0  0  0
    7.9439  -13.2435   27.2043 C   0  0  0  0  0  0  0  0  0  0  0  0
    7.6646  -16.5431   24.4344 C   0  0  0  0  0  0  0  0  0  0  0  0
    8.1430  -17.6616   24.1155 O   0  0  0  0  0  0  0  0  0  0  0  0
    6.7369  -12.9215   20.5591 C   0  0  0  0  0  0  0  0  0  0  0  0
    7.0650  -14.1412   21.3505 C   0  0  0  0  0  0  0  0  0  0  0  0
    8.5613  -14.3149   21.5792 C   0  0  2  0  0  0  0  0  0  0  0  0
    9.2213  -14.4245   20.2481 C   0  0  0  0  0  0  0  0  0  0  0  0
    8.7431  -15.5809   22.3980 C   0  0  2  0  0  0  0  0  0  0  0  0
    7.9939  -15.4108   23.6664 N   0  0  0  0  0  0  0  0  0  0  0  0
   10.1422  -15.9089   22.7052 C   0  0  0  0  0  0  0  0  0  0  0  0
   10.7848  -15.1721   23.4952 O   0  0  0  0  0  0  0  0  0  0  0  0
   10.7788  -17.0254   22.1427 N   0  0  0  0  0  0  0  0  0  0  0  0
   12.1650  -17.3203   22.5175 C   0  0  1  0  0  0  0  0  0  0  0  0
   12.3943  -18.8037   22.3592 C   0  0  0  0  0  0  0  0  0  0  0  0
   11.5966  -19.6352   23.2806 C   0  0  0  0  0  0  0  0  0  0  0  0
   11.4951  -19.3622   24.4837 O   0  0  0  0  0  0  0  0  0  0  0  0
   13.0873  -16.5539   21.6609 C   0  0  0  0  0  0  0  0  0  0  0  0
   12.6488  -15.8889   20.5474 O   0  0  0  0  0  0  0  0  0  0  0  0
   10.9371  -20.7579   22.7944 O   0  0  0  0  0  0  0  0  0  0  0  0
   14.2994  -16.5068   21.9527 O   0  0  0  0  0  0  0  0  0  0  0  0
  2  1  1  1
  3  2  1  0
  4  3  1  0
  5  4  2  0
  6  5  1  0
  7  6  2  0
  7  8  1  0
  8  9  2  0
  9  4  1  0
 10 11  2  0
 10  2  1  0
 12 13  1  0
 13 14  1  0
 14 16  1  0
 14 15  1  6
 16 18  1  0
 16 17  1  1
 17 10  1  0
 18 20  1  0
 19 18  2  0
 20 21  1  0
 21 22  1  6
 21 25  1  0
 22 23  1  0
 23 27  1  0
 23 24  2  0
 25 28  2  0
 25 26  1  0
M  END
$$$$
