FID.pdb
     RDKit          3D

 28 28  0  0  1  0  0  0  0  0999 V2000
    7.7310  -19.4044   27.2691 N   0  0  0  0  0  0  0  0  0  0  0  0
    8.0070  -18.0077   27.5113 C   0  0  1  0  0  0  0  0  0  0  0  0
    9.4448  -17.8466   27.9936 C   0  0  0  0  0  0  0  0  0  0  0  0
    9.7149  -16.4927   28.5114 C   0  0  0  0  0  0  0  0  0  0  0  0
   10.1636  -15.5460   27.6170 C   0  0  0  0  0  0  0  0  0  0  0  0
   10.4320  -14.2594   28.0532 C   0  0  0  0  0  0  0  0  0  0  0  0
   10.2430  -13.9484   29.3871 C   0  0  0  0  0  0  0  0  0  0  0  0
    9.7949  -14.8974   30.2752 C   0  0  0  0  0  0  0  0  0  0  0  0
    9.5302  -16.1677   29.8434 C   0  0  0  0  0  0  0  0  0  0  0  0
    7.9183  -17.2781   26.2220 C   0  0  0  0  0  0  0  0  0  0  0  0
    8.0515  -17.9466   25.1651 O   0  0  0  0  0  0  0  0  0  0  0  0
    6.3267  -12.0302   26.4004 C   0  0  0  0  0  0  0  0  0  0  0  0
    6.3048  -13.4330   25.8972 C   0  0  0  0  0  0  0  0  0  0  0  0
    7.4910  -13.7590   24.9982 C   0  0  2  0  0  0  0  0  0  0  0  0
    7.3008  -13.0419   23.7063 C   0  0  0  0  0  0  0  0  0  0  0  0
    7.5024  -15.2651   24.8039 C   0  0  2  0  0  0  0  0  0  0  0  0
    7.6949  -15.8914   26.1343 N   0  0  0  0  0  0  0  0  0  0  0  0
    8.5436  -15.7507   23.8876 C   0  0  0  0  0  0  0  0  0  0  0  0
    8.2104  -16.1813   22.7548 O   0  0  0  0  0  0  0  0  0  0  0  0
    9.9009  -15.7427   24.2427 N   0  0  0  0  0  0  0  0  0  0  0  0
   10.8890  -16.2684   23.2960 C   0  0  1  0  0  0  0  0  0  0  0  0
   12.0966  -15.3632   23.3186 C   0  0  0  0  0  0  0  0  0  0  0  0
   13.1827  -15.7900   22.4158 C   0  0  0  0  0  0  0  0  0  0  0  0
   14.2354  -16.2781   22.8468 O   0  0  0  0  0  0  0  0  0  0  0  0
   11.2591  -17.6440   23.6735 C   0  0  0  0  0  0  0  0  0  0  0  0
   11.1868  -18.0775   24.9702 O   0  0  0  0  0  0  0  0  0  0  0  0
   13.0294  -15.6442   21.0422 O   0  0  0  0  0  0  0  0  0  0  0  0
   11.6493  -18.4377   22.7936 O   0  0  0  0  0  0  0  0  0  0  0  0
  2  1  1  6
  3  2  1  0
  4  3  1  0
  5  4  2  0
  6  5  1  0
  7  6  2  0
  7  8  1  0
  8  9  2  0
  9  4  1  0
 10 11  2  0
 10  2  1  0
 12 13  1  0
 13 14  1  0
 14 16  1  0
 14 15  1  6
 16 18  1  0
 16 17  1  1
 17 10  1  0
 18 20  1  0
 19 18  2  0
 20 21  1  0
 21 22  1  1
 21 25  1  0
 22 23  1  0
 23 27  1  0
 23 24  2  0
 25 28  2  0
 25 26  1  0
M  END
$$$$
