FID.pdb
     RDKit          3D

 28 28  0  0  1  0  0  0  0  0999 V2000
    5.5232  -17.9059   25.1044 N   0  0  0  0  0  0  0  0  0  0  0  0
    5.9728  -16.5340   25.0720 C   0  0  1  0  0  0  0  0  0  0  0  0
    6.4787  -16.1287   26.4524 C   0  0  0  0  0  0  0  0  0  0  0  0
    6.7254  -14.6788   26.5567 C   0  0  0  0  0  0  0  0  0  0  0  0
    8.0301  -14.2635   26.7072 C   0  0  0  0  0  0  0  0  0  0  0  0
    8.3149  -12.9122   26.8099 C   0  0  0  0  0  0  0  0  0  0  0  0
    7.2768  -12.0004   26.7588 C   0  0  0  0  0  0  0  0  0  0  0  0
    5.9765  -12.4207   26.6085 C   0  0  0  0  0  0  0  0  0  0  0  0
    5.6963  -13.7554   26.5073 C   0  0  0  0  0  0  0  0  0  0  0  0
    7.1394  -16.4405   24.1594 C   0  0  0  0  0  0  0  0  0  0  0  0
    7.9419  -17.4086   24.1405 O   0  0  0  0  0  0  0  0  0  0  0  0
    6.7463  -12.9787   19.9310 C   0  0  0  0  0  0  0  0  0  0  0  0
    7.0075  -14.1898   20.7597 C   0  0  0  0  0  0  0  0  0  0  0  0
    8.3653  -14.1541   21.4501 C   0  0  2  0  0  0  0  0  0  0  0  0
    9.4179  -14.1367   20.3960 C   0  0  0  0  0  0  0  0  0  0  0  0
    8.4598  -15.4007   22.3124 C   0  0  2  0  0  0  0  0  0  0  0  0
    7.3809  -15.3314   23.3275 N   0  0  0  0  0  0  0  0  0  0  0  0
    9.7511  -15.5712   22.9927 C   0  0  0  0  0  0  0  0  0  0  0  0
   10.0784  -14.7621   23.8972 O   0  0  0  0  0  0  0  0  0  0  0  0
   10.6270  -16.6159   22.6618 N   0  0  0  0  0  0  0  0  0  0  0  0
   11.9042  -16.7282   23.3726 C   0  0  1  0  0  0  0  0  0  0  0  0
   12.0107  -18.1228   23.9401 C   0  0  0  0  0  0  0  0  0  0  0  0
   13.3022  -18.4068   24.5943 C   0  0  0  0  0  0  0  0  0  0  0  0
   14.2063  -17.5629   24.6468 O   0  0  0  0  0  0  0  0  0  0  0  0
   13.0168  -16.4541   22.4460 C   0  0  0  0  0  0  0  0  0  0  0  0
   14.0696  -15.6551   22.8035 O   0  0  0  0  0  0  0  0  0  0  0  0
   13.5198  -19.6527   25.1704 O   0  0  0  0  0  0  0  0  0  0  0  0
   13.0041  -16.9597   21.3055 O   0  0  0  0  0  0  0  0  0  0  0  0
  2  1  1  1
  3  2  1  0
  4  3  1  0
  5  4  2  0
  6  5  1  0
  7  6  2  0
  7  8  1  0
  8  9  2  0
  9  4  1  0
 10 11  2  0
 10  2  1  0
 12 13  1  0
 13 14  1  0
 14 16  1  0
 14 15  1  6
 16 18  1  0
 16 17  1  1
 17 10  1  0
 18 20  1  0
 19 18  2  0
 20 21  1  0
 21 22  1  6
 21 25  1  0
 22 23  1  0
 23 27  1  0
 23 24  2  0
 25 28  2  0
 25 26  1  0
M  END
$$$$
