FID.pdb
     RDKit          3D

 28 28  0  0  1  0  0  0  0  0999 V2000
    6.0677  -18.3707   25.6648 N   0  0  0  0  0  0  0  0  0  0  0  0
    6.2873  -16.9503   25.5246 C   0  0  1  0  0  0  0  0  0  0  0  0
    7.0573  -16.4299   26.7337 C   0  0  0  0  0  0  0  0  0  0  0  0
    6.9786  -14.9630   26.8607 C   0  0  0  0  0  0  0  0  0  0  0  0
    8.0183  -14.3217   27.4972 C   0  0  0  0  0  0  0  0  0  0  0  0
    7.9921  -12.9448   27.6424 C   0  0  0  0  0  0  0  0  0  0  0  0
    6.9154  -12.2362   27.1421 C   0  0  0  0  0  0  0  0  0  0  0  0
    5.8805  -12.8816   26.5077 C   0  0  0  0  0  0  0  0  0  0  0  0
    5.9073  -14.2415   26.3649 C   0  0  0  0  0  0  0  0  0  0  0  0
    7.1611  -16.7212   24.3470 C   0  0  0  0  0  0  0  0  0  0  0  0
    7.9907  -17.6201   24.0549 O   0  0  0  0  0  0  0  0  0  0  0  0
    8.0770  -12.9024   19.5157 C   0  0  0  0  0  0  0  0  0  0  0  0
    8.3203  -14.1448   20.3024 C   0  0  0  0  0  0  0  0  0  0  0  0
    7.5497  -14.1747   21.6166 C   0  0  2  0  0  0  0  0  0  0  0  0
    7.9785  -13.0019   22.4289 C   0  0  0  0  0  0  0  0  0  0  0  0
    7.8920  -15.4848   22.3042 C   0  0  2  0  0  0  0  0  0  0  0  0
    7.1007  -15.5587   23.5563 N   0  0  0  0  0  0  0  0  0  0  0  0
    9.3169  -15.6475   22.6245 C   0  0  0  0  0  0  0  0  0  0  0  0
    9.8156  -14.9715   23.5595 O   0  0  0  0  0  0  0  0  0  0  0  0
   10.1349  -16.5407   21.9164 N   0  0  0  0  0  0  0  0  0  0  0  0
   11.5226  -16.7326   22.3482 C   0  0  1  0  0  0  0  0  0  0  0  0
   11.7965  -18.2152   22.4206 C   0  0  0  0  0  0  0  0  0  0  0  0
   11.4369  -18.9517   21.1937 C   0  0  0  0  0  0  0  0  0  0  0  0
   10.3373  -19.5050   21.0636 O   0  0  0  0  0  0  0  0  0  0  0  0
   12.4367  -16.0775   21.3958 C   0  0  0  0  0  0  0  0  0  0  0  0
   11.9792  -15.5005   20.2416 O   0  0  0  0  0  0  0  0  0  0  0  0
   12.3509  -19.0324   20.1498 O   0  0  0  0  0  0  0  0  0  0  0  0
   13.6593  -16.0454   21.6422 O   0  0  0  0  0  0  0  0  0  0  0  0
  2  1  1  1
  3  2  1  0
  4  3  1  0
  5  4  2  0
  6  5  1  0
  7  6  2  0
  7  8  1  0
  8  9  2  0
  9  4  1  0
 10 11  2  0
 10  2  1  0
 12 13  1  0
 13 14  1  0
 14 16  1  0
 14 15  1  1
 16 18  1  0
 16 17  1  1
 17 10  1  0
 18 20  1  0
 19 18  2  0
 20 21  1  0
 21 22  1  6
 21 25  1  0
 22 23  1  0
 23 27  1  0
 23 24  2  0
 25 28  2  0
 25 26  1  0
M  END
$$$$
