FID.pdb
     RDKit          3D

 28 28  0  0  1  0  0  0  0  0999 V2000
    7.8895  -12.8416   20.0530 N   0  0  0  0  0  0  0  0  0  0  0  0
    7.5824  -14.1162   20.6585 C   0  0  1  0  0  0  0  0  0  0  0  0
    8.1975  -15.2382   19.8288 C   0  0  0  0  0  0  0  0  0  0  0  0
    7.4503  -15.4896   18.5828 C   0  0  0  0  0  0  0  0  0  0  0  0
    6.2020  -16.0613   18.6925 C   0  0  0  0  0  0  0  0  0  0  0  0
    5.4597  -16.3180   17.5520 C   0  0  0  0  0  0  0  0  0  0  0  0
    5.9901  -15.9930   16.3172 C   0  0  0  0  0  0  0  0  0  0  0  0
    7.2366  -15.4226   16.2137 C   0  0  0  0  0  0  0  0  0  0  0  0
    7.9689  -15.1696   17.3408 C   0  0  0  0  0  0  0  0  0  0  0  0
    8.2376  -14.1775   21.9887 C   0  0  0  0  0  0  0  0  0  0  0  0
    9.4871  -14.0402   22.0283 O   0  0  0  0  0  0  0  0  0  0  0  0
    7.2833  -12.5088   27.7460 C   0  0  0  0  0  0  0  0  0  0  0  0
    8.0613  -13.2817   26.7366 C   0  0  0  0  0  0  0  0  0  0  0  0
    7.3092  -13.4684   25.4246 C   0  0  2  0  0  0  0  0  0  0  0  0
    6.0677  -14.2403   25.7110 C   0  0  0  0  0  0  0  0  0  0  0  0
    8.2324  -14.2249   24.4855 C   0  0  2  0  0  0  0  0  0  0  0  0
    7.5303  -14.3795   23.1884 N   0  0  0  0  0  0  0  0  0  0  0  0
    8.6408  -15.5496   24.9731 C   0  0  0  0  0  0  0  0  0  0  0  0
    7.7988  -16.4827   24.9893 O   0  0  0  0  0  0  0  0  0  0  0  0
    9.9473  -15.8014   25.4177 N   0  0  0  0  0  0  0  0  0  0  0  0
   10.2940  -17.1458   25.8886 C   0  0  1  0  0  0  0  0  0  0  0  0
   11.7700  -17.3631   25.6595 C   0  0  0  0  0  0  0  0  0  0  0  0
   12.2068  -17.0997   24.2750 C   0  0  0  0  0  0  0  0  0  0  0  0
   11.8388  -17.8081   23.3290 O   0  0  0  0  0  0  0  0  0  0  0  0
    9.9619  -17.2748   27.3186 C   0  0  0  0  0  0  0  0  0  0  0  0
    9.8444  -18.4983   27.9215 O   0  0  0  0  0  0  0  0  0  0  0  0
   13.0545  -16.0294   24.0155 O   0  0  0  0  0  0  0  0  0  0  0  0
    9.7817  -16.2465   28.0017 O   0  0  0  0  0  0  0  0  0  0  0  0
  2  1  1  6
  3  2  1  0
  4  3  1  0
  5  4  2  0
  6  5  1  0
  7  6  2  0
  7  8  1  0
  8  9  2  0
  9  4  1  0
 10 11  2  0
 10  2  1  0
 12 13  1  0
 13 14  1  0
 14 16  1  0
 14 15  1  1
 16 18  1  0
 16 17  1  6
 17 10  1  0
 18 20  1  0
 19 18  2  0
 20 21  1  0
 21 22  1  1
 21 25  1  0
 22 23  1  0
 23 27  1  0
 23 24  2  0
 25 28  2  0
 25 26  1  0
M  END
$$$$
