FID.pdb
     RDKit          3D

 28 28  0  0  1  0  0  0  0  0999 V2000
    5.8109  -17.8519   25.6647 N   0  0  0  0  0  0  0  0  0  0  0  0
    6.1413  -16.4636   25.4436 C   0  0  1  0  0  0  0  0  0  0  0  0
    6.9149  -15.9247   26.6423 C   0  0  0  0  0  0  0  0  0  0  0  0
    6.9626  -14.4511   26.6635 C   0  0  0  0  0  0  0  0  0  0  0  0
    8.2028  -13.8543   26.7184 C   0  0  0  0  0  0  0  0  0  0  0  0
    8.3018  -12.4732   26.7404 C   0  0  0  0  0  0  0  0  0  0  0  0
    7.1458  -11.7155   26.7065 C   0  0  0  0  0  0  0  0  0  0  0  0
    5.9106  -12.3167   26.6517 C   0  0  0  0  0  0  0  0  0  0  0  0
    5.8140  -13.6807   26.6301 C   0  0  0  0  0  0  0  0  0  0  0  0
    7.0621  -16.3760   24.2830 C   0  0  0  0  0  0  0  0  0  0  0  0
    7.8591  -17.3314   24.0997 O   0  0  0  0  0  0  0  0  0  0  0  0
    8.3345  -13.0605   19.1726 C   0  0  0  0  0  0  0  0  0  0  0  0
    8.5567  -14.1862   20.1240 C   0  0  0  0  0  0  0  0  0  0  0  0
    7.6464  -14.1198   21.3441 C   0  0  2  0  0  0  0  0  0  0  0  0
    7.9208  -12.8395   22.0545 C   0  0  0  0  0  0  0  0  0  0  0  0
    7.9763  -15.3214   22.2122 C   0  0  2  0  0  0  0  0  0  0  0  0
    7.0801  -15.2859   23.3933 N   0  0  0  0  0  0  0  0  0  0  0  0
    9.3722  -15.3753   22.6683 C   0  0  0  0  0  0  0  0  0  0  0  0
    9.7703  -14.5430   23.5218 O   0  0  0  0  0  0  0  0  0  0  0  0
   10.2718  -16.3341   22.1786 N   0  0  0  0  0  0  0  0  0  0  0  0
   11.6341  -16.3756   22.7185 C   0  0  1  0  0  0  0  0  0  0  0  0
   11.8317  -17.7043   23.4067 C   0  0  0  0  0  0  0  0  0  0  0  0
   13.2134  -17.9413   23.8669 C   0  0  0  0  0  0  0  0  0  0  0  0
   14.1190  -17.1231   23.6607 O   0  0  0  0  0  0  0  0  0  0  0  0
   12.6089  -16.2015   21.6271 C   0  0  0  0  0  0  0  0  0  0  0  0
   12.3057  -16.5315   20.3333 O   0  0  0  0  0  0  0  0  0  0  0  0
   13.5166  -19.1122   24.5515 O   0  0  0  0  0  0  0  0  0  0  0  0
   13.7405  -15.7427   21.8827 O   0  0  0  0  0  0  0  0  0  0  0  0
  2  1  1  1
  3  2  1  0
  4  3  1  0
  5  4  2  0
  6  5  1  0
  7  6  2  0
  7  8  1  0
  8  9  2  0
  9  4  1  0
 10 11  2  0
 10  2  1  0
 12 13  1  0
 13 14  1  0
 14 16  1  0
 14 15  1  1
 16 18  1  0
 16 17  1  1
 17 10  1  0
 18 20  1  0
 19 18  2  0
 20 21  1  0
 21 22  1  6
 21 25  1  0
 22 23  1  0
 23 27  1  0
 23 24  2  0
 25 28  2  0
 25 26  1  0
M  END
$$$$
