SYT.pdb
     RDKit          3D

 26 26  0  0  1  0  0  0  0  0999 V2000
    7.8802  -18.7257   18.0823 O   0  0  0  0  0  0  0  0  0  0  0  0
    8.2695  -18.2021   19.2914 C   0  0  0  0  0  0  0  0  0  0  0  0
    8.7073  -16.7582   19.1996 C   0  0  2  0  0  0  0  0  0  0  0  0
    9.8720  -16.6046   18.3644 N   0  0  0  0  0  0  0  0  0  0  0  0
    8.9423  -16.1462   20.5075 C   0  0  0  0  0  0  0  0  0  0  0  0
   10.1142  -16.0918   20.9616 O   0  0  0  0  0  0  0  0  0  0  0  0
    7.3264  -11.8747   28.1327 O   0  0  0  0  0  0  0  0  0  0  0  0
    7.2182  -12.4684   26.8598 C   0  0  0  0  0  0  0  0  0  0  0  0
    7.7834  -11.8708   25.7503 C   0  0  0  0  0  0  0  0  0  0  0  0
    7.6778  -12.4501   24.5098 C   0  0  0  0  0  0  0  0  0  0  0  0
    7.0068  -13.6454   24.3222 C   0  0  0  0  0  0  0  0  0  0  0  0
    6.9185  -14.2185   22.9577 C   0  0  0  0  0  0  0  0  0  0  0  0
    8.1638  -15.0204   22.6456 C   0  0  2  0  0  0  0  0  0  0  0  0
    7.9290  -15.5960   21.3239 N   0  0  0  0  0  0  0  0  0  0  0  0
    8.4082  -16.1152   23.5974 C   0  0  0  0  0  0  0  0  0  0  0  0
    7.5934  -17.0862   23.7004 O   0  0  0  0  0  0  0  0  0  0  0  0
    6.4409  -14.2456   25.4258 C   0  0  0  0  0  0  0  0  0  0  0  0
    6.5468  -13.6581   26.6912 C   0  0  0  0  0  0  0  0  0  0  0  0
   10.6733  -18.7090   23.4804 C   0  0  0  0  0  0  0  0  0  0  0  0
   11.0434  -17.9959   24.7637 C   0  0  1  0  0  0  0  0  0  0  0  0
   12.1048  -17.1347   24.6154 O   0  0  0  0  0  0  0  0  0  0  0  0
    9.8177  -17.2892   25.3543 C   0  0  2  0  0  0  0  0  0  0  0  0
    9.5358  -16.1858   24.4577 N   0  0  0  0  0  0  0  0  0  0  0  0
   10.0844  -16.8058   26.7243 C   0  0  0  0  0  0  0  0  0  0  0  0
   10.1013  -17.7298   27.7598 O   0  0  0  0  0  0  0  0  0  0  0  0
   10.2997  -15.6031   27.0231 O   0  0  0  0  0  0  0  0  0  0  0  0
  2  1  1  0
  3  2  1  0
  3  4  1  6
  5  6  2  0
  5  3  1  0
  7  8  1  0
  8 18  2  0
  9  8  1  0
  9 10  2  0
 10 11  1  0
 11 17  2  0
 11 12  1  0
 13 12  1  1
 13 14  1  0
 14  5  1  0
 15 16  2  0
 15 13  1  0
 18 17  1  0
 20 19  1  6
 20 21  1  0
 22 23  1  6
 22 20  1  0
 23 15  1  0
 24 22  1  0
 25 24  1  0
 26 24  2  0
M  END
$$$$
