SYT.pdb
     RDKit          3D

 26 26  0  0  1  0  0  0  0  0999 V2000
    8.1917  -17.9721   20.2064 O   0  0  0  0  0  0  0  0  0  0  0  0
    7.1152  -17.1184   20.2027 C   0  0  0  0  0  0  0  0  0  0  0  0
    7.5132  -15.6611   20.2548 C   0  0  2  0  0  0  0  0  0  0  0  0
    8.2184  -15.2565   19.0645 N   0  0  0  0  0  0  0  0  0  0  0  0
    8.2971  -15.3230   21.4430 C   0  0  0  0  0  0  0  0  0  0  0  0
    9.5423  -15.1772   21.3397 O   0  0  0  0  0  0  0  0  0  0  0  0
   10.1858  -14.1094   30.0426 O   0  0  0  0  0  0  0  0  0  0  0  0
    9.5482  -14.1704   28.7880 C   0  0  0  0  0  0  0  0  0  0  0  0
    8.8905  -15.3158   28.3838 C   0  0  0  0  0  0  0  0  0  0  0  0
    8.2690  -15.3747   27.1608 C   0  0  0  0  0  0  0  0  0  0  0  0
    8.2760  -14.2988   26.2911 C   0  0  0  0  0  0  0  0  0  0  0  0
    7.5948  -14.4243   24.9802 C   0  0  0  0  0  0  0  0  0  0  0  0
    8.5494  -14.9811   23.9459 C   0  0  2  0  0  0  0  0  0  0  0  0
    7.7511  -15.1421   22.7333 N   0  0  0  0  0  0  0  0  0  0  0  0
    9.1126  -16.2893   24.3139 C   0  0  0  0  0  0  0  0  0  0  0  0
    8.3743  -17.3225   24.3847 O   0  0  0  0  0  0  0  0  0  0  0  0
    8.9309  -13.1538   26.6892 C   0  0  0  0  0  0  0  0  0  0  0  0
    9.5651  -13.0904   27.9348 C   0  0  0  0  0  0  0  0  0  0  0  0
   11.6592  -18.1913   22.5967 C   0  0  0  0  0  0  0  0  0  0  0  0
   12.1944  -18.0419   24.0051 C   0  0  1  0  0  0  0  0  0  0  0  0
   13.1723  -17.0814   24.1114 O   0  0  0  0  0  0  0  0  0  0  0  0
   11.0453  -17.7929   24.9891 C   0  0  2  0  0  0  0  0  0  0  0  0
   10.4829  -16.5109   24.6133 N   0  0  0  0  0  0  0  0  0  0  0  0
   11.5280  -17.7728   26.3849 C   0  0  0  0  0  0  0  0  0  0  0  0
   11.9581  -18.9639   26.9528 O   0  0  0  0  0  0  0  0  0  0  0  0
   11.5776  -16.7419   27.1038 O   0  0  0  0  0  0  0  0  0  0  0  0
  2  1  1  0
  3  2  1  0
  3  4  1  6
  5  6  2  0
  5  3  1  0
  7  8  1  0
  8 18  2  0
  9  8  1  0
  9 10  2  0
 10 11  1  0
 11 17  2  0
 11 12  1  0
 13 12  1  1
 13 14  1  0
 14  5  1  0
 15 16  2  0
 15 13  1  0
 18 17  1  0
 20 19  1  6
 20 21  1  0
 22 23  1  6
 22 20  1  0
 23 15  1  0
 24 22  1  0
 25 24  1  0
 26 24  2  0
M  END
$$$$
