SYT.pdb
     RDKit          3D

 26 26  0  0  1  0  0  0  0  0999 V2000
    8.4457  -19.0348   18.9101 O   0  0  0  0  0  0  0  0  0  0  0  0
    7.5223  -18.0885   19.2833 C   0  0  0  0  0  0  0  0  0  0  0  0
    8.0270  -16.6723   19.1264 C   0  0  2  0  0  0  0  0  0  0  0  0
    9.1105  -16.5926   18.1790 N   0  0  0  0  0  0  0  0  0  0  0  0
    8.4226  -16.0608   20.3952 C   0  0  0  0  0  0  0  0  0  0  0  0
    9.6358  -16.0595   20.7277 O   0  0  0  0  0  0  0  0  0  0  0  0
    7.6371  -11.9884   28.2686 O   0  0  0  0  0  0  0  0  0  0  0  0
    7.4198  -12.4925   26.9713 C   0  0  0  0  0  0  0  0  0  0  0  0
    6.5989  -13.5840   26.7650 C   0  0  0  0  0  0  0  0  0  0  0  0
    6.3873  -14.0749   25.5002 C   0  0  0  0  0  0  0  0  0  0  0  0
    6.9824  -13.5014   24.3906 C   0  0  0  0  0  0  0  0  0  0  0  0
    6.7230  -14.0806   23.0507 C   0  0  0  0  0  0  0  0  0  0  0  0
    7.9189  -14.8851   22.5882 C   0  0  2  0  0  0  0  0  0  0  0  0
    7.5249  -15.4545   21.3021 N   0  0  0  0  0  0  0  0  0  0  0  0
    8.2720  -15.9845   23.4996 C   0  0  0  0  0  0  0  0  0  0  0  0
    7.5082  -16.9923   23.6353 O   0  0  0  0  0  0  0  0  0  0  0  0
    7.8024  -12.4125   24.5909 C   0  0  0  0  0  0  0  0  0  0  0  0
    8.0200  -11.9097   25.8784 C   0  0  0  0  0  0  0  0  0  0  0  0
   12.0130  -18.4148   25.5625 C   0  0  0  0  0  0  0  0  0  0  0  0
   11.4002  -17.3102   24.7278 C   0  0  1  0  0  0  0  0  0  0  0  0
   11.6259  -17.4638   23.3804 O   0  0  0  0  0  0  0  0  0  0  0  0
    9.9056  -17.1716   25.0404 C   0  0  2  0  0  0  0  0  0  0  0  0
    9.4555  -16.0203   24.2836 N   0  0  0  0  0  0  0  0  0  0  0  0
    9.6747  -16.9801   26.4867 C   0  0  0  0  0  0  0  0  0  0  0  0
    9.7870  -15.6996   27.0102 O   0  0  0  0  0  0  0  0  0  0  0  0
    9.3801  -17.9048   27.2869 O   0  0  0  0  0  0  0  0  0  0  0  0
  2  1  1  0
  3  2  1  0
  3  4  1  6
  5  6  2  0
  5  3  1  0
  7  8  1  0
  8 18  2  0
  9  8  1  0
  9 10  2  0
 10 11  1  0
 11 17  2  0
 11 12  1  0
 13 12  1  1
 13 14  1  0
 14  5  1  0
 15 16  2  0
 15 13  1  0
 18 17  1  0
 20 19  1  1
 20 21  1  0
 22 23  1  6
 22 20  1  0
 23 15  1  0
 24 22  1  0
 25 24  1  0
 26 24  2  0
M  END
$$$$
