SYT.pdb
     RDKit          3D

 26 26  0  0  1  0  0  0  0  0999 V2000
    8.4020  -18.8149   20.3712 O   0  0  0  0  0  0  0  0  0  0  0  0
    9.4012  -18.3518   19.5500 C   0  0  0  0  0  0  0  0  0  0  0  0
    9.4970  -16.8435   19.5241 C   0  0  2  0  0  0  0  0  0  0  0  0
   10.6032  -16.3916   18.7180 N   0  0  0  0  0  0  0  0  0  0  0  0
    9.5729  -16.2508   20.8596 C   0  0  0  0  0  0  0  0  0  0  0  0
   10.6972  -16.0916   21.4008 O   0  0  0  0  0  0  0  0  0  0  0  0
    7.1293  -11.7486   28.1024 O   0  0  0  0  0  0  0  0  0  0  0  0
    7.1470  -12.4301   26.8697 C   0  0  0  0  0  0  0  0  0  0  0  0
    7.7879  -11.8897   25.7719 C   0  0  0  0  0  0  0  0  0  0  0  0
    7.8049  -12.5545   24.5706 C   0  0  0  0  0  0  0  0  0  0  0  0
    7.1863  -13.7818   24.4119 C   0  0  0  0  0  0  0  0  0  0  0  0
    7.2310  -14.4483   23.0882 C   0  0  0  0  0  0  0  0  0  0  0  0
    8.5363  -15.1968   22.9234 C   0  0  2  0  0  0  0  0  0  0  0  0
    8.4522  -15.8314   21.6105 N   0  0  0  0  0  0  0  0  0  0  0  0
    8.7429  -16.2423   23.9375 C   0  0  0  0  0  0  0  0  0  0  0  0
    7.9407  -17.2241   24.0374 O   0  0  0  0  0  0  0  0  0  0  0  0
    6.5452  -14.3252   25.5038 C   0  0  0  0  0  0  0  0  0  0  0  0
    6.5261  -13.6505   26.7294 C   0  0  0  0  0  0  0  0  0  0  0  0
   12.4670  -16.6661   25.5279 C   0  0  0  0  0  0  0  0  0  0  0  0
   11.4815  -17.8155   25.5204 C   0  0  1  0  0  0  0  0  0  0  0  0
   11.8448  -18.8430   26.3585 O   0  0  0  0  0  0  0  0  0  0  0  0
   10.0672  -17.3080   25.8250 C   0  0  2  0  0  0  0  0  0  0  0  0
    9.8185  -16.2511   24.8647 N   0  0  0  0  0  0  0  0  0  0  0  0
    9.9640  -16.8032   27.2092 C   0  0  0  0  0  0  0  0  0  0  0  0
    9.9842  -17.7205   28.2506 O   0  0  0  0  0  0  0  0  0  0  0  0
    9.8580  -15.5878   27.5153 O   0  0  0  0  0  0  0  0  0  0  0  0
  2  1  1  0
  3  2  1  0
  3  4  1  6
  5  6  2  0
  5  3  1  0
  7  8  1  0
  8 18  2  0
  9  8  1  0
  9 10  2  0
 10 11  1  0
 11 17  2  0
 11 12  1  0
 13 12  1  1
 13 14  1  0
 14  5  1  0
 15 16  2  0
 15 13  1  0
 18 17  1  0
 20 19  1  1
 20 21  1  0
 22 23  1  6
 22 20  1  0
 23 15  1  0
 24 22  1  0
 25 24  1  0
 26 24  2  0
M  END
$$$$
