SYT.pdb
     RDKit          3D

 26 26  0  0  1  0  0  0  0  0999 V2000
    9.5190  -19.0380   20.0375 O   0  0  0  0  0  0  0  0  0  0  0  0
    8.7188  -17.9875   19.6588 C   0  0  0  0  0  0  0  0  0  0  0  0
    9.4355  -16.6568   19.6828 C   0  0  2  0  0  0  0  0  0  0  0  0
   10.7509  -16.7472   19.1004 N   0  0  0  0  0  0  0  0  0  0  0  0
    9.5177  -16.0740   21.0223 C   0  0  0  0  0  0  0  0  0  0  0  0
   10.5934  -16.1620   21.6684 O   0  0  0  0  0  0  0  0  0  0  0  0
    7.0491  -11.7576   28.4071 O   0  0  0  0  0  0  0  0  0  0  0  0
    7.1265  -12.2991   27.1090 C   0  0  0  0  0  0  0  0  0  0  0  0
    6.1491  -13.1553   26.6404 C   0  0  0  0  0  0  0  0  0  0  0  0
    6.2251  -13.6828   25.3749 C   0  0  0  0  0  0  0  0  0  0  0  0
    7.2742  -13.3810   24.5250 C   0  0  0  0  0  0  0  0  0  0  0  0
    7.3065  -13.9876   23.1725 C   0  0  0  0  0  0  0  0  0  0  0  0
    8.5200  -14.8811   23.0289 C   0  0  2  0  0  0  0  0  0  0  0  0
    8.4549  -15.4013   21.6656 N   0  0  0  0  0  0  0  0  0  0  0  0
    8.5244  -16.0163   23.9645 C   0  0  0  0  0  0  0  0  0  0  0  0
    7.5703  -16.8571   23.9770 O   0  0  0  0  0  0  0  0  0  0  0  0
    8.2520  -12.5276   24.9876 C   0  0  0  0  0  0  0  0  0  0  0  0
    8.1776  -11.9882   26.2765 C   0  0  0  0  0  0  0  0  0  0  0  0
   10.4556  -18.8544   23.9429 C   0  0  0  0  0  0  0  0  0  0  0  0
   10.7644  -18.2747   25.3071 C   0  0  1  0  0  0  0  0  0  0  0  0
   11.9550  -17.5884   25.3446 O   0  0  0  0  0  0  0  0  0  0  0  0
    9.5961  -17.4111   25.7969 C   0  0  2  0  0  0  0  0  0  0  0  0
    9.5572  -16.2685   24.9059 N   0  0  0  0  0  0  0  0  0  0  0  0
    9.7925  -16.9860   27.1978 C   0  0  0  0  0  0  0  0  0  0  0  0
   10.0071  -15.6393   27.4560 O   0  0  0  0  0  0  0  0  0  0  0  0
    9.7790  -17.7658   28.1846 O   0  0  0  0  0  0  0  0  0  0  0  0
  2  1  1  0
  3  2  1  0
  3  4  1  1
  5  6  2  0
  5  3  1  0
  7  8  1  0
  8 18  2  0
  9  8  1  0
  9 10  2  0
 10 11  1  0
 11 17  2  0
 11 12  1  0
 13 12  1  1
 13 14  1  0
 14  5  1  0
 15 16  2  0
 15 13  1  0
 18 17  1  0
 20 19  1  6
 20 21  1  0
 22 23  1  6
 22 20  1  0
 23 15  1  0
 24 22  1  0
 25 24  1  0
 26 24  2  0
M  END
$$$$
