SYT.pdb
     RDKit          3D

 26 26  0  0  1  0  0  0  0  0999 V2000
    8.7500  -18.8832   20.5096 O   0  0  0  0  0  0  0  0  0  0  0  0
    9.6392  -18.3723   19.5954 C   0  0  0  0  0  0  0  0  0  0  0  0
    9.5755  -16.8662   19.4830 C   0  0  2  0  0  0  0  0  0  0  0  0
   10.6120  -16.3496   18.6248 N   0  0  0  0  0  0  0  0  0  0  0  0
    9.6152  -16.1923   20.7810 C   0  0  0  0  0  0  0  0  0  0  0  0
   10.7248  -15.9940   21.3395 O   0  0  0  0  0  0  0  0  0  0  0  0
    6.7510  -12.1407   28.1607 O   0  0  0  0  0  0  0  0  0  0  0  0
    6.8724  -12.6816   26.8657 C   0  0  0  0  0  0  0  0  0  0  0  0
    6.2109  -13.8438   26.5197 C   0  0  0  0  0  0  0  0  0  0  0  0
    6.3295  -14.3705   25.2572 C   0  0  0  0  0  0  0  0  0  0  0  0
    7.1094  -13.7641   24.2886 C   0  0  0  0  0  0  0  0  0  0  0  0
    7.2057  -14.3841   22.9453 C   0  0  0  0  0  0  0  0  0  0  0  0
    8.5114  -15.1377   22.8094 C   0  0  2  0  0  0  0  0  0  0  0  0
    8.4742  -15.7336   21.4764 N   0  0  0  0  0  0  0  0  0  0  0  0
    8.6717  -16.2134   23.8000 C   0  0  0  0  0  0  0  0  0  0  0  0
    7.8599  -17.1916   23.8401 O   0  0  0  0  0  0  0  0  0  0  0  0
    7.7716  -12.6047   24.6286 C   0  0  0  0  0  0  0  0  0  0  0  0
    7.6528  -12.0652   25.9141 C   0  0  0  0  0  0  0  0  0  0  0  0
   10.9638  -18.6990   23.9295 C   0  0  0  0  0  0  0  0  0  0  0  0
   11.1671  -18.0597   25.2868 C   0  0  1  0  0  0  0  0  0  0  0  0
   12.2696  -17.2399   25.3372 O   0  0  0  0  0  0  0  0  0  0  0  0
    9.8946  -17.3270   25.7277 C   0  0  2  0  0  0  0  0  0  0  0  0
    9.7101  -16.2568   24.7676 N   0  0  0  0  0  0  0  0  0  0  0  0
   10.0292  -16.7936   27.0985 C   0  0  0  0  0  0  0  0  0  0  0  0
   10.0688  -15.4170   27.2713 O   0  0  0  0  0  0  0  0  0  0  0  0
   10.1115  -17.5056   28.1321 O   0  0  0  0  0  0  0  0  0  0  0  0
  2  1  1  0
  3  2  1  0
  3  4  1  6
  5  6  2  0
  5  3  1  0
  7  8  1  0
  8 18  2  0
  9  8  1  0
  9 10  2  0
 10 11  1  0
 11 17  2  0
 11 12  1  0
 13 12  1  1
 13 14  1  0
 14  5  1  0
 15 16  2  0
 15 13  1  0
 18 17  1  0
 20 19  1  6
 20 21  1  0
 22 23  1  6
 22 20  1  0
 23 15  1  0
 24 22  1  0
 25 24  1  0
 26 24  2  0
M  END
$$$$
