SYT.pdb
     RDKit          3D

 26 26  0  0  1  0  0  0  0  0999 V2000
    7.5554  -21.4802   22.3877 O   0  0  0  0  0  0  0  0  0  0  0  0
    6.4778  -21.5209   23.2390 C   0  0  0  0  0  0  0  0  0  0  0  0
    5.4845  -20.4084   22.9927 C   0  0  2  0  0  0  0  0  0  0  0  0
    4.8666  -20.5207   21.6952 N   0  0  0  0  0  0  0  0  0  0  0  0
    6.0635  -19.0753   23.1600 C   0  0  0  0  0  0  0  0  0  0  0  0
    6.2957  -18.3715   22.1435 O   0  0  0  0  0  0  0  0  0  0  0  0
    7.9865  -11.2392   26.6730 O   0  0  0  0  0  0  0  0  0  0  0  0
    7.6050  -12.5816   26.4812 C   0  0  0  0  0  0  0  0  0  0  0  0
    8.4106  -13.6151   26.9177 C   0  0  0  0  0  0  0  0  0  0  0  0
    8.0382  -14.9235   26.7305 C   0  0  0  0  0  0  0  0  0  0  0  0
    6.8514  -15.2570   26.1026 C   0  0  0  0  0  0  0  0  0  0  0  0
    6.5065  -16.6876   25.9214 C   0  0  0  0  0  0  0  0  0  0  0  0
    6.9810  -17.1727   24.5684 C   0  0  2  0  0  0  0  0  0  0  0  0
    6.3918  -18.4996   24.4077 N   0  0  0  0  0  0  0  0  0  0  0  0
    8.4438  -17.2939   24.4706 C   0  0  0  0  0  0  0  0  0  0  0  0
    9.0629  -18.2352   25.0608 O   0  0  0  0  0  0  0  0  0  0  0  0
    6.0441  -14.2298   25.6649 C   0  0  0  0  0  0  0  0  0  0  0  0
    6.4206  -12.8956   25.8542 C   0  0  0  0  0  0  0  0  0  0  0  0
   12.4804  -15.8218   21.9339 C   0  0  0  0  0  0  0  0  0  0  0  0
   10.9898  -15.8333   22.1990 C   0  0  1  0  0  0  0  0  0  0  0  0
   10.2564  -16.3026   21.1350 O   0  0  0  0  0  0  0  0  0  0  0  0
   10.6825  -16.6083   23.4857 C   0  0  2  0  0  0  0  0  0  0  0  0
    9.2694  -16.4032   23.7347 N   0  0  0  0  0  0  0  0  0  0  0  0
   11.4977  -16.1184   24.6157 C   0  0  0  0  0  0  0  0  0  0  0  0
   10.8643  -15.4187   25.6334 O   0  0  0  0  0  0  0  0  0  0  0  0
   12.7389  -16.2917   24.7231 O   0  0  0  0  0  0  0  0  0  0  0  0
  2  1  1  0
  3  2  1  0
  3  4  1  6
  5  6  2  0
  5  3  1  0
  7  8  1  0
  8 18  2  0
  9  8  1  0
  9 10  2  0
 10 11  1  0
 11 17  2  0
 11 12  1  0
 13 12  1  1
 13 14  1  0
 14  5  1  0
 15 16  2  0
 15 13  1  0
 18 17  1  0
 20 19  1  6
 20 21  1  0
 22 23  1  1
 22 20  1  0
 23 15  1  0
 24 22  1  0
 25 24  1  0
 26 24  2  0
M  END
$$$$
