SYT.pdb
     RDKit          3D

 26 26  0  0  1  0  0  0  0  0999 V2000
    9.1760  -20.6542   18.8970 O   0  0  0  0  0  0  0  0  0  0  0  0
    9.3561  -19.8139   19.9689 C   0  0  0  0  0  0  0  0  0  0  0  0
    9.3974  -18.3542   19.5784 C   0  0  2  0  0  0  0  0  0  0  0  0
   10.3553  -18.1080   18.5298 N   0  0  0  0  0  0  0  0  0  0  0  0
    9.6529  -17.4646   20.7116 C   0  0  0  0  0  0  0  0  0  0  0  0
   10.8386  -17.1626   21.0038 O   0  0  0  0  0  0  0  0  0  0  0  0
    7.8209  -12.0142   17.8778 O   0  0  0  0  0  0  0  0  0  0  0  0
    7.7947  -12.7717   19.0651 C   0  0  0  0  0  0  0  0  0  0  0  0
    8.6864  -12.5143   20.0881 C   0  0  0  0  0  0  0  0  0  0  0  0
    8.6604  -13.2530   21.2453 C   0  0  0  0  0  0  0  0  0  0  0  0
    7.7481  -14.2761   21.4324 C   0  0  0  0  0  0  0  0  0  0  0  0
    7.7735  -15.0446   22.7001 C   0  0  0  0  0  0  0  0  0  0  0  0
    8.9074  -16.0471   22.6813 C   0  0  2  0  0  0  0  0  0  0  0  0
    8.6452  -16.9022   21.5265 N   0  0  0  0  0  0  0  0  0  0  0  0
    8.9632  -16.8896   23.8859 C   0  0  0  0  0  0  0  0  0  0  0  0
    8.0201  -17.6964   24.1638 O   0  0  0  0  0  0  0  0  0  0  0  0
    6.8565  -14.5372   20.4150 C   0  0  0  0  0  0  0  0  0  0  0  0
    6.8802  -13.7864   19.2345 C   0  0  0  0  0  0  0  0  0  0  0  0
   12.4114  -18.7399   24.1389 C   0  0  0  0  0  0  0  0  0  0  0  0
   10.9779  -19.0410   24.5219 C   0  0  1  0  0  0  0  0  0  0  0  0
   10.7913  -20.3389   24.9352 O   0  0  0  0  0  0  0  0  0  0  0  0
   10.4825  -18.0357   25.5682 C   0  0  2  0  0  0  0  0  0  0  0  0
   10.0364  -16.8799   24.8158 N   0  0  0  0  0  0  0  0  0  0  0  0
   11.5568  -17.6715   26.5142 C   0  0  0  0  0  0  0  0  0  0  0  0
   12.1752  -16.4375   26.3690 O   0  0  0  0  0  0  0  0  0  0  0  0
   11.9557  -18.4079   27.4526 O   0  0  0  0  0  0  0  0  0  0  0  0
  2  1  1  0
  3  2  1  0
  3  4  1  6
  5  6  2  0
  5  3  1  0
  7  8  1  0
  8 18  2  0
  9  8  1  0
  9 10  2  0
 10 11  1  0
 11 17  2  0
 11 12  1  0
 13 12  1  1
 13 14  1  0
 14  5  1  0
 15 16  2  0
 15 13  1  0
 18 17  1  0
 20 19  1  1
 20 21  1  0
 22 23  1  6
 22 20  1  0
 23 15  1  0
 24 22  1  0
 25 24  1  0
 26 24  2  0
M  END
$$$$
