SYT.pdb
     RDKit          3D

 26 26  0  0  1  0  0  0  0  0999 V2000
    7.3909  -15.4992   19.2759 O   0  0  0  0  0  0  0  0  0  0  0  0
    6.3876  -14.6425   19.6594 C   0  0  0  0  0  0  0  0  0  0  0  0
    6.9038  -13.3529   20.2555 C   0  0  2  0  0  0  0  0  0  0  0  0
    7.6437  -12.5769   19.2920 N   0  0  0  0  0  0  0  0  0  0  0  0
    7.7089  -13.5596   21.4594 C   0  0  0  0  0  0  0  0  0  0  0  0
    8.9628  -13.5957   21.3644 O   0  0  0  0  0  0  0  0  0  0  0  0
    9.7599  -14.6805   30.0342 O   0  0  0  0  0  0  0  0  0  0  0  0
    9.1053  -14.4045   28.8178 C   0  0  0  0  0  0  0  0  0  0  0  0
    8.1988  -15.2993   28.2836 C   0  0  0  0  0  0  0  0  0  0  0  0
    7.5609  -15.0296   27.0979 C   0  0  0  0  0  0  0  0  0  0  0  0
    7.7980  -13.8611   26.3961 C   0  0  0  0  0  0  0  0  0  0  0  0
    7.0854  -13.6289   25.1168 C   0  0  0  0  0  0  0  0  0  0  0  0
    7.9806  -13.9810   23.9481 C   0  0  2  0  0  0  0  0  0  0  0  0
    7.1749  -13.7265   22.7567 N   0  0  0  0  0  0  0  0  0  0  0  0
    8.4014  -15.3905   23.9377 C   0  0  0  0  0  0  0  0  0  0  0  0
    7.5723  -16.3185   23.6752 O   0  0  0  0  0  0  0  0  0  0  0  0
    8.7015  -12.9652   26.9245 C   0  0  0  0  0  0  0  0  0  0  0  0
    9.3531  -13.2368   28.1326 C   0  0  0  0  0  0  0  0  0  0  0  0
   11.9400  -18.6332   23.1574 C   0  0  0  0  0  0  0  0  0  0  0  0
   11.2664  -17.2776   23.1298 C   0  0  1  0  0  0  0  0  0  0  0  0
   10.8070  -16.9288   21.8819 O   0  0  0  0  0  0  0  0  0  0  0  0
   10.1536  -17.2130   24.1826 C   0  0  2  0  0  0  0  0  0  0  0  0
    9.7244  -15.8289   24.2098 N   0  0  0  0  0  0  0  0  0  0  0  0
   10.6423  -17.6440   25.5081 C   0  0  0  0  0  0  0  0  0  0  0  0
   10.5409  -18.9864   25.8457 O   0  0  0  0  0  0  0  0  0  0  0  0
   11.1495  -16.8728   26.3626 O   0  0  0  0  0  0  0  0  0  0  0  0
  2  1  1  0
  3  2  1  0
  3  4  1  6
  5  6  2  0
  5  3  1  0
  7  8  1  0
  8 18  2  0
  9  8  1  0
  9 10  2  0
 10 11  1  0
 11 17  2  0
 11 12  1  0
 13 12  1  1
 13 14  1  0
 14  5  1  0
 15 16  2  0
 15 13  1  0
 18 17  1  0
 20 19  1  6
 20 21  1  0
 22 23  1  1
 22 20  1  0
 23 15  1  0
 24 22  1  0
 25 24  1  0
 26 24  2  0
M  END
$$$$
