SYT.pdb
     RDKit          3D

 26 26  0  0  1  0  0  0  0  0999 V2000
    8.1971  -15.9810   19.0136 O   0  0  0  0  0  0  0  0  0  0  0  0
    7.0878  -15.2776   19.4164 C   0  0  0  0  0  0  0  0  0  0  0  0
    7.4270  -14.0463   20.2249 C   0  0  2  0  0  0  0  0  0  0  0  0
    8.2011  -13.1009   19.4601 N   0  0  0  0  0  0  0  0  0  0  0  0
    8.1099  -14.3555   21.4813 C   0  0  0  0  0  0  0  0  0  0  0  0
    9.3415  -14.1227   21.5876 O   0  0  0  0  0  0  0  0  0  0  0  0
    6.3079   -9.9094   26.9270 O   0  0  0  0  0  0  0  0  0  0  0  0
    6.4750  -11.2195   26.4371 C   0  0  0  0  0  0  0  0  0  0  0  0
    7.6940  -11.6391   25.9414 C   0  0  0  0  0  0  0  0  0  0  0  0
    7.8564  -12.9163   25.4640 C   0  0  0  0  0  0  0  0  0  0  0  0
    6.8149  -13.8270   25.4601 C   0  0  0  0  0  0  0  0  0  0  0  0
    7.0480  -15.1896   24.9241 C   0  0  0  0  0  0  0  0  0  0  0  0
    8.1512  -15.1624   23.8880 C   0  0  2  0  0  0  0  0  0  0  0  0
    7.4780  -14.9104   22.6165 N   0  0  0  0  0  0  0  0  0  0  0  0
    8.8883  -16.4313   23.7851 C   0  0  0  0  0  0  0  0  0  0  0  0
    8.3167  -17.4875   23.3667 O   0  0  0  0  0  0  0  0  0  0  0  0
    5.5967  -13.4135   25.9533 C   0  0  0  0  0  0  0  0  0  0  0  0
    5.4278  -12.1128   26.4405 C   0  0  0  0  0  0  0  0  0  0  0  0
   11.8345  -17.3030   21.7998 C   0  0  0  0  0  0  0  0  0  0  0  0
   12.2244  -17.5739   23.2375 C   0  0  1  0  0  0  0  0  0  0  0  0
   13.0041  -16.5806   23.7811 O   0  0  0  0  0  0  0  0  0  0  0  0
   10.9770  -17.8448   24.0868 C   0  0  2  0  0  0  0  0  0  0  0  0
   10.2567  -16.5879   24.1312 N   0  0  0  0  0  0  0  0  0  0  0  0
   11.3398  -18.2976   25.4451 C   0  0  0  0  0  0  0  0  0  0  0  0
   11.9075  -19.5554   25.5931 O   0  0  0  0  0  0  0  0  0  0  0  0
   11.1692  -17.6172   26.4891 O   0  0  0  0  0  0  0  0  0  0  0  0
  2  1  1  0
  3  2  1  0
  3  4  1  6
  5  6  2  0
  5  3  1  0
  7  8  1  0
  8 18  2  0
  9  8  1  0
  9 10  2  0
 10 11  1  0
 11 17  2  0
 11 12  1  0
 13 12  1  1
 13 14  1  0
 14  5  1  0
 15 16  2  0
 15 13  1  0
 18 17  1  0
 20 19  1  6
 20 21  1  0
 22 23  1  1
 22 20  1  0
 23 15  1  0
 24 22  1  0
 25 24  1  0
 26 24  2  0
M  END
$$$$
