CIY.pdb
     RDKit          3D

 27 27  0  0  1  0  0  0  0  0999 V2000
   28.0899  -17.7338  -19.1158 N   0  0  0  0  0  0  0  0  0  0  0  0
   27.6245  -18.1861  -17.8444 C   0  0  1  0  0  0  0  0  0  0  0  0
   27.9263  -17.1086  -16.8188 C   0  0  0  0  0  0  0  0  0  0  0  0
   27.4052  -17.7224  -15.1960 S   0  0  0  0  0  0  0  0  0  0  0  0
   26.1773  -18.4511  -17.8120 C   0  0  0  0  0  0  0  0  0  0  0  0
   25.3753  -17.5762  -18.2227 O   0  0  0  0  0  0  0  0  0  0  0  0
   23.5765  -21.3706  -20.8135 C   0  0  0  0  0  0  0  0  0  0  0  0
   23.8127  -20.3748  -19.7450 C   0  0  0  0  0  0  0  0  0  0  0  0
   23.9680  -20.8346  -18.3593 C   0  0  2  0  0  0  0  0  0  0  0  0
   22.8105  -21.8012  -17.9939 C   0  0  0  0  0  0  0  0  0  0  0  0
   24.2266  -19.8820  -17.2567 C   0  0  2  0  0  0  0  0  0  0  0  0
   25.7162  -19.6949  -17.3153 N   0  0  0  0  0  0  0  0  0  0  0  0
   23.9990  -20.3517  -15.8722 C   0  0  0  0  0  0  0  0  0  0  0  0
   24.9547  -20.9624  -15.2586 O   0  0  0  0  0  0  0  0  0  0  0  0
   26.5490  -21.4760   -8.6027 O   0  0  0  0  0  0  0  0  0  0  0  0
   25.8136  -20.9540   -9.6702 C   0  0  0  0  0  0  0  0  0  0  0  0
   26.4531  -20.8286  -10.8720 C   0  0  0  0  0  0  0  0  0  0  0  0
   25.7810  -20.3218  -11.9573 C   0  0  0  0  0  0  0  0  0  0  0  0
   24.4530  -19.9241  -11.8818 C   0  0  0  0  0  0  0  0  0  0  0  0
   23.8013  -19.3597  -13.0583 C   0  0  0  0  0  0  0  0  0  0  0  0
   22.8792  -20.3959  -13.6748 C   0  0  2  0  0  0  0  0  0  0  0  0
   22.8127  -20.1900  -15.1213 N   0  0  0  0  0  0  0  0  0  0  0  0
   21.5538  -20.2600  -13.0680 C   0  0  0  0  0  0  0  0  0  0  0  0
   20.5292  -19.6615  -13.7650 O   0  0  0  0  0  0  0  0  0  0  0  0
   23.8285  -20.0580  -10.6659 C   0  0  0  0  0  0  0  0  0  0  0  0
   24.4918  -20.5719   -9.5445 C   0  0  0  0  0  0  0  0  0  0  0  0
   21.3378  -20.6817  -11.9176 O   0  0  0  0  0  0  0  0  0  0  0  0
  2  1  1  6
  3  4  1  0
  3  2  1  0
  5  6  2  0
  5  2  1  0
  8  7  1  0
  8  9  1  0
  9 11  1  0
  9 10  1  1
 11 12  1  1
 12  5  1  0
 13 11  1  0
 14 13  2  0
 16 17  2  0
 16 15  1  0
 18 17  1  0
 19 18  2  0
 21 20  1  1
 20 19  1  0
 21 22  1  0
 22 13  1  0
 23 24  1  0
 23 21  1  0
 25 19  1  0
 25 26  2  0
 26 16  1  0
 27 23  2  0
M  END
$$$$
