CIY.pdb
     RDKit          3D

 27 27  0  0  1  0  0  0  0  0999 V2000
   16.5001  -13.6611    3.3526 N   0  0  0  0  0  0  0  0  0  0  0  0
   17.5248  -14.5872    3.7130 C   0  0  1  0  0  0  0  0  0  0  0  0
   17.9366  -14.3036    5.1462 C   0  0  0  0  0  0  0  0  0  0  0  0
   16.4708  -14.4896    6.1943 S   0  0  0  0  0  0  0  0  0  0  0  0
   17.0968  -15.9928    3.6334 C   0  0  0  0  0  0  0  0  0  0  0  0
   15.8846  -16.2647    3.4490 O   0  0  0  0  0  0  0  0  0  0  0  0
   19.2132  -18.8566    0.0239 C   0  0  0  0  0  0  0  0  0  0  0  0
   18.3116  -18.3639    1.0885 C   0  0  0  0  0  0  0  0  0  0  0  0
   18.4467  -18.9030    2.4474 C   0  0  2  0  0  0  0  0  0  0  0  0
   18.4698  -20.4537    2.3974 C   0  0  0  0  0  0  0  0  0  0  0  0
   17.5885  -18.4246    3.5540 C   0  0  2  0  0  0  0  0  0  0  0  0
   18.0669  -17.0164    3.7671 N   0  0  0  0  0  0  0  0  0  0  0  0
   17.7676  -19.0474    4.8842 C   0  0  0  0  0  0  0  0  0  0  0  0
   18.7892  -18.7104    5.5953 O   0  0  0  0  0  0  0  0  0  0  0  0
   12.9405  -16.1096    8.5882 O   0  0  0  0  0  0  0  0  0  0  0  0
   13.7372  -17.2362    8.3669 C   0  0  0  0  0  0  0  0  0  0  0  0
   13.2111  -18.2366    7.5977 C   0  0  0  0  0  0  0  0  0  0  0  0
   13.9478  -19.3680    7.3459 C   0  0  0  0  0  0  0  0  0  0  0  0
   15.2296  -19.5403    7.8505 C   0  0  0  0  0  0  0  0  0  0  0  0
   15.9508  -20.7788    7.5797 C   0  0  0  0  0  0  0  0  0  0  0  0
   17.2329  -20.4668    6.8294 C   0  0  2  0  0  0  0  0  0  0  0  0
   16.9076  -19.9952    5.4837 N   0  0  0  0  0  0  0  0  0  0  0  0
   18.0471  -21.6823    6.7726 C   0  0  0  0  0  0  0  0  0  0  0  0
   18.5615  -22.2278    7.9265 O   0  0  0  0  0  0  0  0  0  0  0  0
   15.7400  -18.5242    8.6210 C   0  0  0  0  0  0  0  0  0  0  0  0
   15.0090  -17.3608    8.8921 C   0  0  0  0  0  0  0  0  0  0  0  0
   18.2842  -22.2353    5.6836 O   0  0  0  0  0  0  0  0  0  0  0  0
  2  1  1  1
  3  4  1  0
  3  2  1  0
  5  6  2  0
  5  2  1  0
  8  7  1  0
  8  9  1  0
  9 11  1  0
  9 10  1  6
 11 12  1  1
 12  5  1  0
 13 11  1  0
 14 13  2  0
 16 17  2  0
 16 15  1  0
 18 17  1  0
 19 18  2  0
 21 20  1  1
 20 19  1  0
 21 22  1  0
 22 13  1  0
 23 24  1  0
 23 21  1  0
 25 19  1  0
 25 26  2  0
 26 16  1  0
 27 23  2  0
M  END
$$$$
