CIY.pdb
     RDKit          3D

 27 27  0  0  1  0  0  0  0  0999 V2000
   27.6802  -23.6455  -15.8554 N   0  0  0  0  0  0  0  0  0  0  0  0
   27.0657  -22.3871  -15.5792 C   0  0  1  0  0  0  0  0  0  0  0  0
   26.6550  -21.7607  -16.8994 C   0  0  0  0  0  0  0  0  0  0  0  0
   28.1623  -21.2664  -17.7743 S   0  0  0  0  0  0  0  0  0  0  0  0
   25.8652  -22.4954  -14.7351 C   0  0  0  0  0  0  0  0  0  0  0  0
   25.2072  -23.5650  -14.7235 O   0  0  0  0  0  0  0  0  0  0  0  0
   26.2169  -20.8325   -9.7418 C   0  0  0  0  0  0  0  0  0  0  0  0
   25.7693  -21.5443  -10.9592 C   0  0  0  0  0  0  0  0  0  0  0  0
   24.7105  -20.9523  -11.7863 C   0  0  2  0  0  0  0  0  0  0  0  0
   23.4844  -20.6057  -10.9008 C   0  0  0  0  0  0  0  0  0  0  0  0
   24.2825  -21.5819  -13.0553 C   0  0  2  0  0  0  0  0  0  0  0  0
   25.4743  -21.3841  -13.9485 N   0  0  0  0  0  0  0  0  0  0  0  0
   23.1845  -20.9371  -13.8089 C   0  0  0  0  0  0  0  0  0  0  0  0
   23.3003  -19.6946  -14.1339 O   0  0  0  0  0  0  0  0  0  0  0  0
   17.7660  -26.0601  -14.0572 O   0  0  0  0  0  0  0  0  0  0  0  0
   18.3737  -24.9149  -14.5788 C   0  0  0  0  0  0  0  0  0  0  0  0
   19.7225  -24.9633  -14.7969 C   0  0  0  0  0  0  0  0  0  0  0  0
   20.3746  -23.8680  -15.3083 C   0  0  0  0  0  0  0  0  0  0  0  0
   19.7066  -22.6911  -15.6187 C   0  0  0  0  0  0  0  0  0  0  0  0
   20.4574  -21.5480  -16.1255 C   0  0  0  0  0  0  0  0  0  0  0  0
   21.0118  -20.7473  -14.9612 C   0  0  2  0  0  0  0  0  0  0  0  0
   21.9878  -21.5577  -14.2333 N   0  0  0  0  0  0  0  0  0  0  0  0
   19.9005  -20.3626  -14.0892 C   0  0  0  0  0  0  0  0  0  0  0  0
   18.9076  -19.5317  -14.5556 O   0  0  0  0  0  0  0  0  0  0  0  0
   18.3522  -22.6626  -15.3922 C   0  0  0  0  0  0  0  0  0  0  0  0
   17.6643  -23.7660  -14.8717 C   0  0  0  0  0  0  0  0  0  0  0  0
   19.8403  -20.7799  -12.9187 O   0  0  0  0  0  0  0  0  0  0  0  0
  2  1  1  6
  3  4  1  0
  3  2  1  0
  5  6  2  0
  5  2  1  0
  8  7  1  0
  8  9  1  0
  9 11  1  0
  9 10  1  1
 11 12  1  6
 12  5  1  0
 13 11  1  0
 14 13  2  0
 16 17  2  0
 16 15  1  0
 18 17  1  0
 19 18  2  0
 21 20  1  6
 20 19  1  0
 21 22  1  0
 22 13  1  0
 23 24  1  0
 23 21  1  0
 25 19  1  0
 25 26  2  0
 26 16  1  0
 27 23  2  0
M  END
$$$$
