CIY.pdb
     RDKit          3D

 27 27  0  0  1  0  0  0  0  0999 V2000
   28.5065  -20.8089  -10.0620 N   0  0  0  0  0  0  0  0  0  0  0  0
   27.0950  -20.9537  -10.2184 C   0  0  1  0  0  0  0  0  0  0  0  0
   26.4171  -20.3013   -9.0272 C   0  0  0  0  0  0  0  0  0  0  0  0
   27.1443  -20.9985   -7.5216 S   0  0  0  0  0  0  0  0  0  0  0  0
   26.5742  -20.3203  -11.4402 C   0  0  0  0  0  0  0  0  0  0  0  0
   26.8868  -19.1337  -11.7077 O   0  0  0  0  0  0  0  0  0  0  0  0
   28.8265  -19.2624  -14.8282 C   0  0  0  0  0  0  0  0  0  0  0  0
   27.6138  -19.3509  -13.9852 C   0  0  0  0  0  0  0  0  0  0  0  0
   26.5652  -20.3159  -14.3384 C   0  0  2  0  0  0  0  0  0  0  0  0
   26.2814  -20.2488  -15.8624 C   0  0  0  0  0  0  0  0  0  0  0  0
   25.3026  -20.3960  -13.5707 C   0  0  2  0  0  0  0  0  0  0  0  0
   25.7259  -21.0666  -12.2946 N   0  0  0  0  0  0  0  0  0  0  0  0
   24.2387  -21.2870  -14.0841 C   0  0  0  0  0  0  0  0  0  0  0  0
   24.4398  -22.5607  -14.0802 O   0  0  0  0  0  0  0  0  0  0  0  0
   19.0701  -18.7995  -10.2414 O   0  0  0  0  0  0  0  0  0  0  0  0
   19.6317  -19.7557  -11.0918 C   0  0  0  0  0  0  0  0  0  0  0  0
   20.9641  -20.0237  -10.9433 C   0  0  0  0  0  0  0  0  0  0  0  0
   21.5710  -20.9542  -11.7509 C   0  0  0  0  0  0  0  0  0  0  0  0
   20.8727  -21.6470  -12.7307 C   0  0  0  0  0  0  0  0  0  0  0  0
   21.5780  -22.5978  -13.5827 C   0  0  0  0  0  0  0  0  0  0  0  0
   21.9883  -21.9153  -14.8749 C   0  0  2  0  0  0  0  0  0  0  0  0
   22.9814  -20.8812  -14.5858 N   0  0  0  0  0  0  0  0  0  0  0  0
   20.7958  -21.3337  -15.4937 C   0  0  0  0  0  0  0  0  0  0  0  0
   20.6877  -19.9703  -15.6466 O   0  0  0  0  0  0  0  0  0  0  0  0
   19.5355  -21.3633  -12.8641 C   0  0  0  0  0  0  0  0  0  0  0  0
   18.8935  -20.4191  -12.0531 C   0  0  0  0  0  0  0  0  0  0  0  0
   19.8673  -22.0623  -15.8873 O   0  0  0  0  0  0  0  0  0  0  0  0
  2  1  1  1
  3  4  1  0
  3  2  1  0
  5  6  2  0
  5  2  1  0
  8  7  1  0
  8  9  1  0
  9 11  1  0
  9 10  1  6
 11 12  1  1
 12  5  1  0
 13 11  1  0
 14 13  2  0
 16 17  2  0
 16 15  1  0
 18 17  1  0
 19 18  2  0
 21 20  1  1
 20 19  1  0
 21 22  1  0
 22 13  1  0
 23 24  1  0
 23 21  1  0
 25 19  1  0
 25 26  2  0
 26 16  1  0
 27 23  2  0
M  END
$$$$
