CIY.pdb
     RDKit          3D

 27 27  0  0  1  0  0  0  0  0999 V2000
   23.5689  -14.9448  -18.9200 N   0  0  0  0  0  0  0  0  0  0  0  0
   23.9223  -13.5677  -19.0478 C   0  0  1  0  0  0  0  0  0  0  0  0
   22.8192  -12.8653  -19.8185 C   0  0  0  0  0  0  0  0  0  0  0  0
   22.5900  -13.7422  -21.3870 S   0  0  0  0  0  0  0  0  0  0  0  0
   24.0804  -12.8823  -17.7553 C   0  0  0  0  0  0  0  0  0  0  0  0
   23.5831  -13.3870  -16.7184 O   0  0  0  0  0  0  0  0  0  0  0  0
   28.6342  -12.2226  -15.8536 C   0  0  0  0  0  0  0  0  0  0  0  0
   27.1615  -12.2755  -15.9860 C   0  0  0  0  0  0  0  0  0  0  0  0
   26.4119  -11.0238  -16.1500 C   0  0  2  0  0  0  0  0  0  0  0  0
   26.8134  -10.0214  -15.0358 C   0  0  0  0  0  0  0  0  0  0  0  0
   24.9462  -11.0256  -16.3537 C   0  0  2  0  0  0  0  0  0  0  0  0
   24.7946  -11.6599  -17.7072 N   0  0  0  0  0  0  0  0  0  0  0  0
   24.2710   -9.7189  -16.5152 C   0  0  0  0  0  0  0  0  0  0  0  0
   24.5881   -8.9760  -17.5204 O   0  0  0  0  0  0  0  0  0  0  0  0
   17.6247  -11.7521  -15.9029 O   0  0  0  0  0  0  0  0  0  0  0  0
   18.6125  -10.8147  -16.2169 C   0  0  0  0  0  0  0  0  0  0  0  0
   19.6699  -11.2442  -16.9696 C   0  0  0  0  0  0  0  0  0  0  0  0
   20.6712  -10.3676  -17.3094 C   0  0  0  0  0  0  0  0  0  0  0  0
   20.6526   -9.0376  -16.9119 C   0  0  0  0  0  0  0  0  0  0  0  0
   21.7617   -8.1616  -17.2724 C   0  0  0  0  0  0  0  0  0  0  0  0
   22.6396   -7.9265  -16.0566 C   0  0  2  0  0  0  0  0  0  0  0  0
   23.2770   -9.1833  -15.6652 N   0  0  0  0  0  0  0  0  0  0  0  0
   21.8044   -7.4063  -14.9724 C   0  0  0  0  0  0  0  0  0  0  0  0
   21.2001   -6.1757  -15.0908 O   0  0  0  0  0  0  0  0  0  0  0  0
   19.5820   -8.6258  -16.1563 C   0  0  0  0  0  0  0  0  0  0  0  0
   18.5486   -9.5000  -15.7968 C   0  0  0  0  0  0  0  0  0  0  0  0
   21.6317   -8.0679  -13.9331 O   0  0  0  0  0  0  0  0  0  0  0  0
  2  1  1  1
  3  4  1  0
  3  2  1  0
  5  6  2  0
  5  2  1  0
  8  7  1  0
  8  9  1  0
  9 11  1  0
  9 10  1  1
 11 12  1  6
 12  5  1  0
 13 11  1  0
 14 13  2  0
 16 17  2  0
 16 15  1  0
 18 17  1  0
 19 18  2  0
 21 20  1  6
 20 19  1  0
 21 22  1  0
 22 13  1  0
 23 24  1  0
 23 21  1  0
 25 19  1  0
 25 26  2  0
 26 16  1  0
 27 23  2  0
M  END
$$$$
