CIY.pdb
     RDKit          3D

 27 27  0  0  1  0  0  0  0  0999 V2000
   28.4810  -20.6146  -15.0995 N   0  0  0  0  0  0  0  0  0  0  0  0
   27.8134  -19.8644  -14.0851 C   0  0  1  0  0  0  0  0  0  0  0  0
   27.1185  -18.6879  -14.7461 C   0  0  0  0  0  0  0  0  0  0  0  0
   28.3955  -17.5886  -15.4114 S   0  0  0  0  0  0  0  0  0  0  0  0
   26.7976  -20.6409  -13.3567 C   0  0  0  0  0  0  0  0  0  0  0  0
   26.3004  -21.6657  -13.8856 O   0  0  0  0  0  0  0  0  0  0  0  0
   26.0362  -19.8365   -7.6944 C   0  0  0  0  0  0  0  0  0  0  0  0
   25.7900  -19.7929   -9.1527 C   0  0  0  0  0  0  0  0  0  0  0  0
   25.9074  -21.0292   -9.9359 C   0  0  2  0  0  0  0  0  0  0  0  0
   27.3468  -21.5951   -9.8114 C   0  0  0  0  0  0  0  0  0  0  0  0
   25.4323  -21.1016  -11.3356 C   0  0  2  0  0  0  0  0  0  0  0  0
   26.3992  -20.2136  -12.0662 N   0  0  0  0  0  0  0  0  0  0  0  0
   24.1173  -20.5001  -11.6493 C   0  0  0  0  0  0  0  0  0  0  0  0
   24.0607  -19.2428  -11.9302 O   0  0  0  0  0  0  0  0  0  0  0  0
   17.9380  -18.0482  -16.7590 O   0  0  0  0  0  0  0  0  0  0  0  0
   19.0080  -18.5767  -16.0318 C   0  0  0  0  0  0  0  0  0  0  0  0
   19.2477  -19.9174  -16.1511 C   0  0  0  0  0  0  0  0  0  0  0  0
   20.2858  -20.4929  -15.4601 C   0  0  0  0  0  0  0  0  0  0  0  0
   21.1176  -19.7542  -14.6295 C   0  0  0  0  0  0  0  0  0  0  0  0
   22.1821  -20.4260  -13.8928 C   0  0  0  0  0  0  0  0  0  0  0  0
   21.7804  -20.5682  -12.4359 C   0  0  2  0  0  0  0  0  0  0  0  0
   22.8776  -21.1778  -11.6851 N   0  0  0  0  0  0  0  0  0  0  0  0
   20.5760  -21.3974  -12.3634 C   0  0  0  0  0  0  0  0  0  0  0  0
   20.6707  -22.7679  -12.4445 O   0  0  0  0  0  0  0  0  0  0  0  0
   20.8602  -18.4092  -14.5231 C   0  0  0  0  0  0  0  0  0  0  0  0
   19.8081  -17.7987  -15.2172 C   0  0  0  0  0  0  0  0  0  0  0  0
   19.4549  -20.8752  -12.2289 O   0  0  0  0  0  0  0  0  0  0  0  0
  2  1  1  6
  3  4  1  0
  3  2  1  0
  5  6  2  0
  5  2  1  0
  8  7  1  0
  8  9  1  0
  9 11  1  0
  9 10  1  6
 11 12  1  6
 12  5  1  0
 13 11  1  0
 14 13  2  0
 16 17  2  0
 16 15  1  0
 18 17  1  0
 19 18  2  0
 21 20  1  6
 20 19  1  0
 21 22  1  0
 22 13  1  0
 23 24  1  0
 23 21  1  0
 25 19  1  0
 25 26  2  0
 26 16  1  0
 27 23  2  0
M  END
$$$$
