CIY.pdb
     RDKit          3D

 27 27  0  0  1  0  0  0  0  0999 V2000
   27.0880  -20.8214  -17.2556 N   0  0  0  0  0  0  0  0  0  0  0  0
   26.5485  -20.0112  -16.2115 C   0  0  1  0  0  0  0  0  0  0  0  0
   25.5122  -19.0835  -16.8193 C   0  0  0  0  0  0  0  0  0  0  0  0
   26.3624  -17.9825  -17.9797 S   0  0  0  0  0  0  0  0  0  0  0  0
   25.8935  -20.7886  -15.1475 C   0  0  0  0  0  0  0  0  0  0  0  0
   25.5002  -21.9578  -15.3833 O   0  0  0  0  0  0  0  0  0  0  0  0
   28.5380  -21.4323  -10.9244 C   0  0  0  0  0  0  0  0  0  0  0  0
   27.5170  -21.5607  -11.9874 C   0  0  0  0  0  0  0  0  0  0  0  0
   26.1622  -21.0495  -11.7445 C   0  0  2  0  0  0  0  0  0  0  0  0
   25.6092  -21.6367  -10.4190 C   0  0  0  0  0  0  0  0  0  0  0  0
   25.1288  -21.0746  -12.8034 C   0  0  2  0  0  0  0  0  0  0  0  0
   25.7192  -20.1985  -13.8716 N   0  0  0  0  0  0  0  0  0  0  0  0
   23.8300  -20.4273  -12.5147 C   0  0  0  0  0  0  0  0  0  0  0  0
   23.8257  -19.2302  -12.0354 O   0  0  0  0  0  0  0  0  0  0  0  0
   16.9405  -15.7854  -13.8319 O   0  0  0  0  0  0  0  0  0  0  0  0
   18.1154  -16.5376  -13.7496 C   0  0  0  0  0  0  0  0  0  0  0  0
   18.3230  -17.4860  -14.7121 C   0  0  0  0  0  0  0  0  0  0  0  0
   19.4600  -18.2559  -14.6829 C   0  0  0  0  0  0  0  0  0  0  0  0
   20.4256  -18.1071  -13.6964 C   0  0  0  0  0  0  0  0  0  0  0  0
   21.5958  -18.9776  -13.6957 C   0  0  0  0  0  0  0  0  0  0  0  0
   21.3916  -20.1030  -12.6978 C   0  0  2  0  0  0  0  0  0  0  0  0
   22.5518  -20.9932  -12.7228 N   0  0  0  0  0  0  0  0  0  0  0  0
   20.1712  -20.8279  -13.0564 C   0  0  0  0  0  0  0  0  0  0  0  0
   20.1952  -21.7785  -14.0512 O   0  0  0  0  0  0  0  0  0  0  0  0
   20.1983  -17.1492  -12.7387 C   0  0  0  0  0  0  0  0  0  0  0  0
   19.0472  -16.3515  -12.7466 C   0  0  0  0  0  0  0  0  0  0  0  0
   19.0998  -20.5938  -12.4688 O   0  0  0  0  0  0  0  0  0  0  0  0
  2  1  1  6
  3  4  1  0
  3  2  1  0
  5  6  2  0
  5  2  1  0
  8  7  1  0
  8  9  1  0
  9 11  1  0
  9 10  1  1
 11 12  1  6
 12  5  1  0
 13 11  1  0
 14 13  2  0
 16 17  2  0
 16 15  1  0
 18 17  1  0
 19 18  2  0
 21 20  1  6
 20 19  1  0
 21 22  1  0
 22 13  1  0
 23 24  1  0
 23 21  1  0
 25 19  1  0
 25 26  2  0
 26 16  1  0
 27 23  2  0
M  END
$$$$
