CIY.pdb
     RDKit          3D

 27 27  0  0  1  0  0  0  0  0999 V2000
   19.4316  -20.9677  -10.7689 N   0  0  0  0  0  0  0  0  0  0  0  0
   20.3749  -21.6615  -11.5852 C   0  0  1  0  0  0  0  0  0  0  0  0
   19.6593  -22.1360  -12.8369 C   0  0  0  0  0  0  0  0  0  0  0  0
   18.6746  -23.5917  -12.3977 S   0  0  0  0  0  0  0  0  0  0  0  0
   21.5131  -20.8269  -12.0017 C   0  0  0  0  0  0  0  0  0  0  0  0
   21.3884  -19.5777  -12.0376 O   0  0  0  0  0  0  0  0  0  0  0  0
   25.8450  -21.2723   -9.3531 C   0  0  0  0  0  0  0  0  0  0  0  0
   24.7573  -20.8414  -10.2588 C   0  0  0  0  0  0  0  0  0  0  0  0
   24.9284  -20.9984  -11.7085 C   0  0  2  0  0  0  0  0  0  0  0  0
   26.3287  -20.4807  -12.1312 C   0  0  0  0  0  0  0  0  0  0  0  0
   23.8897  -20.5442  -12.6597 C   0  0  2  0  0  0  0  0  0  0  0  0
   22.7331  -21.4536  -12.3556 N   0  0  0  0  0  0  0  0  0  0  0  0
   24.1287  -20.7718  -14.1021 C   0  0  0  0  0  0  0  0  0  0  0  0
   24.4640  -21.9526  -14.4973 O   0  0  0  0  0  0  0  0  0  0  0  0
   19.0736  -16.6272  -16.7236 O   0  0  0  0  0  0  0  0  0  0  0  0
   20.0397  -17.6358  -16.7731 C   0  0  0  0  0  0  0  0  0  0  0  0
   20.7733  -17.7476  -17.9213 C   0  0  0  0  0  0  0  0  0  0  0  0
   21.7372  -18.7201  -18.0278 C   0  0  0  0  0  0  0  0  0  0  0  0
   22.0018  -19.6114  -16.9967 C   0  0  0  0  0  0  0  0  0  0  0  0
   23.0128  -20.6467  -17.1801 C   0  0  0  0  0  0  0  0  0  0  0  0
   24.3025  -20.2236  -16.5008 C   0  0  2  0  0  0  0  0  0  0  0  0
   24.0165  -19.8067  -15.1284 N   0  0  0  0  0  0  0  0  0  0  0  0
   24.8937  -19.1246  -17.2664 C   0  0  0  0  0  0  0  0  0  0  0  0
   25.3111  -19.3268  -18.5620 O   0  0  0  0  0  0  0  0  0  0  0  0
   21.2540  -19.4828  -15.8518 C   0  0  0  0  0  0  0  0  0  0  0  0
   20.2656  -18.4996  -15.7186 C   0  0  0  0  0  0  0  0  0  0  0  0
   25.0265  -17.9974  -16.7567 O   0  0  0  0  0  0  0  0  0  0  0  0
  2  1  1  1
  3  4  1  0
  3  2  1  0
  5  6  2  0
  5  2  1  0
  8  7  1  0
  8  9  1  0
  9 11  1  0
  9 10  1  6
 11 12  1  1
 12  5  1  0
 13 11  1  0
 14 13  2  0
 16 17  2  0
 16 15  1  0
 18 17  1  0
 19 18  2  0
 21 20  1  6
 20 19  1  0
 21 22  1  0
 22 13  1  0
 23 24  1  0
 23 21  1  0
 25 19  1  0
 25 26  2  0
 26 16  1  0
 27 23  2  0
M  END
$$$$
