CIY.pdb
     RDKit          3D

 27 27  0  0  1  0  0  0  0  0999 V2000
   24.8849  -19.7303  -20.4576 N   0  0  0  0  0  0  0  0  0  0  0  0
   24.4997  -19.2088  -19.1860 C   0  0  1  0  0  0  0  0  0  0  0  0
   22.9972  -19.3706  -19.0432 C   0  0  0  0  0  0  0  0  0  0  0  0
   22.2009  -18.1030  -20.0635 S   0  0  0  0  0  0  0  0  0  0  0  0
   25.1399  -19.8967  -18.0536 C   0  0  0  0  0  0  0  0  0  0  0  0
   25.0939  -21.1496  -17.9801 O   0  0  0  0  0  0  0  0  0  0  0  0
   30.0199  -18.4284  -16.8745 C   0  0  0  0  0  0  0  0  0  0  0  0
   28.7563  -19.1872  -17.0038 C   0  0  0  0  0  0  0  0  0  0  0  0
   27.8095  -19.1979  -15.8818 C   0  0  2  0  0  0  0  0  0  0  0  0
   28.5475  -19.5938  -14.5756 C   0  0  0  0  0  0  0  0  0  0  0  0
   26.5061  -19.8915  -15.9812 C   0  0  2  0  0  0  0  0  0  0  0  0
   25.7989  -19.1267  -17.0639 N   0  0  0  0  0  0  0  0  0  0  0  0
   25.5796  -19.7860  -14.8323 C   0  0  0  0  0  0  0  0  0  0  0  0
   25.2476  -18.6146  -14.4077 O   0  0  0  0  0  0  0  0  0  0  0  0
   19.3638  -19.6888   -8.9520 O   0  0  0  0  0  0  0  0  0  0  0  0
   20.1803  -19.9346  -10.0593 C   0  0  0  0  0  0  0  0  0  0  0  0
   20.5658  -21.2273  -10.2811 C   0  0  0  0  0  0  0  0  0  0  0  0
   21.3683  -21.5295  -11.3540 C   0  0  0  0  0  0  0  0  0  0  0  0
   21.8122  -20.5566  -12.2393 C   0  0  0  0  0  0  0  0  0  0  0  0
   22.6922  -20.9313  -13.3406 C   0  0  0  0  0  0  0  0  0  0  0  0
   24.1230  -20.5582  -12.9975 C   0  0  2  0  0  0  0  0  0  0  0  0
   24.9922  -20.8647  -14.1331 N   0  0  0  0  0  0  0  0  0  0  0  0
   24.5299  -21.3138  -11.8114 C   0  0  0  0  0  0  0  0  0  0  0  0
   24.3745  -20.7719  -10.5560 O   0  0  0  0  0  0  0  0  0  0  0  0
   21.4142  -19.2642  -11.9991 C   0  0  0  0  0  0  0  0  0  0  0  0
   20.5963  -18.9304  -10.9123 C   0  0  0  0  0  0  0  0  0  0  0  0
   25.0206  -22.4516  -11.9230 O   0  0  0  0  0  0  0  0  0  0  0  0
  2  1  1  6
  3  4  1  0
  3  2  1  0
  5  6  2  0
  5  2  1  0
  8  7  1  0
  8  9  1  0
  9 11  1  0
  9 10  1  1
 11 12  1  6
 12  5  1  0
 13 11  1  0
 14 13  2  0
 16 17  2  0
 16 15  1  0
 18 17  1  0
 19 18  2  0
 21 20  1  6
 20 19  1  0
 21 22  1  0
 22 13  1  0
 23 24  1  0
 23 21  1  0
 25 19  1  0
 25 26  2  0
 26 16  1  0
 27 23  2  0
M  END
$$$$
