CIY.pdb
     RDKit          3D

 27 27  0  0  1  0  0  0  0  0999 V2000
   24.7357  -20.4019   -8.3986 N   0  0  0  0  0  0  0  0  0  0  0  0
   24.5844  -21.0146   -9.6789 C   0  0  1  0  0  0  0  0  0  0  0  0
   23.1386  -20.8545  -10.1127 C   0  0  0  0  0  0  0  0  0  0  0  0
   22.1008  -21.7637   -8.9389 S   0  0  0  0  0  0  0  0  0  0  0  0
   25.4388  -20.4174  -10.7175 C   0  0  0  0  0  0  0  0  0  0  0  0
   25.5009  -19.1681  -10.8296 O   0  0  0  0  0  0  0  0  0  0  0  0
   30.3584  -21.4869  -10.7298 C   0  0  0  0  0  0  0  0  0  0  0  0
   29.0176  -20.9173  -10.9888 C   0  0  0  0  0  0  0  0  0  0  0  0
   28.3913  -21.1277  -12.2999 C   0  0  2  0  0  0  0  0  0  0  0  0
   29.3944  -20.7618  -13.4258 C   0  0  0  0  0  0  0  0  0  0  0  0
   27.0433  -20.5977  -12.6029 C   0  0  2  0  0  0  0  0  0  0  0  0
   26.1780  -21.2693  -11.5745 N   0  0  0  0  0  0  0  0  0  0  0  0
   26.4177  -20.9957  -13.8833 C   0  0  0  0  0  0  0  0  0  0  0  0
   26.4501  -22.2371  -14.2309 O   0  0  0  0  0  0  0  0  0  0  0  0
   19.4839  -19.0790  -13.7681 O   0  0  0  0  0  0  0  0  0  0  0  0
   20.6578  -19.7215  -14.1707 C   0  0  0  0  0  0  0  0  0  0  0  0
   20.7515  -20.0950  -15.4825 C   0  0  0  0  0  0  0  0  0  0  0  0
   21.8817  -20.7300  -15.9361 C   0  0  0  0  0  0  0  0  0  0  0  0
   22.9534  -21.0135  -15.1002 C   0  0  0  0  0  0  0  0  0  0  0  0
   24.1131  -21.7222  -15.6296 C   0  0  0  0  0  0  0  0  0  0  0  0
   25.1915  -20.7225  -16.0061 C   0  0  2  0  0  0  0  0  0  0  0  0
   25.7585  -20.1369  -14.7917 N   0  0  0  0  0  0  0  0  0  0  0  0
   24.5933  -19.6885  -16.8526 C   0  0  0  0  0  0  0  0  0  0  0  0
   24.5527  -18.3805  -16.4270 O   0  0  0  0  0  0  0  0  0  0  0  0
   22.8397  -20.6304  -13.7861 C   0  0  0  0  0  0  0  0  0  0  0  0
   21.6980  -19.9816  -13.2993 C   0  0  0  0  0  0  0  0  0  0  0  0
   24.1148  -19.9786  -17.9638 O   0  0  0  0  0  0  0  0  0  0  0  0
  2  1  1  1
  3  4  1  0
  3  2  1  0
  5  6  2  0
  5  2  1  0
  8  7  1  0
  8  9  1  0
  9 11  1  0
  9 10  1  6
 11 12  1  1
 12  5  1  0
 13 11  1  0
 14 13  2  0
 16 17  2  0
 16 15  1  0
 18 17  1  0
 19 18  2  0
 21 20  1  1
 20 19  1  0
 21 22  1  0
 22 13  1  0
 23 24  1  0
 23 21  1  0
 25 19  1  0
 25 26  2  0
 26 16  1  0
 27 23  2  0
M  END
$$$$
