CIY.pdb
     RDKit          3D

 27 27  0  0  1  0  0  0  0  0999 V2000
   18.3373  -13.5938  -16.4144 N   0  0  0  0  0  0  0  0  0  0  0  0
   18.6247  -12.2327  -16.7343 C   0  0  1  0  0  0  0  0  0  0  0  0
   17.3089  -11.4833  -16.8408 C   0  0  0  0  0  0  0  0  0  0  0  0
   16.4908  -12.0084  -18.3694 S   0  0  0  0  0  0  0  0  0  0  0  0
   19.4517  -11.5564  -15.7223 C   0  0  0  0  0  0  0  0  0  0  0  0
   19.2126  -11.7354  -14.5025 O   0  0  0  0  0  0  0  0  0  0  0  0
   24.4290  -12.4016  -15.4601 C   0  0  0  0  0  0  0  0  0  0  0  0
   23.0451  -11.9648  -15.1719 C   0  0  0  0  0  0  0  0  0  0  0  0
   22.6906  -10.5502  -15.3419 C   0  0  2  0  0  0  0  0  0  0  0  0
   23.7477   -9.6561  -14.6415 C   0  0  0  0  0  0  0  0  0  0  0  0
   21.3214  -10.0614  -15.0661 C   0  0  2  0  0  0  0  0  0  0  0  0
   20.5067  -10.7123  -16.1478 N   0  0  0  0  0  0  0  0  0  0  0  0
   21.0517   -8.6196  -15.2610 C   0  0  0  0  0  0  0  0  0  0  0  0
   21.1800   -8.1179  -16.4420 O   0  0  0  0  0  0  0  0  0  0  0  0
   16.9856   -6.7390   -9.3309 O   0  0  0  0  0  0  0  0  0  0  0  0
   17.4638   -6.6248  -10.6391 C   0  0  0  0  0  0  0  0  0  0  0  0
   17.8770   -5.3885  -11.0513 C   0  0  0  0  0  0  0  0  0  0  0  0
   18.3568   -5.2153  -12.3265 C   0  0  0  0  0  0  0  0  0  0  0  0
   18.4409   -6.2651  -13.2312 C   0  0  0  0  0  0  0  0  0  0  0  0
   18.9254   -6.0142  -14.5838 C   0  0  0  0  0  0  0  0  0  0  0  0
   20.4113   -6.3157  -14.6557 C   0  0  2  0  0  0  0  0  0  0  0  0
   20.6463   -7.7048  -14.2629 N   0  0  0  0  0  0  0  0  0  0  0  0
   21.1172   -5.3954  -13.7622 C   0  0  0  0  0  0  0  0  0  0  0  0
   21.1463   -4.0472  -14.0364 O   0  0  0  0  0  0  0  0  0  0  0  0
   18.0208   -7.4989  -12.7979 C   0  0  0  0  0  0  0  0  0  0  0  0
   17.5277   -7.7013  -11.5027 C   0  0  0  0  0  0  0  0  0  0  0  0
   21.6986   -5.8193  -12.7473 O   0  0  0  0  0  0  0  0  0  0  0  0
  2  1  1  1
  3  4  1  0
  3  2  1  0
  5  6  2  0
  5  2  1  0
  8  7  1  0
  8  9  1  0
  9 11  1  0
  9 10  1  1
 11 12  1  6
 12  5  1  0
 13 11  1  0
 14 13  2  0
 16 17  2  0
 16 15  1  0
 18 17  1  0
 19 18  2  0
 21 20  1  1
 20 19  1  0
 21 22  1  0
 22 13  1  0
 23 24  1  0
 23 21  1  0
 25 19  1  0
 25 26  2  0
 26 16  1  0
 27 23  2  0
M  END
$$$$
