CIY.pdb
     RDKit          3D

 27 27  0  0  1  0  0  0  0  0999 V2000
   28.8597  -20.4626  -14.8311 N   0  0  0  0  0  0  0  0  0  0  0  0
   27.6762  -19.8187  -14.3596 C   0  0  1  0  0  0  0  0  0  0  0  0
   26.9688  -19.1973  -15.5502 C   0  0  0  0  0  0  0  0  0  0  0  0
   28.1505  -18.1187  -16.3997 S   0  0  0  0  0  0  0  0  0  0  0  0
   26.7341  -20.7370  -13.7004 C   0  0  0  0  0  0  0  0  0  0  0  0
   27.0641  -21.9331  -13.5061 O   0  0  0  0  0  0  0  0  0  0  0  0
   27.2501  -21.2310   -9.2386 C   0  0  0  0  0  0  0  0  0  0  0  0
   26.5766  -21.5747  -10.5104 C   0  0  0  0  0  0  0  0  0  0  0  0
   25.5014  -20.7077  -11.0082 C   0  0  2  0  0  0  0  0  0  0  0  0
   24.5320  -20.3550   -9.8491 C   0  0  0  0  0  0  0  0  0  0  0  0
   24.7510  -21.0419  -12.2391 C   0  0  2  0  0  0  0  0  0  0  0  0
   25.4670  -20.2498  -13.2960 N   0  0  0  0  0  0  0  0  0  0  0  0
   23.3546  -20.5643  -12.3464 C   0  0  0  0  0  0  0  0  0  0  0  0
   23.1359  -19.2953  -12.4150 O   0  0  0  0  0  0  0  0  0  0  0  0
   23.6362  -17.4531  -17.9101 O   0  0  0  0  0  0  0  0  0  0  0  0
   23.0132  -18.3915  -17.0828 C   0  0  0  0  0  0  0  0  0  0  0  0
   23.6144  -19.6125  -16.9535 C   0  0  0  0  0  0  0  0  0  0  0  0
   23.0482  -20.5749  -16.1537 C   0  0  0  0  0  0  0  0  0  0  0  0
   21.8673  -20.3536  -15.4580 C   0  0  0  0  0  0  0  0  0  0  0  0
   21.2936  -21.4254  -14.6521 C   0  0  0  0  0  0  0  0  0  0  0  0
   21.0822  -20.9353  -13.2311 C   0  0  2  0  0  0  0  0  0  0  0  0
   22.1976  -21.3744  -12.3931 N   0  0  0  0  0  0  0  0  0  0  0  0
   19.8146  -21.4752  -12.7358 C   0  0  0  0  0  0  0  0  0  0  0  0
   18.6191  -20.9535  -13.1743 O   0  0  0  0  0  0  0  0  0  0  0  0
   21.2788  -19.1209  -15.6014 C   0  0  0  0  0  0  0  0  0  0  0  0
   21.8363  -18.1230  -16.4106 C   0  0  0  0  0  0  0  0  0  0  0  0
   19.8022  -22.4093  -11.9140 O   0  0  0  0  0  0  0  0  0  0  0  0
  2  1  1  6
  3  4  1  0
  3  2  1  0
  5  6  2  0
  5  2  1  0
  8  7  1  0
  8  9  1  0
  9 11  1  0
  9 10  1  1
 11 12  1  6
 12  5  1  0
 13 11  1  0
 14 13  2  0
 16 17  2  0
 16 15  1  0
 18 17  1  0
 19 18  2  0
 21 20  1  6
 20 19  1  0
 21 22  1  0
 22 13  1  0
 23 24  1  0
 23 21  1  0
 25 19  1  0
 25 26  2  0
 26 16  1  0
 27 23  2  0
M  END
$$$$
