QFQ.pdb
     RDKit          3D

 30 30  0  0  1  0  0  0  0  0999 V2000
    9.3113  -13.1895   15.8389 N   0  0  0  0  0  0  0  0  0  0  0  0
    8.0144  -13.7871   16.0097 C   0  0  0  0  0  0  0  0  0  0  0  0
    7.2524  -13.8447   15.0224 O   0  0  0  0  0  0  0  0  0  0  0  0
    7.6079  -14.3067   17.3090 C   0  0  0  0  0  0  0  0  0  0  0  0
    8.6152  -14.2496   18.4097 C   0  0  0  0  0  0  0  0  0  0  0  0
    8.6935  -15.4710   19.2814 C   0  0  2  0  0  0  0  0  0  0  0  0
    7.6866  -16.4174   19.0578 N   0  0  0  0  0  0  0  0  0  0  0  0
    8.9129  -15.1159   20.7092 C   0  0  0  0  0  0  0  0  0  0  0  0
   10.0980  -15.0617   21.1034 O   0  0  0  0  0  0  0  0  0  0  0  0
    7.8818  -14.8388   21.6388 N   0  0  0  0  0  0  0  0  0  0  0  0
    8.0163  -14.4607   22.9964 C   0  0  1  0  0  0  0  0  0  0  0  0
    6.9044  -13.6028   23.5659 C   0  0  0  0  0  0  0  0  0  0  0  0
    7.0572  -13.2471   24.9700 C   0  0  0  0  0  0  0  0  0  0  0  0
    7.7341  -12.0872   25.2890 C   0  0  0  0  0  0  0  0  0  0  0  0
    7.9149  -11.7052   26.5904 C   0  0  0  0  0  0  0  0  0  0  0  0
    7.4142  -12.4883   27.6177 C   0  0  0  0  0  0  0  0  0  0  0  0
    6.7377  -13.6456   27.3350 C   0  0  0  0  0  0  0  0  0  0  0  0
    6.5681  -14.0109   25.9994 C   0  0  0  0  0  0  0  0  0  0  0  0
    8.2957  -15.5400   23.9522 C   0  0  0  0  0  0  0  0  0  0  0  0
    7.5313  -16.5436   24.0369 O   0  0  0  0  0  0  0  0  0  0  0  0
   12.3227  -20.9132   24.5063 N   0  0  0  0  0  0  0  0  0  0  0  0
   12.4450  -19.4737   24.4867 C   0  0  0  0  0  0  0  0  0  0  0  0
   13.3494  -19.0253   23.7791 O   0  0  0  0  0  0  0  0  0  0  0  0
   11.5300  -18.6869   25.2726 C   0  0  0  0  0  0  0  0  0  0  0  0
   10.9085  -17.4783   24.7133 C   0  0  0  0  0  0  0  0  0  0  0  0
    9.9044  -16.7397   25.5054 C   0  0  2  0  0  0  0  0  0  0  0  0
    9.4120  -15.5495   24.8350 N   0  0  0  0  0  0  0  0  0  0  0  0
   10.2371  -16.4408   26.8882 C   0  0  0  0  0  0  0  0  0  0  0  0
   10.2514  -17.4352   27.8530 O   0  0  0  0  0  0  0  0  0  0  0  0
   10.5150  -15.2754   27.2471 O   0  0  0  0  0  0  0  0  0  0  0  0
  2  3  2  0
  2  1  1  0
  4  2  1  0
  5  6  1  0
  5  4  1  0
  6  7  1  1
  8  6  1  0
  9  8  2  0
 10  8  1  0
 11 12  1  1
 11 10  1  0
 12 13  1  0
 13 18  2  0
 14 13  1  0
 14 15  2  0
 15 16  1  0
 16 17  2  0
 18 17  1  0
 19 20  2  0
 19 11  1  0
 22 21  1  0
 22 24  1  0
 23 22  2  0
 25 24  1  0
 26 25  1  6
 26 27  1  0
 27 19  1  0
 28 26  1  0
 28 29  1  0
 30 28  2  0
M  END
$$$$
