QFQ.pdb
     RDKit          3D

 30 30  0  0  1  0  0  0  0  0999 V2000
    9.4499  -14.3041   15.5387 N   0  0  0  0  0  0  0  0  0  0  0  0
    8.0857  -14.5634   15.9125 C   0  0  0  0  0  0  0  0  0  0  0  0
    7.2145  -14.5626   15.0182 O   0  0  0  0  0  0  0  0  0  0  0  0
    7.7386  -14.8164   17.3051 C   0  0  0  0  0  0  0  0  0  0  0  0
    8.8510  -14.7816   18.3003 C   0  0  0  0  0  0  0  0  0  0  0  0
    8.7711  -15.8041   19.3986 C   0  0  2  0  0  0  0  0  0  0  0  0
    7.7041  -16.7032   19.2871 N   0  0  0  0  0  0  0  0  0  0  0  0
    8.9296  -15.1839   20.7413 C   0  0  0  0  0  0  0  0  0  0  0  0
   10.0663  -14.7553   21.0364 O   0  0  0  0  0  0  0  0  0  0  0  0
    7.8918  -15.0488   21.6947 N   0  0  0  0  0  0  0  0  0  0  0  0
    7.9888  -14.5582   23.0191 C   0  0  1  0  0  0  0  0  0  0  0  0
    6.7503  -13.8861   23.5767 C   0  0  0  0  0  0  0  0  0  0  0  0
    6.8950  -13.3435   24.9205 C   0  0  0  0  0  0  0  0  0  0  0  0
    6.2517  -13.9788   25.9636 C   0  0  0  0  0  0  0  0  0  0  0  0
    6.3452  -13.5112   27.2461 C   0  0  0  0  0  0  0  0  0  0  0  0
    7.0965  -12.3795   27.5173 C   0  0  0  0  0  0  0  0  0  0  0  0
    7.7473  -11.7254   26.5047 C   0  0  0  0  0  0  0  0  0  0  0  0
    7.6346  -12.2240   25.2066 C   0  0  0  0  0  0  0  0  0  0  0  0
    8.4935  -15.4966   24.0296 C   0  0  0  0  0  0  0  0  0  0  0  0
    7.8687  -16.5645   24.2907 O   0  0  0  0  0  0  0  0  0  0  0  0
   14.6312  -16.2580   23.8186 N   0  0  0  0  0  0  0  0  0  0  0  0
   14.2540  -17.2588   24.7902 C   0  0  0  0  0  0  0  0  0  0  0  0
   15.1566  -18.0159   25.1532 O   0  0  0  0  0  0  0  0  0  0  0  0
   12.8906  -17.3015   25.2515 C   0  0  0  0  0  0  0  0  0  0  0  0
   11.9118  -16.3062   24.7919 C   0  0  0  0  0  0  0  0  0  0  0  0
   10.5203  -16.3689   25.2829 C   0  0  2  0  0  0  0  0  0  0  0  0
    9.6876  -15.2925   24.7766 N   0  0  0  0  0  0  0  0  0  0  0  0
   10.3269  -16.5282   26.7144 C   0  0  0  0  0  0  0  0  0  0  0  0
   10.1677  -15.4290   27.5429 O   0  0  0  0  0  0  0  0  0  0  0  0
   10.3037  -17.6630   27.2395 O   0  0  0  0  0  0  0  0  0  0  0  0
  2  3  2  0
  2  1  1  0
  4  2  1  0
  5  6  1  0
  5  4  1  0
  6  7  1  1
  8  6  1  0
  9  8  2  0
 10  8  1  0
 11 12  1  1
 11 10  1  0
 12 13  1  0
 13 18  2  0
 14 13  1  0
 14 15  2  0
 15 16  1  0
 16 17  2  0
 18 17  1  0
 19 20  2  0
 19 11  1  0
 22 21  1  0
 22 24  1  0
 23 22  2  0
 25 24  1  0
 26 25  1  1
 26 27  1  0
 27 19  1  0
 28 26  1  0
 28 29  1  0
 30 28  2  0
M  END
$$$$
