QFQ.pdb
     RDKit          3D

 30 30  0  0  1  0  0  0  0  0999 V2000
    9.1810  -13.4013   16.4457 N   0  0  0  0  0  0  0  0  0  0  0  0
    8.1248  -14.3479   16.6835 C   0  0  0  0  0  0  0  0  0  0  0  0
    7.1784  -14.3983   15.8709 O   0  0  0  0  0  0  0  0  0  0  0  0
    8.1661  -15.2204   17.8500 C   0  0  0  0  0  0  0  0  0  0  0  0
    9.3790  -15.1396   18.7171 C   0  0  0  0  0  0  0  0  0  0  0  0
    9.3672  -16.0224   19.9330 C   0  0  2  0  0  0  0  0  0  0  0  0
    8.4269  -17.0588   19.8969 N   0  0  0  0  0  0  0  0  0  0  0  0
    9.3755  -15.2281   21.1907 C   0  0  0  0  0  0  0  0  0  0  0  0
   10.3895  -14.5319   21.4139 O   0  0  0  0  0  0  0  0  0  0  0  0
    8.3245  -15.2088   22.1391 N   0  0  0  0  0  0  0  0  0  0  0  0
    8.2802  -14.5122   23.3707 C   0  0  1  0  0  0  0  0  0  0  0  0
    6.9191  -14.0072   23.8058 C   0  0  0  0  0  0  0  0  0  0  0  0
    6.9046  -13.2847   25.0704 C   0  0  0  0  0  0  0  0  0  0  0  0
    6.3210  -13.8841   26.1683 C   0  0  0  0  0  0  0  0  0  0  0  0
    6.2713  -13.2513   27.3805 C   0  0  0  0  0  0  0  0  0  0  0  0
    6.8134  -11.9844   27.5228 C   0  0  0  0  0  0  0  0  0  0  0  0
    7.3998  -11.3617   26.4526 C   0  0  0  0  0  0  0  0  0  0  0  0
    7.4363  -12.0300   25.2286 C   0  0  0  0  0  0  0  0  0  0  0  0
    8.9109  -15.1735   24.5202 C   0  0  0  0  0  0  0  0  0  0  0  0
    8.9844  -14.5928   25.6410 O   0  0  0  0  0  0  0  0  0  0  0  0
    6.7009  -20.1823   26.6683 N   0  0  0  0  0  0  0  0  0  0  0  0
    7.7774  -19.9471   27.6029 C   0  0  0  0  0  0  0  0  0  0  0  0
    7.7458  -20.6231   28.6333 O   0  0  0  0  0  0  0  0  0  0  0  0
    8.7813  -18.9679   27.2758 C   0  0  0  0  0  0  0  0  0  0  0  0
    8.6424  -18.1212   26.0826 C   0  0  0  0  0  0  0  0  0  0  0  0
    9.7734  -17.2750   25.6513 C   0  0  2  0  0  0  0  0  0  0  0  0
    9.4744  -16.4796   24.4739 N   0  0  0  0  0  0  0  0  0  0  0  0
   11.0694  -17.9177   25.5124 C   0  0  0  0  0  0  0  0  0  0  0  0
   12.0740  -17.7144   26.4450 O   0  0  0  0  0  0  0  0  0  0  0  0
   11.3160  -18.6689   24.5433 O   0  0  0  0  0  0  0  0  0  0  0  0
  2  3  2  0
  2  1  1  0
  4  2  1  0
  5  6  1  0
  5  4  1  0
  6  7  1  6
  8  6  1  0
  9  8  2  0
 10  8  1  0
 11 12  1  1
 11 10  1  0
 12 13  1  0
 13 18  2  0
 14 13  1  0
 14 15  2  0
 15 16  1  0
 16 17  2  0
 18 17  1  0
 19 20  2  0
 19 11  1  0
 22 21  1  0
 22 24  1  0
 23 22  2  0
 25 24  1  0
 26 25  1  6
 26 27  1  0
 27 19  1  0
 28 26  1  0
 28 29  1  0
 30 28  2  0
M  END
$$$$
