QFQ.pdb
     RDKit          3D

 30 30  0  0  1  0  0  0  0  0999 V2000
    9.5029  -13.0104   16.7061 N   0  0  0  0  0  0  0  0  0  0  0  0
    8.3097  -13.7794   16.9364 C   0  0  0  0  0  0  0  0  0  0  0  0
    7.2871  -13.5012   16.2764 O   0  0  0  0  0  0  0  0  0  0  0  0
    8.3040  -14.8535   17.9214 C   0  0  0  0  0  0  0  0  0  0  0  0
    9.5710  -15.0924   18.6743 C   0  0  0  0  0  0  0  0  0  0  0  0
    9.4824  -16.0923   19.7925 C   0  0  2  0  0  0  0  0  0  0  0  0
    8.5252  -17.0967   19.6074 N   0  0  0  0  0  0  0  0  0  0  0  0
    9.4443  -15.4288   21.1233 C   0  0  0  0  0  0  0  0  0  0  0  0
   10.4800  -14.8310   21.4877 O   0  0  0  0  0  0  0  0  0  0  0  0
    8.3272  -15.4296   21.9930 N   0  0  0  0  0  0  0  0  0  0  0  0
    8.2490  -14.9042   23.3052 C   0  0  1  0  0  0  0  0  0  0  0  0
    6.9713  -14.1694   23.6574 C   0  0  0  0  0  0  0  0  0  0  0  0
    6.9744  -13.5154   24.9588 C   0  0  0  0  0  0  0  0  0  0  0  0
    7.6364  -12.3117   25.0930 C   0  0  0  0  0  0  0  0  0  0  0  0
    7.6793  -11.6544   26.2924 C   0  0  0  0  0  0  0  0  0  0  0  0
    7.0505  -12.1961   27.4015 C   0  0  0  0  0  0  0  0  0  0  0  0
    6.3848  -13.3894   27.3020 C   0  0  0  0  0  0  0  0  0  0  0  0
    6.3573  -14.0378   26.0671 C   0  0  0  0  0  0  0  0  0  0  0  0
    8.5599  -15.8309   24.4012 C   0  0  0  0  0  0  0  0  0  0  0  0
    7.8096  -16.8188   24.6461 O   0  0  0  0  0  0  0  0  0  0  0  0
   12.6934  -19.8898   23.4480 N   0  0  0  0  0  0  0  0  0  0  0  0
   12.7440  -18.6362   24.1648 C   0  0  0  0  0  0  0  0  0  0  0  0
   13.8735  -18.2013   24.3987 O   0  0  0  0  0  0  0  0  0  0  0  0
   11.5084  -18.0022   24.5454 C   0  0  0  0  0  0  0  0  0  0  0  0
   11.3618  -17.3785   25.8681 C   0  0  0  0  0  0  0  0  0  0  0  0
   10.0960  -16.7051   26.2222 C   0  0  2  0  0  0  0  0  0  0  0  0
    9.6929  -15.7019   25.2528 N   0  0  0  0  0  0  0  0  0  0  0  0
    9.9766  -16.1810   27.5724 C   0  0  0  0  0  0  0  0  0  0  0  0
   10.0470  -17.0176   28.6748 O   0  0  0  0  0  0  0  0  0  0  0  0
    9.8018  -14.9597   27.7769 O   0  0  0  0  0  0  0  0  0  0  0  0
  2  3  2  0
  2  1  1  0
  4  2  1  0
  5  6  1  0
  5  4  1  0
  6  7  1  6
  8  6  1  0
  9  8  2  0
 10  8  1  0
 11 12  1  1
 11 10  1  0
 12 13  1  0
 13 18  2  0
 14 13  1  0
 14 15  2  0
 15 16  1  0
 16 17  2  0
 18 17  1  0
 19 20  2  0
 19 11  1  0
 22 21  1  0
 22 24  1  0
 23 22  2  0
 25 24  1  0
 26 25  1  6
 26 27  1  0
 27 19  1  0
 28 26  1  0
 28 29  1  0
 30 28  2  0
M  END
$$$$
