QFQ.pdb
     RDKit          3D

 30 30  0  0  1  0  0  0  0  0999 V2000
    9.3139  -13.2971   16.1789 N   0  0  0  0  0  0  0  0  0  0  0  0
    8.0331  -13.8641   16.5045 C   0  0  0  0  0  0  0  0  0  0  0  0
    7.1515  -13.8866   15.6207 O   0  0  0  0  0  0  0  0  0  0  0  0
    7.7793  -14.3938   17.8382 C   0  0  0  0  0  0  0  0  0  0  0  0
    8.8911  -14.2992   18.8303 C   0  0  0  0  0  0  0  0  0  0  0  0
    8.9804  -15.4313   19.8145 C   0  0  2  0  0  0  0  0  0  0  0  0
    8.0701  -16.4721   19.5961 N   0  0  0  0  0  0  0  0  0  0  0  0
    9.0435  -14.9387   21.2166 C   0  0  0  0  0  0  0  0  0  0  0  0
    9.9123  -14.0780   21.4757 O   0  0  0  0  0  0  0  0  0  0  0  0
    8.1958  -15.3746   22.2634 N   0  0  0  0  0  0  0  0  0  0  0  0
    8.1069  -14.8597   23.5791 C   0  0  1  0  0  0  0  0  0  0  0  0
    6.9381  -13.9367   23.8594 C   0  0  0  0  0  0  0  0  0  0  0  0
    7.0100  -13.2166   25.1234 C   0  0  0  0  0  0  0  0  0  0  0  0
    6.1903  -13.6156   26.1599 C   0  0  0  0  0  0  0  0  0  0  0  0
    6.2088  -12.9730   27.3678 C   0  0  0  0  0  0  0  0  0  0  0  0
    7.0617  -11.9000   27.5682 C   0  0  0  0  0  0  0  0  0  0  0  0
    7.8880  -11.4788   26.5598 C   0  0  0  0  0  0  0  0  0  0  0  0
    7.8482  -12.1521   25.3387 C   0  0  0  0  0  0  0  0  0  0  0  0
    8.1892  -15.8373   24.6718 C   0  0  0  0  0  0  0  0  0  0  0  0
    7.7938  -15.5418   25.8359 O   0  0  0  0  0  0  0  0  0  0  0  0
   13.0178  -17.4912   21.4670 N   0  0  0  0  0  0  0  0  0  0  0  0
   13.2295  -17.7598   22.8709 C   0  0  0  0  0  0  0  0  0  0  0  0
   14.0865  -18.6080   23.1278 O   0  0  0  0  0  0  0  0  0  0  0  0
   12.4473  -17.0405   23.8426 C   0  0  0  0  0  0  0  0  0  0  0  0
   10.9904  -16.9195   23.6916 C   0  0  0  0  0  0  0  0  0  0  0  0
   10.0987  -17.5082   24.7112 C   0  0  2  0  0  0  0  0  0  0  0  0
    8.7030  -17.1559   24.5204 N   0  0  0  0  0  0  0  0  0  0  0  0
   10.4779  -17.3385   26.1039 C   0  0  0  0  0  0  0  0  0  0  0  0
   10.5118  -16.0833   26.6897 O   0  0  0  0  0  0  0  0  0  0  0  0
   10.7893  -18.3215   26.8116 O   0  0  0  0  0  0  0  0  0  0  0  0
  2  3  2  0
  2  1  1  0
  4  2  1  0
  5  6  1  0
  5  4  1  0
  6  7  1  1
  8  6  1  0
  9  8  2  0
 10  8  1  0
 11 12  1  6
 11 10  1  0
 12 13  1  0
 13 18  2  0
 14 13  1  0
 14 15  2  0
 15 16  1  0
 16 17  2  0
 18 17  1  0
 19 20  2  0
 19 11  1  0
 22 21  1  0
 22 24  1  0
 23 22  2  0
 25 24  1  0
 26 25  1  6
 26 27  1  0
 27 19  1  0
 28 26  1  0
 28 29  1  0
 30 28  2  0
M  END
$$$$
