QFQ.pdb
     RDKit          3D

 30 30  0  0  1  0  0  0  0  0999 V2000
   12.2489  -18.6334   18.0266 N   0  0  0  0  0  0  0  0  0  0  0  0
   10.8639  -18.2468   18.0429 C   0  0  0  0  0  0  0  0  0  0  0  0
   10.4042  -17.6425   17.0518 O   0  0  0  0  0  0  0  0  0  0  0  0
   10.0264  -18.5547   19.1951 C   0  0  0  0  0  0  0  0  0  0  0  0
   10.2890  -17.7900   20.4503 C   0  0  0  0  0  0  0  0  0  0  0  0
    9.2906  -17.9935   21.5548 C   0  0  2  0  0  0  0  0  0  0  0  0
    8.0304  -18.4334   21.1332 N   0  0  0  0  0  0  0  0  0  0  0  0
    9.2690  -16.8426   22.4970 C   0  0  0  0  0  0  0  0  0  0  0  0
   10.3719  -16.4464   22.9322 O   0  0  0  0  0  0  0  0  0  0  0  0
    8.0972  -16.1750   22.9277 N   0  0  0  0  0  0  0  0  0  0  0  0
    7.9803  -15.1959   23.9435 C   0  0  1  0  0  0  0  0  0  0  0  0
    6.9425  -14.1153   23.7158 C   0  0  0  0  0  0  0  0  0  0  0  0
    6.8477  -13.1183   24.7733 C   0  0  0  0  0  0  0  0  0  0  0  0
    5.9561  -13.3311   25.8054 C   0  0  0  0  0  0  0  0  0  0  0  0
    5.8183  -12.4267   26.8229 C   0  0  0  0  0  0  0  0  0  0  0  0
    6.5820  -11.2709   26.8300 C   0  0  0  0  0  0  0  0  0  0  0  0
    7.4761  -11.0296   25.8204 C   0  0  0  0  0  0  0  0  0  0  0  0
    7.5960  -11.9687   24.7958 C   0  0  0  0  0  0  0  0  0  0  0  0
    7.8289  -15.6925   25.3172 C   0  0  0  0  0  0  0  0  0  0  0  0
    6.7016  -15.6787   25.8899 O   0  0  0  0  0  0  0  0  0  0  0  0
    6.5088  -20.7146   25.5388 N   0  0  0  0  0  0  0  0  0  0  0  0
    6.9339  -20.7056   26.9198 C   0  0  0  0  0  0  0  0  0  0  0  0
    6.6100  -21.6927   27.5835 O   0  0  0  0  0  0  0  0  0  0  0  0
    7.6827  -19.5774   27.4098 C   0  0  0  0  0  0  0  0  0  0  0  0
    7.9379  -18.4150   26.5476 C   0  0  0  0  0  0  0  0  0  0  0  0
    8.7533  -17.2933   27.0557 C   0  0  2  0  0  0  0  0  0  0  0  0
    8.9002  -16.2139   26.0956 N   0  0  0  0  0  0  0  0  0  0  0  0
   10.0386  -17.6211   27.6495 C   0  0  0  0  0  0  0  0  0  0  0  0
   10.1347  -18.0307   28.9697 O   0  0  0  0  0  0  0  0  0  0  0  0
   11.0954  -17.5375   26.9860 O   0  0  0  0  0  0  0  0  0  0  0  0
  2  3  2  0
  2  1  1  0
  4  2  1  0
  5  6  1  0
  5  4  1  0
  6  7  1  6
  8  6  1  0
  9  8  2  0
 10  8  1  0
 11 12  1  6
 11 10  1  0
 12 13  1  0
 13 18  2  0
 14 13  1  0
 14 15  2  0
 15 16  1  0
 16 17  2  0
 18 17  1  0
 19 20  2  0
 19 11  1  0
 22 21  1  0
 22 24  1  0
 23 22  2  0
 25 24  1  0
 26 25  1  6
 26 27  1  0
 27 19  1  0
 28 26  1  0
 28 29  1  0
 30 28  2  0
M  END
$$$$
