QFQ.pdb
     RDKit          3D

 30 30  0  0  1  0  0  0  0  0999 V2000
    8.9045  -12.8014   16.2292 N   0  0  0  0  0  0  0  0  0  0  0  0
    8.3873  -14.1190   16.4834 C   0  0  0  0  0  0  0  0  0  0  0  0
    8.4410  -14.9651   15.5670 O   0  0  0  0  0  0  0  0  0  0  0  0
    7.8132  -14.4473   17.7820 C   0  0  0  0  0  0  0  0  0  0  0  0
    8.7570  -14.5630   18.9331 C   0  0  0  0  0  0  0  0  0  0  0  0
    8.4367  -15.6420   19.9287 C   0  0  2  0  0  0  0  0  0  0  0  0
    7.1792  -16.2353   19.7672 N   0  0  0  0  0  0  0  0  0  0  0  0
    8.7566  -15.2214   21.3192 C   0  0  0  0  0  0  0  0  0  0  0  0
    9.9203  -14.8194   21.5355 O   0  0  0  0  0  0  0  0  0  0  0  0
    7.8420  -15.2459   22.3996 N   0  0  0  0  0  0  0  0  0  0  0  0
    8.0780  -14.8725   23.7446 C   0  0  1  0  0  0  0  0  0  0  0  0
    6.9135  -14.2371   24.4773 C   0  0  0  0  0  0  0  0  0  0  0  0
    7.2297  -13.7080   25.7970 C   0  0  0  0  0  0  0  0  0  0  0  0
    7.0300  -12.3633   26.0361 C   0  0  0  0  0  0  0  0  0  0  0  0
    7.3154  -11.8084   27.2539 C   0  0  0  0  0  0  0  0  0  0  0  0
    7.8150  -12.5996   28.2753 C   0  0  0  0  0  0  0  0  0  0  0  0
    8.0249  -13.9379   28.0705 C   0  0  0  0  0  0  0  0  0  0  0  0
    7.7252  -14.4771   26.8192 C   0  0  0  0  0  0  0  0  0  0  0  0
    8.6606  -15.9002   24.6169 C   0  0  0  0  0  0  0  0  0  0  0  0
    7.9823  -16.9052   24.9756 O   0  0  0  0  0  0  0  0  0  0  0  0
   10.7796  -18.9925   21.3607 N   0  0  0  0  0  0  0  0  0  0  0  0
   10.4147  -19.7484   22.5368 C   0  0  0  0  0  0  0  0  0  0  0  0
   10.0390  -20.9045   22.3318 O   0  0  0  0  0  0  0  0  0  0  0  0
   10.5113  -19.1170   23.8273 C   0  0  0  0  0  0  0  0  0  0  0  0
   11.0205  -17.7442   23.9544 C   0  0  0  0  0  0  0  0  0  0  0  0
   10.8545  -17.0185   25.2299 C   0  0  2  0  0  0  0  0  0  0  0  0
    9.9925  -15.8555   25.1166 N   0  0  0  0  0  0  0  0  0  0  0  0
   12.0618  -16.6839   25.9666 C   0  0  0  0  0  0  0  0  0  0  0  0
   12.9647  -17.6641   26.3461 O   0  0  0  0  0  0  0  0  0  0  0  0
   12.3170  -15.5012   26.2831 O   0  0  0  0  0  0  0  0  0  0  0  0
  2  3  2  0
  2  1  1  0
  4  2  1  0
  5  6  1  0
  5  4  1  0
  6  7  1  1
  8  6  1  0
  9  8  2  0
 10  8  1  0
 11 12  1  1
 11 10  1  0
 12 13  1  0
 13 18  2  0
 14 13  1  0
 14 15  2  0
 15 16  1  0
 16 17  2  0
 18 17  1  0
 19 20  2  0
 19 11  1  0
 22 21  1  0
 22 24  1  0
 23 22  2  0
 25 24  1  0
 26 25  1  6
 26 27  1  0
 27 19  1  0
 28 26  1  0
 28 29  1  0
 30 28  2  0
M  END
$$$$
