QFQ.pdb
     RDKit          3D

 30 30  0  0  1  0  0  0  0  0999 V2000
    8.6887  -12.7897   17.2674 N   0  0  0  0  0  0  0  0  0  0  0  0
    8.6955  -14.0809   16.6343 C   0  0  0  0  0  0  0  0  0  0  0  0
    8.1634  -14.1942   15.5106 O   0  0  0  0  0  0  0  0  0  0  0  0
    9.3082  -15.2241   17.2987 C   0  0  0  0  0  0  0  0  0  0  0  0
    9.9075  -14.9871   18.6455 C   0  0  0  0  0  0  0  0  0  0  0  0
    9.4335  -15.9045   19.7371 C   0  0  2  0  0  0  0  0  0  0  0  0
    8.3035  -16.6654   19.4150 N   0  0  0  0  0  0  0  0  0  0  0  0
    9.3667  -15.2095   21.0506 C   0  0  0  0  0  0  0  0  0  0  0  0
   10.3774  -14.5626   21.4008 O   0  0  0  0  0  0  0  0  0  0  0  0
    8.2487  -15.2322   21.9189 N   0  0  0  0  0  0  0  0  0  0  0  0
    8.1340  -14.6432   23.2011 C   0  0  1  0  0  0  0  0  0  0  0  0
    7.0385  -13.6094   23.3675 C   0  0  0  0  0  0  0  0  0  0  0  0
    6.9530  -13.0088   24.6917 C   0  0  0  0  0  0  0  0  0  0  0  0
    7.6538  -11.8452   24.9371 C   0  0  0  0  0  0  0  0  0  0  0  0
    7.6173  -11.2392   26.1634 C   0  0  0  0  0  0  0  0  0  0  0  0
    6.8667  -11.7933   27.1874 C   0  0  0  0  0  0  0  0  0  0  0  0
    6.1597  -12.9477   26.9766 C   0  0  0  0  0  0  0  0  0  0  0  0
    6.2150  -13.5442   25.7168 C   0  0  0  0  0  0  0  0  0  0  0  0
    8.0690  -15.5655   24.3420 C   0  0  0  0  0  0  0  0  0  0  0  0
    6.9914  -16.1592   24.6338 O   0  0  0  0  0  0  0  0  0  0  0  0
    9.2732  -19.6906   21.8832 N   0  0  0  0  0  0  0  0  0  0  0  0
   10.2604  -20.0769   22.8650 C   0  0  0  0  0  0  0  0  0  0  0  0
   10.7170  -21.2154   22.7423 O   0  0  0  0  0  0  0  0  0  0  0  0
   10.6301  -19.1336   23.8883 C   0  0  0  0  0  0  0  0  0  0  0  0
    9.9800  -17.8178   23.9656 C   0  0  0  0  0  0  0  0  0  0  0  0
    9.7982  -17.1686   25.2797 C   0  0  2  0  0  0  0  0  0  0  0  0
    9.1744  -15.8606   25.1884 N   0  0  0  0  0  0  0  0  0  0  0  0
   10.9519  -17.1188   26.1620 C   0  0  0  0  0  0  0  0  0  0  0  0
   11.4404  -15.9118   26.6358 O   0  0  0  0  0  0  0  0  0  0  0  0
   11.5397  -18.1650   26.5144 O   0  0  0  0  0  0  0  0  0  0  0  0
  2  3  2  0
  2  1  1  0
  4  2  1  0
  5  6  1  0
  5  4  1  0
  6  7  1  6
  8  6  1  0
  9  8  2  0
 10  8  1  0
 11 12  1  6
 11 10  1  0
 12 13  1  0
 13 18  2  0
 14 13  1  0
 14 15  2  0
 15 16  1  0
 16 17  2  0
 18 17  1  0
 19 20  2  0
 19 11  1  0
 22 21  1  0
 22 24  1  0
 23 22  2  0
 25 24  1  0
 26 25  1  6
 26 27  1  0
 27 19  1  0
 28 26  1  0
 28 29  1  0
 30 28  2  0
M  END
$$$$
