QFQ.pdb
     RDKit          3D

 30 30  0  0  1  0  0  0  0  0999 V2000
    8.9934  -12.9562   17.2395 N   0  0  0  0  0  0  0  0  0  0  0  0
    8.2086  -14.1440   17.0363 C   0  0  0  0  0  0  0  0  0  0  0  0
    7.4400  -14.1871   16.0533 O   0  0  0  0  0  0  0  0  0  0  0  0
    8.3128  -15.2636   17.9633 C   0  0  0  0  0  0  0  0  0  0  0  0
    9.3293  -15.1532   19.0513 C   0  0  0  0  0  0  0  0  0  0  0  0
    9.2754  -16.2272   20.1009 C   0  0  2  0  0  0  0  0  0  0  0  0
    8.3189  -17.2234   19.8728 N   0  0  0  0  0  0  0  0  0  0  0  0
    9.2689  -15.6557   21.4742 C   0  0  0  0  0  0  0  0  0  0  0  0
   10.3704  -15.5770   22.0600 O   0  0  0  0  0  0  0  0  0  0  0  0
    8.1126  -15.2010   22.1529 N   0  0  0  0  0  0  0  0  0  0  0  0
    8.0362  -14.6124   23.4381 C   0  0  1  0  0  0  0  0  0  0  0  0
    7.0850  -13.4415   23.5830 C   0  0  0  0  0  0  0  0  0  0  0  0
    7.0860  -12.8044   24.8927 C   0  0  0  0  0  0  0  0  0  0  0  0
    6.0469  -13.0739   25.7605 C   0  0  0  0  0  0  0  0  0  0  0  0
    5.9905  -12.4995   27.0012 C   0  0  0  0  0  0  0  0  0  0  0  0
    6.9886  -11.6290   27.4072 C   0  0  0  0  0  0  0  0  0  0  0  0
    8.0338  -11.3403   26.5697 C   0  0  0  0  0  0  0  0  0  0  0  0
    8.0659  -11.9399   25.3105 C   0  0  0  0  0  0  0  0  0  0  0  0
    7.8099  -15.5268   24.5647 C   0  0  0  0  0  0  0  0  0  0  0  0
    6.6399  -15.8865   24.8816 O   0  0  0  0  0  0  0  0  0  0  0  0
    6.1029  -20.4373   25.2878 N   0  0  0  0  0  0  0  0  0  0  0  0
    7.4396  -20.3527   24.7458 C   0  0  0  0  0  0  0  0  0  0  0  0
    7.7708  -21.2753   23.9983 O   0  0  0  0  0  0  0  0  0  0  0  0
    8.2670  -19.2307   25.1067 C   0  0  0  0  0  0  0  0  0  0  0  0
    7.7473  -18.1637   25.9735 C   0  0  0  0  0  0  0  0  0  0  0  0
    8.6416  -17.0687   26.4006 C   0  0  2  0  0  0  0  0  0  0  0  0
    8.8516  -16.0685   25.3692 N   0  0  0  0  0  0  0  0  0  0  0  0
    9.9076  -17.4428   27.0083 C   0  0  0  0  0  0  0  0  0  0  0  0
    9.9521  -18.2582   28.1277 O   0  0  0  0  0  0  0  0  0  0  0  0
   10.9930  -17.0345   26.5401 O   0  0  0  0  0  0  0  0  0  0  0  0
  2  3  2  0
  2  1  1  0
  4  2  1  0
  5  6  1  0
  5  4  1  0
  6  7  1  6
  8  6  1  0
  9  8  2  0
 10  8  1  0
 11 12  1  6
 11 10  1  0
 12 13  1  0
 13 18  2  0
 14 13  1  0
 14 15  2  0
 15 16  1  0
 16 17  2  0
 18 17  1  0
 19 20  2  0
 19 11  1  0
 22 21  1  0
 22 24  1  0
 23 22  2  0
 25 24  1  0
 26 25  1  6
 26 27  1  0
 27 19  1  0
 28 26  1  0
 28 29  1  0
 30 28  2  0
M  END
$$$$
