KGN.pdb
     RDKit          3D

 22 21  0  0  1  0  0  0  0  0999 V2000
   17.3871  -14.6595  -15.0510 N   0  0  0  0  0  0  0  0  0  0  0  0
   17.5973  -14.7899  -16.4624 C   0  0  1  0  0  0  0  0  0  0  0  0
   16.4684  -15.3901  -17.2386 C   0  0  0  0  0  0  0  0  0  0  0  0
   16.0465  -16.7480  -16.8517 C   0  0  0  0  0  0  0  0  0  0  0  0
   14.8521  -17.3287  -17.4951 C   0  0  0  0  0  0  0  0  0  0  0  0
   14.4588  -18.6977  -17.0635 C   0  0  0  0  0  0  0  0  0  0  0  0
   13.3358  -19.2564  -17.7680 N   0  0  0  0  0  0  0  0  0  0  0  0
   17.7673  -13.3927  -17.0092 C   0  0  0  0  0  0  0  0  0  0  0  0
   18.1250  -13.1963  -18.1985 O   0  0  0  0  0  0  0  0  0  0  0  0
   17.5315  -12.2503  -16.2078 N   0  0  0  0  0  0  0  0  0  0  0  0
   17.5984  -10.9053  -16.7922 C   0  0  0  0  0  0  0  0  0  0  0  0
   17.9648   -9.9015  -15.7852 C   0  0  0  0  0  0  0  0  0  0  0  0
   17.2383   -9.7782  -14.7759 O   0  0  0  0  0  0  0  0  0  0  0  0
   21.2147   -8.0773  -12.0859 N   0  0  0  0  0  0  0  0  0  0  0  0
   21.4230   -7.7292  -13.4388 C   0  0  0  0  0  0  0  0  0  0  0  0
   22.0556   -6.6796  -13.7089 O   0  0  0  0  0  0  0  0  0  0  0  0
   20.9090   -8.5796  -14.5170 C   0  0  0  0  0  0  0  0  0  0  0  0
   19.5286   -8.1543  -14.9906 C   0  0  2  0  0  0  0  0  0  0  0  0
   19.1040   -9.1185  -15.9793 N   0  0  0  0  0  0  0  0  0  0  0  0
   19.5094   -6.7779  -15.4867 C   0  0  0  0  0  0  0  0  0  0  0  0
   19.3049   -5.7094  -14.6336 O   0  0  0  0  0  0  0  0  0  0  0  0
   19.6797   -6.5422  -16.7053 O   0  0  0  0  0  0  0  0  0  0  0  0
  2  1  1  1
  2  8  1  0
  2  3  1  0
  3  4  1  0
  4  5  1  0
  5  6  1  0
  6  7  1  0
  8  9  2  0
 10 11  1  0
 10  8  1  0
 11 12  1  0
 12 13  2  0
 12 19  1  0
 14 15  1  0
 15 17  1  0
 16 15  2  0
 18 17  1  6
 18 20  1  0
 19 18  1  0
 20 21  1  0
 22 20  2  0
M  END
$$$$
