KGN.pdb
     RDKit          3D

 22 21  0  0  1  0  0  0  0  0999 V2000
   20.6343  -16.2242  -17.4860 N   0  0  0  0  0  0  0  0  0  0  0  0
   19.9406  -16.7509  -16.3483 C   0  0  1  0  0  0  0  0  0  0  0  0
   20.7913  -17.4221  -15.3172 C   0  0  0  0  0  0  0  0  0  0  0  0
   21.5366  -18.6177  -15.7493 C   0  0  0  0  0  0  0  0  0  0  0  0
   22.4905  -19.2361  -14.8082 C   0  0  0  0  0  0  0  0  0  0  0  0
   23.1107  -20.5208  -15.2322 C   0  0  0  0  0  0  0  0  0  0  0  0
   24.1888  -20.9784  -14.3969 N   0  0  0  0  0  0  0  0  0  0  0  0
   19.3016  -15.5774  -15.6450 C   0  0  0  0  0  0  0  0  0  0  0  0
   18.6703  -15.7269  -14.5679 O   0  0  0  0  0  0  0  0  0  0  0  0
   19.3870  -14.2651  -16.1677 N   0  0  0  0  0  0  0  0  0  0  0  0
   18.8132  -13.1324  -15.4310 C   0  0  0  0  0  0  0  0  0  0  0  0
   19.0148  -11.8684  -16.1503 C   0  0  0  0  0  0  0  0  0  0  0  0
   19.6504  -11.8906  -17.2261 O   0  0  0  0  0  0  0  0  0  0  0  0
   15.6251   -7.6799  -15.9153 N   0  0  0  0  0  0  0  0  0  0  0  0
   16.5396   -8.5586  -15.2937 C   0  0  0  0  0  0  0  0  0  0  0  0
   16.0995   -9.5121  -14.6068 O   0  0  0  0  0  0  0  0  0  0  0  0
   17.9849   -8.3635  -15.4458 C   0  0  0  0  0  0  0  0  0  0  0  0
   18.6309   -9.4283  -16.3172 C   0  0  2  0  0  0  0  0  0  0  0  0
   18.4964  -10.6861  -15.6193 N   0  0  0  0  0  0  0  0  0  0  0  0
   20.0174   -9.1055  -16.6554 C   0  0  0  0  0  0  0  0  0  0  0  0
   20.3349   -8.4325  -17.8205 O   0  0  0  0  0  0  0  0  0  0  0  0
   20.9496   -9.4370  -15.8870 O   0  0  0  0  0  0  0  0  0  0  0  0
  2  1  1  6
  2  8  1  0
  2  3  1  0
  3  4  1  0
  4  5  1  0
  5  6  1  0
  6  7  1  0
  8  9  2  0
 10 11  1  0
 10  8  1  0
 11 12  1  0
 12 13  2  0
 12 19  1  0
 14 15  1  0
 15 17  1  0
 16 15  2  0
 18 17  1  1
 18 20  1  0
 19 18  1  0
 20 21  1  0
 22 20  2  0
M  END
$$$$
