KGN.pdb
     RDKit          3D

 22 21  0  0  1  0  0  0  0  0999 V2000
   24.6537  -20.5746  -11.4159 N   0  0  0  0  0  0  0  0  0  0  0  0
   25.9917  -21.0659  -11.5625 C   0  0  1  0  0  0  0  0  0  0  0  0
   26.1246  -22.4344  -12.1515 C   0  0  0  0  0  0  0  0  0  0  0  0
   25.2079  -22.7728  -13.2544 C   0  0  0  0  0  0  0  0  0  0  0  0
   25.6414  -22.5123  -14.6408 C   0  0  0  0  0  0  0  0  0  0  0  0
   24.6754  -22.8565  -15.7195 C   0  0  0  0  0  0  0  0  0  0  0  0
   24.9490  -24.0900  -16.4075 N   0  0  0  0  0  0  0  0  0  0  0  0
   26.6933  -20.1398  -12.5270 C   0  0  0  0  0  0  0  0  0  0  0  0
   27.9170  -20.2710  -12.7846 O   0  0  0  0  0  0  0  0  0  0  0  0
   26.0044  -19.0893  -13.1785 N   0  0  0  0  0  0  0  0  0  0  0  0
   26.6750  -18.2865  -14.2085 C   0  0  0  0  0  0  0  0  0  0  0  0
   25.7577  -17.3085  -14.8067 C   0  0  0  0  0  0  0  0  0  0  0  0
   24.5368  -17.4089  -14.5596 O   0  0  0  0  0  0  0  0  0  0  0  0
   24.2892  -14.0947  -18.6026 N   0  0  0  0  0  0  0  0  0  0  0  0
   25.7000  -14.0801  -18.5374 C   0  0  0  0  0  0  0  0  0  0  0  0
   26.3407  -13.3527  -19.3343 O   0  0  0  0  0  0  0  0  0  0  0  0
   26.4113  -14.9022  -17.5534 C   0  0  0  0  0  0  0  0  0  0  0  0
   25.4700  -15.7160  -16.6804 C   0  0  2  0  0  0  0  0  0  0  0  0
   26.2680  -16.3017  -15.6280 N   0  0  0  0  0  0  0  0  0  0  0  0
   24.7160  -16.7077  -17.4478 C   0  0  0  0  0  0  0  0  0  0  0  0
   25.2814  -17.9153  -17.8127 O   0  0  0  0  0  0  0  0  0  0  0  0
   23.5334  -16.4767  -17.7906 O   0  0  0  0  0  0  0  0  0  0  0  0
  2  1  1  6
  2  8  1  0
  2  3  1  0
  3  4  1  0
  4  5  1  0
  5  6  1  0
  6  7  1  0
  8  9  2  0
 10 11  1  0
 10  8  1  0
 11 12  1  0
 12 13  2  0
 12 19  1  0
 14 15  1  0
 15 17  1  0
 16 15  2  0
 18 17  1  6
 18 20  1  0
 19 18  1  0
 20 21  1  0
 22 20  2  0
M  END
$$$$
