KGN.pdb
     RDKit          3D

 22 21  0  0  1  0  0  0  0  0999 V2000
   25.7751  -20.1054  -15.8664 N   0  0  0  0  0  0  0  0  0  0  0  0
   24.6033  -19.5040  -15.3022 C   0  0  1  0  0  0  0  0  0  0  0  0
   24.1228  -20.0922  -14.0135 C   0  0  0  0  0  0  0  0  0  0  0  0
   23.3188  -21.3236  -14.1063 C   0  0  0  0  0  0  0  0  0  0  0  0
   22.8414  -21.9533  -12.8600 C   0  0  0  0  0  0  0  0  0  0  0  0
   21.9131  -23.1074  -13.0066 C   0  0  0  0  0  0  0  0  0  0  0  0
   21.4771  -23.6959  -11.7684 N   0  0  0  0  0  0  0  0  0  0  0  0
   24.9575  -18.0706  -14.9862 C   0  0  0  0  0  0  0  0  0  0  0  0
   24.1124  -17.2841  -14.4877 O   0  0  0  0  0  0  0  0  0  0  0  0
   26.2513  -17.5551  -15.2373 N   0  0  0  0  0  0  0  0  0  0  0  0
   26.5331  -16.1273  -15.0450 C   0  0  0  0  0  0  0  0  0  0  0  0
   26.3908  -15.3795  -16.3005 C   0  0  0  0  0  0  0  0  0  0  0  0
   27.4150  -14.8839  -16.8174 O   0  0  0  0  0  0  0  0  0  0  0  0
   23.5151  -17.8871  -18.9369 N   0  0  0  0  0  0  0  0  0  0  0  0
   24.3789  -16.7964  -19.1801 C   0  0  0  0  0  0  0  0  0  0  0  0
   25.5367  -17.0185  -19.6102 O   0  0  0  0  0  0  0  0  0  0  0  0
   23.9335  -15.4211  -18.9350 C   0  0  0  0  0  0  0  0  0  0  0  0
   24.9560  -14.6033  -18.1629 C   0  0  2  0  0  0  0  0  0  0  0  0
   25.1277  -15.2427  -16.8787 N   0  0  0  0  0  0  0  0  0  0  0  0
   24.5764  -13.1943  -18.0558 C   0  0  0  0  0  0  0  0  0  0  0  0
   24.7932  -12.3105  -19.0965 O   0  0  0  0  0  0  0  0  0  0  0  0
   24.0430  -12.7606  -17.0084 O   0  0  0  0  0  0  0  0  0  0  0  0
  2  1  1  1
  2  8  1  0
  2  3  1  0
  3  4  1  0
  4  5  1  0
  5  6  1  0
  6  7  1  0
  8  9  2  0
 10 11  1  0
 10  8  1  0
 11 12  1  0
 12 13  2  0
 12 19  1  0
 14 15  1  0
 15 17  1  0
 16 15  2  0
 18 17  1  6
 18 20  1  0
 19 18  1  0
 20 21  1  0
 22 20  2  0
M  END
$$$$
