KGN.pdb
     RDKit          3D

 22 21  0  0  1  0  0  0  0  0999 V2000
   26.9299  -17.9723  -17.0475 N   0  0  0  0  0  0  0  0  0  0  0  0
   26.3818  -19.0826  -16.3265 C   0  0  1  0  0  0  0  0  0  0  0  0
   27.1899  -19.5718  -15.1667 C   0  0  0  0  0  0  0  0  0  0  0  0
   27.5861  -20.9910  -15.1870 C   0  0  0  0  0  0  0  0  0  0  0  0
   28.0695  -21.5732  -16.4540 C   0  0  0  0  0  0  0  0  0  0  0  0
   28.3319  -23.0382  -16.4597 C   0  0  0  0  0  0  0  0  0  0  0  0
   28.7556  -23.5733  -17.7261 N   0  0  0  0  0  0  0  0  0  0  0  0
   25.0708  -18.6172  -15.7393 C   0  0  0  0  0  0  0  0  0  0  0  0
   25.0163  -17.6246  -14.9694 O   0  0  0  0  0  0  0  0  0  0  0  0
   23.8534  -19.2773  -16.0306 N   0  0  0  0  0  0  0  0  0  0  0  0
   22.5907  -18.7957  -15.4573 C   0  0  0  0  0  0  0  0  0  0  0  0
   21.8649  -19.8758  -14.7772 C   0  0  0  0  0  0  0  0  0  0  0  0
   22.3481  -21.0280  -14.8064 O   0  0  0  0  0  0  0  0  0  0  0  0
   18.2941  -22.3388  -11.9874 N   0  0  0  0  0  0  0  0  0  0  0  0
   18.0976  -20.9507  -11.8149 C   0  0  0  0  0  0  0  0  0  0  0  0
   17.1862  -20.5536  -11.0492 O   0  0  0  0  0  0  0  0  0  0  0  0
   18.9447  -19.9828  -12.5188 C   0  0  0  0  0  0  0  0  0  0  0  0
   19.8639  -20.6397  -13.5357 C   0  0  2  0  0  0  0  0  0  0  0  0
   20.6658  -19.5907  -14.1220 N   0  0  0  0  0  0  0  0  0  0  0  0
   19.1272  -21.4217  -14.5291 C   0  0  0  0  0  0  0  0  0  0  0  0
   18.9666  -20.9683  -15.8252 O   0  0  0  0  0  0  0  0  0  0  0  0
   18.6245  -22.5264  -14.2187 O   0  0  0  0  0  0  0  0  0  0  0  0
  2  1  1  1
  2  8  1  0
  2  3  1  0
  3  4  1  0
  4  5  1  0
  5  6  1  0
  6  7  1  0
  8  9  2  0
 10 11  1  0
 10  8  1  0
 11 12  1  0
 12 13  2  0
 12 19  1  0
 14 15  1  0
 15 17  1  0
 16 15  2  0
 18 17  1  1
 18 20  1  0
 19 18  1  0
 20 21  1  0
 22 20  2  0
M  END
$$$$
