KGN.pdb
     RDKit          3D

 22 21  0  0  1  0  0  0  0  0999 V2000
   21.0300  -18.5286  -15.0290 N   0  0  0  0  0  0  0  0  0  0  0  0
   21.8292  -19.7149  -15.1135 C   0  0  1  0  0  0  0  0  0  0  0  0
   23.3070  -19.5023  -15.2034 C   0  0  0  0  0  0  0  0  0  0  0  0
   23.8041  -18.8033  -16.4016 C   0  0  0  0  0  0  0  0  0  0  0  0
   24.0926  -19.5938  -17.6140 C   0  0  0  0  0  0  0  0  0  0  0  0
   24.6920  -18.8617  -18.7629 C   0  0  0  0  0  0  0  0  0  0  0  0
   25.0069  -19.6784  -19.9045 N   0  0  0  0  0  0  0  0  0  0  0  0
   21.6075  -20.4825  -13.8322 C   0  0  0  0  0  0  0  0  0  0  0  0
   22.1912  -21.5752  -13.6166 O   0  0  0  0  0  0  0  0  0  0  0  0
   20.7363  -20.0049  -12.8243 N   0  0  0  0  0  0  0  0  0  0  0  0
   20.4736  -20.8104  -11.6255 C   0  0  0  0  0  0  0  0  0  0  0  0
   19.2883  -21.6592  -11.7998 C   0  0  0  0  0  0  0  0  0  0  0  0
   18.7844  -21.7510  -12.9397 O   0  0  0  0  0  0  0  0  0  0  0  0
   19.5055  -25.7293   -9.3307 N   0  0  0  0  0  0  0  0  0  0  0  0
   18.2065  -25.4356   -9.8011 C   0  0  0  0  0  0  0  0  0  0  0  0
   17.5598  -26.3256  -10.4047 O   0  0  0  0  0  0  0  0  0  0  0  0
   17.6170  -24.1098   -9.5895 C   0  0  0  0  0  0  0  0  0  0  0  0
   17.6493  -23.2480  -10.8412 C   0  0  2  0  0  0  0  0  0  0  0  0
   18.7599  -22.3350  -10.6986 N   0  0  0  0  0  0  0  0  0  0  0  0
   16.3760  -22.5689  -11.0829 C   0  0  0  0  0  0  0  0  0  0  0  0
   15.3142  -23.2236  -11.6787 O   0  0  0  0  0  0  0  0  0  0  0  0
   16.2252  -21.3704  -10.7508 O   0  0  0  0  0  0  0  0  0  0  0  0
  2  1  1  1
  2  8  1  0
  2  3  1  0
  3  4  1  0
  4  5  1  0
  5  6  1  0
  6  7  1  0
  8  9  2  0
 10 11  1  0
 10  8  1  0
 11 12  1  0
 12 13  2  0
 12 19  1  0
 14 15  1  0
 15 17  1  0
 16 15  2  0
 18 17  1  1
 18 20  1  0
 19 18  1  0
 20 21  1  0
 22 20  2  0
M  END
$$$$
