KGN.pdb
     RDKit          3D

 22 21  0  0  1  0  0  0  0  0999 V2000
   24.6943  -18.4058  -15.8442 N   0  0  0  0  0  0  0  0  0  0  0  0
   24.4024  -17.9568  -17.1731 C   0  0  1  0  0  0  0  0  0  0  0  0
   25.0141  -18.7535  -18.2814 C   0  0  0  0  0  0  0  0  0  0  0  0
   25.6412  -20.0339  -17.9090 C   0  0  0  0  0  0  0  0  0  0  0  0
   24.8773  -21.2808  -18.1073 C   0  0  0  0  0  0  0  0  0  0  0  0
   25.5974  -22.5560  -17.8418 C   0  0  0  0  0  0  0  0  0  0  0  0
   24.7855  -23.7403  -17.9286 N   0  0  0  0  0  0  0  0  0  0  0  0
   22.9093  -18.0844  -17.3587 C   0  0  0  0  0  0  0  0  0  0  0  0
   22.3681  -17.8577  -18.4708 O   0  0  0  0  0  0  0  0  0  0  0  0
   22.0604  -18.4632  -16.2917 N   0  0  0  0  0  0  0  0  0  0  0  0
   21.1559  -19.6108  -16.4325 C   0  0  0  0  0  0  0  0  0  0  0  0
   21.3557  -20.5859  -15.3531 C   0  0  0  0  0  0  0  0  0  0  0  0
   20.5335  -21.5196  -15.2347 O   0  0  0  0  0  0  0  0  0  0  0  0
   25.9805  -22.3552  -13.2357 N   0  0  0  0  0  0  0  0  0  0  0  0
   25.0332  -21.3850  -13.6310 C   0  0  0  0  0  0  0  0  0  0  0  0
   25.1268  -20.8692  -14.7711 O   0  0  0  0  0  0  0  0  0  0  0  0
   23.9529  -20.9826  -12.7250 C   0  0  0  0  0  0  0  0  0  0  0  0
   22.5731  -21.2522  -13.3028 C   0  0  2  0  0  0  0  0  0  0  0  0
   22.4482  -20.4463  -14.4955 N   0  0  0  0  0  0  0  0  0  0  0  0
   21.5054  -21.0093  -12.3322 C   0  0  0  0  0  0  0  0  0  0  0  0
   21.0809  -19.7272  -12.0368 O   0  0  0  0  0  0  0  0  0  0  0  0
   20.9524  -21.9688  -11.7467 O   0  0  0  0  0  0  0  0  0  0  0  0
  2  1  1  1
  2  8  1  0
  2  3  1  0
  3  4  1  0
  4  5  1  0
  5  6  1  0
  6  7  1  0
  8  9  2  0
 10 11  1  0
 10  8  1  0
 11 12  1  0
 12 13  2  0
 12 19  1  0
 14 15  1  0
 15 17  1  0
 16 15  2  0
 18 17  1  1
 18 20  1  0
 19 18  1  0
 20 21  1  0
 22 20  2  0
M  END
$$$$
