KGN.pdb
     RDKit          3D

 22 21  0  0  1  0  0  0  0  0999 V2000
   21.2169  -11.0544  -16.0139 N   0  0  0  0  0  0  0  0  0  0  0  0
   20.3194   -9.9422  -15.9111 C   0  0  1  0  0  0  0  0  0  0  0  0
   19.8127   -9.3894  -17.2053 C   0  0  0  0  0  0  0  0  0  0  0  0
   20.8263   -8.9977  -18.2005 C   0  0  0  0  0  0  0  0  0  0  0  0
   20.3738   -8.4967  -19.5128 C   0  0  0  0  0  0  0  0  0  0  0  0
   21.4342   -8.1279  -20.4900 C   0  0  0  0  0  0  0  0  0  0  0  0
   20.9533   -7.7429  -21.7899 N   0  0  0  0  0  0  0  0  0  0  0  0
   19.0968  -10.4347  -15.1745 C   0  0  0  0  0  0  0  0  0  0  0  0
   18.6372  -11.5885  -15.3707 O   0  0  0  0  0  0  0  0  0  0  0  0
   18.4200   -9.6201  -14.2357 N   0  0  0  0  0  0  0  0  0  0  0  0
   17.1727  -10.0812  -13.6138 C   0  0  0  0  0  0  0  0  0  0  0  0
   16.6496   -9.0909  -12.6644 C   0  0  0  0  0  0  0  0  0  0  0  0
   15.5337   -9.2989  -12.1417 O   0  0  0  0  0  0  0  0  0  0  0  0
   16.1438   -5.0180   -9.6302 N   0  0  0  0  0  0  0  0  0  0  0  0
   16.9238   -6.1103   -9.1903 C   0  0  0  0  0  0  0  0  0  0  0  0
   17.2843   -6.1589   -7.9894 O   0  0  0  0  0  0  0  0  0  0  0  0
   17.3097   -7.1758  -10.1208 C   0  0  0  0  0  0  0  0  0  0  0  0
   16.8742   -6.8919  -11.5492 C   0  0  2  0  0  0  0  0  0  0  0  0
   17.4048   -7.9536  -12.3730 N   0  0  0  0  0  0  0  0  0  0  0  0
   17.2777   -5.5598  -12.0003 C   0  0  0  0  0  0  0  0  0  0  0  0
   16.5533   -4.4341  -11.6550 O   0  0  0  0  0  0  0  0  0  0  0  0
   18.2969   -5.4155  -12.7144 O   0  0  0  0  0  0  0  0  0  0  0  0
  2  1  1  6
  2  8  1  0
  2  3  1  0
  3  4  1  0
  4  5  1  0
  5  6  1  0
  6  7  1  0
  8  9  2  0
 10 11  1  0
 10  8  1  0
 11 12  1  0
 12 13  2  0
 12 19  1  0
 14 15  1  0
 15 17  1  0
 16 15  2  0
 18 17  1  1
 18 20  1  0
 19 18  1  0
 20 21  1  0
 22 20  2  0
M  END
$$$$
