KGN.pdb
     RDKit          3D

 22 21  0  0  1  0  0  0  0  0999 V2000
   17.6245  -11.9548  -14.8345 N   0  0  0  0  0  0  0  0  0  0  0  0
   18.6787  -12.3943  -15.6997 C   0  0  1  0  0  0  0  0  0  0  0  0
   18.2539  -13.1710  -16.9053 C   0  0  0  0  0  0  0  0  0  0  0  0
   16.8428  -13.5922  -16.9586 C   0  0  0  0  0  0  0  0  0  0  0  0
   16.5098  -14.9944  -16.6410 C   0  0  0  0  0  0  0  0  0  0  0  0
   15.0650  -15.3517  -16.6246 C   0  0  0  0  0  0  0  0  0  0  0  0
   14.7850  -16.7317  -16.3302 N   0  0  0  0  0  0  0  0  0  0  0  0
   19.3510  -11.1523  -16.2341 C   0  0  0  0  0  0  0  0  0  0  0  0
   20.4428  -11.2167  -16.8544 O   0  0  0  0  0  0  0  0  0  0  0  0
   18.7814   -9.8687  -16.0592 N   0  0  0  0  0  0  0  0  0  0  0  0
   19.4919   -8.6705  -16.5223 C   0  0  0  0  0  0  0  0  0  0  0  0
   19.3456   -7.5605  -15.5724 C   0  0  0  0  0  0  0  0  0  0  0  0
   18.4524   -7.6361  -14.7016 O   0  0  0  0  0  0  0  0  0  0  0  0
   23.4278   -6.2728  -14.7385 N   0  0  0  0  0  0  0  0  0  0  0  0
   22.4053   -5.6631  -13.9783 C   0  0  0  0  0  0  0  0  0  0  0  0
   22.3150   -5.9257  -12.7546 O   0  0  0  0  0  0  0  0  0  0  0  0
   21.4596   -4.7350  -14.6061 C   0  0  0  0  0  0  0  0  0  0  0  0
   20.0722   -5.3342  -14.7693 C   0  0  2  0  0  0  0  0  0  0  0  0
   20.1995   -6.4601  -15.6656 N   0  0  0  0  0  0  0  0  0  0  0  0
   19.0897   -4.3490  -15.2222 C   0  0  0  0  0  0  0  0  0  0  0  0
   18.4404   -3.5182  -14.3280 O   0  0  0  0  0  0  0  0  0  0  0  0
   18.8175   -4.2406  -16.4402 O   0  0  0  0  0  0  0  0  0  0  0  0
  2  1  1  1
  2  8  1  0
  2  3  1  0
  3  4  1  0
  4  5  1  0
  5  6  1  0
  6  7  1  0
  8  9  2  0
 10 11  1  0
 10  8  1  0
 11 12  1  0
 12 13  2  0
 12 19  1  0
 14 15  1  0
 15 17  1  0
 16 15  2  0
 18 17  1  6
 18 20  1  0
 19 18  1  0
 20 21  1  0
 22 20  2  0
M  END
$$$$
