KGN.pdb
     RDKit          3D

 22 21  0  0  1  0  0  0  0  0999 V2000
   23.8800  -20.2707  -14.6390 N   0  0  0  0  0  0  0  0  0  0  0  0
   24.1981  -19.0569  -15.3309 C   0  0  1  0  0  0  0  0  0  0  0  0
   24.9261  -19.2154  -16.6278 C   0  0  0  0  0  0  0  0  0  0  0  0
   26.2334  -19.8933  -16.5752 C   0  0  0  0  0  0  0  0  0  0  0  0
   26.2677  -21.3685  -16.5996 C   0  0  0  0  0  0  0  0  0  0  0  0
   27.6093  -22.0078  -16.5196 C   0  0  0  0  0  0  0  0  0  0  0  0
   27.5944  -23.4458  -16.4806 N   0  0  0  0  0  0  0  0  0  0  0  0
   22.8856  -18.3974  -15.6809 C   0  0  0  0  0  0  0  0  0  0  0  0
   22.8491  -17.2632  -16.2225 O   0  0  0  0  0  0  0  0  0  0  0  0
   21.6465  -19.0271  -15.4146 N   0  0  0  0  0  0  0  0  0  0  0  0
   20.6668  -19.2251  -16.4898 C   0  0  0  0  0  0  0  0  0  0  0  0
   19.4991  -19.9799  -16.0180 C   0  0  0  0  0  0  0  0  0  0  0  0
   18.5819  -20.2264  -16.8302 O   0  0  0  0  0  0  0  0  0  0  0  0
   21.5004  -22.9635  -13.4746 N   0  0  0  0  0  0  0  0  0  0  0  0
   20.1638  -23.0679  -13.9190 C   0  0  0  0  0  0  0  0  0  0  0  0
   19.8960  -23.8370  -14.8737 O   0  0  0  0  0  0  0  0  0  0  0  0
   19.0997  -22.2900  -13.2767 C   0  0  0  0  0  0  0  0  0  0  0  0
   18.4268  -21.3179  -14.2321 C   0  0  2  0  0  0  0  0  0  0  0  0
   19.4441  -20.3987  -14.6875 N   0  0  0  0  0  0  0  0  0  0  0  0
   17.2772  -20.6463  -13.6253 C   0  0  0  0  0  0  0  0  0  0  0  0
   16.1891  -21.3621  -13.1618 O   0  0  0  0  0  0  0  0  0  0  0  0
   17.2594  -19.3985  -13.5145 O   0  0  0  0  0  0  0  0  0  0  0  0
  2  1  1  6
  2  8  1  0
  2  3  1  0
  3  4  1  0
  4  5  1  0
  5  6  1  0
  6  7  1  0
  8  9  2  0
 10 11  1  0
 10  8  1  0
 11 12  1  0
 12 13  2  0
 12 19  1  0
 14 15  1  0
 15 17  1  0
 16 15  2  0
 18 17  1  1
 18 20  1  0
 19 18  1  0
 20 21  1  0
 22 20  2  0
M  END
$$$$
