KGN.pdb
     RDKit          3D

 22 21  0  0  1  0  0  0  0  0999 V2000
   27.6897  -18.8694  -16.5760 N   0  0  0  0  0  0  0  0  0  0  0  0
   27.3960  -18.4892  -17.9259 C   0  0  1  0  0  0  0  0  0  0  0  0
   27.6082  -19.5457  -18.9634 C   0  0  0  0  0  0  0  0  0  0  0  0
   28.5884  -20.5991  -18.6454 C   0  0  0  0  0  0  0  0  0  0  0  0
   28.1485  -21.7568  -17.8427 C   0  0  0  0  0  0  0  0  0  0  0  0
   29.1110  -22.8844  -17.7118 C   0  0  0  0  0  0  0  0  0  0  0  0
   28.7789  -23.8505  -16.6989 N   0  0  0  0  0  0  0  0  0  0  0  0
   25.9228  -18.1619  -17.9764 C   0  0  0  0  0  0  0  0  0  0  0  0
   25.3718  -17.7960  -19.0458 O   0  0  0  0  0  0  0  0  0  0  0  0
   25.1043  -18.2533  -16.8256 N   0  0  0  0  0  0  0  0  0  0  0  0
   23.6677  -17.9632  -16.9098 C   0  0  0  0  0  0  0  0  0  0  0  0
   22.8627  -19.1200  -16.4984 C   0  0  0  0  0  0  0  0  0  0  0  0
   22.9531  -20.1747  -17.1628 O   0  0  0  0  0  0  0  0  0  0  0  0
   20.7830  -18.6691  -12.6069 N   0  0  0  0  0  0  0  0  0  0  0  0
   21.6420  -19.7836  -12.4841 C   0  0  0  0  0  0  0  0  0  0  0  0
   22.1574  -20.0373  -11.3685 O   0  0  0  0  0  0  0  0  0  0  0  0
   21.9308  -20.6357  -13.6419 C   0  0  0  0  0  0  0  0  0  0  0  0
   21.2593  -20.1431  -14.9135 C   0  0  2  0  0  0  0  0  0  0  0  0
   22.0252  -19.0132  -15.3868 N   0  0  0  0  0  0  0  0  0  0  0  0
   19.8438  -19.8324  -14.7116 C   0  0  0  0  0  0  0  0  0  0  0  0
   19.3934  -18.5259  -14.6728 O   0  0  0  0  0  0  0  0  0  0  0  0
   19.0078  -20.7544  -14.5689 O   0  0  0  0  0  0  0  0  0  0  0  0
  2  1  1  1
  2  8  1  0
  2  3  1  0
  3  4  1  0
  4  5  1  0
  5  6  1  0
  6  7  1  0
  8  9  2  0
 10 11  1  0
 10  8  1  0
 11 12  1  0
 12 13  2  0
 12 19  1  0
 14 15  1  0
 15 17  1  0
 16 15  2  0
 18 17  1  1
 18 20  1  0
 19 18  1  0
 20 21  1  0
 22 20  2  0
M  END
$$$$
