KGN.pdb
     RDKit          3D

 22 21  0  0  1  0  0  0  0  0999 V2000
   26.8365  -21.6659  -13.6898 N   0  0  0  0  0  0  0  0  0  0  0  0
   27.3689  -20.7176  -12.7569 C   0  0  1  0  0  0  0  0  0  0  0  0
   27.6764  -19.3612  -13.3073 C   0  0  0  0  0  0  0  0  0  0  0  0
   27.1097  -19.0384  -14.6287 C   0  0  0  0  0  0  0  0  0  0  0  0
   27.8936  -19.3675  -15.8350 C   0  0  0  0  0  0  0  0  0  0  0  0
   27.3463  -18.8981  -17.1370 C   0  0  0  0  0  0  0  0  0  0  0  0
   28.1300  -19.2568  -18.2888 N   0  0  0  0  0  0  0  0  0  0  0  0
   26.3080  -20.4971  -11.7052 C   0  0  0  0  0  0  0  0  0  0  0  0
   26.3917  -19.5503  -10.8821 O   0  0  0  0  0  0  0  0  0  0  0  0
   25.1793  -21.3447  -11.6032 N   0  0  0  0  0  0  0  0  0  0  0  0
   24.0785  -21.0106  -10.6914 C   0  0  0  0  0  0  0  0  0  0  0  0
   22.8355  -20.7461  -11.4267 C   0  0  0  0  0  0  0  0  0  0  0  0
   21.8270  -20.3875  -10.7815 O   0  0  0  0  0  0  0  0  0  0  0  0
   22.1165  -18.1201  -14.5960 N   0  0  0  0  0  0  0  0  0  0  0  0
   22.3209  -19.2119  -15.4685 C   0  0  0  0  0  0  0  0  0  0  0  0
   22.7689  -18.9971  -16.6208 O   0  0  0  0  0  0  0  0  0  0  0  0
   22.0152  -20.5799  -15.0383 C   0  0  0  0  0  0  0  0  0  0  0  0
   21.6091  -20.6566  -13.5755 C   0  0  2  0  0  0  0  0  0  0  0  0
   22.8123  -20.9004  -12.8138 N   0  0  0  0  0  0  0  0  0  0  0  0
   20.5677  -21.6568  -13.3382 C   0  0  0  0  0  0  0  0  0  0  0  0
   19.2542  -21.2876  -13.1159 O   0  0  0  0  0  0  0  0  0  0  0  0
   20.8519  -22.8769  -13.3324 O   0  0  0  0  0  0  0  0  0  0  0  0
  2  1  1  6
  2  8  1  0
  2  3  1  0
  3  4  1  0
  4  5  1  0
  5  6  1  0
  6  7  1  0
  8  9  2  0
 10 11  1  0
 10  8  1  0
 11 12  1  0
 12 13  2  0
 12 19  1  0
 14 15  1  0
 15 17  1  0
 16 15  2  0
 18 17  1  6
 18 20  1  0
 19 18  1  0
 20 21  1  0
 22 20  2  0
M  END
$$$$
