KGN.pdb
     RDKit          3D

 22 21  0  0  1  0  0  0  0  0999 V2000
   17.9440    0.1268  -17.9457 N   0  0  0  0  0  0  0  0  0  0  0  0
   16.6700   -0.3716  -18.3716 C   0  0  1  0  0  0  0  0  0  0  0  0
   16.4044   -0.3146  -19.8425 C   0  0  0  0  0  0  0  0  0  0  0  0
   17.5047   -0.7284  -20.7309 C   0  0  0  0  0  0  0  0  0  0  0  0
   17.2567   -0.7893  -22.1844 C   0  0  0  0  0  0  0  0  0  0  0  0
   18.4123   -1.1619  -23.0452 C   0  0  0  0  0  0  0  0  0  0  0  0
   19.5964   -1.5598  -22.3317 N   0  0  0  0  0  0  0  0  0  0  0  0
   16.6314   -1.8370  -18.0094 C   0  0  0  0  0  0  0  0  0  0  0  0
   15.5902   -2.5226  -18.1731 O   0  0  0  0  0  0  0  0  0  0  0  0
   17.7624   -2.4968  -17.4724 N   0  0  0  0  0  0  0  0  0  0  0  0
   17.7108   -3.9319  -17.1675 C   0  0  0  0  0  0  0  0  0  0  0  0
   19.0082   -4.4244  -16.6879 C   0  0  0  0  0  0  0  0  0  0  0  0
   20.0174   -3.7075  -16.8594 O   0  0  0  0  0  0  0  0  0  0  0  0
   22.7221   -6.8252  -14.2892 N   0  0  0  0  0  0  0  0  0  0  0  0
   22.0205   -5.7031  -13.7957 C   0  0  0  0  0  0  0  0  0  0  0  0
   22.4777   -5.0847  -12.8041 O   0  0  0  0  0  0  0  0  0  0  0  0
   20.7741   -5.2626  -14.4300 C   0  0  0  0  0  0  0  0  0  0  0  0
   20.3333   -6.1832  -15.5565 C   0  0  2  0  0  0  0  0  0  0  0  0
   19.0803   -5.6684  -16.0588 N   0  0  0  0  0  0  0  0  0  0  0  0
   20.2503   -7.5814  -15.1331 C   0  0  0  0  0  0  0  0  0  0  0  0
   21.1425   -8.5280  -15.6011 O   0  0  0  0  0  0  0  0  0  0  0  0
   19.3603   -7.9478  -14.3312 O   0  0  0  0  0  0  0  0  0  0  0  0
  2  1  1  6
  2  8  1  0
  2  3  1  0
  3  4  1  0
  4  5  1  0
  5  6  1  0
  6  7  1  0
  8  9  2  0
 10 11  1  0
 10  8  1  0
 11 12  1  0
 12 13  2  0
 12 19  1  0
 14 15  1  0
 15 17  1  0
 16 15  2  0
 18 17  1  1
 18 20  1  0
 19 18  1  0
 20 21  1  0
 22 20  2  0
M  END
$$$$
