KGN.pdb
     RDKit          3D

 22 21  0  0  1  0  0  0  0  0999 V2000
   27.2318  -23.0919  -18.0794 N   0  0  0  0  0  0  0  0  0  0  0  0
   28.1837  -22.8477  -17.0366 C   0  0  1  0  0  0  0  0  0  0  0  0
   29.4619  -22.1950  -17.4580 C   0  0  0  0  0  0  0  0  0  0  0  0
   30.4820  -23.0672  -18.0662 C   0  0  0  0  0  0  0  0  0  0  0  0
   30.7926  -24.3546  -17.4150 C   0  0  0  0  0  0  0  0  0  0  0  0
   31.9030  -25.1515  -18.0040 C   0  0  0  0  0  0  0  0  0  0  0  0
   32.1314  -26.4272  -17.3797 N   0  0  0  0  0  0  0  0  0  0  0  0
   27.5358  -21.8842  -16.0712 C   0  0  0  0  0  0  0  0  0  0  0  0
   28.0886  -21.5792  -14.9838 O   0  0  0  0  0  0  0  0  0  0  0  0
   26.2836  -21.2868  -16.3499 N   0  0  0  0  0  0  0  0  0  0  0  0
   25.6993  -20.3151  -15.4175 C   0  0  0  0  0  0  0  0  0  0  0  0
   24.7919  -20.9663  -14.4644 C   0  0  0  0  0  0  0  0  0  0  0  0
   24.3284  -22.0896  -14.7562 O   0  0  0  0  0  0  0  0  0  0  0  0
   25.7776  -22.1395  -10.9261 N   0  0  0  0  0  0  0  0  0  0  0  0
   25.1846  -21.0133  -10.3139 C   0  0  0  0  0  0  0  0  0  0  0  0
   25.6608  -20.5828   -9.2357 O   0  0  0  0  0  0  0  0  0  0  0  0
   24.0278  -20.3522  -10.9263 C   0  0  0  0  0  0  0  0  0  0  0  0
   23.6495  -20.9583  -12.2679 C   0  0  2  0  0  0  0  0  0  0  0  0
   24.4735  -20.3203  -13.2686 N   0  0  0  0  0  0  0  0  0  0  0  0
   22.2176  -20.8447  -12.5466 C   0  0  0  0  0  0  0  0  0  0  0  0
   21.3085  -21.7391  -12.0128 O   0  0  0  0  0  0  0  0  0  0  0  0
   21.7870  -19.9258  -13.2811 O   0  0  0  0  0  0  0  0  0  0  0  0
  2  1  1  6
  2  8  1  0
  2  3  1  0
  3  4  1  0
  4  5  1  0
  5  6  1  0
  6  7  1  0
  8  9  2  0
 10 11  1  0
 10  8  1  0
 11 12  1  0
 12 13  2  0
 12 19  1  0
 14 15  1  0
 15 17  1  0
 16 15  2  0
 18 17  1  1
 18 20  1  0
 19 18  1  0
 20 21  1  0
 22 20  2  0
M  END
$$$$
