KGN.pdb
     RDKit          3D

 22 21  0  0  1  0  0  0  0  0999 V2000
   24.2693  -19.5135  -15.9234 N   0  0  0  0  0  0  0  0  0  0  0  0
   25.4656  -18.9238  -15.3998 C   0  0  1  0  0  0  0  0  0  0  0  0
   26.7512  -19.4567  -15.9481 C   0  0  0  0  0  0  0  0  0  0  0  0
   26.8799  -20.9224  -16.0290 C   0  0  0  0  0  0  0  0  0  0  0  0
   28.1857  -21.4991  -16.4036 C   0  0  0  0  0  0  0  0  0  0  0  0
   28.3051  -22.9813  -16.3406 C   0  0  0  0  0  0  0  0  0  0  0  0
   29.5791  -23.5050  -16.7557 N   0  0  0  0  0  0  0  0  0  0  0  0
   25.4361  -17.4635  -15.7830 C   0  0  0  0  0  0  0  0  0  0  0  0
   25.1389  -17.1007  -16.9496 O   0  0  0  0  0  0  0  0  0  0  0  0
   25.7409  -16.4464  -14.8474 N   0  0  0  0  0  0  0  0  0  0  0  0
   25.6686  -15.0326  -15.2360 C   0  0  0  0  0  0  0  0  0  0  0  0
   24.2768  -14.5845  -15.3697 C   0  0  0  0  0  0  0  0  0  0  0  0
   23.3631  -15.4166  -15.1840 O   0  0  0  0  0  0  0  0  0  0  0  0
   20.2728  -11.3611  -15.4520 N   0  0  0  0  0  0  0  0  0  0  0  0
   21.4316  -10.5940  -15.7043 C   0  0  0  0  0  0  0  0  0  0  0  0
   21.3242   -9.3507  -15.8361 O   0  0  0  0  0  0  0  0  0  0  0  0
   22.7449  -11.2371  -15.8117 C   0  0  0  0  0  0  0  0  0  0  0  0
   22.6589  -12.7542  -15.7722 C   0  0  2  0  0  0  0  0  0  0  0  0
   24.0126  -13.2536  -15.6976 N   0  0  0  0  0  0  0  0  0  0  0  0
   21.9081  -13.2993  -16.9036 C   0  0  0  0  0  0  0  0  0  0  0  0
   22.5386  -14.0057  -17.9109 O   0  0  0  0  0  0  0  0  0  0  0  0
   20.6687  -13.1332  -16.9794 O   0  0  0  0  0  0  0  0  0  0  0  0
  2  1  1  6
  2  8  1  0
  2  3  1  0
  3  4  1  0
  4  5  1  0
  5  6  1  0
  6  7  1  0
  8  9  2  0
 10 11  1  0
 10  8  1  0
 11 12  1  0
 12 13  2  0
 12 19  1  0
 14 15  1  0
 15 17  1  0
 16 15  2  0
 18 17  1  6
 18 20  1  0
 19 18  1  0
 20 21  1  0
 22 20  2  0
M  END
$$$$
