KGN.pdb
     RDKit          3D

 22 21  0  0  1  0  0  0  0  0999 V2000
   23.0078  -16.0000  -17.4018 N   0  0  0  0  0  0  0  0  0  0  0  0
   23.9479  -15.9672  -16.3209 C   0  0  1  0  0  0  0  0  0  0  0  0
   25.2168  -16.7295  -16.5351 C   0  0  0  0  0  0  0  0  0  0  0  0
   25.0889  -18.0822  -17.1054 C   0  0  0  0  0  0  0  0  0  0  0  0
   26.3113  -18.7873  -17.5371 C   0  0  0  0  0  0  0  0  0  0  0  0
   26.1235  -20.1044  -18.2044 C   0  0  0  0  0  0  0  0  0  0  0  0
   27.3378  -20.7451  -18.6338 N   0  0  0  0  0  0  0  0  0  0  0  0
   24.3650  -14.5262  -16.1490 C   0  0  0  0  0  0  0  0  0  0  0  0
   25.1739  -14.1837  -15.2493 O   0  0  0  0  0  0  0  0  0  0  0  0
   23.8640  -13.5050  -16.9910 N   0  0  0  0  0  0  0  0  0  0  0  0
   24.1995  -12.0989  -16.7351 C   0  0  0  0  0  0  0  0  0  0  0  0
   22.9930  -11.2929  -16.5101 C   0  0  0  0  0  0  0  0  0  0  0  0
   21.8927  -11.7508  -16.8862 O   0  0  0  0  0  0  0  0  0  0  0  0
   19.9308   -7.4675  -14.8995 N   0  0  0  0  0  0  0  0  0  0  0  0
   21.1581   -7.3769  -14.2062 C   0  0  0  0  0  0  0  0  0  0  0  0
   21.2671   -6.5576  -13.2621 O   0  0  0  0  0  0  0  0  0  0  0  0
   22.2926   -8.2269  -14.5810 C   0  0  0  0  0  0  0  0  0  0  0  0
   21.9526   -9.1974  -15.7003 C   0  0  2  0  0  0  0  0  0  0  0  0
   23.1050  -10.0483  -15.8882 N   0  0  0  0  0  0  0  0  0  0  0  0
   21.5397   -8.5123  -16.9254 C   0  0  0  0  0  0  0  0  0  0  0  0
   20.2039   -8.3259  -17.2292 O   0  0  0  0  0  0  0  0  0  0  0  0
   22.3984   -8.0787  -17.7279 O   0  0  0  0  0  0  0  0  0  0  0  0
  2  1  1  6
  2  8  1  0
  2  3  1  0
  3  4  1  0
  4  5  1  0
  5  6  1  0
  6  7  1  0
  8  9  2  0
 10 11  1  0
 10  8  1  0
 11 12  1  0
 12 13  2  0
 12 19  1  0
 14 15  1  0
 15 17  1  0
 16 15  2  0
 18 17  1  1
 18 20  1  0
 19 18  1  0
 20 21  1  0
 22 20  2  0
M  END
$$$$
