PWT.pdb
     RDKit          3D

 29 31  0  0  1  0  0  0  0  0999 V2000
   28.0576  -19.7417  -14.8061 N   0  0  0  0  0  0  0  0  0  0  0  0
   29.0507  -19.7697  -15.8911 C   0  0  0  0  0  0  0  0  0  0  0  0
   29.8099  -21.0544  -15.7360 C   0  0  0  0  0  0  0  0  0  0  0  0
   29.0767  -21.7940  -14.6474 C   0  0  0  0  0  0  0  0  0  0  0  0
   27.7108  -21.1236  -14.6820 C   0  0  1  0  0  0  0  0  0  0  0  0
   27.0298  -21.4193  -13.3835 C   0  0  0  0  0  0  0  0  0  0  0  0
   26.3052  -22.4355  -13.3357 O   0  0  0  0  0  0  0  0  0  0  0  0
   27.1806  -20.6063  -12.2500 N   0  0  0  0  0  0  0  0  0  0  0  0
   26.5662  -20.7657  -10.9838 C   0  0  1  0  0  0  0  0  0  0  0  0
   27.3927  -20.4158   -9.7695 C   0  0  0  0  0  0  0  0  0  0  0  0
   26.6838  -20.5732   -8.4933 C   0  0  0  0  0  0  0  0  0  0  0  0
   25.4308  -21.0077   -8.1553 C   0  0  0  0  0  0  0  0  0  0  0  0
   25.2781  -20.9629   -6.8229 N   0  0  0  0  0  0  0  0  0  0  0  0
   26.3945  -20.5112   -6.2615 C   0  0  0  0  0  0  0  0  0  0  0  0
   26.7389  -20.2876   -4.9290 C   0  0  0  0  0  0  0  0  0  0  0  0
   27.9814  -19.8117   -4.6099 C   0  0  0  0  0  0  0  0  0  0  0  0
   28.9043  -19.5485   -5.5929 C   0  0  0  0  0  0  0  0  0  0  0  0
   28.5282  -19.7832   -6.9200 C   0  0  0  0  0  0  0  0  0  0  0  0
   27.3004  -20.2552   -7.2686 C   0  0  0  0  0  0  0  0  0  0  0  0
   25.1943  -20.2442  -10.9608 C   0  0  0  0  0  0  0  0  0  0  0  0
   25.0457  -18.9965  -10.9094 O   0  0  0  0  0  0  0  0  0  0  0  0
   23.0585  -19.9941  -13.6748 C   0  0  0  0  0  0  0  0  0  0  0  0
   22.2239  -20.7128  -12.6471 C   0  0  1  0  0  0  0  0  0  0  0  0
   22.0218  -22.0443  -12.9178 O   0  0  0  0  0  0  0  0  0  0  0  0
   22.7454  -20.4480  -11.2499 C   0  0  2  0  0  0  0  0  0  0  0  0
   24.0177  -21.0326  -10.9919 N   0  0  0  0  0  0  0  0  0  0  0  0
   21.7102  -20.8071  -10.2644 C   0  0  0  0  0  0  0  0  0  0  0  0
   21.9315  -21.7011   -9.4101 O   0  0  0  0  0  0  0  0  0  0  0  0
   20.4659  -20.1964  -10.2232 O   0  0  0  0  0  0  0  0  0  0  0  0
  2  1  1  0
  3  4  1  0
  3  2  1  0
  4  5  1  0
  5  1  1  0
  5  6  1  1
  6  7  2  0
  6  8  1  0
  8  9  1  0
  9 20  1  0
  9 10  1  1
 10 11  1  0
 11 19  1  0
 12 11  2  0
 12 13  1  0
 13 14  1  0
 14 15  1  0
 15 16  2  0
 17 16  1  0
 18 17  2  0
 19 14  2  0
 19 18  1  0
 20 21  2  0
 23 22  1  6
 24 23  1  0
 25 23  1  0
 26 20  1  0
 25 26  1  1
 27 25  1  0
 27 29  1  0
 28 27  2  0
M  END
$$$$
