PWT.pdb
     RDKit          3D

 29 31  0  0  1  0  0  0  0  0999 V2000
   27.6513  -20.9966  -16.8705 N   0  0  0  0  0  0  0  0  0  0  0  0
   28.9081  -21.1491  -17.6199 C   0  0  0  0  0  0  0  0  0  0  0  0
   29.7824  -22.0510  -16.7997 C   0  0  0  0  0  0  0  0  0  0  0  0
   28.8913  -22.5193  -15.6789 C   0  0  0  0  0  0  0  0  0  0  0  0
   27.5063  -22.2838  -16.2643 C   0  0  1  0  0  0  0  0  0  0  0  0
   26.5332  -22.2654  -15.1284 C   0  0  0  0  0  0  0  0  0  0  0  0
   26.4476  -23.2982  -14.4314 O   0  0  0  0  0  0  0  0  0  0  0  0
   25.7369  -21.1481  -14.8351 N   0  0  0  0  0  0  0  0  0  0  0  0
   24.8970  -20.9563  -13.7108 C   0  0  1  0  0  0  0  0  0  0  0  0
   25.3093  -19.8963  -12.7175 C   0  0  0  0  0  0  0  0  0  0  0  0
   26.5126  -20.2306  -11.9454 C   0  0  0  0  0  0  0  0  0  0  0  0
   27.8313  -20.3939  -12.2735 C   0  0  0  0  0  0  0  0  0  0  0  0
   28.5395  -20.6948  -11.1742 N   0  0  0  0  0  0  0  0  0  0  0  0
   27.7306  -20.7365  -10.1208 C   0  0  0  0  0  0  0  0  0  0  0  0
   27.9742  -20.9986   -8.7732 C   0  0  0  0  0  0  0  0  0  0  0  0
   26.9460  -20.9750   -7.8708 C   0  0  0  0  0  0  0  0  0  0  0  0
   25.6641  -20.6938   -8.2768 C   0  0  0  0  0  0  0  0  0  0  0  0
   25.4525  -20.4354   -9.6355 C   0  0  0  0  0  0  0  0  0  0  0  0
   26.4541  -20.4521  -10.5565 C   0  0  0  0  0  0  0  0  0  0  0  0
   23.4753  -20.9332  -14.0750 C   0  0  0  0  0  0  0  0  0  0  0  0
   23.1322  -20.2021  -15.0390 O   0  0  0  0  0  0  0  0  0  0  0  0
   18.9959  -22.8859  -14.3251 C   0  0  0  0  0  0  0  0  0  0  0  0
   20.4258  -22.9974  -13.8642 C   0  0  1  0  0  0  0  0  0  0  0  0
   21.1377  -23.9999  -14.4768 O   0  0  0  0  0  0  0  0  0  0  0  0
   21.1123  -21.6481  -13.9096 C   0  0  2  0  0  0  0  0  0  0  0  0
   22.4521  -21.6693  -13.4284 N   0  0  0  0  0  0  0  0  0  0  0  0
   20.2571  -20.6412  -13.2564 C   0  0  0  0  0  0  0  0  0  0  0  0
   20.5222  -20.2419  -12.0952 O   0  0  0  0  0  0  0  0  0  0  0  0
   19.1409  -20.0907  -13.8679 O   0  0  0  0  0  0  0  0  0  0  0  0
  2  1  1  0
  3  4  1  0
  3  2  1  0
  4  5  1  0
  5  1  1  0
  5  6  1  1
  6  7  2  0
  6  8  1  0
  8  9  1  0
  9 20  1  0
  9 10  1  6
 10 11  1  0
 11 19  1  0
 12 11  2  0
 12 13  1  0
 13 14  1  0
 14 15  1  0
 15 16  2  0
 17 16  1  0
 18 17  2  0
 19 14  2  0
 19 18  1  0
 20 21  2  0
 23 22  1  6
 24 23  1  0
 25 23  1  0
 26 20  1  0
 25 26  1  1
 27 25  1  0
 27 29  1  0
 28 27  2  0
M  END
$$$$
