PWT.pdb
     RDKit          3D

 29 31  0  0  1  0  0  0  0  0999 V2000
   28.1549  -20.7536  -14.8463 N   0  0  0  0  0  0  0  0  0  0  0  0
   28.7530  -19.7576  -15.7488 C   0  0  0  0  0  0  0  0  0  0  0  0
   28.2249  -18.4223  -15.3141 C   0  0  0  0  0  0  0  0  0  0  0  0
   27.4697  -18.7135  -14.0435 C   0  0  0  0  0  0  0  0  0  0  0  0
   28.0871  -20.0357  -13.6112 C   0  0  1  0  0  0  0  0  0  0  0  0
   27.1485  -20.6755  -12.6381 C   0  0  0  0  0  0  0  0  0  0  0  0
   26.6669  -21.7843  -12.9520 O   0  0  0  0  0  0  0  0  0  0  0  0
   26.8054  -20.0777  -11.4161 N   0  0  0  0  0  0  0  0  0  0  0  0
   25.8767  -20.5466  -10.4548 C   0  0  1  0  0  0  0  0  0  0  0  0
   26.1679  -20.2321   -9.0070 C   0  0  0  0  0  0  0  0  0  0  0  0
   27.5363  -20.5560   -8.5842 C   0  0  0  0  0  0  0  0  0  0  0  0
   28.5651  -21.2492   -9.1621 C   0  0  0  0  0  0  0  0  0  0  0  0
   29.6298  -21.2477   -8.3453 N   0  0  0  0  0  0  0  0  0  0  0  0
   29.3408  -20.5723   -7.2382 C   0  0  0  0  0  0  0  0  0  0  0  0
   30.0965  -20.2847   -6.1023 C   0  0  0  0  0  0  0  0  0  0  0  0
   29.5543  -19.5510   -5.0825 C   0  0  0  0  0  0  0  0  0  0  0  0
   28.2632  -19.0885   -5.1621 C   0  0  0  0  0  0  0  0  0  0  0  0
   27.5311  -19.3939   -6.3146 C   0  0  0  0  0  0  0  0  0  0  0  0
   28.0424  -20.1216   -7.3447 C   0  0  0  0  0  0  0  0  0  0  0  0
   24.4863  -20.3136  -10.8636 C   0  0  0  0  0  0  0  0  0  0  0  0
   24.0142  -19.1605  -10.6937 O   0  0  0  0  0  0  0  0  0  0  0  0
   23.0793  -20.6957  -14.3901 C   0  0  0  0  0  0  0  0  0  0  0  0
   22.1838  -21.4281  -13.4251 C   0  0  1  0  0  0  0  0  0  0  0  0
   22.2458  -22.7965  -13.5280 O   0  0  0  0  0  0  0  0  0  0  0  0
   22.3796  -20.9143  -12.0138 C   0  0  2  0  0  0  0  0  0  0  0  0
   23.6275  -21.2837  -11.4365 N   0  0  0  0  0  0  0  0  0  0  0  0
   21.2097  -21.2764  -11.1940 C   0  0  0  0  0  0  0  0  0  0  0  0
   21.3368  -22.0579  -10.2188 O   0  0  0  0  0  0  0  0  0  0  0  0
   19.9356  -20.7894  -11.4438 O   0  0  0  0  0  0  0  0  0  0  0  0
  2  1  1  0
  3  4  1  0
  3  2  1  0
  4  5  1  0
  5  1  1  0
  5  6  1  1
  6  7  2  0
  6  8  1  0
  8  9  1  0
  9 20  1  0
  9 10  1  1
 10 11  1  0
 11 19  1  0
 12 11  2  0
 12 13  1  0
 13 14  1  0
 14 15  1  0
 15 16  2  0
 17 16  1  0
 18 17  2  0
 19 14  2  0
 19 18  1  0
 20 21  2  0
 23 22  1  6
 24 23  1  0
 25 23  1  0
 26 20  1  0
 25 26  1  1
 27 25  1  0
 27 29  1  0
 28 27  2  0
M  END
$$$$
