PWT.pdb
     RDKit          3D

 29 31  0  0  1  0  0  0  0  0999 V2000
   27.6908  -18.6623  -14.3955 N   0  0  0  0  0  0  0  0  0  0  0  0
   28.9161  -18.0309  -14.9098 C   0  0  0  0  0  0  0  0  0  0  0  0
   29.8792  -19.1458  -15.1927 C   0  0  0  0  0  0  0  0  0  0  0  0
   29.0719  -20.4005  -14.9846 C   0  0  0  0  0  0  0  0  0  0  0  0
   27.6489  -19.8835  -15.1388 C   0  0  1  0  0  0  0  0  0  0  0  0
   26.7330  -20.8900  -14.5178 C   0  0  0  0  0  0  0  0  0  0  0  0
   26.5180  -21.9401  -15.1587 O   0  0  0  0  0  0  0  0  0  0  0  0
   26.1268  -20.6890  -13.2686 N   0  0  0  0  0  0  0  0  0  0  0  0
   25.2549  -21.5672  -12.5795 C   0  0  1  0  0  0  0  0  0  0  0  0
   25.7660  -22.1764  -11.2959 C   0  0  0  0  0  0  0  0  0  0  0  0
   25.9871  -21.2067  -10.2158 C   0  0  0  0  0  0  0  0  0  0  0  0
   25.1825  -20.3006   -9.5795 C   0  0  0  0  0  0  0  0  0  0  0  0
   25.8852  -19.6499   -8.6396 N   0  0  0  0  0  0  0  0  0  0  0  0
   27.1366  -20.0964   -8.6301 C   0  0  0  0  0  0  0  0  0  0  0  0
   28.2397  -19.7507   -7.8505 C   0  0  0  0  0  0  0  0  0  0  0  0
   29.4409  -20.3775   -8.0414 C   0  0  0  0  0  0  0  0  0  0  0  0
   29.5776  -21.3526   -8.9993 C   0  0  0  0  0  0  0  0  0  0  0  0
   28.4523  -21.6767   -9.7650 C   0  0  0  0  0  0  0  0  0  0  0  0
   27.2451  -21.0709   -9.5991 C   0  0  0  0  0  0  0  0  0  0  0  0
   23.8841  -21.0472  -12.5064 C   0  0  0  0  0  0  0  0  0  0  0  0
   23.7210  -19.9004  -12.0167 O   0  0  0  0  0  0  0  0  0  0  0  0
   21.8191  -19.5031  -14.7731 C   0  0  0  0  0  0  0  0  0  0  0  0
   20.9627  -20.6346  -14.2674 C   0  0  1  0  0  0  0  0  0  0  0  0
   20.7788  -21.6497  -15.1744 O   0  0  0  0  0  0  0  0  0  0  0  0
   21.4441  -21.1092  -12.9120 C   0  0  2  0  0  0  0  0  0  0  0  0
   22.7238  -21.7324  -12.9434 N   0  0  0  0  0  0  0  0  0  0  0  0
   20.3947  -21.9273  -12.2783 C   0  0  0  0  0  0  0  0  0  0  0  0
   20.6289  -23.1182  -11.9544 O   0  0  0  0  0  0  0  0  0  0  0  0
   19.1230  -21.4442  -12.0100 O   0  0  0  0  0  0  0  0  0  0  0  0
  2  1  1  0
  3  4  1  0
  3  2  1  0
  4  5  1  0
  5  1  1  0
  5  6  1  1
  6  7  2  0
  6  8  1  0
  8  9  1  0
  9 20  1  0
  9 10  1  1
 10 11  1  0
 11 19  1  0
 12 11  2  0
 12 13  1  0
 13 14  1  0
 14 15  1  0
 15 16  2  0
 17 16  1  0
 18 17  2  0
 19 14  2  0
 19 18  1  0
 20 21  2  0
 23 22  1  6
 24 23  1  0
 25 23  1  0
 26 20  1  0
 25 26  1  6
 27 25  1  0
 27 29  1  0
 28 27  2  0
M  END
$$$$
