PWT.pdb
     RDKit          3D

 29 31  0  0  1  0  0  0  0  0999 V2000
   26.8940  -21.8836  -17.7304 N   0  0  0  0  0  0  0  0  0  0  0  0
   27.1829  -22.0393  -19.1645 C   0  0  0  0  0  0  0  0  0  0  0  0
   28.6523  -21.7860  -19.3296 C   0  0  0  0  0  0  0  0  0  0  0  0
   29.1728  -21.6669  -17.9209 C   0  0  0  0  0  0  0  0  0  0  0  0
   28.0903  -22.3851  -17.1281 C   0  0  1  0  0  0  0  0  0  0  0  0
   28.2217  -21.9627  -15.6992 C   0  0  0  0  0  0  0  0  0  0  0  0
   29.2311  -22.3548  -15.0770 O   0  0  0  0  0  0  0  0  0  0  0  0
   27.2661  -21.1594  -15.0590 N   0  0  0  0  0  0  0  0  0  0  0  0
   27.3826  -20.5098  -13.8057 C   0  0  1  0  0  0  0  0  0  0  0  0
   27.6080  -19.0168  -13.8234 C   0  0  0  0  0  0  0  0  0  0  0  0
   26.7488  -18.2896  -14.7661 C   0  0  0  0  0  0  0  0  0  0  0  0
   25.4089  -18.0134  -14.8042 C   0  0  0  0  0  0  0  0  0  0  0  0
   25.1238  -17.2943  -15.9007 N   0  0  0  0  0  0  0  0  0  0  0  0
   26.2362  -17.0820  -16.5958 C   0  0  0  0  0  0  0  0  0  0  0  0
   26.4693  -16.3985  -17.7884 C   0  0  0  0  0  0  0  0  0  0  0  0
   27.7355  -16.3215  -18.3013 C   0  0  0  0  0  0  0  0  0  0  0  0
   28.7914  -16.9136  -17.6519 C   0  0  0  0  0  0  0  0  0  0  0  0
   28.5247  -17.5920  -16.4576 C   0  0  0  0  0  0  0  0  0  0  0  0
   27.2767  -17.6863  -15.9231 C   0  0  0  0  0  0  0  0  0  0  0  0
   26.3684  -20.9638  -12.8466 C   0  0  0  0  0  0  0  0  0  0  0  0
   25.4114  -21.6484  -13.2904 O   0  0  0  0  0  0  0  0  0  0  0  0
   26.0565  -19.6294   -8.7882 C   0  0  0  0  0  0  0  0  0  0  0  0
   25.6471  -21.0382   -9.1304 C   0  0  1  0  0  0  0  0  0  0  0  0
   24.6702  -21.5540   -8.3140 O   0  0  0  0  0  0  0  0  0  0  0  0
   25.3354  -21.1641  -10.6072 C   0  0  2  0  0  0  0  0  0  0  0  0
   26.3774  -20.6942  -11.4558 N   0  0  0  0  0  0  0  0  0  0  0  0
   24.0196  -20.5603  -10.8833 C   0  0  0  0  0  0  0  0  0  0  0  0
   23.9372  -19.4970  -11.5471 O   0  0  0  0  0  0  0  0  0  0  0  0
   22.8288  -21.1147  -10.4391 O   0  0  0  0  0  0  0  0  0  0  0  0
  2  1  1  0
  3  4  1  0
  3  2  1  0
  4  5  1  0
  5  1  1  0
  5  6  1  1
  6  7  2  0
  6  8  1  0
  8  9  1  0
  9 20  1  0
  9 10  1  6
 10 11  1  0
 11 19  1  0
 12 11  2  0
 12 13  1  0
 13 14  1  0
 14 15  1  0
 15 16  2  0
 17 16  1  0
 18 17  2  0
 19 14  2  0
 19 18  1  0
 20 21  2  0
 23 22  1  1
 24 23  1  0
 25 23  1  0
 26 20  1  0
 25 26  1  6
 27 25  1  0
 27 29  1  0
 28 27  2  0
M  END
$$$$
