PWT.pdb
     RDKit          3D

 29 31  0  0  1  0  0  0  0  0999 V2000
   28.3783  -19.5519  -13.3032 N   0  0  0  0  0  0  0  0  0  0  0  0
   29.6616  -19.5049  -14.0209 C   0  0  0  0  0  0  0  0  0  0  0  0
   30.4798  -20.6489  -13.4992 C   0  0  0  0  0  0  0  0  0  0  0  0
   29.5318  -21.4145  -12.6133 C   0  0  0  0  0  0  0  0  0  0  0  0
   28.1784  -20.9585  -13.1393 C   0  0  1  0  0  0  0  0  0  0  0  0
   27.1591  -21.2643  -12.0881 C   0  0  0  0  0  0  0  0  0  0  0  0
   26.6276  -22.3940  -12.1178 O   0  0  0  0  0  0  0  0  0  0  0  0
   26.7959  -20.3393  -11.0977 N   0  0  0  0  0  0  0  0  0  0  0  0
   25.7555  -20.4580  -10.1438 C   0  0  1  0  0  0  0  0  0  0  0  0
   26.0691  -20.0360   -8.7283 C   0  0  0  0  0  0  0  0  0  0  0  0
   27.3786  -20.4881   -8.2417 C   0  0  0  0  0  0  0  0  0  0  0  0
   28.3543  -21.2938   -8.7633 C   0  0  0  0  0  0  0  0  0  0  0  0
   29.3789  -21.3834   -7.9015 N   0  0  0  0  0  0  0  0  0  0  0  0
   29.1150  -20.6595   -6.8190 C   0  0  0  0  0  0  0  0  0  0  0  0
   29.8487  -20.4266   -5.6564 C   0  0  0  0  0  0  0  0  0  0  0  0
   29.3426  -19.6209   -4.6731 C   0  0  0  0  0  0  0  0  0  0  0  0
   28.1099  -19.0317   -4.8158 C   0  0  0  0  0  0  0  0  0  0  0  0
   27.3986  -19.2850   -5.9937 C   0  0  0  0  0  0  0  0  0  0  0  0
   27.8749  -20.0818   -6.9887 C   0  0  0  0  0  0  0  0  0  0  0  0
   24.4704  -19.9687  -10.6574 C   0  0  0  0  0  0  0  0  0  0  0  0
   24.4561  -18.8405  -11.2128 O   0  0  0  0  0  0  0  0  0  0  0  0
   23.1223  -21.9722  -13.1794 C   0  0  0  0  0  0  0  0  0  0  0  0
   22.5746  -20.5879  -12.9484 C   0  0  1  0  0  0  0  0  0  0  0  0
   21.5957  -20.2148  -13.8370 O   0  0  0  0  0  0  0  0  0  0  0  0
   22.1834  -20.3995  -11.4974 C   0  0  2  0  0  0  0  0  0  0  0  0
   23.2388  -20.6643  -10.5794 N   0  0  0  0  0  0  0  0  0  0  0  0
   20.9467  -21.1522  -11.2218 C   0  0  0  0  0  0  0  0  0  0  0  0
   20.9202  -22.0150  -10.3091 O   0  0  0  0  0  0  0  0  0  0  0  0
   19.7727  -20.9579  -11.9336 O   0  0  0  0  0  0  0  0  0  0  0  0
  2  1  1  0
  3  4  1  0
  3  2  1  0
  4  5  1  0
  5  1  1  0
  5  6  1  1
  6  7  2  0
  6  8  1  0
  8  9  1  0
  9 20  1  0
  9 10  1  1
 10 11  1  0
 11 19  1  0
 12 11  2  0
 12 13  1  0
 13 14  1  0
 14 15  1  0
 15 16  2  0
 17 16  1  0
 18 17  2  0
 19 14  2  0
 19 18  1  0
 20 21  2  0
 23 22  1  1
 24 23  1  0
 25 23  1  0
 26 20  1  0
 25 26  1  1
 27 25  1  0
 27 29  1  0
 28 27  2  0
M  END
$$$$
