PWT.pdb
     RDKit          3D

 29 31  0  0  1  0  0  0  0  0999 V2000
   28.0752  -20.7873  -16.5008 N   0  0  0  0  0  0  0  0  0  0  0  0
   29.1328  -21.1057  -17.4726 C   0  0  0  0  0  0  0  0  0  0  0  0
   29.9001  -22.2602  -16.8991 C   0  0  0  0  0  0  0  0  0  0  0  0
   29.1132  -22.6647  -15.6798 C   0  0  0  0  0  0  0  0  0  0  0  0
   27.7421  -22.0797  -15.9869 C   0  0  1  0  0  0  0  0  0  0  0  0
   26.9878  -21.9965  -14.6979 C   0  0  0  0  0  0  0  0  0  0  0  0
   26.6339  -23.0723  -14.1714 O   0  0  0  0  0  0  0  0  0  0  0  0
   26.6767  -20.7742  -14.0833 N   0  0  0  0  0  0  0  0  0  0  0  0
   26.0927  -20.5713  -12.8090 C   0  0  1  0  0  0  0  0  0  0  0  0
   26.8703  -19.7343  -11.8216 C   0  0  0  0  0  0  0  0  0  0  0  0
   27.7851  -20.5040  -10.9693 C   0  0  0  0  0  0  0  0  0  0  0  0
   28.8582  -21.3143  -11.2243 C   0  0  0  0  0  0  0  0  0  0  0  0
   29.3613  -21.7792  -10.0704 N   0  0  0  0  0  0  0  0  0  0  0  0
   28.6545  -21.3015   -9.0518 C   0  0  0  0  0  0  0  0  0  0  0  0
   28.7735  -21.4810   -7.6742 C   0  0  0  0  0  0  0  0  0  0  0  0
   27.9016  -20.8604   -6.8215 C   0  0  0  0  0  0  0  0  0  0  0  0
   26.9006  -20.0548   -7.3075 C   0  0  0  0  0  0  0  0  0  0  0  0
   26.8077  -19.8950   -8.6944 C   0  0  0  0  0  0  0  0  0  0  0  0
   27.6590  -20.4992   -9.5673 C   0  0  0  0  0  0  0  0  0  0  0  0
   24.6644  -20.2443  -12.8965 C   0  0  0  0  0  0  0  0  0  0  0  0
   24.3518  -19.1147  -13.3522 O   0  0  0  0  0  0  0  0  0  0  0  0
   21.8021  -23.0158  -13.6940 C   0  0  0  0  0  0  0  0  0  0  0  0
   21.6201  -21.5347  -13.9006 C   0  0  1  0  0  0  0  0  0  0  0  0
   20.3288  -21.1606  -14.1825 O   0  0  0  0  0  0  0  0  0  0  0  0
   22.2464  -20.7523  -12.7650 C   0  0  2  0  0  0  0  0  0  0  0  0
   23.6032  -21.0990  -12.5088 N   0  0  0  0  0  0  0  0  0  0  0  0
   21.3746  -20.8276  -11.5791 C   0  0  0  0  0  0  0  0  0  0  0  0
   20.1535  -20.5480  -11.6716 O   0  0  0  0  0  0  0  0  0  0  0  0
   21.8381  -21.2009  -10.3266 O   0  0  0  0  0  0  0  0  0  0  0  0
  2  1  1  0
  3  4  1  0
  3  2  1  0
  4  5  1  0
  5  1  1  0
  5  6  1  1
  6  7  2  0
  6  8  1  0
  8  9  1  0
  9 20  1  0
  9 10  1  6
 10 11  1  0
 11 19  1  0
 12 11  2  0
 12 13  1  0
 13 14  1  0
 14 15  1  0
 15 16  2  0
 17 16  1  0
 18 17  2  0
 19 14  2  0
 19 18  1  0
 20 21  2  0
 23 22  1  1
 24 23  1  0
 25 23  1  0
 26 20  1  0
 25 26  1  1
 27 25  1  0
 27 29  1  0
 28 27  2  0
M  END
$$$$
