PWT.pdb
     RDKit          3D

 29 31  0  0  1  0  0  0  0  0999 V2000
   27.7227  -19.1395  -14.4907 N   0  0  0  0  0  0  0  0  0  0  0  0
   28.9453  -18.8923  -15.2706 C   0  0  0  0  0  0  0  0  0  0  0  0
   29.7908  -20.1239  -15.1329 C   0  0  0  0  0  0  0  0  0  0  0  0
   28.9085  -21.1049  -14.4058 C   0  0  0  0  0  0  0  0  0  0  0  0
   27.5223  -20.5422  -14.6851 C   0  0  1  0  0  0  0  0  0  0  0  0
   26.5867  -21.1235  -13.6731 C   0  0  0  0  0  0  0  0  0  0  0  0
   26.2297  -22.3088  -13.8380 O   0  0  0  0  0  0  0  0  0  0  0  0
   26.1137  -20.3905  -12.5742 N   0  0  0  0  0  0  0  0  0  0  0  0
   25.2124  -20.8222  -11.5704 C   0  0  1  0  0  0  0  0  0  0  0  0
   25.5700  -20.4979  -10.1396 C   0  0  0  0  0  0  0  0  0  0  0  0
   26.9354  -20.8809   -9.7590 C   0  0  0  0  0  0  0  0  0  0  0  0
   27.8986  -21.6554  -10.3467 C   0  0  0  0  0  0  0  0  0  0  0  0
   28.9960  -21.6799   -9.5749 N   0  0  0  0  0  0  0  0  0  0  0  0
   28.7928  -20.9427   -8.4882 C   0  0  0  0  0  0  0  0  0  0  0  0
   29.6116  -20.6507   -7.3981 C   0  0  0  0  0  0  0  0  0  0  0  0
   29.1552  -19.8447   -6.3910 C   0  0  0  0  0  0  0  0  0  0  0  0
   27.8893  -19.3133   -6.4385 C   0  0  0  0  0  0  0  0  0  0  0  0
   27.0923  -19.6252   -7.5454 C   0  0  0  0  0  0  0  0  0  0  0  0
   27.5178  -20.4238   -8.5618 C   0  0  0  0  0  0  0  0  0  0  0  0
   23.8133  -20.5567  -11.9264 C   0  0  0  0  0  0  0  0  0  0  0  0
   23.4812  -19.3615  -12.1333 O   0  0  0  0  0  0  0  0  0  0  0  0
   19.8487  -21.5001  -14.4047 C   0  0  0  0  0  0  0  0  0  0  0  0
   21.2462  -21.8237  -13.9443 C   0  0  1  0  0  0  0  0  0  0  0  0
   22.2206  -21.5595  -14.8758 O   0  0  0  0  0  0  0  0  0  0  0  0
   21.5204  -21.2115  -12.5863 C   0  0  2  0  0  0  0  0  0  0  0  0
   22.8008  -21.5388  -12.0571 N   0  0  0  0  0  0  0  0  0  0  0  0
   20.4009  -21.5150  -11.6771 C   0  0  0  0  0  0  0  0  0  0  0  0
   20.5758  -22.2661  -10.6855 O   0  0  0  0  0  0  0  0  0  0  0  0
   19.1246  -21.0038  -11.8576 O   0  0  0  0  0  0  0  0  0  0  0  0
  2  1  1  0
  3  4  1  0
  3  2  1  0
  4  5  1  0
  5  1  1  0
  5  6  1  1
  6  7  2  0
  6  8  1  0
  8  9  1  0
  9 20  1  0
  9 10  1  1
 10 11  1  0
 11 19  1  0
 12 11  2  0
 12 13  1  0
 13 14  1  0
 14 15  1  0
 15 16  2  0
 17 16  1  0
 18 17  2  0
 19 14  2  0
 19 18  1  0
 20 21  2  0
 23 22  1  6
 24 23  1  0
 25 23  1  0
 26 20  1  0
 25 26  1  1
 27 25  1  0
 27 29  1  0
 28 27  2  0
M  END
$$$$
