PWT.pdb
     RDKit          3D

 29 31  0  0  1  0  0  0  0  0999 V2000
   28.3770  -21.0966  -17.9962 N   0  0  0  0  0  0  0  0  0  0  0  0
   29.1043  -21.1934  -19.2713 C   0  0  0  0  0  0  0  0  0  0  0  0
   29.4966  -19.7935  -19.6414 C   0  0  0  0  0  0  0  0  0  0  0  0
   29.1152  -18.9674  -18.4407 C   0  0  0  0  0  0  0  0  0  0  0  0
   29.0580  -20.0212  -17.3442 C   0  0  1  0  0  0  0  0  0  0  0  0
   28.2612  -19.4529  -16.2130 C   0  0  0  0  0  0  0  0  0  0  0  0
   28.7510  -18.4819  -15.5990 O   0  0  0  0  0  0  0  0  0  0  0  0
   27.0125  -19.9694  -15.8355 N   0  0  0  0  0  0  0  0  0  0  0  0
   26.1166  -19.4466  -14.8709 C   0  0  1  0  0  0  0  0  0  0  0  0
   24.8391  -18.8263  -15.3840 C   0  0  0  0  0  0  0  0  0  0  0  0
   25.0367  -17.8364  -16.4502 C   0  0  0  0  0  0  0  0  0  0  0  0
   24.7904  -17.8351  -17.7965 C   0  0  0  0  0  0  0  0  0  0  0  0
   25.1540  -16.6562  -18.3242 N   0  0  0  0  0  0  0  0  0  0  0  0
   25.6358  -15.8697  -17.3677 C   0  0  0  0  0  0  0  0  0  0  0  0
   26.1345  -14.5680  -17.3996 C   0  0  0  0  0  0  0  0  0  0  0  0
   26.5738  -13.9710  -16.2495 C   0  0  0  0  0  0  0  0  0  0  0  0
   26.5302  -14.6418  -15.0514 C   0  0  0  0  0  0  0  0  0  0  0  0
   26.0245  -15.9463  -15.0526 C   0  0  0  0  0  0  0  0  0  0  0  0
   25.5809  -16.5668  -16.1796 C   0  0  0  0  0  0  0  0  0  0  0  0
   25.9417  -20.3489  -13.7263 C   0  0  0  0  0  0  0  0  0  0  0  0
   25.9820  -21.5861  -13.9479 O   0  0  0  0  0  0  0  0  0  0  0  0
   26.5562  -21.6753   -9.1436 C   0  0  0  0  0  0  0  0  0  0  0  0
   26.7822  -20.7561  -10.3155 C   0  0  1  0  0  0  0  0  0  0  0  0
   28.0381  -20.8437  -10.8651 O   0  0  0  0  0  0  0  0  0  0  0  0
   25.6640  -20.8908  -11.3282 C   0  0  2  0  0  0  0  0  0  0  0  0
   25.7305  -19.9406  -12.3863 N   0  0  0  0  0  0  0  0  0  0  0  0
   24.3682  -20.9164  -10.6265 C   0  0  0  0  0  0  0  0  0  0  0  0
   23.4651  -20.0990  -10.9337 O   0  0  0  0  0  0  0  0  0  0  0  0
   24.0778  -21.8187   -9.6145 O   0  0  0  0  0  0  0  0  0  0  0  0
  2  1  1  0
  3  4  1  0
  3  2  1  0
  4  5  1  0
  5  1  1  0
  5  6  1  1
  6  7  2  0
  6  8  1  0
  8  9  1  0
  9 20  1  0
  9 10  1  6
 10 11  1  0
 11 19  1  0
 12 11  2  0
 12 13  1  0
 13 14  1  0
 14 15  1  0
 15 16  2  0
 17 16  1  0
 18 17  2  0
 19 14  2  0
 19 18  1  0
 20 21  2  0
 23 22  1  1
 24 23  1  0
 25 23  1  0
 26 20  1  0
 25 26  1  6
 27 25  1  0
 27 29  1  0
 28 27  2  0
M  END
$$$$
