PWT.pdb
     RDKit          3D

 29 31  0  0  1  0  0  0  0  0999 V2000
   21.7632  -20.4818  -11.4650 N   0  0  0  0  0  0  0  0  0  0  0  0
   20.8092  -21.3394  -12.1853 C   0  0  0  0  0  0  0  0  0  0  0  0
   21.6309  -22.3004  -12.9926 C   0  0  0  0  0  0  0  0  0  0  0  0
   23.0476  -22.0495  -12.5460 C   0  0  0  0  0  0  0  0  0  0  0  0
   22.8340  -21.3895  -11.1913 C   0  0  1  0  0  0  0  0  0  0  0  0
   24.0990  -20.6768  -10.8318 C   0  0  0  0  0  0  0  0  0  0  0  0
   24.1951  -19.4775  -11.1664 O   0  0  0  0  0  0  0  0  0  0  0  0
   25.1503  -21.3049  -10.1472 N   0  0  0  0  0  0  0  0  0  0  0  0
   26.4366  -20.7805   -9.8698 C   0  0  1  0  0  0  0  0  0  0  0  0
   27.0767  -21.1845   -8.5632 C   0  0  0  0  0  0  0  0  0  0  0  0
   27.2232  -20.0860   -7.5999 C   0  0  0  0  0  0  0  0  0  0  0  0
   26.7630  -18.7978   -7.5580 C   0  0  0  0  0  0  0  0  0  0  0  0
   27.1840  -18.2010   -6.4323 N   0  0  0  0  0  0  0  0  0  0  0  0
   27.9120  -19.0550   -5.7208 C   0  0  0  0  0  0  0  0  0  0  0  0
   28.5616  -18.9236   -4.4941 C   0  0  0  0  0  0  0  0  0  0  0  0
   29.2553  -19.9782   -3.9663 C   0  0  0  0  0  0  0  0  0  0  0  0
   29.3219  -21.1771   -4.6338 C   0  0  0  0  0  0  0  0  0  0  0  0
   28.6597  -21.2770   -5.8623 C   0  0  0  0  0  0  0  0  0  0  0  0
   27.9625  -20.2461   -6.4129 C   0  0  0  0  0  0  0  0  0  0  0  0
   27.3282  -20.8472  -11.0339 C   0  0  0  0  0  0  0  0  0  0  0  0
   28.2161  -21.7377  -11.0380 O   0  0  0  0  0  0  0  0  0  0  0  0
   26.1225  -21.6566  -14.2327 C   0  0  0  0  0  0  0  0  0  0  0  0
   27.6082  -21.5980  -13.9905 C   0  0  1  0  0  0  0  0  0  0  0  0
   28.3700  -21.9238  -15.0861 O   0  0  0  0  0  0  0  0  0  0  0  0
   27.9970  -20.2826  -13.3482 C   0  0  2  0  0  0  0  0  0  0  0  0
   27.2719  -19.9881  -12.1590 N   0  0  0  0  0  0  0  0  0  0  0  0
   27.9505  -19.2112  -14.3591 C   0  0  0  0  0  0  0  0  0  0  0  0
   27.1829  -18.2287  -14.2061 O   0  0  0  0  0  0  0  0  0  0  0  0
   28.7292  -19.2244  -15.5064 O   0  0  0  0  0  0  0  0  0  0  0  0
  2  1  1  0
  3  4  1  0
  3  2  1  0
  4  5  1  0
  5  1  1  0
  5  6  1  6
  6  7  2  0
  6  8  1  0
  8  9  1  0
  9 20  1  0
  9 10  1  1
 10 11  1  0
 11 19  1  0
 12 11  2  0
 12 13  1  0
 13 14  1  0
 14 15  1  0
 15 16  2  0
 17 16  1  0
 18 17  2  0
 19 14  2  0
 19 18  1  0
 20 21  2  0
 23 22  1  6
 24 23  1  0
 25 23  1  0
 26 20  1  0
 25 26  1  1
 27 25  1  0
 27 29  1  0
 28 27  2  0
M  END
$$$$
