PWT.pdb
     RDKit          3D

 29 31  0  0  1  0  0  0  0  0999 V2000
   24.5894  -12.0008  -17.7679 N   0  0  0  0  0  0  0  0  0  0  0  0
   25.2080  -13.3309  -17.8804 C   0  0  0  0  0  0  0  0  0  0  0  0
   25.2082  -13.9151  -16.4986 C   0  0  0  0  0  0  0  0  0  0  0  0
   24.4114  -12.9354  -15.6772 C   0  0  0  0  0  0  0  0  0  0  0  0
   23.6083  -12.2123  -16.7489 C   0  0  1  0  0  0  0  0  0  0  0  0
   23.1226  -10.9266  -16.1587 C   0  0  0  0  0  0  0  0  0  0  0  0
   22.1871  -10.9929  -15.3339 O   0  0  0  0  0  0  0  0  0  0  0  0
   23.6763   -9.6833  -16.4993 N   0  0  0  0  0  0  0  0  0  0  0  0
   23.2990   -8.4069  -16.0146 C   0  0  1  0  0  0  0  0  0  0  0  0
   24.4037   -7.4019  -15.7917 C   0  0  0  0  0  0  0  0  0  0  0  0
   23.9313   -6.0546  -15.4490 C   0  0  0  0  0  0  0  0  0  0  0  0
   23.0978   -5.5628  -14.4813 C   0  0  0  0  0  0  0  0  0  0  0  0
   22.9992   -4.2298  -14.6006 N   0  0  0  0  0  0  0  0  0  0  0  0
   23.7442   -3.8176  -15.6207 C   0  0  0  0  0  0  0  0  0  0  0  0
   23.9785   -2.5472  -16.1454 C   0  0  0  0  0  0  0  0  0  0  0  0
   24.8090   -2.3895  -17.2213 C   0  0  0  0  0  0  0  0  0  0  0  0
   25.4218   -3.4752  -17.7981 C   0  0  0  0  0  0  0  0  0  0  0  0
   25.1664   -4.7363  -17.2485 C   0  0  0  0  0  0  0  0  0  0  0  0
   24.3453   -4.9250  -16.1798 C   0  0  0  0  0  0  0  0  0  0  0  0
   22.1187   -7.8751  -16.7064 C   0  0  0  0  0  0  0  0  0  0  0  0
   22.1492   -7.8328  -17.9629 O   0  0  0  0  0  0  0  0  0  0  0  0
   18.9730   -9.0655  -17.6956 C   0  0  0  0  0  0  0  0  0  0  0  0
   18.6574   -7.8390  -16.8798 C   0  0  1  0  0  0  0  0  0  0  0  0
   18.1187   -8.1080  -15.6451 O   0  0  0  0  0  0  0  0  0  0  0  0
   19.8471   -6.9027  -16.8339 C   0  0  2  0  0  0  0  0  0  0  0  0
   20.9422   -7.4030  -16.0741 N   0  0  0  0  0  0  0  0  0  0  0  0
   19.3981   -5.5598  -16.4252 C   0  0  0  0  0  0  0  0  0  0  0  0
   19.8157   -5.0504  -15.3555 O   0  0  0  0  0  0  0  0  0  0  0  0
   18.5131   -4.8010  -17.1760 O   0  0  0  0  0  0  0  0  0  0  0  0
  2  1  1  0
  3  4  1  0
  3  2  1  0
  4  5  1  0
  5  1  1  0
  5  6  1  1
  6  7  2  0
  6  8  1  0
  8  9  1  0
  9 20  1  0
  9 10  1  6
 10 11  1  0
 11 19  1  0
 12 11  2  0
 12 13  1  0
 13 14  1  0
 14 15  1  0
 15 16  2  0
 17 16  1  0
 18 17  2  0
 19 14  2  0
 19 18  1  0
 20 21  2  0
 23 22  1  1
 24 23  1  0
 25 23  1  0
 26 20  1  0
 25 26  1  1
 27 25  1  0
 27 29  1  0
 28 27  2  0
M  END
$$$$
