PWT.pdb
     RDKit          3D

 29 31  0  0  1  0  0  0  0  0999 V2000
   27.9922  -19.3399  -13.5295 N   0  0  0  0  0  0  0  0  0  0  0  0
   29.3222  -18.8742  -13.9521 C   0  0  0  0  0  0  0  0  0  0  0  0
   30.3176  -19.7774  -13.2857 C   0  0  0  0  0  0  0  0  0  0  0  0
   29.4782  -20.8481  -12.6389 C   0  0  0  0  0  0  0  0  0  0  0  0
   28.1857  -20.7539  -13.4370 C   0  0  1  0  0  0  0  0  0  0  0  0
   27.1112  -21.4186  -12.6363 C   0  0  0  0  0  0  0  0  0  0  0  0
   26.4554  -22.3216  -13.1969 O   0  0  0  0  0  0  0  0  0  0  0  0
   26.8300  -21.0626  -11.3087 N   0  0  0  0  0  0  0  0  0  0  0  0
   25.7464  -21.4990  -10.5076 C   0  0  1  0  0  0  0  0  0  0  0  0
   26.0123  -21.6834   -9.0327 C   0  0  0  0  0  0  0  0  0  0  0  0
   26.4064  -20.4537   -8.3339 C   0  0  0  0  0  0  0  0  0  0  0  0
   26.2691  -19.1213   -8.6149 C   0  0  0  0  0  0  0  0  0  0  0  0
   26.8068  -18.3903   -7.6263 N   0  0  0  0  0  0  0  0  0  0  0  0
   27.2989  -19.1975   -6.6926 C   0  0  0  0  0  0  0  0  0  0  0  0
   27.9452  -18.9350   -5.4854 C   0  0  0  0  0  0  0  0  0  0  0  0
   28.3582  -19.9668   -4.6873 C   0  0  0  0  0  0  0  0  0  0  0  0
   28.1430  -21.2710   -5.0614 C   0  0  0  0  0  0  0  0  0  0  0  0
   27.4919  -21.5013   -6.2783 C   0  0  0  0  0  0  0  0  0  0  0  0
   27.0703  -20.4965   -7.0934 C   0  0  0  0  0  0  0  0  0  0  0  0
   24.5008  -20.7882  -10.8203 C   0  0  0  0  0  0  0  0  0  0  0  0
   24.4962  -19.5370  -10.6943 O   0  0  0  0  0  0  0  0  0  0  0  0
   22.9797  -20.1786  -14.0053 C   0  0  0  0  0  0  0  0  0  0  0  0
   21.8764  -20.7626  -13.1619 C   0  0  1  0  0  0  0  0  0  0  0  0
   21.5073  -22.0359  -13.5218 O   0  0  0  0  0  0  0  0  0  0  0  0
   22.1901  -20.6135  -11.6877 C   0  0  2  0  0  0  0  0  0  0  0  0
   23.2973  -21.3966  -11.2544 N   0  0  0  0  0  0  0  0  0  0  0  0
   20.9618  -20.8262  -10.9016 C   0  0  0  0  0  0  0  0  0  0  0  0
   20.9093  -21.7423  -10.0436 O   0  0  0  0  0  0  0  0  0  0  0  0
   19.8237  -20.0496  -11.0584 O   0  0  0  0  0  0  0  0  0  0  0  0
  2  1  1  0
  3  4  1  0
  3  2  1  0
  4  5  1  0
  5  1  1  0
  5  6  1  1
  6  7  2  0
  6  8  1  0
  8  9  1  0
  9 20  1  0
  9 10  1  1
 10 11  1  0
 11 19  1  0
 12 11  2  0
 12 13  1  0
 13 14  1  0
 14 15  1  0
 15 16  2  0
 17 16  1  0
 18 17  2  0
 19 14  2  0
 19 18  1  0
 20 21  2  0
 23 22  1  6
 24 23  1  0
 25 23  1  0
 26 20  1  0
 25 26  1  1
 27 25  1  0
 27 29  1  0
 28 27  2  0
M  END
$$$$
