PWT.pdb
     RDKit          3D

 29 31  0  0  1  0  0  0  0  0999 V2000
   26.9603  -21.4827  -15.5292 N   0  0  0  0  0  0  0  0  0  0  0  0
   28.3617  -21.5332  -15.9742 C   0  0  0  0  0  0  0  0  0  0  0  0
   28.7686  -20.1160  -16.2509 C   0  0  0  0  0  0  0  0  0  0  0  0
   27.6033  -19.2908  -15.7708 C   0  0  0  0  0  0  0  0  0  0  0  0
   26.9204  -20.2495  -14.8060 C   0  0  1  0  0  0  0  0  0  0  0  0
   25.5213  -19.7621  -14.5998 C   0  0  0  0  0  0  0  0  0  0  0  0
   25.3774  -18.6588  -14.0326 O   0  0  0  0  0  0  0  0  0  0  0  0
   24.3986  -20.4933  -15.0161 N   0  0  0  0  0  0  0  0  0  0  0  0
   23.0397  -20.0977  -14.9597 C   0  0  1  0  0  0  0  0  0  0  0  0
   22.2960  -20.0033  -16.2705 C   0  0  0  0  0  0  0  0  0  0  0  0
   22.9051  -19.0875  -17.2433 C   0  0  0  0  0  0  0  0  0  0  0  0
   23.9235  -19.2115  -18.1492 C   0  0  0  0  0  0  0  0  0  0  0  0
   24.0841  -18.0568  -18.8136 N   0  0  0  0  0  0  0  0  0  0  0  0
   23.2010  -17.1652  -18.3771 C   0  0  0  0  0  0  0  0  0  0  0  0
   22.9601  -15.8414  -18.7427 C   0  0  0  0  0  0  0  0  0  0  0  0
   21.9671  -15.1277  -18.1288 C   0  0  0  0  0  0  0  0  0  0  0  0
   21.1958  -15.7020  -17.1477 C   0  0  0  0  0  0  0  0  0  0  0  0
   21.4624  -17.0317  -16.8035 C   0  0  0  0  0  0  0  0  0  0  0  0
   22.4430  -17.7667  -17.3953 C   0  0  0  0  0  0  0  0  0  0  0  0
   22.3051  -20.7798  -13.8875 C   0  0  0  0  0  0  0  0  0  0  0  0
   22.4246  -22.0288  -13.8021 O   0  0  0  0  0  0  0  0  0  0  0  0
   22.6478  -20.3312  -10.2022 C   0  0  0  0  0  0  0  0  0  0  0  0
   21.1708  -20.2974  -10.4972 C   0  0  1  0  0  0  0  0  0  0  0  0
   20.5820  -19.0753  -10.2815 O   0  0  0  0  0  0  0  0  0  0  0  0
   20.8823  -20.8790  -11.8656 C   0  0  2  0  0  0  0  0  0  0  0  0
   21.4685  -20.1459  -12.9361 N   0  0  0  0  0  0  0  0  0  0  0  0
   19.4315  -21.0941  -12.0105 C   0  0  0  0  0  0  0  0  0  0  0  0
   18.7756  -20.4394  -12.8586 O   0  0  0  0  0  0  0  0  0  0  0  0
   18.7251  -22.0058  -11.2409 O   0  0  0  0  0  0  0  0  0  0  0  0
  2  1  1  0
  3  4  1  0
  3  2  1  0
  4  5  1  0
  5  1  1  0
  5  6  1  6
  6  7  2  0
  6  8  1  0
  8  9  1  0
  9 20  1  0
  9 10  1  6
 10 11  1  0
 11 19  1  0
 12 11  2  0
 12 13  1  0
 13 14  1  0
 14 15  1  0
 15 16  2  0
 17 16  1  0
 18 17  2  0
 19 14  2  0
 19 18  1  0
 20 21  2  0
 23 22  1  6
 24 23  1  0
 25 23  1  0
 26 20  1  0
 25 26  1  6
 27 25  1  0
 27 29  1  0
 28 27  2  0
M  END
$$$$
