PWT.pdb
     RDKit          3D

 29 31  0  0  1  0  0  0  0  0999 V2000
   27.6315  -19.7069  -14.9649 N   0  0  0  0  0  0  0  0  0  0  0  0
   28.6437  -19.7070  -16.0324 C   0  0  0  0  0  0  0  0  0  0  0  0
   29.6115  -20.8031  -15.6970 C   0  0  0  0  0  0  0  0  0  0  0  0
   28.9894  -21.5047  -14.5179 C   0  0  0  0  0  0  0  0  0  0  0  0
   27.5287  -21.0981  -14.6498 C   0  0  1  0  0  0  0  0  0  0  0  0
   26.8744  -21.3291  -13.3247 C   0  0  0  0  0  0  0  0  0  0  0  0
   25.9225  -22.1369  -13.2896 O   0  0  0  0  0  0  0  0  0  0  0  0
   27.2918  -20.6791  -12.1536 N   0  0  0  0  0  0  0  0  0  0  0  0
   26.7042  -20.7540  -10.8669 C   0  0  1  0  0  0  0  0  0  0  0  0
   27.5790  -20.3950   -9.6896 C   0  0  0  0  0  0  0  0  0  0  0  0
   26.9111  -20.5087   -8.3869 C   0  0  0  0  0  0  0  0  0  0  0  0
   25.6829  -20.9644   -7.9908 C   0  0  0  0  0  0  0  0  0  0  0  0
   25.5657  -20.8559   -6.6585 N   0  0  0  0  0  0  0  0  0  0  0  0
   26.6817  -20.3410   -6.1536 C   0  0  0  0  0  0  0  0  0  0  0  0
   27.0552  -20.0384   -4.8448 C   0  0  0  0  0  0  0  0  0  0  0  0
   28.2897  -19.5079   -4.5866 C   0  0  0  0  0  0  0  0  0  0  0  0
   29.1759  -19.2667   -5.6082 C   0  0  0  0  0  0  0  0  0  0  0  0
   28.7713  -19.5811   -6.9102 C   0  0  0  0  0  0  0  0  0  0  0  0
   27.5505  -20.1088   -7.1984 C   0  0  0  0  0  0  0  0  0  0  0  0
   25.3607  -20.1638  -10.8330 C   0  0  0  0  0  0  0  0  0  0  0  0
   25.2727  -18.9107  -10.8917 O   0  0  0  0  0  0  0  0  0  0  0  0
   22.7367  -22.1388  -12.9321 C   0  0  0  0  0  0  0  0  0  0  0  0
   22.6450  -20.6574  -12.6740 C   0  0  1  0  0  0  0  0  0  0  0  0
   21.4982  -20.0728  -13.1536 O   0  0  0  0  0  0  0  0  0  0  0  0
   22.9234  -20.3470  -11.2179 C   0  0  2  0  0  0  0  0  0  0  0  0
   24.1487  -20.8913  -10.7391 N   0  0  0  0  0  0  0  0  0  0  0  0
   21.7484  -20.7109  -10.4062 C   0  0  0  0  0  0  0  0  0  0  0  0
   21.8647  -21.5148   -9.4479 O   0  0  0  0  0  0  0  0  0  0  0  0
   20.4810  -20.2018  -10.6456 O   0  0  0  0  0  0  0  0  0  0  0  0
  2  1  1  0
  3  4  1  0
  3  2  1  0
  4  5  1  0
  5  1  1  0
  5  6  1  1
  6  7  2  0
  6  8  1  0
  8  9  1  0
  9 20  1  0
  9 10  1  1
 10 11  1  0
 11 19  1  0
 12 11  2  0
 12 13  1  0
 13 14  1  0
 14 15  1  0
 15 16  2  0
 17 16  1  0
 18 17  2  0
 19 14  2  0
 19 18  1  0
 20 21  2  0
 23 22  1  1
 24 23  1  0
 25 23  1  0
 26 20  1  0
 25 26  1  1
 27 25  1  0
 27 29  1  0
 28 27  2  0
M  END
$$$$
