PWT.pdb
     RDKit          3D

 29 31  0  0  1  0  0  0  0  0999 V2000
   27.7585  -18.8210  -14.4396 N   0  0  0  0  0  0  0  0  0  0  0  0
   28.8612  -18.1333  -15.1291 C   0  0  0  0  0  0  0  0  0  0  0  0
   29.9076  -19.1747  -15.3960 C   0  0  0  0  0  0  0  0  0  0  0  0
   29.2575  -20.4718  -14.9905 C   0  0  0  0  0  0  0  0  0  0  0  0
   27.7801  -20.1121  -15.0543 C   0  0  1  0  0  0  0  0  0  0  0  0
   27.0325  -21.1303  -14.2531 C   0  0  0  0  0  0  0  0  0  0  0  0
   26.8862  -22.2623  -14.7599 O   0  0  0  0  0  0  0  0  0  0  0  0
   26.5066  -20.8527  -12.9824 N   0  0  0  0  0  0  0  0  0  0  0  0
   25.6361  -21.6615  -12.2115 C   0  0  1  0  0  0  0  0  0  0  0  0
   26.1295  -22.1033  -10.8545 C   0  0  0  0  0  0  0  0  0  0  0  0
   26.2240  -21.0209   -9.8668 C   0  0  0  0  0  0  0  0  0  0  0  0
   25.3848  -20.0065   -9.4929 C   0  0  0  0  0  0  0  0  0  0  0  0
   25.9549  -19.2805   -8.5189 N   0  0  0  0  0  0  0  0  0  0  0  0
   27.1512  -19.7822   -8.2314 C   0  0  0  0  0  0  0  0  0  0  0  0
   28.1215  -19.3974   -7.3070 C   0  0  0  0  0  0  0  0  0  0  0  0
   29.2912  -20.0998   -7.2045 C   0  0  0  0  0  0  0  0  0  0  0  0
   29.5263  -21.1898   -8.0069 C   0  0  0  0  0  0  0  0  0  0  0  0
   28.5332  -21.5504   -8.9242 C   0  0  0  0  0  0  0  0  0  0  0  0
   27.3605  -20.8715   -9.0499 C   0  0  0  0  0  0  0  0  0  0  0  0
   24.2545  -21.1661  -12.2283 C   0  0  0  0  0  0  0  0  0  0  0  0
   24.0712  -19.9425  -12.0028 O   0  0  0  0  0  0  0  0  0  0  0  0
   20.0225  -20.9275  -14.3958 C   0  0  0  0  0  0  0  0  0  0  0  0
   21.3860  -21.5342  -14.1902 C   0  0  1  0  0  0  0  0  0  0  0  0
   22.3192  -21.1494  -15.1218 O   0  0  0  0  0  0  0  0  0  0  0  0
   21.8448  -21.3530  -12.7582 C   0  0  2  0  0  0  0  0  0  0  0  0
   23.1045  -21.9546  -12.4787 N   0  0  0  0  0  0  0  0  0  0  0  0
   20.7669  -21.7668  -11.8423 C   0  0  0  0  0  0  0  0  0  0  0  0
   20.7449  -22.9328  -11.3754 O   0  0  0  0  0  0  0  0  0  0  0  0
   19.7424  -20.9173  -11.4530 O   0  0  0  0  0  0  0  0  0  0  0  0
  2  1  1  0
  3  4  1  0
  3  2  1  0
  4  5  1  0
  5  1  1  0
  5  6  1  1
  6  7  2  0
  6  8  1  0
  8  9  1  0
  9 20  1  0
  9 10  1  1
 10 11  1  0
 11 19  1  0
 12 11  2  0
 12 13  1  0
 13 14  1  0
 14 15  1  0
 15 16  2  0
 17 16  1  0
 18 17  2  0
 19 14  2  0
 19 18  1  0
 20 21  2  0
 23 22  1  1
 24 23  1  0
 25 23  1  0
 26 20  1  0
 25 26  1  1
 27 25  1  0
 27 29  1  0
 28 27  2  0
M  END
$$$$
