MRN.pdb
     RDKit          3D

 28 27  0  0  1  0  0  0  0  0999 V2000
   26.8246  -18.7714   -6.2999 C   0  0  0  0  0  0  0  0  0  0  0  0
   28.4147  -19.5979   -6.3564 S   0  0  0  0  0  0  0  0  0  0  0  0
   28.6272  -20.6219   -7.8354 C   0  0  0  0  0  0  0  0  0  0  0  0
   27.5124  -20.3801   -8.8307 C   0  0  0  0  0  0  0  0  0  0  0  0
   27.6659  -21.2532  -10.0557 C   0  0  2  0  0  0  0  0  0  0  0  0
   28.9980  -21.0508  -10.5644 N   0  0  0  0  0  0  0  0  0  0  0  0
   26.6552  -20.9531  -11.0900 C   0  0  0  0  0  0  0  0  0  0  0  0
   26.5359  -19.7708  -11.4774 O   0  0  0  0  0  0  0  0  0  0  0  0
   25.5325  -26.0329  -15.5768 N   0  0  0  0  0  0  0  0  0  0  0  0
   24.4641  -25.5211  -16.3950 C   0  0  0  0  0  0  0  0  0  0  0  0
   23.4553  -26.2928  -16.5762 N   0  0  0  0  0  0  0  0  0  0  0  0
   24.5435  -24.2399  -16.9570 N   0  0  0  0  0  0  0  0  0  0  0  0
   25.0600  -23.1236  -16.1976 C   0  0  0  0  0  0  0  0  0  0  0  0
   24.1994  -22.8166  -14.9754 C   0  0  0  0  0  0  0  0  0  0  0  0
   24.9995  -23.0440  -13.6984 C   0  0  0  0  0  0  0  0  0  0  0  0
   25.0512  -21.7961  -12.8567 C   0  0  2  0  0  0  0  0  0  0  0  0
   25.8189  -21.9306  -11.6626 N   0  0  0  0  0  0  0  0  0  0  0  0
   23.6585  -21.3859  -12.5266 C   0  0  0  0  0  0  0  0  0  0  0  0
   23.1145  -21.8598  -11.5002 O   0  0  0  0  0  0  0  0  0  0  0  0
   22.7081  -26.0324  -17.2201 N   0  0  0  0  0  0  0  0  0  0  0  0
   19.0669  -19.2292  -12.2088 C   0  0  0  0  0  0  0  0  0  0  0  0
   20.0248  -18.2203  -12.6409 O   0  0  0  0  0  0  0  0  0  0  0  0
   19.5584  -17.0558  -12.6100 C   0  0  0  0  0  0  0  0  0  0  0  0
   21.3746  -18.6218  -13.0523 C   0  0  2  0  0  0  0  0  0  0  0  0
   21.5825  -20.0972  -12.8404 N   0  0  0  0  0  0  0  0  0  0  0  0
   22.9178  -20.4825  -13.3204 C   0  0  0  0  0  0  0  0  0  0  0  0
   20.6361  -20.9574  -13.5506 O   0  0  0  0  0  0  0  0  0  0  0  0
   20.7988  -21.2581  -14.7508 O   0  0  0  0  0  0  0  0  0  0  0  0
  1  2  1  0
  2  3  1  0
  3  4  1  0
  4  5  1  0
  5  6  1  6
  7  5  1  0
  8  7  2  0
 10  9  1  0
 11 10  2  0
 12 10  1  0
 13 12  1  0
 14 13  1  0
 15 14  1  0
 16 15  1  1
 16 17  1  0
 17  7  1  0
 18 16  1  0
 19 18  2  0
 21 20  1  0
 22 21  2  0
 23 21  1  0
 24 23  1  1
 24 25  1  0
 25 18  1  0
 26 24  1  0
 26 28  1  0
 27 26  2  0
M  END
$$$$
