MRN.pdb
     RDKit          3D

 28 27  0  0  1  0  0  0  0  0999 V2000
   17.6811  -19.9777    1.2284 C   0  0  0  0  0  0  0  0  0  0  0  0
   16.1899  -19.7931    2.2065 S   0  0  0  0  0  0  0  0  0  0  0  0
   15.8751  -18.0785    2.6990 C   0  0  0  0  0  0  0  0  0  0  0  0
   17.0877  -17.4739    3.3742 C   0  0  0  0  0  0  0  0  0  0  0  0
   16.9111  -17.4110    4.8747 C   0  0  2  0  0  0  0  0  0  0  0  0
   15.9745  -16.3532    5.1540 N   0  0  0  0  0  0  0  0  0  0  0  0
   18.1879  -17.1852    5.5820 C   0  0  0  0  0  0  0  0  0  0  0  0
   19.0915  -18.0404    5.4625 O   0  0  0  0  0  0  0  0  0  0  0  0
   19.9591   -9.5423    8.2306 N   0  0  0  0  0  0  0  0  0  0  0  0
   21.0563  -10.3293    7.7312 C   0  0  0  0  0  0  0  0  0  0  0  0
   22.1364   -9.6984    7.4460 N   0  0  0  0  0  0  0  0  0  0  0  0
   20.9286  -11.7157    7.5714 N   0  0  0  0  0  0  0  0  0  0  0  0
   21.1929  -12.6197    8.6680 C   0  0  0  0  0  0  0  0  0  0  0  0
   21.0920  -14.0813    8.2410 C   0  0  0  0  0  0  0  0  0  0  0  0
   19.7516  -14.3398    7.5634 C   0  0  0  0  0  0  0  0  0  0  0  0
   19.6490  -15.7628    7.0809 C   0  0  2  0  0  0  0  0  0  0  0  0
   18.4398  -16.0555    6.3840 N   0  0  0  0  0  0  0  0  0  0  0  0
   19.8005  -16.6741    8.2486 C   0  0  0  0  0  0  0  0  0  0  0  0
   18.8955  -16.7016    9.1171 O   0  0  0  0  0  0  0  0  0  0  0  0
   22.8512  -10.1270    6.8576 N   0  0  0  0  0  0  0  0  0  0  0  0
   19.0776  -21.5479   10.3608 C   0  0  0  0  0  0  0  0  0  0  0  0
   20.2316  -20.6604   10.3058 O   0  0  0  0  0  0  0  0  0  0  0  0
   20.9713  -20.7545   11.3148 C   0  0  0  0  0  0  0  0  0  0  0  0
   20.4243  -19.7821    9.1466 C   0  0  1  0  0  0  0  0  0  0  0  0
   20.9122  -18.4253    9.5778 N   0  0  0  0  0  0  0  0  0  0  0  0
   20.9226  -17.5137    8.4241 C   0  0  0  0  0  0  0  0  0  0  0  0
   22.2716  -18.4062   10.1177 O   0  0  0  0  0  0  0  0  0  0  0  0
   23.2270  -17.9341    9.4683 O   0  0  0  0  0  0  0  0  0  0  0  0
  1  2  1  0
  2  3  1  0
  3  4  1  0
  4  5  1  0
  5  6  1  6
  7  5  1  0
  8  7  2  0
 10  9  1  0
 11 10  2  0
 12 10  1  0
 13 12  1  0
 14 13  1  0
 15 14  1  0
 16 15  1  1
 16 17  1  0
 17  7  1  0
 18 16  1  0
 19 18  2  0
 21 20  1  0
 22 21  2  0
 23 21  1  0
 24 23  1  1
 24 25  1  0
 25 18  1  0
 26 24  1  0
 26 28  1  0
 27 26  2  0
M  END
$$$$
