MRN.pdb
     RDKit          3D

 28 27  0  0  1  0  0  0  0  0999 V2000
   28.9666  -23.6332  -18.4892 C   0  0  0  0  0  0  0  0  0  0  0  0
   29.5300  -21.9533  -18.7635 S   0  0  0  0  0  0  0  0  0  0  0  0
   28.5321  -20.7210  -17.8878 C   0  0  0  0  0  0  0  0  0  0  0  0
   27.6577  -21.3735  -16.8383 C   0  0  0  0  0  0  0  0  0  0  0  0
   26.7190  -20.3737  -16.2012 C   0  0  2  0  0  0  0  0  0  0  0  0
   27.5210  -19.2829  -15.7097 N   0  0  0  0  0  0  0  0  0  0  0  0
   25.9165  -20.9697  -15.1140 C   0  0  0  0  0  0  0  0  0  0  0  0
   25.1862  -21.9476  -15.3834 O   0  0  0  0  0  0  0  0  0  0  0  0
   29.7500  -20.6977   -7.8383 N   0  0  0  0  0  0  0  0  0  0  0  0
   30.1587  -21.5200   -8.9472 C   0  0  0  0  0  0  0  0  0  0  0  0
   31.3351  -22.0285   -8.8860 N   0  0  0  0  0  0  0  0  0  0  0  0
   29.2978  -21.7404  -10.0307 N   0  0  0  0  0  0  0  0  0  0  0  0
   27.9838  -21.1395  -10.0727 C   0  0  0  0  0  0  0  0  0  0  0  0
   27.2090  -21.5460  -11.3230 C   0  0  0  0  0  0  0  0  0  0  0  0
   25.8564  -20.8444  -11.3546 C   0  0  0  0  0  0  0  0  0  0  0  0
   25.1845  -21.0137  -12.6918 C   0  0  2  0  0  0  0  0  0  0  0  0
   25.9319  -20.4932  -13.7890 N   0  0  0  0  0  0  0  0  0  0  0  0
   23.8426  -20.3710  -12.6356 C   0  0  0  0  0  0  0  0  0  0  0  0
   23.7472  -19.1449  -12.8840 O   0  0  0  0  0  0  0  0  0  0  0  0
   31.6806  -22.6353   -9.6297 N   0  0  0  0  0  0  0  0  0  0  0  0
   20.5171  -18.2275  -13.9357 C   0  0  0  0  0  0  0  0  0  0  0  0
   21.0300  -19.2202  -14.8705 O   0  0  0  0  0  0  0  0  0  0  0  0
   21.0074  -18.8294  -16.0625 C   0  0  0  0  0  0  0  0  0  0  0  0
   21.5025  -20.5172  -14.3737 C   0  0  2  0  0  0  0  0  0  0  0  0
   21.4000  -20.5861  -12.8739 N   0  0  0  0  0  0  0  0  0  0  0  0
   22.6657  -21.0825  -12.3138 C   0  0  0  0  0  0  0  0  0  0  0  0
   20.3589  -21.4826  -12.3715 O   0  0  0  0  0  0  0  0  0  0  0  0
   20.5006  -22.7223  -12.3850 O   0  0  0  0  0  0  0  0  0  0  0  0
  1  2  1  0
  2  3  1  0
  3  4  1  0
  4  5  1  0
  5  6  1  1
  7  5  1  0
  8  7  2  0
 10  9  1  0
 11 10  2  0
 12 10  1  0
 13 12  1  0
 14 13  1  0
 15 14  1  0
 16 15  1  1
 16 17  1  0
 17  7  1  0
 18 16  1  0
 19 18  2  0
 21 20  1  0
 22 21  2  0
 23 21  1  0
 24 23  1  1
 24 25  1  0
 25 18  1  0
 26 24  1  0
 26 28  1  0
 27 26  2  0
M  END
$$$$
