MRN.pdb
     RDKit          3D

 28 27  0  0  1  0  0  0  0  0999 V2000
   27.7897  -17.7682  -18.9297 C   0  0  0  0  0  0  0  0  0  0  0  0
   26.8455  -18.8722  -19.9807 S   0  0  0  0  0  0  0  0  0  0  0  0
   27.1324  -20.6213  -19.6072 C   0  0  0  0  0  0  0  0  0  0  0  0
   26.2727  -21.0794  -18.4483 C   0  0  0  0  0  0  0  0  0  0  0  0
   27.0018  -20.9416  -17.1308 C   0  0  2  0  0  0  0  0  0  0  0  0
   28.1575  -21.7993  -17.1865 N   0  0  0  0  0  0  0  0  0  0  0  0
   26.1464  -21.2838  -15.9765 C   0  0  0  0  0  0  0  0  0  0  0  0
   25.0350  -21.8112  -16.1975 O   0  0  0  0  0  0  0  0  0  0  0  0
   23.5439  -20.1792   -9.5438 N   0  0  0  0  0  0  0  0  0  0  0  0
   24.1414  -20.9024   -8.4516 C   0  0  0  0  0  0  0  0  0  0  0  0
   23.3991  -21.1183   -7.4276 N   0  0  0  0  0  0  0  0  0  0  0  0
   25.4709  -21.3391   -8.5241 N   0  0  0  0  0  0  0  0  0  0  0  0
   26.2862  -21.0555   -9.6836 C   0  0  0  0  0  0  0  0  0  0  0  0
   25.5302  -21.2971  -10.9870 C   0  0  0  0  0  0  0  0  0  0  0  0
   26.4505  -21.0651  -12.1795 C   0  0  0  0  0  0  0  0  0  0  0  0
   25.7337  -21.3172  -13.4798 C   0  0  2  0  0  0  0  0  0  0  0  0
   26.5185  -21.0468  -14.6392 N   0  0  0  0  0  0  0  0  0  0  0  0
   24.4879  -20.5021  -13.5031 C   0  0  0  0  0  0  0  0  0  0  0  0
   24.5770  -19.2648  -13.6907 O   0  0  0  0  0  0  0  0  0  0  0  0
   23.7670  -21.6042   -6.6095 N   0  0  0  0  0  0  0  0  0  0  0  0
   19.9369  -19.2872  -15.2715 C   0  0  0  0  0  0  0  0  0  0  0  0
   21.1062  -19.6402  -16.0656 O   0  0  0  0  0  0  0  0  0  0  0  0
   20.9705  -19.3733  -17.2840 C   0  0  0  0  0  0  0  0  0  0  0  0
   22.2762  -20.2423  -15.4170 C   0  0  1  0  0  0  0  0  0  0  0  0
   22.0663  -20.3549  -13.9310 N   0  0  0  0  0  0  0  0  0  0  0  0
   23.2035  -21.0612  -13.3228 C   0  0  0  0  0  0  0  0  0  0  0  0
   20.8716  -21.1010  -13.5359 O   0  0  0  0  0  0  0  0  0  0  0  0
   20.9499  -22.2249  -12.9992 O   0  0  0  0  0  0  0  0  0  0  0  0
  1  2  1  0
  2  3  1  0
  3  4  1  0
  4  5  1  0
  5  6  1  6
  7  5  1  0
  8  7  2  0
 10  9  1  0
 11 10  2  0
 12 10  1  0
 13 12  1  0
 14 13  1  0
 15 14  1  0
 16 15  1  1
 16 17  1  0
 17  7  1  0
 18 16  1  0
 19 18  2  0
 21 20  1  0
 22 21  2  0
 23 21  1  0
 24 23  1  1
 24 25  1  0
 25 18  1  0
 26 24  1  0
 26 28  1  0
 27 26  2  0
M  END
$$$$
