MRN.pdb
     RDKit          3D

 28 27  0  0  1  0  0  0  0  0999 V2000
   27.4213  -17.8268   -5.9580 C   0  0  0  0  0  0  0  0  0  0  0  0
   27.1839  -19.5814   -5.6757 S   0  0  0  0  0  0  0  0  0  0  0  0
   27.7724  -20.6046   -7.0497 C   0  0  0  0  0  0  0  0  0  0  0  0
   27.2771  -20.0717   -8.3773 C   0  0  0  0  0  0  0  0  0  0  0  0
   26.2037  -20.9607   -8.9641 C   0  0  2  0  0  0  0  0  0  0  0  0
   26.7741  -22.2728   -9.1293 N   0  0  0  0  0  0  0  0  0  0  0  0
   25.6865  -20.4451  -10.2478 C   0  0  0  0  0  0  0  0  0  0  0  0
   25.0207  -19.3873  -10.2372 O   0  0  0  0  0  0  0  0  0  0  0  0
   28.8006  -20.7023  -17.1489 N   0  0  0  0  0  0  0  0  0  0  0  0
   28.5789  -21.9156  -16.4062 C   0  0  0  0  0  0  0  0  0  0  0  0
   29.6134  -22.6258  -16.1387 N   0  0  0  0  0  0  0  0  0  0  0  0
   27.2876  -22.2842  -16.0058 N   0  0  0  0  0  0  0  0  0  0  0  0
   26.1324  -21.5204  -16.4200 C   0  0  0  0  0  0  0  0  0  0  0  0
   25.4395  -20.8460  -15.2394 C   0  0  0  0  0  0  0  0  0  0  0  0
   26.0265  -21.3512  -13.9268 C   0  0  0  0  0  0  0  0  0  0  0  0
   25.3567  -20.7032  -12.7437 C   0  0  2  0  0  0  0  0  0  0  0  0
   25.9051  -21.0837  -11.4836 N   0  0  0  0  0  0  0  0  0  0  0  0
   23.9027  -21.0208  -12.7863 C   0  0  0  0  0  0  0  0  0  0  0  0
   23.4630  -21.9452  -12.0609 O   0  0  0  0  0  0  0  0  0  0  0  0
   29.5182  -23.5425  -15.7014 N   0  0  0  0  0  0  0  0  0  0  0  0
   18.8865  -21.1081  -13.1901 C   0  0  0  0  0  0  0  0  0  0  0  0
   19.5419  -20.2896  -12.1788 O   0  0  0  0  0  0  0  0  0  0  0  0
   18.7536  -19.8798  -11.2929 C   0  0  0  0  0  0  0  0  0  0  0  0
   20.9821  -20.0262  -12.2717 C   0  0  1  0  0  0  0  0  0  0  0  0
   21.5682  -20.6785  -13.4948 N   0  0  0  0  0  0  0  0  0  0  0  0
   22.9908  -20.3250  -13.6104 C   0  0  0  0  0  0  0  0  0  0  0  0
   20.9502  -20.2774  -14.7587 O   0  0  0  0  0  0  0  0  0  0  0  0
   21.4966  -19.4554  -15.5223 O   0  0  0  0  0  0  0  0  0  0  0  0
  1  2  1  0
  2  3  1  0
  3  4  1  0
  4  5  1  0
  5  6  1  6
  7  5  1  0
  8  7  2  0
 10  9  1  0
 11 10  2  0
 12 10  1  0
 13 12  1  0
 14 13  1  0
 15 14  1  0
 16 15  1  6
 16 17  1  0
 17  7  1  0
 18 16  1  0
 19 18  2  0
 21 20  1  0
 22 21  2  0
 23 21  1  0
 24 23  1  1
 24 25  1  0
 25 18  1  0
 26 24  1  0
 26 28  1  0
 27 26  2  0
M  END
$$$$
