MRN.pdb
     RDKit          3D

 28 27  0  0  1  0  0  0  0  0999 V2000
   18.8387  -25.0848   -6.0520 C   0  0  0  0  0  0  0  0  0  0  0  0
   17.0885  -25.2669   -6.3961 S   0  0  0  0  0  0  0  0  0  0  0  0
   16.7073  -25.2191   -8.1664 C   0  0  0  0  0  0  0  0  0  0  0  0
   17.5693  -24.2012   -8.8823 C   0  0  0  0  0  0  0  0  0  0  0  0
   17.1979  -24.0925  -10.3441 C   0  0  2  0  0  0  0  0  0  0  0  0
   17.3810  -25.3942  -10.9327 N   0  0  0  0  0  0  0  0  0  0  0  0
   17.9999  -23.0754  -11.0538 C   0  0  0  0  0  0  0  0  0  0  0  0
   17.9989  -21.9058  -10.6130 O   0  0  0  0  0  0  0  0  0  0  0  0
   25.1588  -22.7658  -15.6468 N   0  0  0  0  0  0  0  0  0  0  0  0
   24.3826  -23.8362  -15.0771 C   0  0  0  0  0  0  0  0  0  0  0  0
   25.0347  -24.8427  -14.6211 N   0  0  0  0  0  0  0  0  0  0  0  0
   22.9840  -23.7621  -15.0339 N   0  0  0  0  0  0  0  0  0  0  0  0
   22.2775  -22.6535  -15.6352 C   0  0  0  0  0  0  0  0  0  0  0  0
   21.3146  -21.9898  -14.6548 C   0  0  0  0  0  0  0  0  0  0  0  0
   20.5000  -23.0479  -13.9203 C   0  0  0  0  0  0  0  0  0  0  0  0
   19.5157  -22.4174  -12.9705 C   0  0  2  0  0  0  0  0  0  0  0  0
   18.7659  -23.3555  -12.2016 N   0  0  0  0  0  0  0  0  0  0  0  0
   18.5965  -21.5420  -13.7487 C   0  0  0  0  0  0  0  0  0  0  0  0
   17.7603  -22.0736  -14.5182 O   0  0  0  0  0  0  0  0  0  0  0  0
   24.5459  -25.6396  -14.2127 N   0  0  0  0  0  0  0  0  0  0  0  0
   14.9862  -19.7414  -14.4269 C   0  0  0  0  0  0  0  0  0  0  0  0
   15.5361  -18.6448  -13.6411 O   0  0  0  0  0  0  0  0  0  0  0  0
   14.6686  -18.0455  -12.9610 C   0  0  0  0  0  0  0  0  0  0  0  0
   16.9713  -18.3476  -13.7042 C   0  0  2  0  0  0  0  0  0  0  0  0
   17.6973  -19.3823  -14.5210 N   0  0  0  0  0  0  0  0  0  0  0  0
   18.6228  -20.1327  -13.6593 C   0  0  0  0  0  0  0  0  0  0  0  0
   18.5105  -18.8426  -15.6107 O   0  0  0  0  0  0  0  0  0  0  0  0
   19.7049  -18.5240  -15.4399 O   0  0  0  0  0  0  0  0  0  0  0  0
  1  2  1  0
  2  3  1  0
  3  4  1  0
  4  5  1  0
  5  6  1  6
  7  5  1  0
  8  7  2  0
 10  9  1  0
 11 10  2  0
 12 10  1  0
 13 12  1  0
 14 13  1  0
 15 14  1  0
 16 15  1  6
 16 17  1  0
 17  7  1  0
 18 16  1  0
 19 18  2  0
 21 20  1  0
 22 21  2  0
 23 21  1  0
 24 23  1  1
 24 25  1  0
 25 18  1  0
 26 24  1  0
 26 28  1  0
 27 26  2  0
M  END
$$$$
