MRN.pdb
     RDKit          3D

 28 27  0  0  1  0  0  0  0  0999 V2000
   21.2966  -13.9453    1.2696 C   0  0  0  0  0  0  0  0  0  0  0  0
   20.6603  -15.3173    2.2326 S   0  0  0  0  0  0  0  0  0  0  0  0
   18.8618  -15.2605    2.4416 C   0  0  0  0  0  0  0  0  0  0  0  0
   18.3704  -16.4374    3.2573 C   0  0  0  0  0  0  0  0  0  0  0  0
   16.8937  -16.3211    3.5614 C   0  0  2  0  0  0  0  0  0  0  0  0
   16.7077  -15.1252    4.3420 N   0  0  0  0  0  0  0  0  0  0  0  0
   16.3722  -17.5038    4.2761 C   0  0  0  0  0  0  0  0  0  0  0  0
   16.3317  -17.4719    5.5249 O   0  0  0  0  0  0  0  0  0  0  0  0
   12.3037  -21.3749   -0.6692 N   0  0  0  0  0  0  0  0  0  0  0  0
   13.5695  -21.9623   -0.3152 C   0  0  0  0  0  0  0  0  0  0  0  0
   14.3327  -22.3161   -1.2839 N   0  0  0  0  0  0  0  0  0  0  0  0
   13.9300  -22.1307    1.0284 N   0  0  0  0  0  0  0  0  0  0  0  0
   13.0590  -21.6897    2.0945 C   0  0  0  0  0  0  0  0  0  0  0  0
   13.7033  -20.5984    2.9447 C   0  0  0  0  0  0  0  0  0  0  0  0
   15.1406  -20.9755    3.2833 C   0  0  0  0  0  0  0  0  0  0  0  0
   15.7698  -19.9606    4.2011 C   0  0  2  0  0  0  0  0  0  0  0  0
   15.9179  -18.6656    3.6229 N   0  0  0  0  0  0  0  0  0  0  0  0
   17.0934  -20.4769    4.6466 C   0  0  0  0  0  0  0  0  0  0  0  0
   18.0940  -20.2921    3.9127 O   0  0  0  0  0  0  0  0  0  0  0  0
   15.2889  -22.6255   -1.1087 N   0  0  0  0  0  0  0  0  0  0  0  0
   21.5597  -19.9904    7.7724 C   0  0  0  0  0  0  0  0  0  0  0  0
   20.8802  -20.7790    6.7532 O   0  0  0  0  0  0  0  0  0  0  0  0
   21.5606  -21.7544    6.3532 C   0  0  0  0  0  0  0  0  0  0  0  0
   19.5379  -20.3932    6.3041 C   0  0  2  0  0  0  0  0  0  0  0  0
   18.6404  -21.5969    6.2028 N   0  0  0  0  0  0  0  0  0  0  0  0
   17.2750  -21.1688    5.8644 C   0  0  0  0  0  0  0  0  0  0  0  0
   18.5233  -22.3791    7.4334 O   0  0  0  0  0  0  0  0  0  0  0  0
   17.4732  -22.3847    8.1077 O   0  0  0  0  0  0  0  0  0  0  0  0
  1  2  1  0
  2  3  1  0
  3  4  1  0
  4  5  1  0
  5  6  1  1
  7  5  1  0
  8  7  2  0
 10  9  1  0
 11 10  2  0
 12 10  1  0
 13 12  1  0
 14 13  1  0
 15 14  1  0
 16 15  1  6
 16 17  1  0
 17  7  1  0
 18 16  1  0
 19 18  2  0
 21 20  1  0
 22 21  2  0
 23 21  1  0
 24 23  1  6
 24 25  1  0
 25 18  1  0
 26 24  1  0
 26 28  1  0
 27 26  2  0
M  END
$$$$
