MRN.pdb
     RDKit          3D

 28 27  0  0  1  0  0  0  0  0999 V2000
    8.8016  -13.8184  -11.4844 C   0  0  0  0  0  0  0  0  0  0  0  0
   10.0637  -12.6664  -10.9417 S   0  0  0  0  0  0  0  0  0  0  0  0
   11.6783  -12.9768  -11.7019 C   0  0  0  0  0  0  0  0  0  0  0  0
   12.7281  -12.0320  -11.1568 C   0  0  0  0  0  0  0  0  0  0  0  0
   14.0765  -12.2752  -11.7966 C   0  0  2  0  0  0  0  0  0  0  0  0
   14.4373  -13.6444  -11.5333 N   0  0  0  0  0  0  0  0  0  0  0  0
   15.1125  -11.3507  -11.2932 C   0  0  0  0  0  0  0  0  0  0  0  0
   15.8434  -11.7335  -10.3543 O   0  0  0  0  0  0  0  0  0  0  0  0
   21.5419   -7.4678  -11.6919 N   0  0  0  0  0  0  0  0  0  0  0  0
   21.3146   -8.3802  -12.7822 C   0  0  0  0  0  0  0  0  0  0  0  0
   22.1871   -9.3054  -12.9520 N   0  0  0  0  0  0  0  0  0  0  0  0
   20.1890   -8.2453  -13.6059 N   0  0  0  0  0  0  0  0  0  0  0  0
   19.1531   -7.2844  -13.3007 C   0  0  0  0  0  0  0  0  0  0  0  0
   18.2933   -7.7263  -12.1200 C   0  0  0  0  0  0  0  0  0  0  0  0
   17.2507   -8.7389  -12.5787 C   0  0  0  0  0  0  0  0  0  0  0  0
   16.3504   -9.1485  -11.4429 C   0  0  2  0  0  0  0  0  0  0  0  0
   15.3195  -10.0600  -11.8167 N   0  0  0  0  0  0  0  0  0  0  0  0
   15.7568   -7.9234  -10.8397 C   0  0  0  0  0  0  0  0  0  0  0  0
   14.9062   -7.2759  -11.4964 O   0  0  0  0  0  0  0  0  0  0  0  0
   22.1050   -9.9643  -13.7265 N   0  0  0  0  0  0  0  0  0  0  0  0
   14.3559   -3.9947   -7.9481 C   0  0  0  0  0  0  0  0  0  0  0  0
   14.6253   -5.1130   -7.0541 O   0  0  0  0  0  0  0  0  0  0  0  0
   14.3249   -4.8701   -5.8603 C   0  0  0  0  0  0  0  0  0  0  0  0
   15.1914   -6.3565   -7.5883 C   0  0  1  0  0  0  0  0  0  0  0  0
   15.4359   -6.2412   -9.0688 N   0  0  0  0  0  0  0  0  0  0  0  0
   16.1093   -7.4546   -9.5549 C   0  0  0  0  0  0  0  0  0  0  0  0
   16.2908   -5.1215   -9.4631 O   0  0  0  0  0  0  0  0  0  0  0  0
   17.5349   -5.2181   -9.4675 O   0  0  0  0  0  0  0  0  0  0  0  0
  1  2  1  0
  2  3  1  0
  3  4  1  0
  4  5  1  0
  5  6  1  1
  7  5  1  0
  8  7  2  0
 10  9  1  0
 11 10  2  0
 12 10  1  0
 13 12  1  0
 14 13  1  0
 15 14  1  0
 16 15  1  6
 16 17  1  0
 17  7  1  0
 18 16  1  0
 19 18  2  0
 21 20  1  0
 22 21  2  0
 23 21  1  0
 24 23  1  6
 24 25  1  0
 25 18  1  0
 26 24  1  0
 26 28  1  0
 27 26  2  0
M  END
$$$$
