MRN.pdb
     RDKit          3D

 28 27  0  0  1  0  0  0  0  0999 V2000
   13.1081  -27.5485   -2.4634 C   0  0  0  0  0  0  0  0  0  0  0  0
   14.3185  -28.6237   -1.6932 S   0  0  0  0  0  0  0  0  0  0  0  0
   15.9936  -28.3786   -2.3376 C   0  0  0  0  0  0  0  0  0  0  0  0
   16.1383  -27.0127   -2.9742 C   0  0  0  0  0  0  0  0  0  0  0  0
   17.5403  -26.7915   -3.4957 C   0  0  2  0  0  0  0  0  0  0  0  0
   18.3993  -26.6031   -2.3551 N   0  0  0  0  0  0  0  0  0  0  0  0
   17.6229  -25.6379   -4.4142 C   0  0  0  0  0  0  0  0  0  0  0  0
   17.5287  -24.4883   -3.9326 O   0  0  0  0  0  0  0  0  0  0  0  0
   17.8594  -26.7903  -12.2690 N   0  0  0  0  0  0  0  0  0  0  0  0
   19.2077  -26.3772  -11.9785 C   0  0  0  0  0  0  0  0  0  0  0  0
   19.9147  -25.9751  -12.9708 N   0  0  0  0  0  0  0  0  0  0  0  0
   19.7035  -26.4213  -10.6686 N   0  0  0  0  0  0  0  0  0  0  0  0
   18.8875  -26.9071   -9.5789 C   0  0  0  0  0  0  0  0  0  0  0  0
   18.0086  -25.8080   -8.9886 C   0  0  0  0  0  0  0  0  0  0  0  0
   18.7833  -25.0237   -7.9362 C   0  0  0  0  0  0  0  0  0  0  0  0
   17.9168  -24.7020   -6.7471 C   0  0  2  0  0  0  0  0  0  0  0  0
   17.8027  -25.7662   -5.8049 N   0  0  0  0  0  0  0  0  0  0  0  0
   16.5677  -24.3028   -7.2346 C   0  0  0  0  0  0  0  0  0  0  0  0
   15.7401  -25.1988   -7.5284 O   0  0  0  0  0  0  0  0  0  0  0  0
   20.9062  -25.7655  -12.8541 N   0  0  0  0  0  0  0  0  0  0  0  0
   12.5550  -22.3177   -9.4182 C   0  0  0  0  0  0  0  0  0  0  0  0
   13.4937  -23.2906   -9.9609 O   0  0  0  0  0  0  0  0  0  0  0  0
   13.0665  -23.8614  -10.9933 C   0  0  0  0  0  0  0  0  0  0  0  0
   14.7835  -23.5113   -9.2977 C   0  0  1  0  0  0  0  0  0  0  0  0
   14.8858  -22.6926   -8.0391 N   0  0  0  0  0  0  0  0  0  0  0  0
   16.1750  -22.9542   -7.3821 C   0  0  0  0  0  0  0  0  0  0  0  0
   13.8586  -22.9781   -7.0374 O   0  0  0  0  0  0  0  0  0  0  0  0
   14.1558  -23.3282   -5.8770 O   0  0  0  0  0  0  0  0  0  0  0  0
  1  2  1  0
  2  3  1  0
  3  4  1  0
  4  5  1  0
  5  6  1  1
  7  5  1  0
  8  7  2  0
 10  9  1  0
 11 10  2  0
 12 10  1  0
 13 12  1  0
 14 13  1  0
 15 14  1  0
 16 15  1  6
 16 17  1  0
 17  7  1  0
 18 16  1  0
 19 18  2  0
 21 20  1  0
 22 21  2  0
 23 21  1  0
 24 23  1  6
 24 25  1  0
 25 18  1  0
 26 24  1  0
 26 28  1  0
 27 26  2  0
M  END
$$$$
