MRN.pdb
     RDKit          3D

 28 27  0  0  1  0  0  0  0  0999 V2000
   25.7671  -16.0360  -17.4246 C   0  0  0  0  0  0  0  0  0  0  0  0
   27.5535  -16.1258  -17.5490 S   0  0  0  0  0  0  0  0  0  0  0  0
   28.2378  -17.6376  -16.8227 C   0  0  0  0  0  0  0  0  0  0  0  0
   27.1600  -18.4481  -16.1347 C   0  0  0  0  0  0  0  0  0  0  0  0
   27.7109  -19.7424  -15.5798 C   0  0  2  0  0  0  0  0  0  0  0  0
   28.1957  -20.5165  -16.6934 N   0  0  0  0  0  0  0  0  0  0  0  0
   26.7020  -20.4990  -14.8111 C   0  0  0  0  0  0  0  0  0  0  0  0
   25.9501  -21.2827  -15.4297 O   0  0  0  0  0  0  0  0  0  0  0  0
   30.5865  -20.9511   -8.5861 N   0  0  0  0  0  0  0  0  0  0  0  0
   30.6138  -22.0849   -9.4729 C   0  0  0  0  0  0  0  0  0  0  0  0
   31.7117  -22.7461   -9.5308 N   0  0  0  0  0  0  0  0  0  0  0  0
   29.4849  -22.4310  -10.2276 N   0  0  0  0  0  0  0  0  0  0  0  0
   28.3175  -21.5789  -10.2558 C   0  0  0  0  0  0  0  0  0  0  0  0
   27.1583  -22.2223  -11.0117 C   0  0  0  0  0  0  0  0  0  0  0  0
   26.0147  -21.2269  -11.1664 C   0  0  0  0  0  0  0  0  0  0  0  0
   25.6033  -21.0876  -12.6085 C   0  0  2  0  0  0  0  0  0  0  0  0
   26.5434  -20.3830  -13.4167 N   0  0  0  0  0  0  0  0  0  0  0  0
   24.2760  -20.4149  -12.6626 C   0  0  0  0  0  0  0  0  0  0  0  0
   24.2328  -19.1613  -12.6877 O   0  0  0  0  0  0  0  0  0  0  0  0
   31.8055  -23.5484  -10.1540 N   0  0  0  0  0  0  0  0  0  0  0  0
   20.2500  -18.3605  -15.5643 C   0  0  0  0  0  0  0  0  0  0  0  0
   20.3194  -19.4278  -14.5752 O   0  0  0  0  0  0  0  0  0  0  0  0
   19.2252  -19.6318  -13.9960 C   0  0  0  0  0  0  0  0  0  0  0  0
   21.5849  -20.1349  -14.3497 C   0  0  1  0  0  0  0  0  0  0  0  0
   21.8229  -20.3515  -12.8796 N   0  0  0  0  0  0  0  0  0  0  0  0
   23.0569  -21.1276  -12.6873 C   0  0  0  0  0  0  0  0  0  0  0  0
   20.7682  -21.0960  -12.1914 O   0  0  0  0  0  0  0  0  0  0  0  0
   20.9245  -22.2855  -11.8480 O   0  0  0  0  0  0  0  0  0  0  0  0
  1  2  1  0
  2  3  1  0
  3  4  1  0
  4  5  1  0
  5  6  1  6
  7  5  1  0
  8  7  2  0
 10  9  1  0
 11 10  2  0
 12 10  1  0
 13 12  1  0
 14 13  1  0
 15 14  1  0
 16 15  1  1
 16 17  1  0
 17  7  1  0
 18 16  1  0
 19 18  2  0
 21 20  1  0
 22 21  2  0
 23 21  1  0
 24 23  1  1
 24 25  1  0
 25 18  1  0
 26 24  1  0
 26 28  1  0
 27 26  2  0
M  END
$$$$
