MDD.pdb
     RDKit          3D

 25 24  0  0  1  0  0  0  0  0999 V2000
   28.6746  -12.8318  -16.0200 C   0  0  0  0  0  0  0  0  0  0  0  0
   27.4133  -11.7728  -15.3134 S   0  0  0  0  0  0  0  0  0  0  0  0
   25.7986  -11.8845  -16.0375 C   0  0  0  0  0  0  0  0  0  0  0  0
   24.7577  -10.9680  -15.5095 C   0  0  0  0  0  0  0  0  0  0  0  0
   23.9057  -10.3248  -16.5283 C   0  0  2  0  0  0  0  0  0  0  0  0
   24.7534   -9.5791  -17.4645 N   0  0  0  0  0  0  0  0  0  0  0  0
   23.0386   -9.2436  -15.8934 C   0  0  0  0  0  0  0  0  0  0  0  0
   22.2043   -9.5223  -15.0036 O   0  0  0  0  0  0  0  0  0  0  0  0
   23.1559   -7.9015  -16.2942 N   0  0  0  0  0  0  0  0  0  0  0  0
   22.3307   -6.8335  -15.6699 C   0  0  1  0  0  0  0  0  0  0  0  0
   23.0852   -6.3041  -14.4857 C   0  0  0  0  0  0  0  0  0  0  0  0
   22.3784   -5.2149  -13.8097 C   0  0  0  0  0  0  0  0  0  0  0  0
   22.7258   -4.0263  -13.9073 O   0  0  0  0  0  0  0  0  0  0  0  0
   22.0829   -5.7895  -16.7221 C   0  0  0  0  0  0  0  0  0  0  0  0
   22.9769   -5.4249  -17.5126 O   0  0  0  0  0  0  0  0  0  0  0  0
   21.2528   -5.4450  -13.0006 O   0  0  0  0  0  0  0  0  0  0  0  0
   20.8150   -5.1691  -16.8634 N   0  0  0  0  0  0  0  0  0  0  0  0
   20.4875   -4.1030  -17.7797 C   0  0  1  0  0  0  0  0  0  0  0  0
   19.2060   -4.3127  -18.5026 C   0  0  0  0  0  0  0  0  0  0  0  0
   18.9511   -3.3299  -19.5688 C   0  0  0  0  0  0  0  0  0  0  0  0
   19.7811   -2.4216  -19.8336 O   0  0  0  0  0  0  0  0  0  0  0  0
   20.6546   -2.7399  -17.2389 C   0  0  0  0  0  0  0  0  0  0  0  0
   20.0339   -2.4263  -16.2027 O   0  0  0  0  0  0  0  0  0  0  0  0
   17.7938   -3.3350  -20.3469 O   0  0  0  0  0  0  0  0  0  0  0  0
   21.4639   -1.8279  -17.8481 O   0  0  0  0  0  0  0  0  0  0  0  0
  2  1  1  0
  3  2  1  0
  4  5  1  0
  4  3  1  0
  5  7  1  0
  5  6  1  6
  7  9  1  0
  8  7  2  0
  9 10  1  0
 10 11  1  1
 12 11  1  0
 13 12  2  0
 14 10  1  0
 14 15  2  0
 16 12  1  0
 17 14  1  0
 18 17  1  0
 18 22  1  0
 19 20  1  0
 18 19  1  1
 20 21  2  0
 22 23  2  0
 22 25  1  0
 24 20  1  0
M  END
$$$$
