MDD.pdb
     RDKit          3D

 25 24  0  0  1  0  0  0  0  0999 V2000
   21.8824  -14.3919  -15.7675 C   0  0  0  0  0  0  0  0  0  0  0  0
   21.6614  -12.6353  -15.4908 S   0  0  0  0  0  0  0  0  0  0  0  0
   23.1131  -11.7232  -15.0384 C   0  0  0  0  0  0  0  0  0  0  0  0
   22.9350  -10.2837  -14.7249 C   0  0  0  0  0  0  0  0  0  0  0  0
   21.8932   -9.5904  -15.5069 C   0  0  2  0  0  0  0  0  0  0  0  0
   22.2935   -9.5541  -16.9174 N   0  0  0  0  0  0  0  0  0  0  0  0
   21.8248   -8.1181  -15.1174 C   0  0  0  0  0  0  0  0  0  0  0  0
   21.6775   -7.7700  -13.9247 O   0  0  0  0  0  0  0  0  0  0  0  0
   21.9258   -7.1116  -16.0933 N   0  0  0  0  0  0  0  0  0  0  0  0
   21.8380   -5.6721  -15.7308 C   0  0  1  0  0  0  0  0  0  0  0  0
   23.0118   -4.9709  -16.3495 C   0  0  0  0  0  0  0  0  0  0  0  0
   24.2172   -5.0562  -15.5233 C   0  0  0  0  0  0  0  0  0  0  0  0
   25.3038   -5.4691  -15.9613 O   0  0  0  0  0  0  0  0  0  0  0  0
   20.5176   -5.1646  -16.2381 C   0  0  0  0  0  0  0  0  0  0  0  0
   20.1664   -5.3131  -17.4263 O   0  0  0  0  0  0  0  0  0  0  0  0
   24.2234   -4.6737  -14.1712 O   0  0  0  0  0  0  0  0  0  0  0  0
   19.6074   -4.4905  -15.3838 N   0  0  0  0  0  0  0  0  0  0  0  0
   18.3511   -3.8988  -15.7773 C   0  0  1  0  0  0  0  0  0  0  0  0
   17.3030   -3.9743  -14.7263 C   0  0  0  0  0  0  0  0  0  0  0  0
   16.0113   -3.3907  -15.1244 C   0  0  0  0  0  0  0  0  0  0  0  0
   15.6174   -3.4265  -16.3192 O   0  0  0  0  0  0  0  0  0  0  0  0
   18.4576   -2.5762  -16.4237 C   0  0  0  0  0  0  0  0  0  0  0  0
   19.1879   -1.7105  -15.8998 O   0  0  0  0  0  0  0  0  0  0  0  0
   15.1481   -2.7682  -14.2232 O   0  0  0  0  0  0  0  0  0  0  0  0
   17.7764   -2.2877  -17.5685 O   0  0  0  0  0  0  0  0  0  0  0  0
  2  1  1  0
  3  2  1  0
  4  5  1  0
  4  3  1  0
  5  7  1  0
  5  6  1  6
  7  9  1  0
  8  7  2  0
  9 10  1  0
 10 11  1  6
 12 11  1  0
 13 12  2  0
 14 10  1  0
 14 15  2  0
 16 12  1  0
 17 14  1  0
 18 17  1  0
 18 22  1  0
 19 20  1  0
 18 19  1  1
 20 21  2  0
 22 23  2  0
 22 25  1  0
 24 20  1  0
M  END
$$$$
