MDD.pdb
     RDKit          3D

 25 24  0  0  1  0  0  0  0  0999 V2000
   28.7967  -18.4351   -4.9802 C   0  0  0  0  0  0  0  0  0  0  0  0
   28.1413  -18.9444   -6.5684 S   0  0  0  0  0  0  0  0  0  0  0  0
   28.1217  -20.6886   -6.8866 C   0  0  0  0  0  0  0  0  0  0  0  0
   27.7246  -21.1213   -8.2495 C   0  0  0  0  0  0  0  0  0  0  0  0
   26.5246  -20.4606   -8.7982 C   0  0  2  0  0  0  0  0  0  0  0  0
   25.3538  -20.8538   -8.0071 N   0  0  0  0  0  0  0  0  0  0  0  0
   26.2104  -20.9959  -10.1906 C   0  0  0  0  0  0  0  0  0  0  0  0
   26.4487  -22.1857  -10.4959 O   0  0  0  0  0  0  0  0  0  0  0  0
   25.6431  -20.1620  -11.1695 N   0  0  0  0  0  0  0  0  0  0  0  0
   24.6107  -20.6684  -12.1123 C   0  0  1  0  0  0  0  0  0  0  0  0
   23.4720  -21.2094  -11.2983 C   0  0  0  0  0  0  0  0  0  0  0  0
   22.6346  -22.1429  -12.0534 C   0  0  0  0  0  0  0  0  0  0  0  0
   22.9485  -22.5685  -13.1774 O   0  0  0  0  0  0  0  0  0  0  0  0
   24.2083  -19.5184  -12.9922 C   0  0  0  0  0  0  0  0  0  0  0  0
   24.7646  -18.4040  -12.9164 O   0  0  0  0  0  0  0  0  0  0  0  0
   21.4123  -22.6217  -11.5521 O   0  0  0  0  0  0  0  0  0  0  0  0
   23.1725  -19.6499  -13.9526 N   0  0  0  0  0  0  0  0  0  0  0  0
   23.2645  -19.3152  -15.3536 C   0  0  1  0  0  0  0  0  0  0  0  0
   24.5604  -19.6977  -15.9726 C   0  0  0  0  0  0  0  0  0  0  0  0
   25.2639  -18.5831  -16.6287 C   0  0  0  0  0  0  0  0  0  0  0  0
   26.4345  -18.7176  -17.0707 O   0  0  0  0  0  0  0  0  0  0  0  0
   22.0840  -19.6770  -16.1621 C   0  0  0  0  0  0  0  0  0  0  0  0
   22.0136  -20.8287  -16.6374 O   0  0  0  0  0  0  0  0  0  0  0  0
   24.6941  -17.3224  -16.8039 O   0  0  0  0  0  0  0  0  0  0  0  0
   21.0829  -18.7826  -16.3980 O   0  0  0  0  0  0  0  0  0  0  0  0
  2  1  1  0
  3  2  1  0
  4  5  1  0
  4  3  1  0
  5  7  1  0
  5  6  1  1
  7  9  1  0
  8  7  2  0
  9 10  1  0
 10 11  1  1
 12 11  1  0
 13 12  2  0
 14 10  1  0
 14 15  2  0
 16 12  1  0
 17 14  1  0
 18 17  1  0
 18 22  1  0
 19 20  1  0
 18 19  1  6
 20 21  2  0
 22 23  2  0
 22 25  1  0
 24 20  1  0
M  END
$$$$
