MDD.pdb
     RDKit          3D

 25 24  0  0  1  0  0  0  0  0999 V2000
   29.5135  -13.6931  -15.4357 C   0  0  0  0  0  0  0  0  0  0  0  0
   28.2264  -12.4856  -15.7471 S   0  0  0  0  0  0  0  0  0  0  0  0
   27.1368  -12.8317  -17.1025 C   0  0  0  0  0  0  0  0  0  0  0  0
   26.0354  -11.8674  -17.3457 C   0  0  0  0  0  0  0  0  0  0  0  0
   25.4898  -11.2134  -16.1406 C   0  0  2  0  0  0  0  0  0  0  0  0
   24.8672  -12.2267  -15.2823 N   0  0  0  0  0  0  0  0  0  0  0  0
   24.3291  -10.2968  -16.5101 C   0  0  0  0  0  0  0  0  0  0  0  0
   24.4387   -9.4496  -17.4243 O   0  0  0  0  0  0  0  0  0  0  0  0
   23.1022  -10.3816  -15.8295 N   0  0  0  0  0  0  0  0  0  0  0  0
   21.9801   -9.4568  -16.1409 C   0  0  1  0  0  0  0  0  0  0  0  0
   20.7063  -10.1167  -15.7007 C   0  0  0  0  0  0  0  0  0  0  0  0
   19.5286   -9.2800  -15.9373 C   0  0  0  0  0  0  0  0  0  0  0  0
   19.3749   -8.6149  -16.9751 O   0  0  0  0  0  0  0  0  0  0  0  0
   22.2523   -8.1670  -15.4192 C   0  0  0  0  0  0  0  0  0  0  0  0
   22.7865   -8.1423  -14.2917 O   0  0  0  0  0  0  0  0  0  0  0  0
   18.4880   -9.1744  -14.9991 O   0  0  0  0  0  0  0  0  0  0  0  0
   21.9120   -6.9141  -15.9910 N   0  0  0  0  0  0  0  0  0  0  0  0
   22.1814   -5.6169  -15.4184 C   0  0  1  0  0  0  0  0  0  0  0  0
   22.4336   -4.5599  -16.4324 C   0  0  0  0  0  0  0  0  0  0  0  0
   22.7380   -3.2387  -15.8584 C   0  0  0  0  0  0  0  0  0  0  0  0
   21.8289   -2.3987  -15.6311 O   0  0  0  0  0  0  0  0  0  0  0  0
   21.2615   -5.2058  -14.3399 C   0  0  0  0  0  0  0  0  0  0  0  0
   21.7416   -4.7176  -13.2967 O   0  0  0  0  0  0  0  0  0  0  0  0
   24.0312   -2.8312  -15.5319 O   0  0  0  0  0  0  0  0  0  0  0  0
   19.9119   -5.3524  -14.4626 O   0  0  0  0  0  0  0  0  0  0  0  0
  2  1  1  0
  3  2  1  0
  4  5  1  0
  4  3  1  0
  5  7  1  0
  5  6  1  1
  7  9  1  0
  8  7  2  0
  9 10  1  0
 10 11  1  1
 12 11  1  0
 13 12  2  0
 14 10  1  0
 14 15  2  0
 16 12  1  0
 17 14  1  0
 18 17  1  0
 18 22  1  0
 19 20  1  0
 18 19  1  6
 20 21  2  0
 22 23  2  0
 22 25  1  0
 24 20  1  0
M  END
$$$$
