MDD.pdb
     RDKit          3D

 25 24  0  0  1  0  0  0  0  0999 V2000
   29.2744  -11.5369  -16.6576 C   0  0  0  0  0  0  0  0  0  0  0  0
   28.0033  -12.7711  -16.3887 S   0  0  0  0  0  0  0  0  0  0  0  0
   26.7543  -12.3649  -15.1974 C   0  0  0  0  0  0  0  0  0  0  0  0
   25.7348  -11.3657  -15.6029 C   0  0  0  0  0  0  0  0  0  0  0  0
   24.6583  -11.8779  -16.4726 C   0  0  2  0  0  0  0  0  0  0  0  0
   25.2047  -12.1508  -17.8060 N   0  0  0  0  0  0  0  0  0  0  0  0
   23.6178  -10.7935  -16.7286 C   0  0  0  0  0  0  0  0  0  0  0  0
   23.8205   -9.8864  -17.5662 O   0  0  0  0  0  0  0  0  0  0  0  0
   22.4001  -10.7865  -16.0266 N   0  0  0  0  0  0  0  0  0  0  0  0
   21.3189   -9.8230  -16.3641 C   0  0  1  0  0  0  0  0  0  0  0  0
   20.0193  -10.5734  -16.3636 C   0  0  0  0  0  0  0  0  0  0  0  0
   19.9897  -11.6474  -17.3578 C   0  0  0  0  0  0  0  0  0  0  0  0
   20.2692  -11.4632  -18.5540 O   0  0  0  0  0  0  0  0  0  0  0  0
   21.3632   -8.7260  -15.3379 C   0  0  0  0  0  0  0  0  0  0  0  0
   21.3686   -8.9680  -14.1137 O   0  0  0  0  0  0  0  0  0  0  0  0
   19.6408  -12.9662  -17.0210 O   0  0  0  0  0  0  0  0  0  0  0  0
   21.4007   -7.3597  -15.7178 N   0  0  0  0  0  0  0  0  0  0  0  0
   21.4020   -6.2278  -14.8221 C   0  0  1  0  0  0  0  0  0  0  0  0
   22.4821   -5.2468  -15.1049 C   0  0  0  0  0  0  0  0  0  0  0  0
   22.5149   -4.1063  -14.1744 C   0  0  0  0  0  0  0  0  0  0  0  0
   22.5443   -4.2792  -12.9281 O   0  0  0  0  0  0  0  0  0  0  0  0
   20.0805   -5.6137  -14.5882 C   0  0  0  0  0  0  0  0  0  0  0  0
   19.2780   -5.5380  -15.5409 O   0  0  0  0  0  0  0  0  0  0  0  0
   22.5159   -2.7781  -14.5993 O   0  0  0  0  0  0  0  0  0  0  0  0
   19.7281   -5.1304  -13.3634 O   0  0  0  0  0  0  0  0  0  0  0  0
  2  1  1  0
  3  2  1  0
  4  5  1  0
  4  3  1  0
  5  7  1  0
  5  6  1  6
  7  9  1  0
  8  7  2  0
  9 10  1  0
 10 11  1  1
 12 11  1  0
 13 12  2  0
 14 10  1  0
 14 15  2  0
 16 12  1  0
 17 14  1  0
 18 17  1  0
 18 22  1  0
 19 20  1  0
 18 19  1  6
 20 21  2  0
 22 23  2  0
 22 25  1  0
 24 20  1  0
M  END
$$$$
