MDD.pdb
     RDKit          3D

 25 24  0  0  1  0  0  0  0  0999 V2000
   31.4050  -21.7024  -10.4888 C   0  0  0  0  0  0  0  0  0  0  0  0
   30.4543  -21.0814   -9.1025 S   0  0  0  0  0  0  0  0  0  0  0  0
   28.6950  -21.2774   -9.2065 C   0  0  0  0  0  0  0  0  0  0  0  0
   28.0281  -20.7483  -10.4220 C   0  0  0  0  0  0  0  0  0  0  0  0
   26.5547  -20.8300  -10.4211 C   0  0  2  0  0  0  0  0  0  0  0  0
   26.1500  -22.2349  -10.3047 N   0  0  0  0  0  0  0  0  0  0  0  0
   25.9961  -20.4090  -11.7757 C   0  0  0  0  0  0  0  0  0  0  0  0
   25.9871  -19.2083  -12.1275 O   0  0  0  0  0  0  0  0  0  0  0  0
   25.4753  -21.3637  -12.6660 N   0  0  0  0  0  0  0  0  0  0  0  0
   24.9706  -20.9736  -14.0093 C   0  0  1  0  0  0  0  0  0  0  0  0
   25.7610  -21.7327  -15.0345 C   0  0  0  0  0  0  0  0  0  0  0  0
   26.8144  -20.9210  -15.6464 C   0  0  0  0  0  0  0  0  0  0  0  0
   26.7709  -19.6801  -15.6819 O   0  0  0  0  0  0  0  0  0  0  0  0
   23.5029  -21.2949  -14.0444 C   0  0  0  0  0  0  0  0  0  0  0  0
   23.0627  -22.4074  -13.6899 O   0  0  0  0  0  0  0  0  0  0  0  0
   27.9514  -21.4972  -16.2377 O   0  0  0  0  0  0  0  0  0  0  0  0
   22.5483  -20.3424  -14.4847 N   0  0  0  0  0  0  0  0  0  0  0  0
   21.1137  -20.4971  -14.4483 C   0  0  1  0  0  0  0  0  0  0  0  0
   20.4379  -19.5600  -13.5134 C   0  0  0  0  0  0  0  0  0  0  0  0
   18.9863  -19.7752  -13.3936 C   0  0  0  0  0  0  0  0  0  0  0  0
   18.4121  -20.7168  -13.9999 O   0  0  0  0  0  0  0  0  0  0  0  0
   20.4619  -20.6008  -15.7685 C   0  0  0  0  0  0  0  0  0  0  0  0
   20.7583  -19.7686  -16.6498 O   0  0  0  0  0  0  0  0  0  0  0  0
   18.1595  -18.9663  -12.6146 O   0  0  0  0  0  0  0  0  0  0  0  0
   19.5496  -21.5775  -16.0359 O   0  0  0  0  0  0  0  0  0  0  0  0
  2  1  1  0
  3  2  1  0
  4  5  1  0
  4  3  1  0
  5  7  1  0
  5  6  1  6
  7  9  1  0
  8  7  2  0
  9 10  1  0
 10 11  1  6
 12 11  1  0
 13 12  2  0
 14 10  1  0
 14 15  2  0
 16 12  1  0
 17 14  1  0
 18 17  1  0
 18 22  1  0
 19 20  1  0
 18 19  1  6
 20 21  2  0
 22 23  2  0
 22 25  1  0
 24 20  1  0
M  END
$$$$
