MDD.pdb
     RDKit          3D

 25 24  0  0  1  0  0  0  0  0999 V2000
   28.6170  -11.6980  -15.4659 C   0  0  0  0  0  0  0  0  0  0  0  0
   27.3633  -10.4508  -15.7557 S   0  0  0  0  0  0  0  0  0  0  0  0
   25.6850  -10.9419  -15.4621 C   0  0  0  0  0  0  0  0  0  0  0  0
   24.6387   -9.9032  -15.6315 C   0  0  0  0  0  0  0  0  0  0  0  0
   23.2679  -10.3237  -15.2831 C   0  0  2  0  0  0  0  0  0  0  0  0
   22.8397  -11.3821  -16.2038 N   0  0  0  0  0  0  0  0  0  0  0  0
   22.2789   -9.1952  -15.5521 C   0  0  0  0  0  0  0  0  0  0  0  0
   21.8365   -8.9827  -16.7031 O   0  0  0  0  0  0  0  0  0  0  0  0
   21.8383   -8.3624  -14.5091 N   0  0  0  0  0  0  0  0  0  0  0  0
   20.9101   -7.2291  -14.7646 C   0  0  1  0  0  0  0  0  0  0  0  0
   19.9564   -7.1479  -13.6087 C   0  0  0  0  0  0  0  0  0  0  0  0
   18.9972   -8.2536  -13.5924 C   0  0  0  0  0  0  0  0  0  0  0  0
   18.5308   -8.7535  -14.6294 O   0  0  0  0  0  0  0  0  0  0  0  0
   21.7493   -5.9922  -14.9206 C   0  0  0  0  0  0  0  0  0  0  0  0
   22.9808   -6.0012  -14.7197 O   0  0  0  0  0  0  0  0  0  0  0  0
   18.5385   -8.8254  -12.3936 O   0  0  0  0  0  0  0  0  0  0  0  0
   21.1751   -4.7533  -15.3051 N   0  0  0  0  0  0  0  0  0  0  0  0
   21.8951   -3.5372  -15.5988 C   0  0  1  0  0  0  0  0  0  0  0  0
   23.0856   -3.7450  -16.4640 C   0  0  0  0  0  0  0  0  0  0  0  0
   23.8483   -2.5163  -16.7397 C   0  0  0  0  0  0  0  0  0  0  0  0
   24.7122   -2.0870  -15.9314 O   0  0  0  0  0  0  0  0  0  0  0  0
   21.0534   -2.3937  -16.0018 C   0  0  0  0  0  0  0  0  0  0  0  0
   20.0291   -2.6134  -16.6797 O   0  0  0  0  0  0  0  0  0  0  0  0
   23.6715   -1.7546  -17.8944 O   0  0  0  0  0  0  0  0  0  0  0  0
   21.3755   -1.1162  -15.6521 O   0  0  0  0  0  0  0  0  0  0  0  0
  2  1  1  0
  3  2  1  0
  4  5  1  0
  4  3  1  0
  5  7  1  0
  5  6  1  6
  7  9  1  0
  8  7  2  0
  9 10  1  0
 10 11  1  1
 12 11  1  0
 13 12  2  0
 14 10  1  0
 14 15  2  0
 16 12  1  0
 17 14  1  0
 18 17  1  0
 18 22  1  0
 19 20  1  0
 18 19  1  6
 20 21  2  0
 22 23  2  0
 22 25  1  0
 24 20  1  0
M  END
$$$$
