MDD.pdb
     RDKit          3D

 25 24  0  0  1  0  0  0  0  0999 V2000
   21.0351  -14.9734  -16.0659 C   0  0  0  0  0  0  0  0  0  0  0  0
   20.1020  -13.5645  -15.4693 S   0  0  0  0  0  0  0  0  0  0  0  0
   20.0158  -12.1641  -16.5535 C   0  0  0  0  0  0  0  0  0  0  0  0
   19.3067  -10.9624  -16.0481 C   0  0  0  0  0  0  0  0  0  0  0  0
   18.0064  -11.2212  -15.4003 C   0  0  2  0  0  0  0  0  0  0  0  0
   17.0000  -11.4943  -16.4317 N   0  0  0  0  0  0  0  0  0  0  0  0
   17.4878   -9.9586  -14.7214 C   0  0  0  0  0  0  0  0  0  0  0  0
   17.0497   -8.9967  -15.3909 O   0  0  0  0  0  0  0  0  0  0  0  0
   17.4894   -9.8440  -13.3205 N   0  0  0  0  0  0  0  0  0  0  0  0
   17.0269   -8.6021  -12.6460 C   0  0  1  0  0  0  0  0  0  0  0  0
   16.5068   -8.9826  -11.2907 C   0  0  0  0  0  0  0  0  0  0  0  0
   15.2976   -9.8043  -11.3628 C   0  0  0  0  0  0  0  0  0  0  0  0
   14.3513   -9.5415  -12.1234 O   0  0  0  0  0  0  0  0  0  0  0  0
   18.2009   -7.6660  -12.5822 C   0  0  0  0  0  0  0  0  0  0  0  0
   19.2133   -7.9235  -11.8998 O   0  0  0  0  0  0  0  0  0  0  0  0
   15.1276  -10.9524  -10.5706 O   0  0  0  0  0  0  0  0  0  0  0  0
   18.2095   -6.4417  -13.2988 N   0  0  0  0  0  0  0  0  0  0  0  0
   19.3297   -5.5408  -13.4293 C   0  0  1  0  0  0  0  0  0  0  0  0
   20.6258   -6.2322  -13.6550 C   0  0  0  0  0  0  0  0  0  0  0  0
   21.7796   -5.3238  -13.7613 C   0  0  0  0  0  0  0  0  0  0  0  0
   21.6349   -4.0744  -13.7181 O   0  0  0  0  0  0  0  0  0  0  0  0
   19.1033   -4.3859  -14.3200 C   0  0  0  0  0  0  0  0  0  0  0  0
   19.9658   -3.4851  -14.3638 O   0  0  0  0  0  0  0  0  0  0  0  0
   23.0905   -5.7743  -13.9145 O   0  0  0  0  0  0  0  0  0  0  0  0
   17.9786   -4.2871  -15.0837 O   0  0  0  0  0  0  0  0  0  0  0  0
  2  1  1  0
  3  2  1  0
  4  5  1  0
  4  3  1  0
  5  7  1  0
  5  6  1  6
  7  9  1  0
  8  7  2  0
  9 10  1  0
 10 11  1  1
 12 11  1  0
 13 12  2  0
 14 10  1  0
 14 15  2  0
 16 12  1  0
 17 14  1  0
 18 17  1  0
 18 22  1  0
 19 20  1  0
 18 19  1  6
 20 21  2  0
 22 23  2  0
 22 25  1  0
 24 20  1  0
M  END
$$$$
