MDD.pdb
     RDKit          3D

 25 24  0  0  1  0  0  0  0  0999 V2000
   32.1066  -10.8017  -17.5008 C   0  0  0  0  0  0  0  0  0  0  0  0
   30.6461   -9.8284  -17.8627 S   0  0  0  0  0  0  0  0  0  0  0  0
   29.0862  -10.5870  -17.4945 C   0  0  0  0  0  0  0  0  0  0  0  0
   27.8664   -9.7859  -17.7636 C   0  0  0  0  0  0  0  0  0  0  0  0
   26.5874  -10.4774  -17.5111 C   0  0  2  0  0  0  0  0  0  0  0  0
   26.5277  -11.6939  -18.3282 N   0  0  0  0  0  0  0  0  0  0  0  0
   25.4195   -9.6439  -18.0263 C   0  0  0  0  0  0  0  0  0  0  0  0
   25.1362   -9.6095  -19.2445 O   0  0  0  0  0  0  0  0  0  0  0  0
   24.6292   -8.8905  -17.1412 N   0  0  0  0  0  0  0  0  0  0  0  0
   23.4638   -8.1032  -17.6245 C   0  0  1  0  0  0  0  0  0  0  0  0
   22.4381   -9.0707  -18.1382 C   0  0  0  0  0  0  0  0  0  0  0  0
   22.7075   -9.4993  -19.5117 C   0  0  0  0  0  0  0  0  0  0  0  0
   22.9483   -8.6985  -20.4302 O   0  0  0  0  0  0  0  0  0  0  0  0
   22.9688   -7.2834  -16.4663 C   0  0  0  0  0  0  0  0  0  0  0  0
   22.8595   -7.7616  -15.3189 O   0  0  0  0  0  0  0  0  0  0  0  0
   22.7114  -10.8546  -19.8829 O   0  0  0  0  0  0  0  0  0  0  0  0
   22.6018   -5.9226  -16.6275 N   0  0  0  0  0  0  0  0  0  0  0  0
   22.0993   -5.0493  -15.5939 C   0  0  1  0  0  0  0  0  0  0  0  0
   22.0685   -3.6168  -15.9887 C   0  0  0  0  0  0  0  0  0  0  0  0
   21.5688   -2.7156  -14.9371 C   0  0  0  0  0  0  0  0  0  0  0  0
   21.5011   -3.0855  -13.7360 O   0  0  0  0  0  0  0  0  0  0  0  0
   20.8676   -5.5139  -14.9265 C   0  0  0  0  0  0  0  0  0  0  0  0
   19.9093   -5.8897  -15.6320 O   0  0  0  0  0  0  0  0  0  0  0  0
   21.1428   -1.4124  -15.1918 O   0  0  0  0  0  0  0  0  0  0  0  0
   20.7603   -5.5353  -13.5679 O   0  0  0  0  0  0  0  0  0  0  0  0
  2  1  1  0
  3  2  1  0
  4  5  1  0
  4  3  1  0
  5  7  1  0
  5  6  1  6
  7  9  1  0
  8  7  2  0
  9 10  1  0
 10 11  1  1
 12 11  1  0
 13 12  2  0
 14 10  1  0
 14 15  2  0
 16 12  1  0
 17 14  1  0
 18 17  1  0
 18 22  1  0
 19 20  1  0
 18 19  1  6
 20 21  2  0
 22 23  2  0
 22 25  1  0
 24 20  1  0
M  END
$$$$
