MDD.pdb
     RDKit          3D

 25 24  0  0  1  0  0  0  0  0999 V2000
   29.1573  -12.1801  -15.9522 C   0  0  0  0  0  0  0  0  0  0  0  0
   27.6589  -11.2477  -16.2631 S   0  0  0  0  0  0  0  0  0  0  0  0
   26.2779  -11.6077  -15.2108 C   0  0  0  0  0  0  0  0  0  0  0  0
   25.0714  -10.7579  -15.3669 C   0  0  0  0  0  0  0  0  0  0  0  0
   23.8702  -11.4515  -15.8705 C   0  0  2  0  0  0  0  0  0  0  0  0
   24.1548  -12.0056  -17.1983 N   0  0  0  0  0  0  0  0  0  0  0  0
   22.7485  -10.4532  -16.1335 C   0  0  0  0  0  0  0  0  0  0  0  0
   22.6704   -9.8385  -17.2205 O   0  0  0  0  0  0  0  0  0  0  0  0
   21.7705  -10.1980  -15.1568 N   0  0  0  0  0  0  0  0  0  0  0  0
   20.6588   -9.2428  -15.4072 C   0  0  1  0  0  0  0  0  0  0  0  0
   19.4145   -9.8163  -14.7950 C   0  0  0  0  0  0  0  0  0  0  0  0
   18.9598  -11.0291  -15.4770 C   0  0  0  0  0  0  0  0  0  0  0  0
   18.9181  -11.1282  -16.7146 O   0  0  0  0  0  0  0  0  0  0  0  0
   21.0574   -7.9264  -14.8016 C   0  0  0  0  0  0  0  0  0  0  0  0
   21.8966   -7.8511  -13.8812 O   0  0  0  0  0  0  0  0  0  0  0  0
   18.5378  -12.1683  -14.7709 O   0  0  0  0  0  0  0  0  0  0  0  0
   20.4938   -6.7049  -15.2520 N   0  0  0  0  0  0  0  0  0  0  0  0
   20.8928   -5.3808  -14.8384 C   0  0  1  0  0  0  0  0  0  0  0  0
   22.3662   -5.1902  -14.7943 C   0  0  0  0  0  0  0  0  0  0  0  0
   22.7842   -3.8439  -14.3696 C   0  0  0  0  0  0  0  0  0  0  0  0
   23.4385   -3.0898  -15.1358 O   0  0  0  0  0  0  0  0  0  0  0  0
   20.1646   -4.2754  -15.4912 C   0  0  0  0  0  0  0  0  0  0  0  0
   20.0411   -4.2903  -16.7329 O   0  0  0  0  0  0  0  0  0  0  0  0
   22.4907   -3.3180  -13.1118 O   0  0  0  0  0  0  0  0  0  0  0  0
   19.6343   -3.2488  -14.7681 O   0  0  0  0  0  0  0  0  0  0  0  0
  2  1  1  0
  3  2  1  0
  4  5  1  0
  4  3  1  0
  5  7  1  0
  5  6  1  6
  7  9  1  0
  8  7  2  0
  9 10  1  0
 10 11  1  1
 12 11  1  0
 13 12  2  0
 14 10  1  0
 14 15  2  0
 16 12  1  0
 17 14  1  0
 18 17  1  0
 18 22  1  0
 19 20  1  0
 18 19  1  6
 20 21  2  0
 22 23  2  0
 22 25  1  0
 24 20  1  0
M  END
$$$$
