MDD.pdb
     RDKit          3D

 25 24  0  0  1  0  0  0  0  0999 V2000
   33.3894  -32.9855   -8.3199 C   0  0  0  0  0  0  0  0  0  0  0  0
   33.0138  -34.3933   -7.2767 S   0  0  0  0  0  0  0  0  0  0  0  0
   33.5513  -34.2863   -5.5903 C   0  0  0  0  0  0  0  0  0  0  0  0
   32.5019  -34.0947   -4.5587 C   0  0  0  0  0  0  0  0  0  0  0  0
   31.2075  -34.7427   -4.8455 C   0  0  2  0  0  0  0  0  0  0  0  0
   30.3584  -33.8118   -5.5962 N   0  0  0  0  0  0  0  0  0  0  0  0
   30.4292  -34.9742   -3.5553 C   0  0  0  0  0  0  0  0  0  0  0  0
   29.8175  -34.0396   -2.9915 O   0  0  0  0  0  0  0  0  0  0  0  0
   30.3800  -36.2488   -2.9650 N   0  0  0  0  0  0  0  0  0  0  0  0
   29.5775  -36.5024   -1.7391 C   0  0  1  0  0  0  0  0  0  0  0  0
   28.6767  -37.6708   -2.0140 C   0  0  0  0  0  0  0  0  0  0  0  0
   27.7607  -37.9476   -0.9062 C   0  0  0  0  0  0  0  0  0  0  0  0
   27.4225  -37.0819   -0.0821 O   0  0  0  0  0  0  0  0  0  0  0  0
   30.5452  -36.7588   -0.6182 C   0  0  0  0  0  0  0  0  0  0  0  0
   31.5147  -37.5336   -0.7483 O   0  0  0  0  0  0  0  0  0  0  0  0
   27.2003  -39.2198   -0.7018 O   0  0  0  0  0  0  0  0  0  0  0  0
   30.3980  -36.1280    0.6439 N   0  0  0  0  0  0  0  0  0  0  0  0
   31.2607  -36.3033    1.7878 C   0  0  1  0  0  0  0  0  0  0  0  0
   31.3894  -35.0842    2.6281 C   0  0  0  0  0  0  0  0  0  0  0  0
   32.3788  -35.2045    3.7118 C   0  0  0  0  0  0  0  0  0  0  0  0
   32.5748  -34.2653    4.5262 O   0  0  0  0  0  0  0  0  0  0  0  0
   31.0340  -37.5415    2.5584 C   0  0  0  0  0  0  0  0  0  0  0  0
   31.9937  -38.0474    3.1750 O   0  0  0  0  0  0  0  0  0  0  0  0
   33.1549  -36.3461    3.9095 O   0  0  0  0  0  0  0  0  0  0  0  0
   29.8083  -38.1359    2.6039 O   0  0  0  0  0  0  0  0  0  0  0  0
  2  1  1  0
  3  2  1  0
  4  5  1  0
  4  3  1  0
  5  7  1  0
  5  6  1  6
  7  9  1  0
  8  7  2  0
  9 10  1  0
 10 11  1  6
 12 11  1  0
 13 12  2  0
 14 10  1  0
 14 15  2  0
 16 12  1  0
 17 14  1  0
 18 17  1  0
 18 22  1  0
 19 20  1  0
 18 19  1  1
 20 21  2  0
 22 23  2  0
 22 25  1  0
 24 20  1  0
M  END
$$$$
