MDD.pdb
     RDKit          3D

 25 24  0  0  1  0  0  0  0  0999 V2000
   15.3998  -13.1945  -16.0137 C   0  0  0  0  0  0  0  0  0  0  0  0
   16.3795  -13.0022  -17.5019 S   0  0  0  0  0  0  0  0  0  0  0  0
   17.1112  -11.4078  -17.7595 C   0  0  0  0  0  0  0  0  0  0  0  0
   18.2020  -11.0090  -16.8358 C   0  0  0  0  0  0  0  0  0  0  0  0
   19.5339  -11.5579  -17.1558 C   0  0  2  0  0  0  0  0  0  0  0  0
   19.7905  -12.7258  -16.3066 N   0  0  0  0  0  0  0  0  0  0  0  0
   20.6271  -10.5755  -16.7511 C   0  0  0  0  0  0  0  0  0  0  0  0
   20.9187  -10.3907  -15.5484 O   0  0  0  0  0  0  0  0  0  0  0  0
   21.3370   -9.8503  -17.7235 N   0  0  0  0  0  0  0  0  0  0  0  0
   22.3158   -8.7980  -17.3415 C   0  0  1  0  0  0  0  0  0  0  0  0
   23.3001   -8.6572  -18.4655 C   0  0  0  0  0  0  0  0  0  0  0  0
   24.2649   -7.5804  -18.2366 C   0  0  0  0  0  0  0  0  0  0  0  0
   24.7534   -6.9087  -19.1603 O   0  0  0  0  0  0  0  0  0  0  0  0
   21.5376   -7.5388  -17.0821 C   0  0  0  0  0  0  0  0  0  0  0  0
   20.6623   -7.1300  -17.8719 O   0  0  0  0  0  0  0  0  0  0  0  0
   24.7042   -7.2341  -16.9476 O   0  0  0  0  0  0  0  0  0  0  0  0
   21.7655   -6.7551  -15.9217 N   0  0  0  0  0  0  0  0  0  0  0  0
   21.1138   -5.5091  -15.5958 C   0  0  1  0  0  0  0  0  0  0  0  0
   19.7063   -5.6735  -15.1476 C   0  0  0  0  0  0  0  0  0  0  0  0
   19.0105   -4.4042  -14.8783 C   0  0  0  0  0  0  0  0  0  0  0  0
   19.2220   -3.7534  -13.8221 O   0  0  0  0  0  0  0  0  0  0  0  0
   21.9065   -4.5892  -14.7569 C   0  0  0  0  0  0  0  0  0  0  0  0
   22.7007   -5.0719  -13.9242 O   0  0  0  0  0  0  0  0  0  0  0  0
   18.0850   -3.8431  -15.7576 O   0  0  0  0  0  0  0  0  0  0  0  0
   21.7837   -3.2367  -14.8736 O   0  0  0  0  0  0  0  0  0  0  0  0
  2  1  1  0
  3  2  1  0
  4  5  1  0
  4  3  1  0
  5  7  1  0
  5  6  1  1
  7  9  1  0
  8  7  2  0
  9 10  1  0
 10 11  1  6
 12 11  1  0
 13 12  2  0
 14 10  1  0
 14 15  2  0
 16 12  1  0
 17 14  1  0
 18 17  1  0
 18 22  1  0
 19 20  1  0
 18 19  1  1
 20 21  2  0
 22 23  2  0
 22 25  1  0
 24 20  1  0
M  END
$$$$
