SKW.pdb
     RDKit          3D

 30 31  0  0  1  0  0  0  0  0999 V2000
    6.3895  -16.1565   19.3356 O   0  0  0  0  0  0  0  0  0  0  0  0
    6.3167  -14.9745   20.0408 C   0  0  0  0  0  0  0  0  0  0  0  0
    7.6355  -14.5772   20.6575 C   0  0  2  0  0  0  0  0  0  0  0  0
    8.6773  -14.4308   19.6677 N   0  0  0  0  0  0  0  0  0  0  0  0
    8.0530  -15.5051   21.7382 C   0  0  0  0  0  0  0  0  0  0  0  0
    7.2417  -15.7980   22.6811 O   0  0  0  0  0  0  0  0  0  0  0  0
    9.3516  -16.0793   21.7431 N   0  0  0  0  0  0  0  0  0  0  0  0
    9.8141  -17.0216   22.7211 C   0  0  1  0  0  0  0  0  0  0  0  0
   10.9286  -17.9044   22.2524 C   0  0  0  0  0  0  0  0  0  0  0  0
   10.5194  -18.8432   21.1531 C   0  0  0  0  0  0  0  0  0  0  0  0
   11.7132  -19.6799   20.7500 C   0  0  0  0  0  0  0  0  0  0  0  0
   11.2477  -20.6177   19.6534 C   0  0  0  0  0  0  0  0  0  0  0  0
   12.3245  -21.4623   19.1792 N   0  0  0  0  0  0  0  0  0  0  0  0
   10.1248  -16.3725   24.0303 C   0  0  0  0  0  0  0  0  0  0  0  0
   10.8909  -15.3759   24.0279 O   0  0  0  0  0  0  0  0  0  0  0  0
    9.6037  -16.8238   25.2511 N   0  0  0  0  0  0  0  0  0  0  0  0
    9.9973  -16.1995   26.5085 C   0  0  1  0  0  0  0  0  0  0  0  0
    8.8215  -15.9896   27.4170 C   0  0  0  0  0  0  0  0  0  0  0  0
    7.7490  -15.2543   26.6966 C   0  0  0  0  0  0  0  0  0  0  0  0
    6.6954  -15.7624   25.9657 C   0  0  0  0  0  0  0  0  0  0  0  0
    5.9451  -14.7610   25.4755 N   0  0  0  0  0  0  0  0  0  0  0  0
    6.5136  -13.5934   25.8900 C   0  0  0  0  0  0  0  0  0  0  0  0
    6.1382  -12.2745   25.6603 C   0  0  0  0  0  0  0  0  0  0  0  0
    6.8707  -11.2331   26.1809 C   0  0  0  0  0  0  0  0  0  0  0  0
    7.9849  -11.5420   26.9351 C   0  0  0  0  0  0  0  0  0  0  0  0
    8.3756  -12.8475   27.1757 C   0  0  0  0  0  0  0  0  0  0  0  0
    7.6256  -13.8734   26.6433 C   0  0  0  0  0  0  0  0  0  0  0  0
   10.9157  -17.1709   27.1920 C   0  0  0  0  0  0  0  0  0  0  0  0
   11.2153  -18.3927   26.6295 O   0  0  0  0  0  0  0  0  0  0  0  0
   11.4549  -16.9212   28.3052 O   0  0  0  0  0  0  0  0  0  0  0  0
  1  2  1  0
  2  3  1  0
  3  4  1  6
  5  3  1  0
  6  5  2  0
  7  5  1  0
  8 14  1  0
  8  7  1  0
  8  9  1  6
 10 11  1  0
 10  9  1  0
 11 12  1  0
 13 12  1  0
 14 15  2  0
 16 17  1  0
 16 14  1  0
 17 18  1  1
 19 18  1  0
 20 19  2  0
 21 20  1  0
 22 21  1  0
 22 27  2  0
 23 22  1  0
 24 23  2  0
 24 25  1  0
 25 26  2  0
 26 27  1  0
 27 19  1  0
 28 29  1  0
 28 17  1  0
 30 28  2  0
M  END
$$$$
