SKW.pdb
     RDKit          3D

 30 31  0  0  1  0  0  0  0  0999 V2000
    9.8096  -12.5234   17.6582 O   0  0  0  0  0  0  0  0  0  0  0  0
    9.5101  -13.1011   18.8731 C   0  0  0  0  0  0  0  0  0  0  0  0
    8.2438  -13.9213   18.8364 C   0  0  2  0  0  0  0  0  0  0  0  0
    7.0782  -13.1114   18.5683 N   0  0  0  0  0  0  0  0  0  0  0  0
    8.0608  -14.7283   20.0685 C   0  0  0  0  0  0  0  0  0  0  0  0
    7.5318  -14.2034   21.1065 O   0  0  0  0  0  0  0  0  0  0  0  0
    8.4675  -16.0880   20.1150 N   0  0  0  0  0  0  0  0  0  0  0  0
    8.3229  -16.9352   21.2638 C   0  0  1  0  0  0  0  0  0  0  0  0
    8.2949  -18.3996   20.9542 C   0  0  0  0  0  0  0  0  0  0  0  0
    7.1542  -18.7950   20.0598 C   0  0  0  0  0  0  0  0  0  0  0  0
    7.3274  -20.2407   19.6505 C   0  0  0  0  0  0  0  0  0  0  0  0
    6.1453  -20.5972   18.7706 C   0  0  0  0  0  0  0  0  0  0  0  0
    6.2300  -21.9601   18.2877 N   0  0  0  0  0  0  0  0  0  0  0  0
    9.3091  -16.6072   22.3370 C   0  0  0  0  0  0  0  0  0  0  0  0
   10.5163  -16.4801   22.0105 O   0  0  0  0  0  0  0  0  0  0  0  0
    8.9491  -16.4373   23.6813 N   0  0  0  0  0  0  0  0  0  0  0  0
    9.9664  -16.2718   24.7125 C   0  0  1  0  0  0  0  0  0  0  0  0
    9.8855  -14.9211   25.3616 C   0  0  0  0  0  0  0  0  0  0  0  0
    8.4634  -14.5507   25.5859 C   0  0  0  0  0  0  0  0  0  0  0  0
    7.3416  -15.3499   25.5125 C   0  0  0  0  0  0  0  0  0  0  0  0
    6.2406  -14.6308   25.7893 N   0  0  0  0  0  0  0  0  0  0  0  0
    6.6481  -13.3552   26.0446 C   0  0  0  0  0  0  0  0  0  0  0  0
    5.9143  -12.2223   26.3784 C   0  0  0  0  0  0  0  0  0  0  0  0
    6.5400  -11.0162   26.5932 C   0  0  0  0  0  0  0  0  0  0  0  0
    7.9138  -10.9708   26.4665 C   0  0  0  0  0  0  0  0  0  0  0  0
    8.6626  -12.0864   26.1354 C   0  0  0  0  0  0  0  0  0  0  0  0
    8.0129  -13.2831   25.9250 C   0  0  0  0  0  0  0  0  0  0  0  0
    9.6615  -17.2902   25.7728 C   0  0  0  0  0  0  0  0  0  0  0  0
    8.5695  -18.1249   25.6732 O   0  0  0  0  0  0  0  0  0  0  0  0
   10.3817  -17.4328   26.7990 O   0  0  0  0  0  0  0  0  0  0  0  0
  1  2  1  0
  2  3  1  0
  3  4  1  1
  5  3  1  0
  6  5  2  0
  7  5  1  0
  8 14  1  0
  8  7  1  0
  8  9  1  6
 10 11  1  0
 10  9  1  0
 11 12  1  0
 13 12  1  0
 14 15  2  0
 16 17  1  0
 16 14  1  0
 17 18  1  1
 19 18  1  0
 20 19  2  0
 21 20  1  0
 22 21  1  0
 22 27  2  0
 23 22  1  0
 24 23  2  0
 24 25  1  0
 25 26  2  0
 26 27  1  0
 27 19  1  0
 28 29  1  0
 28 17  1  0
 30 28  2  0
M  END
$$$$
