SKW.pdb
     RDKit          3D

 30 31  0  0  1  0  0  0  0  0999 V2000
    5.5888  -19.0535   24.1044 O   0  0  0  0  0  0  0  0  0  0  0  0
    4.8731  -18.3520   23.1583 C   0  0  0  0  0  0  0  0  0  0  0  0
    5.4548  -18.4768   21.7713 C   0  0  2  0  0  0  0  0  0  0  0  0
    5.5140  -19.8500   21.3273 N   0  0  0  0  0  0  0  0  0  0  0  0
    6.7816  -17.8215   21.6572 C   0  0  0  0  0  0  0  0  0  0  0  0
    7.8502  -18.5165   21.7472 O   0  0  0  0  0  0  0  0  0  0  0  0
    6.8860  -16.4210   21.4475 N   0  0  0  0  0  0  0  0  0  0  0  0
    8.1140  -15.6827   21.5220 C   0  0  1  0  0  0  0  0  0  0  0  0
    8.1399  -14.4379   20.6909 C   0  0  0  0  0  0  0  0  0  0  0  0
    7.9998  -14.7044   19.2189 C   0  0  0  0  0  0  0  0  0  0  0  0
    8.0937  -13.3938   18.4698 C   0  0  0  0  0  0  0  0  0  0  0  0
    8.0065  -13.7204   16.9918 C   0  0  0  0  0  0  0  0  0  0  0  0
    8.0821  -12.5267   16.1750 N   0  0  0  0  0  0  0  0  0  0  0  0
    8.5352  -15.4251   22.9320 C   0  0  0  0  0  0  0  0  0  0  0  0
    7.8311  -14.6486   23.6258 O   0  0  0  0  0  0  0  0  0  0  0  0
    9.6727  -16.0068   23.5094 N   0  0  0  0  0  0  0  0  0  0  0  0
   10.1513  -15.5747   24.8170 C   0  0  1  0  0  0  0  0  0  0  0  0
    9.3173  -16.1401   25.9291 C   0  0  0  0  0  0  0  0  0  0  0  0
    8.0150  -15.4267   25.9994 C   0  0  0  0  0  0  0  0  0  0  0  0
    6.7443  -15.9300   25.8143 C   0  0  0  0  0  0  0  0  0  0  0  0
    5.8321  -14.9552   25.9680 N   0  0  0  0  0  0  0  0  0  0  0  0
    6.5133  -13.8097   26.2550 C   0  0  0  0  0  0  0  0  0  0  0  0
    6.0513  -12.5216   26.5009 C   0  0  0  0  0  0  0  0  0  0  0  0
    6.9297  -11.4982   26.7712 C   0  0  0  0  0  0  0  0  0  0  0  0
    8.2781  -11.7935   26.7898 C   0  0  0  0  0  0  0  0  0  0  0  0
    8.7586  -13.0685   26.5480 C   0  0  0  0  0  0  0  0  0  0  0  0
    7.8588  -14.0769   26.2795 C   0  0  0  0  0  0  0  0  0  0  0  0
   11.5331  -16.1422   24.9688 C   0  0  0  0  0  0  0  0  0  0  0  0
   12.2586  -15.9647   26.1268 O   0  0  0  0  0  0  0  0  0  0  0  0
   12.0954  -16.8040   24.0533 O   0  0  0  0  0  0  0  0  0  0  0  0
  1  2  1  0
  2  3  1  0
  3  4  1  1
  5  3  1  0
  6  5  2  0
  7  5  1  0
  8 14  1  0
  8  7  1  0
  8  9  1  6
 10 11  1  0
 10  9  1  0
 11 12  1  0
 13 12  1  0
 14 15  2  0
 16 17  1  0
 16 14  1  0
 17 18  1  1
 19 18  1  0
 20 19  2  0
 21 20  1  0
 22 21  1  0
 22 27  2  0
 23 22  1  0
 24 23  2  0
 24 25  1  0
 25 26  2  0
 26 27  1  0
 27 19  1  0
 28 29  1  0
 28 17  1  0
 30 28  2  0
M  END
$$$$
