SKW.pdb
     RDKit          3D

 30 31  0  0  1  0  0  0  0  0999 V2000
   10.3061  -13.5860   19.2977 O   0  0  0  0  0  0  0  0  0  0  0  0
    9.4000  -14.1562   18.4298 C   0  0  0  0  0  0  0  0  0  0  0  0
    7.9771  -14.0661   18.9247 C   0  0  2  0  0  0  0  0  0  0  0  0
    7.4919  -12.7057   18.9422 N   0  0  0  0  0  0  0  0  0  0  0  0
    7.8006  -14.7125   20.2490 C   0  0  0  0  0  0  0  0  0  0  0  0
    7.6950  -13.9975   21.3029 O   0  0  0  0  0  0  0  0  0  0  0  0
    7.7463  -16.1265   20.3672 N   0  0  0  0  0  0  0  0  0  0  0  0
    7.6208  -16.8284   21.6122 C   0  0  1  0  0  0  0  0  0  0  0  0
    7.2889  -18.2816   21.4735 C   0  0  0  0  0  0  0  0  0  0  0  0
    7.2061  -18.9995   22.7907 C   0  0  0  0  0  0  0  0  0  0  0  0
    6.9902  -20.4745   22.5352 C   0  0  0  0  0  0  0  0  0  0  0  0
    6.8798  -21.1478   23.8892 C   0  0  0  0  0  0  0  0  0  0  0  0
    6.6162  -22.5662   23.7612 N   0  0  0  0  0  0  0  0  0  0  0  0
    8.7938  -16.6038   22.5098 C   0  0  0  0  0  0  0  0  0  0  0  0
    9.9440  -16.6853   22.0093 O   0  0  0  0  0  0  0  0  0  0  0  0
    8.6678  -16.3093   23.8747 N   0  0  0  0  0  0  0  0  0  0  0  0
    9.8452  -16.0596   24.6974 C   0  0  1  0  0  0  0  0  0  0  0  0
    9.6558  -14.8702   25.5927 C   0  0  0  0  0  0  0  0  0  0  0  0
    8.2068  -14.6452   25.8371 C   0  0  0  0  0  0  0  0  0  0  0  0
    7.1780  -15.5639   25.8320 C   0  0  0  0  0  0  0  0  0  0  0  0
    6.0111  -14.9552   26.1036 N   0  0  0  0  0  0  0  0  0  0  0  0
    6.2818  -13.6318   26.2867 C   0  0  0  0  0  0  0  0  0  0  0  0
    5.4357  -12.5697   26.5857 C   0  0  0  0  0  0  0  0  0  0  0  0
    5.9300  -11.2937   26.7258 C   0  0  0  0  0  0  0  0  0  0  0  0
    7.2876  -11.1061   26.5604 C   0  0  0  0  0  0  0  0  0  0  0  0
    8.1468  -12.1493   26.2629 C   0  0  0  0  0  0  0  0  0  0  0  0
    7.6276  -13.4184   26.1274 C   0  0  0  0  0  0  0  0  0  0  0  0
   10.0015  -17.2603   25.5852 C   0  0  0  0  0  0  0  0  0  0  0  0
   11.1363  -17.4489   26.3439 O   0  0  0  0  0  0  0  0  0  0  0  0
    9.1112  -18.1493   25.6813 O   0  0  0  0  0  0  0  0  0  0  0  0
  1  2  1  0
  2  3  1  0
  3  4  1  1
  5  3  1  0
  6  5  2  0
  7  5  1  0
  8 14  1  0
  8  7  1  0
  8  9  1  6
 10 11  1  0
 10  9  1  0
 11 12  1  0
 13 12  1  0
 14 15  2  0
 16 17  1  0
 16 14  1  0
 17 18  1  1
 19 18  1  0
 20 19  2  0
 21 20  1  0
 22 21  1  0
 22 27  2  0
 23 22  1  0
 24 23  2  0
 24 25  1  0
 25 26  2  0
 26 27  1  0
 27 19  1  0
 28 29  1  0
 28 17  1  0
 30 28  2  0
M  END
$$$$
