SKW.pdb
     RDKit          3D

 30 31  0  0  1  0  0  0  0  0999 V2000
    9.9774  -13.2295   18.0074 O   0  0  0  0  0  0  0  0  0  0  0  0
    9.0855  -14.2433   18.2834 C   0  0  0  0  0  0  0  0  0  0  0  0
    7.9105  -13.7819   19.1104 C   0  0  2  0  0  0  0  0  0  0  0  0
    7.9250  -12.3540   19.3279 N   0  0  0  0  0  0  0  0  0  0  0  0
    7.8048  -14.5163   20.3959 C   0  0  0  0  0  0  0  0  0  0  0  0
    7.7609  -13.8741   21.4998 O   0  0  0  0  0  0  0  0  0  0  0  0
    7.7511  -15.9350   20.4213 N   0  0  0  0  0  0  0  0  0  0  0  0
    7.6095  -16.7163   21.6163 C   0  0  1  0  0  0  0  0  0  0  0  0
    7.2912  -18.1597   21.3786 C   0  0  0  0  0  0  0  0  0  0  0  0
    7.1414  -18.9507   22.6472 C   0  0  0  0  0  0  0  0  0  0  0  0
    6.8973  -20.4017   22.2972 C   0  0  0  0  0  0  0  0  0  0  0  0
    6.7528  -21.1553   23.6048 C   0  0  0  0  0  0  0  0  0  0  0  0
    6.5911  -22.5781   23.3871 N   0  0  0  0  0  0  0  0  0  0  0  0
    8.7651  -16.5422   22.5470 C   0  0  0  0  0  0  0  0  0  0  0  0
    9.9165  -16.4598   22.0494 O   0  0  0  0  0  0  0  0  0  0  0  0
    8.6217  -16.4682   23.9397 N   0  0  0  0  0  0  0  0  0  0  0  0
    9.7598  -16.1468   24.7924 C   0  0  1  0  0  0  0  0  0  0  0  0
    9.3227  -15.6614   26.1434 C   0  0  0  0  0  0  0  0  0  0  0  0
    7.9570  -15.0808   26.0562 C   0  0  0  0  0  0  0  0  0  0  0  0
    6.7483  -15.7333   25.9315 C   0  0  0  0  0  0  0  0  0  0  0  0
    5.7424  -14.8430   25.8899 N   0  0  0  0  0  0  0  0  0  0  0  0
    6.2998  -13.6028   25.9882 C   0  0  0  0  0  0  0  0  0  0  0  0
    5.7083  -12.3446   25.9933 C   0  0  0  0  0  0  0  0  0  0  0  0
    6.4741  -11.2070   26.1012 C   0  0  0  0  0  0  0  0  0  0  0  0
    7.8424  -11.3580   26.2038 C   0  0  0  0  0  0  0  0  0  0  0  0
    8.4509  -12.6009   26.2008 C   0  0  0  0  0  0  0  0  0  0  0  0
    7.6624  -13.7255   26.0915 C   0  0  0  0  0  0  0  0  0  0  0  0
   10.5038  -17.4336   25.0049 C   0  0  0  0  0  0  0  0  0  0  0  0
   10.0193  -18.6305   24.5238 O   0  0  0  0  0  0  0  0  0  0  0  0
   11.5996  -17.4847   25.6285 O   0  0  0  0  0  0  0  0  0  0  0  0
  1  2  1  0
  2  3  1  0
  3  4  1  1
  5  3  1  0
  6  5  2  0
  7  5  1  0
  8 14  1  0
  8  7  1  0
  8  9  1  6
 10 11  1  0
 10  9  1  0
 11 12  1  0
 13 12  1  0
 14 15  2  0
 16 17  1  0
 16 14  1  0
 17 18  1  1
 19 18  1  0
 20 19  2  0
 21 20  1  0
 22 21  1  0
 22 27  2  0
 23 22  1  0
 24 23  2  0
 24 25  1  0
 25 26  2  0
 26 27  1  0
 27 19  1  0
 28 29  1  0
 28 17  1  0
 30 28  2  0
M  END
$$$$
