SKW.pdb
     RDKit          3D

 30 31  0  0  1  0  0  0  0  0999 V2000
    6.4729  -18.7444   24.4363 O   0  0  0  0  0  0  0  0  0  0  0  0
    5.8404  -19.6751   23.6405 C   0  0  0  0  0  0  0  0  0  0  0  0
    6.0377  -19.4176   22.1666 C   0  0  2  0  0  0  0  0  0  0  0  0
    6.4440  -20.6075   21.4556 N   0  0  0  0  0  0  0  0  0  0  0  0
    6.9776  -18.2973   21.9126 C   0  0  0  0  0  0  0  0  0  0  0  0
    8.2377  -18.5086   21.8951 O   0  0  0  0  0  0  0  0  0  0  0  0
    6.4963  -16.9807   21.6863 N   0  0  0  0  0  0  0  0  0  0  0  0
    7.3383  -15.8327   21.5087 C   0  0  1  0  0  0  0  0  0  0  0  0
    6.6794  -14.6829   20.8123 C   0  0  0  0  0  0  0  0  0  0  0  0
    7.6555  -13.6638   20.2963 C   0  0  0  0  0  0  0  0  0  0  0  0
    7.4236  -13.4655   18.8149 C   0  0  0  0  0  0  0  0  0  0  0  0
    8.4193  -12.4229   18.3457 C   0  0  0  0  0  0  0  0  0  0  0  0
    8.2406  -12.1054   16.9439 N   0  0  0  0  0  0  0  0  0  0  0  0
    8.0003  -15.4137   22.7807 C   0  0  0  0  0  0  0  0  0  0  0  0
    7.7468  -14.2667   23.2280 O   0  0  0  0  0  0  0  0  0  0  0  0
    8.8852  -16.2376   23.4904 N   0  0  0  0  0  0  0  0  0  0  0  0
    9.8023  -15.6766   24.4752 C   0  0  1  0  0  0  0  0  0  0  0  0
    9.3000  -15.8694   25.8760 C   0  0  0  0  0  0  0  0  0  0  0  0
    8.0103  -15.1521   26.0554 C   0  0  0  0  0  0  0  0  0  0  0  0
    6.7296  -15.6641   26.0466 C   0  0  0  0  0  0  0  0  0  0  0  0
    5.8355  -14.6815   26.2490 N   0  0  0  0  0  0  0  0  0  0  0  0
    6.5385  -13.5221   26.3905 C   0  0  0  0  0  0  0  0  0  0  0  0
    6.1004  -12.2218   26.6149 C   0  0  0  0  0  0  0  0  0  0  0  0
    6.9982  -11.1853   26.7240 C   0  0  0  0  0  0  0  0  0  0  0  0
    8.3414  -11.4801   26.6039 C   0  0  0  0  0  0  0  0  0  0  0  0
    8.7983  -12.7672   26.3807 C   0  0  0  0  0  0  0  0  0  0  0  0
    7.8794  -13.7884   26.2750 C   0  0  0  0  0  0  0  0  0  0  0  0
   11.0801  -16.4555   24.3531 C   0  0  0  0  0  0  0  0  0  0  0  0
   12.2184  -16.0777   25.0316 O   0  0  0  0  0  0  0  0  0  0  0  0
   11.1765  -17.4854   23.6304 O   0  0  0  0  0  0  0  0  0  0  0  0
  1  2  1  0
  2  3  1  0
  3  4  1  6
  5  3  1  0
  6  5  2  0
  7  5  1  0
  8 14  1  0
  8  7  1  0
  8  9  1  1
 10 11  1  0
 10  9  1  0
 11 12  1  0
 13 12  1  0
 14 15  2  0
 16 17  1  0
 16 14  1  0
 17 18  1  1
 19 18  1  0
 20 19  2  0
 21 20  1  0
 22 21  1  0
 22 27  2  0
 23 22  1  0
 24 23  2  0
 24 25  1  0
 25 26  2  0
 26 27  1  0
 27 19  1  0
 28 29  1  0
 28 17  1  0
 30 28  2  0
M  END
$$$$
