SKW.pdb
     RDKit          3D

 30 31  0  0  1  0  0  0  0  0999 V2000
   10.1631  -13.6187   18.8308 O   0  0  0  0  0  0  0  0  0  0  0  0
    9.1625  -14.2726   18.1446 C   0  0  0  0  0  0  0  0  0  0  0  0
    7.7995  -14.0682   18.7592 C   0  0  2  0  0  0  0  0  0  0  0  0
    7.4579  -12.6693   18.8733 N   0  0  0  0  0  0  0  0  0  0  0  0
    7.6626  -14.7591   20.0657 C   0  0  0  0  0  0  0  0  0  0  0  0
    7.6533  -14.0838   21.1506 O   0  0  0  0  0  0  0  0  0  0  0  0
    7.5404  -16.1721   20.1324 N   0  0  0  0  0  0  0  0  0  0  0  0
    7.4473  -16.9177   21.3546 C   0  0  1  0  0  0  0  0  0  0  0  0
    7.1423  -18.3719   21.1716 C   0  0  0  0  0  0  0  0  0  0  0  0
    6.9894  -19.1137   22.4692 C   0  0  0  0  0  0  0  0  0  0  0  0
    6.7963  -20.5849   22.1758 C   0  0  0  0  0  0  0  0  0  0  0  0
    6.6843  -21.2927   23.5119 C   0  0  0  0  0  0  0  0  0  0  0  0
    7.9762  -21.4362   24.1510 N   0  0  0  0  0  0  0  0  0  0  0  0
    8.6287  -16.6994   22.2425 C   0  0  0  0  0  0  0  0  0  0  0  0
    9.7737  -16.7616   21.7274 O   0  0  0  0  0  0  0  0  0  0  0  0
    8.5162  -16.4311   23.6140 N   0  0  0  0  0  0  0  0  0  0  0  0
    9.6953  -16.1252   24.4152 C   0  0  1  0  0  0  0  0  0  0  0  0
    9.6159  -14.7543   25.0203 C   0  0  0  0  0  0  0  0  0  0  0  0
    8.2159  -14.4582   25.4232 C   0  0  0  0  0  0  0  0  0  0  0  0
    7.1480  -15.3241   25.5329 C   0  0  0  0  0  0  0  0  0  0  0  0
    6.0503  -14.6591   25.9312 N   0  0  0  0  0  0  0  0  0  0  0  0
    6.4057  -13.3516   26.0818 C   0  0  0  0  0  0  0  0  0  0  0  0
    5.6522  -12.2499   26.4713 C   0  0  0  0  0  0  0  0  0  0  0  0
    6.2224  -11.0009   26.5545 C   0  0  0  0  0  0  0  0  0  0  0  0
    7.5611  -10.8807   26.2398 C   0  0  0  0  0  0  0  0  0  0  0  0
    8.3287  -11.9642   25.8503 C   0  0  0  0  0  0  0  0  0  0  0  0
    7.7347  -13.2051   25.7744 C   0  0  0  0  0  0  0  0  0  0  0  0
    9.7010  -17.1090   25.5495 C   0  0  0  0  0  0  0  0  0  0  0  0
    8.6630  -17.9961   25.7352 O   0  0  0  0  0  0  0  0  0  0  0  0
   10.6466  -17.1734   26.3824 O   0  0  0  0  0  0  0  0  0  0  0  0
  1  2  1  0
  2  3  1  0
  3  4  1  1
  5  3  1  0
  6  5  2  0
  7  5  1  0
  8 14  1  0
  8  7  1  0
  8  9  1  6
 10 11  1  0
 10  9  1  0
 11 12  1  0
 13 12  1  0
 14 15  2  0
 16 17  1  0
 16 14  1  0
 17 18  1  1
 19 18  1  0
 20 19  2  0
 21 20  1  0
 22 21  1  0
 22 27  2  0
 23 22  1  0
 24 23  2  0
 24 25  1  0
 25 26  2  0
 26 27  1  0
 27 19  1  0
 28 29  1  0
 28 17  1  0
 30 28  2  0
M  END
$$$$
