SKW.pdb
     RDKit          3D

 30 31  0  0  1  0  0  0  0  0999 V2000
   10.5777  -13.5766   18.3587 O   0  0  0  0  0  0  0  0  0  0  0  0
    9.6285  -14.1924   17.5716 C   0  0  0  0  0  0  0  0  0  0  0  0
    8.2325  -14.0689   18.1314 C   0  0  2  0  0  0  0  0  0  0  0  0
    7.7683  -12.7011   18.1400 N   0  0  0  0  0  0  0  0  0  0  0  0
    8.1102  -14.6822   19.4775 C   0  0  0  0  0  0  0  0  0  0  0  0
    8.1714  -13.9509   20.5236 O   0  0  0  0  0  0  0  0  0  0  0  0
    7.9246  -16.0822   19.6252 N   0  0  0  0  0  0  0  0  0  0  0  0
    7.7443  -16.7443   20.8852 C   0  0  1  0  0  0  0  0  0  0  0  0
    7.4470  -18.2077   20.7793 C   0  0  0  0  0  0  0  0  0  0  0  0
    8.6391  -19.0771   21.0626 C   0  0  0  0  0  0  0  0  0  0  0  0
    8.3095  -20.5038   20.6836 C   0  0  0  0  0  0  0  0  0  0  0  0
    9.5004  -21.3544   21.0798 C   0  0  0  0  0  0  0  0  0  0  0  0
    9.2579  -22.7612   20.8348 N   0  0  0  0  0  0  0  0  0  0  0  0
    8.8624  -16.4661   21.8362 C   0  0  0  0  0  0  0  0  0  0  0  0
   10.0339  -16.4480   21.3808 O   0  0  0  0  0  0  0  0  0  0  0  0
    8.6629  -16.2271   23.2032 N   0  0  0  0  0  0  0  0  0  0  0  0
    9.7821  -15.8893   24.0743 C   0  0  1  0  0  0  0  0  0  0  0  0
    9.5631  -14.5830   24.7797 C   0  0  0  0  0  0  0  0  0  0  0  0
    8.1821  -14.5275   25.3269 C   0  0  0  0  0  0  0  0  0  0  0  0
    7.2478  -15.5383   25.4157 C   0  0  0  0  0  0  0  0  0  0  0  0
    6.1180  -15.0778   25.9790 N   0  0  0  0  0  0  0  0  0  0  0  0
    6.3179  -13.7587   26.2590 C   0  0  0  0  0  0  0  0  0  0  0  0
    5.4718  -12.8202   26.8392 C   0  0  0  0  0  0  0  0  0  0  0  0
    5.8847  -11.5217   27.0281 C   0  0  0  0  0  0  0  0  0  0  0  0
    7.1610  -11.1855   26.6238 C   0  0  0  0  0  0  0  0  0  0  0  0
    8.0187  -12.1041   26.0445 C   0  0  0  0  0  0  0  0  0  0  0  0
    7.5820  -13.3986   25.8658 C   0  0  0  0  0  0  0  0  0  0  0  0
    9.8332  -16.9573   25.1284 C   0  0  0  0  0  0  0  0  0  0  0  0
   10.9145  -17.0801   25.9737 O   0  0  0  0  0  0  0  0  0  0  0  0
    8.8985  -17.7888   25.2928 O   0  0  0  0  0  0  0  0  0  0  0  0
  1  2  1  0
  2  3  1  0
  3  4  1  1
  5  3  1  0
  6  5  2  0
  7  5  1  0
  8 14  1  0
  8  7  1  0
  8  9  1  6
 10 11  1  0
 10  9  1  0
 11 12  1  0
 13 12  1  0
 14 15  2  0
 16 17  1  0
 16 14  1  0
 17 18  1  1
 19 18  1  0
 20 19  2  0
 21 20  1  0
 22 21  1  0
 22 27  2  0
 23 22  1  0
 24 23  2  0
 24 25  1  0
 25 26  2  0
 26 27  1  0
 27 19  1  0
 28 29  1  0
 28 17  1  0
 30 28  2  0
M  END
$$$$
