SKW.pdb
     RDKit          3D

 30 31  0  0  1  0  0  0  0  0999 V2000
   11.2100  -21.7775   20.1136 O   0  0  0  0  0  0  0  0  0  0  0  0
   11.5360  -20.4631   20.3700 C   0  0  0  0  0  0  0  0  0  0  0  0
   10.8704  -19.9254   21.6131 C   0  0  2  0  0  0  0  0  0  0  0  0
    9.5298  -20.4375   21.7777 N   0  0  0  0  0  0  0  0  0  0  0  0
   10.8845  -18.4420   21.6614 C   0  0  0  0  0  0  0  0  0  0  0  0
   11.9875  -17.8069   21.5479 O   0  0  0  0  0  0  0  0  0  0  0  0
    9.6812  -17.7080   21.8334 N   0  0  0  0  0  0  0  0  0  0  0  0
    9.6145  -16.2781   21.9307 C   0  0  1  0  0  0  0  0  0  0  0  0
    8.5791  -15.6451   21.0542 C   0  0  0  0  0  0  0  0  0  0  0  0
    8.8369  -14.1890   20.7884 C   0  0  0  0  0  0  0  0  0  0  0  0
    7.8119  -13.6797   19.7996 C   0  0  0  0  0  0  0  0  0  0  0  0
    8.2121  -12.2634   19.4356 C   0  0  0  0  0  0  0  0  0  0  0  0
    7.2399  -11.6410   18.5608 N   0  0  0  0  0  0  0  0  0  0  0  0
    9.5134  -15.8109   23.3462 C   0  0  0  0  0  0  0  0  0  0  0  0
    8.5161  -15.1173   23.6689 O   0  0  0  0  0  0  0  0  0  0  0  0
   10.4754  -16.1097   24.3213 N   0  0  0  0  0  0  0  0  0  0  0  0
   10.3248  -15.6329   25.6908 C   0  0  1  0  0  0  0  0  0  0  0  0
    9.2008  -16.3284   26.4013 C   0  0  0  0  0  0  0  0  0  0  0  0
    7.9156  -15.6387   26.1142 C   0  0  0  0  0  0  0  0  0  0  0  0
    6.7760  -16.1469   25.5263 C   0  0  0  0  0  0  0  0  0  0  0  0
    5.8293  -15.1961   25.4508 N   0  0  0  0  0  0  0  0  0  0  0  0
    6.3557  -14.0616   25.9930 C   0  0  0  0  0  0  0  0  0  0  0  0
    5.8003  -12.7977   26.1586 C   0  0  0  0  0  0  0  0  0  0  0  0
    6.5237  -11.7811   26.7377 C   0  0  0  0  0  0  0  0  0  0  0  0
    7.8128  -12.0585   27.1464 C   0  0  0  0  0  0  0  0  0  0  0  0
    8.3842  -13.3093   26.9910 C   0  0  0  0  0  0  0  0  0  0  0  0
    7.6394  -14.3112   26.4080 C   0  0  0  0  0  0  0  0  0  0  0  0
   11.5931  -15.9988   26.4064 C   0  0  0  0  0  0  0  0  0  0  0  0
   11.8166  -15.6165   27.7113 O   0  0  0  0  0  0  0  0  0  0  0  0
   12.5101  -16.6680   25.8556 O   0  0  0  0  0  0  0  0  0  0  0  0
  1  2  1  0
  2  3  1  0
  3  4  1  6
  5  3  1  0
  6  5  2  0
  7  5  1  0
  8 14  1  0
  8  7  1  0
  8  9  1  6
 10 11  1  0
 10  9  1  0
 11 12  1  0
 13 12  1  0
 14 15  2  0
 16 17  1  0
 16 14  1  0
 17 18  1  1
 19 18  1  0
 20 19  2  0
 21 20  1  0
 22 21  1  0
 22 27  2  0
 23 22  1  0
 24 23  2  0
 24 25  1  0
 25 26  2  0
 26 27  1  0
 27 19  1  0
 28 29  1  0
 28 17  1  0
 30 28  2  0
M  END
$$$$
