SKW.pdb
     RDKit          3D

 30 31  0  0  1  0  0  0  0  0999 V2000
   10.7423  -13.5769   18.7370 O   0  0  0  0  0  0  0  0  0  0  0  0
    9.7768  -14.2046   17.9798 C   0  0  0  0  0  0  0  0  0  0  0  0
    8.3792  -13.9661   18.4965 C   0  0  2  0  0  0  0  0  0  0  0  0
    8.0060  -12.5721   18.4338 N   0  0  0  0  0  0  0  0  0  0  0  0
    8.1851  -14.5093   19.8641 C   0  0  0  0  0  0  0  0  0  0  0  0
    8.2507  -13.7338   20.8776 O   0  0  0  0  0  0  0  0  0  0  0  0
    7.9250  -15.8901   20.0685 N   0  0  0  0  0  0  0  0  0  0  0  0
    7.6379  -16.4772   21.3458 C   0  0  1  0  0  0  0  0  0  0  0  0
    7.0853  -17.8669   21.2789 C   0  0  0  0  0  0  0  0  0  0  0  0
    6.8467  -18.4761   22.6314 C   0  0  0  0  0  0  0  0  0  0  0  0
    6.1860  -19.8251   22.4545 C   0  0  0  0  0  0  0  0  0  0  0  0
    5.7861  -20.3077   23.8350 C   0  0  0  0  0  0  0  0  0  0  0  0
    5.0236  -21.5375   23.7715 N   0  0  0  0  0  0  0  0  0  0  0  0
    8.7934  -16.3773   22.2875 C   0  0  0  0  0  0  0  0  0  0  0  0
    9.9224  -16.7486   21.8779 O   0  0  0  0  0  0  0  0  0  0  0  0
    8.6735  -15.8923   23.5975 N   0  0  0  0  0  0  0  0  0  0  0  0
    9.8439  -15.7644   24.4574 C   0  0  1  0  0  0  0  0  0  0  0  0
    9.6540  -14.7023   25.5004 C   0  0  0  0  0  0  0  0  0  0  0  0
    8.2183  -14.6099   25.8745 C   0  0  0  0  0  0  0  0  0  0  0  0
    7.2970  -15.6262   26.0188 C   0  0  0  0  0  0  0  0  0  0  0  0
    6.1021  -15.1227   26.3720 N   0  0  0  0  0  0  0  0  0  0  0  0
    6.2463  -13.7699   26.4582 C   0  0  0  0  0  0  0  0  0  0  0  0
    5.3233  -12.7821   26.7833 C   0  0  0  0  0  0  0  0  0  0  0  0
    5.6899  -11.4565   26.8072 C   0  0  0  0  0  0  0  0  0  0  0  0
    6.9986  -11.1435   26.4992 C   0  0  0  0  0  0  0  0  0  0  0  0
    7.9326  -12.1111   26.1733 C   0  0  0  0  0  0  0  0  0  0  0  0
    7.5412  -13.4321   26.1560 C   0  0  0  0  0  0  0  0  0  0  0  0
    9.9813  -17.0734   25.1799 C   0  0  0  0  0  0  0  0  0  0  0  0
   11.0989  -17.3642   25.9318 O   0  0  0  0  0  0  0  0  0  0  0  0
    9.0899  -17.9654   25.1362 O   0  0  0  0  0  0  0  0  0  0  0  0
  1  2  1  0
  2  3  1  0
  3  4  1  1
  5  3  1  0
  6  5  2  0
  7  5  1  0
  8 14  1  0
  8  7  1  0
  8  9  1  6
 10 11  1  0
 10  9  1  0
 11 12  1  0
 13 12  1  0
 14 15  2  0
 16 17  1  0
 16 14  1  0
 17 18  1  1
 19 18  1  0
 20 19  2  0
 21 20  1  0
 22 21  1  0
 22 27  2  0
 23 22  1  0
 24 23  2  0
 24 25  1  0
 25 26  2  0
 26 27  1  0
 27 19  1  0
 28 29  1  0
 28 17  1  0
 30 28  2  0
M  END
$$$$
