SKW.pdb
     RDKit          3D

 30 31  0  0  1  0  0  0  0  0999 V2000
    7.3761  -19.3288   23.8936 O   0  0  0  0  0  0  0  0  0  0  0  0
    7.3751  -20.0664   22.7293 C   0  0  0  0  0  0  0  0  0  0  0  0
    7.2342  -19.2117   21.4936 C   0  0  2  0  0  0  0  0  0  0  0  0
    7.3219  -19.9902   20.2801 N   0  0  0  0  0  0  0  0  0  0  0  0
    8.2007  -18.0854   21.4759 C   0  0  0  0  0  0  0  0  0  0  0  0
    9.4303  -18.2995   21.2016 O   0  0  0  0  0  0  0  0  0  0  0  0
    7.7790  -16.7599   21.7614 N   0  0  0  0  0  0  0  0  0  0  0  0
    8.6468  -15.6174   21.7546 C   0  0  1  0  0  0  0  0  0  0  0  0
    7.9809  -14.3359   21.3603 C   0  0  0  0  0  0  0  0  0  0  0  0
    8.4961  -13.7737   20.0657 C   0  0  0  0  0  0  0  0  0  0  0  0
    7.4542  -12.8454   19.4824 C   0  0  0  0  0  0  0  0  0  0  0  0
    7.9437  -12.4376   18.1067 C   0  0  0  0  0  0  0  0  0  0  0  0
    8.0163  -13.5707   17.2073 N   0  0  0  0  0  0  0  0  0  0  0  0
    9.4146  -15.4820   23.0290 C   0  0  0  0  0  0  0  0  0  0  0  0
   10.2836  -14.5766   23.1011 O   0  0  0  0  0  0  0  0  0  0  0  0
    9.2098  -16.3147   24.1382 N   0  0  0  0  0  0  0  0  0  0  0  0
   10.0563  -16.2071   25.3203 C   0  0  1  0  0  0  0  0  0  0  0  0
    9.2446  -16.1263   26.5799 C   0  0  0  0  0  0  0  0  0  0  0  0
    7.9315  -15.4895   26.2970 C   0  0  0  0  0  0  0  0  0  0  0  0
    6.7529  -16.0833   25.8962 C   0  0  0  0  0  0  0  0  0  0  0  0
    5.7916  -15.1555   25.7513 N   0  0  0  0  0  0  0  0  0  0  0  0
    6.3479  -13.9497   26.0597 C   0  0  0  0  0  0  0  0  0  0  0  0
    5.7929  -12.6749   26.0690 C   0  0  0  0  0  0  0  0  0  0  0  0
    6.5499  -11.5800   26.4158 C   0  0  0  0  0  0  0  0  0  0  0  0
    7.8720  -11.7904   26.7524 C   0  0  0  0  0  0  0  0  0  0  0  0
    8.4436  -13.0507   26.7498 C   0  0  0  0  0  0  0  0  0  0  0  0
    7.6648  -14.1317   26.3987 C   0  0  0  0  0  0  0  0  0  0  0  0
   10.8504  -17.4796   25.3874 C   0  0  0  0  0  0  0  0  0  0  0  0
   10.6214  -18.5155   24.5081 O   0  0  0  0  0  0  0  0  0  0  0  0
   11.7588  -17.6641   26.2435 O   0  0  0  0  0  0  0  0  0  0  0  0
  1  2  1  0
  2  3  1  0
  3  4  1  6
  5  3  1  0
  6  5  2  0
  7  5  1  0
  8 14  1  0
  8  7  1  0
  8  9  1  1
 10 11  1  0
 10  9  1  0
 11 12  1  0
 13 12  1  0
 14 15  2  0
 16 17  1  0
 16 14  1  0
 17 18  1  1
 19 18  1  0
 20 19  2  0
 21 20  1  0
 22 21  1  0
 22 27  2  0
 23 22  1  0
 24 23  2  0
 24 25  1  0
 25 26  2  0
 26 27  1  0
 27 19  1  0
 28 29  1  0
 28 17  1  0
 30 28  2  0
M  END
$$$$
