SKW.pdb
     RDKit          3D

 30 31  0  0  1  0  0  0  0  0999 V2000
    7.9834  -19.5238   23.0442 O   0  0  0  0  0  0  0  0  0  0  0  0
    8.1354  -19.9967   21.7585 C   0  0  0  0  0  0  0  0  0  0  0  0
    7.7933  -18.9664   20.7103 C   0  0  2  0  0  0  0  0  0  0  0  0
    8.0003  -19.4638   19.3701 N   0  0  0  0  0  0  0  0  0  0  0  0
    8.5160  -17.6874   20.9222 C   0  0  0  0  0  0  0  0  0  0  0  0
    9.7172  -17.5530   20.5074 O   0  0  0  0  0  0  0  0  0  0  0  0
    7.8899  -16.5988   21.5848 N   0  0  0  0  0  0  0  0  0  0  0  0
    8.5084  -15.3228   21.8033 C   0  0  1  0  0  0  0  0  0  0  0  0
    7.6154  -14.1492   21.5456 C   0  0  0  0  0  0  0  0  0  0  0  0
    8.0919  -13.2776   20.4183 C   0  0  0  0  0  0  0  0  0  0  0  0
    7.4592  -13.7508   19.1285 C   0  0  0  0  0  0  0  0  0  0  0  0
    8.1047  -12.9654   18.0037 C   0  0  0  0  0  0  0  0  0  0  0  0
    7.6093  -13.3819   16.7079 N   0  0  0  0  0  0  0  0  0  0  0  0
    9.1760  -15.2380   23.1371 C   0  0  0  0  0  0  0  0  0  0  0  0
    9.8385  -14.2028   23.4007 O   0  0  0  0  0  0  0  0  0  0  0  0
    9.0967  -16.2551   24.0987 N   0  0  0  0  0  0  0  0  0  0  0  0
    9.9296  -16.2197   25.2948 C   0  0  1  0  0  0  0  0  0  0  0  0
    9.1077  -16.0594   26.5401 C   0  0  0  0  0  0  0  0  0  0  0  0
    7.8442  -15.3424   26.2249 C   0  0  0  0  0  0  0  0  0  0  0  0
    6.6465  -15.8603   25.7781 C   0  0  0  0  0  0  0  0  0  0  0  0
    5.7466  -14.8754   25.6163 N   0  0  0  0  0  0  0  0  0  0  0  0
    6.3623  -13.7087   25.9599 C   0  0  0  0  0  0  0  0  0  0  0  0
    5.8832  -12.4035   25.9702 C   0  0  0  0  0  0  0  0  0  0  0  0
    6.6915  -11.3598   26.3569 C   0  0  0  0  0  0  0  0  0  0  0  0
    7.9872  -11.6524   26.7324 C   0  0  0  0  0  0  0  0  0  0  0  0
    8.4836  -12.9442   26.7295 C   0  0  0  0  0  0  0  0  0  0  0  0
    7.6545  -13.9727   26.3379 C   0  0  0  0  0  0  0  0  0  0  0  0
   10.6029  -17.5591   25.3794 C   0  0  0  0  0  0  0  0  0  0  0  0
   11.5334  -17.8340   26.3579 O   0  0  0  0  0  0  0  0  0  0  0  0
   10.3541  -18.4923   24.5673 O   0  0  0  0  0  0  0  0  0  0  0  0
  1  2  1  0
  2  3  1  0
  3  4  1  6
  5  3  1  0
  6  5  2  0
  7  5  1  0
  8 14  1  0
  8  7  1  0
  8  9  1  1
 10 11  1  0
 10  9  1  0
 11 12  1  0
 13 12  1  0
 14 15  2  0
 16 17  1  0
 16 14  1  0
 17 18  1  1
 19 18  1  0
 20 19  2  0
 21 20  1  0
 22 21  1  0
 22 27  2  0
 23 22  1  0
 24 23  2  0
 24 25  1  0
 25 26  2  0
 26 27  1  0
 27 19  1  0
 28 29  1  0
 28 17  1  0
 30 28  2  0
M  END
$$$$
