API.pdb
     RDKit          3D

 21 21  0  0  1  0  0  0  0  0999 V2000
   19.6356  -10.2986  -19.3044 C   0  0  0  0  0  0  0  0  0  0  0  0
   20.3095  -11.2051  -18.2836 C   0  0  2  0  0  0  0  0  0  0  0  0
   19.3830  -12.2325  -17.9585 N   0  0  0  0  0  0  0  0  0  0  0  0
   20.9049  -10.4676  -17.1823 C   0  0  0  0  0  0  0  0  0  0  0  0
   20.1138  -10.0654  -16.2551 O   0  0  0  0  0  0  0  0  0  0  0  0
   22.2810  -10.1318  -17.0062 N   0  0  0  0  0  0  0  0  0  0  0  0
   23.3155  -10.6011  -17.9100 C   0  0  0  0  0  0  0  0  0  0  0  0
   24.5923  -10.5440  -17.0827 C   0  0  0  0  0  0  0  0  0  0  0  0
   24.3543   -9.2894  -16.2922 C   0  0  0  0  0  0  0  0  0  0  0  0
   22.8823   -9.3252  -15.9897 C   0  0  1  0  0  0  0  0  0  0  0  0
   22.3281   -7.9417  -15.9467 C   0  0  0  0  0  0  0  0  0  0  0  0
   21.7805   -7.5273  -16.9965 O   0  0  0  0  0  0  0  0  0  0  0  0
   18.1688   -4.5518  -15.3471 C   0  0  0  0  0  0  0  0  0  0  0  0
   19.6245   -4.5114  -15.0271 C   0  0  0  0  0  0  0  0  0  0  0  0
   20.2677   -5.8734  -14.9967 C   0  0  2  0  0  0  0  0  0  0  0  0
   19.7495   -6.6016  -13.7744 C   0  0  0  0  0  0  0  0  0  0  0  0
   21.7730   -5.7870  -14.8713 C   0  0  2  0  0  0  0  0  0  0  0  0
   22.3851   -7.0971  -14.8147 N   0  0  0  0  0  0  0  0  0  0  0  0
   22.1495   -5.0160  -13.6737 C   0  0  0  0  0  0  0  0  0  0  0  0
   22.6020   -5.6224  -12.5160 O   0  0  0  0  0  0  0  0  0  0  0  0
   22.0639   -3.7722  -13.6856 O   0  0  0  0  0  0  0  0  0  0  0  0
  2  1  1  6
  3  2  1  0
  4  2  1  0
  4  5  2  0
  6  4  1  0
  7  6  1  0
  8  9  1  0
  8  7  1  0
  9 10  1  0
 10  6  1  0
 10 11  1  6
 11 12  2  0
 14 13  1  0
 15 14  1  0
 15 16  1  1
 17 15  1  0
 18 11  1  0
 17 18  1  1
 19 17  1  0
 19 20  1  0
 21 19  2  0
M  END
$$$$
