API.pdb
     RDKit          3D

 21 21  0  0  1  0  0  0  0  0999 V2000
   24.4293  -15.9836  -15.7515 C   0  0  0  0  0  0  0  0  0  0  0  0
   24.7556  -17.2127  -16.5885 C   0  0  2  0  0  0  0  0  0  0  0  0
   23.6336  -17.4610  -17.4246 N   0  0  0  0  0  0  0  0  0  0  0  0
   25.2544  -18.3204  -15.7911 C   0  0  0  0  0  0  0  0  0  0  0  0
   24.3819  -19.1187  -15.2922 O   0  0  0  0  0  0  0  0  0  0  0  0
   26.6151  -18.6305  -15.4917 N   0  0  0  0  0  0  0  0  0  0  0  0
   27.7247  -17.9226  -16.1042 C   0  0  0  0  0  0  0  0  0  0  0  0
   28.8931  -18.8931  -16.0010 C   0  0  0  0  0  0  0  0  0  0  0  0
   28.6291  -19.5025  -14.6539 C   0  0  0  0  0  0  0  0  0  0  0  0
   27.1315  -19.6186  -14.5958 C   0  0  1  0  0  0  0  0  0  0  0  0
   26.6513  -19.4368  -13.1961 C   0  0  0  0  0  0  0  0  0  0  0  0
   26.6803  -18.2672  -12.7438 O   0  0  0  0  0  0  0  0  0  0  0  0
   22.6212  -20.9276   -8.9505 C   0  0  0  0  0  0  0  0  0  0  0  0
   23.9705  -20.3964   -9.2975 C   0  0  0  0  0  0  0  0  0  0  0  0
   24.3976  -20.7233  -10.7047 C   0  0  2  0  0  0  0  0  0  0  0  0
   24.4379  -22.2312  -10.8366 C   0  0  0  0  0  0  0  0  0  0  0  0
   25.7844  -20.2021  -11.0119 C   0  0  2  0  0  0  0  0  0  0  0  0
   26.1768  -20.4856  -12.3758 N   0  0  0  0  0  0  0  0  0  0  0  0
   26.7725  -20.7813  -10.0853 C   0  0  0  0  0  0  0  0  0  0  0  0
   26.9593  -20.2942   -8.8045 O   0  0  0  0  0  0  0  0  0  0  0  0
   27.4740  -21.7449  -10.4510 O   0  0  0  0  0  0  0  0  0  0  0  0
  2  1  1  1
  3  2  1  0
  4  2  1  0
  4  5  2  0
  6  4  1  0
  7  6  1  0
  8  9  1  0
  8  7  1  0
  9 10  1  0
 10  6  1  0
 10 11  1  1
 11 12  2  0
 14 13  1  0
 15 14  1  0
 15 16  1  1
 17 15  1  0
 18 11  1  0
 17 18  1  6
 19 17  1  0
 19 20  1  0
 21 19  2  0
M  END
$$$$
