API.pdb
     RDKit          3D

 21 21  0  0  1  0  0  0  0  0999 V2000
   24.3752  -19.3246  -12.5539 C   0  0  0  0  0  0  0  0  0  0  0  0
   24.6958  -20.8093  -12.4511 C   0  0  2  0  0  0  0  0  0  0  0  0
   23.4742  -21.5152  -12.6211 N   0  0  0  0  0  0  0  0  0  0  0  0
   25.4986  -21.1321  -11.2837 C   0  0  0  0  0  0  0  0  0  0  0  0
   24.8675  -21.4470  -10.2113 O   0  0  0  0  0  0  0  0  0  0  0  0
   26.9226  -21.1405  -11.1850 N   0  0  0  0  0  0  0  0  0  0  0  0
   27.7795  -20.7957  -12.3049 C   0  0  0  0  0  0  0  0  0  0  0  0
   29.1033  -21.4783  -11.9899 C   0  0  0  0  0  0  0  0  0  0  0  0
   29.1649  -21.2899  -10.5011 C   0  0  0  0  0  0  0  0  0  0  0  0
   27.7394  -21.4588  -10.0551 C   0  0  1  0  0  0  0  0  0  0  0  0
   27.4587  -20.5905   -8.8761 C   0  0  0  0  0  0  0  0  0  0  0  0
   26.7698  -19.5643   -9.0904 O   0  0  0  0  0  0  0  0  0  0  0  0
   27.4595  -20.2225   -2.6749 C   0  0  0  0  0  0  0  0  0  0  0  0
   27.3164  -19.6248   -4.0334 C   0  0  0  0  0  0  0  0  0  0  0  0
   27.5938  -20.6001   -5.1476 C   0  0  2  0  0  0  0  0  0  0  0  0
   28.9686  -21.1900   -4.9133 C   0  0  0  0  0  0  0  0  0  0  0  0
   27.6128  -19.9243   -6.5011 C   0  0  2  0  0  0  0  0  0  0  0  0
   27.9151  -20.8576   -7.5652 N   0  0  0  0  0  0  0  0  0  0  0  0
   28.5936  -18.8251   -6.5175 C   0  0  0  0  0  0  0  0  0  0  0  0
   29.8314  -18.9476   -7.1221 O   0  0  0  0  0  0  0  0  0  0  0  0
   28.3155  -17.7389   -5.9724 O   0  0  0  0  0  0  0  0  0  0  0  0
  2  1  1  1
  3  2  1  0
  4  2  1  0
  4  5  2  0
  6  4  1  0
  7  6  1  0
  8  9  1  0
  8  7  1  0
  9 10  1  0
 10  6  1  0
 10 11  1  1
 11 12  2  0
 14 13  1  0
 15 14  1  0
 15 16  1  1
 17 15  1  0
 18 11  1  0
 17 18  1  6
 19 17  1  0
 19 20  1  0
 21 19  2  0
M  END
$$$$
