API.pdb
     RDKit          3D

 21 21  0  0  1  0  0  0  0  0999 V2000
   24.2109  -19.4547  -12.2596 C   0  0  0  0  0  0  0  0  0  0  0  0
   24.6391  -20.9153  -12.2920 C   0  0  2  0  0  0  0  0  0  0  0  0
   23.4631  -21.6935  -12.4687 N   0  0  0  0  0  0  0  0  0  0  0  0
   25.5165  -21.2692  -11.1892 C   0  0  0  0  0  0  0  0  0  0  0  0
   24.9601  -21.7124  -10.1208 O   0  0  0  0  0  0  0  0  0  0  0  0
   26.9407  -21.1813  -11.1506 N   0  0  0  0  0  0  0  0  0  0  0  0
   27.7206  -20.7272  -12.2877 C   0  0  0  0  0  0  0  0  0  0  0  0
   29.1010  -21.3279  -12.0612 C   0  0  0  0  0  0  0  0  0  0  0  0
   29.2165  -21.2021  -10.5690 C   0  0  0  0  0  0  0  0  0  0  0  0
   27.8275  -21.4911  -10.0722 C   0  0  1  0  0  0  0  0  0  0  0  0
   27.5413  -20.6982   -8.8426 C   0  0  0  0  0  0  0  0  0  0  0  0
   26.7666  -19.7208   -8.9768 O   0  0  0  0  0  0  0  0  0  0  0  0
   28.3135  -20.4554   -2.6506 C   0  0  0  0  0  0  0  0  0  0  0  0
   27.7779  -19.9354   -3.9413 C   0  0  0  0  0  0  0  0  0  0  0  0
   28.1119  -20.8090   -5.1222 C   0  0  2  0  0  0  0  0  0  0  0  0
   29.6159  -20.9810   -5.1588 C   0  0  0  0  0  0  0  0  0  0  0  0
   27.6939  -20.1767   -6.4316 C   0  0  2  0  0  0  0  0  0  0  0  0
   28.0818  -20.9843   -7.5682 N   0  0  0  0  0  0  0  0  0  0  0  0
   28.2743  -18.8291   -6.5647 C   0  0  0  0  0  0  0  0  0  0  0  0
   27.7086  -17.7180   -5.9664 O   0  0  0  0  0  0  0  0  0  0  0  0
   29.3119  -18.6653   -7.2363 O   0  0  0  0  0  0  0  0  0  0  0  0
  2  1  1  1
  3  2  1  0
  4  2  1  0
  4  5  2  0
  6  4  1  0
  7  6  1  0
  8  9  1  0
  8  7  1  0
  9 10  1  0
 10  6  1  0
 10 11  1  1
 11 12  2  0
 14 13  1  0
 15 14  1  0
 15 16  1  6
 17 15  1  0
 18 11  1  0
 17 18  1  6
 19 17  1  0
 19 20  1  0
 21 19  2  0
M  END
$$$$
