API.pdb
     RDKit          3D

 21 21  0  0  1  0  0  0  0  0999 V2000
   28.3274  -17.9985  -15.6926 C   0  0  0  0  0  0  0  0  0  0  0  0
   28.6764  -19.4756  -15.8120 C   0  0  2  0  0  0  0  0  0  0  0  0
   28.2747  -19.8982  -17.1080 N   0  0  0  0  0  0  0  0  0  0  0  0
   28.2112  -20.2572  -14.6788 C   0  0  0  0  0  0  0  0  0  0  0  0
   27.0291  -20.7511  -14.7576 O   0  0  0  0  0  0  0  0  0  0  0  0
   28.9195  -20.5445  -13.4734 N   0  0  0  0  0  0  0  0  0  0  0  0
   30.2950  -20.1301  -13.2647 C   0  0  0  0  0  0  0  0  0  0  0  0
   30.8221  -21.0928  -12.2096 C   0  0  0  0  0  0  0  0  0  0  0  0
   29.6079  -21.2406  -11.3380 C   0  0  0  0  0  0  0  0  0  0  0  0
   28.4615  -21.2394  -12.3103 C   0  0  1  0  0  0  0  0  0  0  0  0
   27.2602  -20.6063  -11.6946 C   0  0  0  0  0  0  0  0  0  0  0  0
   27.2275  -19.3523  -11.6969 O   0  0  0  0  0  0  0  0  0  0  0  0
   22.4904  -21.1887  -13.3058 C   0  0  0  0  0  0  0  0  0  0  0  0
   23.7142  -20.6750  -12.6263 C   0  0  0  0  0  0  0  0  0  0  0  0
   23.7565  -20.9893  -11.1536 C   0  0  2  0  0  0  0  0  0  0  0  0
   22.6790  -20.1695  -10.4753 C   0  0  0  0  0  0  0  0  0  0  0  0
   25.0806  -20.6063  -10.5298 C   0  0  2  0  0  0  0  0  0  0  0  0
   26.1854  -21.3266  -11.1255 N   0  0  0  0  0  0  0  0  0  0  0  0
   25.0592  -20.8519   -9.0773 C   0  0  0  0  0  0  0  0  0  0  0  0
   24.7391  -19.8631   -8.1649 O   0  0  0  0  0  0  0  0  0  0  0  0
   25.3367  -21.9847   -8.6366 O   0  0  0  0  0  0  0  0  0  0  0  0
  2  1  1  1
  3  2  1  0
  4  2  1  0
  4  5  2  0
  6  4  1  0
  7  6  1  0
  8  9  1  0
  8  7  1  0
  9 10  1  0
 10  6  1  0
 10 11  1  1
 11 12  2  0
 14 13  1  0
 15 14  1  0
 15 16  1  1
 17 15  1  0
 18 11  1  0
 17 18  1  6
 19 17  1  0
 19 20  1  0
 21 19  2  0
M  END
$$$$
