API.pdb
     RDKit          3D

 21 21  0  0  1  0  0  0  0  0999 V2000
   26.2088  -22.6635  -18.3349 C   0  0  0  0  0  0  0  0  0  0  0  0
   27.6368  -22.4505  -17.8520 C   0  0  2  0  0  0  0  0  0  0  0  0
   28.3308  -23.6763  -18.0403 N   0  0  0  0  0  0  0  0  0  0  0  0
   27.7004  -21.8407  -16.5346 C   0  0  0  0  0  0  0  0  0  0  0  0
   27.8920  -22.6261  -15.5376 O   0  0  0  0  0  0  0  0  0  0  0  0
   27.5730  -20.4561  -16.2121 N   0  0  0  0  0  0  0  0  0  0  0  0
   27.3758  -19.4382  -17.2281 C   0  0  0  0  0  0  0  0  0  0  0  0
   27.8758  -18.1557  -16.5779 C   0  0  0  0  0  0  0  0  0  0  0  0
   27.4062  -18.3595  -15.1659 C   0  0  0  0  0  0  0  0  0  0  0  0
   27.6048  -19.8302  -14.9266 C   0  0  1  0  0  0  0  0  0  0  0  0
   26.5562  -20.3515  -14.0038 C   0  0  0  0  0  0  0  0  0  0  0  0
   25.5549  -20.8831  -14.5407 O   0  0  0  0  0  0  0  0  0  0  0  0
   24.9573  -21.1532   -8.0153 C   0  0  0  0  0  0  0  0  0  0  0  0
   24.7063  -21.2581   -9.4813 C   0  0  0  0  0  0  0  0  0  0  0  0
   25.8696  -20.7987  -10.3211 C   0  0  2  0  0  0  0  0  0  0  0  0
   26.2025  -19.3793   -9.9120 C   0  0  0  0  0  0  0  0  0  0  0  0
   25.5321  -20.7803  -11.7959 C   0  0  2  0  0  0  0  0  0  0  0  0
   26.6311  -20.2808  -12.5940 N   0  0  0  0  0  0  0  0  0  0  0  0
   24.3328  -19.9609  -12.0425 C   0  0  0  0  0  0  0  0  0  0  0  0
   23.0561  -20.4920  -12.0159 O   0  0  0  0  0  0  0  0  0  0  0  0
   24.4534  -18.7440  -12.2855 O   0  0  0  0  0  0  0  0  0  0  0  0
  2  1  1  1
  3  2  1  0
  4  2  1  0
  4  5  2  0
  6  4  1  0
  7  6  1  0
  8  9  1  0
  8  7  1  0
  9 10  1  0
 10  6  1  0
 10 11  1  1
 11 12  2  0
 14 13  1  0
 15 14  1  0
 15 16  1  1
 17 15  1  0
 18 11  1  0
 17 18  1  6
 19 17  1  0
 19 20  1  0
 21 19  2  0
M  END
$$$$
