API.pdb
     RDKit          3D

 21 21  0  0  1  0  0  0  0  0999 V2000
   28.9911  -18.5573  -14.4746 C   0  0  0  0  0  0  0  0  0  0  0  0
   27.5229  -18.7141  -14.8459 C   0  0  2  0  0  0  0  0  0  0  0  0
   27.1241  -17.5149  -15.4959 N   0  0  0  0  0  0  0  0  0  0  0  0
   26.7079  -19.1765  -13.7353 C   0  0  0  0  0  0  0  0  0  0  0  0
   26.3629  -18.3017  -12.8618 O   0  0  0  0  0  0  0  0  0  0  0  0
   26.2398  -20.5035  -13.4959 N   0  0  0  0  0  0  0  0  0  0  0  0
   26.3958  -21.5684  -14.4702 C   0  0  0  0  0  0  0  0  0  0  0  0
   25.3031  -22.5670  -14.1144 C   0  0  0  0  0  0  0  0  0  0  0  0
   25.3258  -22.4802  -12.6152 C   0  0  0  0  0  0  0  0  0  0  0  0
   25.5774  -21.0239  -12.3402 C   0  0  1  0  0  0  0  0  0  0  0  0
   26.3787  -20.8626  -11.0933 C   0  0  0  0  0  0  0  0  0  0  0  0
   27.5396  -21.3376  -11.1108 O   0  0  0  0  0  0  0  0  0  0  0  0
   28.6709  -19.2935   -5.9142 C   0  0  0  0  0  0  0  0  0  0  0  0
   27.7149  -20.2140   -6.5939 C   0  0  0  0  0  0  0  0  0  0  0  0
   27.2510  -19.7094   -7.9354 C   0  0  2  0  0  0  0  0  0  0  0  0
   26.4576  -18.4409   -7.7025 C   0  0  0  0  0  0  0  0  0  0  0  0
   26.3376  -20.6971   -8.6278 C   0  0  2  0  0  0  0  0  0  0  0  0
   25.9109  -20.2185   -9.9252 N   0  0  0  0  0  0  0  0  0  0  0  0
   25.1558  -20.9813   -7.7952 C   0  0  0  0  0  0  0  0  0  0  0  0
   25.2164  -21.7949   -6.6785 O   0  0  0  0  0  0  0  0  0  0  0  0
   24.0538  -20.4795   -8.0923 O   0  0  0  0  0  0  0  0  0  0  0  0
  2  1  1  1
  3  2  1  0
  4  2  1  0
  4  5  2  0
  6  4  1  0
  7  6  1  0
  8  9  1  0
  8  7  1  0
  9 10  1  0
 10  6  1  0
 10 11  1  1
 11 12  2  0
 14 13  1  0
 15 14  1  0
 15 16  1  1
 17 15  1  0
 18 11  1  0
 17 18  1  6
 19 17  1  0
 19 20  1  0
 21 19  2  0
M  END
$$$$
