API.pdb
     RDKit          3D

 21 21  0  0  1  0  0  0  0  0999 V2000
   26.1249  -17.2121  -15.2278 C   0  0  0  0  0  0  0  0  0  0  0  0
   26.0440  -18.7085  -15.4963 C   0  0  2  0  0  0  0  0  0  0  0  0
   24.9535  -18.9173  -16.3834 N   0  0  0  0  0  0  0  0  0  0  0  0
   26.0781  -19.5013  -14.2791 C   0  0  0  0  0  0  0  0  0  0  0  0
   24.9633  -19.6796  -13.6684 O   0  0  0  0  0  0  0  0  0  0  0  0
   27.2167  -20.1125  -13.6731 N   0  0  0  0  0  0  0  0  0  0  0  0
   28.5489  -20.0028  -14.2392 C   0  0  0  0  0  0  0  0  0  0  0  0
   29.2941  -21.2090  -13.6846 C   0  0  0  0  0  0  0  0  0  0  0  0
   28.7263  -21.2707  -12.2954 C   0  0  0  0  0  0  0  0  0  0  0  0
   27.2826  -20.8936  -12.4768 C   0  0  1  0  0  0  0  0  0  0  0  0
   26.7842  -20.1590  -11.2790 C   0  0  0  0  0  0  0  0  0  0  0  0
   26.9281  -18.9129  -11.2888 O   0  0  0  0  0  0  0  0  0  0  0  0
   22.9199  -21.5893   -7.0676 C   0  0  0  0  0  0  0  0  0  0  0  0
   24.3163  -21.2710   -7.4823 C   0  0  0  0  0  0  0  0  0  0  0  0
   24.3945  -20.2290   -8.5675 C   0  0  2  0  0  0  0  0  0  0  0  0
   23.6297  -20.7516   -9.7654 C   0  0  0  0  0  0  0  0  0  0  0  0
   25.8191  -19.9780   -9.0110 C   0  0  2  0  0  0  0  0  0  0  0  0
   26.1733  -20.7774  -10.1643 N   0  0  0  0  0  0  0  0  0  0  0  0
   26.7603  -20.2559   -7.9121 C   0  0  0  0  0  0  0  0  0  0  0  0
   26.8781  -19.4261   -6.8120 O   0  0  0  0  0  0  0  0  0  0  0  0
   27.4841  -21.2700   -7.9581 O   0  0  0  0  0  0  0  0  0  0  0  0
  2  1  1  1
  3  2  1  0
  4  2  1  0
  4  5  2  0
  6  4  1  0
  7  6  1  0
  8  9  1  0
  8  7  1  0
  9 10  1  0
 10  6  1  0
 10 11  1  1
 11 12  2  0
 14 13  1  0
 15 14  1  0
 15 16  1  6
 17 15  1  0
 18 11  1  0
 17 18  1  6
 19 17  1  0
 19 20  1  0
 21 19  2  0
M  END
$$$$
