API.pdb
     RDKit          3D

 21 21  0  0  1  0  0  0  0  0999 V2000
   25.7888  -17.9352  -15.4284 C   0  0  0  0  0  0  0  0  0  0  0  0
   25.8880  -19.4525  -15.5043 C   0  0  2  0  0  0  0  0  0  0  0  0
   24.8256  -19.9015  -16.3346 N   0  0  0  0  0  0  0  0  0  0  0  0
   26.0248  -20.0735  -14.1977 C   0  0  0  0  0  0  0  0  0  0  0  0
   24.9459  -20.2746  -13.5322 O   0  0  0  0  0  0  0  0  0  0  0  0
   27.2302  -20.4912  -13.5574 N   0  0  0  0  0  0  0  0  0  0  0  0
   28.5334  -20.3280  -14.1756 C   0  0  0  0  0  0  0  0  0  0  0  0
   29.4049  -21.3772  -13.4991 C   0  0  0  0  0  0  0  0  0  0  0  0
   28.8740  -21.3152  -12.0955 C   0  0  0  0  0  0  0  0  0  0  0  0
   27.3967  -21.1036  -12.2757 C   0  0  1  0  0  0  0  0  0  0  0  0
   26.8525  -20.2733  -11.1634 C   0  0  0  0  0  0  0  0  0  0  0  0
   26.8585  -19.0314  -11.3397 O   0  0  0  0  0  0  0  0  0  0  0  0
   23.2665  -21.9682   -7.0435 C   0  0  0  0  0  0  0  0  0  0  0  0
   24.5891  -21.5761   -7.6095 C   0  0  0  0  0  0  0  0  0  0  0  0
   24.5541  -20.2714   -8.3618 C   0  0  2  0  0  0  0  0  0  0  0  0
   23.6201  -20.4433   -9.5412 C   0  0  0  0  0  0  0  0  0  0  0  0
   25.9138  -19.8955   -8.9086 C   0  0  2  0  0  0  0  0  0  0  0  0
   26.3427  -20.7993   -9.9544 N   0  0  0  0  0  0  0  0  0  0  0  0
   26.9186  -19.8777   -7.8313 C   0  0  0  0  0  0  0  0  0  0  0  0
   27.9832  -20.7598   -7.7985 O   0  0  0  0  0  0  0  0  0  0  0  0
   26.8221  -19.0452   -6.9082 O   0  0  0  0  0  0  0  0  0  0  0  0
  2  1  1  1
  3  2  1  0
  4  2  1  0
  4  5  2  0
  6  4  1  0
  7  6  1  0
  8  9  1  0
  8  7  1  0
  9 10  1  0
 10  6  1  0
 10 11  1  1
 11 12  2  0
 14 13  1  0
 15 14  1  0
 15 16  1  6
 17 15  1  0
 18 11  1  0
 17 18  1  6
 19 17  1  0
 19 20  1  0
 21 19  2  0
M  END
$$$$
