KNP.pdb
     RDKit          3D

 25 25  0  0  1  0  0  0  0  0999 V2000
   20.7052  -19.0502  -16.6479 N   0  0  0  0  0  0  0  0  0  0  0  0
   19.9866  -18.3900  -15.6097 C   0  0  1  0  0  0  0  0  0  0  0  0
   20.8282  -17.8746  -14.4826 C   0  0  0  0  0  0  0  0  0  0  0  0
   21.5253  -18.9298  -13.7039 C   0  0  0  0  0  0  0  0  0  0  0  0
   20.6318  -20.0495  -13.2819 C   0  0  0  0  0  0  0  0  0  0  0  0
   21.3892  -21.0714  -12.4737 C   0  0  0  0  0  0  0  0  0  0  0  0
   20.4688  -22.1646  -12.1460 N   0  0  0  0  0  0  0  0  0  0  0  0
   19.1764  -17.2400  -16.1070 C   0  0  0  0  0  0  0  0  0  0  0  0
   19.6658  -16.4703  -16.9821 O   0  0  0  0  0  0  0  0  0  0  0  0
   13.7775  -15.7503  -17.5127 N   0  0  0  0  0  0  0  0  0  0  0  0
   14.5869  -15.4006  -16.3967 C   0  0  0  0  0  0  0  0  0  0  0  0
   14.3526  -14.3349  -15.8209 O   0  0  0  0  0  0  0  0  0  0  0  0
   15.6399  -16.3213  -16.0044 C   0  0  0  0  0  0  0  0  0  0  0  0
   17.0543  -15.8803  -16.1183 C   0  0  2  0  0  0  0  0  0  0  0  0
   17.8899  -16.9995  -15.6243 N   0  0  0  0  0  0  0  0  0  0  0  0
   17.4459  -14.6693  -15.4212 C   0  0  0  0  0  0  0  0  0  0  0  0
   17.9370  -14.8667  -14.2404 O   0  0  0  0  0  0  0  0  0  0  0  0
   17.3890  -13.3171  -15.7920 N   0  0  0  0  0  0  0  0  0  0  0  0
   16.9683  -12.5831  -16.9398 C   0  0  0  0  0  0  0  0  0  0  0  0
   18.2113  -11.7100  -17.1720 C   0  0  0  0  0  0  0  0  0  0  0  0
   18.7037  -11.4089  -15.7741 C   0  0  0  0  0  0  0  0  0  0  0  0
   17.8482  -12.2476  -14.8733 C   0  0  1  0  0  0  0  0  0  0  0  0
   16.7072  -11.4895  -14.3658 C   0  0  0  0  0  0  0  0  0  0  0  0
   16.7387  -10.5708  -13.3241 O   0  0  0  0  0  0  0  0  0  0  0  0
   15.5612  -11.6589  -14.9051 O   0  0  0  0  0  0  0  0  0  0  0  0
  2  1  1  6
  3  2  1  0
  4  3  1  0
  5  4  1  0
  5  6  1  0
  7  6  1  0
  8  9  2  0
  8  2  1  0
 10 11  1  0
 11 13  1  0
 12 11  2  0
 14 13  1  1
 14 15  1  0
 15  8  1  0
 16 14  1  0
 17 16  2  0
 18 19  1  0
 18 16  1  0
 20 19  1  0
 21 20  1  0
 22 21  1  0
 22 18  1  0
 22 23  1  6
 24 23  1  0
 25 23  2  0
M  END
$$$$
