KNP.pdb
     RDKit          3D

 25 25  0  0  1  0  0  0  0  0999 V2000
   26.9147  -22.1198  -18.3689 N   0  0  0  0  0  0  0  0  0  0  0  0
   26.9006  -22.4910  -16.9935 C   0  0  1  0  0  0  0  0  0  0  0  0
   28.2457  -22.7739  -16.3976 C   0  0  0  0  0  0  0  0  0  0  0  0
   28.8071  -24.1027  -16.7510 C   0  0  0  0  0  0  0  0  0  0  0  0
   27.9984  -25.2486  -16.2381 C   0  0  0  0  0  0  0  0  0  0  0  0
   28.5699  -26.5642  -16.7000 C   0  0  0  0  0  0  0  0  0  0  0  0
   27.6410  -27.6273  -16.3043 N   0  0  0  0  0  0  0  0  0  0  0  0
   26.2477  -21.4690  -16.1244 C   0  0  0  0  0  0  0  0  0  0  0  0
   26.9404  -20.5217  -15.6549 O   0  0  0  0  0  0  0  0  0  0  0  0
   22.3925  -18.6986  -13.8013 N   0  0  0  0  0  0  0  0  0  0  0  0
   22.1769  -19.0364  -15.1660 C   0  0  0  0  0  0  0  0  0  0  0  0
   21.2180  -18.5215  -15.7470 O   0  0  0  0  0  0  0  0  0  0  0  0
   23.1005  -19.9676  -15.7908 C   0  0  0  0  0  0  0  0  0  0  0  0
   24.2101  -20.5284  -14.9771 C   0  0  2  0  0  0  0  0  0  0  0  0
   24.8878  -21.5397  -15.8215 N   0  0  0  0  0  0  0  0  0  0  0  0
   23.8766  -21.1391  -13.7037 C   0  0  0  0  0  0  0  0  0  0  0  0
   23.4882  -22.3707  -13.7864 O   0  0  0  0  0  0  0  0  0  0  0  0
   23.8959  -20.6384  -12.3930 N   0  0  0  0  0  0  0  0  0  0  0  0
   24.2851  -19.4191  -11.7644 C   0  0  0  0  0  0  0  0  0  0  0  0
   25.1982  -19.9665  -10.6563 C   0  0  0  0  0  0  0  0  0  0  0  0
   24.5361  -21.2661  -10.2562 C   0  0  0  0  0  0  0  0  0  0  0  0
   23.4299  -21.4588  -11.2491 C   0  0  1  0  0  0  0  0  0  0  0  0
   22.1614  -20.9446  -10.7387 C   0  0  0  0  0  0  0  0  0  0  0  0
   21.4012  -21.5140   -9.7247 O   0  0  0  0  0  0  0  0  0  0  0  0
   21.6771  -19.8759  -11.2448 O   0  0  0  0  0  0  0  0  0  0  0  0
  2  1  1  6
  3  2  1  0
  4  3  1  0
  5  4  1  0
  5  6  1  0
  7  6  1  0
  8  9  2  0
  8  2  1  0
 10 11  1  0
 11 13  1  0
 12 11  2  0
 14 13  1  6
 14 15  1  0
 15  8  1  0
 16 14  1  0
 17 16  2  0
 18 19  1  0
 18 16  1  0
 20 19  1  0
 21 20  1  0
 22 21  1  0
 22 18  1  0
 22 23  1  1
 24 23  1  0
 25 23  2  0
M  END
$$$$
