KNP.pdb
     RDKit          3D

 25 25  0  0  1  0  0  0  0  0999 V2000
   27.5316  -23.1266  -16.5679 N   0  0  0  0  0  0  0  0  0  0  0  0
   28.1174  -21.8983  -16.1461 C   0  0  1  0  0  0  0  0  0  0  0  0
   28.7877  -21.1089  -17.2286 C   0  0  0  0  0  0  0  0  0  0  0  0
   29.3367  -21.9301  -18.3378 C   0  0  0  0  0  0  0  0  0  0  0  0
   28.5484  -21.8298  -19.6021 C   0  0  0  0  0  0  0  0  0  0  0  0
   29.1814  -22.6441  -20.7008 C   0  0  0  0  0  0  0  0  0  0  0  0
   30.3508  -21.9101  -21.1943 N   0  0  0  0  0  0  0  0  0  0  0  0
   27.1379  -20.9857  -15.4872 C   0  0  0  0  0  0  0  0  0  0  0  0
   27.5230  -19.8516  -15.0833 O   0  0  0  0  0  0  0  0  0  0  0  0
   22.8719  -18.4991  -14.0801 N   0  0  0  0  0  0  0  0  0  0  0  0
   22.7985  -19.1342  -15.3506 C   0  0  0  0  0  0  0  0  0  0  0  0
   21.9066  -18.7799  -16.1260 O   0  0  0  0  0  0  0  0  0  0  0  0
   23.7795  -20.1614  -15.6559 C   0  0  0  0  0  0  0  0  0  0  0  0
   24.8173  -20.4827  -14.6421 C   0  0  2  0  0  0  0  0  0  0  0  0
   25.8062  -21.3611  -15.3095 N   0  0  0  0  0  0  0  0  0  0  0  0
   24.3892  -21.1213  -13.4114 C   0  0  0  0  0  0  0  0  0  0  0  0
   24.1871  -22.3955  -13.5121 O   0  0  0  0  0  0  0  0  0  0  0  0
   24.1513  -20.6101  -12.1264 N   0  0  0  0  0  0  0  0  0  0  0  0
   24.2762  -19.3425  -11.4854 C   0  0  0  0  0  0  0  0  0  0  0  0
   25.0863  -19.7469  -10.2438 C   0  0  0  0  0  0  0  0  0  0  0  0
   24.5568  -21.1220   -9.9030 C   0  0  0  0  0  0  0  0  0  0  0  0
   23.6417  -21.4762  -11.0361 C   0  0  1  0  0  0  0  0  0  0  0  0
   22.2548  -21.1385  -10.7253 C   0  0  0  0  0  0  0  0  0  0  0  0
   21.4404  -21.8001   -9.8148 O   0  0  0  0  0  0  0  0  0  0  0  0
   21.7084  -20.1506  -11.3238 O   0  0  0  0  0  0  0  0  0  0  0  0
  2  1  1  6
  3  2  1  0
  4  3  1  0
  5  4  1  0
  5  6  1  0
  7  6  1  0
  8  9  2  0
  8  2  1  0
 10 11  1  0
 11 13  1  0
 12 11  2  0
 14 13  1  6
 14 15  1  0
 15  8  1  0
 16 14  1  0
 17 16  2  0
 18 19  1  0
 18 16  1  0
 20 19  1  0
 21 20  1  0
 22 21  1  0
 22 18  1  0
 22 23  1  1
 24 23  1  0
 25 23  2  0
M  END
$$$$
