KNP.pdb
     RDKit          3D

 25 25  0  0  1  0  0  0  0  0999 V2000
   18.7780  -14.3366  -19.3699 N   0  0  0  0  0  0  0  0  0  0  0  0
   18.3471  -13.0752  -18.8668 C   0  0  1  0  0  0  0  0  0  0  0  0
   17.4129  -13.1426  -17.6977 C   0  0  0  0  0  0  0  0  0  0  0  0
   17.3635  -14.4665  -17.0262 C   0  0  0  0  0  0  0  0  0  0  0  0
   16.2859  -14.5751  -15.9981 C   0  0  0  0  0  0  0  0  0  0  0  0
   16.2833  -15.9396  -15.3586 C   0  0  0  0  0  0  0  0  0  0  0  0
   15.1364  -16.0127  -14.4481 N   0  0  0  0  0  0  0  0  0  0  0  0
   19.4818  -12.1938  -18.4648 C   0  0  0  0  0  0  0  0  0  0  0  0
   20.5270  -12.7127  -17.9789 O   0  0  0  0  0  0  0  0  0  0  0  0
   22.1396   -7.2941  -20.1654 N   0  0  0  0  0  0  0  0  0  0  0  0
   21.3734   -7.6390  -19.0179 C   0  0  0  0  0  0  0  0  0  0  0  0
   21.5754   -7.0115  -17.9749 O   0  0  0  0  0  0  0  0  0  0  0  0
   20.3998   -8.7096  -19.1460 C   0  0  0  0  0  0  0  0  0  0  0  0
   20.5475   -9.9163  -18.2915 C   0  0  2  0  0  0  0  0  0  0  0  0
   19.4103  -10.8088  -18.6157 N   0  0  0  0  0  0  0  0  0  0  0  0
   20.5912   -9.7283  -16.8533 C   0  0  0  0  0  0  0  0  0  0  0  0
   19.4474   -9.8572  -16.2619 O   0  0  0  0  0  0  0  0  0  0  0  0
   21.6490   -9.4297  -15.9811 N   0  0  0  0  0  0  0  0  0  0  0  0
   23.0480   -9.1846  -16.1085 C   0  0  0  0  0  0  0  0  0  0  0  0
   23.5905  -10.1673  -15.0590 C   0  0  0  0  0  0  0  0  0  0  0  0
   22.5474  -10.1343  -13.9645 C   0  0  0  0  0  0  0  0  0  0  0  0
   21.4295   -9.3046  -14.5200 C   0  0  1  0  0  0  0  0  0  0  0  0
   21.5471   -7.9083  -14.1065 C   0  0  0  0  0  0  0  0  0  0  0  0
   21.3229   -7.4169  -12.8265 O   0  0  0  0  0  0  0  0  0  0  0  0
   21.8865   -7.0320  -14.9723 O   0  0  0  0  0  0  0  0  0  0  0  0
  2  1  1  1
  3  2  1  0
  4  3  1  0
  5  4  1  0
  5  6  1  0
  7  6  1  0
  8  9  2  0
  8  2  1  0
 10 11  1  0
 11 13  1  0
 12 11  2  0
 14 13  1  6
 14 15  1  0
 15  8  1  0
 16 14  1  0
 17 16  2  0
 18 19  1  0
 18 16  1  0
 20 19  1  0
 21 20  1  0
 22 21  1  0
 22 18  1  0
 22 23  1  1
 24 23  1  0
 25 23  2  0
M  END
$$$$
