KNP.pdb
     RDKit          3D

 25 25  0  0  1  0  0  0  0  0999 V2000
   27.3067  -22.0995  -17.9428 N   0  0  0  0  0  0  0  0  0  0  0  0
   28.4078  -22.0532  -17.0398 C   0  0  1  0  0  0  0  0  0  0  0  0
   29.6903  -21.5479  -17.6265 C   0  0  0  0  0  0  0  0  0  0  0  0
   29.8896  -21.8933  -19.0572 C   0  0  0  0  0  0  0  0  0  0  0  0
   29.1145  -21.0269  -19.9945 C   0  0  0  0  0  0  0  0  0  0  0  0
   29.4576  -21.3382  -21.4285 C   0  0  0  0  0  0  0  0  0  0  0  0
   28.9924  -22.6972  -21.7223 N   0  0  0  0  0  0  0  0  0  0  0  0
   28.1295  -21.2267  -15.8292 C   0  0  0  0  0  0  0  0  0  0  0  0
   29.0247  -21.1017  -14.9456 O   0  0  0  0  0  0  0  0  0  0  0  0
   28.5033  -17.9529  -15.3420 N   0  0  0  0  0  0  0  0  0  0  0  0
   27.1426  -17.5399  -15.3677 C   0  0  0  0  0  0  0  0  0  0  0  0
   26.8860  -16.4135  -15.8010 O   0  0  0  0  0  0  0  0  0  0  0  0
   26.1391  -18.4712  -14.8816 C   0  0  0  0  0  0  0  0  0  0  0  0
   26.5730  -19.8196  -14.4327 C   0  0  2  0  0  0  0  0  0  0  0  0
   26.9007  -20.5898  -15.6552 N   0  0  0  0  0  0  0  0  0  0  0  0
   25.6478  -20.5984  -13.6308 C   0  0  0  0  0  0  0  0  0  0  0  0
   25.1312  -21.6136  -14.2447 O   0  0  0  0  0  0  0  0  0  0  0  0
   25.2063  -20.4527  -12.3068 N   0  0  0  0  0  0  0  0  0  0  0  0
   25.4351  -19.5313  -11.2428 C   0  0  0  0  0  0  0  0  0  0  0  0
   25.7936  -20.5086  -10.1124 C   0  0  0  0  0  0  0  0  0  0  0  0
   24.9096  -21.7060  -10.3804 C   0  0  0  0  0  0  0  0  0  0  0  0
   24.2599  -21.4199  -11.7006 C   0  0  1  0  0  0  0  0  0  0  0  0
   22.9470  -20.8038  -11.5249 C   0  0  0  0  0  0  0  0  0  0  0  0
   21.8054  -21.4407  -11.0547 O   0  0  0  0  0  0  0  0  0  0  0  0
   22.7975  -19.5691  -11.8181 O   0  0  0  0  0  0  0  0  0  0  0  0
  2  1  1  6
  3  2  1  0
  4  3  1  0
  5  4  1  0
  5  6  1  0
  7  6  1  0
  8  9  2  0
  8  2  1  0
 10 11  1  0
 11 13  1  0
 12 11  2  0
 14 13  1  6
 14 15  1  0
 15  8  1  0
 16 14  1  0
 17 16  2  0
 18 19  1  0
 18 16  1  0
 20 19  1  0
 21 20  1  0
 22 21  1  0
 22 18  1  0
 22 23  1  1
 24 23  1  0
 25 23  2  0
M  END
$$$$
