KNP.pdb
     RDKit          3D

 25 25  0  0  1  0  0  0  0  0999 V2000
   27.3625  -23.3128  -17.0256 N   0  0  0  0  0  0  0  0  0  0  0  0
   26.9030  -22.0146  -16.6602 C   0  0  1  0  0  0  0  0  0  0  0  0
   27.1314  -20.9472  -17.6862 C   0  0  0  0  0  0  0  0  0  0  0  0
   28.5613  -20.6745  -17.9812 C   0  0  0  0  0  0  0  0  0  0  0  0
   29.3280  -21.8876  -18.3944 C   0  0  0  0  0  0  0  0  0  0  0  0
   30.7193  -21.5218  -18.8432 C   0  0  0  0  0  0  0  0  0  0  0  0
   31.4066  -22.7538  -19.2425 N   0  0  0  0  0  0  0  0  0  0  0  0
   25.4497  -21.9883  -16.3233 C   0  0  0  0  0  0  0  0  0  0  0  0
   24.6498  -22.7188  -16.9747 O   0  0  0  0  0  0  0  0  0  0  0  0
   21.4949  -22.2849  -12.6717 N   0  0  0  0  0  0  0  0  0  0  0  0
   22.3694  -21.1660  -12.5936 C   0  0  0  0  0  0  0  0  0  0  0  0
   22.0244  -20.2070  -11.8982 O   0  0  0  0  0  0  0  0  0  0  0  0
   23.6153  -21.2226  -13.3386 C   0  0  0  0  0  0  0  0  0  0  0  0
   23.5597  -21.2606  -14.8230 C   0  0  2  0  0  0  0  0  0  0  0  0
   24.9585  -21.1732  -15.3034 N   0  0  0  0  0  0  0  0  0  0  0  0
   22.7752  -20.2443  -15.4991 C   0  0  0  0  0  0  0  0  0  0  0  0
   23.3859  -19.1146  -15.6578 O   0  0  0  0  0  0  0  0  0  0  0  0
   21.4699  -20.2594  -16.0139 N   0  0  0  0  0  0  0  0  0  0  0  0
   20.4104  -21.2099  -16.1008 C   0  0  0  0  0  0  0  0  0  0  0  0
   20.0841  -21.1137  -17.5993 C   0  0  0  0  0  0  0  0  0  0  0  0
   20.3001  -19.6516  -17.9197 C   0  0  0  0  0  0  0  0  0  0  0  0
   20.8887  -19.0647  -16.6724 C   0  0  1  0  0  0  0  0  0  0  0  0
   19.8571  -18.4698  -15.8262 C   0  0  0  0  0  0  0  0  0  0  0  0
   19.2351  -17.2460  -16.0396 O   0  0  0  0  0  0  0  0  0  0  0  0
   19.4648  -19.1040  -14.7886 O   0  0  0  0  0  0  0  0  0  0  0  0
  2  1  1  6
  3  2  1  0
  4  3  1  0
  5  4  1  0
  5  6  1  0
  7  6  1  0
  8  9  2  0
  8  2  1  0
 10 11  1  0
 11 13  1  0
 12 11  2  0
 14 13  1  1
 14 15  1  0
 15  8  1  0
 16 14  1  0
 17 16  2  0
 18 19  1  0
 18 16  1  0
 20 19  1  0
 21 20  1  0
 22 21  1  0
 22 18  1  0
 22 23  1  1
 24 23  1  0
 25 23  2  0
M  END
$$$$
