KNP.pdb
     RDKit          3D

 25 25  0  0  1  0  0  0  0  0999 V2000
   19.7331  -15.8254  -16.1276 N   0  0  0  0  0  0  0  0  0  0  0  0
   18.5179  -16.5635  -16.2184 C   0  0  1  0  0  0  0  0  0  0  0  0
   18.6482  -17.9317  -16.8145 C   0  0  0  0  0  0  0  0  0  0  0  0
   20.0485  -18.3752  -17.0345 C   0  0  0  0  0  0  0  0  0  0  0  0
   20.1565  -19.6664  -17.7769 C   0  0  0  0  0  0  0  0  0  0  0  0
   21.5980  -20.0635  -17.9655 C   0  0  0  0  0  0  0  0  0  0  0  0
   21.6293  -21.3036  -18.7471 N   0  0  0  0  0  0  0  0  0  0  0  0
   17.8402  -16.7280  -14.8993 C   0  0  0  0  0  0  0  0  0  0  0  0
   18.5310  -16.7034  -13.8410 O   0  0  0  0  0  0  0  0  0  0  0  0
   16.8520  -14.4823  -12.7133 N   0  0  0  0  0  0  0  0  0  0  0  0
   15.4609  -14.5061  -13.0084 C   0  0  0  0  0  0  0  0  0  0  0  0
   14.8211  -13.4596  -12.8746 O   0  0  0  0  0  0  0  0  0  0  0  0
   14.8799  -15.7625  -13.4494 C   0  0  0  0  0  0  0  0  0  0  0  0
   15.7474  -16.9671  -13.5153 C   0  0  2  0  0  0  0  0  0  0  0  0
   16.4596  -16.9079  -14.8131 N   0  0  0  0  0  0  0  0  0  0  0  0
   15.1140  -18.2672  -13.3954 C   0  0  0  0  0  0  0  0  0  0  0  0
   14.8241  -18.8273  -14.5253 O   0  0  0  0  0  0  0  0  0  0  0  0
   14.7545  -19.0324  -12.2755 N   0  0  0  0  0  0  0  0  0  0  0  0
   14.8755  -18.9028  -10.8605 C   0  0  0  0  0  0  0  0  0  0  0  0
   15.5066  -20.2614  -10.5184 C   0  0  0  0  0  0  0  0  0  0  0  0
   14.8612  -21.2136  -11.5003 C   0  0  0  0  0  0  0  0  0  0  0  0
   14.0689  -20.3387  -12.4242 C   0  0  1  0  0  0  0  0  0  0  0  0
   12.6768  -20.2336  -11.9939 C   0  0  0  0  0  0  0  0  0  0  0  0
   12.0328  -19.0677  -11.5989 O   0  0  0  0  0  0  0  0  0  0  0  0
   11.9550  -21.2876  -11.9673 O   0  0  0  0  0  0  0  0  0  0  0  0
  2  1  1  1
  3  2  1  0
  4  3  1  0
  5  4  1  0
  5  6  1  0
  7  6  1  0
  8  9  2  0
  8  2  1  0
 10 11  1  0
 11 13  1  0
 12 11  2  0
 14 13  1  6
 14 15  1  0
 15  8  1  0
 16 14  1  0
 17 16  2  0
 18 19  1  0
 18 16  1  0
 20 19  1  0
 21 20  1  0
 22 21  1  0
 22 18  1  0
 22 23  1  1
 24 23  1  0
 25 23  2  0
M  END
$$$$
