KNP.pdb
     RDKit          3D

 25 25  0  0  1  0  0  0  0  0999 V2000
   23.7491  -21.4780  -15.5592 N   0  0  0  0  0  0  0  0  0  0  0  0
   23.9846  -21.4989  -14.1543 C   0  0  1  0  0  0  0  0  0  0  0  0
   25.1900  -20.7340  -13.7002 C   0  0  0  0  0  0  0  0  0  0  0  0
   26.4791  -21.2480  -14.2294 C   0  0  0  0  0  0  0  0  0  0  0  0
   26.7686  -20.8094  -15.6272 C   0  0  0  0  0  0  0  0  0  0  0  0
   28.0281  -21.4533  -16.1467 C   0  0  0  0  0  0  0  0  0  0  0  0
   28.1717  -21.0950  -17.5611 N   0  0  0  0  0  0  0  0  0  0  0  0
   22.8253  -20.9895  -13.3651 C   0  0  0  0  0  0  0  0  0  0  0  0
   22.6155  -19.7444  -13.3063 O   0  0  0  0  0  0  0  0  0  0  0  0
   18.3529  -20.0858  -11.2197 N   0  0  0  0  0  0  0  0  0  0  0  0
   18.8053  -19.8561  -12.5483 C   0  0  0  0  0  0  0  0  0  0  0  0
   18.1454  -19.0973  -13.2632 O   0  0  0  0  0  0  0  0  0  0  0  0
   20.0174  -20.5302  -12.9808 C   0  0  0  0  0  0  0  0  0  0  0  0
   20.7380  -21.3966  -12.0123 C   0  0  2  0  0  0  0  0  0  0  0  0
   21.9695  -21.8616  -12.6921 N   0  0  0  0  0  0  0  0  0  0  0  0
   20.0378  -22.5527  -11.4842 C   0  0  0  0  0  0  0  0  0  0  0  0
   19.9783  -23.5589  -12.2956 O   0  0  0  0  0  0  0  0  0  0  0  0
   19.4090  -22.7820  -10.2509 N   0  0  0  0  0  0  0  0  0  0  0  0
   19.1692  -22.0290   -9.0639 C   0  0  0  0  0  0  0  0  0  0  0  0
   19.6962  -23.0140   -8.0087 C   0  0  0  0  0  0  0  0  0  0  0  0
   19.3207  -24.3693   -8.5649 C   0  0  0  0  0  0  0  0  0  0  0  0
   18.7853  -24.0901   -9.9368 C   0  0  1  0  0  0  0  0  0  0  0  0
   17.3295  -23.9689   -9.9252 C   0  0  0  0  0  0  0  0  0  0  0  0
   16.4278  -25.0079   -9.7317 O   0  0  0  0  0  0  0  0  0  0  0  0
   16.8018  -22.8189  -10.1038 O   0  0  0  0  0  0  0  0  0  0  0  0
  2  1  1  6
  3  2  1  0
  4  3  1  0
  5  4  1  0
  5  6  1  0
  7  6  1  0
  8  9  2  0
  8  2  1  0
 10 11  1  0
 11 13  1  0
 12 11  2  0
 14 13  1  6
 14 15  1  0
 15  8  1  0
 16 14  1  0
 17 16  2  0
 18 19  1  0
 18 16  1  0
 20 19  1  0
 21 20  1  0
 22 21  1  0
 22 18  1  0
 22 23  1  1
 24 23  1  0
 25 23  2  0
M  END
$$$$
