KNP.pdb
     RDKit          3D

 25 25  0  0  1  0  0  0  0  0999 V2000
   19.7587  -11.9055  -16.3327 N   0  0  0  0  0  0  0  0  0  0  0  0
   20.1953  -10.7604  -17.0592 C   0  0  1  0  0  0  0  0  0  0  0  0
   19.5130  -10.5442  -18.3752 C   0  0  0  0  0  0  0  0  0  0  0  0
   18.6732  -11.6831  -18.8263 C   0  0  0  0  0  0  0  0  0  0  0  0
   18.9033  -12.0677  -20.2508 C   0  0  0  0  0  0  0  0  0  0  0  0
   17.9952  -13.1986  -20.6596 C   0  0  0  0  0  0  0  0  0  0  0  0
   18.4279  -13.6755  -21.9768 N   0  0  0  0  0  0  0  0  0  0  0  0
   20.0530   -9.4936  -16.2837 C   0  0  0  0  0  0  0  0  0  0  0  0
   18.9489   -9.2283  -15.7285 O   0  0  0  0  0  0  0  0  0  0  0  0
   21.3141   -5.2792  -13.4510 N   0  0  0  0  0  0  0  0  0  0  0  0
   21.8606   -6.5477  -13.1121 C   0  0  0  0  0  0  0  0  0  0  0  0
   22.4356   -6.6608  -12.0264 O   0  0  0  0  0  0  0  0  0  0  0  0
   21.7072   -7.6321  -14.0667 C   0  0  0  0  0  0  0  0  0  0  0  0
   21.0180   -7.3587  -15.3544 C   0  0  2  0  0  0  0  0  0  0  0  0
   21.1154   -8.5980  -16.1604 N   0  0  0  0  0  0  0  0  0  0  0  0
   21.4946   -6.2476  -16.1569 C   0  0  0  0  0  0  0  0  0  0  0  0
   22.4965   -6.5331  -16.9245 O   0  0  0  0  0  0  0  0  0  0  0  0
   21.0688   -4.9141  -16.2541 N   0  0  0  0  0  0  0  0  0  0  0  0
   20.0781   -4.1033  -15.6259 C   0  0  0  0  0  0  0  0  0  0  0  0
   19.3827   -3.5188  -16.8654 C   0  0  0  0  0  0  0  0  0  0  0  0
   20.5108   -3.3350  -17.8557 C   0  0  0  0  0  0  0  0  0  0  0  0
   21.7029   -3.9716  -17.2072 C   0  0  1  0  0  0  0  0  0  0  0  0
   22.5068   -2.9862  -16.4881 C   0  0  0  0  0  0  0  0  0  0  0  0
   23.4782   -2.1647  -17.0463 O   0  0  0  0  0  0  0  0  0  0  0  0
   22.3269   -2.8372  -15.2319 O   0  0  0  0  0  0  0  0  0  0  0  0
  2  1  1  1
  3  2  1  0
  4  3  1  0
  5  4  1  0
  5  6  1  0
  7  6  1  0
  8  9  2  0
  8  2  1  0
 10 11  1  0
 11 13  1  0
 12 11  2  0
 14 13  1  1
 14 15  1  0
 15  8  1  0
 16 14  1  0
 17 16  2  0
 18 19  1  0
 18 16  1  0
 20 19  1  0
 21 20  1  0
 22 21  1  0
 22 18  1  0
 22 23  1  1
 24 23  1  0
 25 23  2  0
M  END
$$$$
