KNP.pdb
     RDKit          3D

 25 25  0  0  1  0  0  0  0  0999 V2000
   15.1744  -11.1274  -10.1331 N   0  0  0  0  0  0  0  0  0  0  0  0
   15.0517  -10.4518  -11.3815 C   0  0  1  0  0  0  0  0  0  0  0  0
   13.6706  -10.4333  -11.9614 C   0  0  0  0  0  0  0  0  0  0  0  0
   12.6836  -11.2632  -11.2244 C   0  0  0  0  0  0  0  0  0  0  0  0
   12.4592  -12.6076  -11.8347 C   0  0  0  0  0  0  0  0  0  0  0  0
   11.4954  -13.4220  -11.0109 C   0  0  0  0  0  0  0  0  0  0  0  0
   11.3808  -14.7484  -11.6250 N   0  0  0  0  0  0  0  0  0  0  0  0
   15.5156   -9.0349  -11.3212 C   0  0  0  0  0  0  0  0  0  0  0  0
   14.7130   -8.1071  -11.6259 O   0  0  0  0  0  0  0  0  0  0  0  0
   18.1395   -4.6898  -10.2665 N   0  0  0  0  0  0  0  0  0  0  0  0
   17.8571   -5.5675   -9.1836 C   0  0  0  0  0  0  0  0  0  0  0  0
   17.9868   -5.1338   -8.0358 O   0  0  0  0  0  0  0  0  0  0  0  0
   17.4332   -6.9212   -9.4973 C   0  0  0  0  0  0  0  0  0  0  0  0
   17.3225   -7.3233  -10.9235 C   0  0  2  0  0  0  0  0  0  0  0  0
   16.8175   -8.7161  -10.9347 N   0  0  0  0  0  0  0  0  0  0  0  0
   18.5193   -7.2597  -11.7415 C   0  0  0  0  0  0  0  0  0  0  0  0
   19.2925   -8.2924  -11.6396 O   0  0  0  0  0  0  0  0  0  0  0  0
   18.9965   -6.2802  -12.6258 N   0  0  0  0  0  0  0  0  0  0  0  0
   18.5161   -5.0414  -13.1435 C   0  0  0  0  0  0  0  0  0  0  0  0
   18.7235   -5.2792  -14.6474 C   0  0  0  0  0  0  0  0  0  0  0  0
   19.9948   -6.0961  -14.7090 C   0  0  0  0  0  0  0  0  0  0  0  0
   20.3200   -6.4142  -13.2807 C   0  0  1  0  0  0  0  0  0  0  0  0
   21.2632   -5.4485  -12.7221 C   0  0  0  0  0  0  0  0  0  0  0  0
   20.9787   -4.5068  -11.7411 O   0  0  0  0  0  0  0  0  0  0  0  0
   22.4678   -5.4407  -13.1484 O   0  0  0  0  0  0  0  0  0  0  0  0
  2  1  1  1
  3  2  1  0
  4  3  1  0
  5  4  1  0
  5  6  1  0
  7  6  1  0
  8  9  2  0
  8  2  1  0
 10 11  1  0
 11 13  1  0
 12 11  2  0
 14 13  1  1
 14 15  1  0
 15  8  1  0
 16 14  1  0
 17 16  2  0
 18 19  1  0
 18 16  1  0
 20 19  1  0
 21 20  1  0
 22 21  1  0
 22 18  1  0
 22 23  1  1
 24 23  1  0
 25 23  2  0
M  END
$$$$
