KNP.pdb
     RDKit          3D

 25 25  0  0  1  0  0  0  0  0999 V2000
   16.0877  -23.8236   -9.5631 N   0  0  0  0  0  0  0  0  0  0  0  0
   17.4001  -23.2808   -9.4495 C   0  0  1  0  0  0  0  0  0  0  0  0
   18.3117  -24.0125   -8.5125 C   0  0  0  0  0  0  0  0  0  0  0  0
   17.6469  -24.5356   -7.2917 C   0  0  0  0  0  0  0  0  0  0  0  0
   17.6980  -26.0234   -7.1746 C   0  0  0  0  0  0  0  0  0  0  0  0
   18.0005  -26.4449   -5.7597 C   0  0  0  0  0  0  0  0  0  0  0  0
   17.1444  -25.6654   -4.8603 N   0  0  0  0  0  0  0  0  0  0  0  0
   18.1060  -23.1931  -10.7610 C   0  0  0  0  0  0  0  0  0  0  0  0
   19.0245  -24.0200  -11.0264 O   0  0  0  0  0  0  0  0  0  0  0  0
   15.9085  -24.6549  -14.1261 N   0  0  0  0  0  0  0  0  0  0  0  0
   17.2391  -24.1633  -14.0235 C   0  0  0  0  0  0  0  0  0  0  0  0
   18.1581  -24.9841  -13.9599 O   0  0  0  0  0  0  0  0  0  0  0  0
   17.4330  -22.7237  -13.9999 C   0  0  0  0  0  0  0  0  0  0  0  0
   18.4064  -22.1491  -13.0353 C   0  0  2  0  0  0  0  0  0  0  0  0
   17.7708  -22.2162  -11.6988 N   0  0  0  0  0  0  0  0  0  0  0  0
   18.8643  -20.7907  -13.2609 C   0  0  0  0  0  0  0  0  0  0  0  0
   18.1960  -19.8874  -12.6191 O   0  0  0  0  0  0  0  0  0  0  0  0
   19.9017  -20.2729  -14.0512 N   0  0  0  0  0  0  0  0  0  0  0  0
   20.8770  -20.8057  -14.9447 C   0  0  0  0  0  0  0  0  0  0  0  0
   22.1493  -20.1652  -14.3682 C   0  0  0  0  0  0  0  0  0  0  0  0
   21.6861  -18.8015  -13.9065 C   0  0  0  0  0  0  0  0  0  0  0  0
   20.1971  -18.8200  -14.0773 C   0  0  1  0  0  0  0  0  0  0  0  0
   19.8017  -18.2444  -15.3605 C   0  0  0  0  0  0  0  0  0  0  0  0
   19.1787  -18.9237  -16.4000 O   0  0  0  0  0  0  0  0  0  0  0  0
   20.0318  -17.0071  -15.5820 O   0  0  0  0  0  0  0  0  0  0  0  0
  2  1  1  6
  3  2  1  0
  4  3  1  0
  5  4  1  0
  5  6  1  0
  7  6  1  0
  8  9  2  0
  8  2  1  0
 10 11  1  0
 11 13  1  0
 12 11  2  0
 14 13  1  6
 14 15  1  0
 15  8  1  0
 16 14  1  0
 17 16  2  0
 18 19  1  0
 18 16  1  0
 20 19  1  0
 21 20  1  0
 22 21  1  0
 22 18  1  0
 22 23  1  6
 24 23  1  0
 25 23  2  0
M  END
$$$$
