KNP.pdb
     RDKit          3D

 25 25  0  0  1  0  0  0  0  0999 V2000
   29.5325  -23.7984  -17.3472 N   0  0  0  0  0  0  0  0  0  0  0  0
   28.2839  -23.1216  -17.4601 C   0  0  1  0  0  0  0  0  0  0  0  0
   27.0962  -24.0097  -17.6718 C   0  0  0  0  0  0  0  0  0  0  0  0
   26.7908  -24.9097  -16.5304 C   0  0  0  0  0  0  0  0  0  0  0  0
   25.5240  -24.5637  -15.8192 C   0  0  0  0  0  0  0  0  0  0  0  0
   24.3521  -25.3051  -16.4093 C   0  0  0  0  0  0  0  0  0  0  0  0
   23.8145  -26.1992  -15.3792 N   0  0  0  0  0  0  0  0  0  0  0  0
   27.9799  -22.2659  -16.2762 C   0  0  0  0  0  0  0  0  0  0  0  0
   28.5842  -22.4789  -15.1867 O   0  0  0  0  0  0  0  0  0  0  0  0
   28.9093  -18.8162  -16.3988 N   0  0  0  0  0  0  0  0  0  0  0  0
   27.6167  -18.2230  -16.4110 C   0  0  0  0  0  0  0  0  0  0  0  0
   27.4965  -17.1034  -16.9154 O   0  0  0  0  0  0  0  0  0  0  0  0
   26.5178  -18.9733  -15.8279 C   0  0  0  0  0  0  0  0  0  0  0  0
   26.7995  -20.3022  -15.2257 C   0  0  2  0  0  0  0  0  0  0  0  0
   27.0419  -21.2359  -16.3502 N   0  0  0  0  0  0  0  0  0  0  0  0
   25.7928  -20.8800  -14.3549 C   0  0  0  0  0  0  0  0  0  0  0  0
   25.0742  -21.8037  -14.9070 O   0  0  0  0  0  0  0  0  0  0  0  0
   25.4518  -20.6202  -13.0188 N   0  0  0  0  0  0  0  0  0  0  0  0
   25.9013  -19.7324  -11.9974 C   0  0  0  0  0  0  0  0  0  0  0  0
   26.1247  -20.7311  -10.8512 C   0  0  0  0  0  0  0  0  0  0  0  0
   25.0195  -21.7461  -11.0400 C   0  0  0  0  0  0  0  0  0  0  0  0
   24.3714  -21.3754  -12.3398 C   0  0  1  0  0  0  0  0  0  0  0  0
   23.2077  -20.5179  -12.1285 C   0  0  0  0  0  0  0  0  0  0  0  0
   23.1035  -19.1822  -12.4960 O   0  0  0  0  0  0  0  0  0  0  0  0
   22.1733  -21.0060  -11.5589 O   0  0  0  0  0  0  0  0  0  0  0  0
  2  1  1  1
  3  2  1  0
  4  3  1  0
  5  4  1  0
  5  6  1  0
  7  6  1  0
  8  9  2  0
  8  2  1  0
 10 11  1  0
 11 13  1  0
 12 11  2  0
 14 13  1  6
 14 15  1  0
 15  8  1  0
 16 14  1  0
 17 16  2  0
 18 19  1  0
 18 16  1  0
 20 19  1  0
 21 20  1  0
 22 21  1  0
 22 18  1  0
 22 23  1  1
 24 23  1  0
 25 23  2  0
M  END
$$$$
