KNP.pdb
     RDKit          3D

 25 25  0  0  1  0  0  0  0  0999 V2000
   26.0513  -21.8254   -9.8427 N   0  0  0  0  0  0  0  0  0  0  0  0
   25.3472  -21.0193  -10.7831 C   0  0  1  0  0  0  0  0  0  0  0  0
   24.6595  -19.8209  -10.2041 C   0  0  0  0  0  0  0  0  0  0  0  0
   23.1943  -19.7780  -10.4436 C   0  0  0  0  0  0  0  0  0  0  0  0
   22.4885  -21.0355  -10.0555 C   0  0  0  0  0  0  0  0  0  0  0  0
   21.0287  -20.9727  -10.4243 C   0  0  0  0  0  0  0  0  0  0  0  0
   20.8610  -21.6210  -11.7286 N   0  0  0  0  0  0  0  0  0  0  0  0
   26.2179  -20.5267  -11.8901 C   0  0  0  0  0  0  0  0  0  0  0  0
   27.2909  -19.9198  -11.6107 O   0  0  0  0  0  0  0  0  0  0  0  0
   28.0785  -22.3164  -17.1986 N   0  0  0  0  0  0  0  0  0  0  0  0
   28.0522  -21.2800  -16.2250 C   0  0  0  0  0  0  0  0  0  0  0  0
   28.7648  -20.2903  -16.4113 O   0  0  0  0  0  0  0  0  0  0  0  0
   27.1868  -21.4521  -15.0708 C   0  0  0  0  0  0  0  0  0  0  0  0
   26.7145  -20.2446  -14.3450 C   0  0  2  0  0  0  0  0  0  0  0  0
   25.8696  -20.7241  -13.2264 N   0  0  0  0  0  0  0  0  0  0  0  0
   25.9682  -19.2509  -15.0941 C   0  0  0  0  0  0  0  0  0  0  0  0
   24.6831  -19.3906  -15.0353 O   0  0  0  0  0  0  0  0  0  0  0  0
   26.3842  -18.1622  -15.8755 N   0  0  0  0  0  0  0  0  0  0  0  0
   27.6307  -17.5614  -16.2202 C   0  0  0  0  0  0  0  0  0  0  0  0
   27.3298  -16.0959  -15.8690 C   0  0  0  0  0  0  0  0  0  0  0  0
   25.8723  -15.9313  -16.2377 C   0  0  0  0  0  0  0  0  0  0  0  0
   25.4044  -17.3106  -16.5920 C   0  0  1  0  0  0  0  0  0  0  0  0
   25.4841  -17.5458  -18.0317 C   0  0  0  0  0  0  0  0  0  0  0  0
   24.7581  -16.8744  -19.0075 O   0  0  0  0  0  0  0  0  0  0  0  0
   26.2839  -18.4406  -18.4702 O   0  0  0  0  0  0  0  0  0  0  0  0
  2  1  1  1
  3  2  1  0
  4  3  1  0
  5  4  1  0
  5  6  1  0
  7  6  1  0
  8  9  2  0
  8  2  1  0
 10 11  1  0
 11 13  1  0
 12 11  2  0
 14 13  1  6
 14 15  1  0
 15  8  1  0
 16 14  1  0
 17 16  2  0
 18 19  1  0
 18 16  1  0
 20 19  1  0
 21 20  1  0
 22 21  1  0
 22 18  1  0
 22 23  1  6
 24 23  1  0
 25 23  2  0
M  END
$$$$
