KNP.pdb
     RDKit          3D

 25 25  0  0  1  0  0  0  0  0999 V2000
   28.2202  -19.7261  -17.3727 N   0  0  0  0  0  0  0  0  0  0  0  0
   27.5934  -20.9558  -17.7258 C   0  0  1  0  0  0  0  0  0  0  0  0
   28.4804  -21.9463  -18.4160 C   0  0  0  0  0  0  0  0  0  0  0  0
   29.8381  -21.4365  -18.7365 C   0  0  0  0  0  0  0  0  0  0  0  0
   30.7168  -22.4493  -19.3938 C   0  0  0  0  0  0  0  0  0  0  0  0
   32.1129  -21.9142  -19.5817 C   0  0  0  0  0  0  0  0  0  0  0  0
   33.0553  -23.0158  -19.3624 N   0  0  0  0  0  0  0  0  0  0  0  0
   26.9910  -21.6561  -16.5541 C   0  0  0  0  0  0  0  0  0  0  0  0
   26.6421  -22.8657  -16.6678 O   0  0  0  0  0  0  0  0  0  0  0  0
   26.1369  -22.3420  -10.9695 N   0  0  0  0  0  0  0  0  0  0  0  0
   25.8062  -21.1902  -11.7355 C   0  0  0  0  0  0  0  0  0  0  0  0
   24.9193  -20.4452  -11.3104 O   0  0  0  0  0  0  0  0  0  0  0  0
   26.5344  -20.9628  -12.9719 C   0  0  0  0  0  0  0  0  0  0  0  0
   26.0435  -21.6043  -14.2191 C   0  0  2  0  0  0  0  0  0  0  0  0
   26.8063  -21.0007  -15.3365 N   0  0  0  0  0  0  0  0  0  0  0  0
   24.6275  -21.5062  -14.5208 C   0  0  0  0  0  0  0  0  0  0  0  0
   24.2810  -20.4077  -15.1104 O   0  0  0  0  0  0  0  0  0  0  0  0
   23.5590  -22.3858  -14.2892 N   0  0  0  0  0  0  0  0  0  0  0  0
   23.3953  -23.6673  -13.6855 C   0  0  0  0  0  0  0  0  0  0  0  0
   22.6341  -24.3967  -14.8036 C   0  0  0  0  0  0  0  0  0  0  0  0
   21.7507  -23.3215  -15.3958 C   0  0  0  0  0  0  0  0  0  0  0  0
   22.1807  -22.0530  -14.7229 C   0  0  1  0  0  0  0  0  0  0  0  0
   21.3419  -21.7545  -13.5646 C   0  0  0  0  0  0  0  0  0  0  0  0
   20.0504  -21.2441  -13.6048 O   0  0  0  0  0  0  0  0  0  0  0  0
   21.8033  -21.9712  -12.3929 O   0  0  0  0  0  0  0  0  0  0  0  0
  2  1  1  1
  3  2  1  0
  4  3  1  0
  5  4  1  0
  5  6  1  0
  7  6  1  0
  8  9  2  0
  8  2  1  0
 10 11  1  0
 11 13  1  0
 12 11  2  0
 14 13  1  1
 14 15  1  0
 15  8  1  0
 16 14  1  0
 17 16  2  0
 18 19  1  0
 18 16  1  0
 20 19  1  0
 21 20  1  0
 22 21  1  0
 22 18  1  0
 22 23  1  1
 24 23  1  0
 25 23  2  0
M  END
$$$$
