EGF.pdb
     RDKit          3D

 25 25  0  0  1  0  0  0  0  0999 V2000
   21.0058  -22.7512  -13.2671 N   0  0  0  0  0  0  0  0  0  0  0  0
   21.0245  -23.3122  -14.5781 C   0  0  1  0  0  0  0  0  0  0  0  0
   20.1235  -22.5652  -15.5240 C   0  0  0  0  0  0  0  0  0  0  0  0
   20.0021  -21.1147  -15.1760 C   0  0  0  0  0  0  0  0  0  0  0  0
   18.6896  -20.8576  -14.5821 C   0  0  0  0  0  0  0  0  0  0  0  0
   18.5989  -20.5340  -13.3732 O   0  0  0  0  0  0  0  0  0  0  0  0
   22.4046  -23.4547  -15.1229 C   0  0  0  0  0  0  0  0  0  0  0  0
   22.5652  -23.9365  -16.2661 O   0  0  0  0  0  0  0  0  0  0  0  0
   17.4959  -20.9570  -15.3145 O   0  0  0  0  0  0  0  0  0  0  0  0
   23.5578  -23.0643  -14.3959 N   0  0  0  0  0  0  0  0  0  0  0  0
   24.8383  -22.8163  -14.9739 C   0  0  0  0  0  0  0  0  0  0  0  0
   25.2094  -21.3738  -14.9670 C   0  0  0  0  0  0  0  0  0  0  0  0
   24.2859  -20.5309  -15.0580 O   0  0  0  0  0  0  0  0  0  0  0  0
   26.5533  -20.9304  -14.8624 N   0  0  0  0  0  0  0  0  0  0  0  0
   26.9132  -19.5172  -14.7353 C   0  0  1  0  0  0  0  0  0  0  0  0
   27.6988  -19.2525  -13.5065 C   0  0  0  0  0  0  0  0  0  0  0  0
   27.1074  -19.9310  -12.3445 C   0  0  0  0  0  0  0  0  0  0  0  0
   27.7478  -21.0545  -11.8088 C   0  0  0  0  0  0  0  0  0  0  0  0
   27.2569  -21.7161  -10.7033 C   0  0  0  0  0  0  0  0  0  0  0  0
   26.0875  -21.2725  -10.0803 C   0  0  0  0  0  0  0  0  0  0  0  0
   25.4539  -20.1771  -10.5942 C   0  0  0  0  0  0  0  0  0  0  0  0
   25.9589  -19.5424  -11.6858 C   0  0  0  0  0  0  0  0  0  0  0  0
   27.5841  -19.0151  -15.9284 C   0  0  0  0  0  0  0  0  0  0  0  0
   27.9713  -19.7815  -16.8374 O   0  0  0  0  0  0  0  0  0  0  0  0
   27.8433  -17.6552  -16.1462 O   0  0  0  0  0  0  0  0  0  0  0  0
  2  1  1  1
  2  3  1  0
  2  7  1  0
  3  4  1  0
  4  5  1  0
  5  6  2  0
  5  9  1  0
  7 10  1  0
  7  8  2  0
 10 11  1  0
 11 12  1  0
 12 14  1  0
 13 12  2  0
 14 15  1  0
 15 23  1  0
 16 17  1  0
 15 16  1  1
 17 22  2  0
 18 19  2  0
 18 17  1  0
 19 20  1  0
 20 21  2  0
 22 21  1  0
 23 24  2  0
 23 25  1  0
M  END
$$$$
