EGF.pdb
     RDKit          3D

 25 25  0  0  1  0  0  0  0  0999 V2000
   27.9915  -20.7645  -17.0462 N   0  0  0  0  0  0  0  0  0  0  0  0
   27.7751  -19.3992  -16.6957 C   0  0  1  0  0  0  0  0  0  0  0  0
   26.5047  -18.8580  -17.2937 C   0  0  0  0  0  0  0  0  0  0  0  0
   25.4410  -19.9028  -17.4237 C   0  0  0  0  0  0  0  0  0  0  0  0
   24.1717  -19.3810  -16.9155 C   0  0  0  0  0  0  0  0  0  0  0  0
   23.2177  -19.1711  -17.7031 O   0  0  0  0  0  0  0  0  0  0  0  0
   27.8388  -19.1662  -15.2247 C   0  0  0  0  0  0  0  0  0  0  0  0
   27.6768  -18.0080  -14.7804 O   0  0  0  0  0  0  0  0  0  0  0  0
   23.9613  -19.0959  -15.5569 O   0  0  0  0  0  0  0  0  0  0  0  0
   28.0776  -20.2097  -14.2949 N   0  0  0  0  0  0  0  0  0  0  0  0
   28.1358  -20.0404  -12.8796 C   0  0  0  0  0  0  0  0  0  0  0  0
   27.0095  -20.7062  -12.1678 C   0  0  0  0  0  0  0  0  0  0  0  0
   26.5751  -21.7842  -12.6378 O   0  0  0  0  0  0  0  0  0  0  0  0
   26.4220  -20.1679  -10.9936 N   0  0  0  0  0  0  0  0  0  0  0  0
   25.3548  -20.8487  -10.2586 C   0  0  1  0  0  0  0  0  0  0  0  0
   25.3094  -20.4358   -8.8357 C   0  0  0  0  0  0  0  0  0  0  0  0
   26.6583  -20.3975   -8.2531 C   0  0  0  0  0  0  0  0  0  0  0  0
   27.0381  -19.2956   -7.4780 C   0  0  0  0  0  0  0  0  0  0  0  0
   28.2790  -19.2153   -6.8824 C   0  0  0  0  0  0  0  0  0  0  0  0
   29.2034  -20.2509   -7.0416 C   0  0  0  0  0  0  0  0  0  0  0  0
   28.8440  -21.3314   -7.7959 C   0  0  0  0  0  0  0  0  0  0  0  0
   27.6136  -21.3860   -8.3726 C   0  0  0  0  0  0  0  0  0  0  0  0
   24.0596  -20.6965  -10.9106 C   0  0  0  0  0  0  0  0  0  0  0  0
   23.8888  -19.8961  -11.8559 O   0  0  0  0  0  0  0  0  0  0  0  0
   22.9226  -21.4241  -10.5344 O   0  0  0  0  0  0  0  0  0  0  0  0
  2  1  1  1
  2  3  1  0
  2  7  1  0
  3  4  1  0
  4  5  1  0
  5  6  2  0
  5  9  1  0
  7 10  1  0
  7  8  2  0
 10 11  1  0
 11 12  1  0
 12 14  1  0
 13 12  2  0
 14 15  1  0
 15 23  1  0
 16 17  1  0
 15 16  1  1
 17 22  2  0
 18 19  2  0
 18 17  1  0
 19 20  1  0
 20 21  2  0
 22 21  1  0
 23 24  2  0
 23 25  1  0
M  END
$$$$
