EGF.pdb
     RDKit          3D

 25 25  0  0  1  0  0  0  0  0999 V2000
   20.1876  -19.9091  -15.0271 N   0  0  0  0  0  0  0  0  0  0  0  0
   19.7408  -20.4938  -13.8054 C   0  0  1  0  0  0  0  0  0  0  0  0
   18.6638  -21.5199  -14.0321 C   0  0  0  0  0  0  0  0  0  0  0  0
   17.2897  -20.9667  -13.8183 C   0  0  0  0  0  0  0  0  0  0  0  0
   16.7628  -20.4510  -15.0824 C   0  0  0  0  0  0  0  0  0  0  0  0
   16.3557  -19.2665  -15.1573 O   0  0  0  0  0  0  0  0  0  0  0  0
   20.8604  -21.0369  -12.9848 C   0  0  0  0  0  0  0  0  0  0  0  0
   20.6125  -21.8711  -12.0861 O   0  0  0  0  0  0  0  0  0  0  0  0
   16.6877  -21.2337  -16.2455 O   0  0  0  0  0  0  0  0  0  0  0  0
   22.2098  -20.6467  -13.1785 N   0  0  0  0  0  0  0  0  0  0  0  0
   23.3428  -21.4592  -12.8764 C   0  0  0  0  0  0  0  0  0  0  0  0
   24.6377  -20.7727  -13.1416 C   0  0  0  0  0  0  0  0  0  0  0  0
   24.6970  -19.9923  -14.1210 O   0  0  0  0  0  0  0  0  0  0  0  0
   25.7877  -20.9705  -12.3341 N   0  0  0  0  0  0  0  0  0  0  0  0
   27.1263  -20.5433  -12.7444 C   0  0  1  0  0  0  0  0  0  0  0  0
   27.6771  -19.5019  -11.8449 C   0  0  0  0  0  0  0  0  0  0  0  0
   27.5694  -19.9090  -10.4367 C   0  0  0  0  0  0  0  0  0  0  0  0
   28.7280  -20.2657   -9.7368 C   0  0  0  0  0  0  0  0  0  0  0  0
   28.6944  -20.6291   -8.4072 C   0  0  0  0  0  0  0  0  0  0  0  0
   27.4810  -20.6501   -7.7146 C   0  0  0  0  0  0  0  0  0  0  0  0
   26.3439  -20.3038   -8.3872 C   0  0  0  0  0  0  0  0  0  0  0  0
   26.4042  -19.9492   -9.6987 C   0  0  0  0  0  0  0  0  0  0  0  0
   28.0380  -21.6715  -12.8928 C   0  0  0  0  0  0  0  0  0  0  0  0
   27.7577  -22.8067  -12.4501 O   0  0  0  0  0  0  0  0  0  0  0  0
   29.2805  -21.5728  -13.5334 O   0  0  0  0  0  0  0  0  0  0  0  0
  2  1  1  6
  2  3  1  0
  2  7  1  0
  3  4  1  0
  4  5  1  0
  5  6  2  0
  5  9  1  0
  7 10  1  0
  7  8  2  0
 10 11  1  0
 11 12  1  0
 12 14  1  0
 13 12  2  0
 14 15  1  0
 15 23  1  0
 16 17  1  0
 15 16  1  1
 17 22  2  0
 18 19  2  0
 18 17  1  0
 19 20  1  0
 20 21  2  0
 22 21  1  0
 23 24  2  0
 23 25  1  0
M  END
$$$$
