EGF.pdb
     RDKit          3D

 25 25  0  0  1  0  0  0  0  0999 V2000
   20.2563  -21.7668  -14.7649 N   0  0  0  0  0  0  0  0  0  0  0  0
   20.4560  -20.8026  -13.7332 C   0  0  1  0  0  0  0  0  0  0  0  0
   19.3096  -20.7739  -12.7588 C   0  0  0  0  0  0  0  0  0  0  0  0
   18.0666  -21.3934  -13.3164 C   0  0  0  0  0  0  0  0  0  0  0  0
   17.3169  -20.3950  -14.0796 C   0  0  0  0  0  0  0  0  0  0  0  0
   16.2466  -20.7142  -14.6515 O   0  0  0  0  0  0  0  0  0  0  0  0
   21.7671  -20.9628  -13.0425 C   0  0  0  0  0  0  0  0  0  0  0  0
   22.1198  -20.1145  -12.1933 O   0  0  0  0  0  0  0  0  0  0  0  0
   17.7447  -19.0640  -14.2080 O   0  0  0  0  0  0  0  0  0  0  0  0
   22.6435  -22.0457  -13.3070 N   0  0  0  0  0  0  0  0  0  0  0  0
   23.9770  -22.1525  -12.8114 C   0  0  0  0  0  0  0  0  0  0  0  0
   24.9301  -21.2434  -13.5069 C   0  0  0  0  0  0  0  0  0  0  0  0
   24.5002  -20.5750  -14.4766 O   0  0  0  0  0  0  0  0  0  0  0  0
   26.2871  -21.1119  -13.1134 N   0  0  0  0  0  0  0  0  0  0  0  0
   27.2217  -20.2064  -13.7837 C   0  0  1  0  0  0  0  0  0  0  0  0
   28.2704  -19.7086  -12.8621 C   0  0  0  0  0  0  0  0  0  0  0  0
   27.9677  -20.0729  -11.4706 C   0  0  0  0  0  0  0  0  0  0  0  0
   28.8466  -20.9122  -10.7761 C   0  0  0  0  0  0  0  0  0  0  0  0
   28.6312  -21.2664   -9.4612 C   0  0  0  0  0  0  0  0  0  0  0  0
   27.5103  -20.7870   -8.7786 C   0  0  0  0  0  0  0  0  0  0  0  0
   26.6456  -19.9671   -9.4460 C   0  0  0  0  0  0  0  0  0  0  0  0
   26.8809  -19.6329  -10.7431 C   0  0  0  0  0  0  0  0  0  0  0  0
   27.7923  -20.8024  -14.9858 C   0  0  0  0  0  0  0  0  0  0  0  0
   27.8535  -22.0417  -15.1404 O   0  0  0  0  0  0  0  0  0  0  0  0
   28.3088  -20.0445  -16.0453 O   0  0  0  0  0  0  0  0  0  0  0  0
  2  1  1  6
  2  3  1  0
  2  7  1  0
  3  4  1  0
  4  5  1  0
  5  6  2  0
  5  9  1  0
  7 10  1  0
  7  8  2  0
 10 11  1  0
 11 12  1  0
 12 14  1  0
 13 12  2  0
 14 15  1  0
 15 23  1  0
 16 17  1  0
 15 16  1  1
 17 22  2  0
 18 19  2  0
 18 17  1  0
 19 20  1  0
 20 21  2  0
 22 21  1  0
 23 24  2  0
 23 25  1  0
M  END
$$$$
