EGF.pdb
     RDKit          3D

 25 25  0  0  1  0  0  0  0  0999 V2000
   27.2508  -21.7545  -17.9278 N   0  0  0  0  0  0  0  0  0  0  0  0
   28.2451  -20.7964  -17.5713 C   0  0  1  0  0  0  0  0  0  0  0  0
   28.4803  -19.7931  -18.6679 C   0  0  0  0  0  0  0  0  0  0  0  0
   27.3001  -19.6491  -19.5770 C   0  0  0  0  0  0  0  0  0  0  0  0
   26.3402  -18.7103  -18.9950 C   0  0  0  0  0  0  0  0  0  0  0  0
   26.6354  -17.4956  -18.8865 O   0  0  0  0  0  0  0  0  0  0  0  0
   27.9642  -20.1349  -16.2654 C   0  0  0  0  0  0  0  0  0  0  0  0
   27.2241  -19.1267  -16.2361 O   0  0  0  0  0  0  0  0  0  0  0  0
   25.0734  -19.1094  -18.5400 O   0  0  0  0  0  0  0  0  0  0  0  0
   28.5038  -20.6016  -15.0401 N   0  0  0  0  0  0  0  0  0  0  0  0
   28.2060  -20.0512  -13.7581 C   0  0  0  0  0  0  0  0  0  0  0  0
   27.0759  -20.7423  -13.0771 C   0  0  0  0  0  0  0  0  0  0  0  0
   26.4058  -21.5658  -13.7439 O   0  0  0  0  0  0  0  0  0  0  0  0
   26.7389  -20.5022  -11.7198 N   0  0  0  0  0  0  0  0  0  0  0  0
   25.6680  -21.2236  -11.0303 C   0  0  1  0  0  0  0  0  0  0  0  0
   26.1627  -21.9365   -9.8286 C   0  0  0  0  0  0  0  0  0  0  0  0
   26.8657  -21.0184   -8.9212 C   0  0  0  0  0  0  0  0  0  0  0  0
   28.2566  -21.1119   -8.7954 C   0  0  0  0  0  0  0  0  0  0  0  0
   28.9745  -20.2609   -7.9822 C   0  0  0  0  0  0  0  0  0  0  0  0
   28.3185  -19.2670   -7.2513 C   0  0  0  0  0  0  0  0  0  0  0  0
   26.9612  -19.1662   -7.3661 C   0  0  0  0  0  0  0  0  0  0  0  0
   26.2765  -20.0181   -8.1753 C   0  0  0  0  0  0  0  0  0  0  0  0
   24.5368  -20.3571  -10.7213 C   0  0  0  0  0  0  0  0  0  0  0  0
   24.6336  -19.1110  -10.7563 O   0  0  0  0  0  0  0  0  0  0  0  0
   23.2722  -20.8459  -10.3665 O   0  0  0  0  0  0  0  0  0  0  0  0
  2  1  1  6
  2  3  1  0
  2  7  1  0
  3  4  1  0
  4  5  1  0
  5  6  2  0
  5  9  1  0
  7 10  1  0
  7  8  2  0
 10 11  1  0
 11 12  1  0
 12 14  1  0
 13 12  2  0
 14 15  1  0
 15 23  1  0
 16 17  1  0
 15 16  1  1
 17 22  2  0
 18 19  2  0
 18 17  1  0
 19 20  1  0
 20 21  2  0
 22 21  1  0
 23 24  2  0
 23 25  1  0
M  END
$$$$
