EGF.pdb
     RDKit          3D

 25 25  0  0  1  0  0  0  0  0999 V2000
   23.0622  -18.8882  -14.8835 N   0  0  0  0  0  0  0  0  0  0  0  0
   24.0447  -19.8960  -15.1140 C   0  0  1  0  0  0  0  0  0  0  0  0
   24.6802  -19.7638  -16.4716 C   0  0  0  0  0  0  0  0  0  0  0  0
   25.1132  -18.3624  -16.7687 C   0  0  0  0  0  0  0  0  0  0  0  0
   24.1405  -17.7225  -17.6552 C   0  0  0  0  0  0  0  0  0  0  0  0
   23.7125  -18.3333  -18.6644 O   0  0  0  0  0  0  0  0  0  0  0  0
   25.0641  -19.9641  -14.0287 C   0  0  0  0  0  0  0  0  0  0  0  0
   25.9329  -20.8636  -14.0599 O   0  0  0  0  0  0  0  0  0  0  0  0
   23.6489  -16.4271  -17.4287 O   0  0  0  0  0  0  0  0  0  0  0  0
   25.0945  -19.0449  -12.9494 N   0  0  0  0  0  0  0  0  0  0  0  0
   26.0821  -19.0316  -11.9200 C   0  0  0  0  0  0  0  0  0  0  0  0
   25.7981  -20.0058  -10.8296 C   0  0  0  0  0  0  0  0  0  0  0  0
   24.7061  -20.6207  -10.8633 O   0  0  0  0  0  0  0  0  0  0  0  0
   26.7094  -20.2559   -9.7710 N   0  0  0  0  0  0  0  0  0  0  0  0
   26.4767  -21.2800   -8.7513 C   0  0  1  0  0  0  0  0  0  0  0  0
   27.7232  -21.6475   -8.0386 C   0  0  0  0  0  0  0  0  0  0  0  0
   27.9999  -20.7109   -6.9401 C   0  0  0  0  0  0  0  0  0  0  0  0
   27.6168  -19.3709   -7.0702 C   0  0  0  0  0  0  0  0  0  0  0  0
   27.8239  -18.4518   -6.0636 C   0  0  0  0  0  0  0  0  0  0  0  0
   28.4321  -18.8435   -4.8682 C   0  0  0  0  0  0  0  0  0  0  0  0
   28.8102  -20.1487   -4.7297 C   0  0  0  0  0  0  0  0  0  0  0  0
   28.5945  -21.0355   -5.7379 C   0  0  0  0  0  0  0  0  0  0  0  0
   25.4142  -20.8997   -7.8279 C   0  0  0  0  0  0  0  0  0  0  0  0
   24.9755  -19.7301   -7.7753 O   0  0  0  0  0  0  0  0  0  0  0  0
   24.8112  -21.8018   -6.9411 O   0  0  0  0  0  0  0  0  0  0  0  0
  2  1  1  1
  2  3  1  0
  2  7  1  0
  3  4  1  0
  4  5  1  0
  5  6  2  0
  5  9  1  0
  7 10  1  0
  7  8  2  0
 10 11  1  0
 11 12  1  0
 12 14  1  0
 13 12  2  0
 14 15  1  0
 15 23  1  0
 16 17  1  0
 15 16  1  1
 17 22  2  0
 18 19  2  0
 18 17  1  0
 19 20  1  0
 20 21  2  0
 22 21  1  0
 23 24  2  0
 23 25  1  0
M  END
$$$$
