EGF.pdb
     RDKit          3D

 25 25  0  0  1  0  0  0  0  0999 V2000
   18.0338  -11.5902  -18.2260 N   0  0  0  0  0  0  0  0  0  0  0  0
   19.4297  -11.8819  -18.2118 C   0  0  1  0  0  0  0  0  0  0  0  0
   19.8431  -12.7176  -19.3930 C   0  0  0  0  0  0  0  0  0  0  0  0
   19.3476  -14.1268  -19.3006 C   0  0  0  0  0  0  0  0  0  0  0  0
   20.2633  -14.9193  -18.4791 C   0  0  0  0  0  0  0  0  0  0  0  0
   21.4257  -15.1591  -18.8861 O   0  0  0  0  0  0  0  0  0  0  0  0
   20.2713  -10.6591  -18.0760 C   0  0  0  0  0  0  0  0  0  0  0  0
   21.5014  -10.7804  -17.8837 O   0  0  0  0  0  0  0  0  0  0  0  0
   19.8985  -15.4383  -17.2266 O   0  0  0  0  0  0  0  0  0  0  0  0
   19.7348   -9.3489  -18.1557 N   0  0  0  0  0  0  0  0  0  0  0  0
   20.5052   -8.1497  -18.0959 C   0  0  0  0  0  0  0  0  0  0  0  0
   20.5608   -7.5622  -16.7283 C   0  0  0  0  0  0  0  0  0  0  0  0
   19.5771   -7.7437  -15.9725 O   0  0  0  0  0  0  0  0  0  0  0  0
   21.6736   -6.8158  -16.2612 N   0  0  0  0  0  0  0  0  0  0  0  0
   21.7427   -6.2600  -14.9088 C   0  0  1  0  0  0  0  0  0  0  0  0
   22.2848   -7.2362  -13.9341 C   0  0  0  0  0  0  0  0  0  0  0  0
   23.4147   -7.9824  -14.5060 C   0  0  0  0  0  0  0  0  0  0  0  0
   23.4451   -9.3767  -14.3859 C   0  0  0  0  0  0  0  0  0  0  0  0
   24.4634  -10.1335  -14.9256 C   0  0  0  0  0  0  0  0  0  0  0  0
   25.5079   -9.5151  -15.6177 C   0  0  0  0  0  0  0  0  0  0  0  0
   25.4889   -8.1550  -15.7414 C   0  0  0  0  0  0  0  0  0  0  0  0
   24.4727   -7.4316  -15.1996 C   0  0  0  0  0  0  0  0  0  0  0  0
   22.4693   -4.9963  -14.8743 C   0  0  0  0  0  0  0  0  0  0  0  0
   23.0892   -4.5662  -15.8713 O   0  0  0  0  0  0  0  0  0  0  0  0
   22.5285   -4.1778  -13.7383 O   0  0  0  0  0  0  0  0  0  0  0  0
  2  1  1  6
  2  3  1  0
  2  7  1  0
  3  4  1  0
  4  5  1  0
  5  6  2  0
  5  9  1  0
  7 10  1  0
  7  8  2  0
 10 11  1  0
 11 12  1  0
 12 14  1  0
 13 12  2  0
 14 15  1  0
 15 23  1  0
 16 17  1  0
 15 16  1  1
 17 22  2  0
 18 19  2  0
 18 17  1  0
 19 20  1  0
 20 21  2  0
 22 21  1  0
 23 24  2  0
 23 25  1  0
M  END
$$$$
