EGF.pdb
     RDKit          3D

 25 25  0  0  1  0  0  0  0  0999 V2000
   25.1933  -20.3745  -16.4072 N   0  0  0  0  0  0  0  0  0  0  0  0
   26.4209  -21.0928  -16.5118 C   0  0  1  0  0  0  0  0  0  0  0  0
   27.2682  -20.5981  -17.6527 C   0  0  0  0  0  0  0  0  0  0  0  0
   26.7730  -19.3030  -18.2160 C   0  0  0  0  0  0  0  0  0  0  0  0
   27.8074  -18.7043  -19.0605 C   0  0  0  0  0  0  0  0  0  0  0  0
   28.2777  -17.5767  -18.7744 O   0  0  0  0  0  0  0  0  0  0  0  0
   27.1803  -21.1232  -15.2295 C   0  0  0  0  0  0  0  0  0  0  0  0
   28.1593  -21.8937  -15.1155 O   0  0  0  0  0  0  0  0  0  0  0  0
   28.3134  -19.3432  -20.2036 O   0  0  0  0  0  0  0  0  0  0  0  0
   26.8399  -20.3090  -14.1197 N   0  0  0  0  0  0  0  0  0  0  0  0
   27.4440  -20.3974  -12.8303 C   0  0  0  0  0  0  0  0  0  0  0  0
   26.5433  -20.9964  -11.8064 C   0  0  0  0  0  0  0  0  0  0  0  0
   26.4831  -22.2469  -11.7389 O   0  0  0  0  0  0  0  0  0  0  0  0
   25.7639  -20.2096  -10.9192 N   0  0  0  0  0  0  0  0  0  0  0  0
   24.8092  -20.7923   -9.9748 C   0  0  1  0  0  0  0  0  0  0  0  0
   24.7702  -20.0476   -8.6939 C   0  0  0  0  0  0  0  0  0  0  0  0
   26.1272  -19.7716   -8.2013 C   0  0  0  0  0  0  0  0  0  0  0  0
   26.8750  -20.8114   -7.6364 C   0  0  0  0  0  0  0  0  0  0  0  0
   28.1629  -20.6209   -7.1826 C   0  0  0  0  0  0  0  0  0  0  0  0
   28.7628  -19.3625   -7.2777 C   0  0  0  0  0  0  0  0  0  0  0  0
   28.0428  -18.3402   -7.8272 C   0  0  0  0  0  0  0  0  0  0  0  0
   26.7740  -18.5545   -8.2673 C   0  0  0  0  0  0  0  0  0  0  0  0
   23.4817  -20.9376  -10.5601 C   0  0  0  0  0  0  0  0  0  0  0  0
   23.2046  -20.4714  -11.6867 O   0  0  0  0  0  0  0  0  0  0  0  0
   22.4290  -21.6010   -9.9154 O   0  0  0  0  0  0  0  0  0  0  0  0
  2  1  1  1
  2  3  1  0
  2  7  1  0
  3  4  1  0
  4  5  1  0
  5  6  2  0
  5  9  1  0
  7 10  1  0
  7  8  2  0
 10 11  1  0
 11 12  1  0
 12 14  1  0
 13 12  2  0
 14 15  1  0
 15 23  1  0
 16 17  1  0
 15 16  1  1
 17 22  2  0
 18 19  2  0
 18 17  1  0
 19 20  1  0
 20 21  2  0
 22 21  1  0
 23 24  2  0
 23 25  1  0
M  END
$$$$
