EGF.pdb
     RDKit          3D

 25 25  0  0  1  0  0  0  0  0999 V2000
   26.2192  -21.4236  -16.6903 N   0  0  0  0  0  0  0  0  0  0  0  0
   27.6051  -21.6569  -16.4484 C   0  0  1  0  0  0  0  0  0  0  0  0
   28.4760  -21.0147  -17.4941 C   0  0  0  0  0  0  0  0  0  0  0  0
   28.1823  -21.5168  -18.8731 C   0  0  0  0  0  0  0  0  0  0  0  0
   27.2353  -20.6183  -19.5344 C   0  0  0  0  0  0  0  0  0  0  0  0
   27.4926  -19.3940  -19.6307 O   0  0  0  0  0  0  0  0  0  0  0  0
   28.0206  -21.2737  -15.0691 C   0  0  0  0  0  0  0  0  0  0  0  0
   29.1887  -21.5151  -14.6919 O   0  0  0  0  0  0  0  0  0  0  0  0
   26.0224  -21.0675  -20.0806 O   0  0  0  0  0  0  0  0  0  0  0  0
   27.1418  -20.6405  -14.1540 N   0  0  0  0  0  0  0  0  0  0  0  0
   27.4590  -20.3425  -12.7954 C   0  0  0  0  0  0  0  0  0  0  0  0
   26.4735  -20.9062  -11.8313 C   0  0  0  0  0  0  0  0  0  0  0  0
   25.9915  -22.0365  -12.0801 O   0  0  0  0  0  0  0  0  0  0  0  0
   26.0693  -20.2159  -10.6593 N   0  0  0  0  0  0  0  0  0  0  0  0
   25.0438  -20.7314   -9.7507 C   0  0  1  0  0  0  0  0  0  0  0  0
   25.0328  -20.0074   -8.4574 C   0  0  0  0  0  0  0  0  0  0  0  0
   26.3925  -19.8725   -7.9156 C   0  0  0  0  0  0  0  0  0  0  0  0
   27.0467  -21.0057   -7.4184 C   0  0  0  0  0  0  0  0  0  0  0  0
   28.3323  -20.9476   -6.9234 C   0  0  0  0  0  0  0  0  0  0  0  0
   29.0247  -19.7342   -6.9063 C   0  0  0  0  0  0  0  0  0  0  0  0
   28.3965  -18.6216   -7.3889 C   0  0  0  0  0  0  0  0  0  0  0  0
   27.1279  -18.7058   -7.8717 C   0  0  0  0  0  0  0  0  0  0  0  0
   23.7250  -20.7543  -10.3723 C   0  0  0  0  0  0  0  0  0  0  0  0
   23.4996  -20.1780  -11.4588 O   0  0  0  0  0  0  0  0  0  0  0  0
   22.6243  -21.4138   -9.8091 O   0  0  0  0  0  0  0  0  0  0  0  0
  2  1  1  6
  2  3  1  0
  2  7  1  0
  3  4  1  0
  4  5  1  0
  5  6  2  0
  5  9  1  0
  7 10  1  0
  7  8  2  0
 10 11  1  0
 11 12  1  0
 12 14  1  0
 13 12  2  0
 14 15  1  0
 15 23  1  0
 16 17  1  0
 15 16  1  1
 17 22  2  0
 18 19  2  0
 18 17  1  0
 19 20  1  0
 20 21  2  0
 22 21  1  0
 23 24  2  0
 23 25  1  0
M  END
$$$$
