EGF.pdb
     RDKit          3D

 25 25  0  0  1  0  0  0  0  0999 V2000
   28.3735  -20.5278  -17.1164 N   0  0  0  0  0  0  0  0  0  0  0  0
   28.5190  -19.1515  -16.7722 C   0  0  1  0  0  0  0  0  0  0  0  0
   28.8983  -18.3100  -17.9607 C   0  0  0  0  0  0  0  0  0  0  0  0
   28.1299  -18.6758  -19.1917 C   0  0  0  0  0  0  0  0  0  0  0  0
   26.8670  -17.9371  -19.2231 C   0  0  0  0  0  0  0  0  0  0  0  0
   25.7830  -18.5361  -19.0217 O   0  0  0  0  0  0  0  0  0  0  0  0
   27.3253  -18.6064  -16.0651 C   0  0  0  0  0  0  0  0  0  0  0  0
   26.7242  -17.6213  -16.5480 O   0  0  0  0  0  0  0  0  0  0  0  0
   26.8045  -16.5570  -19.4736 O   0  0  0  0  0  0  0  0  0  0  0  0
   26.8341  -19.1600  -14.8556 N   0  0  0  0  0  0  0  0  0  0  0  0
   25.6529  -18.7263  -14.1833 C   0  0  0  0  0  0  0  0  0  0  0  0
   24.8797  -19.8494  -13.5839 C   0  0  0  0  0  0  0  0  0  0  0  0
   24.8751  -20.9466  -14.1904 O   0  0  0  0  0  0  0  0  0  0  0  0
   24.1599  -19.7192  -12.3680 N   0  0  0  0  0  0  0  0  0  0  0  0
   23.4142  -20.8261  -11.7669 C   0  0  1  0  0  0  0  0  0  0  0  0
   23.7369  -20.9980  -10.3304 C   0  0  0  0  0  0  0  0  0  0  0  0
   25.1796  -20.8499  -10.0913 C   0  0  0  0  0  0  0  0  0  0  0  0
   25.6288  -19.8647   -9.2043 C   0  0  0  0  0  0  0  0  0  0  0  0
   26.9669  -19.6960   -8.9180 C   0  0  0  0  0  0  0  0  0  0  0  0
   27.9233  -20.5196   -9.5175 C   0  0  0  0  0  0  0  0  0  0  0  0
   27.4968  -21.4846  -10.3848 C   0  0  0  0  0  0  0  0  0  0  0  0
   26.1709  -21.6303  -10.6502 C   0  0  0  0  0  0  0  0  0  0  0  0
   21.9788  -20.7030  -11.9909 C   0  0  0  0  0  0  0  0  0  0  0  0
   21.4653  -19.6381  -12.3980 O   0  0  0  0  0  0  0  0  0  0  0  0
   21.0765  -21.7524  -11.7706 O   0  0  0  0  0  0  0  0  0  0  0  0
  2  1  1  6
  2  3  1  0
  2  7  1  0
  3  4  1  0
  4  5  1  0
  5  6  2  0
  5  9  1  0
  7 10  1  0
  7  8  2  0
 10 11  1  0
 11 12  1  0
 12 14  1  0
 13 12  2  0
 14 15  1  0
 15 23  1  0
 16 17  1  0
 15 16  1  1
 17 22  2  0
 18 19  2  0
 18 17  1  0
 19 20  1  0
 20 21  2  0
 22 21  1  0
 23 24  2  0
 23 25  1  0
M  END
$$$$
