EGF.pdb
     RDKit          3D

 25 25  0  0  1  0  0  0  0  0999 V2000
   25.2884  -24.5888  -20.8458 N   0  0  0  0  0  0  0  0  0  0  0  0
   25.6408  -23.3017  -20.3426 C   0  0  1  0  0  0  0  0  0  0  0  0
   24.4833  -22.3414  -20.3904 C   0  0  0  0  0  0  0  0  0  0  0  0
   23.4061  -22.7869  -21.3290 C   0  0  0  0  0  0  0  0  0  0  0  0
   22.3893  -23.5386  -20.5925 C   0  0  0  0  0  0  0  0  0  0  0  0
   22.2770  -23.3944  -19.3511 O   0  0  0  0  0  0  0  0  0  0  0  0
   26.2548  -23.3632  -18.9857 C   0  0  0  0  0  0  0  0  0  0  0  0
   26.7645  -22.3307  -18.4967 O   0  0  0  0  0  0  0  0  0  0  0  0
   21.5104  -24.4359  -21.2198 O   0  0  0  0  0  0  0  0  0  0  0  0
   26.2881  -24.5527  -18.2147 N   0  0  0  0  0  0  0  0  0  0  0  0
   26.9143  -24.6778  -16.9390 C   0  0  0  0  0  0  0  0  0  0  0  0
   26.1346  -24.0372  -15.8435 C   0  0  0  0  0  0  0  0  0  0  0  0
   24.9990  -24.5009  -15.5843 O   0  0  0  0  0  0  0  0  0  0  0  0
   26.6281  -22.9366  -15.0960 N   0  0  0  0  0  0  0  0  0  0  0  0
   25.9037  -22.3616  -13.9613 C   0  0  1  0  0  0  0  0  0  0  0  0
   26.8225  -21.8019  -12.9417 C   0  0  0  0  0  0  0  0  0  0  0  0
   26.0753  -21.2523  -11.8016 C   0  0  0  0  0  0  0  0  0  0  0  0
   25.8670  -22.0507  -10.6708 C   0  0  0  0  0  0  0  0  0  0  0  0
   25.1984  -21.5820   -9.5598 C   0  0  0  0  0  0  0  0  0  0  0  0
   24.7042  -20.2753   -9.5362 C   0  0  0  0  0  0  0  0  0  0  0  0
   24.9014  -19.4869  -10.6339 C   0  0  0  0  0  0  0  0  0  0  0  0
   25.5643  -19.9734  -11.7171 C   0  0  0  0  0  0  0  0  0  0  0  0
   24.9059  -21.3876  -14.3874 C   0  0  0  0  0  0  0  0  0  0  0  0
   23.8547  -21.1955  -13.7382 O   0  0  0  0  0  0  0  0  0  0  0  0
   25.0451  -20.6029  -15.5400 O   0  0  0  0  0  0  0  0  0  0  0  0
  2  1  1  1
  2  3  1  0
  2  7  1  0
  3  4  1  0
  4  5  1  0
  5  6  2  0
  5  9  1  0
  7 10  1  0
  7  8  2  0
 10 11  1  0
 11 12  1  0
 12 14  1  0
 13 12  2  0
 14 15  1  0
 15 23  1  0
 16 17  1  0
 15 16  1  1
 17 22  2  0
 18 19  2  0
 18 17  1  0
 19 20  1  0
 20 21  2  0
 22 21  1  0
 23 24  2  0
 23 25  1  0
M  END
$$$$
