EGF.pdb
     RDKit          3D

 25 25  0  0  1  0  0  0  0  0999 V2000
   24.5392  -18.4996  -15.1816 N   0  0  0  0  0  0  0  0  0  0  0  0
   25.6944  -18.0639  -15.8954 C   0  0  1  0  0  0  0  0  0  0  0  0
   25.7169  -16.5699  -16.0738 C   0  0  0  0  0  0  0  0  0  0  0  0
   24.3726  -16.0134  -16.4249 C   0  0  0  0  0  0  0  0  0  0  0  0
   24.2253  -15.9595  -17.8798 C   0  0  0  0  0  0  0  0  0  0  0  0
   24.6422  -14.9624  -18.5175 O   0  0  0  0  0  0  0  0  0  0  0  0
   26.9634  -18.5703  -15.2995 C   0  0  0  0  0  0  0  0  0  0  0  0
   28.0571  -18.1824  -15.7666 O   0  0  0  0  0  0  0  0  0  0  0  0
   23.6260  -16.9927  -18.6178 O   0  0  0  0  0  0  0  0  0  0  0  0
   26.9879  -19.4827  -14.2142 N   0  0  0  0  0  0  0  0  0  0  0  0
   28.1737  -19.9801  -13.5965 C   0  0  0  0  0  0  0  0  0  0  0  0
   27.8999  -20.7642  -12.3601 C   0  0  0  0  0  0  0  0  0  0  0  0
   28.5392  -21.8289  -12.1882 O   0  0  0  0  0  0  0  0  0  0  0  0
   26.9538  -20.3513  -11.3864 N   0  0  0  0  0  0  0  0  0  0  0  0
   26.0507  -21.2863  -10.7135 C   0  0  1  0  0  0  0  0  0  0  0  0
   26.6968  -21.9452   -9.5536 C   0  0  0  0  0  0  0  0  0  0  0  0
   27.2480  -20.9520   -8.6208 C   0  0  0  0  0  0  0  0  0  0  0  0
   26.4545  -19.8679   -8.2278 C   0  0  0  0  0  0  0  0  0  0  0  0
   26.9056  -18.9196   -7.3343 C   0  0  0  0  0  0  0  0  0  0  0  0
   28.1888  -19.0204   -6.7905 C   0  0  0  0  0  0  0  0  0  0  0  0
   28.9721  -20.0741   -7.1666 C   0  0  0  0  0  0  0  0  0  0  0  0
   28.5033  -20.9960   -8.0497 C   0  0  0  0  0  0  0  0  0  0  0  0
   24.7872  -20.6573  -10.3474 C   0  0  0  0  0  0  0  0  0  0  0  0
   24.5354  -20.3239   -9.1689 O   0  0  0  0  0  0  0  0  0  0  0  0
   23.7723  -20.3818  -11.2735 O   0  0  0  0  0  0  0  0  0  0  0  0
  2  1  1  1
  2  3  1  0
  2  7  1  0
  3  4  1  0
  4  5  1  0
  5  6  2  0
  5  9  1  0
  7 10  1  0
  7  8  2  0
 10 11  1  0
 11 12  1  0
 12 14  1  0
 13 12  2  0
 14 15  1  0
 15 23  1  0
 16 17  1  0
 15 16  1  1
 17 22  2  0
 18 19  2  0
 18 17  1  0
 19 20  1  0
 20 21  2  0
 22 21  1  0
 23 24  2  0
 23 25  1  0
M  END
$$$$
