EGF.pdb
     RDKit          3D

 25 25  0  0  1  0  0  0  0  0999 V2000
   16.7250  -13.9854  -15.8144 N   0  0  0  0  0  0  0  0  0  0  0  0
   15.7980  -13.0773  -16.4059 C   0  0  1  0  0  0  0  0  0  0  0  0
   14.5106  -13.0011  -15.6305 C   0  0  0  0  0  0  0  0  0  0  0  0
   13.8788  -14.3434  -15.4335 C   0  0  0  0  0  0  0  0  0  0  0  0
   12.8374  -14.5515  -16.4403 C   0  0  0  0  0  0  0  0  0  0  0  0
   12.5431  -13.6306  -17.2402 O   0  0  0  0  0  0  0  0  0  0  0  0
   16.3852  -11.7273  -16.6399 C   0  0  0  0  0  0  0  0  0  0  0  0
   15.7452  -10.8892  -17.3130 O   0  0  0  0  0  0  0  0  0  0  0  0
   12.1325  -15.7598  -16.5601 O   0  0  0  0  0  0  0  0  0  0  0  0
   17.6511  -11.3449  -16.1283 N   0  0  0  0  0  0  0  0  0  0  0  0
   18.2943  -10.1000  -16.3960 C   0  0  0  0  0  0  0  0  0  0  0  0
   19.5385   -9.9057  -15.6006 C   0  0  0  0  0  0  0  0  0  0  0  0
   19.6794  -10.5871  -14.5578 O   0  0  0  0  0  0  0  0  0  0  0  0
   20.5531   -8.9888  -15.9795 N   0  0  0  0  0  0  0  0  0  0  0  0
   21.9309   -9.0878  -15.4952 C   0  0  1  0  0  0  0  0  0  0  0  0
   22.8484   -9.6131  -16.5340 C   0  0  0  0  0  0  0  0  0  0  0  0
   24.1971   -9.8254  -15.9896 C   0  0  0  0  0  0  0  0  0  0  0  0
   25.2436   -8.9967  -16.4109 C   0  0  0  0  0  0  0  0  0  0  0  0
   26.5235   -9.1287  -15.9155 C   0  0  0  0  0  0  0  0  0  0  0  0
   26.8112  -10.1106  -14.9640 C   0  0  0  0  0  0  0  0  0  0  0  0
   25.7980  -10.9252  -14.5452 C   0  0  0  0  0  0  0  0  0  0  0  0
   24.5441  -10.7742  -15.0496 C   0  0  0  0  0  0  0  0  0  0  0  0
   22.4056   -7.8271  -14.9374 C   0  0  0  0  0  0  0  0  0  0  0  0
   22.2949   -6.7487  -15.5606 O   0  0  0  0  0  0  0  0  0  0  0  0
   23.0137   -7.7272  -13.6788 O   0  0  0  0  0  0  0  0  0  0  0  0
  2  1  1  1
  2  3  1  0
  2  7  1  0
  3  4  1  0
  4  5  1  0
  5  6  2  0
  5  9  1  0
  7 10  1  0
  7  8  2  0
 10 11  1  0
 11 12  1  0
 12 14  1  0
 13 12  2  0
 14 15  1  0
 15 23  1  0
 16 17  1  0
 15 16  1  6
 17 22  2  0
 18 19  2  0
 18 17  1  0
 19 20  1  0
 20 21  2  0
 22 21  1  0
 23 24  2  0
 23 25  1  0
M  END
$$$$
