QIK.pdb
     RDKit          3D

 27 26  0  0  1  0  0  0  0  0999 V2000
   16.8724  -19.8433    9.1281 N   0  0  0  0  0  0  0  0  0  0  0  0
   15.7940  -19.9761    8.2124 C   0  0  0  0  0  0  0  0  0  0  0  0
   14.9099  -20.8386    8.4164 O   0  0  0  0  0  0  0  0  0  0  0  0
   15.7700  -19.0590    7.0264 C   0  0  0  0  0  0  0  0  0  0  0  0
   17.0051  -18.2154    7.0991 C   0  0  0  0  0  0  0  0  0  0  0  0
   17.1264  -17.2654    5.9519 C   0  0  2  0  0  0  0  0  0  0  0  0
   17.2427  -17.8854    4.6690 N   0  0  0  0  0  0  0  0  0  0  0  0
   18.3323  -16.3823    6.1698 C   0  0  0  0  0  0  0  0  0  0  0  0
   19.4394  -16.7031    5.6656 O   0  0  0  0  0  0  0  0  0  0  0  0
   18.3974  -11.7321    4.4923 C   0  0  0  0  0  0  0  0  0  0  0  0
   18.8250  -13.0315    5.0736 C   0  0  0  0  0  0  0  0  0  0  0  0
   19.1403  -12.9839    6.5602 C   0  0  2  0  0  0  0  0  0  0  0  0
   20.1430  -11.9363    6.8819 C   0  0  0  0  0  0  0  0  0  0  0  0
   19.4736  -14.3714    7.0689 C   0  0  2  0  0  0  0  0  0  0  0  0
   18.2426  -15.1984    6.9312 N   0  0  0  0  0  0  0  0  0  0  0  0
   19.9030  -14.4304    8.4721 C   0  0  0  0  0  0  0  0  0  0  0  0
   19.0092  -14.3180    9.3820 O   0  0  0  0  0  0  0  0  0  0  0  0
   21.2248  -14.6077    8.8991 N   0  0  0  0  0  0  0  0  0  0  0  0
   21.5804  -14.6340   10.3174 C   0  0  1  0  0  0  0  0  0  0  0  0
   22.8798  -15.3227   10.5476 C   0  0  0  0  0  0  0  0  0  0  0  0
   22.8227  -16.5464   11.3700 C   0  0  0  0  0  0  0  0  0  0  0  0
   24.0036  -17.3332   11.7206 C   0  0  0  0  0  0  0  0  0  0  0  0
   23.9141  -18.5369   12.5841 C   0  0  0  0  0  0  0  0  0  0  0  0
   25.2976  -19.0788   12.6793 N   0  0  0  0  0  0  0  0  0  0  0  0
   21.6721  -13.2038   10.8276 C   0  0  0  0  0  0  0  0  0  0  0  0
   22.1303  -12.2660   10.1666 O   0  0  0  0  0  0  0  0  0  0  0  0
   21.2045  -12.9890   12.1081 O   0  0  0  0  0  0  0  0  0  0  0  0
  1  2  1  0
  2  3  2  0
  4  2  1  0
  4  5  1  0
  6  7  1  6
  6  5  1  0
  8  6  1  0
  9  8  2  0
 11 10  1  0
 12 13  1  6
 12 14  1  0
 12 11  1  0
 14 15  1  1
 15  8  1  0
 16 14  1  0
 16 17  2  0
 18 16  1  0
 19 18  1  0
 19 20  1  6
 21 20  1  0
 22 23  1  0
 22 21  1  0
 23 24  1  0
 25 27  1  0
 25 19  1  0
 26 25  2  0
M  END
$$$$
