QIK.pdb
     RDKit          3D

 27 26  0  0  1  0  0  0  0  0999 V2000
   27.2950  -17.6555  -15.8226 N   0  0  0  0  0  0  0  0  0  0  0  0
   28.0164  -18.1112  -16.9590 C   0  0  0  0  0  0  0  0  0  0  0  0
   28.8605  -17.3611  -17.4993 O   0  0  0  0  0  0  0  0  0  0  0  0
   27.7237  -19.4930  -17.4620 C   0  0  0  0  0  0  0  0  0  0  0  0
   26.7297  -20.1010  -16.5213 C   0  0  0  0  0  0  0  0  0  0  0  0
   27.3699  -20.7130  -15.3177 C   0  0  2  0  0  0  0  0  0  0  0  0
   28.2078  -21.8387  -15.5907 N   0  0  0  0  0  0  0  0  0  0  0  0
   26.2913  -21.1403  -14.3504 C   0  0  0  0  0  0  0  0  0  0  0  0
   25.6303  -22.1866  -14.5760 O   0  0  0  0  0  0  0  0  0  0  0  0
   27.1955  -20.8551   -9.1790 C   0  0  0  0  0  0  0  0  0  0  0  0
   26.6331  -21.2462  -10.4981 C   0  0  0  0  0  0  0  0  0  0  0  0
   25.3448  -20.5301  -10.8716 C   0  0  2  0  0  0  0  0  0  0  0  0
   24.2879  -20.7172   -9.8449 C   0  0  0  0  0  0  0  0  0  0  0  0
   24.9384  -20.8886  -12.2862 C   0  0  2  0  0  0  0  0  0  0  0  0
   26.0082  -20.3862  -13.1926 N   0  0  0  0  0  0  0  0  0  0  0  0
   23.6628  -20.3115  -12.7296 C   0  0  0  0  0  0  0  0  0  0  0  0
   23.6019  -19.0445  -12.9044 O   0  0  0  0  0  0  0  0  0  0  0  0
   22.4971  -21.0443  -12.9849 N   0  0  0  0  0  0  0  0  0  0  0  0
   21.2532  -20.3957  -13.3981 C   0  0  1  0  0  0  0  0  0  0  0  0
   20.7320  -20.9631  -14.6718 C   0  0  0  0  0  0  0  0  0  0  0  0
   19.5073  -20.3345  -15.2028 C   0  0  0  0  0  0  0  0  0  0  0  0
   18.8271  -20.7972  -16.4110 C   0  0  0  0  0  0  0  0  0  0  0  0
   17.6632  -20.0732  -16.9800 C   0  0  0  0  0  0  0  0  0  0  0  0
   17.3302  -20.7668  -18.2547 N   0  0  0  0  0  0  0  0  0  0  0  0
   20.2144  -20.5822  -12.3025 C   0  0  0  0  0  0  0  0  0  0  0  0
   20.1876  -21.5524  -11.5382 O   0  0  0  0  0  0  0  0  0  0  0  0
   19.2671  -19.5844  -12.1934 O   0  0  0  0  0  0  0  0  0  0  0  0
  1  2  1  0
  2  3  2  0
  4  2  1  0
  4  5  1  0
  6  7  1  6
  6  5  1  0
  8  6  1  0
  9  8  2  0
 11 10  1  0
 12 13  1  1
 12 14  1  0
 12 11  1  0
 14 15  1  6
 15  8  1  0
 16 14  1  0
 16 17  2  0
 18 16  1  0
 19 18  1  0
 19 20  1  6
 21 20  1  0
 22 23  1  0
 22 21  1  0
 23 24  1  0
 25 27  1  0
 25 19  1  0
 26 25  2  0
M  END
$$$$
