QIK.pdb
     RDKit          3D

 27 26  0  0  1  0  0  0  0  0999 V2000
   15.2823   -1.7377  -13.9918 N   0  0  0  0  0  0  0  0  0  0  0  0
   14.6109   -0.7695  -13.1974 C   0  0  0  0  0  0  0  0  0  0  0  0
   14.0863    0.2263  -13.7454 O   0  0  0  0  0  0  0  0  0  0  0  0
   14.5645   -0.9946  -11.7157 C   0  0  0  0  0  0  0  0  0  0  0  0
   15.2934   -2.2742  -11.4434 C   0  0  0  0  0  0  0  0  0  0  0  0
   15.3418   -2.6153   -9.9893 C   0  0  2  0  0  0  0  0  0  0  0  0
   16.1390   -1.7357   -9.1926 N   0  0  0  0  0  0  0  0  0  0  0  0
   15.8725   -4.0206   -9.8310 C   0  0  0  0  0  0  0  0  0  0  0  0
   17.0727   -4.2001   -9.4990 O   0  0  0  0  0  0  0  0  0  0  0  0
   14.3385   -6.9775   -6.3044 C   0  0  0  0  0  0  0  0  0  0  0  0
   15.1242   -6.4459   -7.4487 C   0  0  0  0  0  0  0  0  0  0  0  0
   14.9060   -7.1837   -8.7601 C   0  0  2  0  0  0  0  0  0  0  0  0
   15.1718   -8.6392   -8.6291 C   0  0  0  0  0  0  0  0  0  0  0  0
   15.6544   -6.4913   -9.8806 C   0  0  2  0  0  0  0  0  0  0  0  0
   15.0458   -5.1423  -10.0489 N   0  0  0  0  0  0  0  0  0  0  0  0
   15.6000   -7.1766  -11.1783 C   0  0  0  0  0  0  0  0  0  0  0  0
   14.4770   -7.2187  -11.7920 O   0  0  0  0  0  0  0  0  0  0  0  0
   16.6907   -7.7890  -11.8078 N   0  0  0  0  0  0  0  0  0  0  0  0
   16.5451   -8.5176  -13.0675 C   0  0  1  0  0  0  0  0  0  0  0  0
   17.8465   -8.6597  -13.7760 C   0  0  0  0  0  0  0  0  0  0  0  0
   17.7906   -9.3070  -15.1007 C   0  0  0  0  0  0  0  0  0  0  0  0
   18.9602   -9.4760  -15.9610 C   0  0  0  0  0  0  0  0  0  0  0  0
   18.8345   -9.8921  -17.3800 C   0  0  0  0  0  0  0  0  0  0  0  0
   20.2255  -10.0473  -17.8880 N   0  0  0  0  0  0  0  0  0  0  0  0
   15.9792   -9.8987  -12.7737 C   0  0  0  0  0  0  0  0  0  0  0  0
   16.2597  -10.5568  -11.7665 O   0  0  0  0  0  0  0  0  0  0  0  0
   15.1061  -10.4055  -13.7147 O   0  0  0  0  0  0  0  0  0  0  0  0
  1  2  1  0
  2  3  2  0
  4  2  1  0
  4  5  1  0
  6  7  1  1
  6  5  1  0
  8  6  1  0
  9  8  2  0
 11 10  1  0
 12 13  1  1
 12 14  1  0
 12 11  1  0
 14 15  1  6
 15  8  1  0
 16 14  1  0
 16 17  2  0
 18 16  1  0
 19 18  1  0
 19 20  1  1
 21 20  1  0
 22 23  1  0
 22 21  1  0
 23 24  1  0
 25 27  1  0
 25 19  1  0
 26 25  2  0
M  END
$$$$
