QIK.pdb
     RDKit          3D

 27 26  0  0  1  0  0  0  0  0999 V2000
   27.1184  -11.5420  -16.3101 N   0  0  0  0  0  0  0  0  0  0  0  0
   26.8180  -12.9137  -16.0918 C   0  0  0  0  0  0  0  0  0  0  0  0
   27.7461  -13.7243  -15.8719 O   0  0  0  0  0  0  0  0  0  0  0  0
   25.3774  -13.3272  -16.1369 C   0  0  0  0  0  0  0  0  0  0  0  0
   24.5666  -12.0771  -16.2863 C   0  0  0  0  0  0  0  0  0  0  0  0
   23.1012  -12.3470  -16.4008 C   0  0  2  0  0  0  0  0  0  0  0  0
   22.7299  -13.1905  -17.4938 N   0  0  0  0  0  0  0  0  0  0  0  0
   22.3681  -11.0334  -16.5370 C   0  0  0  0  0  0  0  0  0  0  0  0
   22.1866  -10.5361  -17.6784 O   0  0  0  0  0  0  0  0  0  0  0  0
   18.3960  -11.5321  -15.7726 C   0  0  0  0  0  0  0  0  0  0  0  0
   18.9387  -10.2355  -16.2557 C   0  0  0  0  0  0  0  0  0  0  0  0
   19.6579   -9.4183  -15.1942 C   0  0  2  0  0  0  0  0  0  0  0  0
   18.8643   -8.2359  -14.7716 C   0  0  0  0  0  0  0  0  0  0  0  0
   21.0750   -9.1172  -15.6369 C   0  0  2  0  0  0  0  0  0  0  0  0
   21.8799  -10.3487  -15.4048 N   0  0  0  0  0  0  0  0  0  0  0  0
   21.7255   -8.0110  -14.9228 C   0  0  0  0  0  0  0  0  0  0  0  0
   22.1194   -8.2165  -13.7219 O   0  0  0  0  0  0  0  0  0  0  0  0
   21.9573   -6.7378  -15.4577 N   0  0  0  0  0  0  0  0  0  0  0  0
   22.5968   -5.6783  -14.6785 C   0  0  1  0  0  0  0  0  0  0  0  0
   23.0008   -4.5303  -15.5357 C   0  0  0  0  0  0  0  0  0  0  0  0
   21.8981   -3.7688  -16.1531 C   0  0  0  0  0  0  0  0  0  0  0  0
   22.1101   -2.6268  -17.0404 C   0  0  0  0  0  0  0  0  0  0  0  0
   20.9762   -1.8749  -17.6330 C   0  0  0  0  0  0  0  0  0  0  0  0
   21.5841   -0.8442  -18.5191 N   0  0  0  0  0  0  0  0  0  0  0  0
   21.6223   -5.1935  -13.6156 C   0  0  0  0  0  0  0  0  0  0  0  0
   20.4084   -5.4216  -13.6404 O   0  0  0  0  0  0  0  0  0  0  0  0
   22.1713   -4.4605  -12.5832 O   0  0  0  0  0  0  0  0  0  0  0  0
  1  2  1  0
  2  3  2  0
  4  2  1  0
  4  5  1  0
  6  7  1  6
  6  5  1  0
  8  6  1  0
  9  8  2  0
 11 10  1  0
 12 13  1  6
 12 14  1  0
 12 11  1  0
 14 15  1  1
 15  8  1  0
 16 14  1  0
 16 17  2  0
 18 16  1  0
 19 18  1  0
 19 20  1  6
 21 20  1  0
 22 23  1  0
 22 21  1  0
 23 24  1  0
 25 27  1  0
 25 19  1  0
 26 25  2  0
M  END
$$$$
