QIK.pdb
     RDKit          3D

 27 26  0  0  1  0  0  0  0  0999 V2000
   23.6236  -19.6047  -18.4472 N   0  0  0  0  0  0  0  0  0  0  0  0
   24.9211  -19.2230  -18.0111 C   0  0  0  0  0  0  0  0  0  0  0  0
   25.0443  -18.3600  -17.1127 O   0  0  0  0  0  0  0  0  0  0  0  0
   26.0981  -19.8861  -18.6617 C   0  0  0  0  0  0  0  0  0  0  0  0
   26.4133  -21.1087  -17.8565 C   0  0  0  0  0  0  0  0  0  0  0  0
   27.2190  -20.8062  -16.6348 C   0  0  2  0  0  0  0  0  0  0  0  0
   28.5400  -21.3529  -16.6365 N   0  0  0  0  0  0  0  0  0  0  0  0
   26.4857  -21.3256  -15.4207 C   0  0  0  0  0  0  0  0  0  0  0  0
   25.8205  -22.3904  -15.5023 O   0  0  0  0  0  0  0  0  0  0  0  0
   29.0728  -20.9439  -11.1243 C   0  0  0  0  0  0  0  0  0  0  0  0
   28.0175  -21.5874  -11.9499 C   0  0  0  0  0  0  0  0  0  0  0  0
   26.6353  -20.9725  -11.7976 C   0  0  2  0  0  0  0  0  0  0  0  0
   25.9944  -21.3581  -10.5143 C   0  0  0  0  0  0  0  0  0  0  0  0
   25.8052  -21.2381  -13.0366 C   0  0  2  0  0  0  0  0  0  0  0  0
   26.5314  -20.6378  -14.1903 N   0  0  0  0  0  0  0  0  0  0  0  0
   24.4516  -20.6692  -13.0094 C   0  0  0  0  0  0  0  0  0  0  0  0
   24.3133  -19.4590  -12.6149 O   0  0  0  0  0  0  0  0  0  0  0  0
   23.2884  -21.3496  -13.3901 N   0  0  0  0  0  0  0  0  0  0  0  0
   21.9660  -20.7330  -13.2895 C   0  0  1  0  0  0  0  0  0  0  0  0
   20.9402  -21.5013  -14.0466 C   0  0  0  0  0  0  0  0  0  0  0  0
   19.5561  -21.0003  -13.9448 C   0  0  0  0  0  0  0  0  0  0  0  0
   18.8089  -20.4705  -15.0838 C   0  0  0  0  0  0  0  0  0  0  0  0
   17.4167  -19.9755  -14.9448 C   0  0  0  0  0  0  0  0  0  0  0  0
   16.9838  -19.5753  -16.3121 N   0  0  0  0  0  0  0  0  0  0  0  0
   21.5647  -20.6676  -11.8236 C   0  0  0  0  0  0  0  0  0  0  0  0
   20.9406  -19.7264  -11.3228 O   0  0  0  0  0  0  0  0  0  0  0  0
   21.9410  -21.7443  -11.0466 O   0  0  0  0  0  0  0  0  0  0  0  0
  1  2  1  0
  2  3  2  0
  4  2  1  0
  4  5  1  0
  6  7  1  6
  6  5  1  0
  8  6  1  0
  9  8  2  0
 11 10  1  0
 12 13  1  1
 12 14  1  0
 12 11  1  0
 14 15  1  6
 15  8  1  0
 16 14  1  0
 16 17  2  0
 18 16  1  0
 19 18  1  0
 19 20  1  6
 21 20  1  0
 22 23  1  0
 22 21  1  0
 23 24  1  0
 25 27  1  0
 25 19  1  0
 26 25  2  0
M  END
$$$$
