QIK.pdb
     RDKit          3D

 27 26  0  0  1  0  0  0  0  0999 V2000
   26.9018  -18.2369  -17.9549 N   0  0  0  0  0  0  0  0  0  0  0  0
   27.9611  -17.4394  -17.4438 C   0  0  0  0  0  0  0  0  0  0  0  0
   28.6167  -16.7080  -18.2199 O   0  0  0  0  0  0  0  0  0  0  0  0
   28.2444  -17.5165  -15.9734 C   0  0  0  0  0  0  0  0  0  0  0  0
   27.2606  -18.4813  -15.3871 C   0  0  0  0  0  0  0  0  0  0  0  0
   27.9184  -19.6216  -14.6798 C   0  0  2  0  0  0  0  0  0  0  0  0
   28.7823  -20.4161  -15.4961 N   0  0  0  0  0  0  0  0  0  0  0  0
   26.8528  -20.5177  -14.0940 C   0  0  0  0  0  0  0  0  0  0  0  0
   26.3707  -21.4495  -14.7884 O   0  0  0  0  0  0  0  0  0  0  0  0
   25.2026  -20.0479   -8.6281 C   0  0  0  0  0  0  0  0  0  0  0  0
   25.1170  -20.0651  -10.1119 C   0  0  0  0  0  0  0  0  0  0  0  0
   25.5621  -21.3695  -10.7540 C   0  0  2  0  0  0  0  0  0  0  0  0
   26.9156  -21.7788  -10.2991 C   0  0  0  0  0  0  0  0  0  0  0  0
   25.3816  -21.3012  -12.2565 C   0  0  2  0  0  0  0  0  0  0  0  0
   26.3843  -20.3305  -12.7769 N   0  0  0  0  0  0  0  0  0  0  0  0
   24.0532  -20.8608  -12.7017 C   0  0  0  0  0  0  0  0  0  0  0  0
   23.8890  -19.6211  -12.9767 O   0  0  0  0  0  0  0  0  0  0  0  0
   22.9414  -21.6981  -12.8568 N   0  0  0  0  0  0  0  0  0  0  0  0
   21.6554  -21.1921  -13.3354 C   0  0  1  0  0  0  0  0  0  0  0  0
   21.1275  -22.0071  -14.4637 C   0  0  0  0  0  0  0  0  0  0  0  0
   19.8713  -21.5276  -15.0712 C   0  0  0  0  0  0  0  0  0  0  0  0
   18.8707  -20.7532  -14.3394 C   0  0  0  0  0  0  0  0  0  0  0  0
   17.5651  -20.3906  -14.9448 C   0  0  0  0  0  0  0  0  0  0  0  0
   16.5639  -21.3185  -14.3503 N   0  0  0  0  0  0  0  0  0  0  0  0
   20.6587  -21.2187  -12.1865 C   0  0  0  0  0  0  0  0  0  0  0  0
   20.6590  -22.0744  -11.2954 O   0  0  0  0  0  0  0  0  0  0  0  0
   19.7181  -20.2088  -12.1806 O   0  0  0  0  0  0  0  0  0  0  0  0
  1  2  1  0
  2  3  2  0
  4  2  1  0
  4  5  1  0
  6  7  1  6
  6  5  1  0
  8  6  1  0
  9  8  2  0
 11 10  1  0
 12 13  1  6
 12 14  1  0
 12 11  1  0
 14 15  1  1
 15  8  1  0
 16 14  1  0
 16 17  2  0
 18 16  1  0
 19 18  1  0
 19 20  1  6
 21 20  1  0
 22 23  1  0
 22 21  1  0
 23 24  1  0
 25 27  1  0
 25 19  1  0
 26 25  2  0
M  END
$$$$
