QIK.pdb
     RDKit          3D

 27 26  0  0  1  0  0  0  0  0999 V2000
   27.3475  -17.4415  -15.7002 N   0  0  0  0  0  0  0  0  0  0  0  0
   28.1679  -18.1292  -16.6348 C   0  0  0  0  0  0  0  0  0  0  0  0
   29.3446  -17.7471  -16.8258 O   0  0  0  0  0  0  0  0  0  0  0  0
   27.5706  -19.2992  -17.3577 C   0  0  0  0  0  0  0  0  0  0  0  0
   26.6014  -19.9473  -16.4179 C   0  0  0  0  0  0  0  0  0  0  0  0
   27.2761  -20.7307  -15.3389 C   0  0  2  0  0  0  0  0  0  0  0  0
   28.0049  -21.8737  -15.7933 N   0  0  0  0  0  0  0  0  0  0  0  0
   26.2388  -21.1880  -14.3408 C   0  0  0  0  0  0  0  0  0  0  0  0
   25.6168  -22.2639  -14.5366 O   0  0  0  0  0  0  0  0  0  0  0  0
   27.3654  -20.3466   -9.4277 C   0  0  0  0  0  0  0  0  0  0  0  0
   26.5845  -21.1394  -10.4130 C   0  0  0  0  0  0  0  0  0  0  0  0
   25.2874  -20.4855  -10.8623 C   0  0  2  0  0  0  0  0  0  0  0  0
   24.2149  -20.6224   -9.8439 C   0  0  0  0  0  0  0  0  0  0  0  0
   24.9179  -20.9580  -12.2534 C   0  0  2  0  0  0  0  0  0  0  0  0
   25.9512  -20.4295  -13.1870 N   0  0  0  0  0  0  0  0  0  0  0  0
   23.6043  -20.5085  -12.7320 C   0  0  0  0  0  0  0  0  0  0  0  0
   23.4466  -19.2624  -12.9809 O   0  0  0  0  0  0  0  0  0  0  0  0
   22.5005  -21.3432  -12.9460 N   0  0  0  0  0  0  0  0  0  0  0  0
   21.2464  -20.8364  -13.5021 C   0  0  1  0  0  0  0  0  0  0  0  0
   20.7288  -21.7153  -14.5862 C   0  0  0  0  0  0  0  0  0  0  0  0
   19.4956  -21.2558  -15.2534 C   0  0  0  0  0  0  0  0  0  0  0  0
   18.8234  -22.0137  -16.3071 C   0  0  0  0  0  0  0  0  0  0  0  0
   17.6458  -21.4731  -17.0306 C   0  0  0  0  0  0  0  0  0  0  0  0
   17.2806  -22.4986  -18.0465 N   0  0  0  0  0  0  0  0  0  0  0  0
   20.2140  -20.7511  -12.3880 C   0  0  0  0  0  0  0  0  0  0  0  0
   19.2905  -19.9308  -12.3676 O   0  0  0  0  0  0  0  0  0  0  0  0
   20.3571  -21.6629  -11.3619 O   0  0  0  0  0  0  0  0  0  0  0  0
  1  2  1  0
  2  3  2  0
  4  2  1  0
  4  5  1  0
  6  7  1  6
  6  5  1  0
  8  6  1  0
  9  8  2  0
 11 10  1  0
 12 13  1  1
 12 14  1  0
 12 11  1  0
 14 15  1  6
 15  8  1  0
 16 14  1  0
 16 17  2  0
 18 16  1  0
 19 18  1  0
 19 20  1  6
 21 20  1  0
 22 23  1  0
 22 21  1  0
 23 24  1  0
 25 27  1  0
 25 19  1  0
 26 25  2  0
M  END
$$$$
