QIK.pdb
     RDKit          3D

 27 26  0  0  1  0  0  0  0  0999 V2000
   27.3887  -16.6658  -14.7161 N   0  0  0  0  0  0  0  0  0  0  0  0
   28.1209  -17.4307  -15.6638 C   0  0  0  0  0  0  0  0  0  0  0  0
   29.3603  -17.2815  -15.7564 O   0  0  0  0  0  0  0  0  0  0  0  0
   27.3568  -18.3956  -16.5201 C   0  0  0  0  0  0  0  0  0  0  0  0
   26.4894  -19.2031  -15.6046 C   0  0  0  0  0  0  0  0  0  0  0  0
   27.2746  -20.1035  -14.7069 C   0  0  2  0  0  0  0  0  0  0  0  0
   28.0616  -21.0872  -15.3827 N   0  0  0  0  0  0  0  0  0  0  0  0
   26.3264  -20.8097  -13.7668 C   0  0  0  0  0  0  0  0  0  0  0  0
   25.7713  -21.8793  -14.1285 O   0  0  0  0  0  0  0  0  0  0  0  0
   26.8911  -20.7745   -8.4089 C   0  0  0  0  0  0  0  0  0  0  0  0
   26.5105  -21.1453   -9.7970 C   0  0  0  0  0  0  0  0  0  0  0  0
   25.1692  -20.5925  -10.2521 C   0  0  2  0  0  0  0  0  0  0  0  0
   24.0673  -20.9854   -9.3367 C   0  0  0  0  0  0  0  0  0  0  0  0
   24.9382  -20.9173  -11.7136 C   0  0  2  0  0  0  0  0  0  0  0  0
   26.0487  -20.2922  -12.4845 N   0  0  0  0  0  0  0  0  0  0  0  0
   23.6705  -20.4224  -12.2656 C   0  0  0  0  0  0  0  0  0  0  0  0
   23.5467  -19.1625  -12.4575 O   0  0  0  0  0  0  0  0  0  0  0  0
   22.5768  -21.2272  -12.6080 N   0  0  0  0  0  0  0  0  0  0  0  0
   21.3404  -20.6605  -13.1455 C   0  0  1  0  0  0  0  0  0  0  0  0
   20.9299  -21.3315  -14.4093 C   0  0  0  0  0  0  0  0  0  0  0  0
   19.6132  -20.9398  -14.9475 C   0  0  0  0  0  0  0  0  0  0  0  0
   19.0350  -21.5229  -16.1567 C   0  0  0  0  0  0  0  0  0  0  0  0
   17.7194  -21.0845  -16.6853 C   0  0  0  0  0  0  0  0  0  0  0  0
   17.4561  -21.9272  -17.8843 N   0  0  0  0  0  0  0  0  0  0  0  0
   20.2367  -20.8191  -12.1106 C   0  0  0  0  0  0  0  0  0  0  0  0
   19.3548  -19.9772  -11.9112 O   0  0  0  0  0  0  0  0  0  0  0  0
   20.2622  -21.9870  -11.3757 O   0  0  0  0  0  0  0  0  0  0  0  0
  1  2  1  0
  2  3  2  0
  4  2  1  0
  4  5  1  0
  6  7  1  6
  6  5  1  0
  8  6  1  0
  9  8  2  0
 11 10  1  0
 12 13  1  1
 12 14  1  0
 12 11  1  0
 14 15  1  6
 15  8  1  0
 16 14  1  0
 16 17  2  0
 18 16  1  0
 19 18  1  0
 19 20  1  6
 21 20  1  0
 22 23  1  0
 22 21  1  0
 23 24  1  0
 25 27  1  0
 25 19  1  0
 26 25  2  0
M  END
$$$$
