QIK.pdb
     RDKit          3D

 27 26  0  0  1  0  0  0  0  0999 V2000
   16.3322  -12.5276  -21.7216 N   0  0  0  0  0  0  0  0  0  0  0  0
   16.7339  -12.1879  -20.4015 C   0  0  0  0  0  0  0  0  0  0  0  0
   16.4918  -11.0439  -19.9547 O   0  0  0  0  0  0  0  0  0  0  0  0
   17.4404  -13.2371  -19.5965 C   0  0  0  0  0  0  0  0  0  0  0  0
   18.0776  -12.5424  -18.4329 C   0  0  0  0  0  0  0  0  0  0  0  0
   19.2107  -13.3185  -17.8441 C   0  0  2  0  0  0  0  0  0  0  0  0
   18.8576  -14.6105  -17.3441 N   0  0  0  0  0  0  0  0  0  0  0  0
   19.8226  -12.5185  -16.7184 C   0  0  0  0  0  0  0  0  0  0  0  0
   19.2358  -12.4560  -15.6073 O   0  0  0  0  0  0  0  0  0  0  0  0
   24.6024  -13.2484  -15.2491 C   0  0  0  0  0  0  0  0  0  0  0  0
   23.1847  -12.8106  -15.3361 C   0  0  0  0  0  0  0  0  0  0  0  0
   22.9982  -11.3182  -15.5592 C   0  0  2  0  0  0  0  0  0  0  0  0
   23.6857  -10.5112  -14.5188 C   0  0  0  0  0  0  0  0  0  0  0  0
   21.5307  -10.9982  -15.7563 C   0  0  2  0  0  0  0  0  0  0  0  0
   21.0453  -11.8361  -16.8879 N   0  0  0  0  0  0  0  0  0  0  0  0
   21.2400   -9.5946  -16.0763 C   0  0  0  0  0  0  0  0  0  0  0  0
   21.6756   -9.1257  -17.1853 O   0  0  0  0  0  0  0  0  0  0  0  0
   20.5119   -8.7205  -15.2598 N   0  0  0  0  0  0  0  0  0  0  0  0
   20.2706   -7.3294  -15.6412 C   0  0  1  0  0  0  0  0  0  0  0  0
   18.8167   -7.0122  -15.6791 C   0  0  0  0  0  0  0  0  0  0  0  0
   18.1562   -7.1762  -16.9882 C   0  0  0  0  0  0  0  0  0  0  0  0
   16.7525   -6.8449  -17.2257 C   0  0  0  0  0  0  0  0  0  0  0  0
   16.1058   -7.0749  -18.5415 C   0  0  0  0  0  0  0  0  0  0  0  0
   14.6675   -6.7364  -18.3579 N   0  0  0  0  0  0  0  0  0  0  0  0
   20.9580   -6.4180  -14.6357 C   0  0  0  0  0  0  0  0  0  0  0  0
   21.0642   -5.1952  -14.7763 O   0  0  0  0  0  0  0  0  0  0  0  0
   21.4779   -7.0372  -13.5173 O   0  0  0  0  0  0  0  0  0  0  0  0
  1  2  1  0
  2  3  2  0
  4  2  1  0
  4  5  1  0
  6  7  1  1
  6  5  1  0
  8  6  1  0
  9  8  2  0
 11 10  1  0
 12 13  1  1
 12 14  1  0
 12 11  1  0
 14 15  1  6
 15  8  1  0
 16 14  1  0
 16 17  2  0
 18 16  1  0
 19 18  1  0
 19 20  1  1
 21 20  1  0
 22 23  1  0
 22 21  1  0
 23 24  1  0
 25 27  1  0
 25 19  1  0
 26 25  2  0
M  END
$$$$
