MRC.pdb
     RDKit          3D

 26 25  0  0  1  0  0  0  0  0999 V2000
   31.5595  -22.2857   -9.8939 C   0  0  0  0  0  0  0  0  0  0  0  0
   32.5816  -22.3457  -11.3890 S   0  0  0  0  0  0  0  0  0  0  0  0
   31.5794  -21.9797  -12.8548 C   0  0  0  0  0  0  0  0  0  0  0  0
   30.2664  -21.3309  -12.4789 C   0  0  0  0  0  0  0  0  0  0  0  0
   29.4254  -21.0186  -13.6972 C   0  0  2  0  0  0  0  0  0  0  0  0
   30.0737  -20.0695  -14.5652 N   0  0  0  0  0  0  0  0  0  0  0  0
   28.0891  -20.5041  -13.3311 C   0  0  0  0  0  0  0  0  0  0  0  0
   27.9424  -19.2862  -13.1280 O   0  0  0  0  0  0  0  0  0  0  0  0
   19.4875  -21.9991  -12.4193 N   0  0  0  0  0  0  0  0  0  0  0  0
   19.9061  -21.2064  -13.5244 C   0  0  0  0  0  0  0  0  0  0  0  0
   19.0618  -20.3474  -14.0442 N   0  0  0  0  0  0  0  0  0  0  0  0
   21.2070  -21.3216  -14.0751 N   0  0  0  0  0  0  0  0  0  0  0  0
   22.2432  -21.9170  -13.3001 C   0  0  0  0  0  0  0  0  0  0  0  0
   23.2202  -20.9076  -12.7315 C   0  0  0  0  0  0  0  0  0  0  0  0
   24.5288  -21.0604  -13.4579 C   0  0  0  0  0  0  0  0  0  0  0  0
   25.7410  -20.9079  -12.5967 C   0  0  2  0  0  0  0  0  0  0  0  0
   26.9490  -21.3795  -13.2033 N   0  0  0  0  0  0  0  0  0  0  0  0
   25.5412  -21.4973  -11.2276 C   0  0  0  0  0  0  0  0  0  0  0  0
   25.2895  -22.7225  -11.0858 O   0  0  0  0  0  0  0  0  0  0  0  0
   19.3301  -19.7974  -14.8775 N   0  0  0  0  0  0  0  0  0  0  0  0
   25.6378  -20.6610  -10.0826 C   0  0  2  0  0  0  0  0  0  0  0  0
   25.3672  -21.1909   -8.7611 C   0  0  0  0  0  0  0  0  0  0  0  0
   26.3040  -20.6141   -7.7271 S   0  0  0  0  0  0  0  0  0  0  0  0
   26.2944  -18.8086   -7.9510 C   0  0  0  0  0  0  0  0  0  0  0  0
   23.9824  -20.8720   -8.3295 O   0  0  0  0  0  0  0  0  0  0  0  0
   23.5374  -21.3870   -7.1217 O   0  0  0  0  0  0  0  0  0  0  0  0
  2  1  1  0
  3  4  1  0
  3  2  1  0
  4  5  1  0
  5  7  1  0
  5  6  1  6
  7  8  2  0
 10 12  1  0
 10  9  1  0
 11 10  2  0
 13 14  1  0
 13 12  1  0
 14 15  1  0
 16 15  1  6
 17  7  1  0
 17 16  1  0
 18 19  2  0
 18 16  1  0
 20 18  1  0
 21 20  1  0
 21 22  1  6
 23 22  1  0
 24 25  1  0
 24 21  1  0
 26 24  2  0
M  END
$$$$
