MRC.pdb
     RDKit          3D

 26 25  0  0  1  0  0  0  0  0999 V2000
   18.1688  -18.0745  -12.8350 C   0  0  0  0  0  0  0  0  0  0  0  0
   18.5799  -16.3099  -12.8641 S   0  0  0  0  0  0  0  0  0  0  0  0
   19.7742  -15.9609  -14.1828 C   0  0  0  0  0  0  0  0  0  0  0  0
   20.4856  -17.2176  -14.6313 C   0  0  0  0  0  0  0  0  0  0  0  0
   21.4837  -16.9351  -15.7326 C   0  0  2  0  0  0  0  0  0  0  0  0
   20.8374  -16.4736  -16.9342 N   0  0  0  0  0  0  0  0  0  0  0  0
   22.3072  -18.1202  -16.0517 C   0  0  0  0  0  0  0  0  0  0  0  0
   21.8530  -18.9859  -16.8200 O   0  0  0  0  0  0  0  0  0  0  0  0
   29.0870  -22.8503  -16.5271 N   0  0  0  0  0  0  0  0  0  0  0  0
   29.1080  -21.8138  -17.5018 C   0  0  0  0  0  0  0  0  0  0  0  0
   29.5360  -22.0892  -18.7109 N   0  0  0  0  0  0  0  0  0  0  0  0
   28.6798  -20.4969  -17.1999 N   0  0  0  0  0  0  0  0  0  0  0  0
   28.1110  -20.2229  -15.9230 C   0  0  0  0  0  0  0  0  0  0  0  0
   26.6423  -20.5852  -15.8322 C   0  0  0  0  0  0  0  0  0  0  0  0
   25.8497  -19.3104  -15.7318 C   0  0  0  0  0  0  0  0  0  0  0  0
   24.3666  -19.4948  -15.7601 C   0  0  2  0  0  0  0  0  0  0  0  0
   23.6262  -18.2986  -15.4941 N   0  0  0  0  0  0  0  0  0  0  0  0
   23.9200  -20.6305  -14.8811 C   0  0  0  0  0  0  0  0  0  0  0  0
   24.0132  -20.5486  -13.6284 O   0  0  0  0  0  0  0  0  0  0  0  0
   29.5656  -21.3479  -19.4309 N   0  0  0  0  0  0  0  0  0  0  0  0
   23.3874  -21.8079  -15.4724 C   0  0  2  0  0  0  0  0  0  0  0  0
   22.9688  -22.9210  -14.6440 C   0  0  0  0  0  0  0  0  0  0  0  0
   22.1065  -23.8936  -15.4120 S   0  0  0  0  0  0  0  0  0  0  0  0
   21.6085  -25.1973  -14.2446 C   0  0  0  0  0  0  0  0  0  0  0  0
   24.1398  -23.6776  -14.1320 O   0  0  0  0  0  0  0  0  0  0  0  0
   24.0813  -24.1815  -12.8418 O   0  0  0  0  0  0  0  0  0  0  0  0
  2  1  1  0
  3  4  1  0
  3  2  1  0
  4  5  1  0
  5  7  1  0
  5  6  1  6
  7  8  2  0
 10 12  1  0
 10  9  1  0
 11 10  2  0
 13 14  1  0
 13 12  1  0
 14 15  1  0
 16 15  1  1
 17  7  1  0
 17 16  1  0
 18 19  2  0
 18 16  1  0
 20 18  1  0
 21 20  1  0
 21 22  1  6
 23 22  1  0
 24 25  1  0
 24 21  1  0
 26 24  2  0
M  END
$$$$
