MRC.pdb
     RDKit          3D

 26 25  0  0  1  0  0  0  0  0999 V2000
    9.0780  -12.6411  -13.9669 C   0  0  0  0  0  0  0  0  0  0  0  0
   10.4058  -12.0748  -12.8716 S   0  0  0  0  0  0  0  0  0  0  0  0
   12.0165  -12.2589  -13.6834 C   0  0  0  0  0  0  0  0  0  0  0  0
   13.1094  -11.5575  -12.9089 C   0  0  0  0  0  0  0  0  0  0  0  0
   14.4487  -11.6665  -13.6041 C   0  0  2  0  0  0  0  0  0  0  0  0
   14.8946  -13.0331  -13.6940 N   0  0  0  0  0  0  0  0  0  0  0  0
   15.4898  -10.8621  -12.9308 C   0  0  0  0  0  0  0  0  0  0  0  0
   16.1633  -11.3790  -12.0223 O   0  0  0  0  0  0  0  0  0  0  0  0
   22.4300   -7.2879  -15.4471 N   0  0  0  0  0  0  0  0  0  0  0  0
   21.4524   -8.3209  -15.4932 C   0  0  0  0  0  0  0  0  0  0  0  0
   21.5046   -9.2001  -16.4654 N   0  0  0  0  0  0  0  0  0  0  0  0
   20.4282   -8.4230  -14.5188 N   0  0  0  0  0  0  0  0  0  0  0  0
   20.0967   -7.2829  -13.7320 C   0  0  0  0  0  0  0  0  0  0  0  0
   18.9637   -7.5371  -12.7582 C   0  0  0  0  0  0  0  0  0  0  0  0
   17.9108   -8.3474  -13.4642 C   0  0  0  0  0  0  0  0  0  0  0  0
   16.7443   -8.7312  -12.6120 C   0  0  2  0  0  0  0  0  0  0  0  0
   15.7452   -9.4908  -13.3008 N   0  0  0  0  0  0  0  0  0  0  0  0
   16.1486   -7.5478  -11.9004 C   0  0  0  0  0  0  0  0  0  0  0  0
   15.4749   -6.6913  -12.5306 O   0  0  0  0  0  0  0  0  0  0  0  0
   20.7866   -9.9409  -16.5326 N   0  0  0  0  0  0  0  0  0  0  0  0
   16.3494   -7.3959  -10.5018 C   0  0  1  0  0  0  0  0  0  0  0  0
   15.8471   -6.2253   -9.8105 C   0  0  0  0  0  0  0  0  0  0  0  0
   14.4326   -6.4300   -9.3239 S   0  0  0  0  0  0  0  0  0  0  0  0
   14.4049   -8.0108   -8.4235 C   0  0  0  0  0  0  0  0  0  0  0  0
   16.6807   -5.9054   -8.6237 O   0  0  0  0  0  0  0  0  0  0  0  0
   16.3815   -4.7600   -7.9022 O   0  0  0  0  0  0  0  0  0  0  0  0
  2  1  1  0
  3  4  1  0
  3  2  1  0
  4  5  1  0
  5  7  1  0
  5  6  1  1
  7  8  2  0
 10 12  1  0
 10  9  1  0
 11 10  2  0
 13 14  1  0
 13 12  1  0
 14 15  1  0
 16 15  1  6
 17  7  1  0
 17 16  1  0
 18 19  2  0
 18 16  1  0
 20 18  1  0
 21 20  1  0
 21 22  1  6
 23 22  1  0
 24 25  1  0
 24 21  1  0
 26 24  2  0
M  END
$$$$
