MRC.pdb
     RDKit          3D

 26 25  0  0  1  0  0  0  0  0999 V2000
   26.3258  -21.1327   -3.7510 C   0  0  0  0  0  0  0  0  0  0  0  0
   27.9896  -20.4419   -3.5556 S   0  0  0  0  0  0  0  0  0  0  0  0
   28.4654  -19.5111   -5.0369 C   0  0  0  0  0  0  0  0  0  0  0  0
   27.5911  -19.8670   -6.2181 C   0  0  0  0  0  0  0  0  0  0  0  0
   27.9695  -19.0806   -7.4539 C   0  0  2  0  0  0  0  0  0  0  0  0
   27.8155  -17.6626   -7.2531 N   0  0  0  0  0  0  0  0  0  0  0  0
   27.1803  -19.4898   -8.6346 C   0  0  0  0  0  0  0  0  0  0  0  0
   26.0520  -18.9980   -8.8106 O   0  0  0  0  0  0  0  0  0  0  0  0
   31.7333  -23.2618  -14.4409 N   0  0  0  0  0  0  0  0  0  0  0  0
   31.8319  -22.9919  -13.0472 C   0  0  0  0  0  0  0  0  0  0  0  0
   32.8263  -23.5136  -12.3693 N   0  0  0  0  0  0  0  0  0  0  0  0
   30.8862  -22.1767  -12.3764 N   0  0  0  0  0  0  0  0  0  0  0  0
   30.0120  -21.3496  -13.1383 C   0  0  0  0  0  0  0  0  0  0  0  0
   29.1284  -20.4647  -12.2822 C   0  0  0  0  0  0  0  0  0  0  0  0
   27.9067  -21.2537  -11.8968 C   0  0  0  0  0  0  0  0  0  0  0  0
   27.0468  -20.6044  -10.8607 C   0  0  2  0  0  0  0  0  0  0  0  0
   27.6860  -20.4464   -9.5894 N   0  0  0  0  0  0  0  0  0  0  0  0
   25.7100  -21.2806  -10.7290 C   0  0  0  0  0  0  0  0  0  0  0  0
   25.6052  -22.3880  -10.1398 O   0  0  0  0  0  0  0  0  0  0  0  0
   32.8722  -23.3947  -11.3433 N   0  0  0  0  0  0  0  0  0  0  0  0
   24.5536  -20.6616  -11.2761 C   0  0  1  0  0  0  0  0  0  0  0  0
   23.2751  -21.3438  -11.2532 C   0  0  0  0  0  0  0  0  0  0  0  0
   22.3019  -20.6717  -10.3148 S   0  0  0  0  0  0  0  0  0  0  0  0
   21.5357  -19.3028  -11.2364 C   0  0  0  0  0  0  0  0  0  0  0  0
   22.6513  -21.3577  -12.6010 O   0  0  0  0  0  0  0  0  0  0  0  0
   21.5276  -22.1462  -12.7949 O   0  0  0  0  0  0  0  0  0  0  0  0
  2  1  1  0
  3  4  1  0
  3  2  1  0
  4  5  1  0
  5  7  1  0
  5  6  1  1
  7  8  2  0
 10 12  1  0
 10  9  1  0
 11 10  2  0
 13 14  1  0
 13 12  1  0
 14 15  1  0
 16 15  1  6
 17  7  1  0
 17 16  1  0
 18 19  2  0
 18 16  1  0
 20 18  1  0
 21 20  1  0
 21 22  1  1
 23 22  1  0
 24 25  1  0
 24 21  1  0
 26 24  2  0
M  END
$$$$
