MRC.pdb
     RDKit          3D

 26 25  0  0  1  0  0  0  0  0999 V2000
   15.2475  -18.3432  -20.4514 C   0  0  0  0  0  0  0  0  0  0  0  0
   16.3596  -17.0255  -19.8940 S   0  0  0  0  0  0  0  0  0  0  0  0
   18.0506  -17.6565  -19.7217 C   0  0  0  0  0  0  0  0  0  0  0  0
   18.0693  -19.0116  -19.0509 C   0  0  0  0  0  0  0  0  0  0  0  0
   18.2559  -18.8945  -17.5541 C   0  0  2  0  0  0  0  0  0  0  0  0
   19.3274  -17.9926  -17.2179 N   0  0  0  0  0  0  0  0  0  0  0  0
   18.5127  -20.2062  -16.9233 C   0  0  0  0  0  0  0  0  0  0  0  0
   17.7731  -21.1671  -17.1982 O   0  0  0  0  0  0  0  0  0  0  0  0
   25.2174  -25.4787  -14.7256 N   0  0  0  0  0  0  0  0  0  0  0  0
   24.3915  -25.2687  -15.8652 C   0  0  0  0  0  0  0  0  0  0  0  0
   24.6000  -25.9902  -16.9408 N   0  0  0  0  0  0  0  0  0  0  0  0
   23.3538  -24.3033  -15.8670 N   0  0  0  0  0  0  0  0  0  0  0  0
   22.9682  -23.6902  -14.6406 C   0  0  0  0  0  0  0  0  0  0  0  0
   21.4869  -23.3787  -14.5673 C   0  0  0  0  0  0  0  0  0  0  0  0
   21.2476  -22.0685  -15.2670 C   0  0  0  0  0  0  0  0  0  0  0  0
   19.8093  -21.6787  -15.3850 C   0  0  2  0  0  0  0  0  0  0  0  0
   19.6009  -20.4006  -15.9956 N   0  0  0  0  0  0  0  0  0  0  0  0
   19.0820  -21.7920  -14.0735 C   0  0  0  0  0  0  0  0  0  0  0  0
   19.3161  -20.9840  -13.1370 O   0  0  0  0  0  0  0  0  0  0  0  0
   24.0405  -25.8218  -17.7936 N   0  0  0  0  0  0  0  0  0  0  0  0
   18.1208  -22.8226  -13.8909 C   0  0  2  0  0  0  0  0  0  0  0  0
   17.3884  -22.9314  -12.6450 C   0  0  0  0  0  0  0  0  0  0  0  0
   16.0639  -23.6302  -12.8367 S   0  0  0  0  0  0  0  0  0  0  0  0
   15.1127  -22.6448  -14.0344 C   0  0  0  0  0  0  0  0  0  0  0  0
   18.1562  -23.7083  -11.6387 O   0  0  0  0  0  0  0  0  0  0  0  0
   17.6448  -23.8016  -10.3534 O   0  0  0  0  0  0  0  0  0  0  0  0
  2  1  1  0
  3  4  1  0
  3  2  1  0
  4  5  1  0
  5  7  1  0
  5  6  1  6
  7  8  2  0
 10 12  1  0
 10  9  1  0
 11 10  2  0
 13 14  1  0
 13 12  1  0
 14 15  1  0
 16 15  1  1
 17  7  1  0
 17 16  1  0
 18 19  2  0
 18 16  1  0
 20 18  1  0
 21 20  1  0
 21 22  1  6
 23 22  1  0
 24 25  1  0
 24 21  1  0
 26 24  2  0
M  END
$$$$
