MRC.pdb
     RDKit          3D

 26 25  0  0  1  0  0  0  0  0999 V2000
   30.8094  -21.6860   -9.1262 C   0  0  0  0  0  0  0  0  0  0  0  0
   29.6542  -21.1618  -10.4201 S   0  0  0  0  0  0  0  0  0  0  0  0
   28.5584  -22.5306  -10.8813 C   0  0  0  0  0  0  0  0  0  0  0  0
   27.6820  -22.1649  -12.0580 C   0  0  0  0  0  0  0  0  0  0  0  0
   26.6983  -21.0704  -11.7067 C   0  0  2  0  0  0  0  0  0  0  0  0
   25.8185  -21.4658  -10.6370 N   0  0  0  0  0  0  0  0  0  0  0  0
   25.8875  -20.6589  -12.8718 C   0  0  0  0  0  0  0  0  0  0  0  0
   26.4586  -20.3786  -13.9401 O   0  0  0  0  0  0  0  0  0  0  0  0
   19.1890  -23.9044  -12.0647 N   0  0  0  0  0  0  0  0  0  0  0  0
   19.2301  -22.5148  -11.7609 C   0  0  0  0  0  0  0  0  0  0  0  0
   18.7263  -22.0996  -10.6231 N   0  0  0  0  0  0  0  0  0  0  0  0
   19.7996  -21.5725  -12.6533 N   0  0  0  0  0  0  0  0  0  0  0  0
   20.3376  -22.0216  -13.8934 C   0  0  0  0  0  0  0  0  0  0  0  0
   21.8481  -21.9189  -13.9622 C   0  0  0  0  0  0  0  0  0  0  0  0
   22.2261  -20.4680  -13.8376 C   0  0  0  0  0  0  0  0  0  0  0  0
   23.6907  -20.1934  -13.9550 C   0  0  2  0  0  0  0  0  0  0  0  0
   24.4486  -20.5740  -12.8016 N   0  0  0  0  0  0  0  0  0  0  0  0
   23.9701  -18.7715  -14.3576 C   0  0  0  0  0  0  0  0  0  0  0  0
   23.5464  -17.8116  -13.6622 O   0  0  0  0  0  0  0  0  0  0  0  0
   18.8140  -21.1064  -10.3499 N   0  0  0  0  0  0  0  0  0  0  0  0
   24.7203  -18.5104  -15.5360 C   0  0  1  0  0  0  0  0  0  0  0  0
   25.1119  -17.1561  -15.8723 C   0  0  0  0  0  0  0  0  0  0  0  0
   26.1734  -16.6340  -14.9342 S   0  0  0  0  0  0  0  0  0  0  0  0
   26.7658  -15.0595  -15.6271 C   0  0  0  0  0  0  0  0  0  0  0  0
   25.6649  -17.0847  -17.2489 O   0  0  0  0  0  0  0  0  0  0  0  0
   25.9494  -18.2734  -17.9033 O   0  0  0  0  0  0  0  0  0  0  0  0
  2  1  1  0
  3  4  1  0
  3  2  1  0
  4  5  1  0
  5  7  1  0
  5  6  1  1
  7  8  2  0
 10 12  1  0
 10  9  1  0
 11 10  2  0
 13 14  1  0
 13 12  1  0
 14 15  1  0
 16 15  1  1
 17  7  1  0
 17 16  1  0
 18 19  2  0
 18 16  1  0
 20 18  1  0
 21 20  1  0
 21 22  1  6
 23 22  1  0
 24 25  1  0
 24 21  1  0
 26 24  2  0
M  END
$$$$
