MRC.pdb
     RDKit          3D

 26 25  0  0  1  0  0  0  0  0999 V2000
   27.7503  -12.8329  -14.6599 C   0  0  0  0  0  0  0  0  0  0  0  0
   28.3519  -13.4430  -16.2566 S   0  0  0  0  0  0  0  0  0  0  0  0
   26.9707  -14.0486  -17.2629 C   0  0  0  0  0  0  0  0  0  0  0  0
   25.6928  -13.3013  -16.9549 C   0  0  0  0  0  0  0  0  0  0  0  0
   24.5155  -13.8623  -17.7218 C   0  0  2  0  0  0  0  0  0  0  0  0
   24.8818  -14.2392  -19.0628 N   0  0  0  0  0  0  0  0  0  0  0  0
   23.3867  -12.9100  -17.7790 C   0  0  0  0  0  0  0  0  0  0  0  0
   23.3241  -12.0987  -18.7191 O   0  0  0  0  0  0  0  0  0  0  0  0
   19.4917  -16.5772  -15.2581 N   0  0  0  0  0  0  0  0  0  0  0  0
   18.9975  -17.0140  -16.5190 C   0  0  0  0  0  0  0  0  0  0  0  0
   18.9981  -18.2975  -16.7899 N   0  0  0  0  0  0  0  0  0  0  0  0
   18.5069  -16.1005  -17.4852 N   0  0  0  0  0  0  0  0  0  0  0  0
   18.5663  -14.7026  -17.2183 C   0  0  0  0  0  0  0  0  0  0  0  0
   19.9825  -14.1754  -17.1029 C   0  0  0  0  0  0  0  0  0  0  0  0
   19.9152  -12.6812  -16.9407 C   0  0  0  0  0  0  0  0  0  0  0  0
   21.2447  -12.0000  -16.8849 C   0  0  2  0  0  0  0  0  0  0  0  0
   22.3542  -12.8976  -16.7708 N   0  0  0  0  0  0  0  0  0  0  0  0
   21.2881  -10.9278  -15.8312 C   0  0  0  0  0  0  0  0  0  0  0  0
   20.9724  -11.1843  -14.6399 O   0  0  0  0  0  0  0  0  0  0  0  0
   18.6403  -18.6348  -17.6993 N   0  0  0  0  0  0  0  0  0  0  0  0
   21.6900   -9.6116  -16.1856 C   0  0  1  0  0  0  0  0  0  0  0  0
   21.8106   -8.5826  -15.1722 C   0  0  0  0  0  0  0  0  0  0  0  0
   22.8476   -7.5511  -15.5463 S   0  0  0  0  0  0  0  0  0  0  0  0
   24.4268   -8.4333  -15.7422 C   0  0  0  0  0  0  0  0  0  0  0  0
   20.5238   -7.8661  -14.9806 O   0  0  0  0  0  0  0  0  0  0  0  0
   20.4129   -6.9931  -13.9093 O   0  0  0  0  0  0  0  0  0  0  0  0
  2  1  1  0
  3  4  1  0
  3  2  1  0
  4  5  1  0
  5  7  1  0
  5  6  1  6
  7  8  2  0
 10 12  1  0
 10  9  1  0
 11 10  2  0
 13 14  1  0
 13 12  1  0
 14 15  1  0
 16 15  1  1
 17  7  1  0
 17 16  1  0
 18 19  2  0
 18 16  1  0
 20 18  1  0
 21 20  1  0
 21 22  1  1
 23 22  1  0
 24 25  1  0
 24 21  1  0
 26 24  2  0
M  END
$$$$
