MRC.pdb
     RDKit          3D

 26 25  0  0  1  0  0  0  0  0999 V2000
   20.6721  -22.3116   -8.9620 C   0  0  0  0  0  0  0  0  0  0  0  0
   21.9716  -21.8093  -10.1208 S   0  0  0  0  0  0  0  0  0  0  0  0
   22.7458  -20.2647   -9.5714 C   0  0  0  0  0  0  0  0  0  0  0  0
   23.7900  -19.7889  -10.5560 C   0  0  0  0  0  0  0  0  0  0  0  0
   24.9190  -20.7853  -10.7024 C   0  0  2  0  0  0  0  0  0  0  0  0
   25.7183  -20.8668   -9.5070 N   0  0  0  0  0  0  0  0  0  0  0  0
   25.7955  -20.4653  -11.8486 C   0  0  0  0  0  0  0  0  0  0  0  0
   26.7098  -19.6358  -11.7005 O   0  0  0  0  0  0  0  0  0  0  0  0
   30.1728  -24.3658  -16.5050 N   0  0  0  0  0  0  0  0  0  0  0  0
   28.8393  -24.8078  -16.2783 C   0  0  0  0  0  0  0  0  0  0  0  0
   28.6353  -26.0579  -15.9369 N   0  0  0  0  0  0  0  0  0  0  0  0
   27.7310  -23.9346  -16.4117 N   0  0  0  0  0  0  0  0  0  0  0  0
   27.8760  -22.7313  -17.1600 C   0  0  0  0  0  0  0  0  0  0  0  0
   27.6351  -21.4821  -16.3365 C   0  0  0  0  0  0  0  0  0  0  0  0
   26.8260  -21.8656  -15.1275 C   0  0  0  0  0  0  0  0  0  0  0  0
   26.4514  -20.7225  -14.2401 C   0  0  2  0  0  0  0  0  0  0  0  0
   25.6174  -21.0915  -13.1365 N   0  0  0  0  0  0  0  0  0  0  0  0
   25.8703  -19.5713  -15.0139 C   0  0  0  0  0  0  0  0  0  0  0  0
   24.6938  -19.6245  -15.4585 O   0  0  0  0  0  0  0  0  0  0  0  0
   27.6723  -26.4031  -15.7874 N   0  0  0  0  0  0  0  0  0  0  0  0
   26.6588  -18.4118  -15.2449 C   0  0  2  0  0  0  0  0  0  0  0  0
   26.1008  -17.2715  -15.9440 C   0  0  0  0  0  0  0  0  0  0  0  0
   26.9352  -16.0300  -15.7398 S   0  0  0  0  0  0  0  0  0  0  0  0
   26.1052  -14.6800  -16.6336 C   0  0  0  0  0  0  0  0  0  0  0  0
   26.0311  -17.5215  -17.4063 O   0  0  0  0  0  0  0  0  0  0  0  0
   24.8889  -17.1257  -18.0852 O   0  0  0  0  0  0  0  0  0  0  0  0
  2  1  1  0
  3  4  1  0
  3  2  1  0
  4  5  1  0
  5  7  1  0
  5  6  1  1
  7  8  2  0
 10 12  1  0
 10  9  1  0
 11 10  2  0
 13 14  1  0
 13 12  1  0
 14 15  1  0
 16 15  1  6
 17  7  1  0
 17 16  1  0
 18 19  2  0
 18 16  1  0
 20 18  1  0
 21 20  1  0
 21 22  1  6
 23 22  1  0
 24 25  1  0
 24 21  1  0
 26 24  2  0
M  END
$$$$
