MRC.pdb
     RDKit          3D

 26 25  0  0  1  0  0  0  0  0999 V2000
   27.4486  -22.4041  -21.5540 C   0  0  0  0  0  0  0  0  0  0  0  0
   26.7316  -22.0574  -19.9263 S   0  0  0  0  0  0  0  0  0  0  0  0
   27.4175  -23.1824  -18.6810 C   0  0  0  0  0  0  0  0  0  0  0  0
   26.4755  -23.3519  -17.5104 C   0  0  0  0  0  0  0  0  0  0  0  0
   25.9785  -22.0202  -16.9922 C   0  0  2  0  0  0  0  0  0  0  0  0
   27.0547  -21.2096  -16.4829 N   0  0  0  0  0  0  0  0  0  0  0  0
   24.9554  -22.1825  -15.9381 C   0  0  0  0  0  0  0  0  0  0  0  0
   24.1247  -23.1026  -16.0351 O   0  0  0  0  0  0  0  0  0  0  0  0
   23.0033  -21.7950   -8.0665 N   0  0  0  0  0  0  0  0  0  0  0  0
   24.2215  -21.1198   -8.3581 C   0  0  0  0  0  0  0  0  0  0  0  0
   25.1494  -21.0585   -7.4328 N   0  0  0  0  0  0  0  0  0  0  0  0
   24.4561  -20.5145   -9.6180 N   0  0  0  0  0  0  0  0  0  0  0  0
   23.3603  -19.9660  -10.3441 C   0  0  0  0  0  0  0  0  0  0  0  0
   22.9736  -20.7896  -11.5561 C   0  0  0  0  0  0  0  0  0  0  0  0
   24.1048  -20.7276  -12.5460 C   0  0  0  0  0  0  0  0  0  0  0  0
   23.8407  -21.4299  -13.8389 C   0  0  2  0  0  0  0  0  0  0  0  0
   24.8956  -21.2998  -14.7980 N   0  0  0  0  0  0  0  0  0  0  0  0
   22.5080  -21.0540  -14.4258 C   0  0  0  0  0  0  0  0  0  0  0  0
   22.3591  -19.9628  -15.0354 O   0  0  0  0  0  0  0  0  0  0  0  0
   26.0302  -20.5491   -7.6159 N   0  0  0  0  0  0  0  0  0  0  0  0
   21.4061  -21.9411  -14.2900 C   0  0  2  0  0  0  0  0  0  0  0  0
   20.1224  -21.6129  -14.8771 C   0  0  0  0  0  0  0  0  0  0  0  0
   19.4936  -22.8109  -15.5471 S   0  0  0  0  0  0  0  0  0  0  0  0
   17.9612  -22.2323  -16.3389 C   0  0  0  0  0  0  0  0  0  0  0  0
   19.1685  -21.1328  -13.8448 O   0  0  0  0  0  0  0  0  0  0  0  0
   18.1880  -20.2305  -14.2277 O   0  0  0  0  0  0  0  0  0  0  0  0
  2  1  1  0
  3  4  1  0
  3  2  1  0
  4  5  1  0
  5  7  1  0
  5  6  1  1
  7  8  2  0
 10 12  1  0
 10  9  1  0
 11 10  2  0
 13 14  1  0
 13 12  1  0
 14 15  1  0
 16 15  1  1
 17  7  1  0
 17 16  1  0
 18 19  2  0
 18 16  1  0
 20 18  1  0
 21 20  1  0
 21 22  1  1
 23 22  1  0
 24 25  1  0
 24 21  1  0
 26 24  2  0
M  END
$$$$
