MRC.pdb
     RDKit          3D

 26 25  0  0  1  0  0  0  0  0999 V2000
   21.6875  -20.2632   -9.5377 C   0  0  0  0  0  0  0  0  0  0  0  0
   20.2382  -19.5068  -10.3195 S   0  0  0  0  0  0  0  0  0  0  0  0
   19.2076  -20.7765  -11.1022 C   0  0  0  0  0  0  0  0  0  0  0  0
   19.9702  -22.0684  -11.2913 C   0  0  0  0  0  0  0  0  0  0  0  0
   19.1201  -23.1303  -11.9536 C   0  0  2  0  0  0  0  0  0  0  0  0
   18.0025  -22.5573  -12.6589 N   0  0  0  0  0  0  0  0  0  0  0  0
   18.6195  -24.1251  -10.9821 C   0  0  0  0  0  0  0  0  0  0  0  0
   17.5592  -23.8988  -10.3733 O   0  0  0  0  0  0  0  0  0  0  0  0
   21.3461  -32.1457  -10.3594 N   0  0  0  0  0  0  0  0  0  0  0  0
   21.9578  -30.9486  -10.8258 C   0  0  0  0  0  0  0  0  0  0  0  0
   23.2311  -30.9683  -11.1406 N   0  0  0  0  0  0  0  0  0  0  0  0
   21.2284  -29.7405  -10.9580 N   0  0  0  0  0  0  0  0  0  0  0  0
   19.8058  -29.7733  -10.8959 C   0  0  0  0  0  0  0  0  0  0  0  0
   19.1696  -28.4040  -11.0270 C   0  0  0  0  0  0  0  0  0  0  0  0
   19.4895  -27.6171   -9.7853 C   0  0  0  0  0  0  0  0  0  0  0  0
   18.8556  -26.2647   -9.7241 C   0  0  2  0  0  0  0  0  0  0  0  0
   19.3302  -25.3538  -10.7215 N   0  0  0  0  0  0  0  0  0  0  0  0
   18.9293  -25.6662   -8.3464 C   0  0  0  0  0  0  0  0  0  0  0  0
   19.8790  -24.9043   -8.0267 O   0  0  0  0  0  0  0  0  0  0  0  0
   23.6949  -30.1073  -11.4758 N   0  0  0  0  0  0  0  0  0  0  0  0
   17.9155  -25.9650   -7.3964 C   0  0  1  0  0  0  0  0  0  0  0  0
   17.9655  -25.3946   -6.0650 C   0  0  0  0  0  0  0  0  0  0  0  0
   17.3970  -23.9963   -6.0362 S   0  0  0  0  0  0  0  0  0  0  0  0
   15.7304  -24.0863   -6.7605 C   0  0  0  0  0  0  0  0  0  0  0  0
   17.1812  -26.2104   -5.1031 O   0  0  0  0  0  0  0  0  0  0  0  0
   17.2392  -25.8747   -3.7593 O   0  0  0  0  0  0  0  0  0  0  0  0
  2  1  1  0
  3  4  1  0
  3  2  1  0
  4  5  1  0
  5  7  1  0
  5  6  1  1
  7  8  2  0
 10 12  1  0
 10  9  1  0
 11 10  2  0
 13 14  1  0
 13 12  1  0
 14 15  1  0
 16 15  1  1
 17  7  1  0
 17 16  1  0
 18 19  2  0
 18 16  1  0
 20 18  1  0
 21 20  1  0
 21 22  1  1
 23 22  1  0
 24 25  1  0
 24 21  1  0
 26 24  2  0
M  END
$$$$
