GSE.pdb
     RDKit          3D

 20 19  0  0  1  0  0  0  0  0999 V2000
    0.4896  -26.2264   27.3457 N   0  0  0  0  0  0  0  0  0  0  0  0
   -0.2210  -25.7474   28.5010 C   0  0  0  0  0  0  0  0  0  0  0  0
   -1.6777  -25.9868   28.3439 C   0  0  0  0  0  0  0  0  0  0  0  0
   -2.0633  -27.1397   27.9856 O   0  0  0  0  0  0  0  0  0  0  0  0
   -4.2760  -25.8233   30.8554 O   0  0  0  0  0  0  0  0  0  0  0  0
   -4.4043  -26.3524   29.5920 C   0  0  0  0  0  0  0  0  0  0  0  0
   -4.0817  -25.3123   28.5122 C   0  0  2  0  0  0  0  0  0  0  0  0
   -2.6735  -24.9991   28.5711 N   0  0  0  0  0  0  0  0  0  0  0  0
   -4.9433  -24.1396   28.6965 C   0  0  0  0  0  0  0  0  0  0  0  0
   -4.4904  -23.2248   29.4582 O   0  0  0  0  0  0  0  0  0  0  0  0
   -6.2008  -23.9443   28.1151 N   0  0  0  0  0  0  0  0  0  0  0  0
   -6.8983  -22.6539   28.2254 C   0  0  1  0  0  0  0  0  0  0  0  0
   -7.7666  -22.5384   27.0208 C   0  0  0  0  0  0  0  0  0  0  0  0
   -8.5851  -21.3008   26.9175 C   0  0  0  0  0  0  0  0  0  0  0  0
   -9.3966  -21.1634   25.7031 C   0  0  0  0  0  0  0  0  0  0  0  0
  -10.3328  -20.3453   25.6816 O   0  0  0  0  0  0  0  0  0  0  0  0
   -7.6338  -22.6353   29.4978 C   0  0  0  0  0  0  0  0  0  0  0  0
   -7.9641  -23.7728   30.2232 O   0  0  0  0  0  0  0  0  0  0  0  0
   -9.1351  -21.9248   24.5970 O   0  0  0  0  0  0  0  0  0  0  0  0
   -8.0129  -21.5466   30.0085 O   0  0  0  0  0  0  0  0  0  0  0  0
  2  1  1  0
  3  2  1  0
  4  3  2  0
  6  5  1  0
  7  6  1  1
  7  8  1  0
  8  3  1  0
  9 11  1  0
  9  7  1  0
 10  9  2  0
 12 17  1  0
 12 11  1  0
 13 14  1  0
 12 13  1  6
 14 15  1  0
 15 16  2  0
 17 18  1  0
 19 15  1  0
 20 17  2  0
M  END
$$$$
