GSE.pdb
     RDKit          3D

 20 19  0  0  1  0  0  0  0  0999 V2000
    7.9338  -17.3621   17.5512 N   0  0  0  0  0  0  0  0  0  0  0  0
    7.2005  -16.9649   18.7231 C   0  0  0  0  0  0  0  0  0  0  0  0
    8.1113  -16.3290   19.7080 C   0  0  0  0  0  0  0  0  0  0  0  0
    9.3601  -16.3906   19.5006 O   0  0  0  0  0  0  0  0  0  0  0  0
    6.8725  -14.7741   23.4510 O   0  0  0  0  0  0  0  0  0  0  0  0
    7.8233  -14.0943   22.7256 C   0  0  0  0  0  0  0  0  0  0  0  0
    8.5975  -15.0348   21.7940 C   0  0  2  0  0  0  0  0  0  0  0  0
    7.6692  -15.6515   20.8760 N   0  0  0  0  0  0  0  0  0  0  0  0
    9.3460  -16.0059   22.5991 C   0  0  0  0  0  0  0  0  0  0  0  0
    8.7418  -17.0938   22.8708 O   0  0  0  0  0  0  0  0  0  0  0  0
   10.6471  -15.8406   23.0860 N   0  0  0  0  0  0  0  0  0  0  0  0
   11.3246  -16.9151   23.8279 C   0  0  1  0  0  0  0  0  0  0  0  0
   12.7286  -16.9510   23.3318 C   0  0  0  0  0  0  0  0  0  0  0  0
   13.5838  -15.7900   23.6964 C   0  0  0  0  0  0  0  0  0  0  0  0
   14.9206  -15.7586   23.0929 C   0  0  0  0  0  0  0  0  0  0  0  0
   15.9149  -15.5750   23.8165 O   0  0  0  0  0  0  0  0  0  0  0  0
   11.2042  -16.6295   25.2646 C   0  0  0  0  0  0  0  0  0  0  0  0
   11.5581  -17.5219   26.2684 O   0  0  0  0  0  0  0  0  0  0  0  0
   15.0839  -15.9280   21.7452 O   0  0  0  0  0  0  0  0  0  0  0  0
   10.7579  -15.5212   25.6674 O   0  0  0  0  0  0  0  0  0  0  0  0
  2  1  1  0
  3  2  1  0
  4  3  2  0
  6  5  1  0
  7  6  1  1
  7  8  1  0
  8  3  1  0
  9 11  1  0
  9  7  1  0
 10  9  2  0
 12 17  1  0
 12 11  1  0
 13 14  1  0
 12 13  1  6
 14 15  1  0
 15 16  2  0
 17 18  1  0
 19 15  1  0
 20 17  2  0
M  END
$$$$
