GSE.pdb
     RDKit          3D

 20 19  0  0  1  0  0  0  0  0999 V2000
   13.9605  -13.9552   18.4110 N   0  0  0  0  0  0  0  0  0  0  0  0
   12.5754  -14.3362   18.3387 C   0  0  0  0  0  0  0  0  0  0  0  0
   11.9859  -14.3911   19.7001 C   0  0  0  0  0  0  0  0  0  0  0  0
   12.7702  -14.4077   20.6956 O   0  0  0  0  0  0  0  0  0  0  0  0
    7.8958  -15.0321   20.4304 O   0  0  0  0  0  0  0  0  0  0  0  0
    8.5661  -14.1700   21.2670 C   0  0  0  0  0  0  0  0  0  0  0  0
   10.0678  -14.4782   21.3050 C   0  0  2  0  0  0  0  0  0  0  0  0
   10.5895  -14.4267   19.9597 N   0  0  0  0  0  0  0  0  0  0  0  0
   10.2799  -15.7742   21.9584 C   0  0  0  0  0  0  0  0  0  0  0  0
   10.5060  -16.7615   21.1861 O   0  0  0  0  0  0  0  0  0  0  0  0
   10.2554  -16.0134   23.3366 N   0  0  0  0  0  0  0  0  0  0  0  0
   10.5737  -17.3409   23.8846 C   0  0  1  0  0  0  0  0  0  0  0  0
   10.7339  -17.1640   25.3548 C   0  0  0  0  0  0  0  0  0  0  0  0
   11.0233  -18.3956   26.1368 C   0  0  0  0  0  0  0  0  0  0  0  0
   11.1172  -18.2293   27.5914 C   0  0  0  0  0  0  0  0  0  0  0  0
   10.9228  -17.1085   28.0933 O   0  0  0  0  0  0  0  0  0  0  0  0
    9.4958  -18.2658   23.5067 C   0  0  0  0  0  0  0  0  0  0  0  0
    9.6867  -19.6140   23.2325 O   0  0  0  0  0  0  0  0  0  0  0  0
   11.4163  -19.2922   28.3992 O   0  0  0  0  0  0  0  0  0  0  0  0
    8.3046  -17.8640   23.4101 O   0  0  0  0  0  0  0  0  0  0  0  0
  2  1  1  0
  3  2  1  0
  4  3  2  0
  6  5  1  0
  7  6  1  6
  7  8  1  0
  8  3  1  0
  9 11  1  0
  9  7  1  0
 10  9  2  0
 12 17  1  0
 12 11  1  0
 13 14  1  0
 12 13  1  1
 14 15  1  0
 15 16  2  0
 17 18  1  0
 19 15  1  0
 20 17  2  0
M  END
$$$$
