GSE.pdb
     RDKit          3D

 20 19  0  0  1  0  0  0  0  0999 V2000
   -1.2511  -25.6152   30.7122 N   0  0  0  0  0  0  0  0  0  0  0  0
   -2.0424  -26.7376   30.2844 C   0  0  0  0  0  0  0  0  0  0  0  0
   -3.4855  -26.3908   30.3167 C   0  0  0  0  0  0  0  0  0  0  0  0
   -4.0817  -26.1912   29.2162 O   0  0  0  0  0  0  0  0  0  0  0  0
   -7.6180  -26.1996   32.8853 O   0  0  0  0  0  0  0  0  0  0  0  0
   -6.2477  -26.3201   32.8741 C   0  0  0  0  0  0  0  0  0  0  0  0
   -5.6697  -26.0300   31.4836 C   0  0  2  0  0  0  0  0  0  0  0  0
   -4.2458  -26.2676   31.5107 N   0  0  0  0  0  0  0  0  0  0  0  0
   -6.0204  -24.6614   31.0893 C   0  0  0  0  0  0  0  0  0  0  0  0
   -5.2932  -23.7343   31.5731 O   0  0  0  0  0  0  0  0  0  0  0  0
   -7.0697  -24.2943   30.2398 N   0  0  0  0  0  0  0  0  0  0  0  0
   -7.2397  -22.9016   29.7979 C   0  0  1  0  0  0  0  0  0  0  0  0
   -7.4224  -22.9463   28.3204 C   0  0  0  0  0  0  0  0  0  0  0  0
   -7.5885  -21.6345   27.6392 C   0  0  0  0  0  0  0  0  0  0  0  0
   -6.5258  -21.2552   26.7016 C   0  0  0  0  0  0  0  0  0  0  0  0
   -6.4412  -21.8351   25.6050 O   0  0  0  0  0  0  0  0  0  0  0  0
   -8.3787  -22.3234   30.5250 C   0  0  0  0  0  0  0  0  0  0  0  0
   -9.3321  -23.0731   31.2020 O   0  0  0  0  0  0  0  0  0  0  0  0
   -5.6288  -20.2729   27.0210 O   0  0  0  0  0  0  0  0  0  0  0  0
   -8.5497  -21.0751   30.5696 O   0  0  0  0  0  0  0  0  0  0  0  0
  2  1  1  0
  3  2  1  0
  4  3  2  0
  6  5  1  0
  7  6  1  1
  7  8  1  0
  8  3  1  0
  9 11  1  0
  9  7  1  0
 10  9  2  0
 12 17  1  0
 12 11  1  0
 13 14  1  0
 12 13  1  6
 14 15  1  0
 15 16  2  0
 17 18  1  0
 19 15  1  0
 20 17  2  0
M  END
$$$$
