GSE.pdb
     RDKit          3D

 20 19  0  0  1  0  0  0  0  0999 V2000
    3.6571  -21.1374   22.5242 N   0  0  0  0  0  0  0  0  0  0  0  0
    3.9180  -19.7477   22.7884 C   0  0  0  0  0  0  0  0  0  0  0  0
    5.3082  -19.5699   23.2778 C   0  0  0  0  0  0  0  0  0  0  0  0
    5.9896  -20.6048   23.5446 O   0  0  0  0  0  0  0  0  0  0  0  0
    7.1394  -15.7871   23.8603 O   0  0  0  0  0  0  0  0  0  0  0  0
    7.8881  -16.8826   23.4973 C   0  0  0  0  0  0  0  0  0  0  0  0
    7.2610  -18.1856   24.0077 C   0  0  2  0  0  0  0  0  0  0  0  0
    5.9274  -18.3053   23.4674 N   0  0  0  0  0  0  0  0  0  0  0  0
    7.2941  -18.1972   25.4742 C   0  0  0  0  0  0  0  0  0  0  0  0
    6.3393  -17.5927   26.0617 O   0  0  0  0  0  0  0  0  0  0  0  0
    8.2706  -18.8067   26.2693 N   0  0  0  0  0  0  0  0  0  0  0  0
    8.1999  -18.7518   27.7375 C   0  0  1  0  0  0  0  0  0  0  0  0
    7.8503  -20.1253   28.1955 C   0  0  0  0  0  0  0  0  0  0  0  0
    8.9921  -21.0461   28.4415 C   0  0  0  0  0  0  0  0  0  0  0  0
    8.6439  -22.4097   28.8555 C   0  0  0  0  0  0  0  0  0  0  0  0
    7.4495  -22.7130   29.0215 O   0  0  0  0  0  0  0  0  0  0  0  0
    9.4904  -18.2625   28.2428 C   0  0  0  0  0  0  0  0  0  0  0  0
    9.7759  -18.0647   29.5877 O   0  0  0  0  0  0  0  0  0  0  0  0
    9.6175  -23.3486   29.0611 O   0  0  0  0  0  0  0  0  0  0  0  0
   10.4325  -17.9894   27.4506 O   0  0  0  0  0  0  0  0  0  0  0  0
  2  1  1  0
  3  2  1  0
  4  3  2  0
  6  5  1  0
  7  6  1  1
  7  8  1  0
  8  3  1  0
  9 11  1  0
  9  7  1  0
 10  9  2  0
 12 17  1  0
 12 11  1  0
 13 14  1  0
 12 13  1  1
 14 15  1  0
 15 16  2  0
 17 18  1  0
 19 15  1  0
 20 17  2  0
M  END
$$$$
