GSE.pdb
     RDKit          3D

 20 19  0  0  1  0  0  0  0  0999 V2000
    7.0140  -11.9999   19.4250 N   0  0  0  0  0  0  0  0  0  0  0  0
    7.8663  -12.7763   18.5650 C   0  0  0  0  0  0  0  0  0  0  0  0
    8.2229  -14.0606   19.2187 C   0  0  0  0  0  0  0  0  0  0  0  0
    7.9558  -14.2045   20.4492 O   0  0  0  0  0  0  0  0  0  0  0  0
   10.6498  -17.2393   17.5513 O   0  0  0  0  0  0  0  0  0  0  0  0
    9.4433  -17.4641   18.1727 C   0  0  0  0  0  0  0  0  0  0  0  0
    9.1433  -16.3877   19.2230 C   0  0  2  0  0  0  0  0  0  0  0  0
    8.8489  -15.1457   18.5482 N   0  0  0  0  0  0  0  0  0  0  0  0
   10.2750  -16.2877   20.1509 C   0  0  0  0  0  0  0  0  0  0  0  0
   11.1635  -15.4224   19.8608 O   0  0  0  0  0  0  0  0  0  0  0  0
   10.4577  -17.0505   21.3094 N   0  0  0  0  0  0  0  0  0  0  0  0
   11.5914  -16.8024   22.2132 C   0  0  1  0  0  0  0  0  0  0  0  0
   11.2516  -17.4573   23.5071 C   0  0  0  0  0  0  0  0  0  0  0  0
   12.2461  -17.3031   24.6022 C   0  0  0  0  0  0  0  0  0  0  0  0
   11.9517  -18.0213   25.8471 C   0  0  0  0  0  0  0  0  0  0  0  0
   12.7120  -17.8929   26.8226 O   0  0  0  0  0  0  0  0  0  0  0  0
   12.8094  -17.3260   21.5787 C   0  0  0  0  0  0  0  0  0  0  0  0
   14.0723  -16.7709   21.7407 O   0  0  0  0  0  0  0  0  0  0  0  0
   10.8522  -18.8294   25.9452 O   0  0  0  0  0  0  0  0  0  0  0  0
   12.7630  -18.3399   20.8307 O   0  0  0  0  0  0  0  0  0  0  0  0
  2  1  1  0
  3  2  1  0
  4  3  2  0
  6  5  1  0
  7  6  1  6
  7  8  1  0
  8  3  1  0
  9 11  1  0
  9  7  1  0
 10  9  2  0
 12 17  1  0
 12 11  1  0
 13 14  1  0
 12 13  1  1
 14 15  1  0
 15 16  2  0
 17 18  1  0
 19 15  1  0
 20 17  2  0
M  END
$$$$
