GSE.pdb
     RDKit          3D

 20 19  0  0  1  0  0  0  0  0999 V2000
    9.4731  -18.2855   18.8493 N   0  0  0  0  0  0  0  0  0  0  0  0
    9.0324  -18.1962   20.2156 C   0  0  0  0  0  0  0  0  0  0  0  0
    9.8406  -17.1916   20.9514 C   0  0  0  0  0  0  0  0  0  0  0  0
   10.8676  -16.7123   20.3840 O   0  0  0  0  0  0  0  0  0  0  0  0
    9.0883  -16.1277   24.9836 O   0  0  0  0  0  0  0  0  0  0  0  0
    9.6999  -15.2218   24.1483 C   0  0  0  0  0  0  0  0  0  0  0  0
   10.4619  -15.9251   23.0185 C   0  0  2  0  0  0  0  0  0  0  0  0
    9.5340  -16.7303   22.2599 N   0  0  0  0  0  0  0  0  0  0  0  0
   11.5680  -16.7008   23.5898 C   0  0  0  0  0  0  0  0  0  0  0  0
   11.3403  -17.9376   23.7917 O   0  0  0  0  0  0  0  0  0  0  0  0
   12.8320  -16.2045   23.9262 N   0  0  0  0  0  0  0  0  0  0  0  0
   13.8696  -17.0825   24.4885 C   0  0  1  0  0  0  0  0  0  0  0  0
   15.1799  -16.4688   24.1347 C   0  0  0  0  0  0  0  0  0  0  0  0
   15.8093  -16.9454   22.8741 C   0  0  0  0  0  0  0  0  0  0  0  0
   17.0564  -16.2789   22.4834 C   0  0  0  0  0  0  0  0  0  0  0  0
   17.4880  -16.4176   21.3256 O   0  0  0  0  0  0  0  0  0  0  0  0
   13.6363  -17.2040   25.9345 C   0  0  0  0  0  0  0  0  0  0  0  0
   12.6797  -16.4782   26.6327 O   0  0  0  0  0  0  0  0  0  0  0  0
   17.7479  -15.5087   23.3779 O   0  0  0  0  0  0  0  0  0  0  0  0
   14.3181  -18.0013   26.6339 O   0  0  0  0  0  0  0  0  0  0  0  0
  2  1  1  0
  3  2  1  0
  4  3  2  0
  6  5  1  0
  7  6  1  1
  7  8  1  0
  8  3  1  0
  9 11  1  0
  9  7  1  0
 10  9  2  0
 12 17  1  0
 12 11  1  0
 13 14  1  0
 12 13  1  1
 14 15  1  0
 15 16  2  0
 17 18  1  0
 19 15  1  0
 20 17  2  0
M  END
$$$$
