GSE.pdb
     RDKit          3D

 20 19  0  0  1  0  0  0  0  0999 V2000
    8.3987  -13.2753   17.7485 N   0  0  0  0  0  0  0  0  0  0  0  0
    7.6794  -14.0878   18.6927 C   0  0  0  0  0  0  0  0  0  0  0  0
    8.2914  -13.9731   20.0403 C   0  0  0  0  0  0  0  0  0  0  0  0
    9.4540  -13.4771   20.1334 O   0  0  0  0  0  0  0  0  0  0  0  0
    6.5554  -15.5750   23.5701 O   0  0  0  0  0  0  0  0  0  0  0  0
    7.2735  -14.4033   23.6329 C   0  0  0  0  0  0  0  0  0  0  0  0
    8.3231  -14.3275   22.5174 C   0  0  2  0  0  0  0  0  0  0  0  0
    7.6525  -14.3868   21.2401 N   0  0  0  0  0  0  0  0  0  0  0  0
    9.3070  -15.3991   22.7045 C   0  0  0  0  0  0  0  0  0  0  0  0
    9.1674  -16.4248   21.9624 O   0  0  0  0  0  0  0  0  0  0  0  0
   10.3693  -15.3897   23.6150 N   0  0  0  0  0  0  0  0  0  0  0  0
   11.2953  -16.5281   23.7160 C   0  0  1  0  0  0  0  0  0  0  0  0
   12.6419  -16.0119   23.3435 C   0  0  0  0  0  0  0  0  0  0  0  0
   13.7654  -16.9824   23.4340 C   0  0  0  0  0  0  0  0  0  0  0  0
   15.1087  -16.4373   23.2089 C   0  0  0  0  0  0  0  0  0  0  0  0
   15.3168  -15.7095   22.2225 O   0  0  0  0  0  0  0  0  0  0  0  0
   11.2169  -17.0658   25.0817 C   0  0  0  0  0  0  0  0  0  0  0  0
   11.7260  -18.3005   25.4630 O   0  0  0  0  0  0  0  0  0  0  0  0
   16.1324  -16.7215   24.0708 O   0  0  0  0  0  0  0  0  0  0  0  0
   10.6637  -16.4076   26.0039 O   0  0  0  0  0  0  0  0  0  0  0  0
  2  1  1  0
  3  2  1  0
  4  3  2  0
  6  5  1  0
  7  6  1  1
  7  8  1  0
  8  3  1  0
  9 11  1  0
  9  7  1  0
 10  9  2  0
 12 17  1  0
 12 11  1  0
 13 14  1  0
 12 13  1  1
 14 15  1  0
 15 16  2  0
 17 18  1  0
 19 15  1  0
 20 17  2  0
M  END
$$$$
