GSE.pdb
     RDKit          3D

 20 19  0  0  1  0  0  0  0  0999 V2000
    5.3235  -18.9334   19.7283 N   0  0  0  0  0  0  0  0  0  0  0  0
    5.2973  -17.6581   20.3930 C   0  0  0  0  0  0  0  0  0  0  0  0
    6.6283  -17.0064   20.3070 C   0  0  0  0  0  0  0  0  0  0  0  0
    7.5808  -17.6505   19.7737 O   0  0  0  0  0  0  0  0  0  0  0  0
    7.5012  -13.0976   21.7920 O   0  0  0  0  0  0  0  0  0  0  0  0
    8.1641  -13.6302   20.7106 C   0  0  0  0  0  0  0  0  0  0  0  0
    8.2437  -15.1592   20.7979 C   0  0  2  0  0  0  0  0  0  0  0  0
    6.9042  -15.6981   20.7877 N   0  0  0  0  0  0  0  0  0  0  0  0
    9.0101  -15.5370   21.9902 C   0  0  0  0  0  0  0  0  0  0  0  0
    8.3507  -15.6248   23.0764 O   0  0  0  0  0  0  0  0  0  0  0  0
   10.3826  -15.8048   22.0341 N   0  0  0  0  0  0  0  0  0  0  0  0
   11.0212  -16.3072   23.2603 C   0  0  1  0  0  0  0  0  0  0  0  0
   10.9395  -17.7933   23.2010 C   0  0  0  0  0  0  0  0  0  0  0  0
   10.9243  -18.5028   24.5081 C   0  0  0  0  0  0  0  0  0  0  0  0
   11.0036  -19.9665   24.4488 C   0  0  0  0  0  0  0  0  0  0  0  0
   12.1157  -20.5215   24.4865 O   0  0  0  0  0  0  0  0  0  0  0  0
   12.3940  -15.7846   23.3119 C   0  0  0  0  0  0  0  0  0  0  0  0
   13.1858  -15.7868   24.4531 O   0  0  0  0  0  0  0  0  0  0  0  0
    9.8693  -20.7252   24.3519 O   0  0  0  0  0  0  0  0  0  0  0  0
   12.9363  -15.2920   22.2858 O   0  0  0  0  0  0  0  0  0  0  0  0
  2  1  1  0
  3  2  1  0
  4  3  2  0
  6  5  1  0
  7  6  1  1
  7  8  1  0
  8  3  1  0
  9 11  1  0
  9  7  1  0
 10  9  2  0
 12 17  1  0
 12 11  1  0
 13 14  1  0
 12 13  1  6
 14 15  1  0
 15 16  2  0
 17 18  1  0
 19 15  1  0
 20 17  2  0
M  END
$$$$
