GSE.pdb
     RDKit          3D

 20 19  0  0  1  0  0  0  0  0999 V2000
    3.8415  -19.5231   22.2778 N   0  0  0  0  0  0  0  0  0  0  0  0
    3.9193  -18.0873   22.2392 C   0  0  0  0  0  0  0  0  0  0  0  0
    5.3112  -17.6556   21.9563 C   0  0  0  0  0  0  0  0  0  0  0  0
    6.2217  -18.5370   21.9312 O   0  0  0  0  0  0  0  0  0  0  0  0
    8.3715  -14.1618   20.5018 O   0  0  0  0  0  0  0  0  0  0  0  0
    7.0971  -14.5230   20.8729 C   0  0  0  0  0  0  0  0  0  0  0  0
    7.0633  -15.9389   21.4608 C   0  0  2  0  0  0  0  0  0  0  0  0
    5.6901  -16.3085   21.7105 N   0  0  0  0  0  0  0  0  0  0  0  0
    7.9022  -15.9842   22.6633 C   0  0  0  0  0  0  0  0  0  0  0  0
    7.4264  -15.4192   23.7009 O   0  0  0  0  0  0  0  0  0  0  0  0
    9.1610  -16.5862   22.7648 N   0  0  0  0  0  0  0  0  0  0  0  0
    9.9044  -16.5866   24.0341 C   0  0  1  0  0  0  0  0  0  0  0  0
   10.0525  -18.0129   24.4368 C   0  0  0  0  0  0  0  0  0  0  0  0
   10.8162  -18.2663   25.6877 C   0  0  0  0  0  0  0  0  0  0  0  0
   10.9938  -19.6738   26.0615 C   0  0  0  0  0  0  0  0  0  0  0  0
   10.5554  -20.5657   25.3143 O   0  0  0  0  0  0  0  0  0  0  0  0
   11.1804  -15.8891   23.8207 C   0  0  0  0  0  0  0  0  0  0  0  0
   11.9938  -15.4223   24.8454 O   0  0  0  0  0  0  0  0  0  0  0  0
   11.6346  -20.0141   27.2213 O   0  0  0  0  0  0  0  0  0  0  0  0
   11.6117  -15.6739   22.6557 O   0  0  0  0  0  0  0  0  0  0  0  0
  2  1  1  0
  3  2  1  0
  4  3  2  0
  6  5  1  0
  7  6  1  1
  7  8  1  0
  8  3  1  0
  9 11  1  0
  9  7  1  0
 10  9  2  0
 12 17  1  0
 12 11  1  0
 13 14  1  0
 12 13  1  6
 14 15  1  0
 15 16  2  0
 17 18  1  0
 19 15  1  0
 20 17  2  0
M  END
$$$$
