GSE.pdb
     RDKit          3D

 20 19  0  0  1  0  0  0  0  0999 V2000
    8.0406  -15.0872   13.7629 N   0  0  0  0  0  0  0  0  0  0  0  0
    7.3549  -14.9819   15.0230 C   0  0  0  0  0  0  0  0  0  0  0  0
    8.2803  -14.4836   16.0714 C   0  0  0  0  0  0  0  0  0  0  0  0
    9.5219  -14.4621   15.8179 O   0  0  0  0  0  0  0  0  0  0  0  0
    7.3121  -13.8563   20.1389 O   0  0  0  0  0  0  0  0  0  0  0  0
    7.9929  -12.8648   19.4711 C   0  0  0  0  0  0  0  0  0  0  0  0
    8.7834  -13.4279   18.2838 C   0  0  2  0  0  0  0  0  0  0  0  0
    7.8598  -14.0264   17.3492 N   0  0  0  0  0  0  0  0  0  0  0  0
    9.7961  -14.3669   18.7779 C   0  0  0  0  0  0  0  0  0  0  0  0
    9.5427  -15.6041   18.6118 O   0  0  0  0  0  0  0  0  0  0  0  0
   10.9981  -14.0237   19.4063 N   0  0  0  0  0  0  0  0  0  0  0  0
   12.0260  -15.0373   19.6885 C   0  0  1  0  0  0  0  0  0  0  0  0
   13.3387  -14.4063   19.3768 C   0  0  0  0  0  0  0  0  0  0  0  0
   14.5461  -15.2258   19.6644 C   0  0  0  0  0  0  0  0  0  0  0  0
   15.8384  -14.5519   19.4968 C   0  0  0  0  0  0  0  0  0  0  0  0
   16.1360  -14.0643   18.3923 O   0  0  0  0  0  0  0  0  0  0  0  0
   11.8828  -15.4611   21.0886 C   0  0  0  0  0  0  0  0  0  0  0  0
   12.4948  -16.5850   21.6286 O   0  0  0  0  0  0  0  0  0  0  0  0
   16.7176  -14.4553   20.5405 O   0  0  0  0  0  0  0  0  0  0  0  0
   11.1720  -14.8006   21.8936 O   0  0  0  0  0  0  0  0  0  0  0  0
  2  1  1  0
  3  2  1  0
  4  3  2  0
  6  5  1  0
  7  6  1  1
  7  8  1  0
  8  3  1  0
  9 11  1  0
  9  7  1  0
 10  9  2  0
 12 17  1  0
 12 11  1  0
 13 14  1  0
 12 13  1  1
 14 15  1  0
 15 16  2  0
 17 18  1  0
 19 15  1  0
 20 17  2  0
M  END
$$$$
