GSE.pdb
     RDKit          3D

 20 19  0  0  1  0  0  0  0  0999 V2000
    9.5949  -17.8359   18.6895 N   0  0  0  0  0  0  0  0  0  0  0  0
    8.7716  -17.4666   19.8096 C   0  0  0  0  0  0  0  0  0  0  0  0
    9.5694  -16.7082   20.8057 C   0  0  0  0  0  0  0  0  0  0  0  0
   10.8161  -16.5868   20.6121 O   0  0  0  0  0  0  0  0  0  0  0  0
    7.9620  -15.2166   24.4102 O   0  0  0  0  0  0  0  0  0  0  0  0
    8.9610  -14.5051   23.7871 C   0  0  0  0  0  0  0  0  0  0  0  0
    9.8488  -15.4159   22.9304 C   0  0  2  0  0  0  0  0  0  0  0  0
    9.0208  -16.1061   21.9699 N   0  0  0  0  0  0  0  0  0  0  0  0
   10.5988  -16.3234   23.8054 C   0  0  0  0  0  0  0  0  0  0  0  0
   10.0792  -17.4694   24.0027 O   0  0  0  0  0  0  0  0  0  0  0  0
   11.8176  -16.0407   24.4315 N   0  0  0  0  0  0  0  0  0  0  0  0
   12.5687  -17.0867   25.1425 C   0  0  1  0  0  0  0  0  0  0  0  0
   14.0060  -16.7040   25.0614 C   0  0  0  0  0  0  0  0  0  0  0  0
   14.6531  -16.8601   23.7314 C   0  0  0  0  0  0  0  0  0  0  0  0
   16.0742  -16.5031   23.6593 C   0  0  0  0  0  0  0  0  0  0  0  0
   16.6473  -16.0640   24.6716 O   0  0  0  0  0  0  0  0  0  0  0  0
   12.0490  -17.1750   26.5144 C   0  0  0  0  0  0  0  0  0  0  0  0
   12.3380  -18.2125   27.3915 O   0  0  0  0  0  0  0  0  0  0  0  0
   16.7735  -16.6475   22.4923 O   0  0  0  0  0  0  0  0  0  0  0  0
   11.2891  -16.2809   26.9758 O   0  0  0  0  0  0  0  0  0  0  0  0
  2  1  1  0
  3  2  1  0
  4  3  2  0
  6  5  1  0
  7  6  1  1
  7  8  1  0
  8  3  1  0
  9 11  1  0
  9  7  1  0
 10  9  2  0
 12 17  1  0
 12 11  1  0
 13 14  1  0
 12 13  1  1
 14 15  1  0
 15 16  2  0
 17 18  1  0
 19 15  1  0
 20 17  2  0
M  END
$$$$
