GSE.pdb
     RDKit          3D

 20 19  0  0  1  0  0  0  0  0999 V2000
    3.8116  -20.7301   22.4124 N   0  0  0  0  0  0  0  0  0  0  0  0
    4.6309  -19.5655   22.2087 C   0  0  0  0  0  0  0  0  0  0  0  0
    6.0589  -19.9553   22.0957 C   0  0  0  0  0  0  0  0  0  0  0  0
    6.3689  -21.1689   22.2891 O   0  0  0  0  0  0  0  0  0  0  0  0
    9.0396  -17.5864   20.2959 O   0  0  0  0  0  0  0  0  0  0  0  0
    9.0532  -18.9612   20.3427 C   0  0  0  0  0  0  0  0  0  0  0  0
    8.4785  -19.4839   21.6649 C   0  0  2  0  0  0  0  0  0  0  0  0
    7.1069  -19.0485   21.7827 N   0  0  0  0  0  0  0  0  0  0  0  0
    9.3260  -19.0321   22.7737 C   0  0  0  0  0  0  0  0  0  0  0  0
    9.1143  -17.8492   23.1957 O   0  0  0  0  0  0  0  0  0  0  0  0
   10.3313  -19.7793   23.3968 N   0  0  0  0  0  0  0  0  0  0  0  0
   11.1279  -19.2151   24.4972 C   0  0  1  0  0  0  0  0  0  0  0  0
   10.6822  -19.9060   25.7392 C   0  0  0  0  0  0  0  0  0  0  0  0
   11.4501  -19.5961   26.9747 C   0  0  0  0  0  0  0  0  0  0  0  0
   11.0413  -20.3156   28.1861 C   0  0  0  0  0  0  0  0  0  0  0  0
   10.0808  -21.1036   28.1354 O   0  0  0  0  0  0  0  0  0  0  0  0
   12.5505  -19.4083   24.1821 C   0  0  0  0  0  0  0  0  0  0  0  0
   13.5779  -18.6423   24.7178 O   0  0  0  0  0  0  0  0  0  0  0  0
   11.7041  -20.1284   29.3682 O   0  0  0  0  0  0  0  0  0  0  0  0
   12.9177  -20.3107   23.3818 O   0  0  0  0  0  0  0  0  0  0  0  0
  2  1  1  0
  3  2  1  0
  4  3  2  0
  6  5  1  0
  7  6  1  6
  7  8  1  0
  8  3  1  0
  9 11  1  0
  9  7  1  0
 10  9  2  0
 12 17  1  0
 12 11  1  0
 13 14  1  0
 12 13  1  1
 14 15  1  0
 15 16  2  0
 17 18  1  0
 19 15  1  0
 20 17  2  0
M  END
$$$$
