GSE.pdb
     RDKit          3D

 20 19  0  0  1  0  0  0  0  0999 V2000
    7.1985  -14.3301   19.6501 N   0  0  0  0  0  0  0  0  0  0  0  0
    6.4210  -14.1609   20.8484 C   0  0  0  0  0  0  0  0  0  0  0  0
    7.3116  -14.1018   22.0346 C   0  0  0  0  0  0  0  0  0  0  0  0
    8.5518  -14.3019   21.8670 O   0  0  0  0  0  0  0  0  0  0  0  0
    5.8984  -13.6772   25.9744 O   0  0  0  0  0  0  0  0  0  0  0  0
    7.0701  -13.0416   25.6343 C   0  0  0  0  0  0  0  0  0  0  0  0
    7.7736  -13.7469   24.4684 C   0  0  2  0  0  0  0  0  0  0  0  0
    6.8590  -13.8336   23.3545 N   0  0  0  0  0  0  0  0  0  0  0  0
    8.2634  -15.0545   24.9177 C   0  0  0  0  0  0  0  0  0  0  0  0
    7.4550  -16.0305   24.7901 O   0  0  0  0  0  0  0  0  0  0  0  0
    9.5237  -15.3159   25.4660 N   0  0  0  0  0  0  0  0  0  0  0  0
    9.9260  -16.6826   25.8320 C   0  0  1  0  0  0  0  0  0  0  0  0
   11.2380  -16.9283   25.1710 C   0  0  0  0  0  0  0  0  0  0  0  0
   11.8976  -18.2245   25.4823 C   0  0  0  0  0  0  0  0  0  0  0  0
   13.1605  -18.4899   24.7846 C   0  0  0  0  0  0  0  0  0  0  0  0
   13.5869  -17.6668   23.9559 O   0  0  0  0  0  0  0  0  0  0  0  0
    9.9681  -16.7732   27.2984 C   0  0  0  0  0  0  0  0  0  0  0  0
    9.9173  -17.9669   28.0068 O   0  0  0  0  0  0  0  0  0  0  0  0
   13.8718  -19.6313   25.0353 O   0  0  0  0  0  0  0  0  0  0  0  0
   10.0551  -15.7341   28.0073 O   0  0  0  0  0  0  0  0  0  0  0  0
  2  1  1  0
  3  2  1  0
  4  3  2  0
  6  5  1  0
  7  6  1  1
  7  8  1  0
  8  3  1  0
  9 11  1  0
  9  7  1  0
 10  9  2  0
 12 17  1  0
 12 11  1  0
 13 14  1  0
 12 13  1  6
 14 15  1  0
 15 16  2  0
 17 18  1  0
 19 15  1  0
 20 17  2  0
M  END
$$$$
