GSE.pdb
     RDKit          3D

 20 19  0  0  1  0  0  0  0  0999 V2000
    9.0689  -13.8893   16.4918 N   0  0  0  0  0  0  0  0  0  0  0  0
    7.9591  -14.2476   17.3338 C   0  0  0  0  0  0  0  0  0  0  0  0
    8.3349  -14.1136   18.7637 C   0  0  0  0  0  0  0  0  0  0  0  0
    9.5662  -14.0762   19.0618 O   0  0  0  0  0  0  0  0  0  0  0  0
    6.9078  -13.6589   23.4178 O   0  0  0  0  0  0  0  0  0  0  0  0
    6.5731  -13.7244   22.0851 C   0  0  0  0  0  0  0  0  0  0  0  0
    7.8151  -13.8942   21.2018 C   0  0  2  0  0  0  0  0  0  0  0  0
    7.3959  -14.0241   19.8263 N   0  0  0  0  0  0  0  0  0  0  0  0
    8.5960  -15.0404   21.6792 C   0  0  0  0  0  0  0  0  0  0  0  0
    8.2446  -16.1820   21.2369 O   0  0  0  0  0  0  0  0  0  0  0  0
    9.6773  -14.9863   22.5653 N   0  0  0  0  0  0  0  0  0  0  0  0
   10.3203  -16.2143   23.0575 C   0  0  1  0  0  0  0  0  0  0  0  0
   11.7413  -16.1538   22.6152 C   0  0  0  0  0  0  0  0  0  0  0  0
   12.6061  -17.2919   23.0263 C   0  0  0  0  0  0  0  0  0  0  0  0
   14.0218  -17.1941   22.6539 C   0  0  0  0  0  0  0  0  0  0  0  0
   14.5829  -16.0845   22.6663 O   0  0  0  0  0  0  0  0  0  0  0  0
   10.1491  -16.2711   24.5162 C   0  0  0  0  0  0  0  0  0  0  0  0
   10.4233  -17.3918   25.2895 O   0  0  0  0  0  0  0  0  0  0  0  0
   14.7289  -18.3083   22.2933 O   0  0  0  0  0  0  0  0  0  0  0  0
    9.7301  -15.2691   25.1565 O   0  0  0  0  0  0  0  0  0  0  0  0
  2  1  1  0
  3  2  1  0
  4  3  2  0
  6  5  1  0
  7  6  1  1
  7  8  1  0
  8  3  1  0
  9 11  1  0
  9  7  1  0
 10  9  2  0
 12 17  1  0
 12 11  1  0
 13 14  1  0
 12 13  1  1
 14 15  1  0
 15 16  2  0
 17 18  1  0
 19 15  1  0
 20 17  2  0
M  END
$$$$
