NWV.pdb
     RDKit          3D

 30 31  0  0  1  0  0  0  0  0999 V2000
   28.6546  -22.6802  -17.7141 N   0  0  0  0  0  0  0  0  0  0  0  0
   28.9746  -21.8703  -16.5707 C   0  0  0  0  0  0  0  0  0  0  0  0
   29.7726  -20.9223  -16.7678 O   0  0  0  0  0  0  0  0  0  0  0  0
   28.3694  -22.1776  -15.2534 C   0  0  0  0  0  0  0  0  0  0  0  0
   27.3348  -21.1342  -14.9207 C   0  0  2  0  0  0  0  0  0  0  0  0
   27.9047  -19.8342  -14.7546 N   0  0  0  0  0  0  0  0  0  0  0  0
   26.4923  -21.4685  -13.7748 C   0  0  0  0  0  0  0  0  0  0  0  0
   25.9571  -22.6203  -13.7336 O   0  0  0  0  0  0  0  0  0  0  0  0
   26.2438  -20.5524  -12.6936 N   0  0  0  0  0  0  0  0  0  0  0  0
   25.3041  -20.9401  -11.6811 C   0  0  1  0  0  0  0  0  0  0  0  0
   25.5830  -20.2821  -10.3557 C   0  0  0  0  0  0  0  0  0  0  0  0
   26.8934  -20.6831   -9.8005 C   0  0  0  0  0  0  0  0  0  0  0  0
   27.7686  -21.5555  -10.4093 C   0  0  0  0  0  0  0  0  0  0  0  0
   28.8606  -21.7043   -9.6464 N   0  0  0  0  0  0  0  0  0  0  0  0
   28.7202  -20.9402   -8.5379 C   0  0  0  0  0  0  0  0  0  0  0  0
   29.5645  -20.7523   -7.4602 C   0  0  0  0  0  0  0  0  0  0  0  0
   29.1636  -19.9014   -6.4530 C   0  0  0  0  0  0  0  0  0  0  0  0
   27.9535  -19.2621   -6.5295 C   0  0  0  0  0  0  0  0  0  0  0  0
   27.1058  -19.4492   -7.6090 C   0  0  0  0  0  0  0  0  0  0  0  0
   27.5006  -20.3031   -8.6267 C   0  0  0  0  0  0  0  0  0  0  0  0
   23.9011  -20.5951  -12.1159 C   0  0  0  0  0  0  0  0  0  0  0  0
   23.6060  -19.4141  -12.4274 O   0  0  0  0  0  0  0  0  0  0  0  0
   22.1431  -22.0415  -14.9311 C   0  0  0  0  0  0  0  0  0  0  0  0
   21.1504  -22.1967  -13.8001 C   0  0  2  0  0  0  0  0  0  0  0  0
   19.7744  -21.8756  -14.3036 C   0  0  0  0  0  0  0  0  0  0  0  0
   21.5698  -21.2524  -12.6776 C   0  0  2  0  0  0  0  0  0  0  0  0
   22.8879  -21.5913  -12.1828 N   0  0  0  0  0  0  0  0  0  0  0  0
   20.5899  -21.2839  -11.5732 C   0  0  0  0  0  0  0  0  0  0  0  0
   20.6109  -22.2338  -10.7426 O   0  0  0  0  0  0  0  0  0  0  0  0
   19.6283  -20.3106  -11.3916 O   0  0  0  0  0  0  0  0  0  0  0  0
  2  1  1  0
  2  3  2  0
  4  5  1  0
  4  2  1  0
  5  7  1  0
  5  6  1  1
  7  8  2  0
  9 10  1  0
  9  7  1  0
 11 12  1  0
 10 11  1  1
 12 13  2  0
 14 13  1  0
 15 14  1  0
 16 15  2  0
 17 16  1  0
 18 19  1  0
 18 17  2  0
 19 20  2  0
 20 15  1  0
 20 12  1  0
 21 10  1  0
 21 22  2  0
 24 23  1  6
 24 26  1  0
 25 24  1  0
 26 27  1  1
 26 28  1  0
 27 21  1  0
 28 29  2  0
 28 30  1  0
M  END
$$$$
