NWV.pdb
     RDKit          3D

 30 31  0  0  1  0  0  0  0  0999 V2000
   26.2809  -21.4978  -20.9725 N   0  0  0  0  0  0  0  0  0  0  0  0
   26.3643  -20.7065  -19.7756 C   0  0  0  0  0  0  0  0  0  0  0  0
   26.4486  -19.4649  -19.9358 O   0  0  0  0  0  0  0  0  0  0  0  0
   26.3472  -21.3669  -18.4491 C   0  0  0  0  0  0  0  0  0  0  0  0
   27.4334  -20.7830  -17.5836 C   0  0  2  0  0  0  0  0  0  0  0  0
   28.7411  -21.1553  -18.0238 N   0  0  0  0  0  0  0  0  0  0  0  0
   27.2798  -21.0622  -16.1578 C   0  0  0  0  0  0  0  0  0  0  0  0
   26.7070  -22.1424  -15.8117 O   0  0  0  0  0  0  0  0  0  0  0  0
   27.7485  -20.1694  -15.1315 N   0  0  0  0  0  0  0  0  0  0  0  0
   27.5084  -20.5268  -13.7629 C   0  0  1  0  0  0  0  0  0  0  0  0
   28.4714  -19.8592  -12.8170 C   0  0  0  0  0  0  0  0  0  0  0  0
   28.4137  -20.4440  -11.4603 C   0  0  0  0  0  0  0  0  0  0  0  0
   29.0679  -21.5929  -11.0736 C   0  0  0  0  0  0  0  0  0  0  0  0
   28.8076  -21.8477   -9.7836 N   0  0  0  0  0  0  0  0  0  0  0  0
   27.9879  -20.8804   -9.3095 C   0  0  0  0  0  0  0  0  0  0  0  0
   27.4420  -20.6979   -8.0532 C   0  0  0  0  0  0  0  0  0  0  0  0
   26.6278  -19.6060   -7.8438 C   0  0  0  0  0  0  0  0  0  0  0  0
   26.3725  -18.7284   -8.8654 C   0  0  0  0  0  0  0  0  0  0  0  0
   26.9188  -18.9098  -10.1254 C   0  0  0  0  0  0  0  0  0  0  0  0
   27.7389  -20.0051  -10.3454 C   0  0  0  0  0  0  0  0  0  0  0  0
   26.0988  -20.1591  -13.3702 C   0  0  0  0  0  0  0  0  0  0  0  0
   25.6606  -19.0021  -13.5896 O   0  0  0  0  0  0  0  0  0  0  0  0
   22.9052  -22.6484  -13.3171 C   0  0  0  0  0  0  0  0  0  0  0  0
   22.8322  -21.1420  -13.1975 C   0  0  2  0  0  0  0  0  0  0  0  0
   22.9879  -20.5307  -14.5584 C   0  0  0  0  0  0  0  0  0  0  0  0
   23.9430  -20.6940  -12.2526 C   0  0  2  0  0  0  0  0  0  0  0  0
   25.2399  -21.1067  -12.7474 N   0  0  0  0  0  0  0  0  0  0  0  0
   23.7238  -21.2312  -10.8946 C   0  0  0  0  0  0  0  0  0  0  0  0
   24.4752  -22.1433  -10.4517 O   0  0  0  0  0  0  0  0  0  0  0  0
   22.7200  -20.7827  -10.0602 O   0  0  0  0  0  0  0  0  0  0  0  0
  2  1  1  0
  2  3  2  0
  4  5  1  0
  4  2  1  0
  5  7  1  0
  5  6  1  6
  7  8  2  0
  9 10  1  0
  9  7  1  0
 11 12  1  0
 10 11  1  1
 12 13  2  0
 14 13  1  0
 15 14  1  0
 16 15  2  0
 17 16  1  0
 18 19  1  0
 18 17  2  0
 19 20  2  0
 20 15  1  0
 20 12  1  0
 21 10  1  0
 21 22  2  0
 24 23  1  6
 24 26  1  0
 25 24  1  0
 26 27  1  6
 26 28  1  0
 27 21  1  0
 28 29  2  0
 28 30  1  0
M  END
$$$$
