NWV.pdb
     RDKit          3D

 30 31  0  0  1  0  0  0  0  0999 V2000
   28.4921  -21.8478  -17.4450 N   0  0  0  0  0  0  0  0  0  0  0  0
   28.4618  -23.1259  -16.7883 C   0  0  0  0  0  0  0  0  0  0  0  0
   29.1455  -24.0368  -17.3147 O   0  0  0  0  0  0  0  0  0  0  0  0
   27.6532  -23.3076  -15.5599 C   0  0  0  0  0  0  0  0  0  0  0  0
   27.0306  -21.9923  -15.1696 C   0  0  2  0  0  0  0  0  0  0  0  0
   28.0036  -20.9627  -14.9810 N   0  0  0  0  0  0  0  0  0  0  0  0
   26.1427  -22.0688  -14.0118 C   0  0  0  0  0  0  0  0  0  0  0  0
   25.4737  -23.1341  -13.8325 O   0  0  0  0  0  0  0  0  0  0  0  0
   25.9940  -20.9927  -13.0684 N   0  0  0  0  0  0  0  0  0  0  0  0
   25.0085  -21.1308  -12.0348 C   0  0  1  0  0  0  0  0  0  0  0  0
   25.3423  -20.3205  -10.8103 C   0  0  0  0  0  0  0  0  0  0  0  0
   26.5874  -20.7824  -10.1602 C   0  0  0  0  0  0  0  0  0  0  0  0
   27.5317  -21.5873  -10.7584 C   0  0  0  0  0  0  0  0  0  0  0  0
   28.5348  -21.8200   -9.9002 N   0  0  0  0  0  0  0  0  0  0  0  0
   28.2669  -21.1782   -8.7388 C   0  0  0  0  0  0  0  0  0  0  0  0
   28.9862  -21.1089   -7.5610 C   0  0  0  0  0  0  0  0  0  0  0  0
   28.4697  -20.3692   -6.5193 C   0  0  0  0  0  0  0  0  0  0  0  0
   27.2697  -19.7218   -6.6598 C   0  0  0  0  0  0  0  0  0  0  0  0
   26.5473  -19.7901   -7.8398 C   0  0  0  0  0  0  0  0  0  0  0  0
   27.0588  -20.5316   -8.8930 C   0  0  0  0  0  0  0  0  0  0  0  0
   23.6544  -20.7092  -12.5494 C   0  0  0  0  0  0  0  0  0  0  0  0
   23.4321  -19.5068  -12.8391 O   0  0  0  0  0  0  0  0  0  0  0  0
   21.6421  -22.5298  -15.2667 C   0  0  0  0  0  0  0  0  0  0  0  0
   20.6946  -22.2912  -14.1117 C   0  0  2  0  0  0  0  0  0  0  0  0
   19.3640  -21.8520  -14.6473 C   0  0  0  0  0  0  0  0  0  0  0  0
   21.3141  -21.2267  -13.2113 C   0  0  2  0  0  0  0  0  0  0  0  0
   22.6060  -21.6559  -12.7175 N   0  0  0  0  0  0  0  0  0  0  0  0
   20.4182  -20.9110  -12.0806 C   0  0  0  0  0  0  0  0  0  0  0  0
   20.3932  -21.6664  -11.0699 O   0  0  0  0  0  0  0  0  0  0  0  0
   19.5856  -19.8103  -12.0641 O   0  0  0  0  0  0  0  0  0  0  0  0
  2  1  1  0
  2  3  2  0
  4  5  1  0
  4  2  1  0
  5  7  1  0
  5  6  1  1
  7  8  2  0
  9 10  1  0
  9  7  1  0
 11 12  1  0
 10 11  1  1
 12 13  2  0
 14 13  1  0
 15 14  1  0
 16 15  2  0
 17 16  1  0
 18 19  1  0
 18 17  2  0
 19 20  2  0
 20 15  1  0
 20 12  1  0
 21 10  1  0
 21 22  2  0
 24 23  1  6
 24 26  1  0
 25 24  1  0
 26 27  1  1
 26 28  1  0
 27 21  1  0
 28 29  2  0
 28 30  1  0
M  END
$$$$
