NWV.pdb
     RDKit          3D

 30 31  0  0  1  0  0  0  0  0999 V2000
   44.5107   -6.4310  -15.4233 N   0  0  0  0  0  0  0  0  0  0  0  0
   43.9597   -7.3815  -14.4967 C   0  0  0  0  0  0  0  0  0  0  0  0
   44.2059   -8.5898  -14.7288 O   0  0  0  0  0  0  0  0  0  0  0  0
   43.1528   -6.9112  -13.3463 C   0  0  0  0  0  0  0  0  0  0  0  0
   41.9093   -7.7536  -13.2275 C   0  0  2  0  0  0  0  0  0  0  0  0
   40.8690   -7.3176  -14.1051 N   0  0  0  0  0  0  0  0  0  0  0  0
   41.4009   -7.8842  -11.8640 C   0  0  0  0  0  0  0  0  0  0  0  0
   40.9144   -6.8551  -11.2992 O   0  0  0  0  0  0  0  0  0  0  0  0
   41.4267   -9.1247  -11.1357 N   0  0  0  0  0  0  0  0  0  0  0  0
   40.9595   -9.1222   -9.7791 C   0  0  1  0  0  0  0  0  0  0  0  0
   39.7887  -10.0464   -9.5727 C   0  0  0  0  0  0  0  0  0  0  0  0
   39.1170   -9.8120   -8.2765 C   0  0  0  0  0  0  0  0  0  0  0  0
   39.3172  -10.5674   -7.1422 C   0  0  0  0  0  0  0  0  0  0  0  0
   38.5586  -10.0925   -6.1443 N   0  0  0  0  0  0  0  0  0  0  0  0
   37.8569   -9.0299   -6.6037 C   0  0  0  0  0  0  0  0  0  0  0  0
   36.9480   -8.2068   -5.9666 C   0  0  0  0  0  0  0  0  0  0  0  0
   36.3745   -7.1812   -6.6865 C   0  0  0  0  0  0  0  0  0  0  0  0
   36.7058   -6.9917   -8.0031 C   0  0  0  0  0  0  0  0  0  0  0  0
   37.6168   -7.8157   -8.6434 C   0  0  0  0  0  0  0  0  0  0  0  0
   38.1986   -8.8499   -7.9274 C   0  0  0  0  0  0  0  0  0  0  0  0
   42.0744   -9.5249   -8.8457 C   0  0  0  0  0  0  0  0  0  0  0  0
   42.8100  -10.5053   -9.1220 O   0  0  0  0  0  0  0  0  0  0  0  0
   45.5669   -8.2797   -5.8442 C   0  0  0  0  0  0  0  0  0  0  0  0
   44.3266   -7.8659   -6.6053 C   0  0  2  0  0  0  0  0  0  0  0  0
   43.5793   -6.8372   -5.8094 C   0  0  0  0  0  0  0  0  0  0  0  0
   43.4824   -9.1152   -6.8376 C   0  0  2  0  0  0  0  0  0  0  0  0
   42.3167   -8.8091   -7.6405 N   0  0  0  0  0  0  0  0  0  0  0  0
   43.0699   -9.7149   -5.5526 C   0  0  0  0  0  0  0  0  0  0  0  0
   41.9431   -9.4306   -5.0605 O   0  0  0  0  0  0  0  0  0  0  0  0
   43.8647  -10.5902   -4.8405 O   0  0  0  0  0  0  0  0  0  0  0  0
  2  1  1  0
  2  3  2  0
  4  5  1  0
  4  2  1  0
  5  7  1  0
  5  6  1  6
  7  8  2  0
  9 10  1  0
  9  7  1  0
 11 12  1  0
 10 11  1  6
 12 13  2  0
 14 13  1  0
 15 14  1  0
 16 15  2  0
 17 16  1  0
 18 19  1  0
 18 17  2  0
 19 20  2  0
 20 15  1  0
 20 12  1  0
 21 10  1  0
 21 22  2  0
 24 23  1  1
 24 26  1  0
 25 24  1  0
 26 27  1  6
 26 28  1  0
 27 21  1  0
 28 29  2  0
 28 30  1  0
M  END
$$$$
