NWV.pdb
     RDKit          3D

 30 31  0  0  1  0  0  0  0  0999 V2000
   26.2177  -19.5161  -19.1625 N   0  0  0  0  0  0  0  0  0  0  0  0
   26.1761  -20.9448  -19.0115 C   0  0  0  0  0  0  0  0  0  0  0  0
   25.5748  -21.5808  -19.9105 O   0  0  0  0  0  0  0  0  0  0  0  0
   26.8230  -21.5843  -17.8417 C   0  0  0  0  0  0  0  0  0  0  0  0
   27.3762  -20.5201  -16.9299 C   0  0  2  0  0  0  0  0  0  0  0  0
   28.6293  -20.0072  -17.3871 N   0  0  0  0  0  0  0  0  0  0  0  0
   27.4739  -20.9218  -15.5286 C   0  0  0  0  0  0  0  0  0  0  0  0
   26.7930  -21.9208  -15.1373 O   0  0  0  0  0  0  0  0  0  0  0  0
   28.3061  -20.2371  -14.5753 N   0  0  0  0  0  0  0  0  0  0  0  0
   28.2260  -20.6347  -13.1991 C   0  0  1  0  0  0  0  0  0  0  0  0
   29.3506  -20.0709  -12.3714 C   0  0  0  0  0  0  0  0  0  0  0  0
   30.3202  -21.1117  -11.9682 C   0  0  0  0  0  0  0  0  0  0  0  0
   30.8786  -22.0360  -12.8233 C   0  0  0  0  0  0  0  0  0  0  0  0
   31.7142  -22.8331  -12.1426 N   0  0  0  0  0  0  0  0  0  0  0  0
   31.7168  -22.4479  -10.8449 C   0  0  0  0  0  0  0  0  0  0  0  0
   32.4079  -22.9483   -9.7579 C   0  0  0  0  0  0  0  0  0  0  0  0
   32.2191  -22.3529   -8.5296 C   0  0  0  0  0  0  0  0  0  0  0  0
   31.3633  -21.2898   -8.4012 C   0  0  0  0  0  0  0  0  0  0  0  0
   30.6697  -20.7869   -9.4897 C   0  0  0  0  0  0  0  0  0  0  0  0
   30.8531  -21.3793  -10.7292 C   0  0  0  0  0  0  0  0  0  0  0  0
   26.9104  -20.1929  -12.6071 C   0  0  0  0  0  0  0  0  0  0  0  0
   26.5813  -18.9804  -12.6267 O   0  0  0  0  0  0  0  0  0  0  0  0
   23.5803  -20.8302  -13.4629 C   0  0  0  0  0  0  0  0  0  0  0  0
   23.5720  -21.2499  -12.0094 C   0  0  2  0  0  0  0  0  0  0  0  0
   22.3196  -20.7441  -11.3568 C   0  0  0  0  0  0  0  0  0  0  0  0
   24.8197  -20.6715  -11.3490 C   0  0  2  0  0  0  0  0  0  0  0  0
   26.0188  -21.1318  -12.0180 N   0  0  0  0  0  0  0  0  0  0  0  0
   24.8684  -21.0300   -9.9172 C   0  0  0  0  0  0  0  0  0  0  0  0
   25.4471  -22.0916   -9.5554 O   0  0  0  0  0  0  0  0  0  0  0  0
   24.3039  -20.2522   -8.9266 O   0  0  0  0  0  0  0  0  0  0  0  0
  2  1  1  0
  2  3  2  0
  4  5  1  0
  4  2  1  0
  5  7  1  0
  5  6  1  6
  7  8  2  0
  9 10  1  0
  9  7  1  0
 11 12  1  0
 10 11  1  1
 12 13  2  0
 14 13  1  0
 15 14  1  0
 16 15  2  0
 17 16  1  0
 18 19  1  0
 18 17  2  0
 19 20  2  0
 20 15  1  0
 20 12  1  0
 21 10  1  0
 21 22  2  0
 24 23  1  6
 24 26  1  0
 25 24  1  0
 26 27  1  6
 26 28  1  0
 27 21  1  0
 28 29  2  0
 28 30  1  0
M  END
$$$$
