NWV.pdb
     RDKit          3D

 30 31  0  0  1  0  0  0  0  0999 V2000
   29.0154  -19.5585  -16.9124 N   0  0  0  0  0  0  0  0  0  0  0  0
   27.8277  -20.1917  -17.4164 C   0  0  0  0  0  0  0  0  0  0  0  0
   27.5073  -19.9114  -18.5967 O   0  0  0  0  0  0  0  0  0  0  0  0
   27.0586  -21.1172  -16.5515 C   0  0  0  0  0  0  0  0  0  0  0  0
   27.7306  -21.2231  -15.2072 C   0  0  2  0  0  0  0  0  0  0  0  0
   28.7998  -22.1714  -15.2048 N   0  0  0  0  0  0  0  0  0  0  0  0
   26.8165  -21.4870  -14.0985 C   0  0  0  0  0  0  0  0  0  0  0  0
   26.2250  -22.6108  -14.0571 O   0  0  0  0  0  0  0  0  0  0  0  0
   26.5584  -20.5318  -13.0539 N   0  0  0  0  0  0  0  0  0  0  0  0
   25.5761  -20.8632  -12.0620 C   0  0  1  0  0  0  0  0  0  0  0  0
   25.8016  -20.1345  -10.7637 C   0  0  0  0  0  0  0  0  0  0  0  0
   27.0444  -20.5688  -10.0908 C   0  0  0  0  0  0  0  0  0  0  0  0
   28.0357  -21.3191  -10.6840 C   0  0  0  0  0  0  0  0  0  0  0  0
   29.0221  -21.5398   -9.8036 N   0  0  0  0  0  0  0  0  0  0  0  0
   28.6967  -20.9441   -8.6325 C   0  0  0  0  0  0  0  0  0  0  0  0
   29.3789  -20.8836   -7.4323 C   0  0  0  0  0  0  0  0  0  0  0  0
   28.8048  -20.1959   -6.3851 C   0  0  0  0  0  0  0  0  0  0  0  0
   27.5853  -19.5901   -6.5422 C   0  0  0  0  0  0  0  0  0  0  0  0
   26.9000  -19.6496   -7.7446 C   0  0  0  0  0  0  0  0  0  0  0  0
   27.4695  -20.3391   -8.8034 C   0  0  0  0  0  0  0  0  0  0  0  0
   24.1936  -20.5411  -12.5731 C   0  0  0  0  0  0  0  0  0  0  0  0
   23.9323  -19.3948  -13.0165 O   0  0  0  0  0  0  0  0  0  0  0  0
   22.5926  -22.1761  -15.3035 C   0  0  0  0  0  0  0  0  0  0  0  0
   21.5224  -22.2420  -14.2362 C   0  0  2  0  0  0  0  0  0  0  0  0
   20.1883  -21.9486  -14.8560 C   0  0  0  0  0  0  0  0  0  0  0  0
   21.8746  -21.2220  -13.1577 C   0  0  2  0  0  0  0  0  0  0  0  0
   23.1618  -21.5204  -12.5650 N   0  0  0  0  0  0  0  0  0  0  0  0
   20.8318  -21.1834  -12.1128 C   0  0  0  0  0  0  0  0  0  0  0  0
   20.7936  -22.0852  -11.2307 O   0  0  0  0  0  0  0  0  0  0  0  0
   19.8724  -20.1937  -12.0426 O   0  0  0  0  0  0  0  0  0  0  0  0
  2  1  1  0
  2  3  2  0
  4  5  1  0
  4  2  1  0
  5  7  1  0
  5  6  1  6
  7  8  2  0
  9 10  1  0
  9  7  1  0
 11 12  1  0
 10 11  1  1
 12 13  2  0
 14 13  1  0
 15 14  1  0
 16 15  2  0
 17 16  1  0
 18 19  1  0
 18 17  2  0
 19 20  2  0
 20 15  1  0
 20 12  1  0
 21 10  1  0
 21 22  2  0
 24 23  1  6
 24 26  1  0
 25 24  1  0
 26 27  1  1
 26 28  1  0
 27 21  1  0
 28 29  2  0
 28 30  1  0
M  END
$$$$
