NWV.pdb
     RDKit          3D

 30 31  0  0  1  0  0  0  0  0999 V2000
   26.6724  -22.1255  -19.9680 N   0  0  0  0  0  0  0  0  0  0  0  0
   27.3953  -22.3202  -18.7411 C   0  0  0  0  0  0  0  0  0  0  0  0
   28.6470  -22.2951  -18.8245 O   0  0  0  0  0  0  0  0  0  0  0  0
   26.6580  -22.5341  -17.4737 C   0  0  0  0  0  0  0  0  0  0  0  0
   26.9151  -21.3782  -16.5421 C   0  0  2  0  0  0  0  0  0  0  0  0
   28.3031  -21.0505  -16.4492 N   0  0  0  0  0  0  0  0  0  0  0  0
   26.3429  -21.5438  -15.2080 C   0  0  0  0  0  0  0  0  0  0  0  0
   25.2617  -22.2011  -15.0914 O   0  0  0  0  0  0  0  0  0  0  0  0
   26.9498  -20.9966  -14.0239 N   0  0  0  0  0  0  0  0  0  0  0  0
   26.2719  -21.1758  -12.7720 C   0  0  1  0  0  0  0  0  0  0  0  0
   27.1482  -20.8489  -11.5919 C   0  0  0  0  0  0  0  0  0  0  0  0
   26.4071  -20.9133  -10.3142 C   0  0  0  0  0  0  0  0  0  0  0  0
   25.2455  -21.6270  -10.1171 C   0  0  0  0  0  0  0  0  0  0  0  0
   24.8322  -21.4752   -8.8510 N   0  0  0  0  0  0  0  0  0  0  0  0
   25.7068  -20.6686   -8.2053 C   0  0  0  0  0  0  0  0  0  0  0  0
   25.7211  -20.2176   -6.8991 C   0  0  0  0  0  0  0  0  0  0  0  0
   26.7505  -19.3925   -6.5011 C   0  0  0  0  0  0  0  0  0  0  0  0
   27.7316  -19.0342   -7.3888 C   0  0  0  0  0  0  0  0  0  0  0  0
   27.7190  -19.4853   -8.6984 C   0  0  0  0  0  0  0  0  0  0  0  0
   26.6876  -20.3156   -9.1079 C   0  0  0  0  0  0  0  0  0  0  0  0
   25.0370  -20.3104  -12.7223 C   0  0  0  0  0  0  0  0  0  0  0  0
   25.1320  -19.0625  -12.8341 O   0  0  0  0  0  0  0  0  0  0  0  0
   21.5184  -21.3385  -14.2783 C   0  0  0  0  0  0  0  0  0  0  0  0
   21.9017  -19.9376  -13.8546 C   0  0  2  0  0  0  0  0  0  0  0  0
   22.8186  -19.3444  -14.8829 C   0  0  0  0  0  0  0  0  0  0  0  0
   22.5772  -20.0307  -12.4899 C   0  0  2  0  0  0  0  0  0  0  0  0
   23.7464  -20.8831  -12.5492 N   0  0  0  0  0  0  0  0  0  0  0  0
   21.6335  -20.5341  -11.4716 C   0  0  0  0  0  0  0  0  0  0  0  0
   21.7536  -21.7111  -11.0322 O   0  0  0  0  0  0  0  0  0  0  0  0
   20.6019  -19.7736  -10.9594 O   0  0  0  0  0  0  0  0  0  0  0  0
  2  1  1  0
  2  3  2  0
  4  5  1  0
  4  2  1  0
  5  7  1  0
  5  6  1  1
  7  8  2  0
  9 10  1  0
  9  7  1  0
 11 12  1  0
 10 11  1  1
 12 13  2  0
 14 13  1  0
 15 14  1  0
 16 15  2  0
 17 16  1  0
 18 19  1  0
 18 17  2  0
 19 20  2  0
 20 15  1  0
 20 12  1  0
 21 10  1  0
 21 22  2  0
 24 23  1  6
 24 26  1  0
 25 24  1  0
 26 27  1  6
 26 28  1  0
 27 21  1  0
 28 29  2  0
 28 30  1  0
M  END
$$$$
