NWV.pdb
     RDKit          3D

 30 31  0  0  1  0  0  0  0  0999 V2000
   26.8734  -19.9572  -17.7298 N   0  0  0  0  0  0  0  0  0  0  0  0
   27.3135  -19.6466  -16.3974 C   0  0  0  0  0  0  0  0  0  0  0  0
   28.3799  -18.9922  -16.3033 O   0  0  0  0  0  0  0  0  0  0  0  0
   26.5169  -20.0960  -15.2314 C   0  0  0  0  0  0  0  0  0  0  0  0
   27.3446  -21.0311  -14.3884 C   0  0  2  0  0  0  0  0  0  0  0  0
   27.5541  -22.2952  -15.0212 N   0  0  0  0  0  0  0  0  0  0  0  0
   26.8393  -21.2213  -13.0308 C   0  0  0  0  0  0  0  0  0  0  0  0
   25.9235  -22.0817  -12.8417 O   0  0  0  0  0  0  0  0  0  0  0  0
   27.3332  -20.4788  -11.9018 N   0  0  0  0  0  0  0  0  0  0  0  0
   26.6899  -20.6689  -10.6335 C   0  0  1  0  0  0  0  0  0  0  0  0
   27.4372  -20.0088   -9.5051 C   0  0  0  0  0  0  0  0  0  0  0  0
   26.8365  -20.3110   -8.1883 C   0  0  0  0  0  0  0  0  0  0  0  0
   25.6645  -21.0107   -8.0036 C   0  0  0  0  0  0  0  0  0  0  0  0
   25.4002  -21.1100   -6.6933 N   0  0  0  0  0  0  0  0  0  0  0  0
   26.3841  -20.4840   -6.0059 C   0  0  0  0  0  0  0  0  0  0  0  0
   26.5655  -20.3134   -4.6466 C   0  0  0  0  0  0  0  0  0  0  0  0
   27.6772  -19.6232   -4.2146 C   0  0  0  0  0  0  0  0  0  0  0  0
   28.5751  -19.1223   -5.1212 C   0  0  0  0  0  0  0  0  0  0  0  0
   28.3949  -19.2924   -6.4841 C   0  0  0  0  0  0  0  0  0  0  0  0
   27.2797  -19.9852   -6.9280 C   0  0  0  0  0  0  0  0  0  0  0  0
   25.2840  -20.1232  -10.6779 C   0  0  0  0  0  0  0  0  0  0  0  0
   25.0857  -18.8947  -10.8522 O   0  0  0  0  0  0  0  0  0  0  0  0
   23.3795  -20.5335  -13.2938 C   0  0  0  0  0  0  0  0  0  0  0  0
   22.4274  -21.0830  -12.2544 C   0  0  2  0  0  0  0  0  0  0  0  0
   21.0250  -20.6889  -12.6121 C   0  0  0  0  0  0  0  0  0  0  0  0
   22.8388  -20.5174  -10.8985 C   0  0  2  0  0  0  0  0  0  0  0  0
   24.1591  -20.9804  -10.5247 N   0  0  0  0  0  0  0  0  0  0  0  0
   21.8584  -20.8865   -9.8577 C   0  0  0  0  0  0  0  0  0  0  0  0
   21.9937  -21.9695   -9.2240 O   0  0  0  0  0  0  0  0  0  0  0  0
   20.7754  -20.0964   -9.5291 O   0  0  0  0  0  0  0  0  0  0  0  0
  2  1  1  0
  2  3  2  0
  4  5  1  0
  4  2  1  0
  5  7  1  0
  5  6  1  6
  7  8  2  0
  9 10  1  0
  9  7  1  0
 11 12  1  0
 10 11  1  1
 12 13  2  0
 14 13  1  0
 15 14  1  0
 16 15  2  0
 17 16  1  0
 18 19  1  0
 18 17  2  0
 19 20  2  0
 20 15  1  0
 20 12  1  0
 21 10  1  0
 21 22  2  0
 24 23  1  6
 24 26  1  0
 25 24  1  0
 26 27  1  1
 26 28  1  0
 27 21  1  0
 28 29  2  0
 28 30  1  0
M  END
$$$$
