NWV.pdb
     RDKit          3D

 30 31  0  0  1  0  0  0  0  0999 V2000
   27.1175  -26.2666  -17.7060 N   0  0  0  0  0  0  0  0  0  0  0  0
   28.4085  -26.2252  -17.0757 C   0  0  0  0  0  0  0  0  0  0  0  0
   29.1673  -27.1989  -17.3003 O   0  0  0  0  0  0  0  0  0  0  0  0
   28.7767  -25.0744  -16.2179 C   0  0  0  0  0  0  0  0  0  0  0  0
   28.8324  -23.8224  -17.0542 C   0  0  2  0  0  0  0  0  0  0  0  0
   30.1086  -23.6334  -17.6691 N   0  0  0  0  0  0  0  0  0  0  0  0
   28.4256  -22.6101  -16.3476 C   0  0  0  0  0  0  0  0  0  0  0  0
   28.9248  -22.3821  -15.2016 O   0  0  0  0  0  0  0  0  0  0  0  0
   27.4869  -21.6656  -16.8925 N   0  0  0  0  0  0  0  0  0  0  0  0
   27.1999  -20.4825  -16.1331 C   0  0  1  0  0  0  0  0  0  0  0  0
   26.6866  -19.3580  -16.9929 C   0  0  0  0  0  0  0  0  0  0  0  0
   26.3852  -18.1459  -16.2016 C   0  0  0  0  0  0  0  0  0  0  0  0
   27.2490  -17.5635  -15.3004 C   0  0  0  0  0  0  0  0  0  0  0  0
   26.6713  -16.4837  -14.7552 N   0  0  0  0  0  0  0  0  0  0  0  0
   25.4335  -16.3427  -15.2847 C   0  0  0  0  0  0  0  0  0  0  0  0
   24.4561  -15.3943  -15.0507 C   0  0  0  0  0  0  0  0  0  0  0  0
   23.2682  -15.4919  -15.7424 C   0  0  0  0  0  0  0  0  0  0  0  0
   23.0722  -16.5100  -16.6389 C   0  0  0  0  0  0  0  0  0  0  0  0
   24.0509  -17.4616  -16.8748 C   0  0  0  0  0  0  0  0  0  0  0  0
   25.2489  -17.3717  -16.1838 C   0  0  0  0  0  0  0  0  0  0  0  0
   26.1814  -20.7876  -15.0626 C   0  0  0  0  0  0  0  0  0  0  0  0
   25.2502  -21.6010  -15.2864 O   0  0  0  0  0  0  0  0  0  0  0  0
   27.1137  -21.1271  -11.1732 C   0  0  0  0  0  0  0  0  0  0  0  0
   25.8963  -20.2492  -11.3624 C   0  0  2  0  0  0  0  0  0  0  0  0
   24.9032  -20.5418  -10.2770 C   0  0  0  0  0  0  0  0  0  0  0  0
   25.3184  -20.5431  -12.7435 C   0  0  2  0  0  0  0  0  0  0  0  0
   26.2515  -20.1662  -13.7848 N   0  0  0  0  0  0  0  0  0  0  0  0
   24.0341  -19.8395  -12.9343 C   0  0  0  0  0  0  0  0  0  0  0  0
   24.0211  -18.6831  -13.4394 O   0  0  0  0  0  0  0  0  0  0  0  0
   22.8164  -20.3867  -12.5839 O   0  0  0  0  0  0  0  0  0  0  0  0
  2  1  1  0
  2  3  2  0
  4  5  1  0
  4  2  1  0
  5  7  1  0
  5  6  1  1
  7  8  2  0
  9 10  1  0
  9  7  1  0
 11 12  1  0
 10 11  1  6
 12 13  2  0
 14 13  1  0
 15 14  1  0
 16 15  2  0
 17 16  1  0
 18 19  1  0
 18 17  2  0
 19 20  2  0
 20 15  1  0
 20 12  1  0
 21 10  1  0
 21 22  2  0
 24 23  1  1
 24 26  1  0
 25 24  1  0
 26 27  1  6
 26 28  1  0
 27 21  1  0
 28 29  2  0
 28 30  1  0
M  END
$$$$
