NWV.pdb
     RDKit          3D

 30 31  0  0  1  0  0  0  0  0999 V2000
   26.8972  -26.0166  -16.0763 N   0  0  0  0  0  0  0  0  0  0  0  0
   25.5429  -25.6056  -16.3264 C   0  0  0  0  0  0  0  0  0  0  0  0
   24.8554  -26.3683  -17.0475 O   0  0  0  0  0  0  0  0  0  0  0  0
   25.0330  -24.3428  -15.7422 C   0  0  0  0  0  0  0  0  0  0  0  0
   24.5789  -24.5917  -14.3273 C   0  0  2  0  0  0  0  0  0  0  0  0
   23.2558  -25.1284  -14.2653 N   0  0  0  0  0  0  0  0  0  0  0  0
   24.6975  -23.4322  -13.4463 C   0  0  0  0  0  0  0  0  0  0  0  0
   23.7510  -22.5845  -13.4322 O   0  0  0  0  0  0  0  0  0  0  0  0
   25.8365  -23.2100  -12.5959 N   0  0  0  0  0  0  0  0  0  0  0  0
   25.8660  -22.0141  -11.8037 C   0  0  1  0  0  0  0  0  0  0  0  0
   26.9585  -22.0376  -10.7676 C   0  0  0  0  0  0  0  0  0  0  0  0
   26.7934  -20.9673   -9.7610 C   0  0  0  0  0  0  0  0  0  0  0  0
   25.7284  -20.0950   -9.7120 C   0  0  0  0  0  0  0  0  0  0  0  0
   25.8835  -19.2514   -8.6820 N   0  0  0  0  0  0  0  0  0  0  0  0
   27.0398  -19.5540   -8.0465 C   0  0  0  0  0  0  0  0  0  0  0  0
   27.6355  -18.9817   -6.9387 C   0  0  0  0  0  0  0  0  0  0  0  0
   28.8336  -19.4999   -6.4969 C   0  0  0  0  0  0  0  0  0  0  0  0
   29.4112  -20.5582   -7.1489 C   0  0  0  0  0  0  0  0  0  0  0  0
   28.8154  -21.1332   -8.2595 C   0  0  0  0  0  0  0  0  0  0  0  0
   27.6103  -20.6188   -8.7112 C   0  0  0  0  0  0  0  0  0  0  0  0
   26.0555  -20.8086  -12.6909 C   0  0  0  0  0  0  0  0  0  0  0  0
   27.1795  -20.5632  -13.1961 O   0  0  0  0  0  0  0  0  0  0  0  0
   26.5789  -20.5410  -15.3494 C   0  0  0  0  0  0  0  0  0  0  0  0
   25.2095  -19.9009  -15.4122 C   0  0  2  0  0  0  0  0  0  0  0  0
   25.1198  -19.0470  -16.6422 C   0  0  0  0  0  0  0  0  0  0  0  0
   25.0210  -19.0754  -14.1431 C   0  0  2  0  0  0  0  0  0  0  0  0
   24.9742  -19.9287  -12.9740 N   0  0  0  0  0  0  0  0  0  0  0  0
   23.7921  -18.2607  -14.2260 C   0  0  0  0  0  0  0  0  0  0  0  0
   22.7187  -18.6909  -13.7206 O   0  0  0  0  0  0  0  0  0  0  0  0
   23.7477  -17.0250  -14.8393 O   0  0  0  0  0  0  0  0  0  0  0  0
  2  1  1  0
  2  3  2  0
  4  5  1  0
  4  2  1  0
  5  7  1  0
  5  6  1  6
  7  8  2  0
  9 10  1  0
  9  7  1  0
 11 12  1  0
 10 11  1  1
 12 13  2  0
 14 13  1  0
 15 14  1  0
 16 15  2  0
 17 16  1  0
 18 19  1  0
 18 17  2  0
 19 20  2  0
 20 15  1  0
 20 12  1  0
 21 10  1  0
 21 22  2  0
 24 23  1  1
 24 26  1  0
 25 24  1  0
 26 27  1  1
 26 28  1  0
 27 21  1  0
 28 29  2  0
 28 30  1  0
M  END
$$$$
