NWV.pdb
     RDKit          3D

 30 31  0  0  1  0  0  0  0  0999 V2000
   28.5706  -21.9427  -18.0299 N   0  0  0  0  0  0  0  0  0  0  0  0
   27.1592  -22.0855  -18.2606 C   0  0  0  0  0  0  0  0  0  0  0  0
   26.7495  -21.7749  -19.4052 O   0  0  0  0  0  0  0  0  0  0  0  0
   26.2780  -22.5770  -17.1753 C   0  0  0  0  0  0  0  0  0  0  0  0
   27.0996  -22.8321  -15.9384 C   0  0  2  0  0  0  0  0  0  0  0  0
   27.6475  -24.1517  -15.9098 N   0  0  0  0  0  0  0  0  0  0  0  0
   26.4040  -22.5448  -14.6861 C   0  0  0  0  0  0  0  0  0  0  0  0
   25.5794  -23.4035  -14.2420 O   0  0  0  0  0  0  0  0  0  0  0  0
   26.6124  -21.3349  -13.9360 N   0  0  0  0  0  0  0  0  0  0  0  0
   25.7363  -21.0638  -12.8326 C   0  0  1  0  0  0  0  0  0  0  0  0
   26.2541  -19.9639  -11.9441 C   0  0  0  0  0  0  0  0  0  0  0  0
   27.3448  -20.4294  -11.0611 C   0  0  0  0  0  0  0  0  0  0  0  0
   28.5275  -20.9819  -11.5009 C   0  0  0  0  0  0  0  0  0  0  0  0
   29.2972  -21.2956  -10.4493 N   0  0  0  0  0  0  0  0  0  0  0  0
   28.6386  -20.9574   -9.3161 C   0  0  0  0  0  0  0  0  0  0  0  0
   29.0071  -21.0779   -7.9897 C   0  0  0  0  0  0  0  0  0  0  0  0
   28.1272  -20.6435   -7.0222 C   0  0  0  0  0  0  0  0  0  0  0  0
   26.9177  -20.1062   -7.3792 C   0  0  0  0  0  0  0  0  0  0  0  0
   26.5467  -19.9846   -8.7082 C   0  0  0  0  0  0  0  0  0  0  0  0
   27.4251  -20.4188   -9.6883 C   0  0  0  0  0  0  0  0  0  0  0  0
   24.3668  -20.6834  -13.3388 C   0  0  0  0  0  0  0  0  0  0  0  0
   24.2393  -19.7895  -14.2126 O   0  0  0  0  0  0  0  0  0  0  0  0
   22.1007  -22.4217  -15.2625 C   0  0  0  0  0  0  0  0  0  0  0  0
   21.2208  -22.0668  -14.0841 C   0  0  2  0  0  0  0  0  0  0  0  0
   19.8625  -21.6720  -14.5835 C   0  0  0  0  0  0  0  0  0  0  0  0
   21.8921  -20.9250  -13.3270 C   0  0  2  0  0  0  0  0  0  0  0  0
   23.1973  -21.3233  -12.8424 N   0  0  0  0  0  0  0  0  0  0  0  0
   21.0485  -20.4757  -12.2012 C   0  0  0  0  0  0  0  0  0  0  0  0
   20.3593  -19.4245  -12.3140 O   0  0  0  0  0  0  0  0  0  0  0  0
   20.9676  -21.1555  -11.0027 O   0  0  0  0  0  0  0  0  0  0  0  0
  2  1  1  0
  2  3  2  0
  4  5  1  0
  4  2  1  0
  5  7  1  0
  5  6  1  1
  7  8  2  0
  9 10  1  0
  9  7  1  0
 11 12  1  0
 10 11  1  6
 12 13  2  0
 14 13  1  0
 15 14  1  0
 16 15  2  0
 17 16  1  0
 18 19  1  0
 18 17  2  0
 19 20  2  0
 20 15  1  0
 20 12  1  0
 21 10  1  0
 21 22  2  0
 24 23  1  6
 24 26  1  0
 25 24  1  0
 26 27  1  1
 26 28  1  0
 27 21  1  0
 28 29  2  0
 28 30  1  0
M  END
$$$$
