ISG.pdb
     RDKit          3D

 19 18  0  0  1  0  0  0  0  0999 V2000
   15.9549  -11.4831  -18.8571 C   0  0  0  0  0  0  0  0  0  0  0  0
   17.2050  -12.1907  -18.4090 C   0  0  0  0  0  0  0  0  0  0  0  0
   17.9987  -11.2870  -17.5100 C   0  0  2  0  0  0  0  0  0  0  0  0
   18.3818  -10.0003  -18.2519 C   0  0  0  0  0  0  0  0  0  0  0  0
   19.2041  -11.9035  -16.8715 C   0  0  2  0  0  0  0  0  0  0  0  0
   18.6967  -12.9671  -15.9643 N   0  0  0  0  0  0  0  0  0  0  0  0
   20.0848  -11.0604  -16.1022 C   0  0  0  0  0  0  0  0  0  0  0  0
   19.6322  -10.6259  -14.9781 O   0  0  0  0  0  0  0  0  0  0  0  0
   23.9993  -11.2542  -14.9728 O   0  0  0  0  0  0  0  0  0  0  0  0
   23.6417  -10.0566  -15.5950 C   0  0  0  0  0  0  0  0  0  0  0  0
   22.1622   -9.7928  -15.4881 C   0  0  2  0  0  0  0  0  0  0  0  0
   21.3907  -10.6267  -16.3883 N   0  0  0  0  0  0  0  0  0  0  0  0
   21.9163   -8.3658  -15.8152 C   0  0  0  0  0  0  0  0  0  0  0  0
   21.6014   -7.9808  -16.9778 O   0  0  0  0  0  0  0  0  0  0  0  0
   22.0379   -7.3780  -14.7814 N   0  0  0  0  0  0  0  0  0  0  0  0
   21.7684   -5.9879  -15.0214 C   0  0  0  0  0  0  0  0  0  0  0  0
   21.9263   -5.1712  -13.7917 C   0  0  0  0  0  0  0  0  0  0  0  0
   21.7861   -3.7925  -13.8336 O   0  0  0  0  0  0  0  0  0  0  0  0
   22.1895   -5.6986  -12.6847 O   0  0  0  0  0  0  0  0  0  0  0  0
  2  1  1  0
  3  2  1  0
  3  4  1  6
  5  3  1  0
  5  7  1  0
  5  6  1  1
  7  8  2  0
 10  9  1  0
 11 10  1  6
 12 11  1  0
 12  7  1  0
 13 11  1  0
 13 15  1  0
 14 13  2  0
 16 15  1  0
 16 17  1  0
 17 18  1  0
 19 17  2  0
M  END
$$$$
