ISG.pdb
     RDKit          3D

 19 18  0  0  1  0  0  0  0  0999 V2000
   22.4229  -21.1863   -8.7225 C   0  0  0  0  0  0  0  0  0  0  0  0
   23.8625  -20.7524   -8.7807 C   0  0  0  0  0  0  0  0  0  0  0  0
   24.2040  -20.3320  -10.1812 C   0  0  2  0  0  0  0  0  0  0  0  0
   23.0188  -20.5925  -11.1195 C   0  0  0  0  0  0  0  0  0  0  0  0
   25.4598  -20.9189  -10.7464 C   0  0  2  0  0  0  0  0  0  0  0  0
   26.5338  -20.6354   -9.7574 N   0  0  0  0  0  0  0  0  0  0  0  0
   25.9201  -20.4562  -12.0318 C   0  0  0  0  0  0  0  0  0  0  0  0
   26.0144  -19.1817  -12.1869 O   0  0  0  0  0  0  0  0  0  0  0  0
   27.8825  -22.6028  -14.8980 O   0  0  0  0  0  0  0  0  0  0  0  0
   27.9283  -21.2111  -15.0000 C   0  0  0  0  0  0  0  0  0  0  0  0
   26.6972  -20.5684  -14.4156 C   0  0  2  0  0  0  0  0  0  0  0  0
   26.2931  -21.1907  -13.1706 N   0  0  0  0  0  0  0  0  0  0  0  0
   25.5936  -20.6891  -15.4012 C   0  0  0  0  0  0  0  0  0  0  0  0
   24.7299  -21.6109  -15.3430 O   0  0  0  0  0  0  0  0  0  0  0  0
   25.4935  -19.7295  -16.4635 N   0  0  0  0  0  0  0  0  0  0  0  0
   24.4909  -19.8289  -17.4869 C   0  0  0  0  0  0  0  0  0  0  0  0
   23.2412  -19.1211  -17.1107 C   0  0  0  0  0  0  0  0  0  0  0  0
   22.1128  -19.8300  -16.7281 O   0  0  0  0  0  0  0  0  0  0  0  0
   23.1675  -17.8692  -17.1269 O   0  0  0  0  0  0  0  0  0  0  0  0
  2  1  1  0
  3  2  1  0
  3  4  1  6
  5  3  1  0
  5  7  1  0
  5  6  1  1
  7  8  2  0
 10  9  1  0
 11 10  1  6
 12 11  1  0
 12  7  1  0
 13 11  1  0
 13 15  1  0
 14 13  2  0
 16 15  1  0
 16 17  1  0
 17 18  1  0
 19 17  2  0
M  END
$$$$
