ISG.pdb
     RDKit          3D

 19 18  0  0  1  0  0  0  0  0999 V2000
   20.2531  -10.6965  -20.0181 C   0  0  0  0  0  0  0  0  0  0  0  0
   20.9094  -10.7062  -18.6641 C   0  0  0  0  0  0  0  0  0  0  0  0
   20.5633   -9.4434  -17.9292 C   0  0  2  0  0  0  0  0  0  0  0  0
   20.9976   -8.2176  -18.7428 C   0  0  0  0  0  0  0  0  0  0  0  0
   21.0741   -9.3494  -16.5252 C   0  0  2  0  0  0  0  0  0  0  0  0
   20.5011  -10.5114  -15.7951 N   0  0  0  0  0  0  0  0  0  0  0  0
   20.7746   -8.1651  -15.7598 C   0  0  0  0  0  0  0  0  0  0  0  0
   19.5405   -7.9780  -15.4445 O   0  0  0  0  0  0  0  0  0  0  0  0
   21.9463   -6.6530  -12.3351 O   0  0  0  0  0  0  0  0  0  0  0  0
   22.0798   -5.7117  -13.3576 C   0  0  0  0  0  0  0  0  0  0  0  0
   21.1725   -6.0191  -14.5205 C   0  0  2  0  0  0  0  0  0  0  0  0
   21.6343   -7.1575  -15.2895 N   0  0  0  0  0  0  0  0  0  0  0  0
   21.1198   -4.8254  -15.4013 C   0  0  0  0  0  0  0  0  0  0  0  0
   21.9853   -4.6040  -16.2963 O   0  0  0  0  0  0  0  0  0  0  0  0
   20.0515   -3.8809  -15.2401 N   0  0  0  0  0  0  0  0  0  0  0  0
   19.9413   -2.7087  -16.0624 C   0  0  0  0  0  0  0  0  0  0  0  0
   18.7217   -1.9225  -15.7481 C   0  0  0  0  0  0  0  0  0  0  0  0
   17.7906   -2.3931  -14.8351 O   0  0  0  0  0  0  0  0  0  0  0  0
   18.4972   -0.8160  -16.2944 O   0  0  0  0  0  0  0  0  0  0  0  0
  2  1  1  0
  3  2  1  0
  3  4  1  6
  5  3  1  0
  5  7  1  0
  5  6  1  1
  7  8  2  0
 10  9  1  0
 11 10  1  1
 12 11  1  0
 12  7  1  0
 13 11  1  0
 13 15  1  0
 14 13  2  0
 16 15  1  0
 16 17  1  0
 17 18  1  0
 19 17  2  0
M  END
$$$$
