ISG.pdb
     RDKit          3D

 19 18  0  0  1  0  0  0  0  0999 V2000
   24.8628  -31.5880   -8.4276 C   0  0  0  0  0  0  0  0  0  0  0  0
   26.0670  -32.4848   -8.5271 C   0  0  0  0  0  0  0  0  0  0  0  0
   26.2306  -33.2499   -7.2454 C   0  0  2  0  0  0  0  0  0  0  0  0
   26.2176  -32.2916   -6.0477 C   0  0  0  0  0  0  0  0  0  0  0  0
   27.4195  -34.1570   -7.1790 C   0  0  2  0  0  0  0  0  0  0  0  0
   27.1942  -35.2142   -8.2005 N   0  0  0  0  0  0  0  0  0  0  0  0
   27.7165  -34.8150   -5.9313 C   0  0  0  0  0  0  0  0  0  0  0  0
   26.7651  -35.4995   -5.3985 O   0  0  0  0  0  0  0  0  0  0  0  0
   31.3676  -34.9039   -3.8666 O   0  0  0  0  0  0  0  0  0  0  0  0
   30.5209  -36.0090   -3.7599 C   0  0  0  0  0  0  0  0  0  0  0  0
   29.0803  -35.6319   -3.9891 C   0  0  2  0  0  0  0  0  0  0  0  0
   28.9073  -34.8314   -5.1849 N   0  0  0  0  0  0  0  0  0  0  0  0
   28.6059  -34.8598   -2.8132 C   0  0  0  0  0  0  0  0  0  0  0  0
   28.4602  -33.6039   -2.8401 O   0  0  0  0  0  0  0  0  0  0  0  0
   28.2982  -35.5541   -1.5956 N   0  0  0  0  0  0  0  0  0  0  0  0
   27.7458  -34.8803   -0.4540 C   0  0  0  0  0  0  0  0  0  0  0  0
   27.5206  -35.8079    0.6831 C   0  0  0  0  0  0  0  0  0  0  0  0
   27.0850  -35.3322    1.9104 O   0  0  0  0  0  0  0  0  0  0  0  0
   27.7158  -37.0416    0.5702 O   0  0  0  0  0  0  0  0  0  0  0  0
  2  1  1  0
  3  2  1  0
  3  4  1  1
  5  3  1  0
  5  7  1  0
  5  6  1  6
  7  8  2  0
 10  9  1  0
 11 10  1  1
 12 11  1  0
 12  7  1  0
 13 11  1  0
 13 15  1  0
 14 13  2  0
 16 15  1  0
 16 17  1  0
 17 18  1  0
 19 17  2  0
M  END
$$$$
