ISG.pdb
     RDKit          3D

 19 18  0  0  1  0  0  0  0  0999 V2000
   12.8669   -8.3122   -7.2723 C   0  0  0  0  0  0  0  0  0  0  0  0
   12.8048   -8.6894   -8.7277 C   0  0  0  0  0  0  0  0  0  0  0  0
   14.1967   -8.7714   -9.2850 C   0  0  2  0  0  0  0  0  0  0  0  0
   14.9768   -7.4912   -8.9600 C   0  0  0  0  0  0  0  0  0  0  0  0
   14.2931   -9.0885  -10.7448 C   0  0  2  0  0  0  0  0  0  0  0  0
   13.8503  -10.5005  -10.8942 N   0  0  0  0  0  0  0  0  0  0  0  0
   15.5736   -8.9639  -11.3949 C   0  0  0  0  0  0  0  0  0  0  0  0
   16.3592   -9.9813  -11.3233 O   0  0  0  0  0  0  0  0  0  0  0  0
   16.2841   -6.8208  -14.7391 O   0  0  0  0  0  0  0  0  0  0  0  0
   17.0271   -7.9503  -14.3907 C   0  0  0  0  0  0  0  0  0  0  0  0
   17.3196   -7.9914  -12.9133 C   0  0  2  0  0  0  0  0  0  0  0  0
   16.1156   -7.8844  -12.1135 N   0  0  0  0  0  0  0  0  0  0  0  0
   18.2251   -6.8622  -12.5838 C   0  0  0  0  0  0  0  0  0  0  0  0
   17.8397   -5.8530  -11.9265 O   0  0  0  0  0  0  0  0  0  0  0  0
   19.5907   -6.9069  -13.0226 N   0  0  0  0  0  0  0  0  0  0  0  0
   20.5171   -5.8475  -12.7364 C   0  0  0  0  0  0  0  0  0  0  0  0
   21.8928   -6.1755  -13.1883 C   0  0  0  0  0  0  0  0  0  0  0  0
   22.9173   -5.2488  -13.0711 O   0  0  0  0  0  0  0  0  0  0  0  0
   22.1693   -7.2927  -13.6867 O   0  0  0  0  0  0  0  0  0  0  0  0
  2  1  1  0
  3  2  1  0
  3  4  1  6
  5  3  1  0
  5  7  1  0
  5  6  1  1
  7  8  2  0
 10  9  1  0
 11 10  1  6
 12 11  1  0
 12  7  1  0
 13 11  1  0
 13 15  1  0
 14 13  2  0
 16 15  1  0
 16 17  1  0
 17 18  1  0
 19 17  2  0
M  END
$$$$
