ISG.pdb
     RDKit          3D

 19 18  0  0  1  0  0  0  0  0999 V2000
   20.6823  -13.5191  -20.4798 C   0  0  0  0  0  0  0  0  0  0  0  0
   20.9357  -13.2872  -19.0148 C   0  0  0  0  0  0  0  0  0  0  0  0
   20.9135  -11.8134  -18.7285 C   0  0  2  0  0  0  0  0  0  0  0  0
   21.9296  -11.0830  -19.6156 C   0  0  0  0  0  0  0  0  0  0  0  0
   21.0974  -11.4287  -17.2935 C   0  0  2  0  0  0  0  0  0  0  0  0
   20.2610  -12.3683  -16.5001 N   0  0  0  0  0  0  0  0  0  0  0  0
   20.7500  -10.0897  -16.8880 C   0  0  0  0  0  0  0  0  0  0  0  0
   21.5008   -9.1403  -17.3265 O   0  0  0  0  0  0  0  0  0  0  0  0
   17.8549   -8.8567  -14.1071 O   0  0  0  0  0  0  0  0  0  0  0  0
   18.0888   -8.0106  -15.1928 C   0  0  0  0  0  0  0  0  0  0  0  0
   19.4500   -8.2411  -15.7962 C   0  0  2  0  0  0  0  0  0  0  0  0
   19.6966   -9.6424  -16.0721 N   0  0  0  0  0  0  0  0  0  0  0  0
   20.4744   -7.7447  -14.8434 C   0  0  0  0  0  0  0  0  0  0  0  0
   21.0541   -8.5034  -14.0143 O   0  0  0  0  0  0  0  0  0  0  0  0
   20.8278   -6.3539  -14.8548 N   0  0  0  0  0  0  0  0  0  0  0  0
   21.8189   -5.8131  -13.9672 C   0  0  0  0  0  0  0  0  0  0  0  0
   22.0512   -4.3668  -14.2091 C   0  0  0  0  0  0  0  0  0  0  0  0
   21.4377   -3.7180  -15.2697 O   0  0  0  0  0  0  0  0  0  0  0  0
   22.8040   -3.6915  -13.4673 O   0  0  0  0  0  0  0  0  0  0  0  0
  2  1  1  0
  3  2  1  0
  3  4  1  6
  5  3  1  0
  5  7  1  0
  5  6  1  1
  7  8  2  0
 10  9  1  0
 11 10  1  1
 12 11  1  0
 12  7  1  0
 13 11  1  0
 13 15  1  0
 14 13  2  0
 16 15  1  0
 16 17  1  0
 17 18  1  0
 19 17  2  0
M  END
$$$$
