ISG.pdb
     RDKit          3D

 19 18  0  0  1  0  0  0  0  0999 V2000
   15.1140  -13.3510  -14.6715 C   0  0  0  0  0  0  0  0  0  0  0  0
   15.8806  -12.9088  -15.8884 C   0  0  0  0  0  0  0  0  0  0  0  0
   17.1416  -12.2138  -15.4624 C   0  0  2  0  0  0  0  0  0  0  0  0
   16.8081  -10.9541  -14.6530 C   0  0  0  0  0  0  0  0  0  0  0  0
   18.1073  -11.8921  -16.5600 C   0  0  2  0  0  0  0  0  0  0  0  0
   18.5685  -13.1969  -17.1045 N   0  0  0  0  0  0  0  0  0  0  0  0
   19.2795  -11.1154  -16.2422 C   0  0  0  0  0  0  0  0  0  0  0  0
   20.3611  -11.7725  -16.0063 O   0  0  0  0  0  0  0  0  0  0  0  0
   22.8771   -8.7178  -16.9987 O   0  0  0  0  0  0  0  0  0  0  0  0
   21.6421   -9.3500  -17.1552 C   0  0  0  0  0  0  0  0  0  0  0  0
   20.7257   -9.0797  -15.9903 C   0  0  2  0  0  0  0  0  0  0  0  0
   19.4359   -9.7219  -16.1475 N   0  0  0  0  0  0  0  0  0  0  0  0
   20.5290   -7.6124  -15.8802 C   0  0  0  0  0  0  0  0  0  0  0  0
   19.8195   -6.9598  -16.6986 O   0  0  0  0  0  0  0  0  0  0  0  0
   21.1628   -6.8978  -14.8092 N   0  0  0  0  0  0  0  0  0  0  0  0
   21.0569   -5.4716  -14.6783 C   0  0  0  0  0  0  0  0  0  0  0  0
   21.9388   -4.9453  -13.6062 C   0  0  0  0  0  0  0  0  0  0  0  0
   22.0641   -3.5804  -13.3977 O   0  0  0  0  0  0  0  0  0  0  0  0
   22.5932   -5.7130  -12.8609 O   0  0  0  0  0  0  0  0  0  0  0  0
  2  1  1  0
  3  2  1  0
  3  4  1  6
  5  3  1  0
  5  7  1  0
  5  6  1  1
  7  8  2  0
 10  9  1  0
 11 10  1  6
 12 11  1  0
 12  7  1  0
 13 11  1  0
 13 15  1  0
 14 13  2  0
 16 15  1  0
 16 17  1  0
 17 18  1  0
 19 17  2  0
M  END
$$$$
