ISG.pdb
     RDKit          3D

 19 18  0  0  1  0  0  0  0  0999 V2000
   17.9377  -14.4505  -15.8693 C   0  0  0  0  0  0  0  0  0  0  0  0
   18.1738  -13.2027  -16.6764 C   0  0  0  0  0  0  0  0  0  0  0  0
   18.4679  -12.0556  -15.7532 C   0  0  2  0  0  0  0  0  0  0  0  0
   17.3423  -11.8990  -14.7229 C   0  0  0  0  0  0  0  0  0  0  0  0
   18.7569  -10.7458  -16.4179 C   0  0  2  0  0  0  0  0  0  0  0  0
   19.9184  -10.9821  -17.3162 N   0  0  0  0  0  0  0  0  0  0  0  0
   19.0714   -9.6072  -15.5917 C   0  0  0  0  0  0  0  0  0  0  0  0
   18.1688   -9.2358  -14.7522 O   0  0  0  0  0  0  0  0  0  0  0  0
   21.9598   -6.2783  -13.5173 O   0  0  0  0  0  0  0  0  0  0  0  0
   21.8281   -7.3776  -14.3679 C   0  0  0  0  0  0  0  0  0  0  0  0
   20.3835   -7.6721  -14.6788 C   0  0  2  0  0  0  0  0  0  0  0  0
   20.2342   -8.8185  -15.5530 N   0  0  0  0  0  0  0  0  0  0  0  0
   19.7935   -6.4787  -15.3355 C   0  0  0  0  0  0  0  0  0  0  0  0
   19.9243   -6.2508  -16.5725 O   0  0  0  0  0  0  0  0  0  0  0  0
   19.0448   -5.5421  -14.5471 N   0  0  0  0  0  0  0  0  0  0  0  0
   18.4577   -4.3632  -15.1196 C   0  0  0  0  0  0  0  0  0  0  0  0
   19.4073   -3.2221  -15.1370 C   0  0  0  0  0  0  0  0  0  0  0  0
   20.6872   -3.3572  -14.6216 O   0  0  0  0  0  0  0  0  0  0  0  0
   19.0840   -2.1085  -15.6148 O   0  0  0  0  0  0  0  0  0  0  0  0
  2  1  1  0
  3  2  1  0
  3  4  1  1
  5  3  1  0
  5  7  1  0
  5  6  1  6
  7  8  2  0
 10  9  1  0
 11 10  1  6
 12 11  1  0
 12  7  1  0
 13 11  1  0
 13 15  1  0
 14 13  2  0
 16 15  1  0
 16 17  1  0
 17 18  1  0
 19 17  2  0
M  END
$$$$
