ISG.pdb
     RDKit          3D

 19 18  0  0  1  0  0  0  0  0999 V2000
   15.3525  -11.2929  -16.2701 C   0  0  0  0  0  0  0  0  0  0  0  0
   16.6839  -11.8609  -16.6810 C   0  0  0  0  0  0  0  0  0  0  0  0
   17.7873  -11.0582  -16.0543 C   0  0  2  0  0  0  0  0  0  0  0  0
   17.6203   -9.5707  -16.3894 C   0  0  0  0  0  0  0  0  0  0  0  0
   19.1786  -11.5138  -16.3668 C   0  0  2  0  0  0  0  0  0  0  0  0
   19.3304  -12.8516  -15.7352 N   0  0  0  0  0  0  0  0  0  0  0  0
   20.2855  -10.6996  -15.9308 C   0  0  0  0  0  0  0  0  0  0  0  0
   20.4482  -10.5790  -14.6595 O   0  0  0  0  0  0  0  0  0  0  0  0
   24.1224  -10.3768  -17.2954 O   0  0  0  0  0  0  0  0  0  0  0  0
   23.5130   -9.1460  -17.0438 C   0  0  0  0  0  0  0  0  0  0  0  0
   22.3508   -9.2829  -16.0949 C   0  0  2  0  0  0  0  0  0  0  0  0
   21.2403  -10.0002  -16.6889 N   0  0  0  0  0  0  0  0  0  0  0  0
   21.9004   -7.9225  -15.7073 C   0  0  0  0  0  0  0  0  0  0  0  0
   21.0324   -7.2816  -16.3669 O   0  0  0  0  0  0  0  0  0  0  0  0
   22.4641   -7.3020  -14.5426 N   0  0  0  0  0  0  0  0  0  0  0  0
   21.9786   -6.0482  -14.0378 C   0  0  0  0  0  0  0  0  0  0  0  0
   22.4716   -4.8990  -14.8382 C   0  0  0  0  0  0  0  0  0  0  0  0
   22.0139   -3.6140  -14.5901 O   0  0  0  0  0  0  0  0  0  0  0  0
   23.3114   -5.0532  -15.7569 O   0  0  0  0  0  0  0  0  0  0  0  0
  2  1  1  0
  3  2  1  0
  3  4  1  6
  5  3  1  0
  5  7  1  0
  5  6  1  1
  7  8  2  0
 10  9  1  0
 11 10  1  6
 12 11  1  0
 12  7  1  0
 13 11  1  0
 13 15  1  0
 14 13  2  0
 16 15  1  0
 16 17  1  0
 17 18  1  0
 19 17  2  0
M  END
$$$$
