ISG.pdb
     RDKit          3D

 19 18  0  0  1  0  0  0  0  0999 V2000
   24.9872  -15.1088  -17.3337 C   0  0  0  0  0  0  0  0  0  0  0  0
   24.5214  -14.4509  -16.0632 C   0  0  0  0  0  0  0  0  0  0  0  0
   24.3499  -12.9772  -16.2945 C   0  0  2  0  0  0  0  0  0  0  0  0
   25.6955  -12.3343  -16.6538 C   0  0  0  0  0  0  0  0  0  0  0  0
   23.6854  -12.2200  -15.1872 C   0  0  2  0  0  0  0  0  0  0  0  0
   22.5395  -13.0560  -14.7403 N   0  0  0  0  0  0  0  0  0  0  0  0
   23.1779  -10.8990  -15.4622 C   0  0  0  0  0  0  0  0  0  0  0  0
   24.0515   -9.9708  -15.6430 O   0  0  0  0  0  0  0  0  0  0  0  0
   19.1901   -9.5643  -15.4403 O   0  0  0  0  0  0  0  0  0  0  0  0
   20.0688   -8.9450  -16.3312 C   0  0  0  0  0  0  0  0  0  0  0  0
   21.5016   -9.0796  -15.8853 C   0  0  2  0  0  0  0  0  0  0  0  0
   21.8503  -10.4503  -15.5686 N   0  0  0  0  0  0  0  0  0  0  0  0
   21.6977   -8.2361  -14.6796 C   0  0  0  0  0  0  0  0  0  0  0  0
   21.6413   -8.7056  -13.5067 O   0  0  0  0  0  0  0  0  0  0  0  0
   21.9616   -6.8346  -14.8389 N   0  0  0  0  0  0  0  0  0  0  0  0
   22.0500   -5.9442  -13.7157 C   0  0  0  0  0  0  0  0  0  0  0  0
   22.2145   -4.5307  -14.1390 C   0  0  0  0  0  0  0  0  0  0  0  0
   22.1991   -3.5050  -13.2064 O   0  0  0  0  0  0  0  0  0  0  0  0
   22.3714   -4.2223  -15.3446 O   0  0  0  0  0  0  0  0  0  0  0  0
  2  1  1  0
  3  2  1  0
  3  4  1  1
  5  3  1  0
  5  7  1  0
  5  6  1  6
  7  8  2  0
 10  9  1  0
 11 10  1  1
 12 11  1  0
 12  7  1  0
 13 11  1  0
 13 15  1  0
 14 13  2  0
 16 15  1  0
 16 17  1  0
 17 18  1  0
 19 17  2  0
M  END
$$$$
