YSR.pdb
     RDKit          3D

 30 30  0  0  1  0  0  0  0  0999 V2000
   24.0835  -20.5719  -28.2408 O   0  0  0  0  0  0  0  0  0  0  0  0
   23.2780  -20.6623  -27.1230 C   0  0  0  0  0  0  0  0  0  0  0  0
   22.8770  -21.8952  -26.6160 C   0  0  0  0  0  0  0  0  0  0  0  0
   22.0730  -21.9764  -25.4997 C   0  0  0  0  0  0  0  0  0  0  0  0
   21.6549  -20.7970  -24.8683 C   0  0  0  0  0  0  0  0  0  0  0  0
   20.7846  -20.9294  -23.6874 C   0  0  0  0  0  0  0  0  0  0  0  0
   21.5995  -21.2015  -22.4480 C   0  0  2  0  0  0  0  0  0  0  0  0
   21.8246  -22.6468  -22.4330 N   0  0  0  0  0  0  0  0  0  0  0  0
   20.8230  -20.7905  -21.2571 C   0  0  0  0  0  0  0  0  0  0  0  0
   19.8864  -21.5000  -20.8547 O   0  0  0  0  0  0  0  0  0  0  0  0
   22.0502  -19.5787  -25.3684 C   0  0  0  0  0  0  0  0  0  0  0  0
   22.8563  -19.5058  -26.4875 C   0  0  0  0  0  0  0  0  0  0  0  0
   20.5606  -17.8814  -17.4234 O   0  0  0  0  0  0  0  0  0  0  0  0
   21.1969  -18.1148  -18.6269 C   0  0  0  0  0  0  0  0  0  0  0  0
   20.4202  -19.1873  -19.3746 C   0  0  2  0  0  0  0  0  0  0  0  0
   21.1444  -19.5894  -20.5720 N   0  0  0  0  0  0  0  0  0  0  0  0
   19.1089  -18.6716  -19.7637 C   0  0  0  0  0  0  0  0  0  0  0  0
   19.0415  -17.8729  -20.7606 O   0  0  0  0  0  0  0  0  0  0  0  0
   11.1725  -22.1093  -21.1084 N   0  0  0  0  0  0  0  0  0  0  0  0
   12.1468  -21.7068  -22.1098 C   0  0  0  0  0  0  0  0  0  0  0  0
   12.1104  -22.2068  -23.2792 N   0  0  0  0  0  0  0  0  0  0  0  0
   13.1406  -20.7555  -21.7979 N   0  0  0  0  0  0  0  0  0  0  0  0
   13.3005  -20.0891  -20.5758 C   0  0  0  0  0  0  0  0  0  0  0  0
   14.3675  -19.0833  -20.3875 C   0  0  0  0  0  0  0  0  0  0  0  0
   15.6366  -19.6319  -19.7965 C   0  0  0  0  0  0  0  0  0  0  0  0
   16.6246  -18.4912  -19.6632 C   0  0  2  0  0  0  0  0  0  0  0  0
   17.8726  -18.9769  -19.1302 N   0  0  0  0  0  0  0  0  0  0  0  0
   16.0656  -17.3712  -18.8519 C   0  0  0  0  0  0  0  0  0  0  0  0
   16.3612  -17.3257  -17.6374 O   0  0  0  0  0  0  0  0  0  0  0  0
   15.2452  -16.3877  -19.3619 O   0  0  0  0  0  0  0  0  0  0  0  0
  2  1  1  0
  3  2  2  0
  4  3  1  0
  5 11  1  0
  5  4  2  0
  6  5  1  0
  7  6  1  0
  7  8  1  1
  9  7  1  0
  9 10  2  0
 11 12  2  0
 12  2  1  0
 13 14  1  0
 15 14  1  6
 15 16  1  0
 16  9  1  0
 17 15  1  0
 18 17  2  0
 19 20  1  0
 20 22  1  0
 21 20  2  0
 22 23  1  0
 23 24  1  0
 24 25  1  0
 26 25  1  1
 26 28  1  0
 26 27  1  0
 27 17  1  0
 28 30  1  0
 29 28  2  0
M  END
$$$$
