YSR.pdb
     RDKit          3D

 30 30  0  0  1  0  0  0  0  0999 V2000
   20.0927  -23.7561   -7.2291 O   0  0  0  0  0  0  0  0  0  0  0  0
   21.0278  -22.9476   -7.8442 C   0  0  0  0  0  0  0  0  0  0  0  0
   21.9177  -22.1749   -7.1032 C   0  0  0  0  0  0  0  0  0  0  0  0
   22.8481  -21.3707   -7.7252 C   0  0  0  0  0  0  0  0  0  0  0  0
   22.8954  -21.3331   -9.1255 C   0  0  0  0  0  0  0  0  0  0  0  0
   23.8951  -20.4490   -9.7487 C   0  0  0  0  0  0  0  0  0  0  0  0
   25.1788  -21.1943  -10.0150 C   0  0  2  0  0  0  0  0  0  0  0  0
   25.9106  -21.1850   -8.7486 N   0  0  0  0  0  0  0  0  0  0  0  0
   25.9477  -20.4786  -11.0575 C   0  0  0  0  0  0  0  0  0  0  0  0
   26.5319  -19.4192  -10.7768 O   0  0  0  0  0  0  0  0  0  0  0  0
   22.0166  -22.0956   -9.8583 C   0  0  0  0  0  0  0  0  0  0  0  0
   21.0874  -22.8993   -9.2274 C   0  0  0  0  0  0  0  0  0  0  0  0
   28.2479  -20.8000  -15.2408 O   0  0  0  0  0  0  0  0  0  0  0  0
   27.4548  -21.4339  -14.3042 C   0  0  0  0  0  0  0  0  0  0  0  0
   26.8646  -20.3746  -13.3867 C   0  0  2  0  0  0  0  0  0  0  0  0
   26.0213  -20.9981  -12.3766 N   0  0  0  0  0  0  0  0  0  0  0  0
   26.0582  -19.4360  -14.1647 C   0  0  0  0  0  0  0  0  0  0  0  0
   24.8653  -19.7747  -14.4785 O   0  0  0  0  0  0  0  0  0  0  0  0
   23.2842  -13.2004  -18.3143 N   0  0  0  0  0  0  0  0  0  0  0  0
   22.9339  -12.6314  -17.0230 C   0  0  0  0  0  0  0  0  0  0  0  0
   21.8946  -11.9078  -16.9004 N   0  0  0  0  0  0  0  0  0  0  0  0
   23.7393  -12.8777  -15.8914 N   0  0  0  0  0  0  0  0  0  0  0  0
   24.9028  -13.6572  -15.8518 C   0  0  0  0  0  0  0  0  0  0  0  0
   24.8481  -15.1224  -16.0404 C   0  0  0  0  0  0  0  0  0  0  0  0
   25.7975  -15.8940  -15.1662 C   0  0  0  0  0  0  0  0  0  0  0  0
   25.6447  -17.3659  -15.4907 C   0  0  2  0  0  0  0  0  0  0  0  0
   26.4772  -18.1543  -14.6174 N   0  0  0  0  0  0  0  0  0  0  0  0
   25.9201  -17.6433  -16.9302 C   0  0  0  0  0  0  0  0  0  0  0  0
   27.1043  -17.8653  -17.2660 O   0  0  0  0  0  0  0  0  0  0  0  0
   24.9482  -17.6687  -17.9076 O   0  0  0  0  0  0  0  0  0  0  0  0
  2  1  1  0
  3  2  2  0
  4  3  1  0
  5 11  1  0
  5  4  2  0
  6  5  1  0
  7  6  1  0
  7  8  1  1
  9  7  1  0
  9 10  2  0
 11 12  2  0
 12  2  1  0
 13 14  1  0
 15 14  1  6
 15 16  1  0
 16  9  1  0
 17 15  1  0
 18 17  2  0
 19 20  1  0
 20 22  1  0
 21 20  2  0
 22 23  1  0
 23 24  1  0
 24 25  1  0
 26 25  1  6
 26 28  1  0
 26 27  1  0
 27 17  1  0
 28 30  1  0
 29 28  2  0
M  END
$$$$
