YSR.pdb
     RDKit          3D

 30 30  0  0  1  0  0  0  0  0999 V2000
   27.9876  -25.3158  -17.1808 O   0  0  0  0  0  0  0  0  0  0  0  0
   27.2586  -24.5378  -16.3034 C   0  0  0  0  0  0  0  0  0  0  0  0
   26.1703  -25.0561  -15.6071 C   0  0  0  0  0  0  0  0  0  0  0  0
   25.4482  -24.2726  -14.7331 C   0  0  0  0  0  0  0  0  0  0  0  0
   25.8187  -22.9340  -14.5454 C   0  0  0  0  0  0  0  0  0  0  0  0
   25.0107  -22.1288  -13.6136 C   0  0  0  0  0  0  0  0  0  0  0  0
   23.7318  -21.6717  -14.2693 C   0  0  2  0  0  0  0  0  0  0  0  0
   24.1241  -20.6247  -15.2123 N   0  0  0  0  0  0  0  0  0  0  0  0
   22.8276  -21.1196  -13.2360 C   0  0  0  0  0  0  0  0  0  0  0  0
   23.0455  -19.9924  -12.7623 O   0  0  0  0  0  0  0  0  0  0  0  0
   26.8934  -22.4210  -15.2329 C   0  0  0  0  0  0  0  0  0  0  0  0
   27.6121  -23.2128  -16.1069 C   0  0  0  0  0  0  0  0  0  0  0  0
   19.0977  -19.4696  -12.0181 O   0  0  0  0  0  0  0  0  0  0  0  0
   20.0536  -20.0804  -12.8062 C   0  0  0  0  0  0  0  0  0  0  0  0
   20.6379  -21.2472  -12.0254 C   0  0  2  0  0  0  0  0  0  0  0  0
   21.7117  -21.8722  -12.7846 N   0  0  0  0  0  0  0  0  0  0  0  0
   19.5989  -22.2419  -11.7657 C   0  0  0  0  0  0  0  0  0  0  0  0
   19.1393  -22.9125  -12.7533 O   0  0  0  0  0  0  0  0  0  0  0  0
   16.2269  -26.4991   -4.6136 N   0  0  0  0  0  0  0  0  0  0  0  0
   17.4965  -25.9825   -5.0987 C   0  0  0  0  0  0  0  0  0  0  0  0
   18.5205  -25.9818   -4.3437 N   0  0  0  0  0  0  0  0  0  0  0  0
   17.6085  -25.4800   -6.4120 N   0  0  0  0  0  0  0  0  0  0  0  0
   16.6108  -25.4920   -7.3955 C   0  0  0  0  0  0  0  0  0  0  0  0
   16.8978  -25.0631   -8.7809 C   0  0  0  0  0  0  0  0  0  0  0  0
   17.7923  -23.8586   -8.8822 C   0  0  0  0  0  0  0  0  0  0  0  0
   18.0467  -23.5841  -10.3502 C   0  0  2  0  0  0  0  0  0  0  0  0
   19.0357  -22.5458  -10.4955 N   0  0  0  0  0  0  0  0  0  0  0  0
   16.7842  -23.2624  -11.0766 C   0  0  0  0  0  0  0  0  0  0  0  0
   16.3783  -22.0797  -11.0466 O   0  0  0  0  0  0  0  0  0  0  0  0
   16.0421  -24.1903  -11.7759 O   0  0  0  0  0  0  0  0  0  0  0  0
  2  1  1  0
  3  2  2  0
  4  3  1  0
  5 11  1  0
  5  4  2  0
  6  5  1  0
  7  6  1  0
  7  8  1  6
  9  7  1  0
  9 10  2  0
 11 12  2  0
 12  2  1  0
 13 14  1  0
 15 14  1  6
 15 16  1  0
 16  9  1  0
 17 15  1  0
 18 17  2  0
 19 20  1  0
 20 22  1  0
 21 20  2  0
 22 23  1  0
 23 24  1  0
 24 25  1  0
 26 25  1  1
 26 28  1  0
 26 27  1  0
 27 17  1  0
 28 30  1  0
 29 28  2  0
M  END
$$$$
