YSR.pdb
     RDKit          3D

 30 30  0  0  1  0  0  0  0  0999 V2000
   28.8450  -13.7379  -21.3650 O   0  0  0  0  0  0  0  0  0  0  0  0
   28.2464  -14.8144  -20.7410 C   0  0  0  0  0  0  0  0  0  0  0  0
   26.9603  -15.2257  -21.0800 C   0  0  0  0  0  0  0  0  0  0  0  0
   26.3703  -16.3013  -20.4522 C   0  0  0  0  0  0  0  0  0  0  0  0
   27.0795  -16.9888  -19.4579 C   0  0  0  0  0  0  0  0  0  0  0  0
   26.4057  -18.1229  -18.8027 C   0  0  0  0  0  0  0  0  0  0  0  0
   27.2800  -19.3515  -18.8238 C   0  0  2  0  0  0  0  0  0  0  0  0
   27.2546  -19.8303  -20.2056 N   0  0  0  0  0  0  0  0  0  0  0  0
   26.7064  -20.3705  -17.9167 C   0  0  0  0  0  0  0  0  0  0  0  0
   25.7741  -21.0917  -18.3080 O   0  0  0  0  0  0  0  0  0  0  0  0
   28.3497  -16.5832  -19.1220 C   0  0  0  0  0  0  0  0  0  0  0  0
   28.9341  -15.5043  -19.7560 C   0  0  0  0  0  0  0  0  0  0  0  0
   28.9542  -22.5415  -15.3577 O   0  0  0  0  0  0  0  0  0  0  0  0
   27.8856  -21.9378  -14.7239 C   0  0  0  0  0  0  0  0  0  0  0  0
   26.8160  -21.6505  -15.7659 C   0  0  2  0  0  0  0  0  0  0  0  0
   27.2176  -20.5279  -16.6017 N   0  0  0  0  0  0  0  0  0  0  0  0
   25.5537  -21.3229  -15.1056 C   0  0  0  0  0  0  0  0  0  0  0  0
   25.3521  -20.1118  -14.7467 O   0  0  0  0  0  0  0  0  0  0  0  0
   18.4821  -24.6861  -11.5531 N   0  0  0  0  0  0  0  0  0  0  0  0
   17.8925  -23.5227  -12.1959 C   0  0  0  0  0  0  0  0  0  0  0  0
   16.7860  -23.0513  -11.7811 N   0  0  0  0  0  0  0  0  0  0  0  0
   18.5417  -22.9015  -13.2833 N   0  0  0  0  0  0  0  0  0  0  0  0
   19.7909  -23.2477  -13.8148 C   0  0  0  0  0  0  0  0  0  0  0  0
   20.9331  -22.3109  -13.7554 C   0  0  0  0  0  0  0  0  0  0  0  0
   22.1936  -22.8322  -14.3880 C   0  0  0  0  0  0  0  0  0  0  0  0
   23.2788  -21.7919  -14.2006 C   0  0  2  0  0  0  0  0  0  0  0  0
   24.5033  -22.2373  -14.8165 N   0  0  0  0  0  0  0  0  0  0  0  0
   23.4674  -21.4468  -12.7617 C   0  0  0  0  0  0  0  0  0  0  0  0
   24.2713  -22.1362  -12.0963 O   0  0  0  0  0  0  0  0  0  0  0  0
   22.8088  -20.4158  -12.1260 O   0  0  0  0  0  0  0  0  0  0  0  0
  2  1  1  0
  3  2  2  0
  4  3  1  0
  5 11  1  0
  5  4  2  0
  6  5  1  0
  7  6  1  0
  7  8  1  6
  9  7  1  0
  9 10  2  0
 11 12  2  0
 12  2  1  0
 13 14  1  0
 15 14  1  1
 15 16  1  0
 16  9  1  0
 17 15  1  0
 18 17  2  0
 19 20  1  0
 20 22  1  0
 21 20  2  0
 22 23  1  0
 23 24  1  0
 24 25  1  0
 26 25  1  1
 26 28  1  0
 26 27  1  0
 27 17  1  0
 28 30  1  0
 29 28  2  0
M  END
$$$$
