YSR.pdb
     RDKit          3D

 30 30  0  0  1  0  0  0  0  0999 V2000
   27.4978  -25.3550  -17.1265 O   0  0  0  0  0  0  0  0  0  0  0  0
   26.7179  -24.5478  -16.3221 C   0  0  0  0  0  0  0  0  0  0  0  0
   25.6995  -25.0768  -15.5341 C   0  0  0  0  0  0  0  0  0  0  0  0
   24.9258  -24.2640  -14.7341 C   0  0  0  0  0  0  0  0  0  0  0  0
   25.1716  -22.8842  -14.7166 C   0  0  0  0  0  0  0  0  0  0  0  0
   24.3118  -22.0510  -13.8589 C   0  0  0  0  0  0  0  0  0  0  0  0
   22.9884  -21.7785  -14.5287 C   0  0  2  0  0  0  0  0  0  0  0  0
   23.2627  -20.7647  -15.5468 N   0  0  0  0  0  0  0  0  0  0  0  0
   22.0358  -21.2536  -13.5251 C   0  0  0  0  0  0  0  0  0  0  0  0
   22.1260  -20.0748  -13.1445 O   0  0  0  0  0  0  0  0  0  0  0  0
   26.1771  -22.3607  -15.4949 C   0  0  0  0  0  0  0  0  0  0  0  0
   26.9482  -23.1821  -16.2938 C   0  0  0  0  0  0  0  0  0  0  0  0
   18.4005  -21.7029  -13.7336 O   0  0  0  0  0  0  0  0  0  0  0  0
   18.9290  -20.8464  -12.7875 C   0  0  0  0  0  0  0  0  0  0  0  0
   20.0378  -21.5801  -12.0494 C   0  0  2  0  0  0  0  0  0  0  0  0
   21.0189  -22.0911  -12.9962 N   0  0  0  0  0  0  0  0  0  0  0  0
   19.4772  -22.7001  -11.2958 C   0  0  0  0  0  0  0  0  0  0  0  0
   19.2180  -23.7848  -11.9223 O   0  0  0  0  0  0  0  0  0  0  0  0
   15.6182  -26.4031   -5.7017 N   0  0  0  0  0  0  0  0  0  0  0  0
   16.7646  -26.9015   -4.9591 C   0  0  0  0  0  0  0  0  0  0  0  0
   16.6750  -27.9759   -4.2836 N   0  0  0  0  0  0  0  0  0  0  0  0
   17.9896  -26.2023   -4.9819 N   0  0  0  0  0  0  0  0  0  0  0  0
   18.2644  -25.0280   -5.6951 C   0  0  0  0  0  0  0  0  0  0  0  0
   18.3208  -25.0264   -7.1724 C   0  0  0  0  0  0  0  0  0  0  0  0
   18.5186  -23.6661   -7.7818 C   0  0  0  0  0  0  0  0  0  0  0  0
   18.5124  -23.8206   -9.2889 C   0  0  2  0  0  0  0  0  0  0  0  0
   19.1852  -22.7042   -9.9038 N   0  0  0  0  0  0  0  0  0  0  0  0
   17.1295  -24.0030   -9.8174 C   0  0  0  0  0  0  0  0  0  0  0  0
   16.4700  -22.9769  -10.0941 O   0  0  0  0  0  0  0  0  0  0  0  0
   16.5391  -25.2327  -10.0174 O   0  0  0  0  0  0  0  0  0  0  0  0
  2  1  1  0
  3  2  2  0
  4  3  1  0
  5 11  1  0
  5  4  2  0
  6  5  1  0
  7  6  1  0
  7  8  1  6
  9  7  1  0
  9 10  2  0
 11 12  2  0
 12  2  1  0
 13 14  1  0
 15 14  1  6
 15 16  1  0
 16  9  1  0
 17 15  1  0
 18 17  2  0
 19 20  1  0
 20 22  1  0
 21 20  2  0
 22 23  1  0
 23 24  1  0
 24 25  1  0
 26 25  1  1
 26 28  1  0
 26 27  1  0
 27 17  1  0
 28 30  1  0
 29 28  2  0
M  END
$$$$
