YSR.pdb
     RDKit          3D

 30 30  0  0  1  0  0  0  0  0999 V2000
   28.3372  -17.3564  -24.9011 O   0  0  0  0  0  0  0  0  0  0  0  0
   27.7701  -17.7571  -23.7076 C   0  0  0  0  0  0  0  0  0  0  0  0
   27.2940  -19.0532  -23.5301 C   0  0  0  0  0  0  0  0  0  0  0  0
   26.7296  -19.4449  -22.3355 C   0  0  0  0  0  0  0  0  0  0  0  0
   26.6354  -18.5209  -21.2858 C   0  0  0  0  0  0  0  0  0  0  0  0
   26.0119  -18.9773  -20.0319 C   0  0  0  0  0  0  0  0  0  0  0  0
   27.0564  -19.2271  -18.9731 C   0  0  2  0  0  0  0  0  0  0  0  0
   27.6517  -20.5217  -19.3035 N   0  0  0  0  0  0  0  0  0  0  0  0
   26.3994  -19.2872  -17.6483 C   0  0  0  0  0  0  0  0  0  0  0  0
   26.3176  -20.3711  -17.0476 O   0  0  0  0  0  0  0  0  0  0  0  0
   27.1050  -17.2404  -21.4601 C   0  0  0  0  0  0  0  0  0  0  0  0
   27.6696  -16.8557  -22.6604 C   0  0  0  0  0  0  0  0  0  0  0  0
   25.2234  -15.7938  -15.8211 O   0  0  0  0  0  0  0  0  0  0  0  0
   25.5211  -16.8588  -14.9933 C   0  0  0  0  0  0  0  0  0  0  0  0
   25.2292  -18.1448  -15.7505 C   0  0  2  0  0  0  0  0  0  0  0  0
   25.8632  -18.1114  -17.0608 N   0  0  0  0  0  0  0  0  0  0  0  0
   23.7866  -18.3026  -15.9251 C   0  0  0  0  0  0  0  0  0  0  0  0
   23.2361  -17.7663  -16.9477 O   0  0  0  0  0  0  0  0  0  0  0  0
   20.8518  -24.6978  -15.2871 N   0  0  0  0  0  0  0  0  0  0  0  0
   19.4654  -24.4369  -15.6390 C   0  0  0  0  0  0  0  0  0  0  0  0
   18.8141  -25.2703  -16.3461 N   0  0  0  0  0  0  0  0  0  0  0  0
   18.8255  -23.2596  -15.1978 N   0  0  0  0  0  0  0  0  0  0  0  0
   19.4300  -22.1807  -14.5394 C   0  0  0  0  0  0  0  0  0  0  0  0
   20.2106  -21.1705  -15.2848 C   0  0  0  0  0  0  0  0  0  0  0  0
   20.8604  -20.1281  -14.4176 C   0  0  0  0  0  0  0  0  0  0  0  0
   21.5015  -19.0963  -15.3228 C   0  0  2  0  0  0  0  0  0  0  0  0
   22.9144  -19.0096  -15.0519 N   0  0  0  0  0  0  0  0  0  0  0  0
   20.8261  -17.7710  -15.2112 C   0  0  0  0  0  0  0  0  0  0  0  0
   21.3439  -16.9129  -14.4629 O   0  0  0  0  0  0  0  0  0  0  0  0
   19.6686  -17.4393  -15.8826 O   0  0  0  0  0  0  0  0  0  0  0  0
  2  1  1  0
  3  2  2  0
  4  3  1  0
  5 11  1  0
  5  4  2  0
  6  5  1  0
  7  6  1  0
  7  8  1  6
  9  7  1  0
  9 10  2  0
 11 12  2  0
 12  2  1  0
 13 14  1  0
 15 14  1  6
 15 16  1  0
 16  9  1  0
 17 15  1  0
 18 17  2  0
 19 20  1  0
 20 22  1  0
 21 20  2  0
 22 23  1  0
 23 24  1  0
 24 25  1  0
 26 25  1  1
 26 28  1  0
 26 27  1  0
 27 17  1  0
 28 30  1  0
 29 28  2  0
M  END
$$$$
