YSR.pdb
     RDKit          3D

 30 30  0  0  1  0  0  0  0  0999 V2000
   28.9138  -20.4865   -3.5525 O   0  0  0  0  0  0  0  0  0  0  0  0
   28.6890  -20.3462   -4.9076 C   0  0  0  0  0  0  0  0  0  0  0  0
   29.6787  -19.8665   -5.7609 C   0  0  0  0  0  0  0  0  0  0  0  0
   29.4459  -19.7296   -7.1123 C   0  0  0  0  0  0  0  0  0  0  0  0
   28.1919  -20.0798   -7.6312 C   0  0  0  0  0  0  0  0  0  0  0  0
   27.9814  -19.9038   -9.0783 C   0  0  0  0  0  0  0  0  0  0  0  0
   27.6413  -21.2182   -9.7349 C   0  0  2  0  0  0  0  0  0  0  0  0
   28.9020  -21.9552   -9.8190 N   0  0  0  0  0  0  0  0  0  0  0  0
   27.1065  -20.9591  -11.0903 C   0  0  0  0  0  0  0  0  0  0  0  0
   27.8876  -20.7736  -12.0379 O   0  0  0  0  0  0  0  0  0  0  0  0
   27.2135  -20.5534   -6.7891 C   0  0  0  0  0  0  0  0  0  0  0  0
   27.4548  -20.6879   -5.4360 C   0  0  0  0  0  0  0  0  0  0  0  0
   24.6278  -23.0748  -12.7318 O   0  0  0  0  0  0  0  0  0  0  0  0
   25.3087  -22.0895  -13.4200 C   0  0  0  0  0  0  0  0  0  0  0  0
   25.1573  -20.7844  -12.6544 C   0  0  2  0  0  0  0  0  0  0  0  0
   25.7049  -20.9227  -11.3123 N   0  0  0  0  0  0  0  0  0  0  0  0
   23.7435  -20.4268  -12.5556 C   0  0  0  0  0  0  0  0  0  0  0  0
   23.1341  -20.6566  -11.4546 O   0  0  0  0  0  0  0  0  0  0  0  0
   17.7888  -18.5460  -17.7339 N   0  0  0  0  0  0  0  0  0  0  0  0
   19.0438  -17.8120  -17.7478 C   0  0  0  0  0  0  0  0  0  0  0  0
   19.6521  -17.6002  -18.8450 N   0  0  0  0  0  0  0  0  0  0  0  0
   19.5992  -17.3234  -16.5467 N   0  0  0  0  0  0  0  0  0  0  0  0
   19.0257  -17.4050  -15.2710 C   0  0  0  0  0  0  0  0  0  0  0  0
   19.7093  -18.1156  -14.1696 C   0  0  0  0  0  0  0  0  0  0  0  0
   21.0809  -18.6233  -14.5188 C   0  0  0  0  0  0  0  0  0  0  0  0
   21.6030  -19.4171  -13.3388 C   0  0  2  0  0  0  0  0  0  0  0  0
   22.9602  -19.8350  -13.5849 N   0  0  0  0  0  0  0  0  0  0  0  0
   20.7118  -20.5677  -13.0122 C   0  0  0  0  0  0  0  0  0  0  0  0
   20.9840  -21.6790  -13.5175 O   0  0  0  0  0  0  0  0  0  0  0  0
   19.6097  -20.4767  -12.1889 O   0  0  0  0  0  0  0  0  0  0  0  0
  2  1  1  0
  3  2  2  0
  4  3  1  0
  5 11  1  0
  5  4  2  0
  6  5  1  0
  7  6  1  0
  7  8  1  6
  9  7  1  0
  9 10  2  0
 11 12  2  0
 12  2  1  0
 13 14  1  0
 15 14  1  1
 15 16  1  0
 16  9  1  0
 17 15  1  0
 18 17  2  0
 19 20  1  0
 20 22  1  0
 21 20  2  0
 22 23  1  0
 23 24  1  0
 24 25  1  0
 26 25  1  6
 26 28  1  0
 26 27  1  0
 27 17  1  0
 28 30  1  0
 29 28  2  0
M  END
$$$$
