YSR.pdb
     RDKit          3D

 30 30  0  0  1  0  0  0  0  0999 V2000
   32.7130   -5.7659  -19.6877 O   0  0  0  0  0  0  0  0  0  0  0  0
   31.5146   -6.4038  -19.4355 C   0  0  0  0  0  0  0  0  0  0  0  0
   30.4848   -6.4090  -20.3722 C   0  0  0  0  0  0  0  0  0  0  0  0
   29.2919   -7.0483  -20.1125 C   0  0  0  0  0  0  0  0  0  0  0  0
   29.1172   -7.7021  -18.8851 C   0  0  0  0  0  0  0  0  0  0  0  0
   27.8217   -8.3597  -18.6432 C   0  0  0  0  0  0  0  0  0  0  0  0
   28.0189   -9.7902  -18.2083 C   0  0  2  0  0  0  0  0  0  0  0  0
   28.5553  -10.4875  -19.3769 N   0  0  0  0  0  0  0  0  0  0  0  0
   26.7105  -10.3649  -17.8234 C   0  0  0  0  0  0  0  0  0  0  0  0
   25.9563  -10.8244  -18.6965 O   0  0  0  0  0  0  0  0  0  0  0  0
   30.1336   -7.6973  -17.9590 C   0  0  0  0  0  0  0  0  0  0  0  0
   31.3262   -7.0545  -18.2271 C   0  0  0  0  0  0  0  0  0  0  0  0
   25.8301  -10.7115  -13.8729 O   0  0  0  0  0  0  0  0  0  0  0  0
   25.0728  -11.5278  -14.6902 C   0  0  0  0  0  0  0  0  0  0  0  0
   25.0017  -10.8866  -16.0672 C   0  0  2  0  0  0  0  0  0  0  0  0
   26.3142  -10.3940  -16.4605 N   0  0  0  0  0  0  0  0  0  0  0  0
   24.0614   -9.7676  -16.0469 C   0  0  0  0  0  0  0  0  0  0  0  0
   24.4955   -8.6154  -15.7001 O   0  0  0  0  0  0  0  0  0  0  0  0
   15.7079   -7.8622  -18.8981 N   0  0  0  0  0  0  0  0  0  0  0  0
   16.2676   -6.6523  -18.3176 C   0  0  0  0  0  0  0  0  0  0  0  0
   15.6205   -5.5579  -18.3652 N   0  0  0  0  0  0  0  0  0  0  0  0
   17.5318   -6.6784  -17.6921 N   0  0  0  0  0  0  0  0  0  0  0  0
   18.3513   -7.8015  -17.5186 C   0  0  0  0  0  0  0  0  0  0  0  0
   19.6866   -7.6844  -16.8952 C   0  0  0  0  0  0  0  0  0  0  0  0
   20.4699   -8.9675  -16.8662 C   0  0  0  0  0  0  0  0  0  0  0  0
   21.8335   -8.6728  -16.2755 C   0  0  2  0  0  0  0  0  0  0  0  0
   22.6807   -9.8338  -16.3823 N   0  0  0  0  0  0  0  0  0  0  0  0
   21.7300   -8.1806  -14.8712 C   0  0  0  0  0  0  0  0  0  0  0  0
   21.6749   -9.0320  -13.9566 O   0  0  0  0  0  0  0  0  0  0  0  0
   21.6914   -6.8467  -14.5252 O   0  0  0  0  0  0  0  0  0  0  0  0
  2  1  1  0
  3  2  2  0
  4  3  1  0
  5 11  1  0
  5  4  2  0
  6  5  1  0
  7  6  1  0
  7  8  1  6
  9  7  1  0
  9 10  2  0
 11 12  2  0
 12  2  1  0
 13 14  1  0
 15 14  1  1
 15 16  1  0
 16  9  1  0
 17 15  1  0
 18 17  2  0
 19 20  1  0
 20 22  1  0
 21 20  2  0
 22 23  1  0
 23 24  1  0
 24 25  1  0
 26 25  1  1
 26 28  1  0
 26 27  1  0
 27 17  1  0
 28 30  1  0
 29 28  2  0
M  END
$$$$
