YSR.pdb
     RDKit          3D

 30 30  0  0  1  0  0  0  0  0999 V2000
   26.8794  -29.0426  -15.8960 O   0  0  0  0  0  0  0  0  0  0  0  0
   27.7464  -28.1854  -16.5443 C   0  0  0  0  0  0  0  0  0  0  0  0
   27.4134  -26.8532  -16.7727 C   0  0  0  0  0  0  0  0  0  0  0  0
   28.2847  -26.0044  -17.4204 C   0  0  0  0  0  0  0  0  0  0  0  0
   29.5241  -26.4943  -17.8543 C   0  0  0  0  0  0  0  0  0  0  0  0
   30.4183  -25.5570  -18.5551 C   0  0  0  0  0  0  0  0  0  0  0  0
   31.2321  -24.7545  -17.5713 C   0  0  2  0  0  0  0  0  0  0  0  0
   31.9165  -25.7369  -16.7311 N   0  0  0  0  0  0  0  0  0  0  0  0
   30.3214  -23.9239  -16.7521 C   0  0  0  0  0  0  0  0  0  0  0  0
   30.2577  -24.1028  -15.5248 O   0  0  0  0  0  0  0  0  0  0  0  0
   29.8540  -27.8102  -17.6296 C   0  0  0  0  0  0  0  0  0  0  0  0
   28.9753  -28.6543  -16.9794 C   0  0  0  0  0  0  0  0  0  0  0  0
   29.3389  -20.4046  -18.1908 O   0  0  0  0  0  0  0  0  0  0  0  0
   29.1885  -20.5644  -16.8270 C   0  0  0  0  0  0  0  0  0  0  0  0
   28.7372  -21.9923  -16.5631 C   0  0  2  0  0  0  0  0  0  0  0  0
   29.5212  -22.9229  -17.3628 N   0  0  0  0  0  0  0  0  0  0  0  0
   27.3253  -22.1401  -16.9111 C   0  0  0  0  0  0  0  0  0  0  0  0
   27.0133  -22.2624  -18.1456 O   0  0  0  0  0  0  0  0  0  0  0  0
   25.3679  -22.1637  -11.6537 N   0  0  0  0  0  0  0  0  0  0  0  0
   24.0066  -21.6623  -11.5569 C   0  0  0  0  0  0  0  0  0  0  0  0
   23.7104  -20.7683  -10.7013 N   0  0  0  0  0  0  0  0  0  0  0  0
   23.0000  -22.1577  -12.4121 N   0  0  0  0  0  0  0  0  0  0  0  0
   23.1959  -22.8615  -13.6076 C   0  0  0  0  0  0  0  0  0  0  0  0
   22.9948  -22.2105  -14.9196 C   0  0  0  0  0  0  0  0  0  0  0  0
   24.0937  -21.2632  -15.3145 C   0  0  0  0  0  0  0  0  0  0  0  0
   24.8902  -21.9064  -16.4312 C   0  0  2  0  0  0  0  0  0  0  0  0
   26.2392  -22.1625  -15.9930 N   0  0  0  0  0  0  0  0  0  0  0  0
   24.8507  -21.0876  -17.6774 C   0  0  0  0  0  0  0  0  0  0  0  0
   25.7456  -20.2291  -17.8407 O   0  0  0  0  0  0  0  0  0  0  0  0
   23.8882  -21.2222  -18.6552 O   0  0  0  0  0  0  0  0  0  0  0  0
  2  1  1  0
  3  2  2  0
  4  3  1  0
  5 11  1  0
  5  4  2  0
  6  5  1  0
  7  6  1  0
  7  8  1  1
  9  7  1  0
  9 10  2  0
 11 12  2  0
 12  2  1  0
 13 14  1  0
 15 14  1  6
 15 16  1  0
 16  9  1  0
 17 15  1  0
 18 17  2  0
 19 20  1  0
 20 22  1  0
 21 20  2  0
 22 23  1  0
 23 24  1  0
 24 25  1  0
 26 25  1  1
 26 28  1  0
 26 27  1  0
 27 17  1  0
 28 30  1  0
 29 28  2  0
M  END
$$$$
