YSR.pdb
     RDKit          3D

 30 30  0  0  1  0  0  0  0  0999 V2000
   20.1079  -24.5056  -18.5734 O   0  0  0  0  0  0  0  0  0  0  0  0
   20.4071  -23.2079  -18.2087 C   0  0  0  0  0  0  0  0  0  0  0  0
   19.4061  -22.2974  -17.8821 C   0  0  0  0  0  0  0  0  0  0  0  0
   19.7135  -21.0040  -17.5190 C   0  0  0  0  0  0  0  0  0  0  0  0
   21.0561  -20.6035  -17.4794 C   0  0  0  0  0  0  0  0  0  0  0  0
   21.3388  -19.2086  -17.1005 C   0  0  0  0  0  0  0  0  0  0  0  0
   22.1921  -19.1522  -15.8584 C   0  0  2  0  0  0  0  0  0  0  0  0
   21.3460  -19.6524  -14.7752 N   0  0  0  0  0  0  0  0  0  0  0  0
   22.5802  -17.7476  -15.5999 C   0  0  0  0  0  0  0  0  0  0  0  0
   21.8255  -17.0078  -14.9475 O   0  0  0  0  0  0  0  0  0  0  0  0
   22.0457  -21.5020  -17.8021 C   0  0  0  0  0  0  0  0  0  0  0  0
   21.7292  -22.7965  -18.1648 C   0  0  0  0  0  0  0  0  0  0  0  0
   26.4115  -16.4999  -16.4232 O   0  0  0  0  0  0  0  0  0  0  0  0
   25.6961  -15.8297  -15.4501 C   0  0  0  0  0  0  0  0  0  0  0  0
   24.2241  -15.8711  -15.8298 C   0  0  2  0  0  0  0  0  0  0  0  0
   23.8117  -17.2424  -16.0935 N   0  0  0  0  0  0  0  0  0  0  0  0
   23.9972  -15.0681  -17.0298 C   0  0  0  0  0  0  0  0  0  0  0  0
   24.0812  -15.6421  -18.1699 O   0  0  0  0  0  0  0  0  0  0  0  0
   19.7327   -7.5894  -19.1538 N   0  0  0  0  0  0  0  0  0  0  0  0
   19.7141   -8.6798  -18.1922 C   0  0  0  0  0  0  0  0  0  0  0  0
   18.9399   -8.6339  -17.1836 N   0  0  0  0  0  0  0  0  0  0  0  0
   20.5504   -9.8021  -18.3681 N   0  0  0  0  0  0  0  0  0  0  0  0
   21.3952  -10.0475  -19.4586 C   0  0  0  0  0  0  0  0  0  0  0  0
   22.2839  -11.2287  -19.4864 C   0  0  0  0  0  0  0  0  0  0  0  0
   22.4502  -11.9085  -18.1556 C   0  0  0  0  0  0  0  0  0  0  0  0
   23.5076  -12.9830  -18.3054 C   0  0  2  0  0  0  0  0  0  0  0  0
   23.6847  -13.6808  -17.0568 N   0  0  0  0  0  0  0  0  0  0  0  0
   24.7901  -12.4243  -18.8230 C   0  0  0  0  0  0  0  0  0  0  0  0
   25.7140  -12.2267  -18.0034 O   0  0  0  0  0  0  0  0  0  0  0  0
   25.0143  -12.1144  -20.1475 O   0  0  0  0  0  0  0  0  0  0  0  0
  2  1  1  0
  3  2  2  0
  4  3  1  0
  5 11  1  0
  5  4  2  0
  6  5  1  0
  7  6  1  0
  7  8  1  1
  9  7  1  0
  9 10  2  0
 11 12  2  0
 12  2  1  0
 13 14  1  0
 15 14  1  6
 15 16  1  0
 16  9  1  0
 17 15  1  0
 18 17  2  0
 19 20  1  0
 20 22  1  0
 21 20  2  0
 22 23  1  0
 23 24  1  0
 24 25  1  0
 26 25  1  1
 26 28  1  0
 26 27  1  0
 27 17  1  0
 28 30  1  0
 29 28  2  0
M  END
$$$$
