YSR.pdb
     RDKit          3D

 30 30  0  0  1  0  0  0  0  0999 V2000
   30.8512  -16.4908  -19.0130 O   0  0  0  0  0  0  0  0  0  0  0  0
   29.9295  -17.1258  -18.2043 C   0  0  0  0  0  0  0  0  0  0  0  0
   30.1860  -17.3574  -16.8558 C   0  0  0  0  0  0  0  0  0  0  0  0
   29.2605  -17.9919  -16.0557 C   0  0  0  0  0  0  0  0  0  0  0  0
   28.0437  -18.4087  -16.6125 C   0  0  0  0  0  0  0  0  0  0  0  0
   27.0898  -19.0958  -15.7252 C   0  0  0  0  0  0  0  0  0  0  0  0
   27.6459  -20.4183  -15.2605 C   0  0  2  0  0  0  0  0  0  0  0  0
   27.8156  -21.2223  -16.4706 N   0  0  0  0  0  0  0  0  0  0  0  0
   26.6723  -21.0608  -14.3497 C   0  0  0  0  0  0  0  0  0  0  0  0
   25.9059  -21.9369  -14.7825 O   0  0  0  0  0  0  0  0  0  0  0  0
   27.7895  -18.1808  -17.9445 C   0  0  0  0  0  0  0  0  0  0  0  0
   28.7221  -17.5441  -18.7395 C   0  0  0  0  0  0  0  0  0  0  0  0
   25.8831  -19.5013  -10.5631 O   0  0  0  0  0  0  0  0  0  0  0  0
   25.9526  -20.8787  -10.6407 C   0  0  0  0  0  0  0  0  0  0  0  0
   25.6511  -21.2894  -12.0735 C   0  0  2  0  0  0  0  0  0  0  0  0
   26.6112  -20.6807  -12.9832 N   0  0  0  0  0  0  0  0  0  0  0  0
   24.3054  -20.8543  -12.4429 C   0  0  0  0  0  0  0  0  0  0  0  0
   24.1513  -19.6632  -12.8828 O   0  0  0  0  0  0  0  0  0  0  0  0
   16.1669  -24.3715  -14.0992 N   0  0  0  0  0  0  0  0  0  0  0  0
   17.4267  -24.3396  -14.8244 C   0  0  0  0  0  0  0  0  0  0  0  0
   17.6285  -25.1344  -15.7972 N   0  0  0  0  0  0  0  0  0  0  0  0
   18.4376  -23.4254  -14.4607 N   0  0  0  0  0  0  0  0  0  0  0  0
   18.3923  -22.5143  -13.3973 C   0  0  0  0  0  0  0  0  0  0  0  0
   19.4889  -21.5492  -13.1703 C   0  0  0  0  0  0  0  0  0  0  0  0
   20.8283  -22.1839  -12.9166 C   0  0  0  0  0  0  0  0  0  0  0  0
   21.8325  -21.0780  -12.6647 C   0  0  2  0  0  0  0  0  0  0  0  0
   23.1237  -21.6416  -12.3605 N   0  0  0  0  0  0  0  0  0  0  0  0
   21.3644  -20.1413  -11.6024 C   0  0  0  0  0  0  0  0  0  0  0  0
   21.8409  -20.2759  -10.4538 O   0  0  0  0  0  0  0  0  0  0  0  0
   20.4404  -19.1402  -11.8132 O   0  0  0  0  0  0  0  0  0  0  0  0
  2  1  1  0
  3  2  2  0
  4  3  1  0
  5 11  1  0
  5  4  2  0
  6  5  1  0
  7  6  1  0
  7  8  1  6
  9  7  1  0
  9 10  2  0
 11 12  2  0
 12  2  1  0
 13 14  1  0
 15 14  1  1
 15 16  1  0
 16  9  1  0
 17 15  1  0
 18 17  2  0
 19 20  1  0
 20 22  1  0
 21 20  2  0
 22 23  1  0
 23 24  1  0
 24 25  1  0
 26 25  1  1
 26 28  1  0
 26 27  1  0
 27 17  1  0
 28 30  1  0
 29 28  2  0
M  END
$$$$
