YSR.pdb
     RDKit          3D

 30 30  0  0  1  0  0  0  0  0999 V2000
   18.6702  -26.5839  -19.9883 O   0  0  0  0  0  0  0  0  0  0  0  0
   19.5877  -25.7767  -19.3455 C   0  0  0  0  0  0  0  0  0  0  0  0
   20.6694  -25.2242  -20.0257 C   0  0  0  0  0  0  0  0  0  0  0  0
   21.5804  -24.4194  -19.3765 C   0  0  0  0  0  0  0  0  0  0  0  0
   21.4116  -24.1560  -18.0103 C   0  0  0  0  0  0  0  0  0  0  0  0
   22.4166  -23.3032  -17.3528 C   0  0  0  0  0  0  0  0  0  0  0  0
   21.8678  -21.9205  -17.1051 C   0  0  2  0  0  0  0  0  0  0  0  0
   21.7630  -21.2955  -18.4234 N   0  0  0  0  0  0  0  0  0  0  0  0
   22.8160  -21.1678  -16.2539 C   0  0  0  0  0  0  0  0  0  0  0  0
   23.7462  -20.5326  -16.7771 O   0  0  0  0  0  0  0  0  0  0  0  0
   20.3438  -24.7015  -17.3373 C   0  0  0  0  0  0  0  0  0  0  0  0
   19.4349  -25.5068  -17.9953 C   0  0  0  0  0  0  0  0  0  0  0  0
   21.5997  -19.9140  -12.6861 O   0  0  0  0  0  0  0  0  0  0  0  0
   22.6666  -19.2806  -13.2931 C   0  0  0  0  0  0  0  0  0  0  0  0
   23.5082  -20.3350  -13.9947 C   0  0  2  0  0  0  0  0  0  0  0  0
   22.6663  -21.1676  -14.8422 N   0  0  0  0  0  0  0  0  0  0  0  0
   24.1707  -21.1823  -13.0049 C   0  0  0  0  0  0  0  0  0  0  0  0
   23.4857  -22.0998  -12.4346 O   0  0  0  0  0  0  0  0  0  0  0  0
   32.0604  -21.6912   -8.9771 N   0  0  0  0  0  0  0  0  0  0  0  0
   31.3809  -21.8497  -10.2528 C   0  0  0  0  0  0  0  0  0  0  0  0
   32.0222  -22.2469  -11.2774 N   0  0  0  0  0  0  0  0  0  0  0  0
   30.0034  -21.5690  -10.3683 N   0  0  0  0  0  0  0  0  0  0  0  0
   29.1383  -21.2043   -9.3283 C   0  0  0  0  0  0  0  0  0  0  0  0
   27.6972  -20.9846   -9.5742 C   0  0  0  0  0  0  0  0  0  0  0  0
   27.3410  -20.7812  -11.0208 C   0  0  0  0  0  0  0  0  0  0  0  0
   25.9131  -21.2451  -11.2232 C   0  0  2  0  0  0  0  0  0  0  0  0
   25.5320  -21.0863  -12.6041 N   0  0  0  0  0  0  0  0  0  0  0  0
   24.9724  -20.5498  -10.2977 C   0  0  0  0  0  0  0  0  0  0  0  0
   24.5812  -19.4048  -10.6144 O   0  0  0  0  0  0  0  0  0  0  0  0
   24.5116  -21.0947   -9.1181 O   0  0  0  0  0  0  0  0  0  0  0  0
  2  1  1  0
  3  2  2  0
  4  3  1  0
  5 11  1  0
  5  4  2  0
  6  5  1  0
  7  6  1  0
  7  8  1  6
  9  7  1  0
  9 10  2  0
 11 12  2  0
 12  2  1  0
 13 14  1  0
 15 14  1  1
 15 16  1  0
 16  9  1  0
 17 15  1  0
 18 17  2  0
 19 20  1  0
 20 22  1  0
 21 20  2  0
 22 23  1  0
 23 24  1  0
 24 25  1  0
 26 25  1  6
 26 28  1  0
 26 27  1  0
 27 17  1  0
 28 30  1  0
 29 28  2  0
M  END
$$$$
