YSR.pdb
     RDKit          3D

 30 30  0  0  1  0  0  0  0  0999 V2000
   22.2963  -21.8940   -4.4686 O   0  0  0  0  0  0  0  0  0  0  0  0
   23.0809  -21.3784   -5.4812 C   0  0  0  0  0  0  0  0  0  0  0  0
   22.7142  -21.5041   -6.8182 C   0  0  0  0  0  0  0  0  0  0  0  0
   23.5031  -20.9864   -7.8226 C   0  0  0  0  0  0  0  0  0  0  0  0
   24.6921  -20.3240   -7.4882 C   0  0  0  0  0  0  0  0  0  0  0  0
   25.5122  -19.7992   -8.5934 C   0  0  0  0  0  0  0  0  0  0  0  0
   26.1950  -20.9211   -9.3347 C   0  0  2  0  0  0  0  0  0  0  0  0
   27.3291  -21.3138   -8.4986 N   0  0  0  0  0  0  0  0  0  0  0  0
   26.6711  -20.4189  -10.6429 C   0  0  0  0  0  0  0  0  0  0  0  0
   27.5953  -19.5905  -10.6878 O   0  0  0  0  0  0  0  0  0  0  0  0
   25.0555  -20.1995   -6.1679 C   0  0  0  0  0  0  0  0  0  0  0  0
   24.2591  -20.7209   -5.1672 C   0  0  0  0  0  0  0  0  0  0  0  0
   26.8936  -22.3623  -14.0115 O   0  0  0  0  0  0  0  0  0  0  0  0
   27.3844  -21.0761  -13.8990 C   0  0  0  0  0  0  0  0  0  0  0  0
   26.3716  -20.2475  -13.1242 C   0  0  2  0  0  0  0  0  0  0  0  0
   26.0768  -20.8806  -11.8466 N   0  0  0  0  0  0  0  0  0  0  0  0
   25.1336  -20.1296  -13.8924 C   0  0  0  0  0  0  0  0  0  0  0  0
   24.1774  -20.9382  -13.6316 O   0  0  0  0  0  0  0  0  0  0  0  0
   20.7983  -14.0560  -16.6731 N   0  0  0  0  0  0  0  0  0  0  0  0
   22.1149  -14.2263  -17.2660 C   0  0  0  0  0  0  0  0  0  0  0  0
   22.8844  -13.2249  -17.4208 N   0  0  0  0  0  0  0  0  0  0  0  0
   22.5557  -15.5030  -17.6729 N   0  0  0  0  0  0  0  0  0  0  0  0
   21.7707  -16.6582  -17.7837 C   0  0  0  0  0  0  0  0  0  0  0  0
   22.0740  -17.8677  -16.9896 C   0  0  0  0  0  0  0  0  0  0  0  0
   23.4150  -17.8406  -16.3099 C   0  0  0  0  0  0  0  0  0  0  0  0
   23.6303  -19.1827  -15.6411 C   0  0  2  0  0  0  0  0  0  0  0  0
   24.8805  -19.1835  -14.9239 N   0  0  0  0  0  0  0  0  0  0  0  0
   23.5438  -20.3052  -16.6197 C   0  0  0  0  0  0  0  0  0  0  0  0
   24.5590  -20.5637  -17.3030 O   0  0  0  0  0  0  0  0  0  0  0  0
   22.4136  -21.0705  -16.8135 O   0  0  0  0  0  0  0  0  0  0  0  0
  2  1  1  0
  3  2  2  0
  4  3  1  0
  5 11  1  0
  5  4  2  0
  6  5  1  0
  7  6  1  0
  7  8  1  1
  9  7  1  0
  9 10  2  0
 11 12  2  0
 12  2  1  0
 13 14  1  0
 15 14  1  6
 15 16  1  0
 16  9  1  0
 17 15  1  0
 18 17  2  0
 19 20  1  0
 20 22  1  0
 21 20  2  0
 22 23  1  0
 23 24  1  0
 24 25  1  0
 26 25  1  6
 26 28  1  0
 26 27  1  0
 27 17  1  0
 28 30  1  0
 29 28  2  0
M  END
$$$$
