SPA.pdb
     RDKit          3D

 19 19  0  0  1  0  0  0  0  0999 V2000
    7.8775  -19.2721   19.0760 O   0  0  0  0  0  0  0  0  0  0  0  0
    6.8789  -18.2695   19.0934 C   0  0  0  0  0  0  0  0  0  0  0  0
    7.4881  -17.0874   18.3151 C   0  0  2  0  0  0  0  0  0  0  0  0
    8.1329  -17.7510   17.1649 N   0  0  0  0  0  0  0  0  0  0  0  0
    8.5476  -16.4974   19.1408 C   0  0  0  0  0  0  0  0  0  0  0  0
    9.7509  -16.6454   18.7667 O   0  0  0  0  0  0  0  0  0  0  0  0
    8.3029  -15.7642   20.3428 N   0  0  0  0  0  0  0  0  0  0  0  0
    7.0025  -15.6275   20.9632 C   0  0  0  0  0  0  0  0  0  0  0  0
    7.0801  -14.3514   21.7760 C   0  0  0  0  0  0  0  0  0  0  0  0
    8.4369  -13.7397   21.4104 C   0  0  0  0  0  0  0  0  0  0  0  0
    9.2206  -15.0258   21.1733 C   0  0  1  0  0  0  0  0  0  0  0  0
    9.4189  -15.7835   22.4321 C   0  0  0  0  0  0  0  0  0  0  0  0
    8.5115  -16.4907   22.9021 O   0  0  0  0  0  0  0  0  0  0  0  0
   12.5649  -17.1985   23.6217 C   0  0  0  0  0  0  0  0  0  0  0  0
   11.1061  -16.9061   23.8796 C   0  0  2  0  0  0  0  0  0  0  0  0
   10.6477  -15.7391   23.1589 N   0  0  0  0  0  0  0  0  0  0  0  0
   10.8395  -16.7579   25.3247 C   0  0  0  0  0  0  0  0  0  0  0  0
   11.1612  -17.6688   26.1152 O   0  0  0  0  0  0  0  0  0  0  0  0
   10.2352  -15.6095   25.7882 O   0  0  0  0  0  0  0  0  0  0  0  0
  1  2  1  0
  2  3  1  0
  3  5  1  0
  3  4  1  6
  5  6  2  0
  7 11  1  0
  7  5  1  0
  8  7  1  0
  9  8  1  0
  9 10  1  0
 10 11  1  0
 11 12  1  1
 12 13  2  0
 12 16  1  0
 15 14  1  1
 15 17  1  0
 16 15  1  0
 17 18  2  0
 17 19  1  0
M  END
$$$$
