SPA.pdb
     RDKit          3D

 19 19  0  0  1  0  0  0  0  0999 V2000
    8.9586  -15.8898   17.4257 O   0  0  0  0  0  0  0  0  0  0  0  0
    7.7162  -15.4317   17.9249 C   0  0  0  0  0  0  0  0  0  0  0  0
    7.9679  -13.9685   18.3370 C   0  0  2  0  0  0  0  0  0  0  0  0
    8.6575  -13.4105   17.1571 N   0  0  0  0  0  0  0  0  0  0  0  0
    8.9213  -13.9680   19.4521 C   0  0  0  0  0  0  0  0  0  0  0  0
   10.1075  -13.5791   19.2256 O   0  0  0  0  0  0  0  0  0  0  0  0
    8.5911  -14.3798   20.7801 N   0  0  0  0  0  0  0  0  0  0  0  0
    7.2901  -14.8711   21.1809 C   0  0  0  0  0  0  0  0  0  0  0  0
    7.2021  -14.6003   22.6689 C   0  0  0  0  0  0  0  0  0  0  0  0
    8.4602  -13.7866   22.9909 C   0  0  0  0  0  0  0  0  0  0  0  0
    9.4083  -14.4009   21.9671 C   0  0  1  0  0  0  0  0  0  0  0  0
    9.7191  -15.8140   22.2907 C   0  0  0  0  0  0  0  0  0  0  0  0
    8.9045  -16.7199   22.0454 O   0  0  0  0  0  0  0  0  0  0  0  0
   12.7971  -17.7613   22.4567 C   0  0  0  0  0  0  0  0  0  0  0  0
   11.3608  -17.5884   22.8894 C   0  0  2  0  0  0  0  0  0  0  0  0
   10.9552  -16.2003   22.8932 N   0  0  0  0  0  0  0  0  0  0  0  0
   11.1260  -18.1981   24.2140 C   0  0  0  0  0  0  0  0  0  0  0  0
   10.6565  -17.5097   25.1434 O   0  0  0  0  0  0  0  0  0  0  0  0
   11.4293  -19.5277   24.4116 O   0  0  0  0  0  0  0  0  0  0  0  0
  1  2  1  0
  2  3  1  0
  3  5  1  0
  3  4  1  6
  5  6  2  0
  7 11  1  0
  7  5  1  0
  8  7  1  0
  9  8  1  0
  9 10  1  0
 10 11  1  0
 11 12  1  1
 12 13  2  0
 12 16  1  0
 15 14  1  1
 15 17  1  0
 16 15  1  0
 17 18  2  0
 17 19  1  0
M  END
$$$$
