SPA.pdb
     RDKit          3D

 19 19  0  0  1  0  0  0  0  0999 V2000
    6.0425  -18.3824   17.4443 O   0  0  0  0  0  0  0  0  0  0  0  0
    7.0664  -17.9304   18.3105 C   0  0  0  0  0  0  0  0  0  0  0  0
    7.6817  -16.7110   17.5973 C   0  0  2  0  0  0  0  0  0  0  0  0
    8.3761  -17.3214   16.4465 N   0  0  0  0  0  0  0  0  0  0  0  0
    8.7026  -16.1357   18.4801 C   0  0  0  0  0  0  0  0  0  0  0  0
    9.9209  -16.3861   18.2295 O   0  0  0  0  0  0  0  0  0  0  0  0
    8.4044  -15.3081   19.6063 N   0  0  0  0  0  0  0  0  0  0  0  0
    7.0645  -14.9798   20.0439 C   0  0  0  0  0  0  0  0  0  0  0  0
    7.2009  -13.6760   20.8033 C   0  0  0  0  0  0  0  0  0  0  0  0
    8.6591  -13.2543   20.5929 C   0  0  0  0  0  0  0  0  0  0  0  0
    9.2971  -14.6369   20.5172 C   0  0  1  0  0  0  0  0  0  0  0  0
    9.2390  -15.3366   21.8230 C   0  0  0  0  0  0  0  0  0  0  0  0
    8.1660  -15.7860   22.2601 O   0  0  0  0  0  0  0  0  0  0  0  0
   11.7935  -17.3591   23.4819 C   0  0  0  0  0  0  0  0  0  0  0  0
   10.4666  -16.6419   23.5526 C   0  0  2  0  0  0  0  0  0  0  0  0
   10.3991  -15.5269   22.6342 N   0  0  0  0  0  0  0  0  0  0  0  0
   10.1751  -16.1946   24.9297 C   0  0  0  0  0  0  0  0  0  0  0  0
   10.1810  -17.0181   25.8677 O   0  0  0  0  0  0  0  0  0  0  0  0
    9.8982  -14.8656   25.1664 O   0  0  0  0  0  0  0  0  0  0  0  0
  1  2  1  0
  2  3  1  0
  3  5  1  0
  3  4  1  6
  5  6  2  0
  7 11  1  0
  7  5  1  0
  8  7  1  0
  9  8  1  0
  9 10  1  0
 10 11  1  0
 11 12  1  1
 12 13  2  0
 12 16  1  0
 15 14  1  1
 15 17  1  0
 16 15  1  0
 17 18  2  0
 17 19  1  0
M  END
$$$$
