SPA.pdb
     RDKit          3D

 19 19  0  0  1  0  0  0  0  0999 V2000
   11.0534  -18.1331   23.0733 O   0  0  0  0  0  0  0  0  0  0  0  0
   10.2314  -18.5082   21.9840 C   0  0  0  0  0  0  0  0  0  0  0  0
   10.3464  -17.3453   20.9796 C   0  0  2  0  0  0  0  0  0  0  0  0
   11.7787  -17.3622   20.6226 N   0  0  0  0  0  0  0  0  0  0  0  0
   10.0812  -16.0950   21.6999 C   0  0  0  0  0  0  0  0  0  0  0  0
   11.0718  -15.3823   22.0473 O   0  0  0  0  0  0  0  0  0  0  0  0
    8.7708  -15.6321   22.0325 N   0  0  0  0  0  0  0  0  0  0  0  0
    7.5513  -16.3486   21.7253 C   0  0  0  0  0  0  0  0  0  0  0  0
    6.4679  -15.2908   21.6778 C   0  0  0  0  0  0  0  0  0  0  0  0
    7.2175  -13.9605   21.8093 C   0  0  0  0  0  0  0  0  0  0  0  0
    8.3644  -14.4220   22.7016 C   0  0  1  0  0  0  0  0  0  0  0  0
    7.8889  -14.7804   24.0593 C   0  0  0  0  0  0  0  0  0  0  0  0
    7.7744  -15.9691   24.4033 O   0  0  0  0  0  0  0  0  0  0  0  0
    8.0306  -12.3013   26.9166 C   0  0  0  0  0  0  0  0  0  0  0  0
    8.4024  -13.5586   26.1678 C   0  0  2  0  0  0  0  0  0  0  0  0
    7.5427  -13.7896   25.0282 N   0  0  0  0  0  0  0  0  0  0  0  0
    8.3988  -14.7331   27.0633 C   0  0  0  0  0  0  0  0  0  0  0  0
    9.1251  -14.7461   28.0784 O   0  0  0  0  0  0  0  0  0  0  0  0
    7.5894  -15.8084   26.7677 O   0  0  0  0  0  0  0  0  0  0  0  0
  1  2  1  0
  2  3  1  0
  3  5  1  0
  3  4  1  1
  5  6  2  0
  7 11  1  0
  7  5  1  0
  8  7  1  0
  9  8  1  0
  9 10  1  0
 10 11  1  0
 11 12  1  1
 12 13  2  0
 12 16  1  0
 15 14  1  1
 15 17  1  0
 16 15  1  0
 17 18  2  0
 17 19  1  0
M  END
$$$$
