SPA.pdb
     RDKit          3D

 19 19  0  0  1  0  0  0  0  0999 V2000
    6.6261  -18.0968   19.2400 O   0  0  0  0  0  0  0  0  0  0  0  0
    7.1800  -18.2277   17.9443 C   0  0  0  0  0  0  0  0  0  0  0  0
    7.4388  -16.7833   17.4743 C   0  0  2  0  0  0  0  0  0  0  0  0
    7.9735  -16.9738   16.1116 N   0  0  0  0  0  0  0  0  0  0  0  0
    8.5136  -16.2223   18.3005 C   0  0  0  0  0  0  0  0  0  0  0  0
    9.7083  -16.5610   18.0397 O   0  0  0  0  0  0  0  0  0  0  0  0
    8.2932  -15.3151   19.3824 N   0  0  0  0  0  0  0  0  0  0  0  0
    6.9860  -14.8922   19.8374 C   0  0  0  0  0  0  0  0  0  0  0  0
    7.2117  -13.5546   20.5120 C   0  0  0  0  0  0  0  0  0  0  0  0
    8.6819  -13.2225   20.2347 C   0  0  0  0  0  0  0  0  0  0  0  0
    9.2469  -14.6386   20.2249 C   0  0  1  0  0  0  0  0  0  0  0  0
    9.1951  -15.2557   21.5719 C   0  0  0  0  0  0  0  0  0  0  0  0
    8.1418  -15.7501   22.0084 O   0  0  0  0  0  0  0  0  0  0  0  0
   12.0001  -16.8405   23.3873 C   0  0  0  0  0  0  0  0  0  0  0  0
   10.5437  -16.4542   23.2887 C   0  0  2  0  0  0  0  0  0  0  0  0
   10.3392  -15.3123   22.4252 N   0  0  0  0  0  0  0  0  0  0  0  0
    9.9679  -16.2004   24.6248 C   0  0  0  0  0  0  0  0  0  0  0  0
   10.0142  -17.0865   25.5028 O   0  0  0  0  0  0  0  0  0  0  0  0
    9.3823  -14.9816   24.8902 O   0  0  0  0  0  0  0  0  0  0  0  0
  1  2  1  0
  2  3  1  0
  3  5  1  0
  3  4  1  6
  5  6  2  0
  7 11  1  0
  7  5  1  0
  8  7  1  0
  9  8  1  0
  9 10  1  0
 10 11  1  0
 11 12  1  1
 12 13  2  0
 12 16  1  0
 15 14  1  1
 15 17  1  0
 16 15  1  0
 17 18  2  0
 17 19  1  0
M  END
$$$$
