SPA.pdb
     RDKit          3D

 19 19  0  0  1  0  0  0  0  0999 V2000
    7.0623  -19.0434   20.1030 O   0  0  0  0  0  0  0  0  0  0  0  0
    7.6494  -18.9522   18.8185 C   0  0  0  0  0  0  0  0  0  0  0  0
    7.6683  -17.4458   18.4955 C   0  0  2  0  0  0  0  0  0  0  0  0
    8.1884  -17.4141   17.1143 N   0  0  0  0  0  0  0  0  0  0  0  0
    8.6655  -16.8077   19.3621 C   0  0  0  0  0  0  0  0  0  0  0  0
    9.8869  -16.8849   19.0273 O   0  0  0  0  0  0  0  0  0  0  0  0
    8.3410  -16.1029   20.5621 N   0  0  0  0  0  0  0  0  0  0  0  0
    7.0217  -16.0707   21.1564 C   0  0  0  0  0  0  0  0  0  0  0  0
    6.9842  -14.7973   21.9764 C   0  0  0  0  0  0  0  0  0  0  0  0
    8.2968  -14.0807   21.6415 C   0  0  0  0  0  0  0  0  0  0  0  0
    9.1820  -15.3011   21.4146 C   0  0  1  0  0  0  0  0  0  0  0  0
    9.4129  -16.0490   22.6738 C   0  0  0  0  0  0  0  0  0  0  0  0
    8.5482  -16.8169   23.1287 O   0  0  0  0  0  0  0  0  0  0  0  0
   12.6382  -17.1032   24.1820 C   0  0  0  0  0  0  0  0  0  0  0  0
   11.1292  -17.0506   24.1749 C   0  0  2  0  0  0  0  0  0  0  0  0
   10.6258  -15.9259   23.4180 N   0  0  0  0  0  0  0  0  0  0  0  0
   10.5900  -17.0302   25.5497 C   0  0  0  0  0  0  0  0  0  0  0  0
    9.8715  -16.0806   25.9241 O   0  0  0  0  0  0  0  0  0  0  0  0
   10.8872  -18.0649   26.4099 O   0  0  0  0  0  0  0  0  0  0  0  0
  1  2  1  0
  2  3  1  0
  3  5  1  0
  3  4  1  6
  5  6  2  0
  7 11  1  0
  7  5  1  0
  8  7  1  0
  9  8  1  0
  9 10  1  0
 10 11  1  0
 11 12  1  1
 12 13  2  0
 12 16  1  0
 15 14  1  1
 15 17  1  0
 16 15  1  0
 17 18  2  0
 17 19  1  0
M  END
$$$$
