SPA.pdb
     RDKit          3D

 19 19  0  0  1  0  0  0  0  0999 V2000
    6.9651  -18.8286   18.1943 O   0  0  0  0  0  0  0  0  0  0  0  0
    6.3476  -17.5776   18.4322 C   0  0  0  0  0  0  0  0  0  0  0  0
    7.0814  -16.5889   17.5059 C   0  0  2  0  0  0  0  0  0  0  0  0
    7.5457  -17.4557   16.4049 N   0  0  0  0  0  0  0  0  0  0  0  0
    8.2671  -16.0959   18.2155 C   0  0  0  0  0  0  0  0  0  0  0  0
    9.4086  -16.4661   17.8035 O   0  0  0  0  0  0  0  0  0  0  0  0
    8.2112  -15.2214   19.3443 N   0  0  0  0  0  0  0  0  0  0  0  0
    6.9840  -14.7431   19.9443 C   0  0  0  0  0  0  0  0  0  0  0  0
    7.3566  -13.4484   20.6372 C   0  0  0  0  0  0  0  0  0  0  0  0
    8.8092  -13.1899   20.2229 C   0  0  0  0  0  0  0  0  0  0  0  0
    9.2835  -14.6343   20.1076 C   0  0  1  0  0  0  0  0  0  0  0  0
    9.3290  -15.3006   21.4313 C   0  0  0  0  0  0  0  0  0  0  0  0
    8.2928  -15.7294   21.9669 O   0  0  0  0  0  0  0  0  0  0  0  0
   12.0196  -17.3619   22.7177 C   0  0  0  0  0  0  0  0  0  0  0  0
   10.7271  -16.6349   23.0019 C   0  0  2  0  0  0  0  0  0  0  0  0
   10.5510  -15.4808   22.1485 N   0  0  0  0  0  0  0  0  0  0  0  0
   10.6368  -16.2440   24.4234 C   0  0  0  0  0  0  0  0  0  0  0  0
   10.4760  -15.0452   24.7318 O   0  0  0  0  0  0  0  0  0  0  0  0
   10.7316  -17.2117   25.3998 O   0  0  0  0  0  0  0  0  0  0  0  0
  1  2  1  0
  2  3  1  0
  3  5  1  0
  3  4  1  6
  5  6  2  0
  7 11  1  0
  7  5  1  0
  8  7  1  0
  9  8  1  0
  9 10  1  0
 10 11  1  0
 11 12  1  1
 12 13  2  0
 12 16  1  0
 15 14  1  1
 15 17  1  0
 16 15  1  0
 17 18  2  0
 17 19  1  0
M  END
$$$$
