SPA.pdb
     RDKit          3D

 19 19  0  0  1  0  0  0  0  0999 V2000
    5.5116  -16.1878   22.0917 O   0  0  0  0  0  0  0  0  0  0  0  0
    6.8183  -16.0215   22.6092 C   0  0  0  0  0  0  0  0  0  0  0  0
    7.0954  -14.5089   22.5120 C   0  0  2  0  0  0  0  0  0  0  0  0
    7.6518  -14.3652   21.1523 N   0  0  0  0  0  0  0  0  0  0  0  0
    8.1599  -14.1797   23.4664 C   0  0  0  0  0  0  0  0  0  0  0  0
    9.3519  -14.1173   23.0360 O   0  0  0  0  0  0  0  0  0  0  0  0
    7.9323  -13.9242   24.8538 N   0  0  0  0  0  0  0  0  0  0  0  0
    6.6284  -13.9399   25.4818 C   0  0  0  0  0  0  0  0  0  0  0  0
    6.7646  -13.0588   26.7067 C   0  0  0  0  0  0  0  0  0  0  0  0
    8.1644  -12.4458   26.5908 C   0  0  0  0  0  0  0  0  0  0  0  0
    8.8735  -13.6037   25.8972 C   0  0  1  0  0  0  0  0  0  0  0  0
    8.9955  -14.7815   26.7892 C   0  0  0  0  0  0  0  0  0  0  0  0
    7.9910  -15.4225   27.1424 O   0  0  0  0  0  0  0  0  0  0  0  0
   11.6849  -17.2283   27.2256 C   0  0  0  0  0  0  0  0  0  0  0  0
   10.4125  -16.5968   27.7375 C   0  0  2  0  0  0  0  0  0  0  0  0
   10.2580  -15.2332   27.2814 N   0  0  0  0  0  0  0  0  0  0  0  0
   10.3420  -16.6590   29.2115 C   0  0  0  0  0  0  0  0  0  0  0  0
   10.1703  -15.6142   29.8726 O   0  0  0  0  0  0  0  0  0  0  0  0
   10.4671  -17.8761   29.8453 O   0  0  0  0  0  0  0  0  0  0  0  0
  1  2  1  0
  2  3  1  0
  3  5  1  0
  3  4  1  6
  5  6  2  0
  7 11  1  0
  7  5  1  0
  8  7  1  0
  9  8  1  0
  9 10  1  0
 10 11  1  0
 11 12  1  1
 12 13  2  0
 12 16  1  0
 15 14  1  1
 15 17  1  0
 16 15  1  0
 17 18  2  0
 17 19  1  0
M  END
$$$$
