SPA.pdb
     RDKit          3D

 19 19  0  0  1  0  0  0  0  0999 V2000
    7.4312  -18.3378   17.7409 O   0  0  0  0  0  0  0  0  0  0  0  0
    6.5689  -17.2175   17.8054 C   0  0  0  0  0  0  0  0  0  0  0  0
    7.3620  -16.0669   17.1563 C   0  0  2  0  0  0  0  0  0  0  0  0
    8.0222  -16.7286   16.0138 N   0  0  0  0  0  0  0  0  0  0  0  0
    8.4090  -15.6501   18.0958 C   0  0  0  0  0  0  0  0  0  0  0  0
    9.6134  -15.9326   17.8141 O   0  0  0  0  0  0  0  0  0  0  0  0
    8.1511  -14.9429   19.3105 N   0  0  0  0  0  0  0  0  0  0  0  0
    6.8274  -14.6436   19.8136 C   0  0  0  0  0  0  0  0  0  0  0  0
    7.0035  -13.4302   20.7035 C   0  0  0  0  0  0  0  0  0  0  0  0
    8.4635  -13.0097   20.5029 C   0  0  0  0  0  0  0  0  0  0  0  0
    9.0759  -14.3856   20.2651 C   0  0  1  0  0  0  0  0  0  0  0  0
    9.0360  -15.2194   21.4903 C   0  0  0  0  0  0  0  0  0  0  0  0
    7.9540  -15.5921   21.9748 O   0  0  0  0  0  0  0  0  0  0  0  0
   10.4226  -18.0164   22.7060 C   0  0  0  0  0  0  0  0  0  0  0  0
   10.1541  -16.6217   23.2183 C   0  0  2  0  0  0  0  0  0  0  0  0
   10.2246  -15.6311   22.1671 N   0  0  0  0  0  0  0  0  0  0  0  0
   11.0741  -16.2719   24.3194 C   0  0  0  0  0  0  0  0  0  0  0  0
   11.9200  -15.3675   24.1623 O   0  0  0  0  0  0  0  0  0  0  0  0
   10.9891  -16.9510   25.5154 O   0  0  0  0  0  0  0  0  0  0  0  0
  1  2  1  0
  2  3  1  0
  3  5  1  0
  3  4  1  6
  5  6  2  0
  7 11  1  0
  7  5  1  0
  8  7  1  0
  9  8  1  0
  9 10  1  0
 10 11  1  0
 11 12  1  1
 12 13  2  0
 12 16  1  0
 15 14  1  6
 15 17  1  0
 16 15  1  0
 17 18  2  0
 17 19  1  0
M  END
$$$$
