SPA.pdb
     RDKit          3D

 19 19  0  0  1  0  0  0  0  0999 V2000
    7.0362  -16.2180   22.0413 O   0  0  0  0  0  0  0  0  0  0  0  0
    6.0628  -15.2226   22.2952 C   0  0  0  0  0  0  0  0  0  0  0  0
    6.8300  -13.8882   22.2236 C   0  0  2  0  0  0  0  0  0  0  0  0
    7.4278  -13.9268   20.8745 N   0  0  0  0  0  0  0  0  0  0  0  0
    7.9254  -13.9410   23.1983 C   0  0  0  0  0  0  0  0  0  0  0  0
    9.1111  -14.0543   22.7610 O   0  0  0  0  0  0  0  0  0  0  0  0
    7.7345  -13.8714   24.6128 N   0  0  0  0  0  0  0  0  0  0  0  0
    6.4403  -13.8580   25.2605 C   0  0  0  0  0  0  0  0  0  0  0  0
    6.6697  -13.1823   26.5969 C   0  0  0  0  0  0  0  0  0  0  0  0
    8.1204  -12.6913   26.5402 C   0  0  0  0  0  0  0  0  0  0  0  0
    8.7106  -13.7957   25.6705 C   0  0  1  0  0  0  0  0  0  0  0  0
    8.7277  -15.0977   26.3794 C   0  0  0  0  0  0  0  0  0  0  0  0
    7.6700  -15.6884   26.6567 O   0  0  0  0  0  0  0  0  0  0  0  0
   11.1569  -17.7006   25.9550 C   0  0  0  0  0  0  0  0  0  0  0  0
   10.0329  -17.1736   26.8145 C   0  0  2  0  0  0  0  0  0  0  0  0
    9.9456  -15.7307   26.7746 N   0  0  0  0  0  0  0  0  0  0  0  0
   10.1620  -17.6443   28.2085 C   0  0  0  0  0  0  0  0  0  0  0  0
   10.2365  -18.8668   28.4499 O   0  0  0  0  0  0  0  0  0  0  0  0
   10.1993  -16.7245   29.2338 O   0  0  0  0  0  0  0  0  0  0  0  0
  1  2  1  0
  2  3  1  0
  3  5  1  0
  3  4  1  6
  5  6  2  0
  7 11  1  0
  7  5  1  0
  8  7  1  0
  9  8  1  0
  9 10  1  0
 10 11  1  0
 11 12  1  1
 12 13  2  0
 12 16  1  0
 15 14  1  6
 15 17  1  0
 16 15  1  0
 17 18  2  0
 17 19  1  0
M  END
$$$$
