SPA.pdb
     RDKit          3D

 19 19  0  0  1  0  0  0  0  0999 V2000
    6.6485  -16.6762   23.1391 O   0  0  0  0  0  0  0  0  0  0  0  0
    7.4241  -16.2461   22.0362 C   0  0  0  0  0  0  0  0  0  0  0  0
    7.4303  -14.7082   22.1295 C   0  0  2  0  0  0  0  0  0  0  0  0
    8.1297  -14.3084   20.8925 N   0  0  0  0  0  0  0  0  0  0  0  0
    8.2777  -14.3252   23.2643 C   0  0  0  0  0  0  0  0  0  0  0  0
    9.5348  -14.3059   23.0933 O   0  0  0  0  0  0  0  0  0  0  0  0
    7.7692  -13.9713   24.5520 N   0  0  0  0  0  0  0  0  0  0  0  0
    6.3855  -14.1186   24.9501 C   0  0  0  0  0  0  0  0  0  0  0  0
    6.1808  -13.1112   26.0629 C   0  0  0  0  0  0  0  0  0  0  0  0
    7.4875  -12.3117   26.1086 C   0  0  0  0  0  0  0  0  0  0  0  0
    8.4545  -13.4139   25.6908 C   0  0  1  0  0  0  0  0  0  0  0  0
    8.5618  -14.4674   26.7285 C   0  0  0  0  0  0  0  0  0  0  0  0
    8.0558  -15.5891   26.5551 O   0  0  0  0  0  0  0  0  0  0  0  0
   11.4075  -14.0343   29.1010 C   0  0  0  0  0  0  0  0  0  0  0  0
   10.5268  -14.8711   28.2043 C   0  0  2  0  0  0  0  0  0  0  0  0
    9.2438  -14.2485   27.9643 N   0  0  0  0  0  0  0  0  0  0  0  0
   10.3461  -16.2305   28.7529 C   0  0  0  0  0  0  0  0  0  0  0  0
   11.3399  -16.9568   28.9604 O   0  0  0  0  0  0  0  0  0  0  0  0
    9.0757  -16.6857   29.0314 O   0  0  0  0  0  0  0  0  0  0  0  0
  1  2  1  0
  2  3  1  0
  3  5  1  0
  3  4  1  6
  5  6  2  0
  7 11  1  0
  7  5  1  0
  8  7  1  0
  9  8  1  0
  9 10  1  0
 10 11  1  0
 11 12  1  1
 12 13  2  0
 12 16  1  0
 15 14  1  1
 15 17  1  0
 16 15  1  0
 17 18  2  0
 17 19  1  0
M  END
$$$$
