SPA.pdb
     RDKit          3D

 19 19  0  0  1  0  0  0  0  0999 V2000
    8.9328  -17.3928   15.9656 O   0  0  0  0  0  0  0  0  0  0  0  0
    7.8576  -16.5471   16.3283 C   0  0  0  0  0  0  0  0  0  0  0  0
    8.3281  -15.1261   15.9629 C   0  0  2  0  0  0  0  0  0  0  0  0
    9.0743  -15.3415   14.7075 N   0  0  0  0  0  0  0  0  0  0  0  0
    9.2880  -14.6890   16.9827 C   0  0  0  0  0  0  0  0  0  0  0  0
   10.5185  -14.6614   16.6741 O   0  0  0  0  0  0  0  0  0  0  0  0
    8.9176  -14.2913   18.3042 N   0  0  0  0  0  0  0  0  0  0  0  0
    7.5619  -14.3106   18.8108 C   0  0  0  0  0  0  0  0  0  0  0  0
    7.5395  -13.2900   19.9302 C   0  0  0  0  0  0  0  0  0  0  0  0
    8.9139  -12.6147   19.8681 C   0  0  0  0  0  0  0  0  0  0  0  0
    9.7391  -13.8011   19.3822 C   0  0  1  0  0  0  0  0  0  0  0  0
    9.8304  -14.8613   20.4145 C   0  0  0  0  0  0  0  0  0  0  0  0
    8.9061  -15.6760   20.5774 O   0  0  0  0  0  0  0  0  0  0  0  0
   12.6654  -16.5492   22.1247 C   0  0  0  0  0  0  0  0  0  0  0  0
   11.1960  -16.2323   21.9821 C   0  0  2  0  0  0  0  0  0  0  0  0
   10.9711  -14.9979   21.2632 N   0  0  0  0  0  0  0  0  0  0  0  0
   10.5294  -16.1910   23.2994 C   0  0  0  0  0  0  0  0  0  0  0  0
    9.9644  -15.1451   23.6803 O   0  0  0  0  0  0  0  0  0  0  0  0
   10.5378  -17.3133   24.0989 O   0  0  0  0  0  0  0  0  0  0  0  0
  1  2  1  0
  2  3  1  0
  3  5  1  0
  3  4  1  6
  5  6  2  0
  7 11  1  0
  7  5  1  0
  8  7  1  0
  9  8  1  0
  9 10  1  0
 10 11  1  0
 11 12  1  1
 12 13  2  0
 12 16  1  0
 15 14  1  1
 15 17  1  0
 16 15  1  0
 17 18  2  0
 17 19  1  0
M  END
$$$$
