SPA.pdb
     RDKit          3D

 19 19  0  0  1  0  0  0  0  0999 V2000
    8.0072  -18.7066   18.0797 O   0  0  0  0  0  0  0  0  0  0  0  0
    7.0450  -17.6691   18.1061 C   0  0  0  0  0  0  0  0  0  0  0  0
    7.7279  -16.4750   17.4119 C   0  0  2  0  0  0  0  0  0  0  0  0
    8.4515  -17.1157   16.2961 N   0  0  0  0  0  0  0  0  0  0  0  0
    8.7276  -15.9244   18.3339 C   0  0  0  0  0  0  0  0  0  0  0  0
    9.9542  -16.1109   18.0681 O   0  0  0  0  0  0  0  0  0  0  0  0
    8.4001  -15.1889   19.5144 N   0  0  0  0  0  0  0  0  0  0  0  0
    7.0529  -14.9978   20.0076 C   0  0  0  0  0  0  0  0  0  0  0  0
    7.1075  -13.7318   20.8379 C   0  0  0  0  0  0  0  0  0  0  0  0
    8.5191  -13.1795   20.6120 C   0  0  0  0  0  0  0  0  0  0  0  0
    9.2645  -14.4980   20.4378 C   0  0  1  0  0  0  0  0  0  0  0  0
    9.3059  -15.2721   21.7016 C   0  0  0  0  0  0  0  0  0  0  0  0
    8.3388  -15.9665   22.0577 O   0  0  0  0  0  0  0  0  0  0  0  0
   12.2496  -16.6470   23.4779 C   0  0  0  0  0  0  0  0  0  0  0  0
   10.7611  -16.4196   23.3653 C   0  0  2  0  0  0  0  0  0  0  0  0
   10.4455  -15.2588   22.5625 N   0  0  0  0  0  0  0  0  0  0  0  0
   10.1362  -16.3099   24.6991 C   0  0  0  0  0  0  0  0  0  0  0  0
    9.4944  -15.2839   25.0049 O   0  0  0  0  0  0  0  0  0  0  0  0
   10.2688  -17.3466   25.5971 O   0  0  0  0  0  0  0  0  0  0  0  0
  1  2  1  0
  2  3  1  0
  3  5  1  0
  3  4  1  6
  5  6  2  0
  7 11  1  0
  7  5  1  0
  8  7  1  0
  9  8  1  0
  9 10  1  0
 10 11  1  0
 11 12  1  1
 12 13  2  0
 12 16  1  0
 15 14  1  1
 15 17  1  0
 16 15  1  0
 17 18  2  0
 17 19  1  0
M  END
$$$$
