CRL.pdb
     RDKit          3D

 26 25  0  0  1  0  0  0  0  0999 V2000
    6.2533  -19.4382   22.8607 N   0  0  0  0  0  0  0  0  0  0  0  0
    6.4327  -18.0437   23.1291 C   0  0  1  0  0  0  0  0  0  0  0  0
    5.8425  -17.6843   24.4750 C   0  0  0  0  0  0  0  0  0  0  0  0
    6.6569  -18.7255   25.7172 S   0  0  0  0  0  0  0  0  0  0  0  0
    7.8874  -17.7420   23.0512 C   0  0  0  0  0  0  0  0  0  0  0  0
    8.7594  -18.6639   23.2001 O   0  0  0  0  0  0  0  0  0  0  0  0
    8.2112  -13.9848   16.8381 N   0  0  0  0  0  0  0  0  0  0  0  0
    7.8087  -13.9918   18.2208 C   0  0  0  0  0  0  0  0  0  0  0  0
    7.4553  -12.9158   18.8028 N   0  0  0  0  0  0  0  0  0  0  0  0
    7.8138  -15.2231   18.9208 N   0  0  0  0  0  0  0  0  0  0  0  0
    8.8954  -15.5307   19.8328 C   0  0  0  0  0  0  0  0  0  0  0  0
    8.8772  -14.5721   21.0443 C   0  0  0  0  0  0  0  0  0  0  0  0
    9.9979  -14.8911   21.9612 C   0  0  0  0  0  0  0  0  0  0  0  0
    9.8465  -16.1410   22.7925 C   0  0  2  0  0  0  0  0  0  0  0  0
    8.3931  -16.4456   22.8131 N   0  0  0  0  0  0  0  0  0  0  0  0
   10.2755  -15.8758   24.1760 C   0  0  0  0  0  0  0  0  0  0  0  0
   10.7886  -14.7174   24.3902 O   0  0  0  0  0  0  0  0  0  0  0  0
    7.2985  -12.9009   19.8180 C   0  0  0  0  0  0  0  0  0  0  0  0
    8.2720  -13.8438   28.7405 C   0  0  1  0  0  0  0  0  0  0  0  0
    9.5051  -14.6431   28.3101 C   0  0  0  0  0  0  0  0  0  0  0  0
   10.7550  -13.8043   28.4873 C   0  0  0  0  0  0  0  0  0  0  0  0
    9.3442  -15.1572   26.9126 C   0  0  2  0  0  0  0  0  0  0  0  0
   10.3948  -16.2031   26.6178 N   0  0  0  0  0  0  0  0  0  0  0  0
   10.1756  -16.7492   25.2733 C   0  0  0  0  0  0  0  0  0  0  0  0
   10.3429  -17.3308   27.5571 O   0  0  0  0  0  0  0  0  0  0  0  0
    9.9565  -18.6049   27.1070 O   0  0  0  0  0  0  0  0  0  0  0  0
  2  3  1  0
  2  1  1  1
  3  4  1  0
  5  6  2  0
  5  2  1  0
  7  8  1  0
  8  9  2  0
 10  8  1  0
 10 11  1  0
 11 12  1  0
 13 12  1  0
 14 13  1  6
 14 15  1  0
 15  5  1  0
 16 14  1  0
 16 17  2  0
 19 21  1  0
 19 18  1  1
 20 19  1  0
 22 21  1  6
 22 23  1  0
 23 16  1  0
 24 22  1  0
 25 24  1  0
 26 24  2  0
M  END
$$$$
