CRL.pdb
     RDKit          3D

 26 25  0  0  1  0  0  0  0  0999 V2000
    6.7567  -20.8307   26.1845 N   0  0  0  0  0  0  0  0  0  0  0  0
    6.4537  -19.4334   26.2497 C   0  0  1  0  0  0  0  0  0  0  0  0
    6.7395  -18.8945   27.6342 C   0  0  0  0  0  0  0  0  0  0  0  0
    8.4941  -19.1976   27.9801 S   0  0  0  0  0  0  0  0  0  0  0  0
    7.2460  -18.7397   25.1988 C   0  0  0  0  0  0  0  0  0  0  0  0
    8.2026  -19.3347   24.5958 O   0  0  0  0  0  0  0  0  0  0  0  0
    9.0785  -13.0725   18.4188 N   0  0  0  0  0  0  0  0  0  0  0  0
    8.3004  -13.2097   19.6228 C   0  0  0  0  0  0  0  0  0  0  0  0
    8.1419  -12.2239   20.4131 N   0  0  0  0  0  0  0  0  0  0  0  0
    7.7138  -14.4665   19.9098 N   0  0  0  0  0  0  0  0  0  0  0  0
    6.8510  -14.6143   21.0630 C   0  0  0  0  0  0  0  0  0  0  0  0
    7.6780  -14.6069   22.3679 C   0  0  0  0  0  0  0  0  0  0  0  0
    7.0430  -15.4887   23.3767 C   0  0  0  0  0  0  0  0  0  0  0  0
    7.8383  -16.6979   23.8030 C   0  0  2  0  0  0  0  0  0  0  0  0
    7.0013  -17.4064   24.8044 N   0  0  0  0  0  0  0  0  0  0  0  0
    9.0800  -16.2698   24.4689 C   0  0  0  0  0  0  0  0  0  0  0  0
    9.9341  -15.6642   23.7239 O   0  0  0  0  0  0  0  0  0  0  0  0
    7.5444  -12.3141   21.2439 C   0  0  0  0  0  0  0  0  0  0  0  0
    9.5929  -13.1714   26.7761 C   0  0  2  0  0  0  0  0  0  0  0  0
    9.3174  -14.3487   27.7155 C   0  0  0  0  0  0  0  0  0  0  0  0
    8.9932  -13.8387   29.1055 C   0  0  0  0  0  0  0  0  0  0  0  0
   10.4605  -15.3166   27.7042 C   0  0  2  0  0  0  0  0  0  0  0  0
   10.6702  -15.8591   26.3090 N   0  0  0  0  0  0  0  0  0  0  0  0
    9.4178  -16.4491   25.8219 C   0  0  0  0  0  0  0  0  0  0  0  0
   11.6917  -16.9132   26.2647 O   0  0  0  0  0  0  0  0  0  0  0  0
   13.0359  -16.6027   26.5331 O   0  0  0  0  0  0  0  0  0  0  0  0
  2  3  1  0
  2  1  1  1
  3  4  1  0
  5  6  2  0
  5  2  1  0
  7  8  1  0
  8  9  2  0
 10  8  1  0
 10 11  1  0
 11 12  1  0
 13 12  1  0
 14 13  1  1
 14 15  1  0
 15  5  1  0
 16 14  1  0
 16 17  2  0
 19 21  1  0
 19 18  1  6
 20 19  1  0
 22 21  1  6
 22 23  1  0
 23 16  1  0
 24 22  1  0
 25 24  1  0
 26 24  2  0
M  END
$$$$
