CRL.pdb
     RDKit          3D

 26 25  0  0  1  0  0  0  0  0999 V2000
    7.0631  -20.3137   22.0518 N   0  0  0  0  0  0  0  0  0  0  0  0
    6.3745  -19.0842   22.3027 C   0  0  1  0  0  0  0  0  0  0  0  0
    5.5458  -19.1905   23.5641 C   0  0  0  0  0  0  0  0  0  0  0  0
    6.6938  -19.4529   24.9439 S   0  0  0  0  0  0  0  0  0  0  0  0
    7.3860  -17.9962   22.3813 C   0  0  0  0  0  0  0  0  0  0  0  0
    8.5799  -18.2346   22.7692 O   0  0  0  0  0  0  0  0  0  0  0  0
    9.7461  -13.8472   18.1507 N   0  0  0  0  0  0  0  0  0  0  0  0
    8.5970  -13.7061   17.2943 C   0  0  0  0  0  0  0  0  0  0  0  0
    8.6703  -13.9824   16.0534 N   0  0  0  0  0  0  0  0  0  0  0  0
    7.3813  -13.2528   17.8624 N   0  0  0  0  0  0  0  0  0  0  0  0
    7.2468  -13.1595   19.3009 C   0  0  0  0  0  0  0  0  0  0  0  0
    7.8921  -14.3825   19.9899 C   0  0  0  0  0  0  0  0  0  0  0  0
    7.5565  -14.3876   21.4341 C   0  0  0  0  0  0  0  0  0  0  0  0
    8.0783  -15.5532   22.2376 C   0  0  2  0  0  0  0  0  0  0  0  0
    7.1030  -16.6557   22.0406 N   0  0  0  0  0  0  0  0  0  0  0  0
    8.0912  -15.2074   23.6689 C   0  0  0  0  0  0  0  0  0  0  0  0
    6.9591  -15.2813   24.2724 O   0  0  0  0  0  0  0  0  0  0  0  0
    7.8543  -13.8534   15.4428 C   0  0  0  0  0  0  0  0  0  0  0  0
    8.4045  -12.7871   27.8450 C   0  0  1  0  0  0  0  0  0  0  0  0
    7.5555  -12.2906   26.6714 C   0  0  0  0  0  0  0  0  0  0  0  0
    6.1010  -12.1956   27.0868 C   0  0  0  0  0  0  0  0  0  0  0  0
    7.7596  -13.1542   25.4648 C   0  0  1  0  0  0  0  0  0  0  0  0
    8.9688  -14.0406   25.6568 N   0  0  0  0  0  0  0  0  0  0  0  0
    9.2044  -14.8158   24.4331 C   0  0  0  0  0  0  0  0  0  0  0  0
    8.7908  -15.0030   26.7518 O   0  0  0  0  0  0  0  0  0  0  0  0
    7.8100  -16.0050   26.6559 O   0  0  0  0  0  0  0  0  0  0  0  0
  2  3  1  0
  2  1  1  1
  3  4  1  0
  5  6  2  0
  5  2  1  0
  7  8  1  0
  8  9  2  0
 10  8  1  0
 10 11  1  0
 11 12  1  0
 13 12  1  0
 14 13  1  6
 14 15  1  0
 15  5  1  0
 16 14  1  0
 16 17  2  0
 19 21  1  0
 19 18  1  1
 20 19  1  0
 22 21  1  6
 22 23  1  0
 23 16  1  0
 24 22  1  0
 25 24  1  0
 26 24  2  0
M  END
$$$$
