CRL.pdb
     RDKit          3D

 26 25  0  0  1  0  0  0  0  0999 V2000
    7.5570  -14.5325   17.9663 N   0  0  0  0  0  0  0  0  0  0  0  0
    8.4840  -14.1424   18.9847 C   0  0  1  0  0  0  0  0  0  0  0  0
    8.3218  -12.6744   19.3129 C   0  0  0  0  0  0  0  0  0  0  0  0
    9.0158  -11.7314   17.9276 S   0  0  0  0  0  0  0  0  0  0  0  0
    8.2619  -15.0141   20.1696 C   0  0  0  0  0  0  0  0  0  0  0  0
    7.0814  -15.3370   20.5368 O   0  0  0  0  0  0  0  0  0  0  0  0
   12.5398  -20.0023   20.9242 N   0  0  0  0  0  0  0  0  0  0  0  0
   12.6906  -20.5871   22.2314 C   0  0  0  0  0  0  0  0  0  0  0  0
   13.5557  -21.4973   22.4431 N   0  0  0  0  0  0  0  0  0  0  0  0
   11.8550  -20.1278   23.2788 N   0  0  0  0  0  0  0  0  0  0  0  0
   10.5177  -19.6587   22.9828 C   0  0  0  0  0  0  0  0  0  0  0  0
   10.3451  -18.1881   23.4235 C   0  0  0  0  0  0  0  0  0  0  0  0
   10.2822  -17.3054   22.2339 C   0  0  0  0  0  0  0  0  0  0  0  0
    9.0866  -16.3895   22.1435 C   0  0  2  0  0  0  0  0  0  0  0  0
    9.3161  -15.5328   20.9523 N   0  0  0  0  0  0  0  0  0  0  0  0
    9.0352  -15.5168   23.3285 C   0  0  0  0  0  0  0  0  0  0  0  0
    9.9967  -14.6721   23.4433 O   0  0  0  0  0  0  0  0  0  0  0  0
   13.6387  -21.9304   23.3710 C   0  0  0  0  0  0  0  0  0  0  0  0
    5.5892  -12.4035   27.2119 C   0  0  1  0  0  0  0  0  0  0  0  0
    6.9792  -12.9134   26.8212 C   0  0  0  0  0  0  0  0  0  0  0  0
    7.9299  -11.7460   26.6464 C   0  0  0  0  0  0  0  0  0  0  0  0
    6.9031  -13.7871   25.6070 C   0  0  2  0  0  0  0  0  0  0  0  0
    8.1915  -14.5596   25.4393 N   0  0  0  0  0  0  0  0  0  0  0  0
    8.0490  -15.5106   24.3306 C   0  0  0  0  0  0  0  0  0  0  0  0
    8.5389  -15.3376   26.6354 O   0  0  0  0  0  0  0  0  0  0  0  0
    9.3589  -14.7742   27.6281 O   0  0  0  0  0  0  0  0  0  0  0  0
  2  3  1  0
  2  1  1  6
  3  4  1  0
  5  6  2  0
  5  2  1  0
  7  8  1  0
  8  9  2  0
 10  8  1  0
 10 11  1  0
 11 12  1  0
 13 12  1  0
 14 13  1  1
 14 15  1  0
 15  5  1  0
 16 14  1  0
 16 17  2  0
 19 21  1  0
 19 18  1  1
 20 19  1  0
 22 21  1  6
 22 23  1  0
 23 16  1  0
 24 22  1  0
 25 24  1  0
 26 24  2  0
M  END
$$$$
