CRL.pdb
     RDKit          3D

 26 25  0  0  1  0  0  0  0  0999 V2000
    6.1039  -20.9376   23.0508 N   0  0  0  0  0  0  0  0  0  0  0  0
    6.2915  -19.7879   23.8825 C   0  0  1  0  0  0  0  0  0  0  0  0
    6.8852  -20.1904   25.2146 C   0  0  0  0  0  0  0  0  0  0  0  0
    5.6398  -21.1826   26.0833 S   0  0  0  0  0  0  0  0  0  0  0  0
    7.1532  -18.8227   23.1484 C   0  0  0  0  0  0  0  0  0  0  0  0
    7.5760  -19.0817   21.9708 O   0  0  0  0  0  0  0  0  0  0  0  0
    8.5024  -12.3710   20.4345 N   0  0  0  0  0  0  0  0  0  0  0  0
    8.3108  -12.8015   19.0738 C   0  0  0  0  0  0  0  0  0  0  0  0
    8.9510  -12.2527   18.1195 N   0  0  0  0  0  0  0  0  0  0  0  0
    7.3937  -13.8503   18.8185 N   0  0  0  0  0  0  0  0  0  0  0  0
    6.8310  -14.6018   19.9207 C   0  0  0  0  0  0  0  0  0  0  0  0
    7.9502  -15.1739   20.8190 C   0  0  0  0  0  0  0  0  0  0  0  0
    7.3687  -16.0742   21.8436 C   0  0  0  0  0  0  0  0  0  0  0  0
    8.3133  -16.5720   22.9096 C   0  0  2  0  0  0  0  0  0  0  0  0
    7.5542  -17.5822   23.6901 N   0  0  0  0  0  0  0  0  0  0  0  0
    8.6683  -15.4684   23.8175 C   0  0  0  0  0  0  0  0  0  0  0  0
    8.1172  -14.3357   23.5634 O   0  0  0  0  0  0  0  0  0  0  0  0
    8.8017  -12.5576   17.1499 C   0  0  0  0  0  0  0  0  0  0  0  0
    8.3670  -12.5727   26.5771 C   0  0  2  0  0  0  0  0  0  0  0  0
    7.2743  -13.4153   25.9133 C   0  0  0  0  0  0  0  0  0  0  0  0
    5.9096  -12.9748   26.4038 C   0  0  0  0  0  0  0  0  0  0  0  0
    7.5250  -14.8762   26.1287 C   0  0  2  0  0  0  0  0  0  0  0  0
    9.0094  -15.1396   26.2381 N   0  0  0  0  0  0  0  0  0  0  0  0
    9.5335  -15.5301   24.9240 C   0  0  0  0  0  0  0  0  0  0  0  0
    9.3181  -16.2322   27.1697 O   0  0  0  0  0  0  0  0  0  0  0  0
   10.0052  -15.9642   28.3661 O   0  0  0  0  0  0  0  0  0  0  0  0
  2  3  1  0
  2  1  1  6
  3  4  1  0
  5  6  2  0
  5  2  1  0
  7  8  1  0
  8  9  2  0
 10  8  1  0
 10 11  1  0
 11 12  1  0
 13 12  1  0
 14 13  1  6
 14 15  1  0
 15  5  1  0
 16 14  1  0
 16 17  2  0
 19 21  1  0
 19 18  1  6
 20 19  1  0
 22 21  1  6
 22 23  1  0
 23 16  1  0
 24 22  1  0
 25 24  1  0
 26 24  2  0
M  END
$$$$
