CRL.pdb
     RDKit          3D

 26 25  0  0  1  0  0  0  0  0999 V2000
    7.8951  -14.8392   17.6989 N   0  0  0  0  0  0  0  0  0  0  0  0
    8.4055  -14.3835   18.9561 C   0  0  1  0  0  0  0  0  0  0  0  0
    8.1594  -12.8998   19.1200 C   0  0  0  0  0  0  0  0  0  0  0  0
    9.4091  -12.0326   18.1319 S   0  0  0  0  0  0  0  0  0  0  0  0
    7.7639  -15.1850   20.0327 C   0  0  0  0  0  0  0  0  0  0  0  0
    6.5052  -15.4048   20.0280 O   0  0  0  0  0  0  0  0  0  0  0  0
    7.8793  -19.9170   26.3164 N   0  0  0  0  0  0  0  0  0  0  0  0
    7.5204  -20.9446   25.3736 C   0  0  0  0  0  0  0  0  0  0  0  0
    6.7276  -21.8850   25.7037 N   0  0  0  0  0  0  0  0  0  0  0  0
    8.0685  -20.8873   24.0688 N   0  0  0  0  0  0  0  0  0  0  0  0
    8.9712  -19.8133   23.7113 C   0  0  0  0  0  0  0  0  0  0  0  0
    8.2303  -18.4576   23.7028 C   0  0  0  0  0  0  0  0  0  0  0  0
    8.5199  -17.7285   22.4446 C   0  0  0  0  0  0  0  0  0  0  0  0
    7.8229  -16.4025   22.2648 C   0  0  2  0  0  0  0  0  0  0  0  0
    8.4850  -15.7452   21.1094 N   0  0  0  0  0  0  0  0  0  0  0  0
    8.0386  -15.5596   23.4528 C   0  0  0  0  0  0  0  0  0  0  0  0
    9.2388  -15.1350   23.6270 O   0  0  0  0  0  0  0  0  0  0  0  0
    6.4275  -22.5800   25.0094 C   0  0  0  0  0  0  0  0  0  0  0  0
    8.3925  -11.7878   26.3905 C   0  0  1  0  0  0  0  0  0  0  0  0
    6.8818  -12.0304   26.4496 C   0  0  0  0  0  0  0  0  0  0  0  0
    6.4688  -12.3894   27.8630 C   0  0  0  0  0  0  0  0  0  0  0  0
    6.4693  -13.0616   25.4446 C   0  0  1  0  0  0  0  0  0  0  0  0
    7.4626  -14.2008   25.4290 N   0  0  0  0  0  0  0  0  0  0  0  0
    7.0743  -15.1725   24.4000 C   0  0  0  0  0  0  0  0  0  0  0  0
    7.5109  -14.9206   26.7083 O   0  0  0  0  0  0  0  0  0  0  0  0
    8.5873  -14.7193   27.5892 O   0  0  0  0  0  0  0  0  0  0  0  0
  2  3  1  0
  2  1  1  6
  3  4  1  0
  5  6  2  0
  5  2  1  0
  7  8  1  0
  8  9  2  0
 10  8  1  0
 10 11  1  0
 11 12  1  0
 13 12  1  0
 14 13  1  1
 14 15  1  0
 15  5  1  0
 16 14  1  0
 16 17  2  0
 19 21  1  0
 19 18  1  1
 20 19  1  0
 22 21  1  6
 22 23  1  0
 23 16  1  0
 24 22  1  0
 25 24  1  0
 26 24  2  0
M  END
$$$$
