CRL.pdb
     RDKit          3D

 26 25  0  0  1  0  0  0  0  0999 V2000
    7.8230  -21.0400   23.5596 N   0  0  0  0  0  0  0  0  0  0  0  0
    7.4181  -19.7410   24.0040 C   0  0  1  0  0  0  0  0  0  0  0  0
    7.2060  -19.7372   25.5020 C   0  0  0  0  0  0  0  0  0  0  0  0
    5.6599  -20.6271   25.8307 S   0  0  0  0  0  0  0  0  0  0  0  0
    8.4552  -18.7633   23.5778 C   0  0  0  0  0  0  0  0  0  0  0  0
    9.6655  -18.8740   23.9723 O   0  0  0  0  0  0  0  0  0  0  0  0
    8.6015  -14.1375   17.7553 N   0  0  0  0  0  0  0  0  0  0  0  0
    8.3029  -13.0716   18.6765 C   0  0  0  0  0  0  0  0  0  0  0  0
    8.7520  -11.8960   18.4818 N   0  0  0  0  0  0  0  0  0  0  0  0
    7.4975  -13.3588   19.8057 N   0  0  0  0  0  0  0  0  0  0  0  0
    6.9086  -14.6727   19.9573 C   0  0  0  0  0  0  0  0  0  0  0  0
    7.3043  -15.2949   21.3149 C   0  0  0  0  0  0  0  0  0  0  0  0
    8.6684  -15.8699   21.2318 C   0  0  0  0  0  0  0  0  0  0  0  0
    9.1655  -16.5922   22.4597 C   0  0  2  0  0  0  0  0  0  0  0  0
    8.1799  -17.6704   22.7276 N   0  0  0  0  0  0  0  0  0  0  0  0
    9.1631  -15.6767   23.6130 C   0  0  0  0  0  0  0  0  0  0  0  0
   10.0337  -14.7321   23.5791 O   0  0  0  0  0  0  0  0  0  0  0  0
    8.6002  -11.1588   19.1810 C   0  0  0  0  0  0  0  0  0  0  0  0
    5.9935  -12.1486   27.1531 C   0  0  1  0  0  0  0  0  0  0  0  0
    7.3403  -12.8405   26.9253 C   0  0  0  0  0  0  0  0  0  0  0  0
    8.4302  -11.8046   26.7349 C   0  0  0  0  0  0  0  0  0  0  0  0
    7.2544  -13.8090   25.7859 C   0  0  2  0  0  0  0  0  0  0  0  0
    8.4702  -14.7069   25.7724 N   0  0  0  0  0  0  0  0  0  0  0  0
    8.3109  -15.7278   24.7301 C   0  0  0  0  0  0  0  0  0  0  0  0
    8.6599  -15.4137   27.0456 O   0  0  0  0  0  0  0  0  0  0  0  0
    8.3264  -16.7748   27.1518 O   0  0  0  0  0  0  0  0  0  0  0  0
  2  3  1  0
  2  1  1  1
  3  4  1  0
  5  6  2  0
  5  2  1  0
  7  8  1  0
  8  9  2  0
 10  8  1  0
 10 11  1  0
 11 12  1  0
 13 12  1  0
 14 13  1  6
 14 15  1  0
 15  5  1  0
 16 14  1  0
 16 17  2  0
 19 21  1  0
 19 18  1  1
 20 19  1  0
 22 21  1  6
 22 23  1  0
 23 16  1  0
 24 22  1  0
 25 24  1  0
 26 24  2  0
M  END
$$$$
