CRL.pdb
     RDKit          3D

 26 25  0  0  1  0  0  0  0  0999 V2000
    8.2910  -15.7194   17.3706 N   0  0  0  0  0  0  0  0  0  0  0  0
    8.9706  -15.4400   18.5990 C   0  0  1  0  0  0  0  0  0  0  0  0
    9.3902  -13.9874   18.6524 C   0  0  0  0  0  0  0  0  0  0  0  0
    7.8779  -12.9866   18.6128 S   0  0  0  0  0  0  0  0  0  0  0  0
    8.0660  -15.8084   19.7211 C   0  0  0  0  0  0  0  0  0  0  0  0
    6.7964  -15.7773   19.5801 O   0  0  0  0  0  0  0  0  0  0  0  0
    8.8633  -19.5047   26.5805 N   0  0  0  0  0  0  0  0  0  0  0  0
    7.6402  -20.2585   26.4817 C   0  0  0  0  0  0  0  0  0  0  0  0
    7.1069  -20.7751   27.5163 N   0  0  0  0  0  0  0  0  0  0  0  0
    7.0418  -20.4134   25.2074 N   0  0  0  0  0  0  0  0  0  0  0  0
    7.7122  -19.9070   24.0283 C   0  0  0  0  0  0  0  0  0  0  0  0
    7.3774  -18.4149   23.8085 C   0  0  0  0  0  0  0  0  0  0  0  0
    7.9633  -17.9459   22.5298 C   0  0  0  0  0  0  0  0  0  0  0  0
    7.6286  -16.5332   22.1193 C   0  0  2  0  0  0  0  0  0  0  0  0
    8.5372  -16.2085   20.9903 N   0  0  0  0  0  0  0  0  0  0  0  0
    7.9278  -15.6076   23.2249 C   0  0  0  0  0  0  0  0  0  0  0  0
    9.1742  -15.4070   23.4647 O   0  0  0  0  0  0  0  0  0  0  0  0
    6.2326  -21.3089   27.4392 C   0  0  0  0  0  0  0  0  0  0  0  0
    5.6944  -11.7289   27.5131 C   0  0  2  0  0  0  0  0  0  0  0  0
    6.8757  -12.3763   26.7850 C   0  0  0  0  0  0  0  0  0  0  0  0
    7.8931  -11.3193   26.4045 C   0  0  0  0  0  0  0  0  0  0  0  0
    6.4024  -13.1761   25.6104 C   0  0  2  0  0  0  0  0  0  0  0  0
    7.5095  -14.0773   25.1134 N   0  0  0  0  0  0  0  0  0  0  0  0
    6.9988  -14.9251   24.0298 C   0  0  0  0  0  0  0  0  0  0  0  0
    8.0171  -14.9724   26.1612 O   0  0  0  0  0  0  0  0  0  0  0  0
    9.2004  -14.6519   26.8486 O   0  0  0  0  0  0  0  0  0  0  0  0
  2  3  1  0
  2  1  1  6
  3  4  1  0
  5  6  2  0
  5  2  1  0
  7  8  1  0
  8  9  2  0
 10  8  1  0
 10 11  1  0
 11 12  1  0
 13 12  1  0
 14 13  1  1
 14 15  1  0
 15  5  1  0
 16 14  1  0
 16 17  2  0
 19 21  1  0
 19 18  1  1
 20 19  1  0
 22 21  1  6
 22 23  1  0
 23 16  1  0
 24 22  1  0
 25 24  1  0
 26 24  2  0
M  END
$$$$
