CRL.pdb
     RDKit          3D

 26 25  0  0  1  0  0  0  0  0999 V2000
    7.7381  -16.1963   18.3982 N   0  0  0  0  0  0  0  0  0  0  0  0
    8.3503  -15.3854   19.4064 C   0  0  1  0  0  0  0  0  0  0  0  0
    8.4097  -13.9413   18.9592 C   0  0  0  0  0  0  0  0  0  0  0  0
    9.1566  -12.9881   20.3096 S   0  0  0  0  0  0  0  0  0  0  0  0
    7.5786  -15.5552   20.6669 C   0  0  0  0  0  0  0  0  0  0  0  0
    6.3160  -15.3613   20.6966 O   0  0  0  0  0  0  0  0  0  0  0  0
    9.2771  -19.8471   26.1095 N   0  0  0  0  0  0  0  0  0  0  0  0
    8.0562  -19.9624   26.8644 C   0  0  0  0  0  0  0  0  0  0  0  0
    8.0809  -20.0617   28.1337 N   0  0  0  0  0  0  0  0  0  0  0  0
    6.8251  -19.9629   26.1641 N   0  0  0  0  0  0  0  0  0  0  0  0
    6.7906  -19.5965   24.7638 C   0  0  0  0  0  0  0  0  0  0  0  0
    6.6532  -18.0661   24.6033 C   0  0  0  0  0  0  0  0  0  0  0  0
    7.4252  -17.6079   23.4232 C   0  0  0  0  0  0  0  0  0  0  0  0
    7.3945  -16.1266   23.1383 C   0  0  2  0  0  0  0  0  0  0  0  0
    8.1747  -15.9335   21.8895 N   0  0  0  0  0  0  0  0  0  0  0  0
    8.0773  -15.3958   24.2190 C   0  0  0  0  0  0  0  0  0  0  0  0
    9.3616  -15.4159   24.1834 O   0  0  0  0  0  0  0  0  0  0  0  0
    7.2238  -20.2835   28.6548 C   0  0  0  0  0  0  0  0  0  0  0  0
    7.0449  -11.4124   25.3887 C   0  0  1  0  0  0  0  0  0  0  0  0
    6.4278  -12.4237   26.3588 C   0  0  0  0  0  0  0  0  0  0  0  0
    5.4072  -11.7371   27.2443 C   0  0  0  0  0  0  0  0  0  0  0  0
    7.4932  -13.1293   27.1401 C   0  0  2  0  0  0  0  0  0  0  0  0
    8.3410  -13.9759   26.2185 N   0  0  0  0  0  0  0  0  0  0  0  0
    7.4730  -14.6820   25.2688 C   0  0  0  0  0  0  0  0  0  0  0  0
    9.1103  -14.9957   26.9430 O   0  0  0  0  0  0  0  0  0  0  0  0
   10.1612  -14.6124   27.7938 O   0  0  0  0  0  0  0  0  0  0  0  0
  2  3  1  0
  2  1  1  6
  3  4  1  0
  5  6  2  0
  5  2  1  0
  7  8  1  0
  8  9  2  0
 10  8  1  0
 10 11  1  0
 11 12  1  0
 13 12  1  0
 14 13  1  1
 14 15  1  0
 15  5  1  0
 16 14  1  0
 16 17  2  0
 19 21  1  0
 19 18  1  6
 20 19  1  0
 22 21  1  6
 22 23  1  0
 23 16  1  0
 24 22  1  0
 25 24  1  0
 26 24  2  0
M  END
$$$$
