CRL.pdb
     RDKit          3D

 26 25  0  0  1  0  0  0  0  0999 V2000
    7.2566  -14.0227   18.7315 N   0  0  0  0  0  0  0  0  0  0  0  0
    8.4491  -14.1254   19.5165 C   0  0  1  0  0  0  0  0  0  0  0  0
    9.0264  -12.7525   19.7828 C   0  0  0  0  0  0  0  0  0  0  0  0
    7.8300  -11.8530   20.8072 S   0  0  0  0  0  0  0  0  0  0  0  0
    8.1146  -14.8508   20.7715 C   0  0  0  0  0  0  0  0  0  0  0  0
    6.9025  -14.9763   21.1559 O   0  0  0  0  0  0  0  0  0  0  0  0
   11.2442  -19.2728   19.6849 N   0  0  0  0  0  0  0  0  0  0  0  0
   10.3715  -20.4049   19.8598 C   0  0  0  0  0  0  0  0  0  0  0  0
    9.9936  -21.0979   18.8605 N   0  0  0  0  0  0  0  0  0  0  0  0
    9.9417  -20.7321   21.1691 N   0  0  0  0  0  0  0  0  0  0  0  0
   10.2098  -19.8249   22.2651 C   0  0  0  0  0  0  0  0  0  0  0  0
    9.1008  -18.7546   22.3714 C   0  0  0  0  0  0  0  0  0  0  0  0
    9.6903  -17.4483   22.7518 C   0  0  0  0  0  0  0  0  0  0  0  0
    8.7455  -16.2724   22.7838 C   0  0  2  0  0  0  0  0  0  0  0  0
    9.0913  -15.4371   21.6055 N   0  0  0  0  0  0  0  0  0  0  0  0
    8.9858  -15.4713   23.9958 C   0  0  0  0  0  0  0  0  0  0  0  0
   10.1461  -14.9263   24.0851 O   0  0  0  0  0  0  0  0  0  0  0  0
    9.4793  -21.9760   19.0012 C   0  0  0  0  0  0  0  0  0  0  0  0
    7.6111  -11.7079   25.3869 C   0  0  2  0  0  0  0  0  0  0  0  0
    6.6544  -12.8216   25.8215 C   0  0  0  0  0  0  0  0  0  0  0  0
    5.3685  -12.2223   26.3549 C   0  0  0  0  0  0  0  0  0  0  0  0
    7.3175  -13.7396   26.8018 C   0  0  2  0  0  0  0  0  0  0  0  0
    8.5211  -14.3981   26.1673 N   0  0  0  0  0  0  0  0  0  0  0  0
    8.0828  -15.2406   25.0484 C   0  0  0  0  0  0  0  0  0  0  0  0
    9.2454  -15.2656   27.1051 O   0  0  0  0  0  0  0  0  0  0  0  0
    9.1915  -16.6622   26.9573 O   0  0  0  0  0  0  0  0  0  0  0  0
  2  3  1  0
  2  1  1  6
  3  4  1  0
  5  6  2  0
  5  2  1  0
  7  8  1  0
  8  9  2  0
 10  8  1  0
 10 11  1  0
 11 12  1  0
 13 12  1  0
 14 13  1  1
 14 15  1  0
 15  5  1  0
 16 14  1  0
 16 17  2  0
 19 21  1  0
 19 18  1  6
 20 19  1  0
 22 21  1  6
 22 23  1  0
 23 16  1  0
 24 22  1  0
 25 24  1  0
 26 24  2  0
M  END
$$$$
