CRL.pdb
     RDKit          3D

 26 25  0  0  1  0  0  0  0  0999 V2000
    7.3737  -14.4950   17.6311 N   0  0  0  0  0  0  0  0  0  0  0  0
    8.2450  -14.1424   18.7106 C   0  0  1  0  0  0  0  0  0  0  0  0
    8.2409  -12.6448   18.9256 C   0  0  0  0  0  0  0  0  0  0  0  0
    9.3745  -12.2931   20.2973 S   0  0  0  0  0  0  0  0  0  0  0  0
    7.8060  -14.8882   19.9206 C   0  0  0  0  0  0  0  0  0  0  0  0
    6.5783  -14.9035   20.2747 O   0  0  0  0  0  0  0  0  0  0  0  0
    5.9806  -19.5063   24.2593 N   0  0  0  0  0  0  0  0  0  0  0  0
    6.6087  -20.7929   24.1050 C   0  0  0  0  0  0  0  0  0  0  0  0
    5.9869  -21.8628   24.4057 N   0  0  0  0  0  0  0  0  0  0  0  0
    7.9350  -20.8436   23.6105 N   0  0  0  0  0  0  0  0  0  0  0  0
    8.3301  -19.9849   22.5138 C   0  0  0  0  0  0  0  0  0  0  0  0
    8.7870  -18.6053   23.0381 C   0  0  0  0  0  0  0  0  0  0  0  0
    9.0155  -17.6805   21.9019 C   0  0  0  0  0  0  0  0  0  0  0  0
    8.2455  -16.3833   21.9305 C   0  0  2  0  0  0  0  0  0  0  0  0
    8.6953  -15.6138   20.7426 N   0  0  0  0  0  0  0  0  0  0  0  0
    8.6059  -15.6148   23.1338 C   0  0  0  0  0  0  0  0  0  0  0  0
    9.0177  -14.4150   22.9287 O   0  0  0  0  0  0  0  0  0  0  0  0
    6.4240  -22.7795   24.2508 C   0  0  0  0  0  0  0  0  0  0  0  0
    5.7579  -12.5062   26.4177 C   0  0  1  0  0  0  0  0  0  0  0  0
    7.1394  -13.1666   26.4208 C   0  0  0  0  0  0  0  0  0  0  0  0
    8.2210  -12.1075   26.3468 C   0  0  0  0  0  0  0  0  0  0  0  0
    7.2455  -14.1824   25.3252 C   0  0  2  0  0  0  0  0  0  0  0  0
    8.4712  -15.0430   25.5293 N   0  0  0  0  0  0  0  0  0  0  0  0
    8.5394  -16.0541   24.4677 C   0  0  0  0  0  0  0  0  0  0  0  0
    8.4458  -15.7607   26.8102 O   0  0  0  0  0  0  0  0  0  0  0  0
    7.5879  -16.8604   26.9842 O   0  0  0  0  0  0  0  0  0  0  0  0
  2  3  1  0
  2  1  1  6
  3  4  1  0
  5  6  2  0
  5  2  1  0
  7  8  1  0
  8  9  2  0
 10  8  1  0
 10 11  1  0
 11 12  1  0
 13 12  1  0
 14 13  1  1
 14 15  1  0
 15  5  1  0
 16 14  1  0
 16 17  2  0
 19 21  1  0
 19 18  1  1
 20 19  1  0
 22 21  1  6
 22 23  1  0
 23 16  1  0
 24 22  1  0
 25 24  1  0
 26 24  2  0
M  END
$$$$
