WLA.pdb
     RDKit          3D

 28 29  0  0  1  0  0  0  0  0999 V2000
    5.9522  -18.2479   23.8962 N   0  0  0  0  0  0  0  0  0  0  0  0
    6.6475  -16.9637   24.0150 C   0  0  1  0  0  0  0  0  0  0  0  0
    7.1451  -16.7623   25.4046 C   0  0  0  0  0  0  0  0  0  0  0  0
    6.7113  -15.4876   26.0073 C   0  0  0  0  0  0  0  0  0  0  0  0
    5.4065  -15.2322   26.4471 C   0  0  0  0  0  0  0  0  0  0  0  0
    5.3501  -13.9985   26.9672 N   0  0  0  0  0  0  0  0  0  0  0  0
    6.5760  -13.4027   26.8959 C   0  0  0  0  0  0  0  0  0  0  0  0
    7.0208  -12.1541   27.2881 C   0  0  0  0  0  0  0  0  0  0  0  0
    8.3289  -11.8058   27.0873 C   0  0  0  0  0  0  0  0  0  0  0  0
    9.1755  -12.7156   26.4951 C   0  0  0  0  0  0  0  0  0  0  0  0
    8.7177  -13.9578   26.1093 C   0  0  0  0  0  0  0  0  0  0  0  0
    7.3969  -14.3405   26.3001 C   0  0  0  0  0  0  0  0  0  0  0  0
    7.6206  -16.8505   22.9301 C   0  0  0  0  0  0  0  0  0  0  0  0
    8.1298  -17.9145   22.4356 O   0  0  0  0  0  0  0  0  0  0  0  0
    7.0392  -14.2718   19.3140 C   0  0  0  0  0  0  0  0  0  0  0  0
    7.6126  -13.6889   20.5968 C   0  0  2  0  0  0  0  0  0  0  0  0
    7.5709  -12.1797   20.4357 C   0  0  0  0  0  0  0  0  0  0  0  0
    9.0025  -14.2031   20.7217 C   0  0  0  0  0  0  0  0  0  0  0  0
    9.0866  -15.6077   21.3004 C   0  0  2  0  0  0  0  0  0  0  0  0
    8.0806  -15.6394   22.3342 N   0  0  0  0  0  0  0  0  0  0  0  0
   10.4038  -15.8940   21.8685 C   0  0  0  0  0  0  0  0  0  0  0  0
   11.4650  -15.9117   21.1484 O   0  0  0  0  0  0  0  0  0  0  0  0
   12.0406  -15.6405   25.0532 C   0  0  0  0  0  0  0  0  0  0  0  0
   11.9602  -16.4237   23.7347 C   0  0  2  0  0  0  0  0  0  0  0  0
   10.6011  -16.1679   23.2456 N   0  0  0  0  0  0  0  0  0  0  0  0
   12.2076  -17.8445   23.9908 C   0  0  0  0  0  0  0  0  0  0  0  0
   11.3815  -18.7703   23.8407 O   0  0  0  0  0  0  0  0  0  0  0  0
   13.4707  -18.2285   24.4439 O   0  0  0  0  0  0  0  0  0  0  0  0
  2  1  1  1
  2 13  1  0
  3  2  1  0
  4  3  1  0
  5  4  2  0
  6  7  1  0
  6  5  1  0
  7 12  2  0
  8  9  2  0
  8  7  1  0
  9 10  1  0
 10 11  2  0
 12 11  1  0
 12  4  1  0
 13 14  2  0
 16 18  1  0
 16 15  1  6
 17 16  1  0
 19 18  1  1
 20 13  1  0
 20 19  1  0
 21 25  1  0
 21 19  1  0
 22 21  2  0
 24 23  1  1
 24 26  1  0
 24 25  1  0
 26 28  1  0
 27 26  2  0
M  END
$$$$
