WLA.pdb
     RDKit          3D

 28 29  0  0  1  0  0  0  0  0999 V2000
    6.6797  -18.8664   26.3120 N   0  0  0  0  0  0  0  0  0  0  0  0
    7.5217  -17.6700   26.3930 C   0  0  1  0  0  0  0  0  0  0  0  0
    8.9484  -18.0449   26.6015 C   0  0  0  0  0  0  0  0  0  0  0  0
    9.5301  -17.4867   27.8369 C   0  0  0  0  0  0  0  0  0  0  0  0
    9.9151  -18.2581   28.9405 C   0  0  0  0  0  0  0  0  0  0  0  0
   10.4301  -17.4552   29.8816 N   0  0  0  0  0  0  0  0  0  0  0  0
   10.4085  -16.1587   29.4555 C   0  0  0  0  0  0  0  0  0  0  0  0
   10.8164  -14.9820   30.0552 C   0  0  0  0  0  0  0  0  0  0  0  0
   10.6693  -13.7951   29.3902 C   0  0  0  0  0  0  0  0  0  0  0  0
   10.1144  -13.8034   28.1304 C   0  0  0  0  0  0  0  0  0  0  0  0
    9.7123  -14.9851   27.5446 C   0  0  0  0  0  0  0  0  0  0  0  0
    9.8490  -16.2049   28.1933 C   0  0  0  0  0  0  0  0  0  0  0  0
    7.2149  -16.7981   25.2606 C   0  0  0  0  0  0  0  0  0  0  0  0
    6.7308  -17.3096   24.1929 O   0  0  0  0  0  0  0  0  0  0  0  0
    5.5623  -13.1120   25.9944 C   0  0  0  0  0  0  0  0  0  0  0  0
    7.0652  -12.9157   25.8651 C   0  0  2  0  0  0  0  0  0  0  0  0
    7.3457  -11.4824   26.2804 C   0  0  0  0  0  0  0  0  0  0  0  0
    7.4128  -13.1670   24.4410 C   0  0  0  0  0  0  0  0  0  0  0  0
    7.2145  -14.6118   24.0076 C   0  0  2  0  0  0  0  0  0  0  0  0
    7.3974  -15.3846   25.2122 N   0  0  0  0  0  0  0  0  0  0  0  0
    8.1837  -15.0227   22.9920 C   0  0  0  0  0  0  0  0  0  0  0  0
    7.9470  -14.8987   21.7375 O   0  0  0  0  0  0  0  0  0  0  0  0
   11.1546  -14.7635   21.8941 C   0  0  0  0  0  0  0  0  0  0  0  0
   10.3349  -16.0162   22.2361 C   0  0  2  0  0  0  0  0  0  0  0  0
    9.4455  -15.5809   23.3184 N   0  0  0  0  0  0  0  0  0  0  0  0
   11.2351  -17.0958   22.6479 C   0  0  0  0  0  0  0  0  0  0  0  0
   11.2903  -17.6092   23.7860 O   0  0  0  0  0  0  0  0  0  0  0  0
   12.1222  -17.6179   21.7051 O   0  0  0  0  0  0  0  0  0  0  0  0
  2  1  1  6
  2 13  1  0
  3  2  1  0
  4  3  1  0
  5  4  2  0
  6  7  1  0
  6  5  1  0
  7 12  2  0
  8  9  2  0
  8  7  1  0
  9 10  1  0
 10 11  2  0
 12 11  1  0
 12  4  1  0
 13 14  2  0
 16 18  1  0
 16 15  1  6
 17 16  1  0
 19 18  1  1
 20 13  1  0
 20 19  1  0
 21 25  1  0
 21 19  1  0
 22 21  2  0
 24 23  1  1
 24 26  1  0
 24 25  1  0
 26 28  1  0
 27 26  2  0
M  END
$$$$
