WLA.pdb
     RDKit          3D

 28 29  0  0  1  0  0  0  0  0999 V2000
    6.1294  -17.2985   24.6482 N   0  0  0  0  0  0  0  0  0  0  0  0
    7.0897  -16.2312   24.3557 C   0  0  1  0  0  0  0  0  0  0  0  0
    8.0972  -16.1175   25.4472 C   0  0  0  0  0  0  0  0  0  0  0  0
    7.7178  -15.1586   26.5022 C   0  0  0  0  0  0  0  0  0  0  0  0
    7.5230  -15.5064   27.8446 C   0  0  0  0  0  0  0  0  0  0  0  0
    7.2161  -14.4060   28.5452 N   0  0  0  0  0  0  0  0  0  0  0  0
    7.1945  -13.3171   27.7226 C   0  0  0  0  0  0  0  0  0  0  0  0
    6.9305  -11.9818   27.9640 C   0  0  0  0  0  0  0  0  0  0  0  0
    6.9724  -11.0845   26.9317 C   0  0  0  0  0  0  0  0  0  0  0  0
    7.2790  -11.5383   25.6686 C   0  0  0  0  0  0  0  0  0  0  0  0
    7.5403  -12.8732   25.4429 C   0  0  0  0  0  0  0  0  0  0  0  0
    7.5063  -13.8074   26.4694 C   0  0  0  0  0  0  0  0  0  0  0  0
    7.5916  -16.4066   22.9940 C   0  0  0  0  0  0  0  0  0  0  0  0
    7.5256  -17.5618   22.4490 O   0  0  0  0  0  0  0  0  0  0  0  0
    7.7014  -12.4378   19.2313 C   0  0  0  0  0  0  0  0  0  0  0  0
    7.6480  -13.9438   19.4392 C   0  0  2  0  0  0  0  0  0  0  0  0
    6.3737  -14.2224   20.2162 C   0  0  0  0  0  0  0  0  0  0  0  0
    8.8669  -14.3177   20.2051 C   0  0  0  0  0  0  0  0  0  0  0  0
    8.7685  -15.6725   20.8903 C   0  0  2  0  0  0  0  0  0  0  0  0
    8.1648  -15.3932   22.1706 N   0  0  0  0  0  0  0  0  0  0  0  0
   10.0790  -16.2955   21.0750 C   0  0  0  0  0  0  0  0  0  0  0  0
   10.6969  -16.8760   20.1126 O   0  0  0  0  0  0  0  0  0  0  0  0
   12.9762  -15.8689   23.0303 C   0  0  0  0  0  0  0  0  0  0  0  0
   12.0700  -16.9460   22.4160 C   0  0  2  0  0  0  0  0  0  0  0  0
   10.7563  -16.3004   22.3206 N   0  0  0  0  0  0  0  0  0  0  0  0
   12.0544  -18.1276   23.2814 C   0  0  0  0  0  0  0  0  0  0  0  0
   11.0511  -18.6000   23.8577 O   0  0  0  0  0  0  0  0  0  0  0  0
   13.2536  -18.8076   23.5001 O   0  0  0  0  0  0  0  0  0  0  0  0
  2  1  1  1
  2 13  1  0
  3  2  1  0
  4  3  1  0
  5  4  2  0
  6  7  1  0
  6  5  1  0
  7 12  2  0
  8  9  2  0
  8  7  1  0
  9 10  1  0
 10 11  2  0
 12 11  1  0
 12  4  1  0
 13 14  2  0
 16 18  1  0
 16 15  1  1
 17 16  1  0
 19 18  1  1
 20 13  1  0
 20 19  1  0
 21 25  1  0
 21 19  1  0
 22 21  2  0
 24 23  1  1
 24 26  1  0
 24 25  1  0
 26 28  1  0
 27 26  2  0
M  END
$$$$
