WLA.pdb
     RDKit          3D

 28 29  0  0  1  0  0  0  0  0999 V2000
    6.2323  -17.9980   23.8065 N   0  0  0  0  0  0  0  0  0  0  0  0
    6.9142  -16.7015   23.8369 C   0  0  1  0  0  0  0  0  0  0  0  0
    7.4974  -16.4461   25.1838 C   0  0  0  0  0  0  0  0  0  0  0  0
    6.8714  -15.3137   25.8922 C   0  0  0  0  0  0  0  0  0  0  0  0
    5.5734  -15.3384   26.4173 C   0  0  0  0  0  0  0  0  0  0  0  0
    5.3195  -14.1690   27.0206 N   0  0  0  0  0  0  0  0  0  0  0  0
    6.4038  -13.3458   26.9234 C   0  0  0  0  0  0  0  0  0  0  0  0
    6.6299  -12.0584   27.3733 C   0  0  0  0  0  0  0  0  0  0  0  0
    7.8329  -11.4548   27.1262 C   0  0  0  0  0  0  0  0  0  0  0  0
    8.7953  -12.1510   26.4303 C   0  0  0  0  0  0  0  0  0  0  0  0
    8.5557  -13.4348   25.9879 C   0  0  0  0  0  0  0  0  0  0  0  0
    7.3460  -14.0740   26.2234 C   0  0  0  0  0  0  0  0  0  0  0  0
    7.8134  -16.6129   22.6879 C   0  0  0  0  0  0  0  0  0  0  0  0
    8.2336  -17.6898   22.1403 O   0  0  0  0  0  0  0  0  0  0  0  0
    7.2420  -14.2781   18.9920 C   0  0  0  0  0  0  0  0  0  0  0  0
    7.7808  -13.5018   20.1841 C   0  0  2  0  0  0  0  0  0  0  0  0
    7.7528  -12.0366   19.7871 C   0  0  0  0  0  0  0  0  0  0  0  0
    9.1634  -13.9918   20.4297 C   0  0  0  0  0  0  0  0  0  0  0  0
    9.2225  -15.4086   20.9809 C   0  0  2  0  0  0  0  0  0  0  0  0
    8.2900  -15.4133   22.0818 N   0  0  0  0  0  0  0  0  0  0  0  0
   10.5612  -15.7638   21.4514 C   0  0  0  0  0  0  0  0  0  0  0  0
   11.5575  -15.8676   20.6504 O   0  0  0  0  0  0  0  0  0  0  0  0
   12.3243  -15.8064   24.6622 C   0  0  0  0  0  0  0  0  0  0  0  0
   12.2361  -16.2992   23.2103 C   0  0  2  0  0  0  0  0  0  0  0  0
   10.8522  -16.0142   22.8163 N   0  0  0  0  0  0  0  0  0  0  0  0
   12.5535  -17.7281   23.1558 C   0  0  0  0  0  0  0  0  0  0  0  0
   11.7642  -18.6417   22.8329 O   0  0  0  0  0  0  0  0  0  0  0  0
   13.8463  -18.1353   23.4892 O   0  0  0  0  0  0  0  0  0  0  0  0
  2  1  1  1
  2 13  1  0
  3  2  1  0
  4  3  1  0
  5  4  2  0
  6  7  1  0
  6  5  1  0
  7 12  2  0
  8  9  2  0
  8  7  1  0
  9 10  1  0
 10 11  2  0
 12 11  1  0
 12  4  1  0
 13 14  2  0
 16 18  1  0
 16 15  1  6
 17 16  1  0
 19 18  1  1
 20 13  1  0
 20 19  1  0
 21 25  1  0
 21 19  1  0
 22 21  2  0
 24 23  1  1
 24 26  1  0
 24 25  1  0
 26 28  1  0
 27 26  2  0
M  END
$$$$
