WLA.pdb
     RDKit          3D

 28 29  0  0  1  0  0  0  0  0999 V2000
    6.0123  -18.0162   23.9290 N   0  0  0  0  0  0  0  0  0  0  0  0
    6.8243  -16.8207   23.6879 C   0  0  1  0  0  0  0  0  0  0  0  0
    7.6098  -16.4653   24.9028 C   0  0  0  0  0  0  0  0  0  0  0  0
    6.9838  -15.4101   25.7218 C   0  0  0  0  0  0  0  0  0  0  0  0
    5.9102  -15.6280   26.5943 C   0  0  0  0  0  0  0  0  0  0  0  0
    5.5983  -14.4771   27.2057 N   0  0  0  0  0  0  0  0  0  0  0  0
    6.4253  -13.4792   26.7775 C   0  0  0  0  0  0  0  0  0  0  0  0
    6.4993  -12.1375   27.1018 C   0  0  0  0  0  0  0  0  0  0  0  0
    7.4417  -11.3459   26.5036 C   0  0  0  0  0  0  0  0  0  0  0  0
    8.2992  -11.9108   25.5867 C   0  0  0  0  0  0  0  0  0  0  0  0
    8.2137  -13.2508   25.2733 C   0  0  0  0  0  0  0  0  0  0  0  0
    7.2692  -14.0796   25.8634 C   0  0  0  0  0  0  0  0  0  0  0  0
    7.5622  -16.9943   22.4380 C   0  0  0  0  0  0  0  0  0  0  0  0
    7.9048  -18.1717   22.0744 O   0  0  0  0  0  0  0  0  0  0  0  0
    7.3837  -13.6903   21.1673 C   0  0  0  0  0  0  0  0  0  0  0  0
    8.5072  -13.7035   20.1417 C   0  0  2  0  0  0  0  0  0  0  0  0
    8.2410  -12.5410   19.2021 C   0  0  0  0  0  0  0  0  0  0  0  0
    8.4411  -15.0161   19.4454 C   0  0  0  0  0  0  0  0  0  0  0  0
    8.7309  -16.2047   20.3498 C   0  0  2  0  0  0  0  0  0  0  0  0
    7.9544  -15.9578   21.5405 N   0  0  0  0  0  0  0  0  0  0  0  0
   10.1506  -16.3111   20.6857 C   0  0  0  0  0  0  0  0  0  0  0  0
   11.0490  -16.4940   19.7888 O   0  0  0  0  0  0  0  0  0  0  0  0
   12.4117  -15.4056   23.3542 C   0  0  0  0  0  0  0  0  0  0  0  0
   12.0587  -16.4404   22.2757 C   0  0  2  0  0  0  0  0  0  0  0  0
   10.6322  -16.2180   22.0160 N   0  0  0  0  0  0  0  0  0  0  0  0
   12.3355  -17.7881   22.7779 C   0  0  0  0  0  0  0  0  0  0  0  0
   13.4659  -18.2581   23.0292 O   0  0  0  0  0  0  0  0  0  0  0  0
   11.2591  -18.6470   23.0057 O   0  0  0  0  0  0  0  0  0  0  0  0
  2  1  1  1
  2 13  1  0
  3  2  1  0
  4  3  1  0
  5  4  2  0
  6  7  1  0
  6  5  1  0
  7 12  2  0
  8  9  2  0
  8  7  1  0
  9 10  1  0
 10 11  2  0
 12 11  1  0
 12  4  1  0
 13 14  2  0
 16 18  1  0
 16 15  1  1
 17 16  1  0
 19 18  1  6
 20 13  1  0
 20 19  1  0
 21 25  1  0
 21 19  1  0
 22 21  2  0
 24 23  1  1
 24 26  1  0
 24 25  1  0
 26 28  1  0
 27 26  2  0
M  END
$$$$
