WLA.pdb
     RDKit          3D

 28 29  0  0  1  0  0  0  0  0999 V2000
    6.7075  -18.6261   23.6170 N   0  0  0  0  0  0  0  0  0  0  0  0
    6.4315  -17.4139   22.8417 C   0  0  1  0  0  0  0  0  0  0  0  0
    4.9819  -17.0746   22.8954 C   0  0  0  0  0  0  0  0  0  0  0  0
    4.0979  -18.2138   22.5841 C   0  0  0  0  0  0  0  0  0  0  0  0
    3.9006  -19.3085   23.4350 C   0  0  0  0  0  0  0  0  0  0  0  0
    3.0216  -20.1502   22.8740 N   0  0  0  0  0  0  0  0  0  0  0  0
    2.6126  -19.6647   21.6657 C   0  0  0  0  0  0  0  0  0  0  0  0
    1.7339  -20.1598   20.7204 C   0  0  0  0  0  0  0  0  0  0  0  0
    1.5083  -19.4555   19.5690 C   0  0  0  0  0  0  0  0  0  0  0  0
    2.1677  -18.2619   19.3800 C   0  0  0  0  0  0  0  0  0  0  0  0
    3.0414  -17.7804   20.3320 C   0  0  0  0  0  0  0  0  0  0  0  0
    3.2905  -18.4712   21.5101 C   0  0  0  0  0  0  0  0  0  0  0  0
    7.3798  -16.3738   23.2365 C   0  0  0  0  0  0  0  0  0  0  0  0
    7.5308  -15.3497   22.4852 O   0  0  0  0  0  0  0  0  0  0  0  0
    5.8846  -12.9839   26.7862 C   0  0  0  0  0  0  0  0  0  0  0  0
    7.2959  -13.3216   26.3298 C   0  0  2  0  0  0  0  0  0  0  0  0
    7.8145  -12.0939   25.6025 C   0  0  0  0  0  0  0  0  0  0  0  0
    7.1889  -14.5033   25.4331 C   0  0  0  0  0  0  0  0  0  0  0  0
    8.5253  -15.1625   25.1260 C   0  0  2  0  0  0  0  0  0  0  0  0
    8.1838  -16.3701   24.4142 N   0  0  0  0  0  0  0  0  0  0  0  0
    9.2743  -15.4864   26.3400 C   0  0  0  0  0  0  0  0  0  0  0  0
    9.9699  -14.6077   26.9638 O   0  0  0  0  0  0  0  0  0  0  0  0
   10.0474  -18.4802   28.3799 C   0  0  0  0  0  0  0  0  0  0  0  0
   10.5101  -17.2750   27.5482 C   0  0  2  0  0  0  0  0  0  0  0  0
    9.2832  -16.7839   26.9115 N   0  0  0  0  0  0  0  0  0  0  0  0
   11.5153  -17.7064   26.5741 C   0  0  0  0  0  0  0  0  0  0  0  0
   11.3996  -17.6549   25.3308 O   0  0  0  0  0  0  0  0  0  0  0  0
   12.7209  -18.2259   27.0485 O   0  0  0  0  0  0  0  0  0  0  0  0
  2  1  1  1
  2 13  1  0
  3  2  1  0
  4  3  1  0
  5  4  2  0
  6  7  1  0
  6  5  1  0
  7 12  2  0
  8  9  2  0
  8  7  1  0
  9 10  1  0
 10 11  2  0
 12 11  1  0
 12  4  1  0
 13 14  2  0
 16 18  1  0
 16 15  1  6
 17 16  1  0
 19 18  1  1
 20 13  1  0
 20 19  1  0
 21 25  1  0
 21 19  1  0
 22 21  2  0
 24 23  1  1
 24 26  1  0
 24 25  1  0
 26 28  1  0
 27 26  2  0
M  END
$$$$
