WLA.pdb
     RDKit          3D

 28 29  0  0  1  0  0  0  0  0999 V2000
    6.5461  -17.1591   24.9715 N   0  0  0  0  0  0  0  0  0  0  0  0
    7.4737  -16.1415   24.4707 C   0  0  1  0  0  0  0  0  0  0  0  0
    8.5605  -15.8899   25.4580 C   0  0  0  0  0  0  0  0  0  0  0  0
    8.1950  -14.9125   26.5008 C   0  0  0  0  0  0  0  0  0  0  0  0
    8.2781  -15.1650   27.8758 C   0  0  0  0  0  0  0  0  0  0  0  0
    7.9026  -14.0687   28.5488 N   0  0  0  0  0  0  0  0  0  0  0  0
    7.5650  -13.0750   27.6761 C   0  0  0  0  0  0  0  0  0  0  0  0
    7.1185  -11.7822   27.8758 C   0  0  0  0  0  0  0  0  0  0  0  0
    6.8421  -10.9857   26.7979 C   0  0  0  0  0  0  0  0  0  0  0  0
    7.0175  -11.4967   25.5316 C   0  0  0  0  0  0  0  0  0  0  0  0
    7.4639  -12.7883   25.3478 C   0  0  0  0  0  0  0  0  0  0  0  0
    7.7532  -13.6202   26.4209 C   0  0  0  0  0  0  0  0  0  0  0  0
    7.8717  -16.4935   23.1089 C   0  0  0  0  0  0  0  0  0  0  0  0
    8.4848  -17.5971   22.9039 O   0  0  0  0  0  0  0  0  0  0  0  0
    6.3161  -14.1053   19.5726 C   0  0  0  0  0  0  0  0  0  0  0  0
    7.5140  -13.5904   20.3561 C   0  0  2  0  0  0  0  0  0  0  0  0
    7.8363  -12.2187   19.7905 C   0  0  0  0  0  0  0  0  0  0  0  0
    8.6201  -14.5613   20.1420 C   0  0  0  0  0  0  0  0  0  0  0  0
    8.3311  -15.9503   20.6915 C   0  0  2  0  0  0  0  0  0  0  0  0
    7.6398  -15.7161   21.9361 N   0  0  0  0  0  0  0  0  0  0  0  0
    9.5542  -16.7165   20.9296 C   0  0  0  0  0  0  0  0  0  0  0  0
    9.8260  -17.7839   20.2725 O   0  0  0  0  0  0  0  0  0  0  0  0
   12.8479  -15.9697   21.6325 C   0  0  0  0  0  0  0  0  0  0  0  0
   11.8014  -17.0503   21.9419 C   0  0  2  0  0  0  0  0  0  0  0  0
   10.5210  -16.3361   21.8945 N   0  0  0  0  0  0  0  0  0  0  0  0
   12.0714  -17.6341   23.2578 C   0  0  0  0  0  0  0  0  0  0  0  0
   11.3436  -17.5300   24.2684 O   0  0  0  0  0  0  0  0  0  0  0  0
   13.2395  -18.3790   23.4277 O   0  0  0  0  0  0  0  0  0  0  0  0
  2  1  1  1
  2 13  1  0
  3  2  1  0
  4  3  1  0
  5  4  2  0
  6  7  1  0
  6  5  1  0
  7 12  2  0
  8  9  2  0
  8  7  1  0
  9 10  1  0
 10 11  2  0
 12 11  1  0
 12  4  1  0
 13 14  2  0
 16 18  1  0
 16 15  1  6
 17 16  1  0
 19 18  1  1
 20 13  1  0
 20 19  1  0
 21 25  1  0
 21 19  1  0
 22 21  2  0
 24 23  1  1
 24 26  1  0
 24 25  1  0
 26 28  1  0
 27 26  2  0
M  END
$$$$
