WLA.pdb
     RDKit          3D

 28 29  0  0  1  0  0  0  0  0999 V2000
    6.3455  -17.9625   25.2004 N   0  0  0  0  0  0  0  0  0  0  0  0
    6.9855  -16.6706   24.9390 C   0  0  1  0  0  0  0  0  0  0  0  0
    8.1754  -16.4867   25.8163 C   0  0  0  0  0  0  0  0  0  0  0  0
    8.0237  -15.3921   26.7936 C   0  0  0  0  0  0  0  0  0  0  0  0
    8.4430  -15.4683   28.1276 C   0  0  0  0  0  0  0  0  0  0  0  0
    8.1882  -14.3025   28.7372 N   0  0  0  0  0  0  0  0  0  0  0  0
    7.6071  -13.4321   27.8611 C   0  0  0  0  0  0  0  0  0  0  0  0
    7.1615  -12.1319   28.0088 C   0  0  0  0  0  0  0  0  0  0  0  0
    6.6000  -11.4820   26.9435 C   0  0  0  0  0  0  0  0  0  0  0  0
    6.4925  -12.1450   25.7418 C   0  0  0  0  0  0  0  0  0  0  0  0
    6.9417  -13.4420   25.6093 C   0  0  0  0  0  0  0  0  0  0  0  0
    7.5162  -14.1275   26.6710 C   0  0  0  0  0  0  0  0  0  0  0  0
    7.1842  -16.5242   23.4982 C   0  0  0  0  0  0  0  0  0  0  0  0
    7.2224  -17.5711   22.7643 O   0  0  0  0  0  0  0  0  0  0  0  0
    8.0844  -11.9516   19.4925 C   0  0  0  0  0  0  0  0  0  0  0  0
    8.0600  -13.4653   19.6421 C   0  0  2  0  0  0  0  0  0  0  0  0
    6.9814  -13.9700   18.7003 C   0  0  0  0  0  0  0  0  0  0  0  0
    7.7432  -13.7536   21.0664 C   0  0  0  0  0  0  0  0  0  0  0  0
    7.7505  -15.2362   21.4077 C   0  0  2  0  0  0  0  0  0  0  0  0
    7.3418  -15.2965   22.7901 N   0  0  0  0  0  0  0  0  0  0  0  0
    9.0754  -15.8346   21.2462 C   0  0  0  0  0  0  0  0  0  0  0  0
    9.4224  -16.4359   20.1678 O   0  0  0  0  0  0  0  0  0  0  0  0
   12.3970  -15.3844   22.3714 C   0  0  0  0  0  0  0  0  0  0  0  0
   11.3515  -16.4569   22.0323 C   0  0  2  0  0  0  0  0  0  0  0  0
   10.0646  -15.7910   22.2611 N   0  0  0  0  0  0  0  0  0  0  0  0
   11.5436  -17.6222   22.8986 C   0  0  0  0  0  0  0  0  0  0  0  0
   10.7208  -18.0588   23.7320 O   0  0  0  0  0  0  0  0  0  0  0  0
   12.7441  -18.3284   22.8069 O   0  0  0  0  0  0  0  0  0  0  0  0
  2  1  1  6
  2 13  1  0
  3  2  1  0
  4  3  1  0
  5  4  2  0
  6  7  1  0
  6  5  1  0
  7 12  2  0
  8  9  2  0
  8  7  1  0
  9 10  1  0
 10 11  2  0
 12 11  1  0
 12  4  1  0
 13 14  2  0
 16 18  1  0
 16 15  1  1
 17 16  1  0
 19 18  1  1
 20 13  1  0
 20 19  1  0
 21 25  1  0
 21 19  1  0
 22 21  2  0
 24 23  1  1
 24 26  1  0
 24 25  1  0
 26 28  1  0
 27 26  2  0
M  END
$$$$
