WLA.pdb
     RDKit          3D

 28 29  0  0  1  0  0  0  0  0999 V2000
    6.3590  -18.4360   24.3553 N   0  0  0  0  0  0  0  0  0  0  0  0
    6.8092  -17.0434   24.2851 C   0  0  1  0  0  0  0  0  0  0  0  0
    7.1920  -16.5463   25.6362 C   0  0  0  0  0  0  0  0  0  0  0  0
    6.6058  -15.2342   25.9696 C   0  0  0  0  0  0  0  0  0  0  0  0
    5.2310  -14.9987   26.0946 C   0  0  0  0  0  0  0  0  0  0  0  0
    5.0320  -13.7169   26.4311 N   0  0  0  0  0  0  0  0  0  0  0  0
    6.2285  -13.0691   26.5392 C   0  0  0  0  0  0  0  0  0  0  0  0
    6.5459  -11.7608   26.8530 C   0  0  0  0  0  0  0  0  0  0  0  0
    7.8567  -11.3693   26.8839 C   0  0  0  0  0  0  0  0  0  0  0  0
    8.8341  -12.2962   26.5995 C   0  0  0  0  0  0  0  0  0  0  0  0
    8.5025  -13.5980   26.2884 C   0  0  0  0  0  0  0  0  0  0  0  0
    7.1822  -14.0255   26.2496 C   0  0  0  0  0  0  0  0  0  0  0  0
    7.8009  -16.9201   23.2182 C   0  0  0  0  0  0  0  0  0  0  0  0
    8.3968  -17.9703   22.7962 O   0  0  0  0  0  0  0  0  0  0  0  0
    7.1457  -14.6240   19.5048 C   0  0  0  0  0  0  0  0  0  0  0  0
    7.6725  -13.7881   20.6614 C   0  0  2  0  0  0  0  0  0  0  0  0
    7.6395  -12.3439   20.1941 C   0  0  0  0  0  0  0  0  0  0  0  0
    9.0560  -14.2581   20.9392 C   0  0  0  0  0  0  0  0  0  0  0  0
    9.1247  -15.6835   21.4666 C   0  0  2  0  0  0  0  0  0  0  0  0
    8.1905  -15.7134   22.5658 N   0  0  0  0  0  0  0  0  0  0  0  0
   10.4652  -16.0366   21.9334 C   0  0  0  0  0  0  0  0  0  0  0  0
   11.4572  -16.1493   21.1282 O   0  0  0  0  0  0  0  0  0  0  0  0
   12.2890  -16.1094   25.1049 C   0  0  0  0  0  0  0  0  0  0  0  0
   12.1298  -16.6504   23.6765 C   0  0  2  0  0  0  0  0  0  0  0  0
   10.7629  -16.2752   23.2990 N   0  0  0  0  0  0  0  0  0  0  0  0
   12.3359  -18.1006   23.6740 C   0  0  0  0  0  0  0  0  0  0  0  0
   11.4905  -18.9599   23.3441 O   0  0  0  0  0  0  0  0  0  0  0  0
   13.5789  -18.5962   24.0712 O   0  0  0  0  0  0  0  0  0  0  0  0
  2  1  1  1
  2 13  1  0
  3  2  1  0
  4  3  1  0
  5  4  2  0
  6  7  1  0
  6  5  1  0
  7 12  2  0
  8  9  2  0
  8  7  1  0
  9 10  1  0
 10 11  2  0
 12 11  1  0
 12  4  1  0
 13 14  2  0
 16 18  1  0
 16 15  1  6
 17 16  1  0
 19 18  1  1
 20 13  1  0
 20 19  1  0
 21 25  1  0
 21 19  1  0
 22 21  2  0
 24 23  1  1
 24 26  1  0
 24 25  1  0
 26 28  1  0
 27 26  2  0
M  END
$$$$
