WLA.pdb
     RDKit          3D

 28 29  0  0  1  0  0  0  0  0999 V2000
    6.1752  -17.7069   24.7408 N   0  0  0  0  0  0  0  0  0  0  0  0
    7.0627  -16.5476   24.6177 C   0  0  1  0  0  0  0  0  0  0  0  0
    7.9847  -16.4656   25.7850 C   0  0  0  0  0  0  0  0  0  0  0  0
    7.6248  -15.4069   26.7472 C   0  0  0  0  0  0  0  0  0  0  0  0
    7.5164  -15.6072   28.1290 C   0  0  0  0  0  0  0  0  0  0  0  0
    7.2041  -14.4456   28.7197 N   0  0  0  0  0  0  0  0  0  0  0  0
    7.0952  -13.4578   27.7842 C   0  0  0  0  0  0  0  0  0  0  0  0
    6.7920  -12.1134   27.8908 C   0  0  0  0  0  0  0  0  0  0  0  0
    6.7427  -11.3375   26.7647 C   0  0  0  0  0  0  0  0  0  0  0  0
    6.9988  -11.9205   25.5442 C   0  0  0  0  0  0  0  0  0  0  0  0
    7.3003  -13.2630   25.4532 C   0  0  0  0  0  0  0  0  0  0  0  0
    7.3585  -14.0758   26.5771 C   0  0  0  0  0  0  0  0  0  0  0  0
    7.6644  -16.5519   23.2855 C   0  0  0  0  0  0  0  0  0  0  0  0
    7.7986  -17.6625   22.6654 O   0  0  0  0  0  0  0  0  0  0  0  0
    7.7947  -12.2774   19.5010 C   0  0  0  0  0  0  0  0  0  0  0  0
    7.8055  -13.7852   19.7026 C   0  0  2  0  0  0  0  0  0  0  0  0
    6.3984  -14.1695   20.1241 C   0  0  0  0  0  0  0  0  0  0  0  0
    8.8084  -14.0722   20.7627 C   0  0  0  0  0  0  0  0  0  0  0  0
    8.7652  -15.5039   21.2756 C   0  0  2  0  0  0  0  0  0  0  0  0
    8.1329  -15.4113   22.5691 N   0  0  0  0  0  0  0  0  0  0  0  0
   10.1011  -16.0851   21.4069 C   0  0  0  0  0  0  0  0  0  0  0  0
   10.7696  -16.4884   20.3893 O   0  0  0  0  0  0  0  0  0  0  0  0
   12.8920  -15.7833   23.5619 C   0  0  0  0  0  0  0  0  0  0  0  0
   12.1124  -16.7816   22.6936 C   0  0  2  0  0  0  0  0  0  0  0  0
   10.7492  -16.2409   22.6583 N   0  0  0  0  0  0  0  0  0  0  0  0
   12.1736  -18.1135   23.3000 C   0  0  0  0  0  0  0  0  0  0  0  0
   11.1968  -18.7787   23.7064 O   0  0  0  0  0  0  0  0  0  0  0  0
   13.4223  -18.7190   23.4501 O   0  0  0  0  0  0  0  0  0  0  0  0
  2  1  1  1
  2 13  1  0
  3  2  1  0
  4  3  1  0
  5  4  2  0
  6  7  1  0
  6  5  1  0
  7 12  2  0
  8  9  2  0
  8  7  1  0
  9 10  1  0
 10 11  2  0
 12 11  1  0
 12  4  1  0
 13 14  2  0
 16 18  1  0
 16 15  1  1
 17 16  1  0
 19 18  1  1
 20 13  1  0
 20 19  1  0
 21 25  1  0
 21 19  1  0
 22 21  2  0
 24 23  1  1
 24 26  1  0
 24 25  1  0
 26 28  1  0
 27 26  2  0
M  END
$$$$
