WLA.pdb
     RDKit          3D

 28 29  0  0  1  0  0  0  0  0999 V2000
    6.0762  -18.1125   23.7405 N   0  0  0  0  0  0  0  0  0  0  0  0
    6.7463  -16.8136   23.8432 C   0  0  1  0  0  0  0  0  0  0  0  0
    7.2038  -16.5675   25.2395 C   0  0  0  0  0  0  0  0  0  0  0  0
    6.6304  -15.3489   25.8415 C   0  0  0  0  0  0  0  0  0  0  0  0
    5.2904  -15.2212   26.2281 C   0  0  0  0  0  0  0  0  0  0  0  0
    5.0997  -14.0076   26.7635 N   0  0  0  0  0  0  0  0  0  0  0  0
    6.2680  -13.3019   26.7543 C   0  0  0  0  0  0  0  0  0  0  0  0
    6.5799  -12.0256   27.1839 C   0  0  0  0  0  0  0  0  0  0  0  0
    7.8579  -11.5565   27.0453 C   0  0  0  0  0  0  0  0  0  0  0  0
    8.8082  -12.3745   26.4770 C   0  0  0  0  0  0  0  0  0  0  0  0
    8.4824  -13.6455   26.0533 C   0  0  0  0  0  0  0  0  0  0  0  0
    7.1953  -14.1500   26.1809 C   0  0  0  0  0  0  0  0  0  0  0  0
    7.7455  -16.7115   22.7812 C   0  0  0  0  0  0  0  0  0  0  0  0
    8.2939  -17.7779   22.3362 O   0  0  0  0  0  0  0  0  0  0  0  0
    7.0235  -14.3341   19.2035 C   0  0  0  0  0  0  0  0  0  0  0  0
    7.6588  -13.5841   20.3644 C   0  0  2  0  0  0  0  0  0  0  0  0
    7.6154  -12.1117   19.9962 C   0  0  0  0  0  0  0  0  0  0  0  0
    9.0511  -14.0903   20.4958 C   0  0  0  0  0  0  0  0  0  0  0  0
    9.1403  -15.4963   21.0702 C   0  0  2  0  0  0  0  0  0  0  0  0
    8.1919  -15.5093   22.1574 N   0  0  0  0  0  0  0  0  0  0  0  0
   10.4809  -15.8073   21.5658 C   0  0  0  0  0  0  0  0  0  0  0  0
   11.4949  -15.8779   20.7835 O   0  0  0  0  0  0  0  0  0  0  0  0
   12.1253  -16.0288   24.8692 C   0  0  0  0  0  0  0  0  0  0  0  0
   12.1393  -16.2887   23.3557 C   0  0  2  0  0  0  0  0  0  0  0  0
   10.7544  -16.0488   22.9359 N   0  0  0  0  0  0  0  0  0  0  0  0
   12.5756  -17.6627   23.0966 C   0  0  0  0  0  0  0  0  0  0  0  0
   11.8609  -18.5863   22.6517 O   0  0  0  0  0  0  0  0  0  0  0  0
   13.9041  -17.9996   23.3610 O   0  0  0  0  0  0  0  0  0  0  0  0
  2  1  1  1
  2 13  1  0
  3  2  1  0
  4  3  1  0
  5  4  2  0
  6  7  1  0
  6  5  1  0
  7 12  2  0
  8  9  2  0
  8  7  1  0
  9 10  1  0
 10 11  2  0
 12 11  1  0
 12  4  1  0
 13 14  2  0
 16 18  1  0
 16 15  1  6
 17 16  1  0
 19 18  1  1
 20 13  1  0
 20 19  1  0
 21 25  1  0
 21 19  1  0
 22 21  2  0
 24 23  1  1
 24 26  1  0
 24 25  1  0
 26 28  1  0
 27 26  2  0
M  END
$$$$
