WLA.pdb
     RDKit          3D

 28 29  0  0  1  0  0  0  0  0999 V2000
    6.2691  -18.6847   24.5564 N   0  0  0  0  0  0  0  0  0  0  0  0
    6.5532  -17.2521   24.4390 C   0  0  1  0  0  0  0  0  0  0  0  0
    7.2412  -16.7511   25.6617 C   0  0  0  0  0  0  0  0  0  0  0  0
    6.7630  -15.4285   26.1072 C   0  0  0  0  0  0  0  0  0  0  0  0
    5.4126  -15.1012   26.2822 C   0  0  0  0  0  0  0  0  0  0  0  0
    5.3182  -13.8379   26.7192 N   0  0  0  0  0  0  0  0  0  0  0  0
    6.5624  -13.2917   26.8478 C   0  0  0  0  0  0  0  0  0  0  0  0
    6.9844  -12.0390   27.2520 C   0  0  0  0  0  0  0  0  0  0  0  0
    8.3217  -11.7502   27.2815 C   0  0  0  0  0  0  0  0  0  0  0  0
    9.2201  -12.7229   26.9047 C   0  0  0  0  0  0  0  0  0  0  0  0
    8.7845  -13.9683   26.5039 C   0  0  0  0  0  0  0  0  0  0  0  0
    7.4350  -14.2915   26.4641 C   0  0  0  0  0  0  0  0  0  0  0  0
    7.2022  -17.0024   23.1532 C   0  0  0  0  0  0  0  0  0  0  0  0
    7.6698  -17.9900   22.4884 O   0  0  0  0  0  0  0  0  0  0  0  0
    8.3863  -12.2097   19.5097 C   0  0  0  0  0  0  0  0  0  0  0  0
    8.3201  -13.7289   19.5501 C   0  0  2  0  0  0  0  0  0  0  0  0
    7.3789  -14.1449   18.4337 C   0  0  0  0  0  0  0  0  0  0  0  0
    7.8006  -14.1032   20.8925 C   0  0  0  0  0  0  0  0  0  0  0  0
    8.0030  -15.5703   21.2407 C   0  0  2  0  0  0  0  0  0  0  0  0
    7.3753  -15.7316   22.5297 N   0  0  0  0  0  0  0  0  0  0  0  0
    9.4187  -15.9299   21.3198 C   0  0  0  0  0  0  0  0  0  0  0  0
   10.0772  -16.3267   20.2932 O   0  0  0  0  0  0  0  0  0  0  0  0
   12.3123  -14.9167   22.8205 C   0  0  0  0  0  0  0  0  0  0  0  0
   11.5798  -16.2310   22.5134 C   0  0  2  0  0  0  0  0  0  0  0  0
   10.1596  -15.8639   22.5268 N   0  0  0  0  0  0  0  0  0  0  0  0
   11.9123  -17.2291   23.5326 C   0  0  0  0  0  0  0  0  0  0  0  0
   11.1001  -17.7965   24.2944 O   0  0  0  0  0  0  0  0  0  0  0  0
   13.2489  -17.5994   23.6895 O   0  0  0  0  0  0  0  0  0  0  0  0
  2  1  1  1
  2 13  1  0
  3  2  1  0
  4  3  1  0
  5  4  2  0
  6  7  1  0
  6  5  1  0
  7 12  2  0
  8  9  2  0
  8  7  1  0
  9 10  1  0
 10 11  2  0
 12 11  1  0
 12  4  1  0
 13 14  2  0
 16 18  1  0
 16 15  1  1
 17 16  1  0
 19 18  1  1
 20 13  1  0
 20 19  1  0
 21 25  1  0
 21 19  1  0
 22 21  2  0
 24 23  1  1
 24 26  1  0
 24 25  1  0
 26 28  1  0
 27 26  2  0
M  END
$$$$
