WLA.pdb
     RDKit          3D

 28 29  0  0  1  0  0  0  0  0999 V2000
    6.0137  -18.1895   23.7292 N   0  0  0  0  0  0  0  0  0  0  0  0
    6.7036  -16.9036   23.8609 C   0  0  1  0  0  0  0  0  0  0  0  0
    7.2283  -16.7283   25.2441 C   0  0  0  0  0  0  0  0  0  0  0  0
    6.7278  -15.5135   25.9149 C   0  0  0  0  0  0  0  0  0  0  0  0
    5.4791  -15.4223   26.5424 C   0  0  0  0  0  0  0  0  0  0  0  0
    5.3421  -14.2008   27.0763 N   0  0  0  0  0  0  0  0  0  0  0  0
    6.4584  -13.4543   26.8325 C   0  0  0  0  0  0  0  0  0  0  0  0
    6.7926  -12.1553   27.1669 C   0  0  0  0  0  0  0  0  0  0  0  0
    8.0022  -11.6451   26.7809 C   0  0  0  0  0  0  0  0  0  0  0  0
    8.8627  -12.4452   26.0635 C   0  0  0  0  0  0  0  0  0  0  0  0
    8.5159  -13.7393   25.7374 C   0  0  0  0  0  0  0  0  0  0  0  0
    7.2967  -14.2854   26.1151 C   0  0  0  0  0  0  0  0  0  0  0  0
    7.6537  -16.7616   22.7591 C   0  0  0  0  0  0  0  0  0  0  0  0
    8.1184  -17.8122   22.1970 O   0  0  0  0  0  0  0  0  0  0  0  0
    7.3553  -14.4549   19.0160 C   0  0  0  0  0  0  0  0  0  0  0  0
    7.7142  -13.6490   20.2553 C   0  0  2  0  0  0  0  0  0  0  0  0
    7.6480  -12.1878   19.8481 C   0  0  0  0  0  0  0  0  0  0  0  0
    9.0865  -14.0598   20.6554 C   0  0  0  0  0  0  0  0  0  0  0  0
    9.1659  -15.4754   21.2071 C   0  0  2  0  0  0  0  0  0  0  0  0
    8.1361  -15.5345   22.2159 N   0  0  0  0  0  0  0  0  0  0  0  0
   10.4712  -15.7655   21.8003 C   0  0  0  0  0  0  0  0  0  0  0  0
   11.5459  -15.7858   21.1007 O   0  0  0  0  0  0  0  0  0  0  0  0
   11.9133  -15.9342   25.1779 C   0  0  0  0  0  0  0  0  0  0  0  0
   11.9878  -16.3175   23.6927 C   0  0  2  0  0  0  0  0  0  0  0  0
   10.6413  -16.0404   23.1808 N   0  0  0  0  0  0  0  0  0  0  0  0
   12.3577  -17.7291   23.5670 C   0  0  0  0  0  0  0  0  0  0  0  0
   11.6288  -18.6401   23.1190 O   0  0  0  0  0  0  0  0  0  0  0  0
   13.6332  -18.1214   23.9766 O   0  0  0  0  0  0  0  0  0  0  0  0
  2  1  1  1
  2 13  1  0
  3  2  1  0
  4  3  1  0
  5  4  2  0
  6  7  1  0
  6  5  1  0
  7 12  2  0
  8  9  2  0
  8  7  1  0
  9 10  1  0
 10 11  2  0
 12 11  1  0
 12  4  1  0
 13 14  2  0
 16 18  1  0
 16 15  1  6
 17 16  1  0
 19 18  1  1
 20 13  1  0
 20 19  1  0
 21 25  1  0
 21 19  1  0
 22 21  2  0
 24 23  1  1
 24 26  1  0
 24 25  1  0
 26 28  1  0
 27 26  2  0
M  END
$$$$
