WLA.pdb
     RDKit          3D

 28 29  0  0  1  0  0  0  0  0999 V2000
    9.8594  -14.7791   24.4127 N   0  0  0  0  0  0  0  0  0  0  0  0
    9.0395  -15.9525   24.1000 C   0  0  1  0  0  0  0  0  0  0  0  0
    7.7916  -15.9533   24.9137 C   0  0  0  0  0  0  0  0  0  0  0  0
    7.7672  -14.9103   25.9567 C   0  0  0  0  0  0  0  0  0  0  0  0
    6.6803  -14.0580   26.1879 C   0  0  0  0  0  0  0  0  0  0  0  0
    6.9652  -13.2497   27.2180 N   0  0  0  0  0  0  0  0  0  0  0  0
    8.2136  -13.5229   27.6975 C   0  0  0  0  0  0  0  0  0  0  0  0
    8.9491  -12.9691   28.7286 C   0  0  0  0  0  0  0  0  0  0  0  0
   10.2060  -13.4402   28.9946 C   0  0  0  0  0  0  0  0  0  0  0  0
   10.7101  -14.4622   28.2221 C   0  0  0  0  0  0  0  0  0  0  0  0
    9.9646  -15.0051   27.1970 C   0  0  0  0  0  0  0  0  0  0  0  0
    8.6866  -14.5493   26.9032 C   0  0  0  0  0  0  0  0  0  0  0  0
    8.8954  -16.0558   22.6491 C   0  0  0  0  0  0  0  0  0  0  0  0
    8.2331  -17.0327   22.1561 O   0  0  0  0  0  0  0  0  0  0  0  0
    6.5632  -14.1554   20.0589 C   0  0  0  0  0  0  0  0  0  0  0  0
    7.8115  -13.3517   20.3904 C   0  0  2  0  0  0  0  0  0  0  0  0
    7.5599  -11.9434   19.8820 C   0  0  0  0  0  0  0  0  0  0  0  0
    8.9470  -14.0084   19.6893 C   0  0  0  0  0  0  0  0  0  0  0  0
    9.3160  -15.3690   20.2614 C   0  0  2  0  0  0  0  0  0  0  0  0
    9.4271  -15.1513   21.6833 N   0  0  0  0  0  0  0  0  0  0  0  0
   10.5824  -15.8690   19.7265 C   0  0  0  0  0  0  0  0  0  0  0  0
   10.6583  -16.4360   18.5786 O   0  0  0  0  0  0  0  0  0  0  0  0
   14.0392  -15.1381   19.9325 C   0  0  0  0  0  0  0  0  0  0  0  0
   13.0315  -16.2915   19.8210 C   0  0  2  0  0  0  0  0  0  0  0  0
   11.8077  -15.7613   20.4317 N   0  0  0  0  0  0  0  0  0  0  0  0
   13.5487  -17.4663   20.5265 C   0  0  0  0  0  0  0  0  0  0  0  0
   14.6419  -18.0305   20.3059 O   0  0  0  0  0  0  0  0  0  0  0  0
   12.7722  -18.0278   21.5414 O   0  0  0  0  0  0  0  0  0  0  0  0
  2  1  1  6
  2 13  1  0
  3  2  1  0
  4  3  1  0
  5  4  2  0
  6  7  1  0
  6  5  1  0
  7 12  2  0
  8  9  2  0
  8  7  1  0
  9 10  1  0
 10 11  2  0
 12 11  1  0
 12  4  1  0
 13 14  2  0
 16 18  1  0
 16 15  1  6
 17 16  1  0
 19 18  1  6
 20 13  1  0
 20 19  1  0
 21 25  1  0
 21 19  1  0
 22 21  2  0
 24 23  1  1
 24 26  1  0
 24 25  1  0
 26 28  1  0
 27 26  2  0
M  END
$$$$
