WLA.pdb
     RDKit          3D

 28 29  0  0  1  0  0  0  0  0999 V2000
    6.4724  -18.6644   25.7998 N   0  0  0  0  0  0  0  0  0  0  0  0
    7.3588  -17.5270   25.5401 C   0  0  1  0  0  0  0  0  0  0  0  0
    8.7286  -17.7994   26.0584 C   0  0  0  0  0  0  0  0  0  0  0  0
    9.0272  -17.1083   27.3270 C   0  0  0  0  0  0  0  0  0  0  0  0
    9.1173  -17.7513   28.5678 C   0  0  0  0  0  0  0  0  0  0  0  0
    9.4281  -16.8504   29.5098 N   0  0  0  0  0  0  0  0  0  0  0  0
    9.5526  -15.6113   28.9511 C   0  0  0  0  0  0  0  0  0  0  0  0
    9.8520  -14.3773   29.4973 C   0  0  0  0  0  0  0  0  0  0  0  0
    9.9061  -13.2733   28.6904 C   0  0  0  0  0  0  0  0  0  0  0  0
    9.6591  -13.4212   27.3442 C   0  0  0  0  0  0  0  0  0  0  0  0
    9.3619  -14.6587   26.8135 C   0  0  0  0  0  0  0  0  0  0  0  0
    9.3003  -15.7970   27.6058 C   0  0  0  0  0  0  0  0  0  0  0  0
    7.2364  -17.1431   24.1349 C   0  0  0  0  0  0  0  0  0  0  0  0
    6.8854  -18.0237   23.2762 O   0  0  0  0  0  0  0  0  0  0  0  0
    7.8219  -12.1157   20.6634 C   0  0  0  0  0  0  0  0  0  0  0  0
    7.8446  -13.6364   20.6322 C   0  0  2  0  0  0  0  0  0  0  0  0
    6.6977  -14.0621   19.7330 C   0  0  0  0  0  0  0  0  0  0  0  0
    7.6627  -14.1001   22.0336 C   0  0  0  0  0  0  0  0  0  0  0  0
    7.7085  -15.6129   22.1894 C   0  0  2  0  0  0  0  0  0  0  0  0
    7.4688  -15.8447   23.5931 N   0  0  0  0  0  0  0  0  0  0  0  0
    9.0034  -16.1702   21.7993 C   0  0  0  0  0  0  0  0  0  0  0  0
    9.2048  -16.6710   20.6358 O   0  0  0  0  0  0  0  0  0  0  0  0
   12.4318  -15.6671   22.6828 C   0  0  0  0  0  0  0  0  0  0  0  0
   11.4074  -16.6896   22.1694 C   0  0  2  0  0  0  0  0  0  0  0  0
   10.1211  -16.1945   22.6714 N   0  0  0  0  0  0  0  0  0  0  0  0
   11.7385  -18.0195   22.6861 C   0  0  0  0  0  0  0  0  0  0  0  0
   12.7935  -18.6508   22.4611 O   0  0  0  0  0  0  0  0  0  0  0  0
   10.8113  -18.6641   23.5065 O   0  0  0  0  0  0  0  0  0  0  0  0
  2  1  1  6
  2 13  1  0
  3  2  1  0
  4  3  1  0
  5  4  2  0
  6  7  1  0
  6  5  1  0
  7 12  2  0
  8  9  2  0
  8  7  1  0
  9 10  1  0
 10 11  2  0
 12 11  1  0
 12  4  1  0
 13 14  2  0
 16 18  1  0
 16 15  1  1
 17 16  1  0
 19 18  1  1
 20 13  1  0
 20 19  1  0
 21 25  1  0
 21 19  1  0
 22 21  2  0
 24 23  1  1
 24 26  1  0
 24 25  1  0
 26 28  1  0
 27 26  2  0
M  END
$$$$
