PIE.pdb
     RDKit          3D

 25 25  0  0  1  0  0  0  0  0999 V2000
    7.1180  -14.9919   20.5624 N   0  0  0  0  0  0  0  0  0  0  0  0
    6.3067  -14.1276   19.7083 C   0  0  0  0  0  0  0  0  0  0  0  0
    7.3437  -13.2462   18.9918 C   0  0  0  0  0  0  0  0  0  0  0  0
    8.2440  -12.9541   20.1876 C   0  0  0  0  0  0  0  0  0  0  0  0
    8.3408  -14.3036   20.8211 C   0  0  1  0  0  0  0  0  0  0  0  0
    8.6795  -14.2457   22.2634 C   0  0  0  0  0  0  0  0  0  0  0  0
    9.8848  -14.0792   22.5662 O   0  0  0  0  0  0  0  0  0  0  0  0
    5.8946  -11.4903   25.6598 C   0  0  0  0  0  0  0  0  0  0  0  0
    7.0169  -12.2428   24.9980 C   0  0  0  0  0  0  0  0  0  0  0  0
    7.1732  -13.6529   25.5174 C   0  0  2  0  0  0  0  0  0  0  0  0
    7.4837  -13.6112   26.9844 C   0  0  0  0  0  0  0  0  0  0  0  0
    8.1653  -14.4171   24.7100 C   0  0  2  0  0  0  0  0  0  0  0  0
    7.7377  -14.3662   23.3023 N   0  0  0  0  0  0  0  0  0  0  0  0
    8.3163  -15.8241   25.1556 C   0  0  0  0  0  0  0  0  0  0  0  0
    7.6045  -16.6857   24.5960 O   0  0  0  0  0  0  0  0  0  0  0  0
    9.2036  -16.2216   26.1566 N   0  0  0  0  0  0  0  0  0  0  0  0
    9.8658  -17.5298   26.2337 C   0  0  1  0  0  0  0  0  0  0  0  0
   10.4051  -17.9335   24.9306 C   0  0  0  0  0  0  0  0  0  0  0  0
   11.7460  -17.3882   24.6020 C   0  0  0  0  0  0  0  0  0  0  0  0
   12.2716  -17.8755   23.2974 C   0  0  0  0  0  0  0  0  0  0  0  0
   12.9821  -17.0718   22.5939 O   0  0  0  0  0  0  0  0  0  0  0  0
   10.6917  -17.7071   27.3962 C   0  0  0  0  0  0  0  0  0  0  0  0
   11.0763  -16.8266   28.1986 O   0  0  0  0  0  0  0  0  0  0  0  0
   12.0356  -19.1348   22.8111 O   0  0  0  0  0  0  0  0  0  0  0  0
   11.1377  -19.0110   27.6960 O   0  0  0  0  0  0  0  0  0  0  0  0
  1  5  1  0
  2  1  1  0
  3  2  1  0
  3  4  1  0
  4  5  1  0
  5  6  1  1
  6  7  2  0
  9 10  1  0
  9  8  1  0
 10 12  1  0
 10 11  1  1
 12 13  1  6
 12 14  1  0
 13  6  1  0
 14 15  2  0
 14 16  1  0
 16 17  1  0
 17 22  1  0
 17 18  1  6
 19 18  1  0
 19 20  1  0
 20 21  2  0
 22 23  2  0
 22 25  1  0
 24 20  1  0
M  END
$$$$
