PIE.pdb
     RDKit          3D

 25 25  0  0  1  0  0  0  0  0999 V2000
    7.4062  -15.1019   20.7279 N   0  0  0  0  0  0  0  0  0  0  0  0
    6.5072  -14.3208   19.8816 C   0  0  0  0  0  0  0  0  0  0  0  0
    7.4426  -13.3198   19.1826 C   0  0  0  0  0  0  0  0  0  0  0  0
    8.3006  -12.9468   20.3870 C   0  0  0  0  0  0  0  0  0  0  0  0
    8.5442  -14.2860   21.0024 C   0  0  1  0  0  0  0  0  0  0  0  0
    8.8691  -14.2115   22.4471 C   0  0  0  0  0  0  0  0  0  0  0  0
   10.0457  -13.9102   22.7585 O   0  0  0  0  0  0  0  0  0  0  0  0
    5.7752  -11.7304   25.7520 C   0  0  0  0  0  0  0  0  0  0  0  0
    6.9603  -12.3855   25.0960 C   0  0  0  0  0  0  0  0  0  0  0  0
    7.2765  -13.7480   25.6668 C   0  0  2  0  0  0  0  0  0  0  0  0
    7.5679  -13.6180   27.1326 C   0  0  0  0  0  0  0  0  0  0  0  0
    8.3580  -14.4186   24.8916 C   0  0  2  0  0  0  0  0  0  0  0  0
    7.9444  -14.4572   23.4793 N   0  0  0  0  0  0  0  0  0  0  0  0
    8.6608  -15.7860   25.3809 C   0  0  0  0  0  0  0  0  0  0  0  0
    7.7111  -16.5950   25.4561 O   0  0  0  0  0  0  0  0  0  0  0  0
    9.9390  -16.2022   25.7554 N   0  0  0  0  0  0  0  0  0  0  0  0
   10.2769  -17.5248   26.2962 C   0  0  1  0  0  0  0  0  0  0  0  0
   11.4174  -18.1163   25.5881 C   0  0  0  0  0  0  0  0  0  0  0  0
   11.3595  -18.0294   24.1074 C   0  0  0  0  0  0  0  0  0  0  0  0
   12.5474  -18.6284   23.4397 C   0  0  0  0  0  0  0  0  0  0  0  0
   13.0063  -19.7341   23.9007 O   0  0  0  0  0  0  0  0  0  0  0  0
   10.2533  -17.6008   27.7310 C   0  0  0  0  0  0  0  0  0  0  0  0
   10.1240  -16.6557   28.5417 O   0  0  0  0  0  0  0  0  0  0  0  0
   13.1740  -18.0604   22.3614 O   0  0  0  0  0  0  0  0  0  0  0  0
   10.3895  -18.8718   28.3266 O   0  0  0  0  0  0  0  0  0  0  0  0
  1  5  1  0
  2  1  1  0
  3  2  1  0
  3  4  1  0
  4  5  1  0
  5  6  1  1
  6  7  2  0
  9 10  1  0
  9  8  1  0
 10 12  1  0
 10 11  1  1
 12 13  1  6
 12 14  1  0
 13  6  1  0
 14 15  2  0
 14 16  1  0
 16 17  1  0
 17 22  1  0
 17 18  1  1
 19 18  1  0
 19 20  1  0
 20 21  2  0
 22 23  2  0
 22 25  1  0
 24 20  1  0
M  END
$$$$
