PIE.pdb
     RDKit          3D

 25 25  0  0  1  0  0  0  0  0999 V2000
    7.2911  -14.9642   20.2812 N   0  0  0  0  0  0  0  0  0  0  0  0
    7.3293  -16.1004   19.3635 C   0  0  0  0  0  0  0  0  0  0  0  0
    6.2876  -17.0723   19.9431 C   0  0  0  0  0  0  0  0  0  0  0  0
    6.6543  -16.9305   21.4166 C   0  0  0  0  0  0  0  0  0  0  0  0
    6.8230  -15.4512   21.5381 C   0  0  1  0  0  0  0  0  0  0  0  0
    7.6919  -15.0564   22.6728 C   0  0  0  0  0  0  0  0  0  0  0  0
    8.9245  -14.9809   22.4558 O   0  0  0  0  0  0  0  0  0  0  0  0
    5.7325  -11.6537   26.3065 C   0  0  0  0  0  0  0  0  0  0  0  0
    6.6510  -12.3909   25.3702 C   0  0  0  0  0  0  0  0  0  0  0  0
    7.3595  -13.5527   26.0265 C   0  0  2  0  0  0  0  0  0  0  0  0
    8.1731  -13.0506   27.1824 C   0  0  0  0  0  0  0  0  0  0  0  0
    8.1422  -14.3377   25.0308 C   0  0  2  0  0  0  0  0  0  0  0  0
    7.2197  -14.7652   23.9662 N   0  0  0  0  0  0  0  0  0  0  0  0
    8.8272  -15.5115   25.6257 C   0  0  0  0  0  0  0  0  0  0  0  0
    8.1202  -16.3468   26.2296 O   0  0  0  0  0  0  0  0  0  0  0  0
   10.2044  -15.7206   25.5427 N   0  0  0  0  0  0  0  0  0  0  0  0
   10.9254  -16.8650   26.1140 C   0  0  1  0  0  0  0  0  0  0  0  0
   12.3021  -16.9339   25.6122 C   0  0  0  0  0  0  0  0  0  0  0  0
   12.6778  -18.2150   24.9633 C   0  0  0  0  0  0  0  0  0  0  0  0
   14.0508  -18.1985   24.3884 C   0  0  0  0  0  0  0  0  0  0  0  0
   14.1824  -17.9077   23.1460 O   0  0  0  0  0  0  0  0  0  0  0  0
   10.7032  -17.0620   27.5200 C   0  0  0  0  0  0  0  0  0  0  0  0
   10.5045  -16.1841   28.3900 O   0  0  0  0  0  0  0  0  0  0  0  0
   15.1777  -18.4777   25.1166 O   0  0  0  0  0  0  0  0  0  0  0  0
   10.7029  -18.3848   28.0088 O   0  0  0  0  0  0  0  0  0  0  0  0
  1  5  1  0
  2  1  1  0
  3  2  1  0
  3  4  1  0
  4  5  1  0
  5  6  1  1
  6  7  2  0
  9 10  1  0
  9  8  1  0
 10 12  1  0
 10 11  1  1
 12 13  1  6
 12 14  1  0
 13  6  1  0
 14 15  2  0
 14 16  1  0
 16 17  1  0
 17 22  1  0
 17 18  1  1
 19 18  1  0
 19 20  1  0
 20 21  2  0
 22 23  2  0
 22 25  1  0
 24 20  1  0
M  END
$$$$
