PIE.pdb
     RDKit          3D

 25 25  0  0  1  0  0  0  0  0999 V2000
    7.1259  -15.1677   20.8819 N   0  0  0  0  0  0  0  0  0  0  0  0
    6.3277  -14.3416   19.9792 C   0  0  0  0  0  0  0  0  0  0  0  0
    7.3800  -13.6047   19.1333 C   0  0  0  0  0  0  0  0  0  0  0  0
    8.3533  -13.2546   20.2541 C   0  0  0  0  0  0  0  0  0  0  0  0
    8.3991  -14.5380   21.0173 C   0  0  1  0  0  0  0  0  0  0  0  0
    8.8102  -14.3595   22.4306 C   0  0  0  0  0  0  0  0  0  0  0  0
   10.0203  -14.1176   22.6527 O   0  0  0  0  0  0  0  0  0  0  0  0
    5.7093  -11.6546   25.6255 C   0  0  0  0  0  0  0  0  0  0  0  0
    6.8731  -12.3254   24.9478 C   0  0  0  0  0  0  0  0  0  0  0  0
    7.3518  -13.5602   25.6748 C   0  0  2  0  0  0  0  0  0  0  0  0
    7.7531  -13.1907   27.0721 C   0  0  0  0  0  0  0  0  0  0  0  0
    8.4179  -14.2595   24.9035 C   0  0  2  0  0  0  0  0  0  0  0  0
    7.9315  -14.4454   23.5266 N   0  0  0  0  0  0  0  0  0  0  0  0
    8.8042  -15.5629   25.4975 C   0  0  0  0  0  0  0  0  0  0  0  0
    7.9006  -16.4096   25.6674 O   0  0  0  0  0  0  0  0  0  0  0  0
   10.1112  -15.8802   25.8695 N   0  0  0  0  0  0  0  0  0  0  0  0
   10.5636  -17.1938   26.3446 C   0  0  1  0  0  0  0  0  0  0  0  0
   11.8264  -17.5860   25.7094 C   0  0  0  0  0  0  0  0  0  0  0  0
   11.9500  -17.2346   24.2725 C   0  0  0  0  0  0  0  0  0  0  0  0
   13.2528  -17.6447   23.6804 C   0  0  0  0  0  0  0  0  0  0  0  0
   14.3292  -17.2398   24.2489 O   0  0  0  0  0  0  0  0  0  0  0  0
   10.4249  -17.3902   27.7613 C   0  0  0  0  0  0  0  0  0  0  0  0
   10.5974  -18.4508   28.4036 O   0  0  0  0  0  0  0  0  0  0  0  0
   13.3603  -18.4300   22.5625 O   0  0  0  0  0  0  0  0  0  0  0  0
   10.0525  -16.2805   28.5479 O   0  0  0  0  0  0  0  0  0  0  0  0
  1  5  1  0
  2  1  1  0
  3  2  1  0
  3  4  1  0
  4  5  1  0
  5  6  1  1
  6  7  2  0
  9 10  1  0
  9  8  1  0
 10 12  1  0
 10 11  1  1
 12 13  1  6
 12 14  1  0
 13  6  1  0
 14 15  2  0
 14 16  1  0
 16 17  1  0
 17 22  1  0
 17 18  1  1
 19 18  1  0
 19 20  1  0
 20 21  2  0
 22 23  2  0
 22 25  1  0
 24 20  1  0
M  END
$$$$
