PIE.pdb
     RDKit          3D

 25 25  0  0  1  0  0  0  0  0999 V2000
    6.9272  -14.9165   20.5247 N   0  0  0  0  0  0  0  0  0  0  0  0
    6.1120  -14.0287   19.6991 C   0  0  0  0  0  0  0  0  0  0  0  0
    7.1469  -13.2516   18.8679 C   0  0  0  0  0  0  0  0  0  0  0  0
    8.1574  -12.9806   19.9775 C   0  0  0  0  0  0  0  0  0  0  0  0
    8.2112  -14.3089   20.6590 C   0  0  1  0  0  0  0  0  0  0  0  0
    8.6667  -14.2216   22.0673 C   0  0  0  0  0  0  0  0  0  0  0  0
    9.8940  -14.0604   22.2672 O   0  0  0  0  0  0  0  0  0  0  0  0
    5.7216  -11.6771   25.6600 C   0  0  0  0  0  0  0  0  0  0  0  0
    6.8563  -12.2837   24.8800 C   0  0  0  0  0  0  0  0  0  0  0  0
    7.2959  -13.6252   25.4180 C   0  0  2  0  0  0  0  0  0  0  0  0
    7.7022  -13.4763   26.8543 C   0  0  0  0  0  0  0  0  0  0  0  0
    8.3440  -14.2351   24.5523 C   0  0  2  0  0  0  0  0  0  0  0  0
    7.8117  -14.3088   23.1818 N   0  0  0  0  0  0  0  0  0  0  0  0
    8.7708  -15.5783   25.0159 C   0  0  0  0  0  0  0  0  0  0  0  0
    7.8818  -16.4417   25.1780 O   0  0  0  0  0  0  0  0  0  0  0  0
   10.1000  -15.9147   25.2753 N   0  0  0  0  0  0  0  0  0  0  0  0
   10.5807  -17.2517   25.6458 C   0  0  1  0  0  0  0  0  0  0  0  0
   11.8802  -17.5420   25.0302 C   0  0  0  0  0  0  0  0  0  0  0  0
   12.5003  -18.8289   25.4336 C   0  0  0  0  0  0  0  0  0  0  0  0
   13.8058  -19.0837   24.7652 C   0  0  0  0  0  0  0  0  0  0  0  0
   14.3412  -20.2408   24.9061 O   0  0  0  0  0  0  0  0  0  0  0  0
   10.3948  -17.5842   27.0313 C   0  0  0  0  0  0  0  0  0  0  0  0
   10.2753  -16.7939   27.9948 O   0  0  0  0  0  0  0  0  0  0  0  0
   14.4626  -18.1478   24.0098 O   0  0  0  0  0  0  0  0  0  0  0  0
   10.3360  -18.9494   27.3800 O   0  0  0  0  0  0  0  0  0  0  0  0
  1  5  1  0
  2  1  1  0
  3  2  1  0
  3  4  1  0
  4  5  1  0
  5  6  1  1
  6  7  2  0
  9 10  1  0
  9  8  1  0
 10 12  1  0
 10 11  1  1
 12 13  1  6
 12 14  1  0
 13  6  1  0
 14 15  2  0
 14 16  1  0
 16 17  1  0
 17 22  1  0
 17 18  1  1
 19 18  1  0
 19 20  1  0
 20 21  2  0
 22 23  2  0
 22 25  1  0
 24 20  1  0
M  END
$$$$
