PIE.pdb
     RDKit          3D

 25 25  0  0  1  0  0  0  0  0999 V2000
    6.8968  -14.6539   20.8966 N   0  0  0  0  0  0  0  0  0  0  0  0
    6.1126  -13.6622   20.1644 C   0  0  0  0  0  0  0  0  0  0  0  0
    7.1635  -12.9097   19.3307 C   0  0  0  0  0  0  0  0  0  0  0  0
    8.2390  -12.7787   20.4040 C   0  0  0  0  0  0  0  0  0  0  0  0
    8.2262  -14.1468   21.0037 C   0  0  1  0  0  0  0  0  0  0  0  0
    8.7486  -14.1783   22.3910 C   0  0  0  0  0  0  0  0  0  0  0  0
    9.9912  -14.1034   22.5408 O   0  0  0  0  0  0  0  0  0  0  0  0
    6.1777  -11.5475   26.1302 C   0  0  0  0  0  0  0  0  0  0  0  0
    7.2653  -12.2124   25.3308 C   0  0  0  0  0  0  0  0  0  0  0  0
    7.5811  -13.6109   25.8070 C   0  0  2  0  0  0  0  0  0  0  0  0
    8.0447  -13.5584   27.2327 C   0  0  0  0  0  0  0  0  0  0  0  0
    8.5339  -14.2910   24.8851 C   0  0  2  0  0  0  0  0  0  0  0  0
    7.9403  -14.2869   23.5380 N   0  0  0  0  0  0  0  0  0  0  0  0
    8.8588  -15.6765   25.3045 C   0  0  0  0  0  0  0  0  0  0  0  0
    7.9141  -16.4908   25.3860 O   0  0  0  0  0  0  0  0  0  0  0  0
   10.1521  -16.1038   25.6078 N   0  0  0  0  0  0  0  0  0  0  0  0
   10.5323  -17.4786   25.9561 C   0  0  1  0  0  0  0  0  0  0  0  0
   11.6818  -17.9318   25.1654 C   0  0  0  0  0  0  0  0  0  0  0  0
   12.2230  -19.2630   25.5376 C   0  0  0  0  0  0  0  0  0  0  0  0
   13.4473  -19.6304   24.7747 C   0  0  0  0  0  0  0  0  0  0  0  0
   14.1172  -20.6532   25.1631 O   0  0  0  0  0  0  0  0  0  0  0  0
   10.5252  -17.7550   27.3662 C   0  0  0  0  0  0  0  0  0  0  0  0
   10.5315  -16.9266   28.3047 O   0  0  0  0  0  0  0  0  0  0  0  0
   13.8938  -18.9337   23.6824 O   0  0  0  0  0  0  0  0  0  0  0  0
   10.5094  -19.1050   27.7737 O   0  0  0  0  0  0  0  0  0  0  0  0
  1  5  1  0
  2  1  1  0
  3  2  1  0
  3  4  1  0
  4  5  1  0
  5  6  1  1
  6  7  2  0
  9 10  1  0
  9  8  1  0
 10 12  1  0
 10 11  1  1
 12 13  1  6
 12 14  1  0
 13  6  1  0
 14 15  2  0
 14 16  1  0
 16 17  1  0
 17 22  1  0
 17 18  1  1
 19 18  1  0
 19 20  1  0
 20 21  2  0
 22 23  2  0
 22 25  1  0
 24 20  1  0
M  END
$$$$
