PIE.pdb
     RDKit          3D

 25 25  0  0  1  0  0  0  0  0999 V2000
    7.1351  -14.9281   20.8411 N   0  0  0  0  0  0  0  0  0  0  0  0
    6.2730  -14.0878   20.0134 C   0  0  0  0  0  0  0  0  0  0  0  0
    7.2637  -13.2175   19.2216 C   0  0  0  0  0  0  0  0  0  0  0  0
    8.2259  -12.8936   20.3597 C   0  0  0  0  0  0  0  0  0  0  0  0
    8.3657  -14.2277   21.0171 C   0  0  1  0  0  0  0  0  0  0  0  0
    8.7821  -14.1352   22.4371 C   0  0  0  0  0  0  0  0  0  0  0  0
    9.9763  -13.8316   22.6691 O   0  0  0  0  0  0  0  0  0  0  0  0
    5.9243  -11.6948   25.9999 C   0  0  0  0  0  0  0  0  0  0  0  0
    7.0057  -12.3693   25.2002 C   0  0  0  0  0  0  0  0  0  0  0  0
    7.4248  -13.7022   25.7747 C   0  0  2  0  0  0  0  0  0  0  0  0
    7.8660  -13.5148   27.1962 C   0  0  0  0  0  0  0  0  0  0  0  0
    8.4389  -14.3668   24.9086 C   0  0  2  0  0  0  0  0  0  0  0  0
    7.9249  -14.3666   23.5291 N   0  0  0  0  0  0  0  0  0  0  0  0
    8.7575  -15.7490   25.3432 C   0  0  0  0  0  0  0  0  0  0  0  0
    8.1438  -16.1973   26.3355 O   0  0  0  0  0  0  0  0  0  0  0  0
    9.6977  -16.5577   24.7035 N   0  0  0  0  0  0  0  0  0  0  0  0
   10.4519  -17.6468   25.3367 C   0  0  1  0  0  0  0  0  0  0  0  0
   11.7082  -17.9102   24.6266 C   0  0  0  0  0  0  0  0  0  0  0  0
   12.5281  -19.0185   25.1770 C   0  0  0  0  0  0  0  0  0  0  0  0
   13.8012  -19.2283   24.4346 C   0  0  0  0  0  0  0  0  0  0  0  0
   14.7162  -18.3353   24.5394 O   0  0  0  0  0  0  0  0  0  0  0  0
   10.4811  -17.5894   26.7722 C   0  0  0  0  0  0  0  0  0  0  0  0
   10.8866  -16.6463   27.4886 O   0  0  0  0  0  0  0  0  0  0  0  0
   14.0444  -20.3232   23.6471 O   0  0  0  0  0  0  0  0  0  0  0  0
   10.0053  -18.7081   27.4870 O   0  0  0  0  0  0  0  0  0  0  0  0
  1  5  1  0
  2  1  1  0
  3  2  1  0
  3  4  1  0
  4  5  1  0
  5  6  1  1
  6  7  2  0
  9 10  1  0
  9  8  1  0
 10 12  1  0
 10 11  1  1
 12 13  1  6
 12 14  1  0
 13  6  1  0
 14 15  2  0
 14 16  1  0
 16 17  1  0
 17 22  1  0
 17 18  1  6
 19 18  1  0
 19 20  1  0
 20 21  2  0
 22 23  2  0
 22 25  1  0
 24 20  1  0
M  END
$$$$
