PIE.pdb
     RDKit          3D

 25 25  0  0  1  0  0  0  0  0999 V2000
    6.8816  -15.1173   20.8187 N   0  0  0  0  0  0  0  0  0  0  0  0
    5.8814  -14.3962   20.0351 C   0  0  0  0  0  0  0  0  0  0  0  0
    6.7209  -13.5102   19.0992 C   0  0  0  0  0  0  0  0  0  0  0  0
    7.7597  -13.0452   20.1143 C   0  0  0  0  0  0  0  0  0  0  0  0
    8.0653  -14.3206   20.8297 C   0  0  1  0  0  0  0  0  0  0  0  0
    8.6075  -14.1068   22.1930 C   0  0  0  0  0  0  0  0  0  0  0  0
    9.7915  -13.7048   22.2859 O   0  0  0  0  0  0  0  0  0  0  0  0
    5.5905  -12.1287   26.0939 C   0  0  0  0  0  0  0  0  0  0  0  0
    6.7544  -12.5027   25.2167 C   0  0  0  0  0  0  0  0  0  0  0  0
    7.4545  -13.7639   25.6655 C   0  0  2  0  0  0  0  0  0  0  0  0
    7.9504  -13.5849   27.0698 C   0  0  0  0  0  0  0  0  0  0  0  0
    8.5125  -14.1662   24.6964 C   0  0  2  0  0  0  0  0  0  0  0  0
    7.8794  -14.3270   23.3771 N   0  0  0  0  0  0  0  0  0  0  0  0
    9.2165  -15.4117   25.0891 C   0  0  0  0  0  0  0  0  0  0  0  0
    8.5229  -16.4380   25.2558 O   0  0  0  0  0  0  0  0  0  0  0  0
   10.5970  -15.4865   25.2783 N   0  0  0  0  0  0  0  0  0  0  0  0
   11.3617  -16.7251   25.4710 C   0  0  1  0  0  0  0  0  0  0  0  0
   12.7154  -16.6089   24.9179 C   0  0  0  0  0  0  0  0  0  0  0  0
   13.5705  -17.8121   25.0747 C   0  0  0  0  0  0  0  0  0  0  0  0
   14.9612  -17.6088   24.5842 C   0  0  0  0  0  0  0  0  0  0  0  0
   15.8904  -17.4433   25.4530 O   0  0  0  0  0  0  0  0  0  0  0  0
   11.2061  -17.3204   26.7696 C   0  0  0  0  0  0  0  0  0  0  0  0
   10.9519  -16.7387   27.8485 O   0  0  0  0  0  0  0  0  0  0  0  0
   15.2981  -17.5893   23.2560 O   0  0  0  0  0  0  0  0  0  0  0  0
   11.3503  -18.7192   26.8756 O   0  0  0  0  0  0  0  0  0  0  0  0
  1  5  1  0
  2  1  1  0
  3  2  1  0
  3  4  1  0
  4  5  1  0
  5  6  1  1
  6  7  2  0
  9 10  1  0
  9  8  1  0
 10 12  1  0
 10 11  1  1
 12 13  1  6
 12 14  1  0
 13  6  1  0
 14 15  2  0
 14 16  1  0
 16 17  1  0
 17 22  1  0
 17 18  1  1
 19 18  1  0
 19 20  1  0
 20 21  2  0
 22 23  2  0
 22 25  1  0
 24 20  1  0
M  END
$$$$
