PIE.pdb
     RDKit          3D

 25 25  0  0  1  0  0  0  0  0999 V2000
    7.0199  -14.5726   20.8307 N   0  0  0  0  0  0  0  0  0  0  0  0
    6.3696  -13.5370   20.0313 C   0  0  0  0  0  0  0  0  0  0  0  0
    7.5337  -12.8769   19.2732 C   0  0  0  0  0  0  0  0  0  0  0  0
    8.5319  -12.8093   20.4242 C   0  0  0  0  0  0  0  0  0  0  0  0
    8.3716  -14.1634   21.0343 C   0  0  1  0  0  0  0  0  0  0  0  0
    8.7839  -14.2123   22.4577 C   0  0  0  0  0  0  0  0  0  0  0  0
   10.0129  -14.1760   22.7033 O   0  0  0  0  0  0  0  0  0  0  0  0
    5.9104  -11.6475   25.9652 C   0  0  0  0  0  0  0  0  0  0  0  0
    7.0877  -12.2891   25.2825 C   0  0  0  0  0  0  0  0  0  0  0  0
    7.3879  -13.6774   25.7972 C   0  0  2  0  0  0  0  0  0  0  0  0
    7.7980  -13.5961   27.2378 C   0  0  0  0  0  0  0  0  0  0  0  0
    8.3755  -14.3731   24.9248 C   0  0  2  0  0  0  0  0  0  0  0  0
    7.8864  -14.2969   23.5384 N   0  0  0  0  0  0  0  0  0  0  0  0
    8.6036  -15.7854   25.3175 C   0  0  0  0  0  0  0  0  0  0  0  0
    7.6138  -16.5485   25.3262 O   0  0  0  0  0  0  0  0  0  0  0  0
    9.8547  -16.2913   25.6725 N   0  0  0  0  0  0  0  0  0  0  0  0
   10.1483  -17.6992   25.9688 C   0  0  1  0  0  0  0  0  0  0  0  0
   10.8984  -18.3298   24.8772 C   0  0  0  0  0  0  0  0  0  0  0  0
   12.3642  -18.4292   25.0888 C   0  0  0  0  0  0  0  0  0  0  0  0
   13.1223  -18.6625   23.8291 C   0  0  0  0  0  0  0  0  0  0  0  0
   14.0202  -17.8086   23.4971 O   0  0  0  0  0  0  0  0  0  0  0  0
   10.5774  -17.9425   27.3184 C   0  0  0  0  0  0  0  0  0  0  0  0
   10.6548  -19.0453   27.9058 O   0  0  0  0  0  0  0  0  0  0  0  0
   12.9101  -19.7395   23.0087 O   0  0  0  0  0  0  0  0  0  0  0  0
   10.9624  -16.8326   28.0985 O   0  0  0  0  0  0  0  0  0  0  0  0
  1  5  1  0
  2  1  1  0
  3  2  1  0
  3  4  1  0
  4  5  1  0
  5  6  1  1
  6  7  2  0
  9 10  1  0
  9  8  1  0
 10 12  1  0
 10 11  1  1
 12 13  1  6
 12 14  1  0
 13  6  1  0
 14 15  2  0
 14 16  1  0
 16 17  1  0
 17 22  1  0
 17 18  1  6
 19 18  1  0
 19 20  1  0
 20 21  2  0
 22 23  2  0
 22 25  1  0
 24 20  1  0
M  END
$$$$
