PIE.pdb
     RDKit          3D

 25 25  0  0  1  0  0  0  0  0999 V2000
    7.2681  -15.1530   20.2730 N   0  0  0  0  0  0  0  0  0  0  0  0
    7.4209  -16.3077   19.3911 C   0  0  0  0  0  0  0  0  0  0  0  0
    6.5616  -17.3938   20.0604 C   0  0  0  0  0  0  0  0  0  0  0  0
    6.9814  -17.1432   21.5050 C   0  0  0  0  0  0  0  0  0  0  0  0
    6.9418  -15.6512   21.5696 C   0  0  1  0  0  0  0  0  0  0  0  0
    7.8036  -15.0926   22.6391 C   0  0  0  0  0  0  0  0  0  0  0  0
    8.9887  -14.8149   22.3382 O   0  0  0  0  0  0  0  0  0  0  0  0
    5.8285  -12.0429   26.6335 C   0  0  0  0  0  0  0  0  0  0  0  0
    6.8514  -12.5455   25.6512 C   0  0  0  0  0  0  0  0  0  0  0  0
    7.5389  -13.8116   26.1061 C   0  0  2  0  0  0  0  0  0  0  0  0
    8.3456  -13.5247   27.3378 C   0  0  0  0  0  0  0  0  0  0  0  0
    8.3231  -14.4261   24.9982 C   0  0  2  0  0  0  0  0  0  0  0  0
    7.3745  -14.8589   23.9589 N   0  0  0  0  0  0  0  0  0  0  0  0
    9.1611  -15.5667   25.4430 C   0  0  0  0  0  0  0  0  0  0  0  0
    8.5716  -16.5921   25.8472 O   0  0  0  0  0  0  0  0  0  0  0  0
   10.5563  -15.5454   25.4309 N   0  0  0  0  0  0  0  0  0  0  0  0
   11.4253  -16.7029   25.6775 C   0  0  1  0  0  0  0  0  0  0  0  0
   12.7332  -16.5360   25.0345 C   0  0  0  0  0  0  0  0  0  0  0  0
   13.7050  -17.6311   25.2790 C   0  0  0  0  0  0  0  0  0  0  0  0
   15.0224  -17.4002   24.6255 C   0  0  0  0  0  0  0  0  0  0  0  0
   15.6549  -16.3199   24.9056 O   0  0  0  0  0  0  0  0  0  0  0  0
   11.3887  -17.1929   27.0279 C   0  0  0  0  0  0  0  0  0  0  0  0
   11.2393  -16.5255   28.0764 O   0  0  0  0  0  0  0  0  0  0  0  0
   15.5918  -18.2800   23.7425 O   0  0  0  0  0  0  0  0  0  0  0  0
   11.5353  -18.5808   27.2303 O   0  0  0  0  0  0  0  0  0  0  0  0
  1  5  1  0
  2  1  1  0
  3  2  1  0
  3  4  1  0
  4  5  1  0
  5  6  1  1
  6  7  2  0
  9 10  1  0
  9  8  1  0
 10 12  1  0
 10 11  1  1
 12 13  1  6
 12 14  1  0
 13  6  1  0
 14 15  2  0
 14 16  1  0
 16 17  1  0
 17 22  1  0
 17 18  1  1
 19 18  1  0
 19 20  1  0
 20 21  2  0
 22 23  2  0
 22 25  1  0
 24 20  1  0
M  END
$$$$
