PIE.pdb
     RDKit          3D

 25 25  0  0  1  0  0  0  0  0999 V2000
    7.5268  -15.0332   20.0090 N   0  0  0  0  0  0  0  0  0  0  0  0
    7.6228  -16.2064   19.1435 C   0  0  0  0  0  0  0  0  0  0  0  0
    6.5282  -17.1449   19.6790 C   0  0  0  0  0  0  0  0  0  0  0  0
    6.7815  -16.9459   21.1696 C   0  0  0  0  0  0  0  0  0  0  0  0
    6.9573  -15.4642   21.2442 C   0  0  1  0  0  0  0  0  0  0  0  0
    7.7403  -15.0305   22.4262 C   0  0  0  0  0  0  0  0  0  0  0  0
    8.9841  -14.9439   22.2935 O   0  0  0  0  0  0  0  0  0  0  0  0
    5.4744  -11.8194   26.1724 C   0  0  0  0  0  0  0  0  0  0  0  0
    6.5199  -12.4089   25.2650 C   0  0  0  0  0  0  0  0  0  0  0  0
    7.1553  -13.6595   25.8257 C   0  0  2  0  0  0  0  0  0  0  0  0
    7.8579  -13.3283   27.1090 C   0  0  0  0  0  0  0  0  0  0  0  0
    8.0246  -14.3221   24.8130 C   0  0  2  0  0  0  0  0  0  0  0  0
    7.1757  -14.7142   23.6760 N   0  0  0  0  0  0  0  0  0  0  0  0
    8.7482  -15.5004   25.3506 C   0  0  0  0  0  0  0  0  0  0  0  0
    8.0650  -16.4885   25.6956 O   0  0  0  0  0  0  0  0  0  0  0  0
   10.1360  -15.5530   25.4866 N   0  0  0  0  0  0  0  0  0  0  0  0
   10.9167  -16.7656   25.7623 C   0  0  1  0  0  0  0  0  0  0  0  0
   12.2353  -16.7094   25.1218 C   0  0  0  0  0  0  0  0  0  0  0  0
   13.0852  -17.9114   25.3124 C   0  0  0  0  0  0  0  0  0  0  0  0
   14.4315  -17.7798   24.6911 C   0  0  0  0  0  0  0  0  0  0  0  0
   15.4201  -17.4753   25.4497 O   0  0  0  0  0  0  0  0  0  0  0  0
   10.8401  -17.2218   27.1227 C   0  0  0  0  0  0  0  0  0  0  0  0
   10.9803  -18.3928   27.5424 O   0  0  0  0  0  0  0  0  0  0  0  0
   14.6676  -17.9667   23.3541 O   0  0  0  0  0  0  0  0  0  0  0  0
   10.5779  -16.2654   28.1254 O   0  0  0  0  0  0  0  0  0  0  0  0
  1  5  1  0
  2  1  1  0
  3  2  1  0
  3  4  1  0
  4  5  1  0
  5  6  1  1
  6  7  2  0
  9 10  1  0
  9  8  1  0
 10 12  1  0
 10 11  1  1
 12 13  1  6
 12 14  1  0
 13  6  1  0
 14 15  2  0
 14 16  1  0
 16 17  1  0
 17 22  1  0
 17 18  1  1
 19 18  1  0
 19 20  1  0
 20 21  2  0
 22 23  2  0
 22 25  1  0
 24 20  1  0
M  END
$$$$
