PIE.pdb
     RDKit          3D

 25 25  0  0  1  0  0  0  0  0999 V2000
    7.3430  -16.1987   21.5365 N   0  0  0  0  0  0  0  0  0  0  0  0
    6.1750  -15.8512   20.7306 C   0  0  0  0  0  0  0  0  0  0  0  0
    6.7497  -14.9481   19.6261 C   0  0  0  0  0  0  0  0  0  0  0  0
    7.6836  -14.1111   20.4940 C   0  0  0  0  0  0  0  0  0  0  0  0
    8.3052  -15.1606   21.3565 C   0  0  1  0  0  0  0  0  0  0  0  0
    8.8277  -14.6261   22.6370 C   0  0  0  0  0  0  0  0  0  0  0  0
    9.9239  -14.0184   22.6034 O   0  0  0  0  0  0  0  0  0  0  0  0
    5.3664  -12.5779   26.1188 C   0  0  0  0  0  0  0  0  0  0  0  0
    6.6204  -12.8181   25.3227 C   0  0  0  0  0  0  0  0  0  0  0  0
    7.5632  -13.7975   25.9818 C   0  0  2  0  0  0  0  0  0  0  0  0
    7.9675  -13.2707   27.3268 C   0  0  0  0  0  0  0  0  0  0  0  0
    8.7109  -14.1236   25.0892 C   0  0  2  0  0  0  0  0  0  0  0  0
    8.1730  -14.7600   23.8756 N   0  0  0  0  0  0  0  0  0  0  0  0
    9.7163  -15.0034   25.7342 C   0  0  0  0  0  0  0  0  0  0  0  0
    9.9952  -14.7792   26.9317 O   0  0  0  0  0  0  0  0  0  0  0  0
   10.3548  -16.0534   25.0730 N   0  0  0  0  0  0  0  0  0  0  0  0
   10.9940  -17.2035   25.7247 C   0  0  1  0  0  0  0  0  0  0  0  0
   10.2481  -17.6258   26.9152 C   0  0  0  0  0  0  0  0  0  0  0  0
   10.8406  -18.7612   27.6657 C   0  0  0  0  0  0  0  0  0  0  0  0
    9.9687  -19.2517   28.7680 C   0  0  0  0  0  0  0  0  0  0  0  0
    8.9935  -20.0289   28.4671 O   0  0  0  0  0  0  0  0  0  0  0  0
   11.4559  -18.2166   24.8164 C   0  0  0  0  0  0  0  0  0  0  0  0
   10.9093  -18.5950   23.7556 O   0  0  0  0  0  0  0  0  0  0  0  0
   10.1541  -18.9160   30.0837 O   0  0  0  0  0  0  0  0  0  0  0  0
   12.6607  -18.8809   25.1263 O   0  0  0  0  0  0  0  0  0  0  0  0
  1  5  1  0
  2  1  1  0
  3  2  1  0
  3  4  1  0
  4  5  1  0
  5  6  1  1
  6  7  2  0
  9 10  1  0
  9  8  1  0
 10 12  1  0
 10 11  1  1
 12 13  1  6
 12 14  1  0
 13  6  1  0
 14 15  2  0
 14 16  1  0
 16 17  1  0
 17 22  1  0
 17 18  1  1
 19 18  1  0
 19 20  1  0
 20 21  2  0
 22 23  2  0
 22 25  1  0
 24 20  1  0
M  END
$$$$
