PIE.pdb
     RDKit          3D

 25 25  0  0  1  0  0  0  0  0999 V2000
    8.3125  -14.6882   20.0589 N   0  0  0  0  0  0  0  0  0  0  0  0
    8.1579  -15.8335   19.1652 C   0  0  0  0  0  0  0  0  0  0  0  0
    6.7301  -16.3289   19.4512 C   0  0  0  0  0  0  0  0  0  0  0  0
    6.7593  -16.2099   20.9714 C   0  0  0  0  0  0  0  0  0  0  0  0
    7.4145  -14.8794   21.1510 C   0  0  1  0  0  0  0  0  0  0  0  0
    8.0686  -14.7274   22.4729 C   0  0  0  0  0  0  0  0  0  0  0  0
    9.2811  -15.0363   22.5550 O   0  0  0  0  0  0  0  0  0  0  0  0
    6.2645  -11.1264   26.0245 C   0  0  0  0  0  0  0  0  0  0  0  0
    7.1801  -12.0255   25.2389 C   0  0  0  0  0  0  0  0  0  0  0  0
    7.3451  -13.3929   25.8597 C   0  0  2  0  0  0  0  0  0  0  0  0
    7.9758  -13.2520   27.2134 C   0  0  0  0  0  0  0  0  0  0  0  0
    8.0750  -14.3150   24.9446 C   0  0  2  0  0  0  0  0  0  0  0  0
    7.4155  -14.2624   23.6296 N   0  0  0  0  0  0  0  0  0  0  0  0
    8.1242  -15.7108   25.4448 C   0  0  0  0  0  0  0  0  0  0  0  0
    7.3216  -16.5300   24.9478 O   0  0  0  0  0  0  0  0  0  0  0  0
    9.0126  -16.1426   26.4305 N   0  0  0  0  0  0  0  0  0  0  0  0
    9.8667  -17.3335   26.3410 C   0  0  1  0  0  0  0  0  0  0  0  0
   10.5967  -17.3733   25.0692 C   0  0  0  0  0  0  0  0  0  0  0  0
   11.5398  -18.5090   24.9140 C   0  0  0  0  0  0  0  0  0  0  0  0
   12.3115  -18.4584   23.6421 C   0  0  0  0  0  0  0  0  0  0  0  0
   12.2330  -19.4621   22.8471 O   0  0  0  0  0  0  0  0  0  0  0  0
   10.5852  -17.6381   27.5476 C   0  0  0  0  0  0  0  0  0  0  0  0
   10.9753  -18.7615   27.9388 O   0  0  0  0  0  0  0  0  0  0  0  0
   13.0994  -17.3976   23.2786 O   0  0  0  0  0  0  0  0  0  0  0  0
   10.9031  -16.5711   28.4133 O   0  0  0  0  0  0  0  0  0  0  0  0
  1  5  1  0
  2  1  1  0
  3  2  1  0
  3  4  1  0
  4  5  1  0
  5  6  1  1
  6  7  2  0
  9 10  1  0
  9  8  1  0
 10 12  1  0
 10 11  1  1
 12 13  1  6
 12 14  1  0
 13  6  1  0
 14 15  2  0
 14 16  1  0
 16 17  1  0
 17 22  1  0
 17 18  1  6
 19 18  1  0
 19 20  1  0
 20 21  2  0
 22 23  2  0
 22 25  1  0
 24 20  1  0
M  END
$$$$
