PIE.pdb
     RDKit          3D

 25 25  0  0  1  0  0  0  0  0999 V2000
    7.0428  -16.2186   21.7291 N   0  0  0  0  0  0  0  0  0  0  0  0
    5.9220  -15.8063   20.8875 C   0  0  0  0  0  0  0  0  0  0  0  0
    6.5919  -15.0211   19.7472 C   0  0  0  0  0  0  0  0  0  0  0  0
    7.5909  -14.2305   20.5856 C   0  0  0  0  0  0  0  0  0  0  0  0
    8.1008  -15.2864   21.5112 C   0  0  1  0  0  0  0  0  0  0  0  0
    8.6571  -14.7361   22.7706 C   0  0  0  0  0  0  0  0  0  0  0  0
    9.7757  -14.1730   22.7090 O   0  0  0  0  0  0  0  0  0  0  0  0
    5.7006  -12.1626   26.3125 C   0  0  0  0  0  0  0  0  0  0  0  0
    6.8439  -12.6722   25.4775 C   0  0  0  0  0  0  0  0  0  0  0  0
    7.6185  -13.7832   26.1468 C   0  0  2  0  0  0  0  0  0  0  0  0
    8.1394  -13.3006   27.4682 C   0  0  0  0  0  0  0  0  0  0  0  0
    8.6711  -14.3260   25.2427 C   0  0  2  0  0  0  0  0  0  0  0  0
    8.0107  -14.8085   24.0187 N   0  0  0  0  0  0  0  0  0  0  0  0
    9.4676  -15.4120   25.8649 C   0  0  0  0  0  0  0  0  0  0  0  0
    8.8431  -16.3814   26.3471 O   0  0  0  0  0  0  0  0  0  0  0  0
   10.8612  -15.3989   25.9349 N   0  0  0  0  0  0  0  0  0  0  0  0
   11.6970  -16.5016   26.4265 C   0  0  1  0  0  0  0  0  0  0  0  0
   12.9947  -16.5342   25.7433 C   0  0  0  0  0  0  0  0  0  0  0  0
   13.9707  -17.5149   26.2812 C   0  0  0  0  0  0  0  0  0  0  0  0
   15.2774  -17.4900   25.5686 C   0  0  0  0  0  0  0  0  0  0  0  0
   15.6145  -16.4113   24.9617 O   0  0  0  0  0  0  0  0  0  0  0  0
   11.6749  -16.6697   27.8534 C   0  0  0  0  0  0  0  0  0  0  0  0
   11.3638  -15.8175   28.7160 O   0  0  0  0  0  0  0  0  0  0  0  0
   16.1356  -18.5577   25.5279 O   0  0  0  0  0  0  0  0  0  0  0  0
   12.0408  -17.9278   28.3752 O   0  0  0  0  0  0  0  0  0  0  0  0
  1  5  1  0
  2  1  1  0
  3  2  1  0
  3  4  1  0
  4  5  1  0
  5  6  1  1
  6  7  2  0
  9 10  1  0
  9  8  1  0
 10 12  1  0
 10 11  1  1
 12 13  1  6
 12 14  1  0
 13  6  1  0
 14 15  2  0
 14 16  1  0
 16 17  1  0
 17 22  1  0
 17 18  1  1
 19 18  1  0
 19 20  1  0
 20 21  2  0
 22 23  2  0
 22 25  1  0
 24 20  1  0
M  END
$$$$
