PIE.pdb
     RDKit          3D

 25 25  0  0  1  0  0  0  0  0999 V2000
    7.0161  -15.1945   21.1687 N   0  0  0  0  0  0  0  0  0  0  0  0
    6.2002  -14.2849   20.3678 C   0  0  0  0  0  0  0  0  0  0  0  0
    7.2352  -13.4737   19.5699 C   0  0  0  0  0  0  0  0  0  0  0  0
    8.2367  -13.2334   20.6946 C   0  0  0  0  0  0  0  0  0  0  0  0
    8.2951  -14.5833   21.3318 C   0  0  1  0  0  0  0  0  0  0  0  0
    8.7410  -14.5401   22.7452 C   0  0  0  0  0  0  0  0  0  0  0  0
    9.9501  -14.2878   22.9607 O   0  0  0  0  0  0  0  0  0  0  0  0
    6.1414  -11.8469   26.2647 C   0  0  0  0  0  0  0  0  0  0  0  0
    7.2286  -12.5901   25.5372 C   0  0  0  0  0  0  0  0  0  0  0  0
    7.4508  -13.9866   26.0688 C   0  0  2  0  0  0  0  0  0  0  0  0
    7.8344  -13.9126   27.5171 C   0  0  0  0  0  0  0  0  0  0  0  0
    8.4216  -14.7365   25.2229 C   0  0  2  0  0  0  0  0  0  0  0  0
    7.8959  -14.7643   23.8481 N   0  0  0  0  0  0  0  0  0  0  0  0
    8.6726  -16.1151   25.7101 C   0  0  0  0  0  0  0  0  0  0  0  0
    7.6804  -16.8556   25.8816 O   0  0  0  0  0  0  0  0  0  0  0  0
    9.9474  -16.6135   25.9817 N   0  0  0  0  0  0  0  0  0  0  0  0
   10.2461  -17.9746   26.4446 C   0  0  1  0  0  0  0  0  0  0  0  0
   11.1180  -18.6811   25.4998 C   0  0  0  0  0  0  0  0  0  0  0  0
   12.3611  -17.9622   25.1239 C   0  0  0  0  0  0  0  0  0  0  0  0
   13.2163  -18.7290   24.1770 C   0  0  0  0  0  0  0  0  0  0  0  0
   12.6608  -19.2423   23.1409 O   0  0  0  0  0  0  0  0  0  0  0  0
   10.5438  -18.0703   27.8471 C   0  0  0  0  0  0  0  0  0  0  0  0
   10.7379  -19.1111   28.5152 O   0  0  0  0  0  0  0  0  0  0  0  0
   14.5624  -18.9142   24.3556 O   0  0  0  0  0  0  0  0  0  0  0  0
   10.6345  -16.8723   28.5856 O   0  0  0  0  0  0  0  0  0  0  0  0
  1  5  1  0
  2  1  1  0
  3  2  1  0
  3  4  1  0
  4  5  1  0
  5  6  1  1
  6  7  2  0
  9 10  1  0
  9  8  1  0
 10 12  1  0
 10 11  1  1
 12 13  1  6
 12 14  1  0
 13  6  1  0
 14 15  2  0
 14 16  1  0
 16 17  1  0
 17 22  1  0
 17 18  1  6
 19 18  1  0
 19 20  1  0
 20 21  2  0
 22 23  2  0
 22 25  1  0
 24 20  1  0
M  END
$$$$
