GRN.pdb
     RDKit          3D

 24 23  0  0  1  0  0  0  0  0999 V2000
   28.6245  -21.0406  -17.0480 N   0  0  0  0  0  0  0  0  0  0  0  0
   27.6843  -19.9688  -17.1305 C   0  0  0  0  0  0  0  0  0  0  0  0
   26.3185  -20.3803  -16.6675 C   0  0  0  0  0  0  0  0  0  0  0  0
   25.7776  -21.3625  -17.2310 O   0  0  0  0  0  0  0  0  0  0  0  0
   24.8871  -20.2979   -9.1816 N   0  0  0  0  0  0  0  0  0  0  0  0
   25.6311  -21.3864   -9.7254 C   0  0  0  0  0  0  0  0  0  0  0  0
   25.7632  -22.5219   -9.1588 N   0  0  0  0  0  0  0  0  0  0  0  0
   26.2721  -21.1830  -10.9957 N   0  0  0  0  0  0  0  0  0  0  0  0
   25.7915  -20.2041  -11.9311 C   0  0  0  0  0  0  0  0  0  0  0  0
   24.6025  -20.7672  -12.7087 C   0  0  0  0  0  0  0  0  0  0  0  0
   24.1386  -19.7600  -13.7193 C   0  0  0  0  0  0  0  0  0  0  0  0
   24.3156  -20.1753  -15.1527 C   0  0  2  0  0  0  0  0  0  0  0  0
   25.6302  -19.7142  -15.6381 N   0  0  0  0  0  0  0  0  0  0  0  0
   23.2414  -19.6136  -15.9864 C   0  0  0  0  0  0  0  0  0  0  0  0
   23.1933  -18.4033  -16.2658 O   0  0  0  0  0  0  0  0  0  0  0  0
   26.3351  -23.2744   -9.6086 N   0  0  0  0  0  0  0  0  0  0  0  0
   19.3478  -19.1198  -19.1770 C   0  0  0  0  0  0  0  0  0  0  0  0
   19.8071  -20.4665  -19.3063 O   0  0  0  0  0  0  0  0  0  0  0  0
   19.3532  -21.2156  -20.2175 C   0  0  0  0  0  0  0  0  0  0  0  0
   20.8133  -20.9472  -18.3555 C   0  0  2  0  0  0  0  0  0  0  0  0
   21.1607  -19.9120  -17.3377 N   0  0  0  0  0  0  0  0  0  0  0  0
   22.2240  -20.4683  -16.4925 C   0  0  0  0  0  0  0  0  0  0  0  0
   20.0380  -19.5199  -16.4676 O   0  0  0  0  0  0  0  0  0  0  0  0
   19.2047  -18.4412  -16.7107 O   0  0  0  0  0  0  0  0  0  0  0  0
  1  2  1  0
  2  3  1  0
  3 13  1  0
  3  4  2  0
  5  6  1  0
  6  8  1  0
  7  6  2  0
  8  9  1  0
  9 10  1  0
 11 10  1  0
 12 11  1  1
 12 14  1  0
 13 12  1  0
 14 21  1  0
 14 15  2  0
 16 17  1  0
 17 19  1  0
 18 17  2  0
 20 19  1  6
 20 22  1  0
 21 20  1  0
 22 23  1  0
 24 22  2  0
M  END
$$$$
