GRN.pdb
     RDKit          3D

 24 23  0  0  1  0  0  0  0  0999 V2000
   27.5379  -19.8823  -19.7388 N   0  0  0  0  0  0  0  0  0  0  0  0
   27.3624  -19.1492  -18.5258 C   0  0  0  0  0  0  0  0  0  0  0  0
   26.6469  -19.9521  -17.4806 C   0  0  0  0  0  0  0  0  0  0  0  0
   25.8765  -20.8650  -17.8653 O   0  0  0  0  0  0  0  0  0  0  0  0
   23.8613  -20.5330   -9.7239 N   0  0  0  0  0  0  0  0  0  0  0  0
   25.2358  -20.7003   -9.3825 C   0  0  0  0  0  0  0  0  0  0  0  0
   25.7905  -20.1828   -8.3566 N   0  0  0  0  0  0  0  0  0  0  0  0
   26.0435  -21.5058  -10.2570 N   0  0  0  0  0  0  0  0  0  0  0  0
   26.7691  -20.9273  -11.3539 C   0  0  0  0  0  0  0  0  0  0  0  0
   25.9186  -20.9740  -12.6227 C   0  0  0  0  0  0  0  0  0  0  0  0
   26.6579  -20.3148  -13.7496 C   0  0  0  0  0  0  0  0  0  0  0  0
   25.9982  -20.4355  -15.0944 C   0  0  2  0  0  0  0  0  0  0  0  0
   26.8054  -19.7223  -16.1024 N   0  0  0  0  0  0  0  0  0  0  0  0
   24.6363  -19.8806  -15.0499 C   0  0  0  0  0  0  0  0  0  0  0  0
   24.4260  -18.6774  -14.8191 O   0  0  0  0  0  0  0  0  0  0  0  0
   26.8153  -20.3121   -8.1874 N   0  0  0  0  0  0  0  0  0  0  0  0
   19.4941  -20.0787  -17.7552 C   0  0  0  0  0  0  0  0  0  0  0  0
   20.3896  -19.4782  -16.8179 O   0  0  0  0  0  0  0  0  0  0  0  0
   20.0198  -18.4951  -16.1148 C   0  0  0  0  0  0  0  0  0  0  0  0
   21.7403  -20.0344  -16.6994 C   0  0  2  0  0  0  0  0  0  0  0  0
   22.1648  -20.1733  -15.2751 N   0  0  0  0  0  0  0  0  0  0  0  0
   23.5215  -20.7339  -15.2752 C   0  0  0  0  0  0  0  0  0  0  0  0
   21.3016  -21.0562  -14.4709 O   0  0  0  0  0  0  0  0  0  0  0  0
   20.1720  -20.6320  -13.7917 O   0  0  0  0  0  0  0  0  0  0  0  0
  1  2  1  0
  2  3  1  0
  3 13  1  0
  3  4  2  0
  5  6  1  0
  6  8  1  0
  7  6  2  0
  8  9  1  0
  9 10  1  0
 11 10  1  0
 12 11  1  1
 12 14  1  0
 13 12  1  0
 14 21  1  0
 14 15  2  0
 16 17  1  0
 17 19  1  0
 18 17  2  0
 20 19  1  6
 20 22  1  0
 21 20  1  0
 22 23  1  0
 24 22  2  0
M  END
$$$$
