GRN.pdb
     RDKit          3D

 24 23  0  0  1  0  0  0  0  0999 V2000
   12.9952  -12.6200  -11.9604 N   0  0  0  0  0  0  0  0  0  0  0  0
   13.5856  -11.5598  -12.7134 C   0  0  0  0  0  0  0  0  0  0  0  0
   14.7411  -10.9321  -11.9923 C   0  0  0  0  0  0  0  0  0  0  0  0
   14.8666  -11.1667  -10.7659 O   0  0  0  0  0  0  0  0  0  0  0  0
   20.6971   -6.5471  -10.3498 N   0  0  0  0  0  0  0  0  0  0  0  0
   21.0854   -6.3559  -11.7087 C   0  0  0  0  0  0  0  0  0  0  0  0
   21.2745   -5.2158  -12.2494 N   0  0  0  0  0  0  0  0  0  0  0  0
   21.2735   -7.5298  -12.5165 N   0  0  0  0  0  0  0  0  0  0  0  0
   20.1648   -8.1975  -13.1404 C   0  0  0  0  0  0  0  0  0  0  0  0
   19.0537   -8.4286  -12.1169 C   0  0  0  0  0  0  0  0  0  0  0  0
   17.9008   -9.1286  -12.7740 C   0  0  0  0  0  0  0  0  0  0  0  0
   16.7180   -9.3741  -11.8800 C   0  0  2  0  0  0  0  0  0  0  0  0
   15.6773  -10.1006  -12.6321 N   0  0  0  0  0  0  0  0  0  0  0  0
   16.1828   -8.1000  -11.3752 C   0  0  0  0  0  0  0  0  0  0  0  0
   15.6585   -7.2638  -12.1308 O   0  0  0  0  0  0  0  0  0  0  0  0
   21.5520   -5.1473  -13.2563 N   0  0  0  0  0  0  0  0  0  0  0  0
   14.8527   -4.3787   -8.1074 C   0  0  0  0  0  0  0  0  0  0  0  0
   14.3980   -5.6429   -7.6212 O   0  0  0  0  0  0  0  0  0  0  0  0
   13.6106   -5.7066   -6.6346 C   0  0  0  0  0  0  0  0  0  0  0  0
   14.8708   -6.8537   -8.2981 C   0  0  1  0  0  0  0  0  0  0  0  0
   15.7243   -6.5361   -9.4808 N   0  0  0  0  0  0  0  0  0  0  0  0
   16.2616   -7.8051   -9.9864 C   0  0  0  0  0  0  0  0  0  0  0  0
   16.8571   -5.6413   -9.1853 O   0  0  0  0  0  0  0  0  0  0  0  0
   18.1791   -6.0499   -9.1346 O   0  0  0  0  0  0  0  0  0  0  0  0
  1  2  1  0
  2  3  1  0
  3 13  1  0
  3  4  2  0
  5  6  1  0
  6  8  1  0
  7  6  2  0
  8  9  1  0
  9 10  1  0
 11 10  1  0
 12 11  1  6
 12 14  1  0
 13 12  1  0
 14 21  1  0
 14 15  2  0
 16 17  1  0
 17 19  1  0
 18 17  2  0
 20 19  1  6
 20 22  1  0
 21 20  1  0
 22 23  1  0
 24 22  2  0
M  END
$$$$
