GRN.pdb
     RDKit          3D

 24 23  0  0  1  0  0  0  0  0999 V2000
   17.8028  -14.7524  -15.8397 N   0  0  0  0  0  0  0  0  0  0  0  0
   18.2820  -14.0095  -16.9614 C   0  0  0  0  0  0  0  0  0  0  0  0
   19.5077  -13.2124  -16.6275 C   0  0  0  0  0  0  0  0  0  0  0  0
   19.6478  -12.8165  -15.4449 O   0  0  0  0  0  0  0  0  0  0  0  0
   27.1010  -13.0972  -15.6480 N   0  0  0  0  0  0  0  0  0  0  0  0
   27.2697  -11.8602  -16.3376 C   0  0  0  0  0  0  0  0  0  0  0  0
   28.3424  -11.1694  -16.3241 N   0  0  0  0  0  0  0  0  0  0  0  0
   26.1531  -11.3652  -17.0952 N   0  0  0  0  0  0  0  0  0  0  0  0
   24.9446  -12.1291  -17.2378 C   0  0  0  0  0  0  0  0  0  0  0  0
   23.9319  -11.3492  -18.0754 C   0  0  0  0  0  0  0  0  0  0  0  0
   22.7061  -12.1866  -18.2927 C   0  0  0  0  0  0  0  0  0  0  0  0
   21.6270  -12.0067  -17.2624 C   0  0  2  0  0  0  0  0  0  0  0  0
   20.4934  -12.8962  -17.5791 N   0  0  0  0  0  0  0  0  0  0  0  0
   21.1784  -10.6059  -17.2280 C   0  0  0  0  0  0  0  0  0  0  0  0
   20.3887  -10.1496  -18.0725 O   0  0  0  0  0  0  0  0  0  0  0  0
   28.3999  -10.2711  -16.8581 N   0  0  0  0  0  0  0  0  0  0  0  0
   19.5508   -5.9976  -15.1984 C   0  0  0  0  0  0  0  0  0  0  0  0
   20.7657   -6.4993  -14.6387 O   0  0  0  0  0  0  0  0  0  0  0  0
   21.5686   -5.7238  -14.0457 C   0  0  0  0  0  0  0  0  0  0  0  0
   21.0488   -7.9309  -14.7736 C   0  0  1  0  0  0  0  0  0  0  0  0
   21.2463   -8.3300  -16.1983 N   0  0  0  0  0  0  0  0  0  0  0  0
   21.6544   -9.7400  -16.2055 C   0  0  0  0  0  0  0  0  0  0  0  0
   22.2751   -7.5489  -16.9073 O   0  0  0  0  0  0  0  0  0  0  0  0
   22.0739   -6.2766  -17.4153 O   0  0  0  0  0  0  0  0  0  0  0  0
  1  2  1  0
  2  3  1  0
  3 13  1  0
  3  4  2  0
  5  6  1  0
  6  8  1  0
  7  6  2  0
  8  9  1  0
  9 10  1  0
 11 10  1  0
 12 11  1  6
 12 14  1  0
 13 12  1  0
 14 21  1  0
 14 15  2  0
 16 17  1  0
 17 19  1  0
 18 17  2  0
 20 19  1  6
 20 22  1  0
 21 20  1  0
 22 23  1  0
 24 22  2  0
M  END
$$$$
