GRN.pdb
     RDKit          3D

 24 23  0  0  1  0  0  0  0  0999 V2000
   26.0611  -25.8660  -16.7087 N   0  0  0  0  0  0  0  0  0  0  0  0
   26.4223  -24.5245  -17.0396 C   0  0  0  0  0  0  0  0  0  0  0  0
   25.9163  -23.5389  -16.0288 C   0  0  0  0  0  0  0  0  0  0  0  0
   24.9786  -23.8976  -15.2758 O   0  0  0  0  0  0  0  0  0  0  0  0
   24.9524  -21.3388  -10.5620 N   0  0  0  0  0  0  0  0  0  0  0  0
   25.9283  -20.4799   -9.9756 C   0  0  0  0  0  0  0  0  0  0  0  0
   26.1183  -20.3585   -8.7198 N   0  0  0  0  0  0  0  0  0  0  0  0
   26.7477  -19.7023  -10.8643 N   0  0  0  0  0  0  0  0  0  0  0  0
   26.4120  -19.5475  -12.2527 C   0  0  0  0  0  0  0  0  0  0  0  0
   27.3835  -20.3516  -13.1157 C   0  0  0  0  0  0  0  0  0  0  0  0
   26.9570  -20.2829  -14.5525 C   0  0  0  0  0  0  0  0  0  0  0  0
   25.8891  -21.2658  -14.9425 C   0  0  2  0  0  0  0  0  0  0  0  0
   26.4472  -22.2437  -15.8957 N   0  0  0  0  0  0  0  0  0  0  0  0
   24.7434  -20.5668  -15.5451 C   0  0  0  0  0  0  0  0  0  0  0  0
   24.7592  -20.1793  -16.7261 O   0  0  0  0  0  0  0  0  0  0  0  0
   26.8128  -19.6660   -8.3542 N   0  0  0  0  0  0  0  0  0  0  0  0
   22.8494  -21.6981  -18.6368 C   0  0  0  0  0  0  0  0  0  0  0  0
   21.9369  -21.1585  -17.6790 O   0  0  0  0  0  0  0  0  0  0  0  0
   20.9829  -20.4158  -18.0476 C   0  0  0  0  0  0  0  0  0  0  0  0
   22.1416  -21.4911  -16.2665 C   0  0  2  0  0  0  0  0  0  0  0  0
   22.2654  -20.2701  -15.4168 N   0  0  0  0  0  0  0  0  0  0  0  0
   23.5799  -20.3214  -14.7655 C   0  0  0  0  0  0  0  0  0  0  0  0
   21.2360  -20.1568  -14.3686 O   0  0  0  0  0  0  0  0  0  0  0  0
   20.0552  -19.4477  -14.5108 O   0  0  0  0  0  0  0  0  0  0  0  0
  1  2  1  0
  2  3  1  0
  3 13  1  0
  3  4  2  0
  5  6  1  0
  6  8  1  0
  7  6  2  0
  8  9  1  0
  9 10  1  0
 11 10  1  0
 12 11  1  6
 12 14  1  0
 13 12  1  0
 14 21  1  0
 14 15  2  0
 16 17  1  0
 17 19  1  0
 18 17  2  0
 20 19  1  6
 20 22  1  0
 21 20  1  0
 22 23  1  0
 24 22  2  0
M  END
$$$$
