GRN.pdb
     RDKit          3D

 24 23  0  0  1  0  0  0  0  0999 V2000
   24.5036  -20.2102  -19.3158 N   0  0  0  0  0  0  0  0  0  0  0  0
   23.6656  -19.4669  -18.4299 C   0  0  0  0  0  0  0  0  0  0  0  0
   23.1996  -20.2936  -17.2686 C   0  0  0  0  0  0  0  0  0  0  0  0
   22.9009  -21.4934  -17.4830 O   0  0  0  0  0  0  0  0  0  0  0  0
   25.4336  -21.0239   -9.0141 N   0  0  0  0  0  0  0  0  0  0  0  0
   25.9201  -20.9610  -10.3532 C   0  0  0  0  0  0  0  0  0  0  0  0
   27.0681  -21.3783  -10.7220 N   0  0  0  0  0  0  0  0  0  0  0  0
   25.0547  -20.3878  -11.3474 N   0  0  0  0  0  0  0  0  0  0  0  0
   23.6452  -20.2322  -11.1163 C   0  0  0  0  0  0  0  0  0  0  0  0
   22.8591  -20.7832  -12.3054 C   0  0  0  0  0  0  0  0  0  0  0  0
   23.2900  -20.0851  -13.5616 C   0  0  0  0  0  0  0  0  0  0  0  0
   22.6819  -20.6253  -14.8252 C   0  0  2  0  0  0  0  0  0  0  0  0
   23.0865  -19.7799  -15.9645 N   0  0  0  0  0  0  0  0  0  0  0  0
   21.2152  -20.6602  -14.7150 C   0  0  0  0  0  0  0  0  0  0  0  0
   20.5285  -19.6258  -14.7752 O   0  0  0  0  0  0  0  0  0  0  0  0
   27.4113  -21.1933  -11.6933 N   0  0  0  0  0  0  0  0  0  0  0  0
   17.9642  -23.8968  -12.1312 C   0  0  0  0  0  0  0  0  0  0  0  0
   19.0001  -23.9173  -13.1148 O   0  0  0  0  0  0  0  0  0  0  0  0
   20.1453  -24.3716  -12.8328 C   0  0  0  0  0  0  0  0  0  0  0  0
   18.6942  -23.3981  -14.4507 C   0  0  1  0  0  0  0  0  0  0  0  0
   19.0876  -21.9657  -14.5976 N   0  0  0  0  0  0  0  0  0  0  0  0
   20.5529  -21.9054  -14.5343 C   0  0  0  0  0  0  0  0  0  0  0  0
   18.5445  -21.0800  -13.5527 O   0  0  0  0  0  0  0  0  0  0  0  0
   17.2794  -20.5183  -13.5888 O   0  0  0  0  0  0  0  0  0  0  0  0
  1  2  1  0
  2  3  1  0
  3 13  1  0
  3  4  2  0
  5  6  1  0
  6  8  1  0
  7  6  2  0
  8  9  1  0
  9 10  1  0
 11 10  1  0
 12 11  1  1
 12 14  1  0
 13 12  1  0
 14 21  1  0
 14 15  2  0
 16 17  1  0
 17 19  1  0
 18 17  2  0
 20 19  1  6
 20 22  1  0
 21 20  1  0
 22 23  1  0
 24 22  2  0
M  END
$$$$
