GRN.pdb
     RDKit          3D

 24 23  0  0  1  0  0  0  0  0999 V2000
   25.5300  -19.9477  -20.5424 N   0  0  0  0  0  0  0  0  0  0  0  0
   25.2833  -18.9614  -19.5393 C   0  0  0  0  0  0  0  0  0  0  0  0
   24.6880  -19.5566  -18.2981 C   0  0  0  0  0  0  0  0  0  0  0  0
   23.7588  -20.3893  -18.4324 O   0  0  0  0  0  0  0  0  0  0  0  0
   26.5952  -20.7122  -10.2741 N   0  0  0  0  0  0  0  0  0  0  0  0
   25.2001  -21.0039  -10.3277 C   0  0  0  0  0  0  0  0  0  0  0  0
   24.3885  -20.8180   -9.3609 N   0  0  0  0  0  0  0  0  0  0  0  0
   24.6817  -21.5435  -11.5549 N   0  0  0  0  0  0  0  0  0  0  0  0
   25.2402  -21.1831  -12.8287 C   0  0  0  0  0  0  0  0  0  0  0  0
   24.6797  -19.8349  -13.2799 C   0  0  0  0  0  0  0  0  0  0  0  0
   25.2964  -19.4460  -14.5912 C   0  0  0  0  0  0  0  0  0  0  0  0
   24.4352  -19.7033  -15.7956 C   0  0  2  0  0  0  0  0  0  0  0  0
   25.1273  -19.2199  -17.0055 N   0  0  0  0  0  0  0  0  0  0  0  0
   23.1356  -19.0290  -15.6510 C   0  0  0  0  0  0  0  0  0  0  0  0
   23.0475  -17.7956  -15.5243 O   0  0  0  0  0  0  0  0  0  0  0  0
   23.3641  -20.9895   -9.4897 N   0  0  0  0  0  0  0  0  0  0  0  0
   19.3939  -20.2630  -18.7290 C   0  0  0  0  0  0  0  0  0  0  0  0
   19.7190  -19.3411  -17.6871 O   0  0  0  0  0  0  0  0  0  0  0  0
   20.0611  -18.1557  -17.9614 C   0  0  0  0  0  0  0  0  0  0  0  0
   19.6438  -19.8110  -16.3010 C   0  0  2  0  0  0  0  0  0  0  0  0
   20.6491  -19.1375  -15.4270 N   0  0  0  0  0  0  0  0  0  0  0  0
   21.9399  -19.7984  -15.6546 C   0  0  0  0  0  0  0  0  0  0  0  0
   20.3424  -19.2091  -13.9875 O   0  0  0  0  0  0  0  0  0  0  0  0
   21.0145  -20.0190  -13.0878 O   0  0  0  0  0  0  0  0  0  0  0  0
  1  2  1  0
  2  3  1  0
  3 13  1  0
  3  4  2  0
  5  6  1  0
  6  8  1  0
  7  6  2  0
  8  9  1  0
  9 10  1  0
 11 10  1  0
 12 11  1  1
 12 14  1  0
 13 12  1  0
 14 21  1  0
 14 15  2  0
 16 17  1  0
 17 19  1  0
 18 17  2  0
 20 19  1  6
 20 22  1  0
 21 20  1  0
 22 23  1  0
 24 22  2  0
M  END
$$$$
