GRN.pdb
     RDKit          3D

 24 23  0  0  1  0  0  0  0  0999 V2000
   24.9740  -12.5391  -16.5140 N   0  0  0  0  0  0  0  0  0  0  0  0
   25.4131  -13.3180  -15.4004 C   0  0  0  0  0  0  0  0  0  0  0  0
   25.3540  -14.7895  -15.6836 C   0  0  0  0  0  0  0  0  0  0  0  0
   24.9042  -15.1568  -16.7960 O   0  0  0  0  0  0  0  0  0  0  0  0
   26.6893  -20.7723  -10.8092 N   0  0  0  0  0  0  0  0  0  0  0  0
   26.4187  -21.6021  -11.9371 C   0  0  0  0  0  0  0  0  0  0  0  0
   25.5143  -22.5014  -11.9683 N   0  0  0  0  0  0  0  0  0  0  0  0
   27.2227  -21.4069  -13.1125 N   0  0  0  0  0  0  0  0  0  0  0  0
   27.6743  -20.1006  -13.5049 C   0  0  0  0  0  0  0  0  0  0  0  0
   26.6421  -19.4473  -14.4231 C   0  0  0  0  0  0  0  0  0  0  0  0
   26.6059  -17.9690  -14.1696 C   0  0  0  0  0  0  0  0  0  0  0  0
   25.6334  -17.2050  -15.0234 C   0  0  2  0  0  0  0  0  0  0  0  0
   25.7788  -15.7607  -14.7597 N   0  0  0  0  0  0  0  0  0  0  0  0
   24.2550  -17.6357  -14.7425 C   0  0  0  0  0  0  0  0  0  0  0  0
   23.6893  -17.3647  -13.6694 O   0  0  0  0  0  0  0  0  0  0  0  0
   25.4454  -23.1545  -12.7834 N   0  0  0  0  0  0  0  0  0  0  0  0
   21.6168  -16.4190  -18.1078 C   0  0  0  0  0  0  0  0  0  0  0  0
   21.2073  -16.9900  -16.8639 O   0  0  0  0  0  0  0  0  0  0  0  0
   20.7284  -16.2614  -15.9489 C   0  0  0  0  0  0  0  0  0  0  0  0
   21.3595  -18.4366  -16.6847 C   0  0  2  0  0  0  0  0  0  0  0  0
   22.1464  -18.7686  -15.4605 N   0  0  0  0  0  0  0  0  0  0  0  0
   23.5394  -18.3835  -15.7175 C   0  0  0  0  0  0  0  0  0  0  0  0
   22.1228  -20.1961  -15.0960 O   0  0  0  0  0  0  0  0  0  0  0  0
   21.0781  -20.8114  -14.4271 O   0  0  0  0  0  0  0  0  0  0  0  0
  1  2  1  0
  2  3  1  0
  3 13  1  0
  3  4  2  0
  5  6  1  0
  6  8  1  0
  7  6  2  0
  8  9  1  0
  9 10  1  0
 11 10  1  0
 12 11  1  1
 12 14  1  0
 13 12  1  0
 14 21  1  0
 14 15  2  0
 16 17  1  0
 17 19  1  0
 18 17  2  0
 20 19  1  1
 20 22  1  0
 21 20  1  0
 22 23  1  0
 24 22  2  0
M  END
$$$$
