GRN.pdb
     RDKit          3D

 24 23  0  0  1  0  0  0  0  0999 V2000
   29.0032  -20.6581  -19.1698 N   0  0  0  0  0  0  0  0  0  0  0  0
   28.6228  -19.5466  -18.3578 C   0  0  0  0  0  0  0  0  0  0  0  0
   27.8036  -19.9675  -17.1742 C   0  0  0  0  0  0  0  0  0  0  0  0
   27.0426  -20.9565  -17.3073 O   0  0  0  0  0  0  0  0  0  0  0  0
   25.4820  -20.6233   -9.1485 N   0  0  0  0  0  0  0  0  0  0  0  0
   24.6936  -21.0008  -10.2755 C   0  0  0  0  0  0  0  0  0  0  0  0
   23.4323  -21.1898  -10.2404 N   0  0  0  0  0  0  0  0  0  0  0  0
   25.3720  -21.1789  -11.5301 N   0  0  0  0  0  0  0  0  0  0  0  0
   26.6850  -20.6412  -11.7568 C   0  0  0  0  0  0  0  0  0  0  0  0
   26.5769  -19.2411  -12.3596 C   0  0  0  0  0  0  0  0  0  0  0  0
   27.4981  -19.1274  -13.5383 C   0  0  0  0  0  0  0  0  0  0  0  0
   26.9288  -19.6281  -14.8359 C   0  0  2  0  0  0  0  0  0  0  0  0
   27.8562  -19.3028  -15.9362 N   0  0  0  0  0  0  0  0  0  0  0  0
   25.6118  -19.0223  -15.0865 C   0  0  0  0  0  0  0  0  0  0  0  0
   25.4727  -17.7968  -15.2415 O   0  0  0  0  0  0  0  0  0  0  0  0
   22.9085  -21.4282  -11.1146 N   0  0  0  0  0  0  0  0  0  0  0  0
   20.8527  -19.3094  -18.3762 C   0  0  0  0  0  0  0  0  0  0  0  0
   21.4910  -18.8988  -17.1658 O   0  0  0  0  0  0  0  0  0  0  0  0
   20.9803  -17.9952  -16.4445 C   0  0  0  0  0  0  0  0  0  0  0  0
   22.7472  -19.5539  -16.7909 C   0  0  2  0  0  0  0  0  0  0  0  0
   23.1407  -19.2453  -15.3844 N   0  0  0  0  0  0  0  0  0  0  0  0
   24.4582  -19.8507  -15.1555 C   0  0  0  0  0  0  0  0  0  0  0  0
   22.2105  -19.7684  -14.3684 O   0  0  0  0  0  0  0  0  0  0  0  0
   21.0546  -19.1216  -13.9649 O   0  0  0  0  0  0  0  0  0  0  0  0
  1  2  1  0
  2  3  1  0
  3 13  1  0
  3  4  2  0
  5  6  1  0
  6  8  1  0
  7  6  2  0
  8  9  1  0
  9 10  1  0
 11 10  1  0
 12 11  1  1
 12 14  1  0
 13 12  1  0
 14 21  1  0
 14 15  2  0
 16 17  1  0
 17 19  1  0
 18 17  2  0
 20 19  1  6
 20 22  1  0
 21 20  1  0
 22 23  1  0
 24 22  2  0
M  END
$$$$
