GRN.pdb
     RDKit          3D

 24 23  0  0  1  0  0  0  0  0999 V2000
   27.8955  -19.1264  -16.2003 N   0  0  0  0  0  0  0  0  0  0  0  0
   27.8439  -18.9279  -14.7869 C   0  0  0  0  0  0  0  0  0  0  0  0
   27.0728  -20.0112  -14.0934 C   0  0  0  0  0  0  0  0  0  0  0  0
   26.5252  -20.8897  -14.8027 O   0  0  0  0  0  0  0  0  0  0  0  0
   31.5003  -21.9588   -9.2914 N   0  0  0  0  0  0  0  0  0  0  0  0
   31.1721  -21.9289  -10.6790 C   0  0  0  0  0  0  0  0  0  0  0  0
   31.7156  -22.6710  -11.5631 N   0  0  0  0  0  0  0  0  0  0  0  0
   30.1617  -20.9981  -11.1019 N   0  0  0  0  0  0  0  0  0  0  0  0
   28.9873  -20.7541  -10.3110 C   0  0  0  0  0  0  0  0  0  0  0  0
   27.9786  -21.8838  -10.5152 C   0  0  0  0  0  0  0  0  0  0  0  0
   26.5965  -21.3111  -10.6290 C   0  0  0  0  0  0  0  0  0  0  0  0
   26.1122  -21.1041  -12.0365 C   0  0  2  0  0  0  0  0  0  0  0  0
   26.9425  -20.0777  -12.6949 N   0  0  0  0  0  0  0  0  0  0  0  0
   24.6999  -20.6917  -12.0380 C   0  0  0  0  0  0  0  0  0  0  0  0
   24.3322  -19.6104  -11.5474 O   0  0  0  0  0  0  0  0  0  0  0  0
   32.4888  -23.3262  -11.3014 N   0  0  0  0  0  0  0  0  0  0  0  0
   21.1302  -19.1452  -15.8896 C   0  0  0  0  0  0  0  0  0  0  0  0
   21.3860  -19.3678  -14.5018 O   0  0  0  0  0  0  0  0  0  0  0  0
   20.5683  -18.9671  -13.6252 C   0  0  0  0  0  0  0  0  0  0  0  0
   22.6176  -20.0700  -14.1305 C   0  0  2  0  0  0  0  0  0  0  0  0
   22.4067  -20.9997  -12.9819 N   0  0  0  0  0  0  0  0  0  0  0  0
   23.7187  -21.5450  -12.6133 C   0  0  0  0  0  0  0  0  0  0  0  0
   21.5049  -22.1275  -13.2754 O   0  0  0  0  0  0  0  0  0  0  0  0
   20.1661  -22.1654  -12.9241 O   0  0  0  0  0  0  0  0  0  0  0  0
  1  2  1  0
  2  3  1  0
  3 13  1  0
  3  4  2  0
  5  6  1  0
  6  8  1  0
  7  6  2  0
  8  9  1  0
  9 10  1  0
 11 10  1  0
 12 11  1  1
 12 14  1  0
 13 12  1  0
 14 21  1  0
 14 15  2  0
 16 17  1  0
 17 19  1  0
 18 17  2  0
 20 19  1  1
 20 22  1  0
 21 20  1  0
 22 23  1  0
 24 22  2  0
M  END
$$$$
