GRN.pdb
     RDKit          3D

 24 23  0  0  1  0  0  0  0  0999 V2000
   26.1604  -24.6649  -16.4237 N   0  0  0  0  0  0  0  0  0  0  0  0
   26.2335  -23.6591  -15.4125 C   0  0  0  0  0  0  0  0  0  0  0  0
   25.1878  -22.5996  -15.5947 C   0  0  0  0  0  0  0  0  0  0  0  0
   24.8826  -22.2699  -16.7665 O   0  0  0  0  0  0  0  0  0  0  0  0
   18.8687  -22.6691  -14.1071 N   0  0  0  0  0  0  0  0  0  0  0  0
   19.1107  -23.5440  -13.0071 C   0  0  0  0  0  0  0  0  0  0  0  0
   18.5667  -24.6893  -12.8654 N   0  0  0  0  0  0  0  0  0  0  0  0
   20.0289  -23.0988  -11.9948 N   0  0  0  0  0  0  0  0  0  0  0  0
   20.8289  -21.9187  -12.1732 C   0  0  0  0  0  0  0  0  0  0  0  0
   21.7443  -22.0890  -13.3850 C   0  0  0  0  0  0  0  0  0  0  0  0
   22.6078  -20.8719  -13.5394 C   0  0  0  0  0  0  0  0  0  0  0  0
   23.5432  -20.9056  -14.7151 C   0  0  2  0  0  0  0  0  0  0  0  0
   24.5451  -21.9698  -14.5143 N   0  0  0  0  0  0  0  0  0  0  0  0
   24.2107  -19.6046  -14.8776 C   0  0  0  0  0  0  0  0  0  0  0  0
   25.3433  -19.3865  -14.4142 O   0  0  0  0  0  0  0  0  0  0  0  0
   18.8258  -25.3018  -12.0572 N   0  0  0  0  0  0  0  0  0  0  0  0
   26.9660  -16.8596  -18.3436 C   0  0  0  0  0  0  0  0  0  0  0  0
   26.6658  -17.5094  -17.1072 O   0  0  0  0  0  0  0  0  0  0  0  0
   27.4450  -17.4002  -16.1180 C   0  0  0  0  0  0  0  0  0  0  0  0
   25.4350  -18.3005  -17.0239 C   0  0  2  0  0  0  0  0  0  0  0  0
   24.3449  -17.5660  -16.3166 N   0  0  0  0  0  0  0  0  0  0  0  0
   23.5524  -18.5595  -15.5821 C   0  0  0  0  0  0  0  0  0  0  0  0
   23.4387  -16.8231  -17.2101 O   0  0  0  0  0  0  0  0  0  0  0  0
   22.2541  -17.3318  -17.7152 O   0  0  0  0  0  0  0  0  0  0  0  0
  1  2  1  0
  2  3  1  0
  3 13  1  0
  3  4  2  0
  5  6  1  0
  6  8  1  0
  7  6  2  0
  8  9  1  0
  9 10  1  0
 11 10  1  0
 12 11  1  1
 12 14  1  0
 13 12  1  0
 14 21  1  0
 14 15  2  0
 16 17  1  0
 17 19  1  0
 18 17  2  0
 20 19  1  1
 20 22  1  0
 21 20  1  0
 22 23  1  0
 24 22  2  0
M  END
$$$$
