GRN.pdb
     RDKit          3D

 24 23  0  0  1  0  0  0  0  0999 V2000
   26.4843  -22.1484  -17.7091 N   0  0  0  0  0  0  0  0  0  0  0  0
   26.8423  -21.1672  -16.7351 C   0  0  0  0  0  0  0  0  0  0  0  0
   26.3333  -21.5177  -15.3686 C   0  0  0  0  0  0  0  0  0  0  0  0
   25.4597  -22.4141  -15.2784 O   0  0  0  0  0  0  0  0  0  0  0  0
   30.3329  -21.0438   -7.9021 N   0  0  0  0  0  0  0  0  0  0  0  0
   30.3377  -21.7571   -9.1371 C   0  0  0  0  0  0  0  0  0  0  0  0
   31.3465  -22.3859   -9.6009 N   0  0  0  0  0  0  0  0  0  0  0  0
   29.1226  -21.7630   -9.9048 N   0  0  0  0  0  0  0  0  0  0  0  0
   27.9400  -21.0896   -9.4440 C   0  0  0  0  0  0  0  0  0  0  0  0
   26.7922  -21.3236  -10.4253 C   0  0  0  0  0  0  0  0  0  0  0  0
   27.2207  -20.9249  -11.8067 C   0  0  0  0  0  0  0  0  0  0  0  0
   26.1937  -21.1573  -12.8789 C   0  0  2  0  0  0  0  0  0  0  0  0
   26.7933  -20.8865  -14.1993 N   0  0  0  0  0  0  0  0  0  0  0  0
   25.0238  -20.2910  -12.6656 C   0  0  0  0  0  0  0  0  0  0  0  0
   25.0656  -19.0678  -12.8826 O   0  0  0  0  0  0  0  0  0  0  0  0
   31.2930  -22.8569  -10.5341 N   0  0  0  0  0  0  0  0  0  0  0  0
   21.0125  -18.9386  -15.3448 C   0  0  0  0  0  0  0  0  0  0  0  0
   21.0424  -20.1354  -14.5650 O   0  0  0  0  0  0  0  0  0  0  0  0
   19.9770  -20.7702  -14.3209 C   0  0  0  0  0  0  0  0  0  0  0  0
   22.3380  -20.5991  -14.0611 C   0  0  1  0  0  0  0  0  0  0  0  0
   22.5254  -20.2730  -12.6165 N   0  0  0  0  0  0  0  0  0  0  0  0
   23.8057  -20.8566  -12.1984 C   0  0  0  0  0  0  0  0  0  0  0  0
   21.4687  -20.8015  -11.7361 O   0  0  0  0  0  0  0  0  0  0  0  0
   21.4466  -22.0920  -11.2347 O   0  0  0  0  0  0  0  0  0  0  0  0
  1  2  1  0
  2  3  1  0
  3 13  1  0
  3  4  2  0
  5  6  1  0
  6  8  1  0
  7  6  2  0
  8  9  1  0
  9 10  1  0
 11 10  1  0
 12 11  1  1
 12 14  1  0
 13 12  1  0
 14 21  1  0
 14 15  2  0
 16 17  1  0
 17 19  1  0
 18 17  2  0
 20 19  1  6
 20 22  1  0
 21 20  1  0
 22 23  1  0
 24 22  2  0
M  END
$$$$
