GRN.pdb
     RDKit          3D

 24 23  0  0  1  0  0  0  0  0999 V2000
   16.5287  -21.7577  -11.7782 N   0  0  0  0  0  0  0  0  0  0  0  0
   17.6588  -22.4448  -12.3170 C   0  0  0  0  0  0  0  0  0  0  0  0
   18.8181  -21.5234  -12.5542 C   0  0  0  0  0  0  0  0  0  0  0  0
   18.6284  -20.2910  -12.4128 O   0  0  0  0  0  0  0  0  0  0  0  0
   27.4562  -21.8707  -11.5590 N   0  0  0  0  0  0  0  0  0  0  0  0
   27.3147  -20.7350  -12.4099 C   0  0  0  0  0  0  0  0  0  0  0  0
   28.2564  -19.9184  -12.6826 N   0  0  0  0  0  0  0  0  0  0  0  0
   26.0227  -20.5008  -12.9945 N   0  0  0  0  0  0  0  0  0  0  0  0
   24.8756  -21.2796  -12.6176 C   0  0  0  0  0  0  0  0  0  0  0  0
   23.7028  -20.9603  -13.5438 C   0  0  0  0  0  0  0  0  0  0  0  0
   22.5057  -21.7687  -13.1383 C   0  0  0  0  0  0  0  0  0  0  0  0
   21.1886  -21.0570  -13.2693 C   0  0  2  0  0  0  0  0  0  0  0  0
   20.0939  -21.9841  -12.9249 N   0  0  0  0  0  0  0  0  0  0  0  0
   21.0125  -20.5509  -14.6395 C   0  0  0  0  0  0  0  0  0  0  0  0
   20.7421  -21.3073  -15.5881 O   0  0  0  0  0  0  0  0  0  0  0  0
   28.0750  -19.0853  -13.2896 N   0  0  0  0  0  0  0  0  0  0  0  0
   19.4701  -15.9087  -17.7540 C   0  0  0  0  0  0  0  0  0  0  0  0
   20.7275  -16.5285  -17.4790 O   0  0  0  0  0  0  0  0  0  0  0  0
   21.6453  -16.5336  -18.3480 C   0  0  0  0  0  0  0  0  0  0  0  0
   20.9171  -17.1534  -16.1670 C   0  0  1  0  0  0  0  0  0  0  0  0
   20.9069  -18.6437  -16.2508 N   0  0  0  0  0  0  0  0  0  0  0  0
   21.1534  -19.1600  -14.8990 C   0  0  0  0  0  0  0  0  0  0  0  0
   21.9288  -19.2050  -17.1518 O   0  0  0  0  0  0  0  0  0  0  0  0
   21.6782  -19.6252  -18.4471 O   0  0  0  0  0  0  0  0  0  0  0  0
  1  2  1  0
  2  3  1  0
  3 13  1  0
  3  4  2  0
  5  6  1  0
  6  8  1  0
  7  6  2  0
  8  9  1  0
  9 10  1  0
 11 10  1  0
 12 11  1  6
 12 14  1  0
 13 12  1  0
 14 21  1  0
 14 15  2  0
 16 17  1  0
 17 19  1  0
 18 17  2  0
 20 19  1  1
 20 22  1  0
 21 20  1  0
 22 23  1  0
 24 22  2  0
M  END
$$$$
