GRN.pdb
     RDKit          3D

 24 23  0  0  1  0  0  0  0  0999 V2000
   28.4957  -18.6629  -17.7316 N   0  0  0  0  0  0  0  0  0  0  0  0
   27.6673  -17.9582  -16.8060 C   0  0  0  0  0  0  0  0  0  0  0  0
   26.8304  -18.8874  -15.9781 C   0  0  0  0  0  0  0  0  0  0  0  0
   26.1395  -19.7474  -16.5762 O   0  0  0  0  0  0  0  0  0  0  0  0
   23.1353  -19.9439   -9.4916 N   0  0  0  0  0  0  0  0  0  0  0  0
   23.7973  -21.0400   -8.8636 C   0  0  0  0  0  0  0  0  0  0  0  0
   23.2255  -21.8782   -8.0900 N   0  0  0  0  0  0  0  0  0  0  0  0
   25.2013  -21.2043   -9.1235 N   0  0  0  0  0  0  0  0  0  0  0  0
   25.9166  -20.3017   -9.9825 C   0  0  0  0  0  0  0  0  0  0  0  0
   25.4010  -20.4288  -11.4155 C   0  0  0  0  0  0  0  0  0  0  0  0
   26.2406  -19.5861  -12.3298 C   0  0  0  0  0  0  0  0  0  0  0  0
   25.8701  -19.6694  -13.7839 C   0  0  2  0  0  0  0  0  0  0  0  0
   26.7918  -18.8308  -14.5736 N   0  0  0  0  0  0  0  0  0  0  0  0
   24.4818  -19.2266  -13.9862 C   0  0  0  0  0  0  0  0  0  0  0  0
   24.1164  -18.0701  -13.7142 O   0  0  0  0  0  0  0  0  0  0  0  0
   23.7661  -22.6770   -7.6834 N   0  0  0  0  0  0  0  0  0  0  0  0
   22.9713  -17.6857  -16.4305 C   0  0  0  0  0  0  0  0  0  0  0  0
   22.3626  -18.8050  -17.0769 O   0  0  0  0  0  0  0  0  0  0  0  0
   22.2299  -18.8274  -18.3336 C   0  0  0  0  0  0  0  0  0  0  0  0
   21.9003  -19.9172  -16.2420 C   0  0  2  0  0  0  0  0  0  0  0  0
   22.1589  -19.6732  -14.7922 N   0  0  0  0  0  0  0  0  0  0  0  0
   23.5218  -20.1375  -14.5064 C   0  0  0  0  0  0  0  0  0  0  0  0
   21.2333  -20.3764  -13.8869 O   0  0  0  0  0  0  0  0  0  0  0  0
   20.0000  -19.8821  -13.4972 O   0  0  0  0  0  0  0  0  0  0  0  0
  1  2  1  0
  2  3  1  0
  3 13  1  0
  3  4  2  0
  5  6  1  0
  6  8  1  0
  7  6  2  0
  8  9  1  0
  9 10  1  0
 11 10  1  0
 12 11  1  1
 12 14  1  0
 13 12  1  0
 14 21  1  0
 14 15  2  0
 16 17  1  0
 17 19  1  0
 18 17  2  0
 20 19  1  6
 20 22  1  0
 21 20  1  0
 22 23  1  0
 24 22  2  0
M  END
$$$$
