SLM.pdb
     RDKit          3D

 23 22  0  0  1  0  0  0  0  0999 V2000
   26.8957  -11.1964  -15.0423 O   0  0  0  0  0  0  0  0  0  0  0  0
   25.9143  -10.4174  -15.6529 C   0  0  0  0  0  0  0  0  0  0  0  0
   24.8505  -11.3299  -16.2223 C   0  0  2  0  0  0  0  0  0  0  0  0
   25.4392  -12.0368  -17.3430 N   0  0  0  0  0  0  0  0  0  0  0  0
   23.6808  -10.5156  -16.6649 C   0  0  0  0  0  0  0  0  0  0  0  0
   23.5467  -10.2535  -17.8860 O   0  0  0  0  0  0  0  0  0  0  0  0
   19.0032  -10.6082  -17.2935 C   0  0  0  0  0  0  0  0  0  0  0  0
   19.5427  -10.8156  -15.9234 C   0  0  2  0  0  0  0  0  0  0  0  0
   18.4139  -11.2296  -14.9931 C   0  0  0  0  0  0  0  0  0  0  0  0
   20.3651   -9.7168  -15.3552 C   0  0  0  0  0  0  0  0  0  0  0  0
   21.5555   -9.2887  -16.1406 C   0  0  2  0  0  0  0  0  0  0  0  0
   22.7271  -10.0367  -15.7418 N   0  0  0  0  0  0  0  0  0  0  0  0
   21.8076   -7.8547  -15.7913 C   0  0  0  0  0  0  0  0  0  0  0  0
   22.2346   -7.5239  -14.6504 O   0  0  0  0  0  0  0  0  0  0  0  0
   22.5814   -0.5172  -18.6744 C   0  0  0  0  0  0  0  0  0  0  0  0
   22.5090   -2.3071  -18.8905 S   0  0  0  0  0  0  0  0  0  0  0  0
   22.1662   -3.1687  -17.3327 C   0  0  0  0  0  0  0  0  0  0  0  0
   22.0438   -4.6308  -17.6343 C   0  0  0  0  0  0  0  0  0  0  0  0
   21.7196   -5.4154  -16.4251 C   0  0  2  0  0  0  0  0  0  0  0  0
   21.5746   -6.8415  -16.7264 N   0  0  0  0  0  0  0  0  0  0  0  0
   20.4940   -4.9918  -15.7414 C   0  0  0  0  0  0  0  0  0  0  0  0
   20.5640   -4.1556  -14.6266 O   0  0  0  0  0  0  0  0  0  0  0  0
   19.3772   -5.3553  -16.1232 O   0  0  0  0  0  0  0  0  0  0  0  0
  2  1  1  0
  3  5  1  0
  3  2  1  0
  3  4  1  6
  5  6  2  0
  8  7  1  6
  8  9  1  0
  8 10  1  0
 11 10  1  1
 11 13  1  0
 12 11  1  0
 12  5  1  0
 13 20  1  0
 13 14  2  0
 15 16  1  0
 16 17  1  0
 17 18  1  0
 19 18  1  6
 19 21  1  0
 20 19  1  0
 21 22  1  0
 23 21  2  0
M  END
$$$$
