SLM.pdb
     RDKit          3D

 23 22  0  0  1  0  0  0  0  0999 V2000
   14.6986   -7.9480  -13.9347 O   0  0  0  0  0  0  0  0  0  0  0  0
   16.0600   -7.6761  -13.8105 C   0  0  0  0  0  0  0  0  0  0  0  0
   16.7434   -8.8759  -13.1925 C   0  0  2  0  0  0  0  0  0  0  0  0
   16.2503   -9.0053  -11.8351 N   0  0  0  0  0  0  0  0  0  0  0  0
   18.2211   -8.6669  -13.2017 C   0  0  0  0  0  0  0  0  0  0  0  0
   18.7369   -7.9184  -12.3348 O   0  0  0  0  0  0  0  0  0  0  0  0
   23.2995  -11.1406  -15.8734 C   0  0  0  0  0  0  0  0  0  0  0  0
   22.6194  -10.0250  -15.1632 C   0  0  2  0  0  0  0  0  0  0  0  0
   23.3556   -9.7279  -13.8668 C   0  0  0  0  0  0  0  0  0  0  0  0
   21.1538  -10.1564  -14.9603 C   0  0  0  0  0  0  0  0  0  0  0  0
   20.4658   -9.0365  -14.2608 C   0  0  2  0  0  0  0  0  0  0  0  0
   19.0458   -9.2912  -14.1614 N   0  0  0  0  0  0  0  0  0  0  0  0
   20.6371   -7.8229  -15.1209 C   0  0  0  0  0  0  0  0  0  0  0  0
   20.3284   -7.8386  -16.3448 O   0  0  0  0  0  0  0  0  0  0  0  0
   19.1048   -0.8252  -17.2053 C   0  0  0  0  0  0  0  0  0  0  0  0
   18.9580   -2.3008  -16.1773 S   0  0  0  0  0  0  0  0  0  0  0  0
   20.4806   -3.2850  -16.1757 C   0  0  0  0  0  0  0  0  0  0  0  0
   20.2014   -4.5610  -15.4424 C   0  0  0  0  0  0  0  0  0  0  0  0
   21.3937   -5.4313  -15.3819 C   0  0  2  0  0  0  0  0  0  0  0  0
   21.1464   -6.6357  -14.5856 N   0  0  0  0  0  0  0  0  0  0  0  0
   22.5860   -4.7840  -14.8266 C   0  0  0  0  0  0  0  0  0  0  0  0
   23.1879   -3.7215  -15.5018 O   0  0  0  0  0  0  0  0  0  0  0  0
   23.0891   -5.1517  -13.7604 O   0  0  0  0  0  0  0  0  0  0  0  0
  2  1  1  0
  3  5  1  0
  3  2  1  0
  3  4  1  1
  5  6  2  0
  8  7  1  1
  8  9  1  0
  8 10  1  0
 11 10  1  6
 11 13  1  0
 12 11  1  0
 12  5  1  0
 13 20  1  0
 13 14  2  0
 15 16  1  0
 16 17  1  0
 17 18  1  0
 19 18  1  1
 19 21  1  0
 20 19  1  0
 21 22  1  0
 23 21  2  0
M  END
$$$$
