SLM.pdb
     RDKit          3D

 23 22  0  0  1  0  0  0  0  0999 V2000
   16.6873  -25.2583  -12.4927 O   0  0  0  0  0  0  0  0  0  0  0  0
   17.5739  -24.8445  -13.4855 C   0  0  0  0  0  0  0  0  0  0  0  0
   18.9740  -25.2649  -13.0962 C   0  0  2  0  0  0  0  0  0  0  0  0
   19.0855  -26.6886  -13.3467 N   0  0  0  0  0  0  0  0  0  0  0  0
   19.2018  -24.9613  -11.6529 C   0  0  0  0  0  0  0  0  0  0  0  0
   19.5228  -25.8949  -10.8763 O   0  0  0  0  0  0  0  0  0  0  0  0
   21.7441  -21.4731   -8.9164 C   0  0  0  0  0  0  0  0  0  0  0  0
   20.5926  -21.0551   -9.7592 C   0  0  2  0  0  0  0  0  0  0  0  0
   20.3792  -19.5568   -9.6162 C   0  0  0  0  0  0  0  0  0  0  0  0
   19.3306  -21.8210   -9.5945 C   0  0  0  0  0  0  0  0  0  0  0  0
   19.4054  -23.2956   -9.7872 C   0  0  2  0  0  0  0  0  0  0  0  0
   19.0642  -23.6515  -11.1466 N   0  0  0  0  0  0  0  0  0  0  0  0
   18.3623  -23.8985   -8.8982 C   0  0  0  0  0  0  0  0  0  0  0  0
   17.1547  -23.9679   -9.2592 O   0  0  0  0  0  0  0  0  0  0  0  0
   19.2889  -28.4231   -3.8935 C   0  0  0  0  0  0  0  0  0  0  0  0
   18.3450  -27.0176   -3.2696 S   0  0  0  0  0  0  0  0  0  0  0  0
   17.4091  -26.1881   -4.5822 C   0  0  0  0  0  0  0  0  0  0  0  0
   18.3927  -25.5437   -5.5101 C   0  0  0  0  0  0  0  0  0  0  0  0
   17.7418  -25.0429   -6.7382 C   0  0  2  0  0  0  0  0  0  0  0  0
   18.7030  -24.4024   -7.6391 N   0  0  0  0  0  0  0  0  0  0  0  0
   16.6644  -24.0778   -6.4998 C   0  0  0  0  0  0  0  0  0  0  0  0
   16.9438  -22.7118   -6.4441 O   0  0  0  0  0  0  0  0  0  0  0  0
   15.4930  -24.4360   -6.3429 O   0  0  0  0  0  0  0  0  0  0  0  0
  2  1  1  0
  3  5  1  0
  3  2  1  0
  3  4  1  1
  5  6  2  0
  8  7  1  1
  8  9  1  0
  8 10  1  0
 11 10  1  6
 11 13  1  0
 12 11  1  0
 12  5  1  0
 13 20  1  0
 13 14  2  0
 15 16  1  0
 16 17  1  0
 17 18  1  0
 19 18  1  1
 19 21  1  0
 20 19  1  0
 21 22  1  0
 23 21  2  0
M  END
$$$$
