SLM.pdb
     RDKit          3D

 23 22  0  0  1  0  0  0  0  0999 V2000
   14.1883  -13.7322    6.0123 O   0  0  0  0  0  0  0  0  0  0  0  0
   15.0676  -12.9910    6.7999 C   0  0  0  0  0  0  0  0  0  0  0  0
   16.0857  -12.3249    5.9007 C   0  0  2  0  0  0  0  0  0  0  0  0
   15.6124  -12.4564    4.5366 N   0  0  0  0  0  0  0  0  0  0  0  0
   17.4102  -12.9918    6.0687 C   0  0  0  0  0  0  0  0  0  0  0  0
   17.7516  -13.8845    5.2536 O   0  0  0  0  0  0  0  0  0  0  0  0
   21.7972  -11.4250    6.2025 C   0  0  0  0  0  0  0  0  0  0  0  0
   21.0439  -11.1878    7.4625 C   0  0  2  0  0  0  0  0  0  0  0  0
   21.8939  -10.3576    8.4107 C   0  0  0  0  0  0  0  0  0  0  0  0
   20.4614  -12.3812    8.1280 C   0  0  0  0  0  0  0  0  0  0  0  0
   19.5798  -13.2519    7.3024 C   0  0  2  0  0  0  0  0  0  0  0  0
   18.2821  -12.6402    7.1208 N   0  0  0  0  0  0  0  0  0  0  0  0
   19.3681  -14.5121    8.0828 C   0  0  0  0  0  0  0  0  0  0  0  0
   18.4900  -14.5829    8.9869 O   0  0  0  0  0  0  0  0  0  0  0  0
   20.6781  -20.1361    5.4856 C   0  0  0  0  0  0  0  0  0  0  0  0
   19.7447  -20.6646    6.9365 S   0  0  0  0  0  0  0  0  0  0  0  0
   19.6539  -19.3667    8.1990 C   0  0  0  0  0  0  0  0  0  0  0  0
   19.8999  -18.0522    7.5242 C   0  0  0  0  0  0  0  0  0  0  0  0
   19.9316  -16.9360    8.4917 C   0  0  2  0  0  0  0  0  0  0  0  0
   20.1427  -15.6478    7.8271 N   0  0  0  0  0  0  0  0  0  0  0  0
   20.9630  -17.0625    9.5256 C   0  0  0  0  0  0  0  0  0  0  0  0
   20.7128  -17.8033   10.6813 O   0  0  0  0  0  0  0  0  0  0  0  0
   22.0695  -16.5263    9.4100 O   0  0  0  0  0  0  0  0  0  0  0  0
  2  1  1  0
  3  5  1  0
  3  2  1  0
  3  4  1  6
  5  6  2  0
  8  7  1  6
  8  9  1  0
  8 10  1  0
 11 10  1  1
 11 13  1  0
 12 11  1  0
 12  5  1  0
 13 20  1  0
 13 14  2  0
 15 16  1  0
 16 17  1  0
 17 18  1  0
 19 18  1  6
 19 21  1  0
 20 19  1  0
 21 22  1  0
 23 21  2  0
M  END
$$$$
