SLM.pdb
     RDKit          3D

 23 22  0  0  1  0  0  0  0  0999 V2000
   19.2446  -20.3637   -0.0258 O   0  0  0  0  0  0  0  0  0  0  0  0
   18.6323  -19.8242    1.1042 C   0  0  0  0  0  0  0  0  0  0  0  0
   17.2895  -20.4932    1.2986 C   0  0  2  0  0  0  0  0  0  0  0  0
   16.4829  -20.1956    0.1311 N   0  0  0  0  0  0  0  0  0  0  0  0
   16.6447  -19.9652    2.5367 C   0  0  0  0  0  0  0  0  0  0  0  0
   15.8024  -19.0386    2.4383 O   0  0  0  0  0  0  0  0  0  0  0  0
   15.9839  -21.5681    8.5331 C   0  0  0  0  0  0  0  0  0  0  0  0
   15.8786  -20.5744    7.4320 C   0  0  2  0  0  0  0  0  0  0  0  0
   14.4298  -20.1397    7.2804 C   0  0  0  0  0  0  0  0  0  0  0  0
   16.4922  -20.9492    6.1321 C   0  0  0  0  0  0  0  0  0  0  0  0
   16.4181  -19.9445    5.0357 C   0  0  2  0  0  0  0  0  0  0  0  0
   16.9620  -20.4847    3.8096 N   0  0  0  0  0  0  0  0  0  0  0  0
   17.2951  -18.8007    5.4411 C   0  0  0  0  0  0  0  0  0  0  0  0
   18.5531  -18.9039    5.4297 O   0  0  0  0  0  0  0  0  0  0  0  0
   19.2640  -11.7463    3.9912 C   0  0  0  0  0  0  0  0  0  0  0  0
   17.9254  -12.9375    4.2034 S   0  0  0  0  0  0  0  0  0  0  0  0
   18.3939  -14.3010    5.3025 C   0  0  0  0  0  0  0  0  0  0  0  0
   17.2319  -15.2426    5.3866 C   0  0  0  0  0  0  0  0  0  0  0  0
   17.5373  -16.4173    6.2291 C   0  0  2  0  0  0  0  0  0  0  0  0
   16.7382  -17.5831    5.8445 N   0  0  0  0  0  0  0  0  0  0  0  0
   17.3252  -16.2028    7.6636 C   0  0  0  0  0  0  0  0  0  0  0  0
   16.1411  -16.6241    8.2700 O   0  0  0  0  0  0  0  0  0  0  0  0
   18.1735  -15.6510    8.3715 O   0  0  0  0  0  0  0  0  0  0  0  0
  2  1  1  0
  3  5  1  0
  3  2  1  0
  3  4  1  6
  5  6  2  0
  8  7  1  1
  8  9  1  0
  8 10  1  0
 11 10  1  1
 11 13  1  0
 12 11  1  0
 12  5  1  0
 13 20  1  0
 13 14  2  0
 15 16  1  0
 16 17  1  0
 17 18  1  0
 19 18  1  6
 19 21  1  0
 20 19  1  0
 21 22  1  0
 23 21  2  0
M  END
$$$$
