SLM.pdb
     RDKit          3D

 23 22  0  0  1  0  0  0  0  0999 V2000
   22.5578  -19.6946  -20.4893 O   0  0  0  0  0  0  0  0  0  0  0  0
   23.8376  -19.2702  -20.8428 C   0  0  0  0  0  0  0  0  0  0  0  0
   24.8479  -20.2494  -20.2869 C   0  0  2  0  0  0  0  0  0  0  0  0
   24.6817  -21.4988  -21.0036 N   0  0  0  0  0  0  0  0  0  0  0  0
   24.6054  -20.4399  -18.8267 C   0  0  0  0  0  0  0  0  0  0  0  0
   24.4203  -21.6012  -18.3853 O   0  0  0  0  0  0  0  0  0  0  0  0
   26.7798  -17.3188  -14.2118 C   0  0  0  0  0  0  0  0  0  0  0  0
   26.1970  -18.5260  -14.8552 C   0  0  2  0  0  0  0  0  0  0  0  0
   27.3130  -19.3720  -15.4466 C   0  0  0  0  0  0  0  0  0  0  0  0
   25.0903  -18.3011  -15.8201 C   0  0  0  0  0  0  0  0  0  0  0  0
   24.5326  -19.5026  -16.5001 C   0  0  2  0  0  0  0  0  0  0  0  0
   24.5803  -19.3452  -17.9368 N   0  0  0  0  0  0  0  0  0  0  0  0
   23.0884  -19.5837  -16.1131 C   0  0  0  0  0  0  0  0  0  0  0  0
   22.2349  -18.7901  -16.5978 O   0  0  0  0  0  0  0  0  0  0  0  0
   17.5599  -24.3950  -13.1809 C   0  0  0  0  0  0  0  0  0  0  0  0
   19.2383  -24.0581  -13.7510 S   0  0  0  0  0  0  0  0  0  0  0  0
   19.4939  -22.3014  -14.1187 C   0  0  0  0  0  0  0  0  0  0  0  0
   20.8979  -22.1357  -14.6137 C   0  0  0  0  0  0  0  0  0  0  0  0
   21.2443  -20.7137  -14.8160 C   0  0  2  0  0  0  0  0  0  0  0  0
   22.6481  -20.5466  -15.1997 N   0  0  0  0  0  0  0  0  0  0  0  0
   21.0128  -19.8635  -13.6446 C   0  0  0  0  0  0  0  0  0  0  0  0
   19.7147  -19.4964  -13.2878 O   0  0  0  0  0  0  0  0  0  0  0  0
   21.9437  -19.4505  -12.9461 O   0  0  0  0  0  0  0  0  0  0  0  0
  2  1  1  0
  3  5  1  0
  3  2  1  0
  3  4  1  6
  5  6  2  0
  8  7  1  6
  8  9  1  0
  8 10  1  0
 11 10  1  1
 11 13  1  0
 12 11  1  0
 12  5  1  0
 13 20  1  0
 13 14  2  0
 15 16  1  0
 16 17  1  0
 17 18  1  0
 19 18  1  1
 19 21  1  0
 20 19  1  0
 21 22  1  0
 23 21  2  0
M  END
$$$$
