SLM.pdb
     RDKit          3D

 23 22  0  0  1  0  0  0  0  0999 V2000
   18.3607  -10.8281  -17.2577 O   0  0  0  0  0  0  0  0  0  0  0  0
   19.2232  -11.4966  -18.1249 C   0  0  0  0  0  0  0  0  0  0  0  0
   20.1094  -12.4192  -17.3174 C   0  0  2  0  0  0  0  0  0  0  0  0
   19.2444  -13.2435  -16.4962 N   0  0  0  0  0  0  0  0  0  0  0  0
   21.0304  -11.6079  -16.4685 C   0  0  0  0  0  0  0  0  0  0  0  0
   20.5932  -11.1018  -15.4052 O   0  0  0  0  0  0  0  0  0  0  0  0
   27.1370  -10.2580  -16.1479 C   0  0  0  0  0  0  0  0  0  0  0  0
   25.7280  -10.0394  -15.7258 C   0  0  2  0  0  0  0  0  0  0  0  0
   25.6284  -10.1630  -14.2139 C   0  0  0  0  0  0  0  0  0  0  0  0
   24.6890  -10.8382  -16.4250 C   0  0  0  0  0  0  0  0  0  0  0  0
   23.2690  -10.5382  -16.0922 C   0  0  2  0  0  0  0  0  0  0  0  0
   22.3767  -11.3996  -16.8359 N   0  0  0  0  0  0  0  0  0  0  0  0
   23.0084   -9.1355  -16.5464 C   0  0  0  0  0  0  0  0  0  0  0  0
   23.1440   -8.8030  -17.7565 O   0  0  0  0  0  0  0  0  0  0  0  0
   18.1085   -5.2576  -14.5409 C   0  0  0  0  0  0  0  0  0  0  0  0
   18.7197   -4.8825  -16.1966 S   0  0  0  0  0  0  0  0  0  0  0  0
   20.5156   -5.0943  -16.3247 C   0  0  0  0  0  0  0  0  0  0  0  0
   20.8383   -6.5096  -15.9550 C   0  0  0  0  0  0  0  0  0  0  0  0
   22.2900   -6.7763  -16.0190 C   0  0  2  0  0  0  0  0  0  0  0  0
   22.6060   -8.1541  -15.6352 N   0  0  0  0  0  0  0  0  0  0  0  0
   23.1033   -5.8958  -15.1751 C   0  0  0  0  0  0  0  0  0  0  0  0
   23.5665   -4.6769  -15.6720 O   0  0  0  0  0  0  0  0  0  0  0  0
   23.4005   -6.1986  -14.0153 O   0  0  0  0  0  0  0  0  0  0  0  0
  2  1  1  0
  3  5  1  0
  3  2  1  0
  3  4  1  1
  5  6  2  0
  8  7  1  6
  8  9  1  0
  8 10  1  0
 11 10  1  6
 11 13  1  0
 12 11  1  0
 12  5  1  0
 13 20  1  0
 13 14  2  0
 15 16  1  0
 16 17  1  0
 17 18  1  0
 19 18  1  1
 19 21  1  0
 20 19  1  0
 21 22  1  0
 23 21  2  0
M  END
$$$$
