SLM.pdb
     RDKit          3D

 23 22  0  0  1  0  0  0  0  0999 V2000
   20.5628  -12.1473  -22.3137 O   0  0  0  0  0  0  0  0  0  0  0  0
   20.1304  -11.5356  -21.1381 C   0  0  0  0  0  0  0  0  0  0  0  0
   20.5587  -12.3830  -19.9605 C   0  0  2  0  0  0  0  0  0  0  0  0
   19.7849  -13.6085  -20.0029 N   0  0  0  0  0  0  0  0  0  0  0  0
   20.3032  -11.6387  -18.6924 C   0  0  0  0  0  0  0  0  0  0  0  0
   19.1440  -11.6373  -18.2086 O   0  0  0  0  0  0  0  0  0  0  0  0
   23.5866  -10.0161  -13.7286 C   0  0  0  0  0  0  0  0  0  0  0  0
   22.3540   -9.8706  -14.5476 C   0  0  2  0  0  0  0  0  0  0  0  0
   21.1452  -10.2706  -13.7170 C   0  0  0  0  0  0  0  0  0  0  0  0
   22.3582  -10.5202  -15.8834 C   0  0  0  0  0  0  0  0  0  0  0  0
   21.1554  -10.3165  -16.7372 C   0  0  2  0  0  0  0  0  0  0  0  0
   21.3344  -10.9399  -18.0297 N   0  0  0  0  0  0  0  0  0  0  0  0
   21.0390   -8.8422  -16.9709 C   0  0  0  0  0  0  0  0  0  0  0  0
   21.9291   -8.2067  -17.6012 O   0  0  0  0  0  0  0  0  0  0  0  0
   15.9512   -2.8086  -17.3026 C   0  0  0  0  0  0  0  0  0  0  0  0
   16.3259   -4.5629  -17.1087 S   0  0  0  0  0  0  0  0  0  0  0  0
   18.1062   -4.8666  -16.9506 C   0  0  0  0  0  0  0  0  0  0  0  0
   18.3093   -6.3443  -16.8132 C   0  0  0  0  0  0  0  0  0  0  0  0
   19.7413   -6.6948  -16.7166 C   0  0  2  0  0  0  0  0  0  0  0  0
   19.9347   -8.1296  -16.4934 N   0  0  0  0  0  0  0  0  0  0  0  0
   20.4645   -5.9912  -15.6531 C   0  0  0  0  0  0  0  0  0  0  0  0
   21.0328   -4.7406  -15.8980 O   0  0  0  0  0  0  0  0  0  0  0  0
   20.5928   -6.4742  -14.5238 O   0  0  0  0  0  0  0  0  0  0  0  0
  2  1  1  0
  3  5  1  0
  3  2  1  0
  3  4  1  1
  5  6  2  0
  8  7  1  1
  8  9  1  0
  8 10  1  0
 11 10  1  1
 11 13  1  0
 12 11  1  0
 12  5  1  0
 13 20  1  0
 13 14  2  0
 15 16  1  0
 16 17  1  0
 17 18  1  0
 19 18  1  1
 19 21  1  0
 20 19  1  0
 21 22  1  0
 23 21  2  0
M  END
$$$$
