SLM.pdb
     RDKit          3D

 23 22  0  0  1  0  0  0  0  0999 V2000
   26.4080  -18.9756  -16.0566 O   0  0  0  0  0  0  0  0  0  0  0  0
   27.3647  -18.7311  -15.0727 C   0  0  0  0  0  0  0  0  0  0  0  0
   27.8662  -20.0550  -14.5394 C   0  0  2  0  0  0  0  0  0  0  0  0
   28.3339  -20.8303  -15.6718 N   0  0  0  0  0  0  0  0  0  0  0  0
   26.7556  -20.7613  -13.8360 C   0  0  0  0  0  0  0  0  0  0  0  0
   26.2775  -21.8055  -14.3448 O   0  0  0  0  0  0  0  0  0  0  0  0
   26.6049  -22.1277   -9.3687 C   0  0  0  0  0  0  0  0  0  0  0  0
   26.2354  -20.7027   -9.5783 C   0  0  2  0  0  0  0  0  0  0  0  0
   26.0641  -20.0215   -8.2301 C   0  0  0  0  0  0  0  0  0  0  0  0
   25.0956  -20.4350  -10.4924 C   0  0  0  0  0  0  0  0  0  0  0  0
   25.2006  -20.9708  -11.8776 C   0  0  2  0  0  0  0  0  0  0  0  0
   26.2350  -20.2807  -12.6159 N   0  0  0  0  0  0  0  0  0  0  0  0
   23.8996  -20.6694  -12.5547 C   0  0  0  0  0  0  0  0  0  0  0  0
   23.6374  -19.5116  -12.9837 O   0  0  0  0  0  0  0  0  0  0  0  0
   19.9664  -24.2610  -17.1896 C   0  0  0  0  0  0  0  0  0  0  0  0
   19.3790  -24.0802  -15.4931 S   0  0  0  0  0  0  0  0  0  0  0  0
   19.8754  -22.4958  -14.7649 C   0  0  0  0  0  0  0  0  0  0  0  0
   21.1597  -22.7130  -14.0253 C   0  0  0  0  0  0  0  0  0  0  0  0
   21.6725  -21.4590  -13.4360 C   0  0  2  0  0  0  0  0  0  0  0  0
   22.9380  -21.6695  -12.7289 N   0  0  0  0  0  0  0  0  0  0  0  0
   20.7532  -20.8149  -12.4932 C   0  0  0  0  0  0  0  0  0  0  0  0
   19.6703  -20.0714  -12.9639 O   0  0  0  0  0  0  0  0  0  0  0  0
   20.9042  -20.9075  -11.2710 O   0  0  0  0  0  0  0  0  0  0  0  0
  2  1  1  0
  3  5  1  0
  3  2  1  0
  3  4  1  6
  5  6  2  0
  8  7  1  1
  8  9  1  0
  8 10  1  0
 11 10  1  1
 11 13  1  0
 12 11  1  0
 12  5  1  0
 13 20  1  0
 13 14  2  0
 15 16  1  0
 16 17  1  0
 17 18  1  0
 19 18  1  1
 19 21  1  0
 20 19  1  0
 21 22  1  0
 23 21  2  0
M  END
$$$$
