SLM.pdb
     RDKit          3D

 23 22  0  0  1  0  0  0  0  0999 V2000
   14.1016  -10.3726  -12.6558 O   0  0  0  0  0  0  0  0  0  0  0  0
   15.1331   -9.4652  -12.8913 C   0  0  0  0  0  0  0  0  0  0  0  0
   16.3915   -9.9715  -12.2216 C   0  0  2  0  0  0  0  0  0  0  0  0
   16.1668   -9.9341  -10.7898 N   0  0  0  0  0  0  0  0  0  0  0  0
   17.5423   -9.0999  -12.6003 C   0  0  0  0  0  0  0  0  0  0  0  0
   17.7532   -8.0491  -11.9453 O   0  0  0  0  0  0  0  0  0  0  0  0
   22.4511   -8.7294  -13.2110 C   0  0  0  0  0  0  0  0  0  0  0  0
   21.7036   -9.8143  -13.9005 C   0  0  2  0  0  0  0  0  0  0  0  0
   22.6818  -10.7049  -14.6494 C   0  0  0  0  0  0  0  0  0  0  0  0
   20.5564   -9.4011  -14.7488 C   0  0  0  0  0  0  0  0  0  0  0  0
   19.4914   -8.5905  -14.0964 C   0  0  2  0  0  0  0  0  0  0  0  0
   18.3938   -9.4325  -13.6751 N   0  0  0  0  0  0  0  0  0  0  0  0
   18.9580   -7.6607  -15.1418 C   0  0  0  0  0  0  0  0  0  0  0  0
   18.3267   -8.0957  -16.1446 O   0  0  0  0  0  0  0  0  0  0  0  0
   15.1008   -1.2496  -16.8033 C   0  0  0  0  0  0  0  0  0  0  0  0
   15.7012   -2.5722  -15.7328 S   0  0  0  0  0  0  0  0  0  0  0  0
   17.1057   -3.4558  -16.4630 C   0  0  0  0  0  0  0  0  0  0  0  0
   17.5265   -4.5238  -15.5007 C   0  0  0  0  0  0  0  0  0  0  0  0
   18.6600   -5.3159  -16.0210 C   0  0  2  0  0  0  0  0  0  0  0  0
   19.1477   -6.2797  -15.0316 N   0  0  0  0  0  0  0  0  0  0  0  0
   19.8112   -4.5145  -16.4469 C   0  0  0  0  0  0  0  0  0  0  0  0
   19.7118   -3.6761  -17.5579 O   0  0  0  0  0  0  0  0  0  0  0  0
   20.8897   -4.5543  -15.8465 O   0  0  0  0  0  0  0  0  0  0  0  0
  2  1  1  0
  3  5  1  0
  3  2  1  0
  3  4  1  1
  5  6  2  0
  8  7  1  6
  8  9  1  0
  8 10  1  0
 11 10  1  6
 11 13  1  0
 12 11  1  0
 12  5  1  0
 13 20  1  0
 13 14  2  0
 15 16  1  0
 16 17  1  0
 17 18  1  0
 19 18  1  1
 19 21  1  0
 20 19  1  0
 21 22  1  0
 23 21  2  0
M  END
$$$$
