SLM.pdb
     RDKit          3D

 23 22  0  0  1  0  0  0  0  0999 V2000
   25.2631  -18.3540  -14.7724 O   0  0  0  0  0  0  0  0  0  0  0  0
   26.3939  -17.5918  -14.4837 C   0  0  0  0  0  0  0  0  0  0  0  0
   27.6260  -18.4379  -14.7175 C   0  0  2  0  0  0  0  0  0  0  0  0
   27.8217  -18.5334  -16.1510 N   0  0  0  0  0  0  0  0  0  0  0  0
   27.4225  -19.7899  -14.1192 C   0  0  0  0  0  0  0  0  0  0  0  0
   27.3631  -20.7898  -14.8771 O   0  0  0  0  0  0  0  0  0  0  0  0
   30.1093  -21.7656  -10.9730 C   0  0  0  0  0  0  0  0  0  0  0  0
   29.0842  -20.8435  -10.4163 C   0  0  2  0  0  0  0  0  0  0  0  0
   29.3602  -20.6135   -8.9391 C   0  0  0  0  0  0  0  0  0  0  0  0
   27.6629  -21.1886  -10.6756 C   0  0  0  0  0  0  0  0  0  0  0  0
   27.2363  -21.2680  -12.0999 C   0  0  2  0  0  0  0  0  0  0  0  0
   27.2961  -19.9653  -12.7249 N   0  0  0  0  0  0  0  0  0  0  0  0
   25.7995  -21.6894  -12.0952 C   0  0  0  0  0  0  0  0  0  0  0  0
   25.4345  -22.7658  -11.5463 O   0  0  0  0  0  0  0  0  0  0  0  0
   20.8811  -18.6617  -10.1367 C   0  0  0  0  0  0  0  0  0  0  0  0
   20.0838  -19.3301  -11.6109 S   0  0  0  0  0  0  0  0  0  0  0  0
   21.0770  -20.6292  -12.3936 C   0  0  0  0  0  0  0  0  0  0  0  0
   22.5211  -20.3018  -12.1676 C   0  0  0  0  0  0  0  0  0  0  0  0
   23.4144  -21.2880  -12.8096 C   0  0  2  0  0  0  0  0  0  0  0  0
   24.8216  -20.8956  -12.7027 N   0  0  0  0  0  0  0  0  0  0  0  0
   23.1372  -21.5183  -14.2305 C   0  0  0  0  0  0  0  0  0  0  0  0
   23.9696  -20.9700  -15.2070 O   0  0  0  0  0  0  0  0  0  0  0  0
   22.1736  -22.1942  -14.6043 O   0  0  0  0  0  0  0  0  0  0  0  0
  2  1  1  0
  3  5  1  0
  3  2  1  0
  3  4  1  6
  5  6  2  0
  8  7  1  1
  8  9  1  0
  8 10  1  0
 11 10  1  1
 11 13  1  0
 12 11  1  0
 12  5  1  0
 13 20  1  0
 13 14  2  0
 15 16  1  0
 16 17  1  0
 17 18  1  0
 19 18  1  6
 19 21  1  0
 20 19  1  0
 21 22  1  0
 23 21  2  0
M  END
$$$$
