SLM.pdb
     RDKit          3D

 23 22  0  0  1  0  0  0  0  0999 V2000
   19.2166   -9.8361  -20.4467 O   0  0  0  0  0  0  0  0  0  0  0  0
   18.9875   -9.3489  -19.1609 C   0  0  0  0  0  0  0  0  0  0  0  0
   19.7290  -10.2185  -18.1697 C   0  0  2  0  0  0  0  0  0  0  0  0
   18.9833  -11.4545  -18.0333 N   0  0  0  0  0  0  0  0  0  0  0  0
   19.8246   -9.5100  -16.8597 C   0  0  0  0  0  0  0  0  0  0  0  0
   18.7825   -9.3440  -16.1783 O   0  0  0  0  0  0  0  0  0  0  0  0
   22.5121  -11.0806  -13.5495 C   0  0  0  0  0  0  0  0  0  0  0  0
   22.2252   -9.6486  -13.2698 C   0  0  2  0  0  0  0  0  0  0  0  0
   20.8541   -9.5245  -12.6251 C   0  0  0  0  0  0  0  0  0  0  0  0
   22.4046   -8.6982  -14.3972 C   0  0  0  0  0  0  0  0  0  0  0  0
   21.1788   -8.2881  -15.1363 C   0  0  2  0  0  0  0  0  0  0  0  0
   21.0577   -9.0254  -16.3744 N   0  0  0  0  0  0  0  0  0  0  0  0
   21.3570   -6.8460  -15.4973 C   0  0  0  0  0  0  0  0  0  0  0  0
   22.2941   -6.4717  -16.2558 O   0  0  0  0  0  0  0  0  0  0  0  0
   17.7657    0.2254  -15.4623 C   0  0  0  0  0  0  0  0  0  0  0  0
   17.7822   -1.5420  -15.0995 S   0  0  0  0  0  0  0  0  0  0  0  0
   19.4008   -2.2902  -15.4266 C   0  0  0  0  0  0  0  0  0  0  0  0
   19.2807   -3.7647  -15.1918 C   0  0  0  0  0  0  0  0  0  0  0  0
   20.5801   -4.4518  -15.3405 C   0  0  2  0  0  0  0  0  0  0  0  0
   20.4843   -5.8733  -14.9998 N   0  0  0  0  0  0  0  0  0  0  0  0
   21.6595   -3.8847  -14.5267 C   0  0  0  0  0  0  0  0  0  0  0  0
   22.4857   -2.8894  -15.0498 O   0  0  0  0  0  0  0  0  0  0  0  0
   21.8699   -4.2630  -13.3700 O   0  0  0  0  0  0  0  0  0  0  0  0
  2  1  1  0
  3  5  1  0
  3  2  1  0
  3  4  1  1
  5  6  2  0
  8  7  1  6
  8  9  1  0
  8 10  1  0
 11 10  1  6
 11 13  1  0
 12 11  1  0
 12  5  1  0
 13 20  1  0
 13 14  2  0
 15 16  1  0
 16 17  1  0
 17 18  1  0
 19 18  1  1
 19 21  1  0
 20 19  1  0
 21 22  1  0
 23 21  2  0
M  END
$$$$
