SLM.pdb
     RDKit          3D

 23 22  0  0  1  0  0  0  0  0999 V2000
   14.3024  -21.5522    3.4497 O   0  0  0  0  0  0  0  0  0  0  0  0
   13.7546  -20.4678    2.7663 C   0  0  0  0  0  0  0  0  0  0  0  0
   14.6873  -20.0779    1.6410 C   0  0  2  0  0  0  0  0  0  0  0  0
   14.8576  -21.2428    0.7946 N   0  0  0  0  0  0  0  0  0  0  0  0
   15.9962  -19.6394    2.2084 C   0  0  0  0  0  0  0  0  0  0  0  0
   16.9899  -20.4014    2.1101 O   0  0  0  0  0  0  0  0  0  0  0  0
   19.1969  -15.7540    2.0197 C   0  0  0  0  0  0  0  0  0  0  0  0
   17.8027  -15.5615    2.4997 C   0  0  2  0  0  0  0  0  0  0  0  0
   17.5719  -14.0902    2.8047 C   0  0  0  0  0  0  0  0  0  0  0  0
   17.3486  -16.4430    3.6056 C   0  0  0  0  0  0  0  0  0  0  0  0
   17.4015  -17.9113    3.3641 C   0  0  2  0  0  0  0  0  0  0  0  0
   16.1378  -18.3908    2.8501 N   0  0  0  0  0  0  0  0  0  0  0  0
   17.6094  -18.5589    4.6980 C   0  0  0  0  0  0  0  0  0  0  0  0
   16.6318  -18.9215    5.4095 O   0  0  0  0  0  0  0  0  0  0  0  0
   22.8501  -22.4064    9.1933 C   0  0  0  0  0  0  0  0  0  0  0  0
   22.2835  -21.7465    7.6125 S   0  0  0  0  0  0  0  0  0  0  0  0
   20.7440  -20.8038    7.7795 C   0  0  0  0  0  0  0  0  0  0  0  0
   20.4352  -20.1897    6.4486 C   0  0  0  0  0  0  0  0  0  0  0  0
   19.1740  -19.4208    6.4783 C   0  0  2  0  0  0  0  0  0  0  0  0
   18.8995  -18.7789    5.1905 N   0  0  0  0  0  0  0  0  0  0  0  0
   19.1304  -18.3718    7.5014 C   0  0  0  0  0  0  0  0  0  0  0  0
   18.7430  -18.6783    8.8064 O   0  0  0  0  0  0  0  0  0  0  0  0
   19.4302  -17.2013    7.2464 O   0  0  0  0  0  0  0  0  0  0  0  0
  2  1  1  0
  3  5  1  0
  3  2  1  0
  3  4  1  6
  5  6  2  0
  8  7  1  1
  8  9  1  0
  8 10  1  0
 11 10  1  1
 11 13  1  0
 12 11  1  0
 12  5  1  0
 13 20  1  0
 13 14  2  0
 15 16  1  0
 16 17  1  0
 17 18  1  0
 19 18  1  6
 19 21  1  0
 20 19  1  0
 21 22  1  0
 23 21  2  0
M  END
$$$$
