SLM.pdb
     RDKit          3D

 23 22  0  0  1  0  0  0  0  0999 V2000
   15.5103   -9.7809  -14.6534 O   0  0  0  0  0  0  0  0  0  0  0  0
   16.5602   -9.3371  -15.4557 C   0  0  0  0  0  0  0  0  0  0  0  0
   17.8681   -9.7796  -14.8376 C   0  0  2  0  0  0  0  0  0  0  0  0
   17.7958  -11.2154  -14.6492 N   0  0  0  0  0  0  0  0  0  0  0  0
   18.0627   -9.0830  -13.5321 C   0  0  0  0  0  0  0  0  0  0  0  0
   17.8592   -9.7161  -12.4665 O   0  0  0  0  0  0  0  0  0  0  0  0
   21.8276   -6.8415  -12.0338 C   0  0  0  0  0  0  0  0  0  0  0  0
   20.9405   -6.0426  -12.9205 C   0  0  2  0  0  0  0  0  0  0  0  0
   21.6326   -4.7394  -13.2862 C   0  0  0  0  0  0  0  0  0  0  0  0
   19.5468   -5.8275  -12.4539 C   0  0  0  0  0  0  0  0  0  0  0  0
   18.7157   -7.0419  -12.2267 C   0  0  2  0  0  0  0  0  0  0  0  0
   18.4690   -7.7331  -13.4726 N   0  0  0  0  0  0  0  0  0  0  0  0
   17.3909   -6.5664  -11.7161 C   0  0  0  0  0  0  0  0  0  0  0  0
   16.5199   -6.0923  -12.4971 O   0  0  0  0  0  0  0  0  0  0  0  0
   12.1650   -7.4661   -5.8907 C   0  0  0  0  0  0  0  0  0  0  0  0
   13.7908   -7.7678   -6.6128 S   0  0  0  0  0  0  0  0  0  0  0  0
   14.1263   -6.6733   -8.0186 C   0  0  0  0  0  0  0  0  0  0  0  0
   15.4439   -7.0739   -8.6078 C   0  0  0  0  0  0  0  0  0  0  0  0
   15.7809   -6.2665   -9.7983 C   0  0  2  0  0  0  0  0  0  0  0  0
   17.0849   -6.6366  -10.3535 N   0  0  0  0  0  0  0  0  0  0  0  0
   15.8084   -4.8205   -9.5590 C   0  0  0  0  0  0  0  0  0  0  0  0
   14.6214   -4.0869   -9.5488 O   0  0  0  0  0  0  0  0  0  0  0  0
   16.8657   -4.2135   -9.3618 O   0  0  0  0  0  0  0  0  0  0  0  0
  2  1  1  0
  3  5  1  0
  3  2  1  0
  3  4  1  1
  5  6  2  0
  8  7  1  1
  8  9  1  0
  8 10  1  0
 11 10  1  6
 11 13  1  0
 12 11  1  0
 12  5  1  0
 13 20  1  0
 13 14  2  0
 15 16  1  0
 16 17  1  0
 17 18  1  0
 19 18  1  1
 19 21  1  0
 20 19  1  0
 21 22  1  0
 23 21  2  0
M  END
$$$$
