SLM.pdb
     RDKit          3D

 23 22  0  0  1  0  0  0  0  0999 V2000
   26.0128  -16.3778  -16.3837 O   0  0  0  0  0  0  0  0  0  0  0  0
   25.9020  -16.6872  -15.0291 C   0  0  0  0  0  0  0  0  0  0  0  0
   26.8339  -17.8360  -14.7126 C   0  0  2  0  0  0  0  0  0  0  0  0
   27.6107  -18.1068  -15.9066 N   0  0  0  0  0  0  0  0  0  0  0  0
   26.0335  -19.0324  -14.3186 C   0  0  0  0  0  0  0  0  0  0  0  0
   25.8480  -19.9466  -15.1599 O   0  0  0  0  0  0  0  0  0  0  0  0
   26.8012  -21.9384  -10.8885 C   0  0  0  0  0  0  0  0  0  0  0  0
   26.0864  -20.7103  -10.4501 C   0  0  2  0  0  0  0  0  0  0  0  0
   25.9910  -20.6955   -8.9330 C   0  0  0  0  0  0  0  0  0  0  0  0
   24.7798  -20.4298  -11.0985 C   0  0  0  0  0  0  0  0  0  0  0  0
   24.7700  -20.3335  -12.5843 C   0  0  2  0  0  0  0  0  0  0  0  0
   25.4837  -19.1555  -13.0250 N   0  0  0  0  0  0  0  0  0  0  0  0
   23.3401  -20.1621  -12.9943 C   0  0  0  0  0  0  0  0  0  0  0  0
   22.7680  -19.0393  -12.9213 O   0  0  0  0  0  0  0  0  0  0  0  0
   20.4967  -24.7185  -16.4441 C   0  0  0  0  0  0  0  0  0  0  0  0
   19.0566  -23.6461  -16.2655 S   0  0  0  0  0  0  0  0  0  0  0  0
   19.4218  -22.1738  -15.2728 C   0  0  0  0  0  0  0  0  0  0  0  0
   20.8145  -22.3138  -14.7393 C   0  0  0  0  0  0  0  0  0  0  0  0
   21.2149  -21.1407  -13.9353 C   0  0  2  0  0  0  0  0  0  0  0  0
   22.5999  -21.2485  -13.4708 N   0  0  0  0  0  0  0  0  0  0  0  0
   20.3802  -20.9057  -12.7534 C   0  0  0  0  0  0  0  0  0  0  0  0
   19.2430  -20.1021  -12.8443 O   0  0  0  0  0  0  0  0  0  0  0  0
   20.6514  -21.4029  -11.6560 O   0  0  0  0  0  0  0  0  0  0  0  0
  2  1  1  0
  3  5  1  0
  3  2  1  0
  3  4  1  6
  5  6  2  0
  8  7  1  6
  8  9  1  0
  8 10  1  0
 11 10  1  1
 11 13  1  0
 12 11  1  0
 12  5  1  0
 13 20  1  0
 13 14  2  0
 15 16  1  0
 16 17  1  0
 17 18  1  0
 19 18  1  1
 19 21  1  0
 20 19  1  0
 21 22  1  0
 23 21  2  0
M  END
$$$$
