MCF.pdb
     RDKit          3D

 26 26  0  0  1  0  0  0  0  0999 V2000
    8.9896  -13.0821   19.9075 C   0  0  0  0  0  0  0  0  0  0  0  0
    7.8089  -13.3471   18.5709 S   0  0  0  0  0  0  0  0  0  0  0  0
    7.8044  -15.0422   18.0047 C   0  0  0  0  0  0  0  0  0  0  0  0
    8.3676  -15.9941   18.9955 C   0  0  0  0  0  0  0  0  0  0  0  0
    7.5123  -17.1640   19.3382 C   0  0  2  0  0  0  0  0  0  0  0  0
    6.3857  -17.3849   18.4896 N   0  0  0  0  0  0  0  0  0  0  0  0
    7.0938  -17.0971   20.7699 C   0  0  0  0  0  0  0  0  0  0  0  0
    6.0927  -16.3847   21.1174 O   0  0  0  0  0  0  0  0  0  0  0  0
    7.7533  -17.7934   21.8095 N   0  0  0  0  0  0  0  0  0  0  0  0
    7.3321  -17.6078   23.1907 C   0  0  1  0  0  0  0  0  0  0  0  0
    7.0384  -18.9731   23.8083 C   0  0  0  0  0  0  0  0  0  0  0  0
    8.4301  -20.0797   23.5329 S   0  0  0  0  0  0  0  0  0  0  0  0
    8.4746  -17.0385   23.9406 C   0  0  0  0  0  0  0  0  0  0  0  0
    9.6078  -17.1873   23.4096 O   0  0  0  0  0  0  0  0  0  0  0  0
    8.2702  -16.3808   25.1641 N   0  0  0  0  0  0  0  0  0  0  0  0
    9.3784  -15.7748   25.8763 C   0  0  1  0  0  0  0  0  0  0  0  0
    9.4756  -14.3102   25.6657 C   0  0  0  0  0  0  0  0  0  0  0  0
    8.2908  -13.5966   26.1208 C   0  0  0  0  0  0  0  0  0  0  0  0
    7.1498  -13.6075   25.3332 C   0  0  0  0  0  0  0  0  0  0  0  0
    6.0243  -12.9399   25.7818 C   0  0  0  0  0  0  0  0  0  0  0  0
    6.0408  -12.2761   26.9917 C   0  0  0  0  0  0  0  0  0  0  0  0
    7.1693  -12.2479   27.8018 C   0  0  0  0  0  0  0  0  0  0  0  0
    8.2877  -12.9288   27.3247 C   0  0  0  0  0  0  0  0  0  0  0  0
    9.3614  -16.2196   27.2936 C   0  0  0  0  0  0  0  0  0  0  0  0
   10.3840  -15.9384   28.2001 O   0  0  0  0  0  0  0  0  0  0  0  0
    8.4134  -16.8853   27.7768 O   0  0  0  0  0  0  0  0  0  0  0  0
  2  1  1  0
  3  2  1  0
  4  3  1  0
  4  5  1  0
  5  7  1  0
  5  6  1  6
  7  8  2  0
  9  7  1  0
  9 10  1  0
 10 11  1  1
 11 12  1  0
 13 15  1  0
 13 10  1  0
 14 13  2  0
 16 15  1  0
 16 17  1  1
 18 17  1  0
 18 19  2  0
 20 19  1  0
 21 20  2  0
 22 23  2  0
 22 21  1  0
 23 18  1  0
 24 16  1  0
 24 25  1  0
 26 24  2  0
M  END
$$$$
