MCF.pdb
     RDKit          3D

 26 26  0  0  1  0  0  0  0  0999 V2000
    8.5880  -11.9072   20.0185 C   0  0  0  0  0  0  0  0  0  0  0  0
    7.6332  -12.5218   18.6179 S   0  0  0  0  0  0  0  0  0  0  0  0
    7.8681  -14.2748   18.3621 C   0  0  0  0  0  0  0  0  0  0  0  0
    8.1832  -15.0139   19.6110 C   0  0  0  0  0  0  0  0  0  0  0  0
    8.3561  -16.4866   19.4738 C   0  0  2  0  0  0  0  0  0  0  0  0
    7.3043  -17.1797   18.8018 N   0  0  0  0  0  0  0  0  0  0  0  0
    8.6310  -17.1016   20.8063 C   0  0  0  0  0  0  0  0  0  0  0  0
    7.6843  -17.6283   21.4820 O   0  0  0  0  0  0  0  0  0  0  0  0
    9.9156  -17.1435   21.3968 N   0  0  0  0  0  0  0  0  0  0  0  0
   10.0948  -17.7548   22.7058 C   0  0  1  0  0  0  0  0  0  0  0  0
   11.2202  -18.7837   22.6237 C   0  0  0  0  0  0  0  0  0  0  0  0
   12.6615  -18.0501   21.8353 S   0  0  0  0  0  0  0  0  0  0  0  0
   10.5496  -16.7005   23.6403 C   0  0  0  0  0  0  0  0  0  0  0  0
   11.1466  -15.7227   23.1152 O   0  0  0  0  0  0  0  0  0  0  0  0
   10.3130  -16.8169   25.0193 N   0  0  0  0  0  0  0  0  0  0  0  0
    9.6929  -15.7360   25.7608 C   0  0  1  0  0  0  0  0  0  0  0  0
    8.5789  -15.0892   25.0262 C   0  0  0  0  0  0  0  0  0  0  0  0
    7.9805  -13.9881   25.7677 C   0  0  0  0  0  0  0  0  0  0  0  0
    6.6017  -13.8427   25.7683 C   0  0  0  0  0  0  0  0  0  0  0  0
    6.0418  -12.8028   26.4886 C   0  0  0  0  0  0  0  0  0  0  0  0
    6.8444  -11.9282   27.1925 C   0  0  0  0  0  0  0  0  0  0  0  0
    8.2285  -12.0490   27.2101 C   0  0  0  0  0  0  0  0  0  0  0  0
    8.7643  -13.1053   26.4759 C   0  0  0  0  0  0  0  0  0  0  0  0
    9.3727  -16.1963   27.1365 C   0  0  0  0  0  0  0  0  0  0  0  0
    8.5771  -17.3095   27.4092 O   0  0  0  0  0  0  0  0  0  0  0  0
    9.8030  -15.6079   28.1583 O   0  0  0  0  0  0  0  0  0  0  0  0
  2  1  1  0
  3  2  1  0
  4  3  1  0
  4  5  1  0
  5  7  1  0
  5  6  1  1
  7  8  2  0
  9  7  1  0
  9 10  1  0
 10 11  1  6
 11 12  1  0
 13 15  1  0
 13 10  1  0
 14 13  2  0
 16 15  1  0
 16 17  1  6
 18 17  1  0
 18 19  2  0
 20 19  1  0
 21 20  2  0
 22 23  2  0
 22 21  1  0
 23 18  1  0
 24 16  1  0
 24 25  1  0
 26 24  2  0
M  END
$$$$
