MCF.pdb
     RDKit          3D

 26 26  0  0  1  0  0  0  0  0999 V2000
    5.9660  -19.3684   23.0058 C   0  0  0  0  0  0  0  0  0  0  0  0
    7.6107  -19.2447   22.2774 S   0  0  0  0  0  0  0  0  0  0  0  0
    8.0752  -17.5502   21.9509 C   0  0  0  0  0  0  0  0  0  0  0  0
    6.9274  -16.6086   21.9884 C   0  0  0  0  0  0  0  0  0  0  0  0
    7.2416  -15.1823   21.6978 C   0  0  2  0  0  0  0  0  0  0  0  0
    8.0132  -14.9392   20.5215 N   0  0  0  0  0  0  0  0  0  0  0  0
    7.8713  -14.5382   22.8886 C   0  0  0  0  0  0  0  0  0  0  0  0
    9.1337  -14.3513   22.9296 O   0  0  0  0  0  0  0  0  0  0  0  0
    7.1405  -14.1038   24.0191 N   0  0  0  0  0  0  0  0  0  0  0  0
    7.8408  -13.5510   25.1694 C   0  0  1  0  0  0  0  0  0  0  0  0
    6.8206  -12.9299   26.1208 C   0  0  0  0  0  0  0  0  0  0  0  0
    7.6704  -12.1400   27.4959 S   0  0  0  0  0  0  0  0  0  0  0  0
    8.4735  -14.6738   25.8980 C   0  0  0  0  0  0  0  0  0  0  0  0
    7.7785  -15.7199   26.0033 O   0  0  0  0  0  0  0  0  0  0  0  0
    9.7683  -14.5449   26.4251 N   0  0  0  0  0  0  0  0  0  0  0  0
   10.3741  -15.6244   27.1804 C   0  0  1  0  0  0  0  0  0  0  0  0
   11.6890  -16.0470   26.6409 C   0  0  0  0  0  0  0  0  0  0  0  0
   11.5911  -16.6226   25.3070 C   0  0  0  0  0  0  0  0  0  0  0  0
   11.5253  -18.0004   25.1674 C   0  0  0  0  0  0  0  0  0  0  0  0
   11.4164  -18.5368   23.8969 C   0  0  0  0  0  0  0  0  0  0  0  0
   11.3744  -17.7123   22.7911 C   0  0  0  0  0  0  0  0  0  0  0  0
   11.4386  -16.3286   22.9001 C   0  0  0  0  0  0  0  0  0  0  0  0
   11.5478  -15.8167   24.1916 C   0  0  0  0  0  0  0  0  0  0  0  0
   10.3513  -15.2921   28.6282 C   0  0  0  0  0  0  0  0  0  0  0  0
   10.7716  -16.1723   29.6258 O   0  0  0  0  0  0  0  0  0  0  0  0
    9.9485  -14.1830   29.0561 O   0  0  0  0  0  0  0  0  0  0  0  0
  2  1  1  0
  3  2  1  0
  4  3  1  0
  4  5  1  0
  5  7  1  0
  5  6  1  6
  7  8  2  0
  9  7  1  0
  9 10  1  0
 10 11  1  1
 11 12  1  0
 13 15  1  0
 13 10  1  0
 14 13  2  0
 16 15  1  0
 16 17  1  6
 18 17  1  0
 18 19  2  0
 20 19  1  0
 21 20  2  0
 22 23  2  0
 22 21  1  0
 23 18  1  0
 24 16  1  0
 24 25  1  0
 26 24  2  0
M  END
$$$$
