MCF.pdb
     RDKit          3D

 26 26  0  0  1  0  0  0  0  0999 V2000
    6.7188  -17.7341   28.3298 C   0  0  0  0  0  0  0  0  0  0  0  0
    7.9920  -18.8997   27.8090 S   0  0  0  0  0  0  0  0  0  0  0  0
    7.7661  -19.4300   26.1174 C   0  0  0  0  0  0  0  0  0  0  0  0
    6.4977  -18.9471   25.5147 C   0  0  0  0  0  0  0  0  0  0  0  0
    6.2475  -19.3532   24.1040 C   0  0  2  0  0  0  0  0  0  0  0  0
    6.5424  -20.7127   23.7830 N   0  0  0  0  0  0  0  0  0  0  0  0
    6.9443  -18.4230   23.1665 C   0  0  0  0  0  0  0  0  0  0  0  0
    8.0563  -18.7557   22.6345 O   0  0  0  0  0  0  0  0  0  0  0  0
    6.4409  -17.1495   22.8124 N   0  0  0  0  0  0  0  0  0  0  0  0
    7.2108  -16.2818   21.9329 C   0  0  1  0  0  0  0  0  0  0  0  0
    6.2549  -15.3452   21.1977 C   0  0  0  0  0  0  0  0  0  0  0  0
    5.0580  -14.6633   22.3551 S   0  0  0  0  0  0  0  0  0  0  0  0
    8.0748  -15.4287   22.7801 C   0  0  0  0  0  0  0  0  0  0  0  0
    7.5375  -14.3822   23.2323 O   0  0  0  0  0  0  0  0  0  0  0  0
    9.4048  -15.7946   23.0416 N   0  0  0  0  0  0  0  0  0  0  0  0
   10.0670  -15.3688   24.2593 C   0  0  1  0  0  0  0  0  0  0  0  0
    9.1999  -15.4645   25.4584 C   0  0  0  0  0  0  0  0  0  0  0  0
    8.4870  -14.2259   25.7373 C   0  0  0  0  0  0  0  0  0  0  0  0
    8.3925  -13.7793   27.0465 C   0  0  0  0  0  0  0  0  0  0  0  0
    7.7268  -12.5933   27.2993 C   0  0  0  0  0  0  0  0  0  0  0  0
    7.1681  -11.8707   26.2648 C   0  0  0  0  0  0  0  0  0  0  0  0
    7.2467  -12.2935   24.9435 C   0  0  0  0  0  0  0  0  0  0  0  0
    7.9230  -13.4911   24.7189 C   0  0  0  0  0  0  0  0  0  0  0  0
   11.3881  -16.0395   24.3675 C   0  0  0  0  0  0  0  0  0  0  0  0
   11.8110  -17.0493   23.5025 O   0  0  0  0  0  0  0  0  0  0  0  0
   12.2233  -15.7380   25.2547 O   0  0  0  0  0  0  0  0  0  0  0  0
  2  1  1  0
  3  2  1  0
  4  3  1  0
  4  5  1  0
  5  7  1  0
  5  6  1  1
  7  8  2  0
  9  7  1  0
  9 10  1  0
 10 11  1  1
 11 12  1  0
 13 15  1  0
 13 10  1  0
 14 13  2  0
 16 15  1  0
 16 17  1  1
 18 17  1  0
 18 19  2  0
 20 19  1  0
 21 20  2  0
 22 23  2  0
 22 21  1  0
 23 18  1  0
 24 16  1  0
 24 25  1  0
 26 24  2  0
M  END
$$$$
