MCF.pdb
     RDKit          3D

 26 26  0  0  1  0  0  0  0  0999 V2000
    7.9005  -12.2504   19.3693 C   0  0  0  0  0  0  0  0  0  0  0  0
    8.1126  -12.6898   17.6335 S   0  0  0  0  0  0  0  0  0  0  0  0
    8.3648  -14.4449   17.4107 C   0  0  0  0  0  0  0  0  0  0  0  0
    8.5621  -15.1770   18.6876 C   0  0  0  0  0  0  0  0  0  0  0  0
    8.7974  -16.6429   18.5717 C   0  0  2  0  0  0  0  0  0  0  0  0
    7.9005  -17.3546   17.7190 N   0  0  0  0  0  0  0  0  0  0  0  0
    8.8498  -17.2672   19.9270 C   0  0  0  0  0  0  0  0  0  0  0  0
    7.8088  -17.8107   20.4282 O   0  0  0  0  0  0  0  0  0  0  0  0
   10.0159  -17.3003   20.7268 N   0  0  0  0  0  0  0  0  0  0  0  0
    9.9473  -17.7999   22.0925 C   0  0  1  0  0  0  0  0  0  0  0  0
   11.2937  -18.4172   22.4639 C   0  0  0  0  0  0  0  0  0  0  0  0
   12.6139  -17.2353   22.1515 S   0  0  0  0  0  0  0  0  0  0  0  0
    9.7489  -16.6397   22.9905 C   0  0  0  0  0  0  0  0  0  0  0  0
   10.2527  -15.5523   22.6007 O   0  0  0  0  0  0  0  0  0  0  0  0
    9.0387  -16.7800   24.1935 N   0  0  0  0  0  0  0  0  0  0  0  0
    8.8247  -15.6426   25.0670 C   0  0  1  0  0  0  0  0  0  0  0  0
    7.5872  -14.8893   24.7507 C   0  0  0  0  0  0  0  0  0  0  0  0
    7.3360  -13.8019   25.6859 C   0  0  0  0  0  0  0  0  0  0  0  0
    8.2588  -12.7725   25.7909 C   0  0  0  0  0  0  0  0  0  0  0  0
    8.0033  -11.7360   26.6707 C   0  0  0  0  0  0  0  0  0  0  0  0
    6.8499  -11.7303   27.4284 C   0  0  0  0  0  0  0  0  0  0  0  0
    5.9075  -12.7479   27.3446 C   0  0  0  0  0  0  0  0  0  0  0  0
    6.1912  -13.7784   26.4504 C   0  0  0  0  0  0  0  0  0  0  0  0
    8.9728  -16.0680   26.4827 C   0  0  0  0  0  0  0  0  0  0  0  0
    8.4516  -17.2604   26.9857 O   0  0  0  0  0  0  0  0  0  0  0  0
    9.5854  -15.3751   27.3312 O   0  0  0  0  0  0  0  0  0  0  0  0
  2  1  1  0
  3  2  1  0
  4  3  1  0
  4  5  1  0
  5  7  1  0
  5  6  1  6
  7  8  2  0
  9  7  1  0
  9 10  1  0
 10 11  1  1
 11 12  1  0
 13 15  1  0
 13 10  1  0
 14 13  2  0
 16 15  1  0
 16 17  1  1
 18 17  1  0
 18 19  2  0
 20 19  1  0
 21 20  2  0
 22 23  2  0
 22 21  1  0
 23 18  1  0
 24 16  1  0
 24 25  1  0
 26 24  2  0
M  END
$$$$
