MCF.pdb
     RDKit          3D

 26 26  0  0  1  0  0  0  0  0999 V2000
    8.2959  -11.8569   18.9429 C   0  0  0  0  0  0  0  0  0  0  0  0
    8.1215  -12.3610   20.6652 S   0  0  0  0  0  0  0  0  0  0  0  0
    8.8146  -13.9808   20.9647 C   0  0  0  0  0  0  0  0  0  0  0  0
    8.1870  -15.0490   20.1459 C   0  0  0  0  0  0  0  0  0  0  0  0
    8.6490  -16.4384   20.4178 C   0  0  2  0  0  0  0  0  0  0  0  0
    8.1155  -17.4525   19.5663 N   0  0  0  0  0  0  0  0  0  0  0  0
    8.4335  -16.7834   21.8544 C   0  0  0  0  0  0  0  0  0  0  0  0
    7.2928  -17.1931   22.2560 O   0  0  0  0  0  0  0  0  0  0  0  0
    9.4423  -16.6845   22.8409 N   0  0  0  0  0  0  0  0  0  0  0  0
    9.2085  -17.2155   24.1761 C   0  0  1  0  0  0  0  0  0  0  0  0
    9.8837  -18.5802   24.2933 C   0  0  0  0  0  0  0  0  0  0  0  0
   11.6436  -18.4213   23.9550 S   0  0  0  0  0  0  0  0  0  0  0  0
    9.8839  -16.3221   25.1443 C   0  0  0  0  0  0  0  0  0  0  0  0
   10.8571  -15.6605   24.6932 O   0  0  0  0  0  0  0  0  0  0  0  0
    9.4403  -16.2429   26.4740 N   0  0  0  0  0  0  0  0  0  0  0  0
   10.0961  -15.3668   27.4253 C   0  0  1  0  0  0  0  0  0  0  0  0
    9.1464  -14.5312   28.1990 C   0  0  0  0  0  0  0  0  0  0  0  0
    8.2343  -13.7809   27.3473 C   0  0  0  0  0  0  0  0  0  0  0  0
    7.0487  -14.3722   26.9385 C   0  0  0  0  0  0  0  0  0  0  0  0
    6.1816  -13.6454   26.1426 C   0  0  0  0  0  0  0  0  0  0  0  0
    6.4944  -12.3556   25.7643 C   0  0  0  0  0  0  0  0  0  0  0  0
    7.6747  -11.7374   26.1583 C   0  0  0  0  0  0  0  0  0  0  0  0
    8.5286  -12.4931   26.9594 C   0  0  0  0  0  0  0  0  0  0  0  0
   11.0683  -16.1480   28.2325 C   0  0  0  0  0  0  0  0  0  0  0  0
   12.0333  -15.5622   29.0523 O   0  0  0  0  0  0  0  0  0  0  0  0
   11.0859  -17.4030   28.2319 O   0  0  0  0  0  0  0  0  0  0  0  0
  2  1  1  0
  3  2  1  0
  4  3  1  0
  4  5  1  0
  5  7  1  0
  5  6  1  6
  7  8  2  0
  9  7  1  0
  9 10  1  0
 10 11  1  6
 11 12  1  0
 13 15  1  0
 13 10  1  0
 14 13  2  0
 16 15  1  0
 16 17  1  1
 18 17  1  0
 18 19  2  0
 20 19  1  0
 21 20  2  0
 22 23  2  0
 22 21  1  0
 23 18  1  0
 24 16  1  0
 24 25  1  0
 26 24  2  0
M  END
$$$$
