MCF.pdb
     RDKit          3D

 26 26  0  0  1  0  0  0  0  0999 V2000
    8.0248  -11.7783   19.6901 C   0  0  0  0  0  0  0  0  0  0  0  0
    7.4832  -12.8466   18.3424 S   0  0  0  0  0  0  0  0  0  0  0  0
    7.4349  -14.5663   18.8262 C   0  0  0  0  0  0  0  0  0  0  0  0
    8.7717  -15.1211   19.1585 C   0  0  0  0  0  0  0  0  0  0  0  0
    8.7867  -16.5011   19.7180 C   0  0  2  0  0  0  0  0  0  0  0  0
    8.1402  -17.5017   18.9312 N   0  0  0  0  0  0  0  0  0  0  0  0
    8.2575  -16.4991   21.1141 C   0  0  0  0  0  0  0  0  0  0  0  0
    8.1862  -15.4096   21.7762 O   0  0  0  0  0  0  0  0  0  0  0  0
    7.8125  -17.6637   21.7821 N   0  0  0  0  0  0  0  0  0  0  0  0
    7.2570  -17.5653   23.1242 C   0  0  1  0  0  0  0  0  0  0  0  0
    6.6703  -18.9184   23.5196 C   0  0  0  0  0  0  0  0  0  0  0  0
    4.9780  -19.0478   22.9224 S   0  0  0  0  0  0  0  0  0  0  0  0
    8.3735  -17.2961   24.0585 C   0  0  0  0  0  0  0  0  0  0  0  0
    9.4150  -17.9829   23.8804 O   0  0  0  0  0  0  0  0  0  0  0  0
    8.2437  -16.3290   25.0679 N   0  0  0  0  0  0  0  0  0  0  0  0
    9.3397  -16.0503   25.9755 C   0  0  1  0  0  0  0  0  0  0  0  0
    9.6961  -14.6122   26.0349 C   0  0  0  0  0  0  0  0  0  0  0  0
    8.5367  -13.7529   26.2294 C   0  0  0  0  0  0  0  0  0  0  0  0
    8.2838  -13.2322   27.4893 C   0  0  0  0  0  0  0  0  0  0  0  0
    7.1890  -12.4042   27.6603 C   0  0  0  0  0  0  0  0  0  0  0  0
    6.3657  -12.1042   26.5941 C   0  0  0  0  0  0  0  0  0  0  0  0
    6.5941  -12.6113   25.3208 C   0  0  0  0  0  0  0  0  0  0  0  0
    7.7038  -13.4422   25.1782 C   0  0  0  0  0  0  0  0  0  0  0  0
    9.0787  -16.7014   27.2851 C   0  0  0  0  0  0  0  0  0  0  0  0
    7.9011  -17.3886   27.5810 O   0  0  0  0  0  0  0  0  0  0  0  0
    9.9111  -16.6776   28.2242 O   0  0  0  0  0  0  0  0  0  0  0  0
  2  1  1  0
  3  2  1  0
  4  3  1  0
  4  5  1  0
  5  7  1  0
  5  6  1  6
  7  8  2  0
  9  7  1  0
  9 10  1  0
 10 11  1  1
 11 12  1  0
 13 15  1  0
 13 10  1  0
 14 13  2  0
 16 15  1  0
 16 17  1  1
 18 17  1  0
 18 19  2  0
 20 19  1  0
 21 20  2  0
 22 23  2  0
 22 21  1  0
 23 18  1  0
 24 16  1  0
 24 25  1  0
 26 24  2  0
M  END
$$$$
