MCF.pdb
     RDKit          3D

 26 26  0  0  1  0  0  0  0  0999 V2000
    5.1742  -59.2571  -14.7315 C   0  0  0  0  0  0  0  0  0  0  0  0
    3.8467  -58.0860  -14.3893 S   0  0  0  0  0  0  0  0  0  0  0  0
    4.1214  -57.1836  -12.8714 C   0  0  0  0  0  0  0  0  0  0  0  0
    4.6134  -58.0379  -11.7607 C   0  0  0  0  0  0  0  0  0  0  0  0
    4.0168  -57.7775  -10.4214 C   0  0  2  0  0  0  0  0  0  0  0  0
    3.8187  -58.9224   -9.5919 N   0  0  0  0  0  0  0  0  0  0  0  0
    2.7512  -56.9977  -10.5615 C   0  0  0  0  0  0  0  0  0  0  0  0
    2.5564  -56.2616  -11.5864 O   0  0  0  0  0  0  0  0  0  0  0  0
    1.7122  -57.0167   -9.6019 N   0  0  0  0  0  0  0  0  0  0  0  0
    0.3239  -57.0872  -10.0343 C   0  0  1  0  0  0  0  0  0  0  0  0
    0.1431  -56.2081  -11.2698 C   0  0  0  0  0  0  0  0  0  0  0  0
   -1.5464  -55.5934  -11.3393 S   0  0  0  0  0  0  0  0  0  0  0  0
    0.0512  -58.4790  -10.4588 C   0  0  0  0  0  0  0  0  0  0  0  0
    1.0032  -59.0742  -11.0312 O   0  0  0  0  0  0  0  0  0  0  0  0
   -1.2019  -59.0662  -10.2219 N   0  0  0  0  0  0  0  0  0  0  0  0
   -1.7683  -59.0959   -8.8874 C   0  0  1  0  0  0  0  0  0  0  0  0
   -0.9335  -59.8435   -7.9163 C   0  0  0  0  0  0  0  0  0  0  0  0
    0.4139  -60.0940   -8.4085 C   0  0  0  0  0  0  0  0  0  0  0  0
    0.6709  -61.2591   -9.1146 C   0  0  0  0  0  0  0  0  0  0  0  0
    1.9504  -61.4803   -9.5917 C   0  0  0  0  0  0  0  0  0  0  0  0
    2.9501  -60.5560   -9.3667 C   0  0  0  0  0  0  0  0  0  0  0  0
    2.7222  -59.3800   -8.6625 C   0  0  0  0  0  0  0  0  0  0  0  0
    1.4244  -59.1839   -8.1941 C   0  0  0  0  0  0  0  0  0  0  0  0
   -2.1510  -57.7198   -8.4789 C   0  0  0  0  0  0  0  0  0  0  0  0
   -3.4667  -57.3310   -8.2249 O   0  0  0  0  0  0  0  0  0  0  0  0
   -1.3057  -56.8039   -8.3317 O   0  0  0  0  0  0  0  0  0  0  0  0
  2  1  1  0
  3  2  1  0
  4  3  1  0
  4  5  1  0
  5  7  1  0
  5  6  1  6
  7  8  2  0
  9  7  1  0
  9 10  1  0
 10 11  1  6
 11 12  1  0
 13 15  1  0
 13 10  1  0
 14 13  2  0
 16 15  1  0
 16 17  1  1
 18 17  1  0
 18 19  2  0
 20 19  1  0
 21 20  2  0
 22 23  2  0
 22 21  1  0
 23 18  1  0
 24 16  1  0
 24 25  1  0
 26 24  2  0
M  END
$$$$
