MCF.pdb
     RDKit          3D

 26 26  0  0  1  0  0  0  0  0999 V2000
   12.1928  -20.5385   24.6583 C   0  0  0  0  0  0  0  0  0  0  0  0
   10.6518  -21.4735   24.7032 S   0  0  0  0  0  0  0  0  0  0  0  0
    9.9898  -21.7567   23.0675 C   0  0  0  0  0  0  0  0  0  0  0  0
   10.1422  -20.5898   22.1618 C   0  0  0  0  0  0  0  0  0  0  0  0
    8.8955  -19.8386   21.8471 C   0  0  2  0  0  0  0  0  0  0  0  0
    8.0489  -20.4198   20.8553 N   0  0  0  0  0  0  0  0  0  0  0  0
    9.2178  -18.4211   21.5060 C   0  0  0  0  0  0  0  0  0  0  0  0
   10.3257  -18.1283   20.9429 O   0  0  0  0  0  0  0  0  0  0  0  0
    8.3495  -17.3370   21.7732 N   0  0  0  0  0  0  0  0  0  0  0  0
    8.7581  -15.9793   21.4431 C   0  0  1  0  0  0  0  0  0  0  0  0
    7.5119  -15.1274   21.2131 C   0  0  0  0  0  0  0  0  0  0  0  0
    6.2407  -15.5708   22.4068 S   0  0  0  0  0  0  0  0  0  0  0  0
    9.4483  -15.4135   22.6243 C   0  0  0  0  0  0  0  0  0  0  0  0
   10.2335  -14.4551   22.3936 O   0  0  0  0  0  0  0  0  0  0  0  0
    9.2179  -15.9378   23.9062 N   0  0  0  0  0  0  0  0  0  0  0  0
   10.0035  -15.4960   25.0421 C   0  0  1  0  0  0  0  0  0  0  0  0
    9.9570  -14.0282   25.2474 C   0  0  0  0  0  0  0  0  0  0  0  0
    8.6544  -13.5651   25.7046 C   0  0  0  0  0  0  0  0  0  0  0  0
    8.4299  -13.4104   27.0640 C   0  0  0  0  0  0  0  0  0  0  0  0
    7.1942  -12.9548   27.4875 C   0  0  0  0  0  0  0  0  0  0  0  0
    6.2056  -12.6607   26.5706 C   0  0  0  0  0  0  0  0  0  0  0  0
    6.4018  -12.8060   25.2027 C   0  0  0  0  0  0  0  0  0  0  0  0
    7.6556  -13.2665   24.8054 C   0  0  0  0  0  0  0  0  0  0  0  0
    9.6669  -16.3212   26.2307 C   0  0  0  0  0  0  0  0  0  0  0  0
   10.4350  -16.3414   27.3952 O   0  0  0  0  0  0  0  0  0  0  0  0
    8.6556  -17.0636   26.2677 O   0  0  0  0  0  0  0  0  0  0  0  0
  2  1  1  0
  3  2  1  0
  4  3  1  0
  4  5  1  0
  5  7  1  0
  5  6  1  6
  7  8  2  0
  9  7  1  0
  9 10  1  0
 10 11  1  1
 11 12  1  0
 13 15  1  0
 13 10  1  0
 14 13  2  0
 16 15  1  0
 16 17  1  1
 18 17  1  0
 18 19  2  0
 20 19  1  0
 21 20  2  0
 22 23  2  0
 22 21  1  0
 23 18  1  0
 24 16  1  0
 24 25  1  0
 26 24  2  0
M  END
$$$$
