MCF.pdb
     RDKit          3D

 26 26  0  0  1  0  0  0  0  0999 V2000
    5.9836  -12.9416   26.8257 C   0  0  0  0  0  0  0  0  0  0  0  0
    6.4374  -12.8038   25.0862 S   0  0  0  0  0  0  0  0  0  0  0  0
    6.6364  -14.4036   24.3150 C   0  0  0  0  0  0  0  0  0  0  0  0
    7.1343  -14.3247   22.9181 C   0  0  0  0  0  0  0  0  0  0  0  0
    7.2910  -15.6227   22.2052 C   0  0  2  0  0  0  0  0  0  0  0  0
    6.1477  -16.4777   22.2044 N   0  0  0  0  0  0  0  0  0  0  0  0
    8.4957  -16.3472   22.7084 C   0  0  0  0  0  0  0  0  0  0  0  0
    8.3677  -17.3418   23.4988 O   0  0  0  0  0  0  0  0  0  0  0  0
    9.8205  -15.9963   22.3588 N   0  0  0  0  0  0  0  0  0  0  0  0
   10.9271  -16.8618   22.7404 C   0  0  1  0  0  0  0  0  0  0  0  0
   12.1526  -16.4993   21.9045 C   0  0  0  0  0  0  0  0  0  0  0  0
   12.0325  -17.2662   20.2813 S   0  0  0  0  0  0  0  0  0  0  0  0
   11.2702  -16.5646   24.1496 C   0  0  0  0  0  0  0  0  0  0  0  0
   11.1733  -15.3563   24.4944 O   0  0  0  0  0  0  0  0  0  0  0  0
   11.6746  -17.5905   25.0186 N   0  0  0  0  0  0  0  0  0  0  0  0
   11.5662  -17.4328   26.4560 C   0  0  1  0  0  0  0  0  0  0  0  0
   10.2637  -16.8679   26.8838 C   0  0  0  0  0  0  0  0  0  0  0  0
   10.4015  -15.5860   27.5606 C   0  0  0  0  0  0  0  0  0  0  0  0
   10.7943  -15.5612   28.8900 C   0  0  0  0  0  0  0  0  0  0  0  0
   10.9377  -14.3378   29.5195 C   0  0  0  0  0  0  0  0  0  0  0  0
   10.6933  -13.1655   28.8335 C   0  0  0  0  0  0  0  0  0  0  0  0
   10.2983  -13.1594   27.5013 C   0  0  0  0  0  0  0  0  0  0  0  0
   10.1622  -14.4059   26.8933 C   0  0  0  0  0  0  0  0  0  0  0  0
   11.9693  -18.6956   27.1266 C   0  0  0  0  0  0  0  0  0  0  0  0
   12.3788  -18.7620   28.4587 O   0  0  0  0  0  0  0  0  0  0  0  0
   11.9673  -19.8013   26.5327 O   0  0  0  0  0  0  0  0  0  0  0  0
  2  1  1  0
  3  2  1  0
  4  3  1  0
  4  5  1  0
  5  7  1  0
  5  6  1  1
  7  8  2  0
  9  7  1  0
  9 10  1  0
 10 11  1  6
 11 12  1  0
 13 15  1  0
 13 10  1  0
 14 13  2  0
 16 15  1  0
 16 17  1  6
 18 17  1  0
 18 19  2  0
 20 19  1  0
 21 20  2  0
 22 23  2  0
 22 21  1  0
 23 18  1  0
 24 16  1  0
 24 25  1  0
 26 24  2  0
M  END
$$$$
