MCF.pdb
     RDKit          3D

 26 26  0  0  1  0  0  0  0  0999 V2000
    2.3236  -19.7985   19.7622 C   0  0  0  0  0  0  0  0  0  0  0  0
    2.7267  -18.2113   20.5168 S   0  0  0  0  0  0  0  0  0  0  0  0
    4.0979  -18.3378   21.6558 C   0  0  0  0  0  0  0  0  0  0  0  0
    5.2359  -19.1273   21.1201 C   0  0  0  0  0  0  0  0  0  0  0  0
    6.4307  -19.2346   22.0025 C   0  0  2  0  0  0  0  0  0  0  0  0
    6.1663  -19.4279   23.3921 N   0  0  0  0  0  0  0  0  0  0  0  0
    7.3361  -18.0662   21.7916 C   0  0  0  0  0  0  0  0  0  0  0  0
    8.3854  -18.1837   21.0737 O   0  0  0  0  0  0  0  0  0  0  0  0
    7.1056  -16.7885   22.3529 N   0  0  0  0  0  0  0  0  0  0  0  0
    8.1123  -15.7449   22.2239 C   0  0  1  0  0  0  0  0  0  0  0  0
    7.4175  -14.4186   21.9243 C   0  0  0  0  0  0  0  0  0  0  0  0
    6.1664  -14.6585   20.6537 S   0  0  0  0  0  0  0  0  0  0  0  0
    8.7763  -15.5902   23.5380 C   0  0  0  0  0  0  0  0  0  0  0  0
    9.7187  -14.7546   23.5811 O   0  0  0  0  0  0  0  0  0  0  0  0
    8.3554  -16.3444   24.6449 N   0  0  0  0  0  0  0  0  0  0  0  0
    9.0406  -16.2408   25.9186 C   0  0  1  0  0  0  0  0  0  0  0  0
    8.1774  -15.7154   27.0039 C   0  0  0  0  0  0  0  0  0  0  0  0
    7.8188  -14.3175   26.8105 C   0  0  0  0  0  0  0  0  0  0  0  0
    6.5057  -13.9911   26.5080 C   0  0  0  0  0  0  0  0  0  0  0  0
    6.1717  -12.6589   26.3418 C   0  0  0  0  0  0  0  0  0  0  0  0
    7.1309  -11.6757   26.4753 C   0  0  0  0  0  0  0  0  0  0  0  0
    8.4542  -11.9727   26.7776 C   0  0  0  0  0  0  0  0  0  0  0  0
    8.7614  -13.3223   26.9395 C   0  0  0  0  0  0  0  0  0  0  0  0
    9.7364  -17.5196   26.2144 C   0  0  0  0  0  0  0  0  0  0  0  0
   10.5582  -17.7086   27.3260 O   0  0  0  0  0  0  0  0  0  0  0  0
    9.6291  -18.5286   25.4756 O   0  0  0  0  0  0  0  0  0  0  0  0
  2  1  1  0
  3  2  1  0
  4  3  1  0
  4  5  1  0
  5  7  1  0
  5  6  1  1
  7  8  2  0
  9  7  1  0
  9 10  1  0
 10 11  1  1
 11 12  1  0
 13 15  1  0
 13 10  1  0
 14 13  2  0
 16 15  1  0
 16 17  1  1
 18 17  1  0
 18 19  2  0
 20 19  1  0
 21 20  2  0
 22 23  2  0
 22 21  1  0
 23 18  1  0
 24 16  1  0
 24 25  1  0
 26 24  2  0
M  END
$$$$
