MCF.pdb
     RDKit          3D

 26 26  0  0  1  0  0  0  0  0999 V2000
    5.5107  -15.2850   26.7191 C   0  0  0  0  0  0  0  0  0  0  0  0
    6.2794  -16.7444   27.4472 S   0  0  0  0  0  0  0  0  0  0  0  0
    6.7966  -17.9213   26.2057 C   0  0  0  0  0  0  0  0  0  0  0  0
    6.4027  -17.5330   24.8276 C   0  0  0  0  0  0  0  0  0  0  0  0
    6.8584  -18.4389   23.7371 C   0  0  2  0  0  0  0  0  0  0  0  0
    6.6748  -19.8359   23.9671 N   0  0  0  0  0  0  0  0  0  0  0  0
    8.2765  -18.1418   23.3765 C   0  0  0  0  0  0  0  0  0  0  0  0
    9.2003  -18.9817   23.6438 O   0  0  0  0  0  0  0  0  0  0  0  0
    8.6857  -16.9494   22.7351 N   0  0  0  0  0  0  0  0  0  0  0  0
   10.0881  -16.7478   22.4004 C   0  0  1  0  0  0  0  0  0  0  0  0
   10.1884  -15.7091   21.2855 C   0  0  0  0  0  0  0  0  0  0  0  0
    9.2694  -14.2317   21.7434 S   0  0  0  0  0  0  0  0  0  0  0  0
   10.7582  -16.1661   23.5855 C   0  0  0  0  0  0  0  0  0  0  0  0
   11.6492  -15.3078   23.3452 O   0  0  0  0  0  0  0  0  0  0  0  0
   10.3975  -16.5699   24.8808 N   0  0  0  0  0  0  0  0  0  0  0  0
   11.1141  -16.0748   26.0402 C   0  0  1  0  0  0  0  0  0  0  0  0
   11.2398  -14.5975   26.0606 C   0  0  0  0  0  0  0  0  0  0  0  0
    9.9650  -13.9273   26.2748 C   0  0  0  0  0  0  0  0  0  0  0  0
    9.2428  -13.4801   25.1790 C   0  0  0  0  0  0  0  0  0  0  0  0
    8.0253  -12.8588   25.3921 C   0  0  0  0  0  0  0  0  0  0  0  0
    7.5418  -12.6889   26.6734 C   0  0  0  0  0  0  0  0  0  0  0  0
    8.2432  -13.1264   27.7903 C   0  0  0  0  0  0  0  0  0  0  0  0
    9.4659  -13.7485   27.5453 C   0  0  0  0  0  0  0  0  0  0  0  0
   10.5524  -16.6881   27.2712 C   0  0  0  0  0  0  0  0  0  0  0  0
    9.4171  -17.4991   27.2772 O   0  0  0  0  0  0  0  0  0  0  0  0
   11.0689  -16.5168   28.4022 O   0  0  0  0  0  0  0  0  0  0  0  0
  2  1  1  0
  3  2  1  0
  4  3  1  0
  4  5  1  0
  5  7  1  0
  5  6  1  1
  7  8  2  0
  9  7  1  0
  9 10  1  0
 10 11  1  6
 11 12  1  0
 13 15  1  0
 13 10  1  0
 14 13  2  0
 16 15  1  0
 16 17  1  1
 18 17  1  0
 18 19  2  0
 20 19  1  0
 21 20  2  0
 22 23  2  0
 22 21  1  0
 23 18  1  0
 24 16  1  0
 24 25  1  0
 26 24  2  0
M  END
$$$$
