MCF.pdb
     RDKit          3D

 26 26  0  0  1  0  0  0  0  0999 V2000
    8.5257  -11.6179   20.1165 C   0  0  0  0  0  0  0  0  0  0  0  0
    7.6080  -12.6172   18.9290 S   0  0  0  0  0  0  0  0  0  0  0  0
    7.7655  -14.3664   19.2593 C   0  0  0  0  0  0  0  0  0  0  0  0
    7.5831  -14.7127   20.6919 C   0  0  0  0  0  0  0  0  0  0  0  0
    7.7381  -16.1518   21.0420 C   0  0  2  0  0  0  0  0  0  0  0  0
    7.0713  -17.0790   20.1853 N   0  0  0  0  0  0  0  0  0  0  0  0
    7.3610  -16.3807   22.4684 C   0  0  0  0  0  0  0  0  0  0  0  0
    6.5282  -15.6060   23.0485 O   0  0  0  0  0  0  0  0  0  0  0  0
    7.8813  -17.4357   23.2539 N   0  0  0  0  0  0  0  0  0  0  0  0
    7.5386  -17.5288   24.6657 C   0  0  1  0  0  0  0  0  0  0  0  0
    7.4833  -19.0010   25.0676 C   0  0  0  0  0  0  0  0  0  0  0  0
    7.0807  -19.1417   26.8155 S   0  0  0  0  0  0  0  0  0  0  0  0
    8.6412  -16.9171   25.4414 C   0  0  0  0  0  0  0  0  0  0  0  0
    9.8045  -17.1424   25.0119 O   0  0  0  0  0  0  0  0  0  0  0  0
    8.3700  -16.1408   26.5794 N   0  0  0  0  0  0  0  0  0  0  0  0
    9.4463  -15.5398   27.3429 C   0  0  1  0  0  0  0  0  0  0  0  0
    9.0747  -14.2391   27.9500 C   0  0  0  0  0  0  0  0  0  0  0  0
    8.1845  -13.4570   27.1037 C   0  0  0  0  0  0  0  0  0  0  0  0
    6.9297  -13.1094   27.5800 C   0  0  0  0  0  0  0  0  0  0  0  0
    6.0975  -12.3528   26.7745 C   0  0  0  0  0  0  0  0  0  0  0  0
    6.5123  -11.9534   25.5203 C   0  0  0  0  0  0  0  0  0  0  0  0
    7.7636  -12.2868   25.0166 C   0  0  0  0  0  0  0  0  0  0  0  0
    8.5801  -13.0491   25.8497 C   0  0  0  0  0  0  0  0  0  0  0  0
   10.0146  -16.5452   28.2774 C   0  0  0  0  0  0  0  0  0  0  0  0
    9.5303  -17.8486   28.3921 O   0  0  0  0  0  0  0  0  0  0  0  0
   10.9814  -16.2864   29.0348 O   0  0  0  0  0  0  0  0  0  0  0  0
  2  1  1  0
  3  2  1  0
  4  3  1  0
  4  5  1  0
  5  7  1  0
  5  6  1  6
  7  8  2  0
  9  7  1  0
  9 10  1  0
 10 11  1  1
 11 12  1  0
 13 15  1  0
 13 10  1  0
 14 13  2  0
 16 15  1  0
 16 17  1  1
 18 17  1  0
 18 19  2  0
 20 19  1  0
 21 20  2  0
 22 23  2  0
 22 21  1  0
 23 18  1  0
 24 16  1  0
 24 25  1  0
 26 24  2  0
M  END
$$$$
