MMA.pdb
     RDKit          3D

 22 21  0  0  1  0  0  0  0  0999 V2000
   18.8635  -15.0571  -19.0852 C   0  0  0  0  0  0  0  0  0  0  0  0
   17.7677  -15.1516  -17.6278 S   0  0  0  0  0  0  0  0  0  0  0  0
   18.2750  -13.8660  -16.4267 C   0  0  0  0  0  0  0  0  0  0  0  0
   17.9763  -12.4992  -17.0125 C   0  0  0  0  0  0  0  0  0  0  0  0
   18.5848  -11.4663  -16.0896 C   0  0  2  0  0  0  0  0  0  0  0  0
   18.1376  -11.6360  -14.7311 N   0  0  0  0  0  0  0  0  0  0  0  0
   18.1586  -10.1265  -16.5717 C   0  0  0  0  0  0  0  0  0  0  0  0
   18.3800   -9.6999  -17.7252 O   0  0  0  0  0  0  0  0  0  0  0  0
   13.3437   -6.4741  -13.4074 C   0  0  0  0  0  0  0  0  0  0  0  0
   13.2463   -6.3657  -15.1952 S   0  0  0  0  0  0  0  0  0  0  0  0
   14.8051   -6.7341  -16.0148 C   0  0  0  0  0  0  0  0  0  0  0  0
   15.5299   -7.9119  -15.3904 C   0  0  0  0  0  0  0  0  0  0  0  0
   16.8306   -8.0411  -16.1776 C   0  0  2  0  0  0  0  0  0  0  0  0
   17.4583   -9.2744  -15.6771 N   0  0  0  0  0  0  0  0  0  0  0  0
   17.7190   -6.8989  -16.0117 C   0  0  0  0  0  0  0  0  0  0  0  0
   18.3839   -6.7624  -14.9592 O   0  0  0  0  0  0  0  0  0  0  0  0
   19.3296   -4.4933  -18.3095 C   0  0  0  0  0  0  0  0  0  0  0  0
   18.7690   -4.8004  -16.9354 C   0  0  2  0  0  0  0  0  0  0  0  0
   17.8541   -5.9220  -17.0249 N   0  0  0  0  0  0  0  0  0  0  0  0
   18.0738   -3.6078  -16.4478 C   0  0  0  0  0  0  0  0  0  0  0  0
   18.7437   -2.5889  -15.7656 O   0  0  0  0  0  0  0  0  0  0  0  0
   16.8341   -3.4921  -16.6473 O   0  0  0  0  0  0  0  0  0  0  0  0
  1  2  1  0
  3  2  1  0
  4  3  1  0
  5  4  1  0
  5  6  1  1
  7  5  1  0
  8  7  2  0
  9 10  1  0
 11 10  1  0
 12 11  1  0
 13 12  1  1
 13 14  1  0
 14  7  1  0
 15 13  1  0
 15 19  1  0
 16 15  2  0
 18 17  1  6
 18 19  1  0
 18 20  1  0
 20 21  1  0
 22 20  2  0
M  END
$$$$
