MMA.pdb
     RDKit          3D

 22 21  0  0  1  0  0  0  0  0999 V2000
   25.8894  -16.4463  -16.2169 C   0  0  0  0  0  0  0  0  0  0  0  0
   27.7121  -16.3573  -16.2808 S   0  0  0  0  0  0  0  0  0  0  0  0
   28.4026  -17.6807  -15.2202 C   0  0  0  0  0  0  0  0  0  0  0  0
   27.2857  -18.6269  -14.8233 C   0  0  0  0  0  0  0  0  0  0  0  0
   27.9131  -19.7813  -14.0731 C   0  0  2  0  0  0  0  0  0  0  0  0
   28.7304  -20.5958  -14.9350 N   0  0  0  0  0  0  0  0  0  0  0  0
   26.8101  -20.6154  -13.5282 C   0  0  0  0  0  0  0  0  0  0  0  0
   26.3366  -21.6117  -14.1154 O   0  0  0  0  0  0  0  0  0  0  0  0
   26.1868  -19.5904   -7.3093 C   0  0  0  0  0  0  0  0  0  0  0  0
   26.4292  -21.2775   -7.8682 S   0  0  0  0  0  0  0  0  0  0  0  0
   26.3008  -21.4593   -9.6537 C   0  0  0  0  0  0  0  0  0  0  0  0
   25.1098  -20.7185  -10.2326 C   0  0  0  0  0  0  0  0  0  0  0  0
   25.1275  -21.0410  -11.7239 C   0  0  2  0  0  0  0  0  0  0  0  0
   26.2555  -20.2681  -12.2678 N   0  0  0  0  0  0  0  0  0  0  0  0
   23.8847  -20.6976  -12.4013 C   0  0  0  0  0  0  0  0  0  0  0  0
   23.5450  -19.4990  -12.5302 O   0  0  0  0  0  0  0  0  0  0  0  0
   21.3242  -22.5745  -14.4009 C   0  0  0  0  0  0  0  0  0  0  0  0
   21.7393  -21.4182  -13.5136 C   0  0  2  0  0  0  0  0  0  0  0  0
   23.0356  -21.6984  -12.9271 N   0  0  0  0  0  0  0  0  0  0  0  0
   20.7266  -21.2566  -12.4687 C   0  0  0  0  0  0  0  0  0  0  0  0
   19.4386  -20.7955  -12.7527 O   0  0  0  0  0  0  0  0  0  0  0  0
   21.0207  -21.5409  -11.2760 O   0  0  0  0  0  0  0  0  0  0  0  0
  1  2  1  0
  3  2  1  0
  4  3  1  0
  5  4  1  0
  5  6  1  6
  7  5  1  0
  8  7  2  0
  9 10  1  0
 11 10  1  0
 12 11  1  0
 13 12  1  1
 13 14  1  0
 14  7  1  0
 15 13  1  0
 15 19  1  0
 16 15  2  0
 18 17  1  6
 18 19  1  0
 18 20  1  0
 20 21  1  0
 22 20  2  0
M  END
$$$$
