MMA.pdb
     RDKit          3D

 22 21  0  0  1  0  0  0  0  0999 V2000
   25.4511  -16.2407  -15.6911 C   0  0  0  0  0  0  0  0  0  0  0  0
   27.2535  -15.9497  -15.7221 S   0  0  0  0  0  0  0  0  0  0  0  0
   28.1054  -17.5591  -15.9140 C   0  0  0  0  0  0  0  0  0  0  0  0
   27.1400  -18.6731  -15.5569 C   0  0  0  0  0  0  0  0  0  0  0  0
   27.8481  -19.5952  -14.5888 C   0  0  2  0  0  0  0  0  0  0  0  0
   28.8510  -20.3916  -15.2479 N   0  0  0  0  0  0  0  0  0  0  0  0
   26.8260  -20.5002  -14.0011 C   0  0  0  0  0  0  0  0  0  0  0  0
   26.3864  -21.5189  -14.5762 O   0  0  0  0  0  0  0  0  0  0  0  0
   25.2565  -20.8715   -7.3665 C   0  0  0  0  0  0  0  0  0  0  0  0
   26.7651  -20.7082   -8.3229 S   0  0  0  0  0  0  0  0  0  0  0  0
   26.5612  -21.1584  -10.0529 C   0  0  0  0  0  0  0  0  0  0  0  0
   25.2504  -20.6635  -10.6352 C   0  0  0  0  0  0  0  0  0  0  0  0
   25.2911  -21.0671  -12.1062 C   0  0  2  0  0  0  0  0  0  0  0  0
   26.3129  -20.1983  -12.7118 N   0  0  0  0  0  0  0  0  0  0  0  0
   24.0093  -20.9135  -12.7804 C   0  0  0  0  0  0  0  0  0  0  0  0
   23.5665  -19.7722  -13.0447 O   0  0  0  0  0  0  0  0  0  0  0  0
   21.6118  -23.3220  -14.4085 C   0  0  0  0  0  0  0  0  0  0  0  0
   22.0065  -21.9450  -13.9136 C   0  0  2  0  0  0  0  0  0  0  0  0
   23.2367  -22.0380  -13.1516 N   0  0  0  0  0  0  0  0  0  0  0  0
   20.9209  -21.4311  -13.0763 C   0  0  0  0  0  0  0  0  0  0  0  0
   19.7118  -20.9914  -13.6213 O   0  0  0  0  0  0  0  0  0  0  0  0
   21.0771  -21.3823  -11.8260 O   0  0  0  0  0  0  0  0  0  0  0  0
  1  2  1  0
  3  2  1  0
  4  3  1  0
  5  4  1  0
  5  6  1  6
  7  5  1  0
  8  7  2  0
  9 10  1  0
 11 10  1  0
 12 11  1  0
 13 12  1  1
 13 14  1  0
 14  7  1  0
 15 13  1  0
 15 19  1  0
 16 15  2  0
 18 17  1  1
 18 19  1  0
 18 20  1  0
 20 21  1  0
 22 20  2  0
M  END
$$$$
