MMA.pdb
     RDKit          3D

 22 21  0  0  1  0  0  0  0  0999 V2000
   32.0467  -26.2276  -21.0365 C   0  0  0  0  0  0  0  0  0  0  0  0
   33.5800  -25.3731  -20.5336 S   0  0  0  0  0  0  0  0  0  0  0  0
   33.6297  -25.2827  -18.7054 C   0  0  0  0  0  0  0  0  0  0  0  0
   32.2128  -25.3596  -18.1697 C   0  0  0  0  0  0  0  0  0  0  0  0
   32.1064  -24.3778  -17.0234 C   0  0  2  0  0  0  0  0  0  0  0  0
   32.8430  -24.8244  -15.8691 N   0  0  0  0  0  0  0  0  0  0  0  0
   30.6693  -24.2639  -16.6616 C   0  0  0  0  0  0  0  0  0  0  0  0
   30.2007  -24.6131  -15.5570 O   0  0  0  0  0  0  0  0  0  0  0  0
   28.4577  -18.9425  -15.1372 C   0  0  0  0  0  0  0  0  0  0  0  0
   27.4121  -20.2973  -14.5999 S   0  0  0  0  0  0  0  0  0  0  0  0
   27.3312  -21.6460  -15.7881 C   0  0  0  0  0  0  0  0  0  0  0  0
   28.7032  -22.1075  -16.2430 C   0  0  0  0  0  0  0  0  0  0  0  0
   28.4362  -23.2673  -17.1980 C   0  0  2  0  0  0  0  0  0  0  0  0
   29.7684  -23.7282  -17.6199 N   0  0  0  0  0  0  0  0  0  0  0  0
   27.6259  -22.8904  -18.3481 C   0  0  0  0  0  0  0  0  0  0  0  0
   28.0866  -22.1193  -19.2209 O   0  0  0  0  0  0  0  0  0  0  0  0
   25.6898  -23.9307  -20.7857 C   0  0  0  0  0  0  0  0  0  0  0  0
   25.4469  -23.0026  -19.6125 C   0  0  2  0  0  0  0  0  0  0  0  0
   26.3093  -23.3800  -18.5094 N   0  0  0  0  0  0  0  0  0  0  0  0
   24.0393  -23.1130  -19.2254 C   0  0  0  0  0  0  0  0  0  0  0  0
   23.0070  -22.6734  -20.0582 O   0  0  0  0  0  0  0  0  0  0  0  0
   23.7450  -23.6193  -18.1087 O   0  0  0  0  0  0  0  0  0  0  0  0
  1  2  1  0
  3  2  1  0
  4  3  1  0
  5  4  1  0
  5  6  1  1
  7  5  1  0
  8  7  2  0
  9 10  1  0
 11 10  1  0
 12 11  1  0
 13 12  1  1
 13 14  1  0
 14  7  1  0
 15 13  1  0
 15 19  1  0
 16 15  2  0
 18 17  1  6
 18 19  1  0
 18 20  1  0
 20 21  1  0
 22 20  2  0
M  END
$$$$
