MMA.pdb
     RDKit          3D

 22 21  0  0  1  0  0  0  0  0999 V2000
   26.8932  -35.7276  -12.1079 C   0  0  0  0  0  0  0  0  0  0  0  0
   26.5431  -35.0285  -10.4578 S   0  0  0  0  0  0  0  0  0  0  0  0
   26.2124  -33.2365  -10.6369 C   0  0  0  0  0  0  0  0  0  0  0  0
   25.7067  -32.6943   -9.3137 C   0  0  0  0  0  0  0  0  0  0  0  0
   24.2970  -32.1923   -9.5372 C   0  0  2  0  0  0  0  0  0  0  0  0
   24.2838  -30.8266   -9.9943 N   0  0  0  0  0  0  0  0  0  0  0  0
   23.5810  -32.2706   -8.2371 C   0  0  0  0  0  0  0  0  0  0  0  0
   24.0445  -31.8364   -7.1608 O   0  0  0  0  0  0  0  0  0  0  0  0
   16.5810  -33.2260   -4.8016 C   0  0  0  0  0  0  0  0  0  0  0  0
   17.5116  -33.0576   -6.3257 S   0  0  0  0  0  0  0  0  0  0  0  0
   19.2888  -32.9538   -6.0647 C   0  0  0  0  0  0  0  0  0  0  0  0
   20.0727  -32.9755   -7.3637 C   0  0  0  0  0  0  0  0  0  0  0  0
   21.5388  -32.9233   -6.9442 C   0  0  2  0  0  0  0  0  0  0  0  0
   22.2948  -32.8720   -8.2057 N   0  0  0  0  0  0  0  0  0  0  0  0
   21.9471  -34.0651   -6.1372 C   0  0  0  0  0  0  0  0  0  0  0  0
   22.1796  -35.1707   -6.6777 O   0  0  0  0  0  0  0  0  0  0  0  0
   22.7591  -34.5463   -2.4819 C   0  0  0  0  0  0  0  0  0  0  0  0
   22.5255  -35.0538   -3.8907 C   0  0  2  0  0  0  0  0  0  0  0  0
   22.0908  -33.9577   -4.7347 N   0  0  0  0  0  0  0  0  0  0  0  0
   21.5011  -36.0985   -3.8367 C   0  0  0  0  0  0  0  0  0  0  0  0
   21.8260  -37.4426   -3.6369 O   0  0  0  0  0  0  0  0  0  0  0  0
   20.2887  -35.7805   -3.9739 O   0  0  0  0  0  0  0  0  0  0  0  0
  1  2  1  0
  3  2  1  0
  4  3  1  0
  5  4  1  0
  5  6  1  1
  7  5  1  0
  8  7  2  0
  9 10  1  0
 11 10  1  0
 12 11  1  0
 13 12  1  6
 13 14  1  0
 14  7  1  0
 15 13  1  0
 15 19  1  0
 16 15  2  0
 18 17  1  1
 18 19  1  0
 18 20  1  0
 20 21  1  0
 22 20  2  0
M  END
$$$$
