MMA.pdb
     RDKit          3D

 22 21  0  0  1  0  0  0  0  0999 V2000
   26.3234  -17.2405  -17.4621 C   0  0  0  0  0  0  0  0  0  0  0  0
   28.1047  -17.0197  -17.1268 S   0  0  0  0  0  0  0  0  0  0  0  0
   28.7213  -18.4934  -16.2319 C   0  0  0  0  0  0  0  0  0  0  0  0
   27.5437  -19.2234  -15.6148 C   0  0  0  0  0  0  0  0  0  0  0  0
   28.0793  -20.4774  -14.9593 C   0  0  2  0  0  0  0  0  0  0  0  0
   28.4550  -21.4693  -15.9338 N   0  0  0  0  0  0  0  0  0  0  0  0
   26.9997  -21.0319  -14.1013 C   0  0  0  0  0  0  0  0  0  0  0  0
   26.1355  -21.8389  -14.5059 O   0  0  0  0  0  0  0  0  0  0  0  0
   26.7860  -19.7459   -7.5678 C   0  0  0  0  0  0  0  0  0  0  0  0
   25.2690  -20.6517   -7.8771 S   0  0  0  0  0  0  0  0  0  0  0  0
   25.0701  -21.1367   -9.5983 C   0  0  0  0  0  0  0  0  0  0  0  0
   26.1959  -20.6322  -10.4817 C   0  0  0  0  0  0  0  0  0  0  0  0
   25.8175  -21.0662  -11.8947 C   0  0  2  0  0  0  0  0  0  0  0  0
   26.9382  -20.6274  -12.7414 N   0  0  0  0  0  0  0  0  0  0  0  0
   24.5601  -20.4930  -12.3551 C   0  0  0  0  0  0  0  0  0  0  0  0
   24.4497  -19.2556  -12.5139 O   0  0  0  0  0  0  0  0  0  0  0  0
   21.7434  -21.6410  -14.3298 C   0  0  0  0  0  0  0  0  0  0  0  0
   22.1869  -20.7971  -13.1518 C   0  0  2  0  0  0  0  0  0  0  0  0
   23.4401  -21.3101  -12.6328 N   0  0  0  0  0  0  0  0  0  0  0  0
   21.1431  -20.8573  -12.1270 C   0  0  0  0  0  0  0  0  0  0  0  0
   19.8839  -20.2833  -12.3198 O   0  0  0  0  0  0  0  0  0  0  0  0
   21.3828  -21.4437  -11.0367 O   0  0  0  0  0  0  0  0  0  0  0  0
  1  2  1  0
  3  2  1  0
  4  3  1  0
  5  4  1  0
  5  6  1  6
  7  5  1  0
  8  7  2  0
  9 10  1  0
 11 10  1  0
 12 11  1  0
 13 12  1  1
 13 14  1  0
 14  7  1  0
 15 13  1  0
 15 19  1  0
 16 15  2  0
 18 17  1  6
 18 19  1  0
 18 20  1  0
 20 21  1  0
 22 20  2  0
M  END
$$$$
