MMA.pdb
     RDKit          3D

 22 21  0  0  1  0  0  0  0  0999 V2000
   26.2684  -15.6289  -14.9868 C   0  0  0  0  0  0  0  0  0  0  0  0
   27.6006  -15.9008  -16.2056 S   0  0  0  0  0  0  0  0  0  0  0  0
   28.3621  -17.5356  -15.8888 C   0  0  0  0  0  0  0  0  0  0  0  0
   27.3303  -18.4437  -15.2474 C   0  0  0  0  0  0  0  0  0  0  0  0
   28.0408  -19.7101  -14.8227 C   0  0  2  0  0  0  0  0  0  0  0  0
   28.4476  -20.4990  -15.9570 N   0  0  0  0  0  0  0  0  0  0  0  0
   27.0904  -20.5044  -14.0012 C   0  0  0  0  0  0  0  0  0  0  0  0
   26.4522  -21.4883  -14.4330 O   0  0  0  0  0  0  0  0  0  0  0  0
   26.9062  -20.1053   -7.3752 C   0  0  0  0  0  0  0  0  0  0  0  0
   25.3124  -20.8110   -7.7985 S   0  0  0  0  0  0  0  0  0  0  0  0
   25.1182  -21.1201   -9.5603 C   0  0  0  0  0  0  0  0  0  0  0  0
   26.1550  -20.3959  -10.3987 C   0  0  0  0  0  0  0  0  0  0  0  0
   25.8765  -20.8275  -11.8355 C   0  0  2  0  0  0  0  0  0  0  0  0
   26.8889  -20.1317  -12.6457 N   0  0  0  0  0  0  0  0  0  0  0  0
   24.5311  -20.4968  -12.2848 C   0  0  0  0  0  0  0  0  0  0  0  0
   24.1844  -19.3005  -12.4162 O   0  0  0  0  0  0  0  0  0  0  0  0
   21.7886  -22.4059  -13.9324 C   0  0  0  0  0  0  0  0  0  0  0  0
   22.2596  -21.2340  -13.0948 C   0  0  2  0  0  0  0  0  0  0  0  0
   23.5882  -21.5076  -12.5823 N   0  0  0  0  0  0  0  0  0  0  0  0
   21.3123  -21.0482  -11.9941 C   0  0  0  0  0  0  0  0  0  0  0  0
   20.0323  -20.5272  -12.2004 O   0  0  0  0  0  0  0  0  0  0  0  0
   21.6572  -21.3665  -10.8237 O   0  0  0  0  0  0  0  0  0  0  0  0
  1  2  1  0
  3  2  1  0
  4  3  1  0
  5  4  1  0
  5  6  1  6
  7  5  1  0
  8  7  2  0
  9 10  1  0
 11 10  1  0
 12 11  1  0
 13 12  1  1
 13 14  1  0
 14  7  1  0
 15 13  1  0
 15 19  1  0
 16 15  2  0
 18 17  1  6
 18 19  1  0
 18 20  1  0
 20 21  1  0
 22 20  2  0
M  END
$$$$
