MMA.pdb
     RDKit          3D

 22 21  0  0  1  0  0  0  0  0999 V2000
   13.5134  -11.1149  -17.9380 C   0  0  0  0  0  0  0  0  0  0  0  0
   14.6495  -11.1025  -19.3674 S   0  0  0  0  0  0  0  0  0  0  0  0
   16.3664  -10.9398  -18.7521 C   0  0  0  0  0  0  0  0  0  0  0  0
   16.4043   -9.8736  -17.6740 C   0  0  0  0  0  0  0  0  0  0  0  0
   17.8377   -9.7519  -17.2054 C   0  0  2  0  0  0  0  0  0  0  0  0
   18.2801  -10.9435  -16.5280 N   0  0  0  0  0  0  0  0  0  0  0  0
   17.9052   -8.6081  -16.2586 C   0  0  0  0  0  0  0  0  0  0  0  0
   17.2811   -8.5634  -15.1768 O   0  0  0  0  0  0  0  0  0  0  0  0
   23.4817   -5.6103  -15.0617 C   0  0  0  0  0  0  0  0  0  0  0  0
   22.3153   -5.1068  -13.7955 S   0  0  0  0  0  0  0  0  0  0  0  0
   20.5977   -5.2974  -14.2962 C   0  0  0  0  0  0  0  0  0  0  0  0
   20.4098   -6.3833  -15.3392 C   0  0  0  0  0  0  0  0  0  0  0  0
   18.9112   -6.4047  -15.6254 C   0  0  2  0  0  0  0  0  0  0  0  0
   18.7235   -7.4969  -16.5937 N   0  0  0  0  0  0  0  0  0  0  0  0
   18.4090   -5.1448  -16.1561 C   0  0  0  0  0  0  0  0  0  0  0  0
   18.7333   -4.7687  -17.3059 O   0  0  0  0  0  0  0  0  0  0  0  0
   15.7901   -2.6751  -15.1320 C   0  0  0  0  0  0  0  0  0  0  0  0
   17.0796   -3.0242  -15.8476 C   0  0  2  0  0  0  0  0  0  0  0  0
   17.5496   -4.3192  -15.3951 N   0  0  0  0  0  0  0  0  0  0  0  0
   18.0660   -1.9852  -15.5460 C   0  0  0  0  0  0  0  0  0  0  0  0
   18.1607   -0.8141  -16.3021 O   0  0  0  0  0  0  0  0  0  0  0  0
   18.8553   -2.1476  -14.5762 O   0  0  0  0  0  0  0  0  0  0  0  0
  1  2  1  0
  3  2  1  0
  4  3  1  0
  5  4  1  0
  5  6  1  1
  7  5  1  0
  8  7  2  0
  9 10  1  0
 11 10  1  0
 12 11  1  0
 13 12  1  6
 13 14  1  0
 14  7  1  0
 15 13  1  0
 15 19  1  0
 16 15  2  0
 18 17  1  1
 18 19  1  0
 18 20  1  0
 20 21  1  0
 22 20  2  0
M  END
$$$$
