MMA.pdb
     RDKit          3D

 22 21  0  0  1  0  0  0  0  0999 V2000
   26.6815  -15.8126  -15.3057 C   0  0  0  0  0  0  0  0  0  0  0  0
   28.2389  -16.7641  -15.3629 S   0  0  0  0  0  0  0  0  0  0  0  0
   27.9998  -18.2179  -16.4502 C   0  0  0  0  0  0  0  0  0  0  0  0
   26.9242  -19.1065  -15.8550 C   0  0  0  0  0  0  0  0  0  0  0  0
   27.5638  -19.9144  -14.7472 C   0  0  2  0  0  0  0  0  0  0  0  0
   28.5329  -20.8484  -15.2599 N   0  0  0  0  0  0  0  0  0  0  0  0
   26.4835  -20.6708  -14.0618 C   0  0  0  0  0  0  0  0  0  0  0  0
   25.9132  -21.6681  -14.5537 O   0  0  0  0  0  0  0  0  0  0  0  0
   25.9826  -19.6648   -7.7797 C   0  0  0  0  0  0  0  0  0  0  0  0
   26.8062  -21.0700   -8.5310 S   0  0  0  0  0  0  0  0  0  0  0  0
   26.3682  -21.3086  -10.2597 C   0  0  0  0  0  0  0  0  0  0  0  0
   25.0798  -20.6027  -10.6393 C   0  0  0  0  0  0  0  0  0  0  0  0
   24.9030  -20.8725  -12.1306 C   0  0  2  0  0  0  0  0  0  0  0  0
   26.0682  -20.2435  -12.7727 N   0  0  0  0  0  0  0  0  0  0  0  0
   23.6592  -20.3381  -12.6682 C   0  0  0  0  0  0  0  0  0  0  0  0
   23.6691  -19.3082  -13.3807 O   0  0  0  0  0  0  0  0  0  0  0  0
   21.6154  -20.4310  -14.6261 C   0  0  0  0  0  0  0  0  0  0  0  0
   21.2243  -20.7313  -13.1931 C   0  0  2  0  0  0  0  0  0  0  0  0
   22.4182  -20.9616  -12.4030 N   0  0  0  0  0  0  0  0  0  0  0  0
   20.3698  -21.9202  -13.1917 C   0  0  0  0  0  0  0  0  0  0  0  0
   19.1082  -21.9244  -13.7922 O   0  0  0  0  0  0  0  0  0  0  0  0
   20.7803  -22.9736  -12.6334 O   0  0  0  0  0  0  0  0  0  0  0  0
  1  2  1  0
  3  2  1  0
  4  3  1  0
  5  4  1  0
  5  6  1  6
  7  5  1  0
  8  7  2  0
  9 10  1  0
 11 10  1  0
 12 11  1  0
 13 12  1  1
 13 14  1  0
 14  7  1  0
 15 13  1  0
 15 19  1  0
 16 15  2  0
 18 17  1  6
 18 19  1  0
 18 20  1  0
 20 21  1  0
 22 20  2  0
M  END
$$$$
