MMA.pdb
     RDKit          3D

 22 21  0  0  1  0  0  0  0  0999 V2000
   17.9132  -13.9759  -16.7563 C   0  0  0  0  0  0  0  0  0  0  0  0
   16.8797  -13.0145  -15.5980 S   0  0  0  0  0  0  0  0  0  0  0  0
   17.8434  -11.5738  -15.0076 C   0  0  0  0  0  0  0  0  0  0  0  0
   17.0006  -10.7883  -14.0211 C   0  0  0  0  0  0  0  0  0  0  0  0
   17.8510   -9.6493  -13.5027 C   0  0  2  0  0  0  0  0  0  0  0  0
   18.7569  -10.0869  -12.4719 N   0  0  0  0  0  0  0  0  0  0  0  0
   16.9343   -8.6269  -12.9342 C   0  0  0  0  0  0  0  0  0  0  0  0
   16.0411   -8.0514  -13.5919 O   0  0  0  0  0  0  0  0  0  0  0  0
   13.1575   -8.3774   -7.4476 C   0  0  0  0  0  0  0  0  0  0  0  0
   14.3959   -7.0837   -7.3469 S   0  0  0  0  0  0  0  0  0  0  0  0
   15.0650   -6.6151   -8.9501 C   0  0  0  0  0  0  0  0  0  0  0  0
   15.9467   -7.6926   -9.5532 C   0  0  0  0  0  0  0  0  0  0  0  0
   16.2152   -7.2326  -10.9831 C   0  0  2  0  0  0  0  0  0  0  0  0
   17.0734   -8.2768  -11.5648 N   0  0  0  0  0  0  0  0  0  0  0  0
   16.8584   -5.9278  -11.0562 C   0  0  0  0  0  0  0  0  0  0  0  0
   18.0140   -5.7660  -10.6015 O   0  0  0  0  0  0  0  0  0  0  0  0
   16.4003   -2.8892  -13.0889 C   0  0  0  0  0  0  0  0  0  0  0  0
   16.8115   -3.5092  -11.7685 C   0  0  2  0  0  0  0  0  0  0  0  0
   16.2019   -4.8184  -11.6372 N   0  0  0  0  0  0  0  0  0  0  0  0
   16.3673   -2.6248  -10.6897 C   0  0  0  0  0  0  0  0  0  0  0  0
   17.0940   -1.4913  -10.3166 O   0  0  0  0  0  0  0  0  0  0  0  0
   15.2978   -2.8897  -10.0765 O   0  0  0  0  0  0  0  0  0  0  0  0
  1  2  1  0
  3  2  1  0
  4  3  1  0
  5  4  1  0
  5  6  1  1
  7  5  1  0
  8  7  2  0
  9 10  1  0
 11 10  1  0
 12 11  1  0
 13 12  1  1
 13 14  1  0
 14  7  1  0
 15 13  1  0
 15 19  1  0
 16 15  2  0
 18 17  1  6
 18 19  1  0
 18 20  1  0
 20 21  1  0
 22 20  2  0
M  END
$$$$
