IGF.pdb
     RDKit          3D

 24 24  0  0  1  0  0  0  0  0999 V2000
   21.5091  -18.6855  -16.3429 C   0  0  0  0  0  0  0  0  0  0  0  0
   21.7667  -19.6971  -15.2475 C   0  0  0  0  0  0  0  0  0  0  0  0
   23.1233  -19.4859  -14.5987 C   0  0  2  0  0  0  0  0  0  0  0  0
   24.1891  -19.8534  -15.5722 C   0  0  0  0  0  0  0  0  0  0  0  0
   23.1073  -20.3154  -13.3322 C   0  0  2  0  0  0  0  0  0  0  0  0
   22.0643  -19.6871  -12.4937 N   0  0  0  0  0  0  0  0  0  0  0  0
   24.3530  -20.2083  -12.5412 C   0  0  0  0  0  0  0  0  0  0  0  0
   25.3831  -20.8776  -12.7862 O   0  0  0  0  0  0  0  0  0  0  0  0
   24.4198  -19.2954  -11.4241 N   0  0  0  0  0  0  0  0  0  0  0  0
   25.6208  -19.2116  -10.6364 C   0  0  0  0  0  0  0  0  0  0  0  0
   25.6370  -20.1851   -9.5315 C   0  0  0  0  0  0  0  0  0  0  0  0
   24.6466  -21.0114   -9.4127 O   0  0  0  0  0  0  0  0  0  0  0  0
   26.6364  -20.3328   -8.5509 N   0  0  0  0  0  0  0  0  0  0  0  0
   26.6131  -21.3519   -7.5243 C   0  0  1  0  0  0  0  0  0  0  0  0
   27.9978  -21.4189   -6.9315 C   0  0  0  0  0  0  0  0  0  0  0  0
   28.3130  -20.3704   -5.9609 C   0  0  0  0  0  0  0  0  0  0  0  0
   28.5458  -19.0863   -6.4007 C   0  0  0  0  0  0  0  0  0  0  0  0
   28.8457  -18.0706   -5.5022 C   0  0  0  0  0  0  0  0  0  0  0  0
   28.9044  -18.3794   -4.1614 C   0  0  0  0  0  0  0  0  0  0  0  0
   28.6759  -19.6553   -3.6944 C   0  0  0  0  0  0  0  0  0  0  0  0
   28.3826  -20.6331   -4.6085 C   0  0  0  0  0  0  0  0  0  0  0  0
   25.6175  -21.1327   -6.4703 C   0  0  0  0  0  0  0  0  0  0  0  0
   24.9379  -19.9445   -6.2635 O   0  0  0  0  0  0  0  0  0  0  0  0
   25.3352  -22.0640   -5.6783 O   0  0  0  0  0  0  0  0  0  0  0  0
  2  1  1  0
  3  2  1  0
  3  5  1  0
  3  4  1  6
  5  6  1  1
  7  5  1  0
  7  9  1  0
  8  7  2  0
 10  9  1  0
 11 10  1  0
 12 11  2  0
 13 11  1  0
 14 22  1  0
 14 13  1  0
 15 16  1  0
 14 15  1  1
 16 21  2  0
 16 17  1  0
 17 18  2  0
 18 19  1  0
 20 19  2  0
 21 20  1  0
 22 23  1  0
 24 22  2  0
M  END
$$$$
