IGF.pdb
     RDKit          3D

 24 24  0  0  1  0  0  0  0  0999 V2000
   28.1400  -18.7114  -18.7163 C   0  0  0  0  0  0  0  0  0  0  0  0
   26.7584  -18.1988  -18.3729 C   0  0  0  0  0  0  0  0  0  0  0  0
   26.6504  -17.8212  -16.9060 C   0  0  2  0  0  0  0  0  0  0  0  0
   27.6748  -16.7855  -16.5950 C   0  0  0  0  0  0  0  0  0  0  0  0
   26.8028  -19.1157  -16.1357 C   0  0  2  0  0  0  0  0  0  0  0  0
   25.6338  -19.9250  -16.5409 N   0  0  0  0  0  0  0  0  0  0  0  0
   26.6673  -18.9503  -14.6717 C   0  0  0  0  0  0  0  0  0  0  0  0
   25.7117  -18.3452  -14.1334 O   0  0  0  0  0  0  0  0  0  0  0  0
   27.6684  -19.5025  -13.7894 N   0  0  0  0  0  0  0  0  0  0  0  0
   27.6308  -19.2011  -12.3831 C   0  0  0  0  0  0  0  0  0  0  0  0
   26.7767  -20.1357  -11.6309 C   0  0  0  0  0  0  0  0  0  0  0  0
   26.6335  -21.3447  -12.0731 O   0  0  0  0  0  0  0  0  0  0  0  0
   26.0695  -19.8646  -10.4441 N   0  0  0  0  0  0  0  0  0  0  0  0
   25.3160  -20.8584   -9.7106 C   0  0  1  0  0  0  0  0  0  0  0  0
   25.4140  -20.5023   -8.2488 C   0  0  0  0  0  0  0  0  0  0  0  0
   26.7669  -20.2344   -7.7606 C   0  0  0  0  0  0  0  0  0  0  0  0
   27.7141  -21.2332   -7.8035 C   0  0  0  0  0  0  0  0  0  0  0  0
   29.0066  -21.0073   -7.3485 C   0  0  0  0  0  0  0  0  0  0  0  0
   29.3173  -19.7602   -6.8535 C   0  0  0  0  0  0  0  0  0  0  0  0
   28.3894  -18.7434   -6.7990 C   0  0  0  0  0  0  0  0  0  0  0  0
   27.1236  -19.0009   -7.2564 C   0  0  0  0  0  0  0  0  0  0  0  0
   23.9111  -20.9777  -10.1131 C   0  0  0  0  0  0  0  0  0  0  0  0
   23.0294  -21.9264   -9.6240 O   0  0  0  0  0  0  0  0  0  0  0  0
   23.4374  -20.1826  -10.9603 O   0  0  0  0  0  0  0  0  0  0  0  0
  2  1  1  0
  3  2  1  0
  3  5  1  0
  3  4  1  1
  5  6  1  6
  7  5  1  0
  7  9  1  0
  8  7  2  0
 10  9  1  0
 11 10  1  0
 12 11  2  0
 13 11  1  0
 14 22  1  0
 14 13  1  0
 15 16  1  0
 14 15  1  1
 16 21  2  0
 16 17  1  0
 17 18  2  0
 18 19  1  0
 20 19  2  0
 21 20  1  0
 22 23  1  0
 24 22  2  0
M  END
$$$$
