IGF.pdb
     RDKit          3D

 24 24  0  0  1  0  0  0  0  0999 V2000
   22.2111  -18.4397  -16.5888 C   0  0  0  0  0  0  0  0  0  0  0  0
   22.8602  -19.7991  -16.4466 C   0  0  0  0  0  0  0  0  0  0  0  0
   22.6033  -20.4011  -15.0764 C   0  0  2  0  0  0  0  0  0  0  0  0
   21.1478  -20.3120  -14.7726 C   0  0  0  0  0  0  0  0  0  0  0  0
   23.4988  -19.6431  -14.1194 C   0  0  2  0  0  0  0  0  0  0  0  0
   24.8697  -20.0381  -14.5069 N   0  0  0  0  0  0  0  0  0  0  0  0
   23.3574  -20.0752  -12.7115 C   0  0  0  0  0  0  0  0  0  0  0  0
   22.4185  -19.7051  -11.9694 O   0  0  0  0  0  0  0  0  0  0  0  0
   24.3323  -20.9691  -12.1318 N   0  0  0  0  0  0  0  0  0  0  0  0
   24.2542  -21.3087  -10.7359 C   0  0  0  0  0  0  0  0  0  0  0  0
   25.3078  -20.6573   -9.9394 C   0  0  0  0  0  0  0  0  0  0  0  0
   25.2148  -19.3878   -9.7000 O   0  0  0  0  0  0  0  0  0  0  0  0
   26.4477  -21.2701   -9.3851 N   0  0  0  0  0  0  0  0  0  0  0  0
   27.4180  -20.5755   -8.5670 C   0  0  1  0  0  0  0  0  0  0  0  0
   27.0172  -20.7825   -7.1283 C   0  0  0  0  0  0  0  0  0  0  0  0
   27.9098  -20.1793   -6.1383 C   0  0  0  0  0  0  0  0  0  0  0  0
   28.0454  -18.8096   -6.0922 C   0  0  0  0  0  0  0  0  0  0  0  0
   28.8842  -18.2093   -5.1623 C   0  0  0  0  0  0  0  0  0  0  0  0
   29.5766  -19.0173   -4.2880 C   0  0  0  0  0  0  0  0  0  0  0  0
   29.4595  -20.3898   -4.3124 C   0  0  0  0  0  0  0  0  0  0  0  0
   28.6231  -20.9488   -5.2428 C   0  0  0  0  0  0  0  0  0  0  0  0
   28.8061  -20.9994   -8.7754 C   0  0  0  0  0  0  0  0  0  0  0  0
   29.8714  -20.1378   -8.9741 O   0  0  0  0  0  0  0  0  0  0  0  0
   29.0885  -22.2218   -8.7825 O   0  0  0  0  0  0  0  0  0  0  0  0
  2  1  1  0
  3  2  1  0
  3  5  1  0
  3  4  1  1
  5  6  1  6
  7  5  1  0
  7  9  1  0
  8  7  2  0
 10  9  1  0
 11 10  1  0
 12 11  2  0
 13 11  1  0
 14 22  1  0
 14 13  1  0
 15 16  1  0
 14 15  1  1
 16 21  2  0
 16 17  1  0
 17 18  2  0
 18 19  1  0
 20 19  2  0
 21 20  1  0
 22 23  1  0
 24 22  2  0
M  END
$$$$
