IGF.pdb
     RDKit          3D

 24 24  0  0  1  0  0  0  0  0999 V2000
   24.5938  -17.6576  -18.4661 C   0  0  0  0  0  0  0  0  0  0  0  0
   25.9155  -18.1671  -17.9342 C   0  0  0  0  0  0  0  0  0  0  0  0
   26.1214  -17.7772  -16.4811 C   0  0  2  0  0  0  0  0  0  0  0  0
   27.3137  -16.8900  -16.3813 C   0  0  0  0  0  0  0  0  0  0  0  0
   26.2341  -19.0797  -15.7176 C   0  0  2  0  0  0  0  0  0  0  0  0
   24.9460  -19.7628  -15.9627 N   0  0  0  0  0  0  0  0  0  0  0  0
   26.3010  -18.8997  -14.2506 C   0  0  0  0  0  0  0  0  0  0  0  0
   25.3582  -18.4318  -13.5714 O   0  0  0  0  0  0  0  0  0  0  0  0
   27.4978  -19.2726  -13.5336 N   0  0  0  0  0  0  0  0  0  0  0  0
   27.5979  -19.0161  -12.1215 C   0  0  0  0  0  0  0  0  0  0  0  0
   26.8477  -19.9961  -11.3179 C   0  0  0  0  0  0  0  0  0  0  0  0
   26.6670  -21.1869  -11.7945 O   0  0  0  0  0  0  0  0  0  0  0  0
   26.2813  -19.7883  -10.0458 N   0  0  0  0  0  0  0  0  0  0  0  0
   25.5947  -20.8150   -9.2924 C   0  0  1  0  0  0  0  0  0  0  0  0
   25.5709  -20.3699   -7.8521 C   0  0  0  0  0  0  0  0  0  0  0  0
   26.8787  -20.0676   -7.2701 C   0  0  0  0  0  0  0  0  0  0  0  0
   27.7950  -21.0810   -7.0969 C   0  0  0  0  0  0  0  0  0  0  0  0
   29.0446  -20.8233   -6.5484 C   0  0  0  0  0  0  0  0  0  0  0  0
   29.3444  -19.5300   -6.1823 C   0  0  0  0  0  0  0  0  0  0  0  0
   28.4466  -18.4976   -6.3445 C   0  0  0  0  0  0  0  0  0  0  0  0
   27.2229  -18.7874   -6.8887 C   0  0  0  0  0  0  0  0  0  0  0  0
   24.2353  -21.1067   -9.7583 C   0  0  0  0  0  0  0  0  0  0  0  0
   23.6158  -20.4771  -10.8243 O   0  0  0  0  0  0  0  0  0  0  0  0
   23.5522  -21.9820   -9.1739 O   0  0  0  0  0  0  0  0  0  0  0  0
  2  1  1  0
  3  2  1  0
  3  5  1  0
  3  4  1  6
  5  6  1  1
  7  5  1  0
  7  9  1  0
  8  7  2  0
 10  9  1  0
 11 10  1  0
 12 11  2  0
 13 11  1  0
 14 22  1  0
 14 13  1  0
 15 16  1  0
 14 15  1  1
 16 21  2  0
 16 17  1  0
 17 18  2  0
 18 19  1  0
 20 19  2  0
 21 20  1  0
 22 23  1  0
 24 22  2  0
M  END
$$$$
