IGF.pdb
     RDKit          3D

 24 24  0  0  1  0  0  0  0  0999 V2000
   24.0738  -20.4818  -17.4713 C   0  0  0  0  0  0  0  0  0  0  0  0
   24.3669  -21.5792  -16.4717 C   0  0  0  0  0  0  0  0  0  0  0  0
   24.6280  -21.0178  -15.0852 C   0  0  2  0  0  0  0  0  0  0  0  0
   23.8514  -19.7578  -14.9179 C   0  0  0  0  0  0  0  0  0  0  0  0
   26.1299  -20.8557  -14.9830 C   0  0  2  0  0  0  0  0  0  0  0  0
   26.6457  -22.2395  -14.9141 N   0  0  0  0  0  0  0  0  0  0  0  0
   26.5700  -20.2180  -13.7225 C   0  0  0  0  0  0  0  0  0  0  0  0
   26.3898  -19.0052  -13.4659 O   0  0  0  0  0  0  0  0  0  0  0  0
   27.2433  -21.0039  -12.7153 N   0  0  0  0  0  0  0  0  0  0  0  0
   27.6359  -20.3941  -11.4728 C   0  0  0  0  0  0  0  0  0  0  0  0
   26.7988  -20.8319  -10.3429 C   0  0  0  0  0  0  0  0  0  0  0  0
   26.2156  -21.9866  -10.4085 O   0  0  0  0  0  0  0  0  0  0  0  0
   26.5456  -20.1208   -9.1545 N   0  0  0  0  0  0  0  0  0  0  0  0
   25.8315  -20.6715   -8.0231 C   0  0  1  0  0  0  0  0  0  0  0  0
   26.0014  -19.7070   -6.8767 C   0  0  0  0  0  0  0  0  0  0  0  0
   27.3617  -19.5972   -6.3492 C   0  0  0  0  0  0  0  0  0  0  0  0
   28.1015  -18.4653   -6.6102 C   0  0  0  0  0  0  0  0  0  0  0  0
   29.3946  -18.3329   -6.1213 C   0  0  0  0  0  0  0  0  0  0  0  0
   29.9183  -19.3611   -5.3694 C   0  0  0  0  0  0  0  0  0  0  0  0
   29.2003  -20.5040   -5.0934 C   0  0  0  0  0  0  0  0  0  0  0  0
   27.9275  -20.6015   -5.5915 C   0  0  0  0  0  0  0  0  0  0  0  0
   24.4085  -20.9281   -8.2666 C   0  0  0  0  0  0  0  0  0  0  0  0
   23.5996  -21.7096   -7.4594 O   0  0  0  0  0  0  0  0  0  0  0  0
   23.8481  -20.4223   -9.2688 O   0  0  0  0  0  0  0  0  0  0  0  0
  2  1  1  0
  3  2  1  0
  3  5  1  0
  3  4  1  6
  5  6  1  1
  7  5  1  0
  7  9  1  0
  8  7  2  0
 10  9  1  0
 11 10  1  0
 12 11  2  0
 13 11  1  0
 14 22  1  0
 14 13  1  0
 15 16  1  0
 14 15  1  1
 16 21  2  0
 16 17  1  0
 17 18  2  0
 18 19  1  0
 20 19  2  0
 21 20  1  0
 22 23  1  0
 24 22  2  0
M  END
$$$$
