IGF.pdb
     RDKit          3D

 24 24  0  0  1  0  0  0  0  0999 V2000
   17.0738  -21.6196    2.9366 C   0  0  0  0  0  0  0  0  0  0  0  0
   17.3362  -20.2649    2.3158 C   0  0  0  0  0  0  0  0  0  0  0  0
   17.5628  -19.1992    3.3736 C   0  0  2  0  0  0  0  0  0  0  0  0
   18.5479  -19.7060    4.3694 C   0  0  0  0  0  0  0  0  0  0  0  0
   16.1944  -18.8832    3.9391 C   0  0  2  0  0  0  0  0  0  0  0  0
   15.3952  -18.4768    2.7635 N   0  0  0  0  0  0  0  0  0  0  0  0
   16.1842  -17.7069    4.8364 C   0  0  0  0  0  0  0  0  0  0  0  0
   16.1102  -16.5269    4.4227 O   0  0  0  0  0  0  0  0  0  0  0  0
   16.2609  -17.8922    6.2666 N   0  0  0  0  0  0  0  0  0  0  0  0
   16.2562  -16.7488    7.1398 C   0  0  0  0  0  0  0  0  0  0  0  0
   17.6156  -16.2997    7.4848 C   0  0  0  0  0  0  0  0  0  0  0  0
   18.6281  -16.9688    7.0319 O   0  0  0  0  0  0  0  0  0  0  0  0
   17.9622  -15.1889    8.2774 N   0  0  0  0  0  0  0  0  0  0  0  0
   19.3249  -14.8150    8.5882 C   0  0  1  0  0  0  0  0  0  0  0  0
   19.4038  -13.3116    8.5072 C   0  0  0  0  0  0  0  0  0  0  0  0
   19.2517  -12.7495    7.1650 C   0  0  0  0  0  0  0  0  0  0  0  0
   20.3602  -12.2789    6.4968 C   0  0  0  0  0  0  0  0  0  0  0  0
   20.2462  -11.7416    5.2212 C   0  0  0  0  0  0  0  0  0  0  0  0
   18.9979  -11.6910    4.6417 C   0  0  0  0  0  0  0  0  0  0  0  0
   17.8728  -12.1545    5.2876 C   0  0  0  0  0  0  0  0  0  0  0  0
   18.0215  -12.6784    6.5451 C   0  0  0  0  0  0  0  0  0  0  0  0
   19.8021  -15.2809    9.8941 C   0  0  0  0  0  0  0  0  0  0  0  0
   21.1317  -15.4901   10.2181 O   0  0  0  0  0  0  0  0  0  0  0  0
   18.9769  -15.5195   10.8086 O   0  0  0  0  0  0  0  0  0  0  0  0
  2  1  1  0
  3  2  1  0
  3  5  1  0
  3  4  1  1
  5  6  1  6
  7  5  1  0
  7  9  1  0
  8  7  2  0
 10  9  1  0
 11 10  1  0
 12 11  2  0
 13 11  1  0
 14 22  1  0
 14 13  1  0
 15 16  1  0
 14 15  1  1
 16 21  2  0
 16 17  1  0
 17 18  2  0
 18 19  1  0
 20 19  2  0
 21 20  1  0
 22 23  1  0
 24 22  2  0
M  END
$$$$
