IGF.pdb
     RDKit          3D

 24 24  0  0  1  0  0  0  0  0999 V2000
   22.5345  -18.4429  -17.2975 C   0  0  0  0  0  0  0  0  0  0  0  0
   22.5089  -19.3514  -16.0878 C   0  0  0  0  0  0  0  0  0  0  0  0
   23.7919  -19.2470  -15.2823 C   0  0  2  0  0  0  0  0  0  0  0  0
   24.9395  -19.6454  -16.1443 C   0  0  0  0  0  0  0  0  0  0  0  0
   23.5833  -20.1175  -14.0613 C   0  0  2  0  0  0  0  0  0  0  0  0
   22.4722  -19.4693  -13.3325 N   0  0  0  0  0  0  0  0  0  0  0  0
   24.7246  -20.0967  -13.1201 C   0  0  0  0  0  0  0  0  0  0  0  0
   25.6886  -20.8936  -13.1903 O   0  0  0  0  0  0  0  0  0  0  0  0
   24.7619  -19.1214  -12.0557 N   0  0  0  0  0  0  0  0  0  0  0  0
   25.8819  -19.0861  -11.1533 C   0  0  0  0  0  0  0  0  0  0  0  0
   25.7192  -20.0114  -10.0193 C   0  0  0  0  0  0  0  0  0  0  0  0
   24.6372  -20.7193   -9.9412 O   0  0  0  0  0  0  0  0  0  0  0  0
   26.6315  -20.2287   -8.9692 N   0  0  0  0  0  0  0  0  0  0  0  0
   26.4002  -21.1518   -7.8794 C   0  0  1  0  0  0  0  0  0  0  0  0
   27.7204  -21.3555   -7.1803 C   0  0  0  0  0  0  0  0  0  0  0  0
   28.1129  -20.2855   -6.2629 C   0  0  0  0  0  0  0  0  0  0  0  0
   28.3901  -20.5867   -4.9480 C   0  0  0  0  0  0  0  0  0  0  0  0
   28.7665  -19.5920   -4.0550 C   0  0  0  0  0  0  0  0  0  0  0  0
   28.8556  -18.2976   -4.5169 C   0  0  0  0  0  0  0  0  0  0  0  0
   28.5840  -17.9687   -5.8269 C   0  0  0  0  0  0  0  0  0  0  0  0
   28.2155  -18.9750   -6.6808 C   0  0  0  0  0  0  0  0  0  0  0  0
   25.3774  -20.7201   -6.9215 C   0  0  0  0  0  0  0  0  0  0  0  0
   24.7300  -21.5577   -6.0294 O   0  0  0  0  0  0  0  0  0  0  0  0
   25.0362  -19.5135   -6.8779 O   0  0  0  0  0  0  0  0  0  0  0  0
  2  1  1  0
  3  2  1  0
  3  5  1  0
  3  4  1  6
  5  6  1  1
  7  5  1  0
  7  9  1  0
  8  7  2  0
 10  9  1  0
 11 10  1  0
 12 11  2  0
 13 11  1  0
 14 22  1  0
 14 13  1  0
 15 16  1  0
 14 15  1  1
 16 21  2  0
 16 17  1  0
 17 18  2  0
 18 19  1  0
 20 19  2  0
 21 20  1  0
 22 23  1  0
 24 22  2  0
M  END
$$$$
