IGF.pdb
     RDKit          3D

 24 24  0  0  1  0  0  0  0  0999 V2000
   25.2435  -16.5437  -15.1231 C   0  0  0  0  0  0  0  0  0  0  0  0
   26.5313  -17.3353  -15.1899 C   0  0  0  0  0  0  0  0  0  0  0  0
   26.6524  -18.3056  -14.0282 C   0  0  2  0  0  0  0  0  0  0  0  0
   26.6671  -17.5360  -12.7529 C   0  0  0  0  0  0  0  0  0  0  0  0
   27.9043  -19.1139  -14.2959 C   0  0  2  0  0  0  0  0  0  0  0  0
   27.7175  -19.6395  -15.6650 N   0  0  0  0  0  0  0  0  0  0  0  0
   28.0276  -20.3124  -13.4372 C   0  0  0  0  0  0  0  0  0  0  0  0
   27.3850  -21.3692  -13.6350 O   0  0  0  0  0  0  0  0  0  0  0  0
   28.9254  -20.2980  -12.3061 N   0  0  0  0  0  0  0  0  0  0  0  0
   29.0577  -21.4683  -11.4798 C   0  0  0  0  0  0  0  0  0  0  0  0
   28.0870  -21.4868  -10.3724 C   0  0  0  0  0  0  0  0  0  0  0  0
   28.0021  -22.5478   -9.6342 O   0  0  0  0  0  0  0  0  0  0  0  0
   27.2062  -20.4521  -10.0044 N   0  0  0  0  0  0  0  0  0  0  0  0
   26.1732  -20.5924   -9.0011 C   0  0  1  0  0  0  0  0  0  0  0  0
   26.2888  -19.4090   -8.0741 C   0  0  0  0  0  0  0  0  0  0  0  0
   27.1562  -19.6078   -6.9127 C   0  0  0  0  0  0  0  0  0  0  0  0
   27.9015  -18.5533   -6.4340 C   0  0  0  0  0  0  0  0  0  0  0  0
   28.7323  -18.7122   -5.3325 C   0  0  0  0  0  0  0  0  0  0  0  0
   28.7923  -19.9498   -4.7313 C   0  0  0  0  0  0  0  0  0  0  0  0
   28.0577  -21.0214   -5.1896 C   0  0  0  0  0  0  0  0  0  0  0  0
   27.2483  -20.8293   -6.2786 C   0  0  0  0  0  0  0  0  0  0  0  0
   24.8118  -20.6888   -9.5373 C   0  0  0  0  0  0  0  0  0  0  0  0
   24.4884  -20.6253  -10.8818 O   0  0  0  0  0  0  0  0  0  0  0  0
   23.8439  -20.8384   -8.7530 O   0  0  0  0  0  0  0  0  0  0  0  0
  2  1  1  0
  3  2  1  0
  3  5  1  0
  3  4  1  1
  5  6  1  6
  7  5  1  0
  7  9  1  0
  8  7  2  0
 10  9  1  0
 11 10  1  0
 12 11  2  0
 13 11  1  0
 14 22  1  0
 14 13  1  0
 15 16  1  0
 14 15  1  1
 16 21  2  0
 16 17  1  0
 17 18  2  0
 18 19  1  0
 20 19  2  0
 21 20  1  0
 22 23  1  0
 24 22  2  0
M  END
$$$$
