IGF.pdb
     RDKit          3D

 24 24  0  0  1  0  0  0  0  0999 V2000
   22.1197  -19.1770  -15.9229 C   0  0  0  0  0  0  0  0  0  0  0  0
   23.1299  -20.2357  -15.5381 C   0  0  0  0  0  0  0  0  0  0  0  0
   24.1341  -19.7099  -14.5276 C   0  0  2  0  0  0  0  0  0  0  0  0
   25.2114  -18.9778  -15.2503 C   0  0  0  0  0  0  0  0  0  0  0  0
   24.6027  -20.9188  -13.7458 C   0  0  2  0  0  0  0  0  0  0  0  0
   23.3630  -21.4989  -13.1869 N   0  0  0  0  0  0  0  0  0  0  0  0
   25.4312  -20.5754  -12.5692 C   0  0  0  0  0  0  0  0  0  0  0  0
   25.0079  -19.8988  -11.6037 O   0  0  0  0  0  0  0  0  0  0  0  0
   26.8009  -21.0276  -12.4969 N   0  0  0  0  0  0  0  0  0  0  0  0
   27.6547  -20.5641  -11.4357 C   0  0  0  0  0  0  0  0  0  0  0  0
   27.1775  -20.9829  -10.1070 C   0  0  0  0  0  0  0  0  0  0  0  0
   27.3414  -22.2156   -9.7446 O   0  0  0  0  0  0  0  0  0  0  0  0
   26.5401  -20.1756   -9.1456 N   0  0  0  0  0  0  0  0  0  0  0  0
   26.0924  -20.6586   -7.8574 C   0  0  1  0  0  0  0  0  0  0  0  0
   26.3277  -19.5522   -6.8605 C   0  0  0  0  0  0  0  0  0  0  0  0
   27.6432  -19.5580   -6.2201 C   0  0  0  0  0  0  0  0  0  0  0  0
   27.9507  -20.5453   -5.3105 C   0  0  0  0  0  0  0  0  0  0  0  0
   29.1918  -20.5769   -4.6881 C   0  0  0  0  0  0  0  0  0  0  0  0
   30.1068  -19.5969   -5.0030 C   0  0  0  0  0  0  0  0  0  0  0  0
   29.8252  -18.5979   -5.9090 C   0  0  0  0  0  0  0  0  0  0  0  0
   28.5910  -18.5970   -6.5044 C   0  0  0  0  0  0  0  0  0  0  0  0
   24.6908  -21.0879   -7.8210 C   0  0  0  0  0  0  0  0  0  0  0  0
   24.0844  -21.7069   -6.7413 O   0  0  0  0  0  0  0  0  0  0  0  0
   23.9566  -20.8997   -8.8209 O   0  0  0  0  0  0  0  0  0  0  0  0
  2  1  1  0
  3  2  1  0
  3  5  1  0
  3  4  1  6
  5  6  1  1
  7  5  1  0
  7  9  1  0
  8  7  2  0
 10  9  1  0
 11 10  1  0
 12 11  2  0
 13 11  1  0
 14 22  1  0
 14 13  1  0
 15 16  1  0
 14 15  1  1
 16 21  2  0
 16 17  1  0
 17 18  2  0
 18 19  1  0
 20 19  2  0
 21 20  1  0
 22 23  1  0
 24 22  2  0
M  END
$$$$
