IGF.pdb
     RDKit          3D

 24 24  0  0  1  0  0  0  0  0999 V2000
   22.5455  -20.3977  -15.9368 C   0  0  0  0  0  0  0  0  0  0  0  0
   23.9263  -20.9656  -15.6913 C   0  0  0  0  0  0  0  0  0  0  0  0
   24.5784  -20.3426  -14.4696 C   0  0  2  0  0  0  0  0  0  0  0  0
   24.5906  -18.8616  -14.6284 C   0  0  0  0  0  0  0  0  0  0  0  0
   25.9473  -20.9806  -14.3635 C   0  0  2  0  0  0  0  0  0  0  0  0
   25.6700  -22.3929  -14.0251 N   0  0  0  0  0  0  0  0  0  0  0  0
   26.7523  -20.4654  -13.2341 C   0  0  0  0  0  0  0  0  0  0  0  0
   27.6285  -19.5794  -13.3619 O   0  0  0  0  0  0  0  0  0  0  0  0
   26.5427  -20.9872  -11.9039 N   0  0  0  0  0  0  0  0  0  0  0  0
   27.2371  -20.4046  -10.7867 C   0  0  0  0  0  0  0  0  0  0  0  0
   26.7873  -20.9547   -9.4967 C   0  0  0  0  0  0  0  0  0  0  0  0
   26.7134  -22.2404   -9.3578 O   0  0  0  0  0  0  0  0  0  0  0  0
   26.4132  -20.2251   -8.3522 N   0  0  0  0  0  0  0  0  0  0  0  0
   25.8508  -20.8260   -7.1623 C   0  0  1  0  0  0  0  0  0  0  0  0
   26.1367  -19.8920   -6.0138 C   0  0  0  0  0  0  0  0  0  0  0  0
   27.5449  -19.7852   -5.6313 C   0  0  0  0  0  0  0  0  0  0  0  0
   28.3089  -18.7563   -6.1356 C   0  0  0  0  0  0  0  0  0  0  0  0
   29.6476  -18.6291   -5.7889 C   0  0  0  0  0  0  0  0  0  0  0  0
   30.1918  -19.5569   -4.9287 C   0  0  0  0  0  0  0  0  0  0  0  0
   29.4504  -20.5956   -4.4098 C   0  0  0  0  0  0  0  0  0  0  0  0
   28.1325  -20.6911   -4.7730 C   0  0  0  0  0  0  0  0  0  0  0  0
   24.4144  -21.1095   -7.2433 C   0  0  0  0  0  0  0  0  0  0  0  0
   23.7215  -21.9242   -6.3642 O   0  0  0  0  0  0  0  0  0  0  0  0
   23.7303  -20.5971   -8.1618 O   0  0  0  0  0  0  0  0  0  0  0  0
  2  1  1  0
  3  2  1  0
  3  5  1  0
  3  4  1  6
  5  6  1  1
  7  5  1  0
  7  9  1  0
  8  7  2  0
 10  9  1  0
 11 10  1  0
 12 11  2  0
 13 11  1  0
 14 22  1  0
 14 13  1  0
 15 16  1  0
 14 15  1  1
 16 21  2  0
 16 17  1  0
 17 18  2  0
 18 19  1  0
 20 19  2  0
 21 20  1  0
 22 23  1  0
 24 22  2  0
M  END
$$$$
