IGF.pdb
     RDKit          3D

 24 24  0  0  1  0  0  0  0  0999 V2000
   21.5852  -20.6099  -17.1904 C   0  0  0  0  0  0  0  0  0  0  0  0
   22.8871  -19.8405  -17.2417 C   0  0  0  0  0  0  0  0  0  0  0  0
   23.5983  -19.8544  -15.9001 C   0  0  2  0  0  0  0  0  0  0  0  0
   23.0554  -18.7567  -15.0520 C   0  0  0  0  0  0  0  0  0  0  0  0
   25.0747  -19.7412  -16.2159 C   0  0  2  0  0  0  0  0  0  0  0  0
   25.4280  -21.0530  -16.7992 N   0  0  0  0  0  0  0  0  0  0  0  0
   25.9270  -19.6129  -15.0134 C   0  0  0  0  0  0  0  0  0  0  0  0
   26.1066  -18.5300  -14.4100 O   0  0  0  0  0  0  0  0  0  0  0  0
   26.5997  -20.7746  -14.4809 N   0  0  0  0  0  0  0  0  0  0  0  0
   27.2467  -20.7041  -13.1978 C   0  0  0  0  0  0  0  0  0  0  0  0
   26.3308  -21.0198  -12.0886 C   0  0  0  0  0  0  0  0  0  0  0  0
   25.1031  -21.3296  -12.3615 O   0  0  0  0  0  0  0  0  0  0  0  0
   26.6390  -21.0260  -10.7149 N   0  0  0  0  0  0  0  0  0  0  0  0
   25.6987  -21.3981   -9.6802 C   0  0  1  0  0  0  0  0  0  0  0  0
   26.5033  -21.7820   -8.4642 C   0  0  0  0  0  0  0  0  0  0  0  0
   27.2607  -20.6930   -7.8472 C   0  0  0  0  0  0  0  0  0  0  0  0
   26.6157  -19.8025   -7.0179 C   0  0  0  0  0  0  0  0  0  0  0  0
   27.3093  -18.7600   -6.4172 C   0  0  0  0  0  0  0  0  0  0  0  0
   28.6575  -18.6390   -6.6714 C   0  0  0  0  0  0  0  0  0  0  0  0
   29.3273  -19.5155   -7.4966 C   0  0  0  0  0  0  0  0  0  0  0  0
   28.6121  -20.5325   -8.0727 C   0  0  0  0  0  0  0  0  0  0  0  0
   24.7243  -20.3569   -9.3388 C   0  0  0  0  0  0  0  0  0  0  0  0
   23.5122  -20.5876   -8.7111 O   0  0  0  0  0  0  0  0  0  0  0  0
   24.9697  -19.1592   -9.6210 O   0  0  0  0  0  0  0  0  0  0  0  0
  2  1  1  0
  3  2  1  0
  3  5  1  0
  3  4  1  1
  5  6  1  1
  7  5  1  0
  7  9  1  0
  8  7  2  0
 10  9  1  0
 11 10  1  0
 12 11  2  0
 13 11  1  0
 14 22  1  0
 14 13  1  0
 15 16  1  0
 14 15  1  1
 16 21  2  0
 16 17  1  0
 17 18  2  0
 18 19  1  0
 20 19  2  0
 21 20  1  0
 22 23  1  0
 24 22  2  0
M  END
$$$$
