IGF.pdb
     RDKit          3D

 24 24  0  0  1  0  0  0  0  0999 V2000
   24.5346  -15.8167  -18.1879 C   0  0  0  0  0  0  0  0  0  0  0  0
   24.7660  -14.3221  -18.2330 C   0  0  0  0  0  0  0  0  0  0  0  0
   24.0415  -13.6789  -19.4022 C   0  0  2  0  0  0  0  0  0  0  0  0
   24.5773  -14.2408  -20.6734 C   0  0  0  0  0  0  0  0  0  0  0  0
   24.2363  -12.1866  -19.2364 C   0  0  2  0  0  0  0  0  0  0  0  0
   25.6895  -12.0273  -19.0160 N   0  0  0  0  0  0  0  0  0  0  0  0
   23.6003  -11.6406  -18.0172 C   0  0  0  0  0  0  0  0  0  0  0  0
   22.3831  -11.7790  -17.7556 O   0  0  0  0  0  0  0  0  0  0  0  0
   24.3932  -10.9068  -17.0589 N   0  0  0  0  0  0  0  0  0  0  0  0
   23.7890  -10.4274  -15.8444 C   0  0  0  0  0  0  0  0  0  0  0  0
   23.0836   -9.1486  -16.0345 C   0  0  0  0  0  0  0  0  0  0  0  0
   23.3694   -8.4259  -17.0707 O   0  0  0  0  0  0  0  0  0  0  0  0
   22.0987   -8.5947  -15.1948 N   0  0  0  0  0  0  0  0  0  0  0  0
   21.4248   -7.3424  -15.4609 C   0  0  1  0  0  0  0  0  0  0  0  0
   19.9612   -7.6543  -15.6443 C   0  0  0  0  0  0  0  0  0  0  0  0
   19.6402   -8.4847  -16.8053 C   0  0  0  0  0  0  0  0  0  0  0  0
   19.2843   -7.8835  -17.9921 C   0  0  0  0  0  0  0  0  0  0  0  0
   18.9759   -8.6464  -19.1109 C   0  0  0  0  0  0  0  0  0  0  0  0
   19.0347  -10.0182  -19.0039 C   0  0  0  0  0  0  0  0  0  0  0  0
   19.3876  -10.6453  -17.8291 C   0  0  0  0  0  0  0  0  0  0  0  0
   19.6856   -9.8621  -16.7449 C   0  0  0  0  0  0  0  0  0  0  0  0
   21.6024   -6.3220  -14.4229 C   0  0  0  0  0  0  0  0  0  0  0  0
   22.1525   -6.5560  -13.1742 O   0  0  0  0  0  0  0  0  0  0  0  0
   21.2409   -5.1410  -14.6438 O   0  0  0  0  0  0  0  0  0  0  0  0
  2  1  1  0
  3  2  1  0
  3  5  1  0
  3  4  1  6
  5  6  1  1
  7  5  1  0
  7  9  1  0
  8  7  2  0
 10  9  1  0
 11 10  1  0
 12 11  2  0
 13 11  1  0
 14 22  1  0
 14 13  1  0
 15 16  1  0
 14 15  1  1
 16 21  2  0
 16 17  1  0
 17 18  2  0
 18 19  1  0
 20 19  2  0
 21 20  1  0
 22 23  1  0
 24 22  2  0
M  END
$$$$
