IGF.pdb
     RDKit          3D

 24 24  0  0  1  0  0  0  0  0999 V2000
   25.5534  -22.3690  -18.4818 C   0  0  0  0  0  0  0  0  0  0  0  0
   25.7433  -22.8968  -17.0765 C   0  0  0  0  0  0  0  0  0  0  0  0
   25.8639  -21.7690  -16.0669 C   0  0  2  0  0  0  0  0  0  0  0  0
   26.9861  -20.8759  -16.4690 C   0  0  0  0  0  0  0  0  0  0  0  0
   26.0374  -22.4389  -14.7203 C   0  0  2  0  0  0  0  0  0  0  0  0
   24.7566  -23.1408  -14.4905 N   0  0  0  0  0  0  0  0  0  0  0  0
   26.1593  -21.4834  -13.5973 C   0  0  0  0  0  0  0  0  0  0  0  0
   27.1985  -20.8235  -13.3655 O   0  0  0  0  0  0  0  0  0  0  0  0
   25.0432  -21.2759  -12.7047 N   0  0  0  0  0  0  0  0  0  0  0  0
   25.0901  -20.2180  -11.7307 C   0  0  0  0  0  0  0  0  0  0  0  0
   25.7314  -20.6396  -10.4738 C   0  0  0  0  0  0  0  0  0  0  0  0
   25.9735  -21.8985  -10.2879 O   0  0  0  0  0  0  0  0  0  0  0  0
   26.1286  -19.8091   -9.4086 N   0  0  0  0  0  0  0  0  0  0  0  0
   26.7667  -20.2940   -8.2040 C   0  0  1  0  0  0  0  0  0  0  0  0
   27.4907  -19.1265   -7.5826 C   0  0  0  0  0  0  0  0  0  0  0  0
   28.1563  -19.4096   -6.3108 C   0  0  0  0  0  0  0  0  0  0  0  0
   27.7894  -18.7105   -5.1825 C   0  0  0  0  0  0  0  0  0  0  0  0
   28.4027  -18.9590   -3.9615 C   0  0  0  0  0  0  0  0  0  0  0  0
   29.3863  -19.9214   -3.9073 C   0  0  0  0  0  0  0  0  0  0  0  0
   29.7727  -20.6353   -5.0204 C   0  0  0  0  0  0  0  0  0  0  0  0
   29.1466  -20.3644   -6.2089 C   0  0  0  0  0  0  0  0  0  0  0  0
   25.8524  -20.9024   -7.2324 C   0  0  0  0  0  0  0  0  0  0  0  0
   26.2320  -21.7974   -6.2468 O   0  0  0  0  0  0  0  0  0  0  0  0
   24.6308  -20.6179   -7.2655 O   0  0  0  0  0  0  0  0  0  0  0  0
  2  1  1  0
  3  2  1  0
  3  5  1  0
  3  4  1  6
  5  6  1  1
  7  5  1  0
  7  9  1  0
  8  7  2  0
 10  9  1  0
 11 10  1  0
 12 11  2  0
 13 11  1  0
 14 22  1  0
 14 13  1  0
 15 16  1  0
 14 15  1  1
 16 21  2  0
 16 17  1  0
 17 18  2  0
 18 19  1  0
 20 19  2  0
 21 20  1  0
 22 23  1  0
 24 22  2  0
M  END
$$$$
