IGF.pdb
     RDKit          3D

 24 24  0  0  1  0  0  0  0  0999 V2000
   23.0861  -19.8042  -16.9998 C   0  0  0  0  0  0  0  0  0  0  0  0
   23.9038  -18.8768  -16.1276 C   0  0  0  0  0  0  0  0  0  0  0  0
   24.5659  -19.6240  -14.9833 C   0  0  2  0  0  0  0  0  0  0  0  0
   23.6613  -19.5995  -13.8002 C   0  0  0  0  0  0  0  0  0  0  0  0
   25.9051  -18.9501  -14.7722 C   0  0  2  0  0  0  0  0  0  0  0  0
   26.6347  -19.1761  -16.0380 N   0  0  0  0  0  0  0  0  0  0  0  0
   26.7331  -19.5968  -13.7303 C   0  0  0  0  0  0  0  0  0  0  0  0
   27.2826  -20.7121  -13.8826 O   0  0  0  0  0  0  0  0  0  0  0  0
   26.9396  -18.9364  -12.4627 N   0  0  0  0  0  0  0  0  0  0  0  0
   27.6442  -19.6137  -11.4069 C   0  0  0  0  0  0  0  0  0  0  0  0
   26.7593  -19.9873  -10.2905 C   0  0  0  0  0  0  0  0  0  0  0  0
   25.4864  -19.7769  -10.4053 O   0  0  0  0  0  0  0  0  0  0  0  0
   27.1433  -20.5677   -9.0666 N   0  0  0  0  0  0  0  0  0  0  0  0
   26.2213  -20.8652   -7.9920 C   0  0  1  0  0  0  0  0  0  0  0  0
   26.3350  -19.7483   -6.9856 C   0  0  0  0  0  0  0  0  0  0  0  0
   27.6108  -19.6771   -6.2730 C   0  0  0  0  0  0  0  0  0  0  0  0
   27.9937  -20.7214   -5.4609 C   0  0  0  0  0  0  0  0  0  0  0  0
   29.1997  -20.6821   -4.7735 C   0  0  0  0  0  0  0  0  0  0  0  0
   30.0028  -19.5735   -4.9241 C   0  0  0  0  0  0  0  0  0  0  0  0
   29.6442  -18.5151   -5.7298 C   0  0  0  0  0  0  0  0  0  0  0  0
   28.4474  -18.5870   -6.3934 C   0  0  0  0  0  0  0  0  0  0  0  0
   24.8268  -21.0314   -8.4137 C   0  0  0  0  0  0  0  0  0  0  0  0
   23.9423  -21.9456   -7.8674 O   0  0  0  0  0  0  0  0  0  0  0  0
   24.3656  -20.3134   -9.3335 O   0  0  0  0  0  0  0  0  0  0  0  0
  2  1  1  0
  3  2  1  0
  3  5  1  0
  3  4  1  1
  5  6  1  6
  7  5  1  0
  7  9  1  0
  8  7  2  0
 10  9  1  0
 11 10  1  0
 12 11  2  0
 13 11  1  0
 14 22  1  0
 14 13  1  0
 15 16  1  0
 14 15  1  1
 16 21  2  0
 16 17  1  0
 17 18  2  0
 18 19  1  0
 20 19  2  0
 21 20  1  0
 22 23  1  0
 24 22  2  0
M  END
$$$$
