IGF.pdb
     RDKit          3D

 24 24  0  0  1  0  0  0  0  0999 V2000
   23.6458  -19.7707  -14.4195 C   0  0  0  0  0  0  0  0  0  0  0  0
   25.0972  -20.1984  -14.4108 C   0  0  0  0  0  0  0  0  0  0  0  0
   25.9642  -19.2517  -15.2219 C   0  0  2  0  0  0  0  0  0  0  0  0
   25.5661  -19.3367  -16.6547 C   0  0  0  0  0  0  0  0  0  0  0  0
   27.3947  -19.6567  -14.9358 C   0  0  2  0  0  0  0  0  0  0  0  0
   27.4157  -21.1178  -15.1609 N   0  0  0  0  0  0  0  0  0  0  0  0
   27.7859  -19.4800  -13.5199 C   0  0  0  0  0  0  0  0  0  0  0  0
   27.8240  -18.3647  -12.9509 O   0  0  0  0  0  0  0  0  0  0  0  0
   28.1470  -20.6299  -12.7242 N   0  0  0  0  0  0  0  0  0  0  0  0
   28.4800  -20.4650  -11.3344 C   0  0  0  0  0  0  0  0  0  0  0  0
   27.4012  -20.9186  -10.4404 C   0  0  0  0  0  0  0  0  0  0  0  0
   26.8160  -22.0468  -10.6904 O   0  0  0  0  0  0  0  0  0  0  0  0
   26.9094  -20.2496   -9.3035 N   0  0  0  0  0  0  0  0  0  0  0  0
   25.8652  -20.7730   -8.4498 C   0  0  1  0  0  0  0  0  0  0  0  0
   25.8629  -19.9449   -7.1899 C   0  0  0  0  0  0  0  0  0  0  0  0
   27.0960  -19.9994   -6.4044 C   0  0  0  0  0  0  0  0  0  0  0  0
   27.2957  -21.0414   -5.5263 C   0  0  0  0  0  0  0  0  0  0  0  0
   28.4571  -21.1199   -4.7688 C   0  0  0  0  0  0  0  0  0  0  0  0
   29.4034  -20.1305   -4.9176 C   0  0  0  0  0  0  0  0  0  0  0  0
   29.2291  -19.0773   -5.7884 C   0  0  0  0  0  0  0  0  0  0  0  0
   28.0714  -19.0310   -6.5202 C   0  0  0  0  0  0  0  0  0  0  0  0
   24.5300  -20.7826   -9.0559 C   0  0  0  0  0  0  0  0  0  0  0  0
   23.4419  -21.4756   -8.5536 O   0  0  0  0  0  0  0  0  0  0  0  0
   24.3193  -20.1297  -10.1064 O   0  0  0  0  0  0  0  0  0  0  0  0
  2  1  1  0
  3  2  1  0
  3  5  1  0
  3  4  1  6
  5  6  1  1
  7  5  1  0
  7  9  1  0
  8  7  2  0
 10  9  1  0
 11 10  1  0
 12 11  2  0
 13 11  1  0
 14 22  1  0
 14 13  1  0
 15 16  1  0
 14 15  1  1
 16 21  2  0
 16 17  1  0
 17 18  2  0
 18 19  1  0
 20 19  2  0
 21 20  1  0
 22 23  1  0
 24 22  2  0
M  END
$$$$
