FWY.pdb
     RDKit          3D

 38 41  0  0  1  0  0  0  0  0999 V2000
    7.2681  -13.5010   19.8650 N   0  0  0  0  0  0  0  0  0  0  0  0
    8.0366  -14.7405   20.0097 C   0  0  1  0  0  0  0  0  0  0  0  0
    8.9038  -14.8448   18.7830 C   0  0  0  0  0  0  0  0  0  0  0  0
    8.1930  -15.1980   17.5583 C   0  0  0  0  0  0  0  0  0  0  0  0
    7.7925  -16.4836   17.3206 C   0  0  0  0  0  0  0  0  0  0  0  0
    7.1086  -16.8400   16.1571 C   0  0  0  0  0  0  0  0  0  0  0  0
    6.8240  -15.8660   15.2104 C   0  0  0  0  0  0  0  0  0  0  0  0
    7.2229  -14.5628   15.4377 C   0  0  0  0  0  0  0  0  0  0  0  0
    7.9059  -14.2378   16.6124 C   0  0  0  0  0  0  0  0  0  0  0  0
    8.8179  -14.6733   21.2675 C   0  0  0  0  0  0  0  0  0  0  0  0
    9.7130  -13.8155   21.4379 O   0  0  0  0  0  0  0  0  0  0  0  0
    8.5626  -15.6026   22.3315 N   0  0  0  0  0  0  0  0  0  0  0  0
    9.3601  -15.6436   23.5468 C   0  0  1  0  0  0  0  0  0  0  0  0
    8.5144  -16.2848   24.6241 C   0  0  0  0  0  0  0  0  0  0  0  0
    7.3960  -15.4567   25.0802 C   0  0  0  0  0  0  0  0  0  0  0  0
    6.0726  -15.7808   24.9901 C   0  0  0  0  0  0  0  0  0  0  0  0
    5.3578  -14.7682   25.5153 N   0  0  0  0  0  0  0  0  0  0  0  0
    6.1999  -13.7959   25.9429 C   0  0  0  0  0  0  0  0  0  0  0  0
    6.0312  -12.5601   26.5496 C   0  0  0  0  0  0  0  0  0  0  0  0
    7.1348  -11.7966   26.8639 C   0  0  0  0  0  0  0  0  0  0  0  0
    8.4248  -12.2113   26.5986 C   0  0  0  0  0  0  0  0  0  0  0  0
    8.5954  -13.4288   26.0004 C   0  0  0  0  0  0  0  0  0  0  0  0
    7.4998  -14.2234   25.6708 C   0  0  0  0  0  0  0  0  0  0  0  0
   10.5493  -16.5495   23.3581 C   0  0  0  0  0  0  0  0  0  0  0  0
   10.4848  -17.5985   22.6914 O   0  0  0  0  0  0  0  0  0  0  0  0
   13.4496  -14.6159   17.9724 O   0  0  0  0  0  0  0  0  0  0  0  0
   13.6132  -14.9859   19.3179 C   0  0  0  0  0  0  0  0  0  0  0  0
   13.2220  -14.1381   20.3248 C   0  0  0  0  0  0  0  0  0  0  0  0
   13.3733  -14.4817   21.6429 C   0  0  0  0  0  0  0  0  0  0  0  0
   13.9257  -15.6951   21.9916 C   0  0  0  0  0  0  0  0  0  0  0  0
   14.0783  -16.0282   23.4088 C   0  0  0  0  0  0  0  0  0  0  0  0
   13.0015  -16.9645   23.8490 C   0  0  2  0  0  0  0  0  0  0  0  0
   11.7717  -16.1697   23.9718 N   0  0  0  0  0  0  0  0  0  0  0  0
   13.2362  -17.6109   25.1527 C   0  0  0  0  0  0  0  0  0  0  0  0
   12.3613  -17.4399   26.2419 O   0  0  0  0  0  0  0  0  0  0  0  0
   14.3255  -16.5617   21.0045 C   0  0  0  0  0  0  0  0  0  0  0  0
   14.1649  -16.1979   19.6657 C   0  0  0  0  0  0  0  0  0  0  0  0
   14.2253  -18.3525   25.3778 O   0  0  0  0  0  0  0  0  0  0  0  0
  2  1  1  6
  2  3  1  0
  3  4  1  0
  4  5  2  0
  5  6  1  0
  7  6  2  0
  8  7  1  0
  9  8  2  0
  9  4  1  0
 10  2  1  0
 11 10  2  0
 12 10  1  0
 13 12  1  0
 14 15  1  0
 13 14  1  1
 15 23  1  0
 16 17  1  0
 16 15  2  0
 17 18  1  0
 18 23  2  0
 18 19  1  0
 19 20  2  0
 20 21  1  0
 22 21  2  0
 23 22  1  0
 24 13  1  0
 24 25  2  0
 27 37  2  0
 27 26  1  0
 28 27  1  0
 29 30  1  0
 29 28  2  0
 30 36  2  0
 31 30  1  0
 32 31  1  1
 32 33  1  0
 33 24  1  0
 34 32  1  0
 35 34  1  0
 36 37  1  0
 38 34  2  0
M  END
$$$$
