FWY.pdb
     RDKit          3D

 38 41  0  0  1  0  0  0  0  0999 V2000
    7.9087  -17.3268   21.2105 N   0  0  0  0  0  0  0  0  0  0  0  0
    9.2757  -16.8250   21.0458 C   0  0  1  0  0  0  0  0  0  0  0  0
    9.2435  -15.8931   19.8633 C   0  0  0  0  0  0  0  0  0  0  0  0
    8.4389  -14.6903   20.0529 C   0  0  0  0  0  0  0  0  0  0  0  0
    7.7646  -14.4693   21.2217 C   0  0  0  0  0  0  0  0  0  0  0  0
    6.9931  -13.3235   21.4229 C   0  0  0  0  0  0  0  0  0  0  0  0
    6.9037  -12.3778   20.4112 C   0  0  0  0  0  0  0  0  0  0  0  0
    7.5799  -12.5884   19.2248 C   0  0  0  0  0  0  0  0  0  0  0  0
    8.3440  -13.7456   19.0541 C   0  0  0  0  0  0  0  0  0  0  0  0
    9.6922  -16.1546   22.3005 C   0  0  0  0  0  0  0  0  0  0  0  0
   10.6567  -15.3576   22.3287 O   0  0  0  0  0  0  0  0  0  0  0  0
    8.9902  -16.4080   23.5268 N   0  0  0  0  0  0  0  0  0  0  0  0
    9.6641  -16.5069   24.8117 C   0  0  1  0  0  0  0  0  0  0  0  0
    8.5970  -16.5580   25.8819 C   0  0  0  0  0  0  0  0  0  0  0  0
    7.5438  -15.5524   25.7265 C   0  0  0  0  0  0  0  0  0  0  0  0
    6.2835  -15.7814   25.2533 C   0  0  0  0  0  0  0  0  0  0  0  0
    5.6154  -14.6128   25.2614 N   0  0  0  0  0  0  0  0  0  0  0  0
    6.4255  -13.6334   25.7326 C   0  0  0  0  0  0  0  0  0  0  0  0
    6.2781  -12.2726   25.9568 C   0  0  0  0  0  0  0  0  0  0  0  0
    7.3340  -11.5447   26.4617 C   0  0  0  0  0  0  0  0  0  0  0  0
    8.5547  -12.1165   26.7606 C   0  0  0  0  0  0  0  0  0  0  0  0
    8.7042  -13.4577   26.5409 C   0  0  0  0  0  0  0  0  0  0  0  0
    7.6555  -14.2201   26.0317 C   0  0  0  0  0  0  0  0  0  0  0  0
   10.4116  -17.8117   24.9077 C   0  0  0  0  0  0  0  0  0  0  0  0
   10.4789  -18.6091   23.9545 O   0  0  0  0  0  0  0  0  0  0  0  0
   18.7519  -17.3551   25.7316 O   0  0  0  0  0  0  0  0  0  0  0  0
   17.3505  -17.2553   25.7445 C   0  0  0  0  0  0  0  0  0  0  0  0
   16.5948  -17.9607   24.8405 C   0  0  0  0  0  0  0  0  0  0  0  0
   15.2269  -17.8764   24.8378 C   0  0  0  0  0  0  0  0  0  0  0  0
   14.5726  -17.0758   25.7490 C   0  0  0  0  0  0  0  0  0  0  0  0
   13.1109  -17.0040   25.7148 C   0  0  0  0  0  0  0  0  0  0  0  0
   12.5089  -18.2570   26.2603 C   0  0  2  0  0  0  0  0  0  0  0  0
   11.0513  -18.1163   26.1377 N   0  0  0  0  0  0  0  0  0  0  0  0
   12.8047  -18.5205   27.6800 C   0  0  0  0  0  0  0  0  0  0  0  0
   12.0566  -17.9401   28.7213 O   0  0  0  0  0  0  0  0  0  0  0  0
   15.3042  -16.3596   26.6638 C   0  0  0  0  0  0  0  0  0  0  0  0
   16.6974  -16.4557   26.6546 C   0  0  0  0  0  0  0  0  0  0  0  0
   13.7374  -19.2752   28.0534 O   0  0  0  0  0  0  0  0  0  0  0  0
  2  1  1  1
  2  3  1  0
  3  4  1  0
  4  5  2  0
  5  6  1  0
  7  6  2  0
  8  7  1  0
  9  8  2  0
  9  4  1  0
 10  2  1  0
 11 10  2  0
 12 10  1  0
 13 12  1  0
 14 15  1  0
 13 14  1  1
 15 23  1  0
 16 17  1  0
 16 15  2  0
 17 18  1  0
 18 23  2  0
 18 19  1  0
 19 20  2  0
 20 21  1  0
 22 21  2  0
 23 22  1  0
 24 13  1  0
 24 25  2  0
 27 37  2  0
 27 26  1  0
 28 27  1  0
 29 30  1  0
 29 28  2  0
 30 36  2  0
 31 30  1  0
 32 31  1  1
 32 33  1  0
 33 24  1  0
 34 32  1  0
 35 34  1  0
 36 37  1  0
 38 34  2  0
M  END
$$$$
