FWY.pdb
     RDKit          3D

 38 41  0  0  1  0  0  0  0  0999 V2000
    9.6987  -15.6706   20.3340 N   0  0  0  0  0  0  0  0  0  0  0  0
    9.4570  -16.8361   21.1889 C   0  0  1  0  0  0  0  0  0  0  0  0
   10.2795  -17.9589   20.6139 C   0  0  0  0  0  0  0  0  0  0  0  0
   10.1401  -19.2368   21.3050 C   0  0  0  0  0  0  0  0  0  0  0  0
   11.1193  -19.6975   22.1409 C   0  0  0  0  0  0  0  0  0  0  0  0
   11.0024  -20.9152   22.8132 C   0  0  0  0  0  0  0  0  0  0  0  0
    9.8620  -21.6851   22.6321 C   0  0  0  0  0  0  0  0  0  0  0  0
    8.8647  -21.2316   21.7902 C   0  0  0  0  0  0  0  0  0  0  0  0
    9.0115  -20.0082   21.1315 C   0  0  0  0  0  0  0  0  0  0  0  0
    9.8361  -16.4940   22.5804 C   0  0  0  0  0  0  0  0  0  0  0  0
   10.9330  -15.9537   22.8467 O   0  0  0  0  0  0  0  0  0  0  0  0
    8.9425  -16.7785   23.6674 N   0  0  0  0  0  0  0  0  0  0  0  0
    9.2989  -16.5474   25.0582 C   0  0  1  0  0  0  0  0  0  0  0  0
    8.0132  -16.4770   25.8512 C   0  0  0  0  0  0  0  0  0  0  0  0
    7.1599  -15.3370   25.5091 C   0  0  0  0  0  0  0  0  0  0  0  0
    6.0738  -15.3713   24.6820 C   0  0  0  0  0  0  0  0  0  0  0  0
    5.5566  -14.1300   24.6201 N   0  0  0  0  0  0  0  0  0  0  0  0
    6.2922  -13.2957   25.3947 C   0  0  0  0  0  0  0  0  0  0  0  0
    6.2278  -11.9451   25.7039 C   0  0  0  0  0  0  0  0  0  0  0  0
    7.1617  -11.3932   26.5542 C   0  0  0  0  0  0  0  0  0  0  0  0
    8.1777  -12.1348   27.1235 C   0  0  0  0  0  0  0  0  0  0  0  0
    8.2449  -13.4665   26.8211 C   0  0  0  0  0  0  0  0  0  0  0  0
    7.3155  -14.0532   25.9653 C   0  0  0  0  0  0  0  0  0  0  0  0
   10.0590  -17.7287   25.6033 C   0  0  0  0  0  0  0  0  0  0  0  0
   10.4722  -18.6466   24.8714 O   0  0  0  0  0  0  0  0  0  0  0  0
   15.5068  -17.3217   22.6091 O   0  0  0  0  0  0  0  0  0  0  0  0
   14.6847  -17.0593   23.7179 C   0  0  0  0  0  0  0  0  0  0  0  0
   14.3666  -18.0619   24.6007 C   0  0  0  0  0  0  0  0  0  0  0  0
   13.5666  -17.8250   25.6879 C   0  0  0  0  0  0  0  0  0  0  0  0
   13.0587  -16.5656   25.9228 C   0  0  0  0  0  0  0  0  0  0  0  0
   12.2026  -16.3483   27.0901 C   0  0  0  0  0  0  0  0  0  0  0  0
   11.6426  -17.6426   27.5811 C   0  0  2  0  0  0  0  0  0  0  0  0
   10.2981  -17.7706   27.0019 N   0  0  0  0  0  0  0  0  0  0  0  0
   11.4991  -17.7410   29.0447 C   0  0  0  0  0  0  0  0  0  0  0  0
   10.2497  -17.6340   29.6839 O   0  0  0  0  0  0  0  0  0  0  0  0
   13.3610  -15.5449   25.0556 C   0  0  0  0  0  0  0  0  0  0  0  0
   14.1776  -15.8014   23.9521 C   0  0  0  0  0  0  0  0  0  0  0  0
   12.4750  -17.9258   29.8145 O   0  0  0  0  0  0  0  0  0  0  0  0
  2  1  1  6
  2  3  1  0
  3  4  1  0
  4  5  2  0
  5  6  1  0
  7  6  2  0
  8  7  1  0
  9  8  2  0
  9  4  1  0
 10  2  1  0
 11 10  2  0
 12 10  1  0
 13 12  1  0
 14 15  1  0
 13 14  1  1
 15 23  1  0
 16 17  1  0
 16 15  2  0
 17 18  1  0
 18 23  2  0
 18 19  1  0
 19 20  2  0
 20 21  1  0
 22 21  2  0
 23 22  1  0
 24 13  1  0
 24 25  2  0
 27 37  2  0
 27 26  1  0
 28 27  1  0
 29 30  1  0
 29 28  2  0
 30 36  2  0
 31 30  1  0
 32 31  1  1
 32 33  1  0
 33 24  1  0
 34 32  1  0
 35 34  1  0
 36 37  1  0
 38 34  2  0
M  END
$$$$
