FWY.pdb
     RDKit          3D

 38 41  0  0  1  0  0  0  0  0999 V2000
    8.4745  -17.4253   20.7913 N   0  0  0  0  0  0  0  0  0  0  0  0
    9.8254  -16.8572   20.7770 C   0  0  1  0  0  0  0  0  0  0  0  0
    9.8249  -15.7943   19.7103 C   0  0  0  0  0  0  0  0  0  0  0  0
    8.8883  -14.6984   19.9378 C   0  0  0  0  0  0  0  0  0  0  0  0
    8.8201  -13.6382   19.0770 C   0  0  0  0  0  0  0  0  0  0  0  0
    7.9286  -12.5827   19.2758 C   0  0  0  0  0  0  0  0  0  0  0  0
    7.0844  -12.6041   20.3771 C   0  0  0  0  0  0  0  0  0  0  0  0
    7.1427  -13.6694   21.2552 C   0  0  0  0  0  0  0  0  0  0  0  0
    8.0461  -14.7108   21.0285 C   0  0  0  0  0  0  0  0  0  0  0  0
   10.1331  -16.3245   22.1256 C   0  0  0  0  0  0  0  0  0  0  0  0
   11.1032  -15.5586   22.3219 O   0  0  0  0  0  0  0  0  0  0  0  0
    9.3155  -16.6799   23.2508 N   0  0  0  0  0  0  0  0  0  0  0  0
    9.5357  -16.1406   24.5832 C   0  0  1  0  0  0  0  0  0  0  0  0
    8.2993  -16.4349   25.4027 C   0  0  0  0  0  0  0  0  0  0  0  0
    7.2694  -15.3965   25.3275 C   0  0  0  0  0  0  0  0  0  0  0  0
    5.9649  -15.5888   24.9722 C   0  0  0  0  0  0  0  0  0  0  0  0
    5.3383  -14.3985   25.0231 N   0  0  0  0  0  0  0  0  0  0  0  0
    6.2185  -13.4414   25.4058 C   0  0  0  0  0  0  0  0  0  0  0  0
    6.1357  -12.0739   25.6226 C   0  0  0  0  0  0  0  0  0  0  0  0
    7.2556  -11.3758   26.0206 C   0  0  0  0  0  0  0  0  0  0  0  0
    8.4791  -11.9846   26.2174 C   0  0  0  0  0  0  0  0  0  0  0  0
    8.5650  -13.3325   26.0047 C   0  0  0  0  0  0  0  0  0  0  0  0
    7.4508  -14.0653   25.6022 C   0  0  0  0  0  0  0  0  0  0  0  0
   10.6662  -16.8716   25.2598 C   0  0  0  0  0  0  0  0  0  0  0  0
   11.2040  -17.8741   24.7550 O   0  0  0  0  0  0  0  0  0  0  0  0
   14.1420  -19.5905   32.8621 O   0  0  0  0  0  0  0  0  0  0  0  0
   13.6034  -18.7973   31.8350 C   0  0  0  0  0  0  0  0  0  0  0  0
   14.4106  -18.3102   30.8365 C   0  0  0  0  0  0  0  0  0  0  0  0
   13.9034  -17.5352   29.8264 C   0  0  0  0  0  0  0  0  0  0  0  0
   12.5614  -17.2241   29.7884 C   0  0  0  0  0  0  0  0  0  0  0  0
   12.0535  -16.3892   28.6986 C   0  0  0  0  0  0  0  0  0  0  0  0
   11.9122  -17.1879   27.4448 C   0  0  2  0  0  0  0  0  0  0  0  0
   11.1134  -16.3789   26.5137 N   0  0  0  0  0  0  0  0  0  0  0  0
   11.2200  -18.4791   27.6065 C   0  0  0  0  0  0  0  0  0  0  0  0
    9.8193  -18.5704   27.7101 O   0  0  0  0  0  0  0  0  0  0  0  0
   11.7320  -17.6981   30.7746 C   0  0  0  0  0  0  0  0  0  0  0  0
   12.2631  -18.4868   31.7975 C   0  0  0  0  0  0  0  0  0  0  0  0
   11.8290  -19.5768   27.6621 O   0  0  0  0  0  0  0  0  0  0  0  0
  2  1  1  1
  2  3  1  0
  3  4  1  0
  4  5  2  0
  5  6  1  0
  7  6  2  0
  8  7  1  0
  9  8  2  0
  9  4  1  0
 10  2  1  0
 11 10  2  0
 12 10  1  0
 13 12  1  0
 14 15  1  0
 13 14  1  1
 15 23  1  0
 16 17  1  0
 16 15  2  0
 17 18  1  0
 18 23  2  0
 18 19  1  0
 19 20  2  0
 20 21  1  0
 22 21  2  0
 23 22  1  0
 24 13  1  0
 24 25  2  0
 27 37  2  0
 27 26  1  0
 28 27  1  0
 29 30  1  0
 29 28  2  0
 30 36  2  0
 31 30  1  0
 32 31  1  1
 32 33  1  0
 33 24  1  0
 34 32  1  0
 35 34  1  0
 36 37  1  0
 38 34  2  0
M  END
$$$$
