FWY.pdb
     RDKit          3D

 38 41  0  0  1  0  0  0  0  0999 V2000
    6.3315  -17.8556   21.4803 N   0  0  0  0  0  0  0  0  0  0  0  0
    7.1918  -16.6958   21.2306 C   0  0  1  0  0  0  0  0  0  0  0  0
    6.3997  -15.7645   20.3514 C   0  0  0  0  0  0  0  0  0  0  0  0
    7.1546  -14.6348   19.8185 C   0  0  0  0  0  0  0  0  0  0  0  0
    8.0709  -14.8073   18.8183 C   0  0  0  0  0  0  0  0  0  0  0  0
    8.7998  -13.7388   18.2935 C   0  0  0  0  0  0  0  0  0  0  0  0
    8.5931  -12.4622   18.7971 C   0  0  0  0  0  0  0  0  0  0  0  0
    7.6702  -12.2736   19.8079 C   0  0  0  0  0  0  0  0  0  0  0  0
    6.9563  -13.3636   20.3122 C   0  0  0  0  0  0  0  0  0  0  0  0
    7.5636  -16.0889   22.5308 C   0  0  0  0  0  0  0  0  0  0  0  0
    7.0271  -15.0347   22.9392 O   0  0  0  0  0  0  0  0  0  0  0  0
    8.5602  -16.7043   23.3610 N   0  0  0  0  0  0  0  0  0  0  0  0
    9.5324  -15.9358   24.1218 C   0  0  1  0  0  0  0  0  0  0  0  0
    9.1176  -15.9896   25.5750 C   0  0  0  0  0  0  0  0  0  0  0  0
    7.8928  -15.2456   25.8765 C   0  0  0  0  0  0  0  0  0  0  0  0
    6.6198  -15.7318   25.7872 C   0  0  0  0  0  0  0  0  0  0  0  0
    5.7715  -14.7499   26.1455 N   0  0  0  0  0  0  0  0  0  0  0  0
    6.4778  -13.6378   26.4646 C   0  0  0  0  0  0  0  0  0  0  0  0
    6.1425  -12.3614   26.8914 C   0  0  0  0  0  0  0  0  0  0  0  0
    7.1372  -11.4391   27.1357 C   0  0  0  0  0  0  0  0  0  0  0  0
    8.4769  -11.7308   26.9725 C   0  0  0  0  0  0  0  0  0  0  0  0
    8.8116  -12.9879   26.5517 C   0  0  0  0  0  0  0  0  0  0  0  0
    7.8290  -13.9419   26.2969 C   0  0  0  0  0  0  0  0  0  0  0  0
   10.8858  -16.5943   24.0514 C   0  0  0  0  0  0  0  0  0  0  0  0
   11.0204  -17.8112   23.8276 O   0  0  0  0  0  0  0  0  0  0  0  0
   19.7035  -16.8299   24.5483 O   0  0  0  0  0  0  0  0  0  0  0  0
   18.3657  -16.4090   24.4635 C   0  0  0  0  0  0  0  0  0  0  0  0
   17.6668  -16.0799   25.5988 C   0  0  0  0  0  0  0  0  0  0  0  0
   16.3615  -15.6671   25.5359 C   0  0  0  0  0  0  0  0  0  0  0  0
   15.7145  -15.5719   24.3228 C   0  0  0  0  0  0  0  0  0  0  0  0
   14.3183  -15.1333   24.2918 C   0  0  0  0  0  0  0  0  0  0  0  0
   13.3983  -16.3079   24.2309 C   0  0  2  0  0  0  0  0  0  0  0  0
   12.0285  -15.7760   24.2504 N   0  0  0  0  0  0  0  0  0  0  0  0
   13.5178  -17.2488   25.3591 C   0  0  0  0  0  0  0  0  0  0  0  0
   14.2933  -18.4206   25.2784 O   0  0  0  0  0  0  0  0  0  0  0  0
   16.3900  -15.8952   23.1720 C   0  0  0  0  0  0  0  0  0  0  0  0
   17.7199  -16.3141   23.2518 C   0  0  0  0  0  0  0  0  0  0  0  0
   12.9400  -17.0695   26.4605 O   0  0  0  0  0  0  0  0  0  0  0  0
  2  1  1  1
  2  3  1  0
  3  4  1  0
  4  5  2  0
  5  6  1  0
  7  6  2  0
  8  7  1  0
  9  8  2  0
  9  4  1  0
 10  2  1  0
 11 10  2  0
 12 10  1  0
 13 12  1  0
 14 15  1  0
 13 14  1  1
 15 23  1  0
 16 17  1  0
 16 15  2  0
 17 18  1  0
 18 23  2  0
 18 19  1  0
 19 20  2  0
 20 21  1  0
 22 21  2  0
 23 22  1  0
 24 13  1  0
 24 25  2  0
 27 37  2  0
 27 26  1  0
 28 27  1  0
 29 30  1  0
 29 28  2  0
 30 36  2  0
 31 30  1  0
 32 31  1  1
 32 33  1  0
 33 24  1  0
 34 32  1  0
 35 34  1  0
 36 37  1  0
 38 34  2  0
M  END
$$$$
