FWY.pdb
     RDKit          3D

 38 41  0  0  1  0  0  0  0  0999 V2000
    6.2804  -18.0603   25.1121 N   0  0  0  0  0  0  0  0  0  0  0  0
    6.6068  -16.6366   24.9929 C   0  0  1  0  0  0  0  0  0  0  0  0
    6.6259  -16.0893   26.3957 C   0  0  0  0  0  0  0  0  0  0  0  0
    6.7671  -14.6395   26.4860 C   0  0  0  0  0  0  0  0  0  0  0  0
    5.7471  -13.8068   26.1175 C   0  0  0  0  0  0  0  0  0  0  0  0
    5.8621  -12.4181   26.2000 C   0  0  0  0  0  0  0  0  0  0  0  0
    7.0433  -11.8604   26.6687 C   0  0  0  0  0  0  0  0  0  0  0  0
    8.0823  -12.6902   27.0445 C   0  0  0  0  0  0  0  0  0  0  0  0
    7.9362  -14.0765   26.9501 C   0  0  0  0  0  0  0  0  0  0  0  0
    7.9108  -16.5023   24.3010 C   0  0  0  0  0  0  0  0  0  0  0  0
    8.7813  -17.3992   24.3638 O   0  0  0  0  0  0  0  0  0  0  0  0
    8.2082  -15.3258   23.5340 N   0  0  0  0  0  0  0  0  0  0  0  0
    9.4465  -15.1665   22.7884 C   0  0  1  0  0  0  0  0  0  0  0  0
    9.3248  -13.9006   21.9702 C   0  0  0  0  0  0  0  0  0  0  0  0
    8.2025  -13.9008   21.0294 C   0  0  0  0  0  0  0  0  0  0  0  0
    6.8944  -13.6692   21.3455 C   0  0  0  0  0  0  0  0  0  0  0  0
    6.1698  -13.7550   20.2143 N   0  0  0  0  0  0  0  0  0  0  0  0
    6.9904  -14.0384   19.1734 C   0  0  0  0  0  0  0  0  0  0  0  0
    6.8042  -14.2348   17.8130 C   0  0  0  0  0  0  0  0  0  0  0  0
    7.8875  -14.5148   17.0082 C   0  0  0  0  0  0  0  0  0  0  0  0
    9.1737  -14.6109   17.5011 C   0  0  0  0  0  0  0  0  0  0  0  0
    9.3615  -14.4181   18.8415 C   0  0  0  0  0  0  0  0  0  0  0  0
    8.2866  -14.1336   19.6805 C   0  0  0  0  0  0  0  0  0  0  0  0
   10.5975  -14.9407   23.7342 C   0  0  0  0  0  0  0  0  0  0  0  0
   10.5035  -14.1970   24.7277 O   0  0  0  0  0  0  0  0  0  0  0  0
    9.4726  -15.2941   29.8826 O   0  0  0  0  0  0  0  0  0  0  0  0
   10.0510  -15.8092   28.7103 C   0  0  0  0  0  0  0  0  0  0  0  0
   10.7726  -14.9931   27.8742 C   0  0  0  0  0  0  0  0  0  0  0  0
   11.3443  -15.4774   26.7267 C   0  0  0  0  0  0  0  0  0  0  0  0
   11.2075  -16.8047   26.3821 C   0  0  0  0  0  0  0  0  0  0  0  0
   11.8259  -17.2880   25.1465 C   0  0  0  0  0  0  0  0  0  0  0  0
   12.6469  -16.2137   24.5129 C   0  0  2  0  0  0  0  0  0  0  0  0
   11.8182  -15.6112   23.4595 N   0  0  0  0  0  0  0  0  0  0  0  0
   13.8926  -16.6785   23.8767 C   0  0  0  0  0  0  0  0  0  0  0  0
   15.1106  -16.7500   24.5782 O   0  0  0  0  0  0  0  0  0  0  0  0
   10.4908  -17.6426   27.2003 C   0  0  0  0  0  0  0  0  0  0  0  0
    9.9141  -17.1348   28.3665 C   0  0  0  0  0  0  0  0  0  0  0  0
   13.9506  -17.0394   22.6745 O   0  0  0  0  0  0  0  0  0  0  0  0
  2  1  1  1
  2  3  1  0
  3  4  1  0
  4  5  2  0
  5  6  1  0
  7  6  2  0
  8  7  1  0
  9  8  2  0
  9  4  1  0
 10  2  1  0
 11 10  2  0
 12 10  1  0
 13 12  1  0
 14 15  1  0
 13 14  1  6
 15 23  1  0
 16 17  1  0
 16 15  2  0
 17 18  1  0
 18 23  2  0
 18 19  1  0
 19 20  2  0
 20 21  1  0
 22 21  2  0
 23 22  1  0
 24 13  1  0
 24 25  2  0
 27 37  2  0
 27 26  1  0
 28 27  1  0
 29 30  1  0
 29 28  2  0
 30 36  2  0
 31 30  1  0
 32 31  1  6
 32 33  1  0
 33 24  1  0
 34 32  1  0
 35 34  1  0
 36 37  1  0
 38 34  2  0
M  END
$$$$
