FWY.pdb
     RDKit          3D

 38 41  0  0  1  0  0  0  0  0999 V2000
   10.0587  -15.7012   17.4734 N   0  0  0  0  0  0  0  0  0  0  0  0
   10.0154  -16.7051   18.5401 C   0  0  1  0  0  0  0  0  0  0  0  0
   11.2808  -17.5115   18.4121 C   0  0  0  0  0  0  0  0  0  0  0  0
   11.0906  -18.8791   17.9396 C   0  0  0  0  0  0  0  0  0  0  0  0
    9.9907  -19.2254   17.2048 C   0  0  0  0  0  0  0  0  0  0  0  0
    9.7932  -20.5271   16.7412 C   0  0  0  0  0  0  0  0  0  0  0  0
   10.7368  -21.5026   17.0312 C   0  0  0  0  0  0  0  0  0  0  0  0
   11.8531  -21.1665   17.7729 C   0  0  0  0  0  0  0  0  0  0  0  0
   12.0221  -19.8546   18.2225 C   0  0  0  0  0  0  0  0  0  0  0  0
    9.9005  -16.0105   19.8445 C   0  0  0  0  0  0  0  0  0  0  0  0
   10.6016  -15.0108   20.1186 O   0  0  0  0  0  0  0  0  0  0  0  0
    8.9712  -16.4751   20.8352 N   0  0  0  0  0  0  0  0  0  0  0  0
    8.8047  -15.8216   22.1236 C   0  0  1  0  0  0  0  0  0  0  0  0
    7.3500  -15.9528   22.5152 C   0  0  0  0  0  0  0  0  0  0  0  0
    7.0360  -15.4181   23.8419 C   0  0  0  0  0  0  0  0  0  0  0  0
    6.6677  -16.1521   24.9330 C   0  0  0  0  0  0  0  0  0  0  0  0
    6.4662  -15.3038   25.9586 N   0  0  0  0  0  0  0  0  0  0  0  0
    6.6989  -14.0338   25.5459 C   0  0  0  0  0  0  0  0  0  0  0  0
    6.6500  -12.7885   26.1546 C   0  0  0  0  0  0  0  0  0  0  0  0
    6.9569  -11.6591   25.4265 C   0  0  0  0  0  0  0  0  0  0  0  0
    7.3174  -11.7095   24.0946 C   0  0  0  0  0  0  0  0  0  0  0  0
    7.3666  -12.9351   23.4907 C   0  0  0  0  0  0  0  0  0  0  0  0
    7.0622  -14.0946   24.2002 C   0  0  0  0  0  0  0  0  0  0  0  0
    9.5876  -16.5533   23.1828 C   0  0  0  0  0  0  0  0  0  0  0  0
    9.2356  -17.6647   23.6187 O   0  0  0  0  0  0  0  0  0  0  0  0
   10.3826  -15.1878   31.3930 O   0  0  0  0  0  0  0  0  0  0  0  0
   10.2168  -15.3029   30.0025 C   0  0  0  0  0  0  0  0  0  0  0  0
   10.3467  -14.2012   29.1931 C   0  0  0  0  0  0  0  0  0  0  0  0
   10.1888  -14.2940   27.8349 C   0  0  0  0  0  0  0  0  0  0  0  0
    9.8937  -15.5040   27.2449 C   0  0  0  0  0  0  0  0  0  0  0  0
    9.7258  -15.5668   25.7921 C   0  0  0  0  0  0  0  0  0  0  0  0
   11.0387  -15.7979   25.1194 C   0  0  2  0  0  0  0  0  0  0  0  0
   10.7620  -15.9318   23.6824 N   0  0  0  0  0  0  0  0  0  0  0  0
   11.7469  -17.0189   25.5437 C   0  0  0  0  0  0  0  0  0  0  0  0
   12.1872  -17.9878   24.6227 O   0  0  0  0  0  0  0  0  0  0  0  0
    9.7582  -16.6214   28.0311 C   0  0  0  0  0  0  0  0  0  0  0  0
    9.9221  -16.5115   29.4137 C   0  0  0  0  0  0  0  0  0  0  0  0
   12.0032  -17.2751   26.7469 O   0  0  0  0  0  0  0  0  0  0  0  0
  2  1  1  6
  2  3  1  0
  3  4  1  0
  4  5  2  0
  5  6  1  0
  7  6  2  0
  8  7  1  0
  9  8  2  0
  9  4  1  0
 10  2  1  0
 11 10  2  0
 12 10  1  0
 13 12  1  0
 14 15  1  0
 13 14  1  1
 15 23  1  0
 16 17  1  0
 16 15  2  0
 17 18  1  0
 18 23  2  0
 18 19  1  0
 19 20  2  0
 20 21  1  0
 22 21  2  0
 23 22  1  0
 24 13  1  0
 24 25  2  0
 27 37  2  0
 27 26  1  0
 28 27  1  0
 29 30  1  0
 29 28  2  0
 30 36  2  0
 31 30  1  0
 32 31  1  1
 32 33  1  0
 33 24  1  0
 34 32  1  0
 35 34  1  0
 36 37  1  0
 38 34  2  0
M  END
$$$$
