FWY.pdb
     RDKit          3D

 38 41  0  0  1  0  0  0  0  0999 V2000
    8.0113  -16.1910   20.9980 N   0  0  0  0  0  0  0  0  0  0  0  0
    8.8775  -15.0089   21.0103 C   0  0  1  0  0  0  0  0  0  0  0  0
    7.9688  -13.8184   20.8531 C   0  0  0  0  0  0  0  0  0  0  0  0
    7.7420  -13.3987   19.4738 C   0  0  0  0  0  0  0  0  0  0  0  0
    6.9595  -12.3149   19.1856 C   0  0  0  0  0  0  0  0  0  0  0  0
    6.7338  -11.8962   17.8733 C   0  0  0  0  0  0  0  0  0  0  0  0
    7.3175  -12.5960   16.8265 C   0  0  0  0  0  0  0  0  0  0  0  0
    8.1104  -13.6931   17.1034 C   0  0  0  0  0  0  0  0  0  0  0  0
    8.3172  -14.0871   18.4278 C   0  0  0  0  0  0  0  0  0  0  0  0
    9.6417  -14.9907   22.2803 C   0  0  0  0  0  0  0  0  0  0  0  0
   10.5654  -14.1697   22.4775 O   0  0  0  0  0  0  0  0  0  0  0  0
    9.3359  -15.9263   23.3253 N   0  0  0  0  0  0  0  0  0  0  0  0
   10.0628  -15.9628   24.5843 C   0  0  1  0  0  0  0  0  0  0  0  0
    9.0999  -16.4321   25.6517 C   0  0  0  0  0  0  0  0  0  0  0  0
    7.8800  -15.6283   25.7534 C   0  0  0  0  0  0  0  0  0  0  0  0
    6.6281  -16.0246   25.3788 C   0  0  0  0  0  0  0  0  0  0  0  0
    5.7772  -15.0116   25.6275 N   0  0  0  0  0  0  0  0  0  0  0  0
    6.4611  -13.9679   26.1569 C   0  0  0  0  0  0  0  0  0  0  0  0
    6.1134  -12.6987   26.5953 C   0  0  0  0  0  0  0  0  0  0  0  0
    7.0846  -11.8585   27.0960 C   0  0  0  0  0  0  0  0  0  0  0  0
    8.4123  -12.2271   27.1835 C   0  0  0  0  0  0  0  0  0  0  0  0
    8.7593  -13.4773   26.7523 C   0  0  0  0  0  0  0  0  0  0  0  0
    7.8005  -14.3492   26.2415 C   0  0  0  0  0  0  0  0  0  0  0  0
   11.1543  -16.9998   24.5245 C   0  0  0  0  0  0  0  0  0  0  0  0
   10.9253  -18.1877   24.2322 O   0  0  0  0  0  0  0  0  0  0  0  0
   13.1922  -15.4184   18.8086 O   0  0  0  0  0  0  0  0  0  0  0  0
   13.5797  -15.7292   20.1229 C   0  0  0  0  0  0  0  0  0  0  0  0
   13.6134  -17.0346   20.5477 C   0  0  0  0  0  0  0  0  0  0  0  0
   13.9890  -17.3573   21.8256 C   0  0  0  0  0  0  0  0  0  0  0  0
   14.3443  -16.3720   22.7212 C   0  0  0  0  0  0  0  0  0  0  0  0
   14.7347  -16.7507   24.0802 C   0  0  0  0  0  0  0  0  0  0  0  0
   13.6301  -17.4923   24.7584 C   0  0  2  0  0  0  0  0  0  0  0  0
   12.4789  -16.5807   24.8155 N   0  0  0  0  0  0  0  0  0  0  0  0
   13.9227  -17.9138   26.1402 C   0  0  0  0  0  0  0  0  0  0  0  0
   14.9299  -18.8499   26.4404 O   0  0  0  0  0  0  0  0  0  0  0  0
   14.3191  -15.0584   22.3225 C   0  0  0  0  0  0  0  0  0  0  0  0
   13.9344  -14.7449   21.0170 C   0  0  0  0  0  0  0  0  0  0  0  0
   13.2976  -17.4691   27.1354 O   0  0  0  0  0  0  0  0  0  0  0  0
  2  1  1  1
  2  3  1  0
  3  4  1  0
  4  5  2  0
  5  6  1  0
  7  6  2  0
  8  7  1  0
  9  8  2  0
  9  4  1  0
 10  2  1  0
 11 10  2  0
 12 10  1  0
 13 12  1  0
 14 15  1  0
 13 14  1  1
 15 23  1  0
 16 17  1  0
 16 15  2  0
 17 18  1  0
 18 23  2  0
 18 19  1  0
 19 20  2  0
 20 21  1  0
 22 21  2  0
 23 22  1  0
 24 13  1  0
 24 25  2  0
 27 37  2  0
 27 26  1  0
 28 27  1  0
 29 30  1  0
 29 28  2  0
 30 36  2  0
 31 30  1  0
 32 31  1  1
 32 33  1  0
 33 24  1  0
 34 32  1  0
 35 34  1  0
 36 37  1  0
 38 34  2  0
M  END
$$$$
