FWY.pdb
     RDKit          3D

 38 41  0  0  1  0  0  0  0  0999 V2000
    6.2019  -18.0321   20.6763 N   0  0  0  0  0  0  0  0  0  0  0  0
    6.6759  -18.3691   22.0215 C   0  0  1  0  0  0  0  0  0  0  0  0
    7.4238  -19.6697   21.8918 C   0  0  0  0  0  0  0  0  0  0  0  0
    6.5934  -20.8661   21.9863 C   0  0  0  0  0  0  0  0  0  0  0  0
    5.2368  -20.7739   22.1311 C   0  0  0  0  0  0  0  0  0  0  0  0
    4.4258  -21.9066   22.2196 C   0  0  0  0  0  0  0  0  0  0  0  0
    5.0071  -23.1654   22.1598 C   0  0  0  0  0  0  0  0  0  0  0  0
    6.3768  -23.2731   22.0137 C   0  0  0  0  0  0  0  0  0  0  0  0
    7.1615  -22.1203   21.9279 C   0  0  0  0  0  0  0  0  0  0  0  0
    7.5240  -17.2603   22.5202 C   0  0  0  0  0  0  0  0  0  0  0  0
    8.1146  -16.4837   21.7366 O   0  0  0  0  0  0  0  0  0  0  0  0
    7.6892  -17.0502   23.9306 N   0  0  0  0  0  0  0  0  0  0  0  0
    8.7662  -16.2448   24.4839 C   0  0  1  0  0  0  0  0  0  0  0  0
    8.3979  -15.9132   25.9126 C   0  0  0  0  0  0  0  0  0  0  0  0
    7.2117  -15.0646   26.0441 C   0  0  0  0  0  0  0  0  0  0  0  0
    5.9160  -15.4958   26.0398 C   0  0  0  0  0  0  0  0  0  0  0  0
    5.1177  -14.4214   26.1834 N   0  0  0  0  0  0  0  0  0  0  0  0
    5.8786  -13.3039   26.2805 C   0  0  0  0  0  0  0  0  0  0  0  0
    5.6075  -11.9528   26.4380 C   0  0  0  0  0  0  0  0  0  0  0  0
    6.6470  -11.0500   26.5033 C   0  0  0  0  0  0  0  0  0  0  0  0
    7.9705  -11.4340   26.4176 C   0  0  0  0  0  0  0  0  0  0  0  0
    8.2420  -12.7649   26.2621 C   0  0  0  0  0  0  0  0  0  0  0  0
    7.2131  -13.7013   26.1930 C   0  0  0  0  0  0  0  0  0  0  0  0
   10.0349  -17.0541   24.5591 C   0  0  0  0  0  0  0  0  0  0  0  0
   10.0253  -18.2947   24.6583 O   0  0  0  0  0  0  0  0  0  0  0  0
   12.2088  -14.1910   18.7889 O   0  0  0  0  0  0  0  0  0  0  0  0
   12.3252  -15.0785   19.8719 C   0  0  0  0  0  0  0  0  0  0  0  0
   11.2302  -15.7748   20.3213 C   0  0  0  0  0  0  0  0  0  0  0  0
   11.3243  -16.6449   21.3759 C   0  0  0  0  0  0  0  0  0  0  0  0
   12.5290  -16.8431   22.0152 C   0  0  0  0  0  0  0  0  0  0  0  0
   12.5934  -17.7752   23.1421 C   0  0  0  0  0  0  0  0  0  0  0  0
   12.5671  -17.0361   24.4394 C   0  0  2  0  0  0  0  0  0  0  0  0
   11.2682  -16.3528   24.5127 N   0  0  0  0  0  0  0  0  0  0  0  0
   13.6115  -16.0067   24.5882 C   0  0  0  0  0  0  0  0  0  0  0  0
   13.3026  -14.6580   24.8460 O   0  0  0  0  0  0  0  0  0  0  0  0
   13.6397  -16.1594   21.5862 C   0  0  0  0  0  0  0  0  0  0  0  0
   13.5284  -15.2761   20.5101 C   0  0  0  0  0  0  0  0  0  0  0  0
   14.8384  -16.2620   24.4958 O   0  0  0  0  0  0  0  0  0  0  0  0
  2  1  1  6
  2  3  1  0
  3  4  1  0
  4  5  2  0
  5  6  1  0
  7  6  2  0
  8  7  1  0
  9  8  2  0
  9  4  1  0
 10  2  1  0
 11 10  2  0
 12 10  1  0
 13 12  1  0
 14 15  1  0
 13 14  1  1
 15 23  1  0
 16 17  1  0
 16 15  2  0
 17 18  1  0
 18 23  2  0
 18 19  1  0
 19 20  2  0
 20 21  1  0
 22 21  2  0
 23 22  1  0
 24 13  1  0
 24 25  2  0
 27 37  2  0
 27 26  1  0
 28 27  1  0
 29 30  1  0
 29 28  2  0
 30 36  2  0
 31 30  1  0
 32 31  1  6
 32 33  1  0
 33 24  1  0
 34 32  1  0
 35 34  1  0
 36 37  1  0
 38 34  2  0
M  END
$$$$
