FWY.pdb
     RDKit          3D

 38 41  0  0  1  0  0  0  0  0999 V2000
    9.6270  -16.2325   18.6052 N   0  0  0  0  0  0  0  0  0  0  0  0
    9.8316  -17.1646   19.7175 C   0  0  1  0  0  0  0  0  0  0  0  0
   11.0398  -17.9893   19.3600 C   0  0  0  0  0  0  0  0  0  0  0  0
   10.8595  -18.8761   18.2151 C   0  0  0  0  0  0  0  0  0  0  0  0
   10.1383  -20.0326   18.3250 C   0  0  0  0  0  0  0  0  0  0  0  0
    9.9518  -20.8916   17.2406 C   0  0  0  0  0  0  0  0  0  0  0  0
   10.5122  -20.5681   16.0129 C   0  0  0  0  0  0  0  0  0  0  0  0
   11.2434  -19.4024   15.8876 C   0  0  0  0  0  0  0  0  0  0  0  0
   11.4120  -18.5634   16.9920 C   0  0  0  0  0  0  0  0  0  0  0  0
   10.0105  -16.3857   20.9659 C   0  0  0  0  0  0  0  0  0  0  0  0
   10.7843  -15.4036   21.0203 O   0  0  0  0  0  0  0  0  0  0  0  0
    9.2916  -16.7451   22.1554 N   0  0  0  0  0  0  0  0  0  0  0  0
    9.4177  -16.0075   23.4023 C   0  0  1  0  0  0  0  0  0  0  0  0
    8.2743  -16.4295   24.2976 C   0  0  0  0  0  0  0  0  0  0  0  0
    7.2989  -15.3700   24.5633 C   0  0  0  0  0  0  0  0  0  0  0  0
    5.9836  -15.3841   24.1965 C   0  0  0  0  0  0  0  0  0  0  0  0
    5.4196  -14.2372   24.6191 N   0  0  0  0  0  0  0  0  0  0  0  0
    6.3510  -13.4835   25.2530 C   0  0  0  0  0  0  0  0  0  0  0  0
    6.3406  -12.2437   25.8748 C   0  0  0  0  0  0  0  0  0  0  0  0
    7.4980  -11.7525   26.4395 C   0  0  0  0  0  0  0  0  0  0  0  0
    8.6899  -12.4490   26.4150 C   0  0  0  0  0  0  0  0  0  0  0  0
    8.7045  -13.6714   25.8029 C   0  0  0  0  0  0  0  0  0  0  0  0
    7.5509  -14.1947   25.2234 C   0  0  0  0  0  0  0  0  0  0  0  0
   10.6789  -16.4120   24.1206 C   0  0  0  0  0  0  0  0  0  0  0  0
   11.2325  -17.5089   23.9219 O   0  0  0  0  0  0  0  0  0  0  0  0
   11.8791  -17.0875   32.5309 O   0  0  0  0  0  0  0  0  0  0  0  0
   11.7484  -16.5317   31.2471 C   0  0  0  0  0  0  0  0  0  0  0  0
   12.6338  -16.8648   30.2516 C   0  0  0  0  0  0  0  0  0  0  0  0
   12.5222  -16.3332   28.9934 C   0  0  0  0  0  0  0  0  0  0  0  0
   11.5114  -15.4453   28.6951 C   0  0  0  0  0  0  0  0  0  0  0  0
   11.4245  -14.8917   27.3428 C   0  0  0  0  0  0  0  0  0  0  0  0
   11.8205  -15.9137   26.3286 C   0  0  2  0  0  0  0  0  0  0  0  0
   11.2329  -15.4924   25.0492 N   0  0  0  0  0  0  0  0  0  0  0  0
   11.3378  -17.2792   26.6026 C   0  0  0  0  0  0  0  0  0  0  0  0
    9.9685  -17.5776   26.7328 O   0  0  0  0  0  0  0  0  0  0  0  0
   10.6125  -15.0950   29.6721 C   0  0  0  0  0  0  0  0  0  0  0  0
   10.7387  -15.6450   30.9496 C   0  0  0  0  0  0  0  0  0  0  0  0
   12.1102  -18.2611   26.7373 O   0  0  0  0  0  0  0  0  0  0  0  0
  2  1  1  6
  2  3  1  0
  3  4  1  0
  4  5  2  0
  5  6  1  0
  7  6  2  0
  8  7  1  0
  9  8  2  0
  9  4  1  0
 10  2  1  0
 11 10  2  0
 12 10  1  0
 13 12  1  0
 14 15  1  0
 13 14  1  1
 15 23  1  0
 16 17  1  0
 16 15  2  0
 17 18  1  0
 18 23  2  0
 18 19  1  0
 19 20  2  0
 20 21  1  0
 22 21  2  0
 23 22  1  0
 24 13  1  0
 24 25  2  0
 27 37  2  0
 27 26  1  0
 28 27  1  0
 29 30  1  0
 29 28  2  0
 30 36  2  0
 31 30  1  0
 32 31  1  1
 32 33  1  0
 33 24  1  0
 34 32  1  0
 35 34  1  0
 36 37  1  0
 38 34  2  0
M  END
$$$$
