FWY.pdb
     RDKit          3D

 38 41  0  0  1  0  0  0  0  0999 V2000
    6.2291  -18.7293   25.0926 N   0  0  0  0  0  0  0  0  0  0  0  0
    7.0104  -17.5355   24.7581 C   0  0  1  0  0  0  0  0  0  0  0  0
    7.4894  -16.9645   26.0666 C   0  0  0  0  0  0  0  0  0  0  0  0
    7.6324  -15.5122   26.0857 C   0  0  0  0  0  0  0  0  0  0  0  0
    8.8513  -14.9206   25.9014 C   0  0  0  0  0  0  0  0  0  0  0  0
    9.0073  -13.5335   25.9128 C   0  0  0  0  0  0  0  0  0  0  0  0
    7.8971  -12.7262   26.1166 C   0  0  0  0  0  0  0  0  0  0  0  0
    6.6592  -13.3107   26.3043 C   0  0  0  0  0  0  0  0  0  0  0  0
    6.5358  -14.7023   26.2874 C   0  0  0  0  0  0  0  0  0  0  0  0
    8.1196  -17.9283   23.8568 C   0  0  0  0  0  0  0  0  0  0  0  0
    8.7659  -18.9850   24.0350 O   0  0  0  0  0  0  0  0  0  0  0  0
    8.4822  -17.0949   22.7456 N   0  0  0  0  0  0  0  0  0  0  0  0
    9.5849  -17.4127   21.8523 C   0  0  1  0  0  0  0  0  0  0  0  0
    9.3832  -16.6191   20.5810 C   0  0  0  0  0  0  0  0  0  0  0  0
    9.3856  -15.1674   20.7740 C   0  0  0  0  0  0  0  0  0  0  0  0
   10.3629  -14.4455   21.3973 C   0  0  0  0  0  0  0  0  0  0  0  0
   10.0034  -13.1485   21.3741 N   0  0  0  0  0  0  0  0  0  0  0  0
    8.8092  -13.0226   20.7454 C   0  0  0  0  0  0  0  0  0  0  0  0
    7.9797  -11.9546   20.4370 C   0  0  0  0  0  0  0  0  0  0  0  0
    6.7963  -12.1794   19.7670 C   0  0  0  0  0  0  0  0  0  0  0  0
    6.3896  -13.4411   19.3810 C   0  0  0  0  0  0  0  0  0  0  0  0
    7.2043  -14.4967   19.6832 C   0  0  0  0  0  0  0  0  0  0  0  0
    8.4065  -14.3014   20.3593 C   0  0  0  0  0  0  0  0  0  0  0  0
   10.8859  -16.9312   22.4405 C   0  0  0  0  0  0  0  0  0  0  0  0
   11.6000  -16.0870   21.8692 O   0  0  0  0  0  0  0  0  0  0  0  0
   10.5910  -14.1617   30.5253 O   0  0  0  0  0  0  0  0  0  0  0  0
   10.6194  -14.5446   29.1737 C   0  0  0  0  0  0  0  0  0  0  0  0
   10.8789  -13.6182   28.1938 C   0  0  0  0  0  0  0  0  0  0  0  0
   10.9111  -13.9728   26.8704 C   0  0  0  0  0  0  0  0  0  0  0  0
   10.6821  -15.2771   26.4888 C   0  0  0  0  0  0  0  0  0  0  0  0
   10.7180  -15.6206   25.0664 C   0  0  0  0  0  0  0  0  0  0  0  0
   11.7737  -16.6420   24.7975 C   0  0  2  0  0  0  0  0  0  0  0  0
   11.2864  -17.4749   23.6892 N   0  0  0  0  0  0  0  0  0  0  0  0
   12.0662  -17.5438   25.9260 C   0  0  0  0  0  0  0  0  0  0  0  0
   11.3207  -18.7139   26.1627 O   0  0  0  0  0  0  0  0  0  0  0  0
   10.4200  -16.2234   27.4484 C   0  0  0  0  0  0  0  0  0  0  0  0
   10.3906  -15.8472   28.7931 C   0  0  0  0  0  0  0  0  0  0  0  0
   12.9938  -17.3305   26.7464 O   0  0  0  0  0  0  0  0  0  0  0  0
  2  1  1  1
  2  3  1  0
  3  4  1  0
  4  5  2  0
  5  6  1  0
  7  6  2  0
  8  7  1  0
  9  8  2  0
  9  4  1  0
 10  2  1  0
 11 10  2  0
 12 10  1  0
 13 12  1  0
 14 15  1  0
 13 14  1  6
 15 23  1  0
 16 17  1  0
 16 15  2  0
 17 18  1  0
 18 23  2  0
 18 19  1  0
 19 20  2  0
 20 21  1  0
 22 21  2  0
 23 22  1  0
 24 13  1  0
 24 25  2  0
 27 37  2  0
 27 26  1  0
 28 27  1  0
 29 30  1  0
 29 28  2  0
 30 36  2  0
 31 30  1  0
 32 31  1  1
 32 33  1  0
 33 24  1  0
 34 32  1  0
 35 34  1  0
 36 37  1  0
 38 34  2  0
M  END
$$$$
