FWY.pdb
     RDKit          3D

 38 41  0  0  1  0  0  0  0  0999 V2000
    6.0168  -18.6973   23.8010 N   0  0  0  0  0  0  0  0  0  0  0  0
    6.5905  -17.3668   24.0212 C   0  0  1  0  0  0  0  0  0  0  0  0
    6.5036  -17.1098   25.5025 C   0  0  0  0  0  0  0  0  0  0  0  0
    6.8469  -15.7511   25.9098 C   0  0  0  0  0  0  0  0  0  0  0  0
    6.0710  -14.6869   25.5423 C   0  0  0  0  0  0  0  0  0  0  0  0
    6.3812  -13.3808   25.9250 C   0  0  0  0  0  0  0  0  0  0  0  0
    7.5083  -13.1492   26.7009 C   0  0  0  0  0  0  0  0  0  0  0  0
    8.3013  -14.2155   27.0794 C   0  0  0  0  0  0  0  0  0  0  0  0
    7.9641  -15.5112   26.6802 C   0  0  0  0  0  0  0  0  0  0  0  0
    7.9827  -17.3574   23.5123 C   0  0  0  0  0  0  0  0  0  0  0  0
    8.5792  -18.4169   23.2159 O   0  0  0  0  0  0  0  0  0  0  0  0
    8.6869  -16.1174   23.3465 N   0  0  0  0  0  0  0  0  0  0  0  0
    9.8097  -15.9677   22.4345 C   0  0  1  0  0  0  0  0  0  0  0  0
    9.9348  -14.4971   22.1052 C   0  0  0  0  0  0  0  0  0  0  0  0
    8.7784  -13.9406   21.3996 C   0  0  0  0  0  0  0  0  0  0  0  0
    7.6356  -13.4728   21.9825 C   0  0  0  0  0  0  0  0  0  0  0  0
    6.8130  -13.0461   21.0061 N   0  0  0  0  0  0  0  0  0  0  0  0
    7.4078  -13.2315   19.8022 C   0  0  0  0  0  0  0  0  0  0  0  0
    7.0416  -12.9838   18.4876 C   0  0  0  0  0  0  0  0  0  0  0  0
    7.9095  -13.3008   17.4649 C   0  0  0  0  0  0  0  0  0  0  0  0
    9.1498  -13.8639   17.6911 C   0  0  0  0  0  0  0  0  0  0  0  0
    9.5145  -14.1098   18.9856 C   0  0  0  0  0  0  0  0  0  0  0  0
    8.6592  -13.8004   20.0406 C   0  0  0  0  0  0  0  0  0  0  0  0
   11.0939  -16.3498   23.1237 C   0  0  0  0  0  0  0  0  0  0  0  0
   12.2095  -16.0413   22.6661 O   0  0  0  0  0  0  0  0  0  0  0  0
   10.0392  -14.1799   30.2973 O   0  0  0  0  0  0  0  0  0  0  0  0
   10.6765  -14.6152   29.1233 C   0  0  0  0  0  0  0  0  0  0  0  0
   11.7563  -15.4609   29.1907 C   0  0  0  0  0  0  0  0  0  0  0  0
   12.3907  -15.8964   28.0566 C   0  0  0  0  0  0  0  0  0  0  0  0
   11.9567  -15.4929   26.8124 C   0  0  0  0  0  0  0  0  0  0  0  0
   12.6605  -15.9720   25.6216 C   0  0  0  0  0  0  0  0  0  0  0  0
   12.1528  -17.3161   25.2146 C   0  0  2  0  0  0  0  0  0  0  0  0
   10.9992  -17.0856   24.3340 N   0  0  0  0  0  0  0  0  0  0  0  0
   11.6913  -18.1675   26.3257 C   0  0  0  0  0  0  0  0  0  0  0  0
   10.3540  -18.5913   26.4391 O   0  0  0  0  0  0  0  0  0  0  0  0
   10.8792  -14.6472   26.7164 C   0  0  0  0  0  0  0  0  0  0  0  0
   10.2428  -14.2120   27.8809 C   0  0  0  0  0  0  0  0  0  0  0  0
   12.4547  -18.5692   27.2394 O   0  0  0  0  0  0  0  0  0  0  0  0
  2  1  1  1
  2  3  1  0
  3  4  1  0
  4  5  2  0
  5  6  1  0
  7  6  2  0
  8  7  1  0
  9  8  2  0
  9  4  1  0
 10  2  1  0
 11 10  2  0
 12 10  1  0
 13 12  1  0
 14 15  1  0
 13 14  1  1
 15 23  1  0
 16 17  1  0
 16 15  2  0
 17 18  1  0
 18 23  2  0
 18 19  1  0
 19 20  2  0
 20 21  1  0
 22 21  2  0
 23 22  1  0
 24 13  1  0
 24 25  2  0
 27 37  2  0
 27 26  1  0
 28 27  1  0
 29 30  1  0
 29 28  2  0
 30 36  2  0
 31 30  1  0
 32 31  1  1
 32 33  1  0
 33 24  1  0
 34 32  1  0
 35 34  1  0
 36 37  1  0
 38 34  2  0
M  END
$$$$
