FWY.pdb
     RDKit          3D

 38 41  0  0  1  0  0  0  0  0999 V2000
    8.7049  -17.8895   21.3504 N   0  0  0  0  0  0  0  0  0  0  0  0
    9.8435  -16.9697   21.2763 C   0  0  1  0  0  0  0  0  0  0  0  0
    9.4969  -15.9536   20.2204 C   0  0  0  0  0  0  0  0  0  0  0  0
    8.3752  -15.0815   20.5538 C   0  0  0  0  0  0  0  0  0  0  0  0
    8.5473  -13.7321   20.6920 C   0  0  0  0  0  0  0  0  0  0  0  0
    7.4861  -12.8816   21.0070 C   0  0  0  0  0  0  0  0  0  0  0  0
    6.2176  -13.4150   21.1865 C   0  0  0  0  0  0  0  0  0  0  0  0
    6.0294  -14.7770   21.0498 C   0  0  0  0  0  0  0  0  0  0  0  0
    7.1119  -15.6019   20.7339 C   0  0  0  0  0  0  0  0  0  0  0  0
   10.0569  -16.3662   22.6133 C   0  0  0  0  0  0  0  0  0  0  0  0
   10.8471  -15.4105   22.7822 O   0  0  0  0  0  0  0  0  0  0  0  0
    9.3536  -16.8708   23.7585 N   0  0  0  0  0  0  0  0  0  0  0  0
    9.7354  -16.5416   25.1226 C   0  0  1  0  0  0  0  0  0  0  0  0
    8.4960  -16.6553   25.9815 C   0  0  0  0  0  0  0  0  0  0  0  0
    7.4681  -15.6550   25.6858 C   0  0  0  0  0  0  0  0  0  0  0  0
    6.2499  -15.9035   25.1212 C   0  0  0  0  0  0  0  0  0  0  0  0
    5.5935  -14.7333   25.0120 N   0  0  0  0  0  0  0  0  0  0  0  0
    6.3696  -13.7338   25.4977 C   0  0  0  0  0  0  0  0  0  0  0  0
    6.2157  -12.3624   25.6372 C   0  0  0  0  0  0  0  0  0  0  0  0
    7.2319  -11.6132   26.1902 C   0  0  0  0  0  0  0  0  0  0  0  0
    8.4184  -12.1735   26.6200 C   0  0  0  0  0  0  0  0  0  0  0  0
    8.5742  -13.5250   26.4841 C   0  0  0  0  0  0  0  0  0  0  0  0
    7.5653  -14.3089   25.9292 C   0  0  0  0  0  0  0  0  0  0  0  0
   10.7041  -17.5665   25.6532 C   0  0  0  0  0  0  0  0  0  0  0  0
   11.5429  -18.1263   24.9238 O   0  0  0  0  0  0  0  0  0  0  0  0
   15.9734  -16.0568   23.4677 O   0  0  0  0  0  0  0  0  0  0  0  0
   15.1065  -16.1990   24.5642 C   0  0  0  0  0  0  0  0  0  0  0  0
   13.9799  -15.4204   24.6656 C   0  0  0  0  0  0  0  0  0  0  0  0
   13.1224  -15.5450   25.7274 C   0  0  0  0  0  0  0  0  0  0  0  0
   13.3723  -16.4614   26.7260 C   0  0  0  0  0  0  0  0  0  0  0  0
   12.4391  -16.5646   27.8490 C   0  0  0  0  0  0  0  0  0  0  0  0
   11.8236  -17.9242   27.8994 C   0  0  2  0  0  0  0  0  0  0  0  0
   10.6360  -17.8851   27.0348 N   0  0  0  0  0  0  0  0  0  0  0  0
   11.3766  -18.3537   29.2367 C   0  0  0  0  0  0  0  0  0  0  0  0
   12.2554  -18.9364   30.1689 O   0  0  0  0  0  0  0  0  0  0  0  0
   14.4919  -17.2525   26.6493 C   0  0  0  0  0  0  0  0  0  0  0  0
   15.3564  -17.1143   25.5612 C   0  0  0  0  0  0  0  0  0  0  0  0
   10.1902  -18.2294   29.6314 O   0  0  0  0  0  0  0  0  0  0  0  0
  2  1  1  1
  2  3  1  0
  3  4  1  0
  4  5  2  0
  5  6  1  0
  7  6  2  0
  8  7  1  0
  9  8  2  0
  9  4  1  0
 10  2  1  0
 11 10  2  0
 12 10  1  0
 13 12  1  0
 14 15  1  0
 13 14  1  1
 15 23  1  0
 16 17  1  0
 16 15  2  0
 17 18  1  0
 18 23  2  0
 18 19  1  0
 19 20  2  0
 20 21  1  0
 22 21  2  0
 23 22  1  0
 24 13  1  0
 24 25  2  0
 27 37  2  0
 27 26  1  0
 28 27  1  0
 29 30  1  0
 29 28  2  0
 30 36  2  0
 31 30  1  0
 32 31  1  1
 32 33  1  0
 33 24  1  0
 34 32  1  0
 35 34  1  0
 36 37  1  0
 38 34  2  0
M  END
$$$$
