AWE.pdb
     RDKit          3D

 29 30  0  0  1  0  0  0  0  0999 V2000
    7.7911  -16.6254   19.3563 C   0  0  0  0  0  0  0  0  0  0  0  0
    7.1455  -16.9731   20.7059 C   0  0  2  0  0  0  0  0  0  0  0  0
    5.8298  -16.3665   20.6596 N   0  0  0  0  0  0  0  0  0  0  0  0
    7.9461  -16.3462   21.7542 C   0  0  0  0  0  0  0  0  0  0  0  0
    8.4731  -15.2239   21.5510 O   0  0  0  0  0  0  0  0  0  0  0  0
    8.1846  -16.9384   23.0485 N   0  0  0  0  0  0  0  0  0  0  0  0
    9.0786  -16.3771   24.0040 C   0  0  1  0  0  0  0  0  0  0  0  0
    8.5450  -16.2203   25.3730 C   0  0  0  0  0  0  0  0  0  0  0  0
    7.4108  -15.2853   25.5229 C   0  0  0  0  0  0  0  0  0  0  0  0
    6.0591  -15.5207   25.4678 C   0  0  0  0  0  0  0  0  0  0  0  0
    5.3750  -14.3650   25.6688 N   0  0  0  0  0  0  0  0  0  0  0  0
    6.2636  -13.3679   25.8566 C   0  0  0  0  0  0  0  0  0  0  0  0
    6.0987  -12.0189   26.0982 C   0  0  0  0  0  0  0  0  0  0  0  0
    7.1751  -11.1795   26.2602 C   0  0  0  0  0  0  0  0  0  0  0  0
    8.4323  -11.7315   26.1730 C   0  0  0  0  0  0  0  0  0  0  0  0
    8.6016  -13.0786   25.9318 C   0  0  0  0  0  0  0  0  0  0  0  0
    7.5155  -13.9265   25.7683 C   0  0  0  0  0  0  0  0  0  0  0  0
   10.4056  -17.0478   24.0319 C   0  0  0  0  0  0  0  0  0  0  0  0
   10.5006  -18.3077   24.2121 O   0  0  0  0  0  0  0  0  0  0  0  0
   11.6155  -16.3494   23.8653 N   0  0  0  0  0  0  0  0  0  0  0  0
   12.9382  -17.0221   23.8112 C   0  0  1  0  0  0  0  0  0  0  0  0
   13.8679  -16.1709   23.0166 C   0  0  0  0  0  0  0  0  0  0  0  0
   15.2440  -16.7029   22.8749 C   0  0  0  0  0  0  0  0  0  0  0  0
   16.1618  -15.9349   22.0245 C   0  0  0  0  0  0  0  0  0  0  0  0
   15.9182  -15.6070   20.8202 O   0  0  0  0  0  0  0  0  0  0  0  0
   13.2630  -17.3846   25.1696 C   0  0  0  0  0  0  0  0  0  0  0  0
   14.0851  -18.3254   25.4038 O   0  0  0  0  0  0  0  0  0  0  0  0
   17.4017  -15.5052   22.5284 O   0  0  0  0  0  0  0  0  0  0  0  0
   12.7460  -16.7702   26.2905 O   0  0  0  0  0  0  0  0  0  0  0  0
  2  1  1  6
  2  3  1  0
  4  2  1  0
  4  5  2  0
  6  4  1  0
  7  6  1  0
  7  8  1  1
  9  8  1  0
  9 10  2  0
 11 10  1  0
 12 11  1  0
 13 12  2  0
 14 13  1  0
 15 14  2  0
 15 16  1  0
 16 17  2  0
 17 12  1  0
 17  9  1  0
 18  7  1  0
 19 18  2  0
 20 18  1  0
 21 20  1  0
 21 22  1  1
 22 23  1  0
 24 23  1  0
 24 28  1  0
 25 24  2  0
 26 21  1  0
 26 29  1  0
 27 26  2  0
M  END
$$$$
