AWE.pdb
     RDKit          3D

 29 30  0  0  1  0  0  0  0  0999 V2000
    7.7971  -16.0713   19.4785 C   0  0  0  0  0  0  0  0  0  0  0  0
    7.2955  -14.9482   20.3983 C   0  0  2  0  0  0  0  0  0  0  0  0
    7.4109  -13.7378   19.6093 N   0  0  0  0  0  0  0  0  0  0  0  0
    8.1951  -14.8816   21.5468 C   0  0  0  0  0  0  0  0  0  0  0  0
    9.2331  -14.1761   21.4873 O   0  0  0  0  0  0  0  0  0  0  0  0
    7.9737  -15.5880   22.7856 N   0  0  0  0  0  0  0  0  0  0  0  0
    8.9118  -15.5858   23.8567 C   0  0  1  0  0  0  0  0  0  0  0  0
    8.3456  -15.7551   25.2110 C   0  0  0  0  0  0  0  0  0  0  0  0
    7.2584  -14.8248   25.5794 C   0  0  0  0  0  0  0  0  0  0  0  0
    5.9097  -15.0490   25.7069 C   0  0  0  0  0  0  0  0  0  0  0  0
    5.2784  -13.9041   26.0737 N   0  0  0  0  0  0  0  0  0  0  0  0
    6.1989  -12.9252   26.1900 C   0  0  0  0  0  0  0  0  0  0  0  0
    6.0899  -11.5927   26.5331 C   0  0  0  0  0  0  0  0  0  0  0  0
    7.1903  -10.7707   26.5873 C   0  0  0  0  0  0  0  0  0  0  0  0
    8.4137  -11.3231   26.2859 C   0  0  0  0  0  0  0  0  0  0  0  0
    8.5272  -12.6539   25.9426 C   0  0  0  0  0  0  0  0  0  0  0  0
    7.4169  -13.4842   25.8878 C   0  0  0  0  0  0  0  0  0  0  0  0
   10.0493  -16.5196   23.6432 C   0  0  0  0  0  0  0  0  0  0  0  0
    9.8537  -17.7046   23.2115 O   0  0  0  0  0  0  0  0  0  0  0  0
   11.3859  -16.1626   23.8993 N   0  0  0  0  0  0  0  0  0  0  0  0
   12.5306  -17.0732   23.6435 C   0  0  1  0  0  0  0  0  0  0  0  0
   13.6935  -16.2550   23.1978 C   0  0  0  0  0  0  0  0  0  0  0  0
   14.9402  -17.0160   22.9464 C   0  0  0  0  0  0  0  0  0  0  0  0
   16.1106  -16.2389   22.5198 C   0  0  0  0  0  0  0  0  0  0  0  0
   17.2187  -16.2117   23.1429 O   0  0  0  0  0  0  0  0  0  0  0  0
   12.6393  -17.9219   24.8055 C   0  0  0  0  0  0  0  0  0  0  0  0
   13.1148  -19.0961   24.7006 O   0  0  0  0  0  0  0  0  0  0  0  0
   16.0562  -15.4615   21.3501 O   0  0  0  0  0  0  0  0  0  0  0  0
   12.2650  -17.5568   26.0814 O   0  0  0  0  0  0  0  0  0  0  0  0
  2  1  1  6
  2  3  1  0
  4  2  1  0
  4  5  2  0
  6  4  1  0
  7  6  1  0
  7  8  1  1
  9  8  1  0
  9 10  2  0
 11 10  1  0
 12 11  1  0
 13 12  2  0
 14 13  1  0
 15 14  2  0
 15 16  1  0
 16 17  2  0
 17 12  1  0
 17  9  1  0
 18  7  1  0
 19 18  2  0
 20 18  1  0
 21 20  1  0
 21 22  1  1
 22 23  1  0
 24 23  1  0
 24 28  1  0
 25 24  2  0
 26 21  1  0
 26 29  1  0
 27 26  2  0
M  END
$$$$
