AWE.pdb
     RDKit          3D

 29 30  0  0  1  0  0  0  0  0999 V2000
    7.5493  -17.0081   19.8256 C   0  0  0  0  0  0  0  0  0  0  0  0
    7.0728  -15.7908   20.6319 C   0  0  2  0  0  0  0  0  0  0  0  0
    7.0687  -14.6926   19.6858 N   0  0  0  0  0  0  0  0  0  0  0  0
    8.0583  -15.5410   21.6803 C   0  0  0  0  0  0  0  0  0  0  0  0
    9.0913  -14.8744   21.4209 O   0  0  0  0  0  0  0  0  0  0  0  0
    7.9301  -16.0174   23.0365 N   0  0  0  0  0  0  0  0  0  0  0  0
    8.9174  -15.7845   24.0357 C   0  0  1  0  0  0  0  0  0  0  0  0
    8.4334  -15.7769   25.4319 C   0  0  0  0  0  0  0  0  0  0  0  0
    7.3310  -14.8394   25.7302 C   0  0  0  0  0  0  0  0  0  0  0  0
    5.9869  -15.0762   25.8809 C   0  0  0  0  0  0  0  0  0  0  0  0
    5.3365  -13.9168   26.1586 N   0  0  0  0  0  0  0  0  0  0  0  0
    6.2399  -12.9160   26.1929 C   0  0  0  0  0  0  0  0  0  0  0  0
    6.1085  -11.5625   26.4297 C   0  0  0  0  0  0  0  0  0  0  0  0
    7.1943  -10.7199   26.4137 C   0  0  0  0  0  0  0  0  0  0  0  0
    8.4264  -11.2731   26.1517 C   0  0  0  0  0  0  0  0  0  0  0  0
    8.5624  -12.6248   25.9144 C   0  0  0  0  0  0  0  0  0  0  0  0
    7.4667  -13.4759   25.9306 C   0  0  0  0  0  0  0  0  0  0  0  0
   10.1102  -16.6619   23.8989 C   0  0  0  0  0  0  0  0  0  0  0  0
    9.9982  -17.8609   23.4761 O   0  0  0  0  0  0  0  0  0  0  0  0
   11.4112  -16.2340   24.2209 N   0  0  0  0  0  0  0  0  0  0  0  0
   12.6172  -17.0717   24.0003 C   0  0  1  0  0  0  0  0  0  0  0  0
   13.6448  -16.2454   23.3063 C   0  0  0  0  0  0  0  0  0  0  0  0
   14.9367  -16.9267   23.0546 C   0  0  0  0  0  0  0  0  0  0  0  0
   15.9835  -16.1313   22.4011 C   0  0  0  0  0  0  0  0  0  0  0  0
   17.0921  -15.8228   22.9422 O   0  0  0  0  0  0  0  0  0  0  0  0
   12.9158  -17.6920   25.2685 C   0  0  0  0  0  0  0  0  0  0  0  0
   12.3911  -17.2501   26.3386 O   0  0  0  0  0  0  0  0  0  0  0  0
   15.7998  -15.6603   21.0896 O   0  0  0  0  0  0  0  0  0  0  0  0
   13.7508  -18.7768   25.4340 O   0  0  0  0  0  0  0  0  0  0  0  0
  2  1  1  6
  2  3  1  0
  4  2  1  0
  4  5  2  0
  6  4  1  0
  7  6  1  0
  7  8  1  1
  9  8  1  0
  9 10  2  0
 11 10  1  0
 12 11  1  0
 13 12  2  0
 14 13  1  0
 15 14  2  0
 15 16  1  0
 16 17  2  0
 17 12  1  0
 17  9  1  0
 18  7  1  0
 19 18  2  0
 20 18  1  0
 21 20  1  0
 21 22  1  1
 22 23  1  0
 24 23  1  0
 24 28  1  0
 25 24  2  0
 26 21  1  0
 26 29  1  0
 27 26  2  0
M  END
$$$$
