AWE.pdb
     RDKit          3D

 29 30  0  0  1  0  0  0  0  0999 V2000
    7.6784  -17.6709   20.2065 C   0  0  0  0  0  0  0  0  0  0  0  0
    7.3491  -16.3371   20.8930 C   0  0  2  0  0  0  0  0  0  0  0  0
    7.4908  -15.3358   19.8546 N   0  0  0  0  0  0  0  0  0  0  0  0
    8.3476  -16.1175   21.9359 C   0  0  0  0  0  0  0  0  0  0  0  0
    9.4257  -15.5361   21.6563 O   0  0  0  0  0  0  0  0  0  0  0  0
    8.1831  -16.5315   23.3087 N   0  0  0  0  0  0  0  0  0  0  0  0
    9.1500  -16.2645   24.3191 C   0  0  1  0  0  0  0  0  0  0  0  0
    8.6166  -16.0303   25.6772 C   0  0  0  0  0  0  0  0  0  0  0  0
    7.4867  -15.0833   25.7749 C   0  0  0  0  0  0  0  0  0  0  0  0
    6.1344  -15.3210   25.7936 C   0  0  0  0  0  0  0  0  0  0  0  0
    5.4558  -14.1499   25.9034 N   0  0  0  0  0  0  0  0  0  0  0  0
    6.3485  -13.1404   25.9578 C   0  0  0  0  0  0  0  0  0  0  0  0
    6.1898  -11.7738   26.0694 C   0  0  0  0  0  0  0  0  0  0  0  0
    7.2696  -10.9241   26.1069 C   0  0  0  0  0  0  0  0  0  0  0  0
    8.5239  -11.4839   26.0287 C   0  0  0  0  0  0  0  0  0  0  0  0
    8.6871  -12.8487   25.9171 C   0  0  0  0  0  0  0  0  0  0  0  0
    7.5975  -13.7069   25.8793 C   0  0  0  0  0  0  0  0  0  0  0  0
   10.2540  -17.2602   24.3537 C   0  0  0  0  0  0  0  0  0  0  0  0
   10.0141  -18.5099   24.2573 O   0  0  0  0  0  0  0  0  0  0  0  0
   11.6054  -16.8942   24.4926 N   0  0  0  0  0  0  0  0  0  0  0  0
   12.7179  -17.8773   24.4626 C   0  0  1  0  0  0  0  0  0  0  0  0
   13.7915  -17.3476   23.5753 C   0  0  0  0  0  0  0  0  0  0  0  0
   14.6347  -16.2846   24.1716 C   0  0  0  0  0  0  0  0  0  0  0  0
   15.7296  -15.7695   23.3401 C   0  0  0  0  0  0  0  0  0  0  0  0
   15.5747  -15.2640   22.1837 O   0  0  0  0  0  0  0  0  0  0  0  0
   13.0050  -18.2046   25.8384 C   0  0  0  0  0  0  0  0  0  0  0  0
   12.4656  -17.5445   26.7813 O   0  0  0  0  0  0  0  0  0  0  0  0
   17.0541  -15.8098   23.8092 O   0  0  0  0  0  0  0  0  0  0  0  0
   13.8437  -19.2210   26.2444 O   0  0  0  0  0  0  0  0  0  0  0  0
  2  1  1  6
  2  3  1  0
  4  2  1  0
  4  5  2  0
  6  4  1  0
  7  6  1  0
  7  8  1  1
  9  8  1  0
  9 10  2  0
 11 10  1  0
 12 11  1  0
 13 12  2  0
 14 13  1  0
 15 14  2  0
 15 16  1  0
 16 17  2  0
 17 12  1  0
 17  9  1  0
 18  7  1  0
 19 18  2  0
 20 18  1  0
 21 20  1  0
 21 22  1  1
 22 23  1  0
 24 23  1  0
 24 28  1  0
 25 24  2  0
 26 21  1  0
 26 29  1  0
 27 26  2  0
M  END
$$$$
