AWE.pdb
     RDKit          3D

 29 30  0  0  1  0  0  0  0  0999 V2000
    9.0049  -18.4566   21.0541 C   0  0  0  0  0  0  0  0  0  0  0  0
    8.1011  -17.2656   21.4055 C   0  0  2  0  0  0  0  0  0  0  0  0
    7.8970  -16.5670   20.1519 N   0  0  0  0  0  0  0  0  0  0  0  0
    8.8347  -16.4129   22.3369 C   0  0  0  0  0  0  0  0  0  0  0  0
    9.5619  -15.4877   21.8968 O   0  0  0  0  0  0  0  0  0  0  0  0
    8.7847  -16.5576   23.7720 N   0  0  0  0  0  0  0  0  0  0  0  0
    9.5832  -15.7791   24.6571 C   0  0  1  0  0  0  0  0  0  0  0  0
    8.9921  -15.4991   25.9822 C   0  0  0  0  0  0  0  0  0  0  0  0
    7.6507  -14.8798   25.9754 C   0  0  0  0  0  0  0  0  0  0  0  0
    6.4090  -15.4634   25.9176 C   0  0  0  0  0  0  0  0  0  0  0  0
    5.4429  -14.5095   25.9432 N   0  0  0  0  0  0  0  0  0  0  0  0
    6.0359  -13.3004   26.0178 C   0  0  0  0  0  0  0  0  0  0  0  0
    5.5194  -12.0215   26.0709 C   0  0  0  0  0  0  0  0  0  0  0  0
    6.3354  -10.9179   26.1461 C   0  0  0  0  0  0  0  0  0  0  0  0
    7.6945  -11.1306   26.1666 C   0  0  0  0  0  0  0  0  0  0  0  0
    8.2148  -12.4065   26.1137 C   0  0  0  0  0  0  0  0  0  0  0  0
    7.3917  -13.5210   26.0379 C   0  0  0  0  0  0  0  0  0  0  0  0
   10.9720  -16.2912   24.7998 C   0  0  0  0  0  0  0  0  0  0  0  0
   11.8353  -15.6616   25.4978 O   0  0  0  0  0  0  0  0  0  0  0  0
   11.4127  -17.4780   24.1862 N   0  0  0  0  0  0  0  0  0  0  0  0
   12.6921  -18.1448   24.5378 C   0  0  1  0  0  0  0  0  0  0  0  0
   12.4333  -19.6025   24.7066 C   0  0  0  0  0  0  0  0  0  0  0  0
   12.8017  -20.1589   26.0299 C   0  0  0  0  0  0  0  0  0  0  0  0
   11.7143  -20.7462   26.8225 C   0  0  0  0  0  0  0  0  0  0  0  0
   11.8603  -21.2386   27.9858 O   0  0  0  0  0  0  0  0  0  0  0  0
   13.6653  -17.6839   23.5772 C   0  0  0  0  0  0  0  0  0  0  0  0
   13.2935  -17.2756   22.4322 O   0  0  0  0  0  0  0  0  0  0  0  0
   10.4063  -20.7864   26.3095 O   0  0  0  0  0  0  0  0  0  0  0  0
   15.0252  -17.6351   23.7998 O   0  0  0  0  0  0  0  0  0  0  0  0
  2  1  1  6
  2  3  1  0
  4  2  1  0
  4  5  2  0
  6  4  1  0
  7  6  1  0
  7  8  1  1
  9  8  1  0
  9 10  2  0
 11 10  1  0
 12 11  1  0
 13 12  2  0
 14 13  1  0
 15 14  2  0
 15 16  1  0
 16 17  2  0
 17 12  1  0
 17  9  1  0
 18  7  1  0
 19 18  2  0
 20 18  1  0
 21 20  1  0
 21 22  1  6
 22 23  1  0
 24 23  1  0
 24 28  1  0
 25 24  2  0
 26 21  1  0
 26 29  1  0
 27 26  2  0
M  END
$$$$
