AWE.pdb
     RDKit          3D

 29 30  0  0  1  0  0  0  0  0999 V2000
    7.6509  -18.2383   19.8474 C   0  0  0  0  0  0  0  0  0  0  0  0
    7.1889  -16.8975   20.4370 C   0  0  2  0  0  0  0  0  0  0  0  0
    7.1735  -15.9799   19.3150 N   0  0  0  0  0  0  0  0  0  0  0  0
    8.1900  -16.4744   21.4125 C   0  0  0  0  0  0  0  0  0  0  0  0
    9.2306  -15.8865   21.0249 O   0  0  0  0  0  0  0  0  0  0  0  0
    8.0694  -16.6873   22.8348 N   0  0  0  0  0  0  0  0  0  0  0  0
    9.0282  -16.2106   23.7732 C   0  0  1  0  0  0  0  0  0  0  0  0
    8.5598  -16.0895   25.1695 C   0  0  0  0  0  0  0  0  0  0  0  0
    7.4038  -15.1960   25.3897 C   0  0  0  0  0  0  0  0  0  0  0  0
    6.0612  -15.4816   25.4254 C   0  0  0  0  0  0  0  0  0  0  0  0
    5.3492  -14.3506   25.6657 N   0  0  0  0  0  0  0  0  0  0  0  0
    6.2103  -13.3199   25.7894 C   0  0  0  0  0  0  0  0  0  0  0  0
    6.0115  -11.9763   26.0349 C   0  0  0  0  0  0  0  0  0  0  0  0
    7.0641  -11.0965   26.1212 C   0  0  0  0  0  0  0  0  0  0  0  0
    8.3325  -11.6022   25.9536 C   0  0  0  0  0  0  0  0  0  0  0  0
    8.5358  -12.9439   25.7081 C   0  0  0  0  0  0  0  0  0  0  0  0
    7.4737  -13.8325   25.6210 C   0  0  0  0  0  0  0  0  0  0  0  0
   10.3213  -16.9427   23.7154 C   0  0  0  0  0  0  0  0  0  0  0  0
   10.3527  -18.2074   23.5475 O   0  0  0  0  0  0  0  0  0  0  0  0
   11.5665  -16.2997   23.8401 N   0  0  0  0  0  0  0  0  0  0  0  0
   12.8624  -17.0177   23.7390 C   0  0  1  0  0  0  0  0  0  0  0  0
   13.8362  -16.1362   23.0353 C   0  0  0  0  0  0  0  0  0  0  0  0
   15.2287  -16.6418   22.9942 C   0  0  0  0  0  0  0  0  0  0  0  0
   15.9398  -16.5078   21.7168 C   0  0  0  0  0  0  0  0  0  0  0  0
   17.2037  -16.4239   21.6054 O   0  0  0  0  0  0  0  0  0  0  0  0
   13.1533  -17.5147   25.0621 C   0  0  0  0  0  0  0  0  0  0  0  0
   12.6002  -16.9919   26.0802 O   0  0  0  0  0  0  0  0  0  0  0  0
   15.2232  -16.4704   20.5081 O   0  0  0  0  0  0  0  0  0  0  0  0
   14.0102  -18.5595   25.3368 O   0  0  0  0  0  0  0  0  0  0  0  0
  2  1  1  6
  2  3  1  0
  4  2  1  0
  4  5  2  0
  6  4  1  0
  7  6  1  0
  7  8  1  1
  9  8  1  0
  9 10  2  0
 11 10  1  0
 12 11  1  0
 13 12  2  0
 14 13  1  0
 15 14  2  0
 15 16  1  0
 16 17  2  0
 17 12  1  0
 17  9  1  0
 18  7  1  0
 19 18  2  0
 20 18  1  0
 21 20  1  0
 21 22  1  1
 22 23  1  0
 24 23  1  0
 24 28  1  0
 25 24  2  0
 26 21  1  0
 26 29  1  0
 27 26  2  0
M  END
$$$$
