AWE.pdb
     RDKit          3D

 29 30  0  0  1  0  0  0  0  0999 V2000
    7.9980  -12.8986   18.4668 C   0  0  0  0  0  0  0  0  0  0  0  0
    8.6130  -14.2612   18.8190 C   0  0  2  0  0  0  0  0  0  0  0  0
    7.6474  -15.2389   18.3576 N   0  0  0  0  0  0  0  0  0  0  0  0
    8.7347  -14.3294   20.2728 C   0  0  0  0  0  0  0  0  0  0  0  0
    9.7113  -13.7833   20.8443 O   0  0  0  0  0  0  0  0  0  0  0  0
    7.7860  -14.9985   21.1301 N   0  0  0  0  0  0  0  0  0  0  0  0
    7.9381  -15.0731   22.5438 C   0  0  1  0  0  0  0  0  0  0  0  0
    6.6874  -15.1861   23.3225 C   0  0  0  0  0  0  0  0  0  0  0  0
    6.8171  -15.0170   24.7846 C   0  0  0  0  0  0  0  0  0  0  0  0
    6.8537  -15.9593   25.7827 C   0  0  0  0  0  0  0  0  0  0  0  0
    6.9916  -15.3549   26.9909 N   0  0  0  0  0  0  0  0  0  0  0  0
    7.0468  -14.0210   26.7993 C   0  0  0  0  0  0  0  0  0  0  0  0
    7.1813  -12.9674   27.6808 C   0  0  0  0  0  0  0  0  0  0  0  0
    7.2143  -11.6640   27.2455 C   0  0  0  0  0  0  0  0  0  0  0  0
    7.1079  -11.4414   25.8920 C   0  0  0  0  0  0  0  0  0  0  0  0
    6.9734  -12.4910   25.0078 C   0  0  0  0  0  0  0  0  0  0  0  0
    6.9402  -13.8069   25.4465 C   0  0  0  0  0  0  0  0  0  0  0  0
    8.9197  -16.1034   22.9756 C   0  0  0  0  0  0  0  0  0  0  0  0
    8.8553  -17.2982   22.5318 O   0  0  0  0  0  0  0  0  0  0  0  0
    9.9601  -15.8311   23.8828 N   0  0  0  0  0  0  0  0  0  0  0  0
   11.0679  -16.7820   24.1538 C   0  0  1  0  0  0  0  0  0  0  0  0
   12.2879  -16.2982   23.4483 C   0  0  0  0  0  0  0  0  0  0  0  0
   13.5087  -17.1078   23.6730 C   0  0  0  0  0  0  0  0  0  0  0  0
   14.7311  -16.6565   22.9964 C   0  0  0  0  0  0  0  0  0  0  0  0
   15.8657  -17.2179   23.1165 O   0  0  0  0  0  0  0  0  0  0  0  0
   11.0848  -16.9861   25.5822 C   0  0  0  0  0  0  0  0  0  0  0  0
   10.4893  -16.1705   26.3543 O   0  0  0  0  0  0  0  0  0  0  0  0
   14.6975  -15.5386   22.1450 O   0  0  0  0  0  0  0  0  0  0  0  0
   11.7099  -18.0385   26.2170 O   0  0  0  0  0  0  0  0  0  0  0  0
  2  1  1  1
  2  3  1  0
  4  2  1  0
  4  5  2  0
  6  4  1  0
  7  6  1  0
  7  8  1  1
  9  8  1  0
  9 10  2  0
 11 10  1  0
 12 11  1  0
 13 12  2  0
 14 13  1  0
 15 14  2  0
 15 16  1  0
 16 17  2  0
 17 12  1  0
 17  9  1  0
 18  7  1  0
 19 18  2  0
 20 18  1  0
 21 20  1  0
 21 22  1  1
 22 23  1  0
 24 23  1  0
 24 28  1  0
 25 24  2  0
 26 21  1  0
 26 29  1  0
 27 26  2  0
M  END
$$$$
