AWE.pdb
     RDKit          3D

 29 30  0  0  1  0  0  0  0  0999 V2000
    6.9100  -13.9797   20.3880 C   0  0  0  0  0  0  0  0  0  0  0  0
    7.6219  -15.3332   20.5293 C   0  0  2  0  0  0  0  0  0  0  0  0
    6.5677  -16.2819   20.8290 N   0  0  0  0  0  0  0  0  0  0  0  0
    8.5397  -15.2347   21.6610 C   0  0  0  0  0  0  0  0  0  0  0  0
    9.5211  -14.4524   21.6034 O   0  0  0  0  0  0  0  0  0  0  0  0
    8.3988  -15.9931   22.8808 N   0  0  0  0  0  0  0  0  0  0  0  0
    9.2887  -15.8577   23.9840 C   0  0  1  0  0  0  0  0  0  0  0  0
    8.6708  -15.9301   25.3243 C   0  0  0  0  0  0  0  0  0  0  0  0
    7.4809  -15.0800   25.5358 C   0  0  0  0  0  0  0  0  0  0  0  0
    6.1465  -15.3991   25.4796 C   0  0  0  0  0  0  0  0  0  0  0  0
    5.3922  -14.3029   25.7503 N   0  0  0  0  0  0  0  0  0  0  0  0
    6.2172  -13.2621   25.9853 C   0  0  0  0  0  0  0  0  0  0  0  0
    5.9692  -11.9419   26.3027 C   0  0  0  0  0  0  0  0  0  0  0  0
    6.9914  -11.0447   26.5016 C   0  0  0  0  0  0  0  0  0  0  0  0
    8.2802  -11.5085   26.3729 C   0  0  0  0  0  0  0  0  0  0  0  0
    8.5327  -12.8266   26.0559 C   0  0  0  0  0  0  0  0  0  0  0  0
    7.5013  -13.7328   25.8552 C   0  0  0  0  0  0  0  0  0  0  0  0
   10.4687  -16.7588   23.9010 C   0  0  0  0  0  0  0  0  0  0  0  0
   10.3253  -18.0121   23.7074 O   0  0  0  0  0  0  0  0  0  0  0  0
   11.7910  -16.2956   24.0288 N   0  0  0  0  0  0  0  0  0  0  0  0
   12.9746  -17.1870   23.9301 C   0  0  1  0  0  0  0  0  0  0  0  0
   14.0810  -16.4312   23.2783 C   0  0  0  0  0  0  0  0  0  0  0  0
   15.4056  -17.0950   23.3163 C   0  0  0  0  0  0  0  0  0  0  0  0
   16.5191  -16.3781   22.6824 C   0  0  0  0  0  0  0  0  0  0  0  0
   17.6575  -16.8910   22.4417 O   0  0  0  0  0  0  0  0  0  0  0  0
   13.1579  -17.7617   25.2409 C   0  0  0  0  0  0  0  0  0  0  0  0
   12.6834  -17.1822   26.2680 O   0  0  0  0  0  0  0  0  0  0  0  0
   16.3666  -15.0363   22.2921 O   0  0  0  0  0  0  0  0  0  0  0  0
   13.8247  -18.9418   25.4939 O   0  0  0  0  0  0  0  0  0  0  0  0
  2  1  1  1
  2  3  1  0
  4  2  1  0
  4  5  2  0
  6  4  1  0
  7  6  1  0
  7  8  1  1
  9  8  1  0
  9 10  2  0
 11 10  1  0
 12 11  1  0
 13 12  2  0
 14 13  1  0
 15 14  2  0
 15 16  1  0
 16 17  2  0
 17 12  1  0
 17  9  1  0
 18  7  1  0
 19 18  2  0
 20 18  1  0
 21 20  1  0
 21 22  1  1
 22 23  1  0
 24 23  1  0
 24 28  1  0
 25 24  2  0
 26 21  1  0
 26 29  1  0
 27 26  2  0
M  END
$$$$
