AWE.pdb
     RDKit          3D

 29 30  0  0  1  0  0  0  0  0999 V2000
    7.2186  -13.2958   20.0649 C   0  0  0  0  0  0  0  0  0  0  0  0
    7.7816  -14.7230   20.1362 C   0  0  2  0  0  0  0  0  0  0  0  0
    6.6166  -15.5827   20.2051 N   0  0  0  0  0  0  0  0  0  0  0  0
    8.5551  -14.8327   21.3701 C   0  0  0  0  0  0  0  0  0  0  0  0
    9.6185  -14.1765   21.5014 O   0  0  0  0  0  0  0  0  0  0  0  0
    8.1767  -15.6650   22.4867 N   0  0  0  0  0  0  0  0  0  0  0  0
    8.9664  -15.7856   23.6653 C   0  0  1  0  0  0  0  0  0  0  0  0
    8.2256  -16.0664   24.9127 C   0  0  0  0  0  0  0  0  0  0  0  0
    7.2420  -15.0443   25.3259 C   0  0  0  0  0  0  0  0  0  0  0  0
    5.8751  -15.1252   25.4293 C   0  0  0  0  0  0  0  0  0  0  0  0
    5.3681  -13.9403   25.8571 N   0  0  0  0  0  0  0  0  0  0  0  0
    6.3887  -13.0773   26.0377 C   0  0  0  0  0  0  0  0  0  0  0  0
    6.4218  -11.7626   26.4569 C   0  0  0  0  0  0  0  0  0  0  0  0
    7.6049  -11.0716   26.5677 C   0  0  0  0  0  0  0  0  0  0  0  0
    8.7644  -11.7377   26.2445 C   0  0  0  0  0  0  0  0  0  0  0  0
    8.7361  -13.0511   25.8251 C   0  0  0  0  0  0  0  0  0  0  0  0
    7.5422  -13.7492   25.7132 C   0  0  0  0  0  0  0  0  0  0  0  0
   10.1107  -16.7229   23.5124 C   0  0  0  0  0  0  0  0  0  0  0  0
    9.9678  -17.8414   22.9146 O   0  0  0  0  0  0  0  0  0  0  0  0
   11.3971  -16.4415   24.0079 N   0  0  0  0  0  0  0  0  0  0  0  0
   12.5643  -17.3313   23.7828 C   0  0  1  0  0  0  0  0  0  0  0  0
   13.6748  -16.5173   23.2130 C   0  0  0  0  0  0  0  0  0  0  0  0
   14.9557  -17.2397   23.0292 C   0  0  0  0  0  0  0  0  0  0  0  0
   16.0522  -16.4869   22.4073 C   0  0  0  0  0  0  0  0  0  0  0  0
   17.2515  -16.9019   22.3271 O   0  0  0  0  0  0  0  0  0  0  0  0
   12.7548  -18.0661   25.0100 C   0  0  0  0  0  0  0  0  0  0  0  0
   12.2722  -17.6287   26.1016 O   0  0  0  0  0  0  0  0  0  0  0  0
   15.8120  -15.2216   21.8441 O   0  0  0  0  0  0  0  0  0  0  0  0
   13.4372  -19.2600   25.1117 O   0  0  0  0  0  0  0  0  0  0  0  0
  2  1  1  1
  2  3  1  0
  4  2  1  0
  4  5  2  0
  6  4  1  0
  7  6  1  0
  7  8  1  1
  9  8  1  0
  9 10  2  0
 11 10  1  0
 12 11  1  0
 13 12  2  0
 14 13  1  0
 15 14  2  0
 15 16  1  0
 16 17  2  0
 17 12  1  0
 17  9  1  0
 18  7  1  0
 19 18  2  0
 20 18  1  0
 21 20  1  0
 21 22  1  1
 22 23  1  0
 24 23  1  0
 24 28  1  0
 25 24  2  0
 26 21  1  0
 26 29  1  0
 27 26  2  0
M  END
$$$$
