AWE.pdb
     RDKit          3D

 29 30  0  0  1  0  0  0  0  0999 V2000
    6.8833  -14.2831   20.3666 C   0  0  0  0  0  0  0  0  0  0  0  0
    7.6368  -15.6004   20.6026 C   0  0  2  0  0  0  0  0  0  0  0  0
    6.6189  -16.5456   21.0167 N   0  0  0  0  0  0  0  0  0  0  0  0
    8.5839  -15.3796   21.6922 C   0  0  0  0  0  0  0  0  0  0  0  0
    9.5580  -14.6038   21.5257 O   0  0  0  0  0  0  0  0  0  0  0  0
    8.4811  -16.0059   22.9883 N   0  0  0  0  0  0  0  0  0  0  0  0
    9.4382  -15.8057   24.0232 C   0  0  1  0  0  0  0  0  0  0  0  0
    8.9086  -15.8142   25.4027 C   0  0  0  0  0  0  0  0  0  0  0  0
    7.6899  -15.0114   25.6336 C   0  0  0  0  0  0  0  0  0  0  0  0
    6.3686  -15.3841   25.6055 C   0  0  0  0  0  0  0  0  0  0  0  0
    5.5763  -14.3174   25.8857 N   0  0  0  0  0  0  0  0  0  0  0  0
    6.3632  -13.2430   26.0992 C   0  0  0  0  0  0  0  0  0  0  0  0
    6.0686  -11.9321   26.4149 C   0  0  0  0  0  0  0  0  0  0  0  0
    7.0576  -10.9935   26.5890 C   0  0  0  0  0  0  0  0  0  0  0  0
    8.3613  -11.4060   26.4370 C   0  0  0  0  0  0  0  0  0  0  0  0
    8.6602  -12.7147   26.1215 C   0  0  0  0  0  0  0  0  0  0  0  0
    7.6623  -13.6626   25.9459 C   0  0  0  0  0  0  0  0  0  0  0  0
   10.6214  -16.6994   23.9101 C   0  0  0  0  0  0  0  0  0  0  0  0
   10.4819  -17.9479   23.6851 O   0  0  0  0  0  0  0  0  0  0  0  0
   11.9426  -16.2340   24.0419 N   0  0  0  0  0  0  0  0  0  0  0  0
   13.1310  -17.0849   23.7796 C   0  0  1  0  0  0  0  0  0  0  0  0
   14.1196  -16.2869   23.0009 C   0  0  0  0  0  0  0  0  0  0  0  0
   15.4172  -16.9589   22.7536 C   0  0  0  0  0  0  0  0  0  0  0  0
   16.4141  -16.2021   21.9860 C   0  0  0  0  0  0  0  0  0  0  0  0
   17.5215  -15.7921   22.4576 O   0  0  0  0  0  0  0  0  0  0  0  0
   13.5002  -17.6655   25.0479 C   0  0  0  0  0  0  0  0  0  0  0  0
   13.1537  -17.1057   26.1354 O   0  0  0  0  0  0  0  0  0  0  0  0
   16.1796  -15.8890   20.6359 O   0  0  0  0  0  0  0  0  0  0  0  0
   14.2214  -18.8312   25.1969 O   0  0  0  0  0  0  0  0  0  0  0  0
  2  1  1  1
  2  3  1  0
  4  2  1  0
  4  5  2  0
  6  4  1  0
  7  6  1  0
  7  8  1  1
  9  8  1  0
  9 10  2  0
 11 10  1  0
 12 11  1  0
 13 12  2  0
 14 13  1  0
 15 14  2  0
 15 16  1  0
 16 17  2  0
 17 12  1  0
 17  9  1  0
 18  7  1  0
 19 18  2  0
 20 18  1  0
 21 20  1  0
 21 22  1  1
 22 23  1  0
 24 23  1  0
 24 28  1  0
 25 24  2  0
 26 21  1  0
 26 29  1  0
 27 26  2  0
M  END
$$$$
