AWE.pdb
     RDKit          3D

 29 30  0  0  1  0  0  0  0  0999 V2000
    6.7405  -14.4680   20.3606 C   0  0  0  0  0  0  0  0  0  0  0  0
    7.5702  -15.7423   20.5763 C   0  0  2  0  0  0  0  0  0  0  0  0
    6.6050  -16.7614   20.9385 N   0  0  0  0  0  0  0  0  0  0  0  0
    8.4774  -15.4961   21.6940 C   0  0  0  0  0  0  0  0  0  0  0  0
    9.3875  -14.6371   21.5825 O   0  0  0  0  0  0  0  0  0  0  0  0
    8.4039  -16.1876   22.9586 N   0  0  0  0  0  0  0  0  0  0  0  0
    9.2909  -15.9206   24.0399 C   0  0  1  0  0  0  0  0  0  0  0  0
    8.6838  -15.9182   25.3872 C   0  0  0  0  0  0  0  0  0  0  0  0
    7.4725  -15.0880   25.5504 C   0  0  0  0  0  0  0  0  0  0  0  0
    6.1468  -15.4300   25.4449 C   0  0  0  0  0  0  0  0  0  0  0  0
    5.3643  -14.3459   25.6829 N   0  0  0  0  0  0  0  0  0  0  0  0
    6.1621  -13.2905   25.9452 C   0  0  0  0  0  0  0  0  0  0  0  0
    5.8799  -11.9738   26.2481 C   0  0  0  0  0  0  0  0  0  0  0  0
    6.8785  -11.0587   26.4822 C   0  0  0  0  0  0  0  0  0  0  0  0
    8.1789  -11.5009   26.4040 C   0  0  0  0  0  0  0  0  0  0  0  0
    8.4655  -12.8154   26.1016 C   0  0  0  0  0  0  0  0  0  0  0  0
    7.4579  -13.7396   25.8654 C   0  0  0  0  0  0  0  0  0  0  0  0
   10.5152  -16.7643   24.0178 C   0  0  0  0  0  0  0  0  0  0  0  0
   10.4420  -18.0222   23.8147 O   0  0  0  0  0  0  0  0  0  0  0  0
   11.8054  -16.2394   24.2159 N   0  0  0  0  0  0  0  0  0  0  0  0
   13.0432  -17.0334   24.0102 C   0  0  1  0  0  0  0  0  0  0  0  0
   14.0680  -16.1543   23.3798 C   0  0  0  0  0  0  0  0  0  0  0  0
   15.3798  -16.7962   23.1273 C   0  0  0  0  0  0  0  0  0  0  0  0
   16.4093  -15.9623   22.4946 C   0  0  0  0  0  0  0  0  0  0  0  0
   17.3273  -15.3525   23.1288 O   0  0  0  0  0  0  0  0  0  0  0  0
   13.3174  -17.6872   25.2670 C   0  0  0  0  0  0  0  0  0  0  0  0
   12.8487  -17.2168   26.3509 O   0  0  0  0  0  0  0  0  0  0  0  0
   16.4287  -15.7990   21.0986 O   0  0  0  0  0  0  0  0  0  0  0  0
   14.0697  -18.8342   25.4069 O   0  0  0  0  0  0  0  0  0  0  0  0
  2  1  1  1
  2  3  1  0
  4  2  1  0
  4  5  2  0
  6  4  1  0
  7  6  1  0
  7  8  1  1
  9  8  1  0
  9 10  2  0
 11 10  1  0
 12 11  1  0
 13 12  2  0
 14 13  1  0
 15 14  2  0
 15 16  1  0
 16 17  2  0
 17 12  1  0
 17  9  1  0
 18  7  1  0
 19 18  2  0
 20 18  1  0
 21 20  1  0
 21 22  1  1
 22 23  1  0
 24 23  1  0
 24 28  1  0
 25 24  2  0
 26 21  1  0
 26 29  1  0
 27 26  2  0
M  END
$$$$
