AWE.pdb
     RDKit          3D

 29 30  0  0  1  0  0  0  0  0999 V2000
    6.5518  -14.6669   20.7592 C   0  0  0  0  0  0  0  0  0  0  0  0
    7.3329  -15.9629   21.0220 C   0  0  2  0  0  0  0  0  0  0  0  0
    6.3565  -16.8853   21.5669 N   0  0  0  0  0  0  0  0  0  0  0  0
    8.3537  -15.6691   22.0243 C   0  0  0  0  0  0  0  0  0  0  0  0
    9.3275  -14.9329   21.7272 O   0  0  0  0  0  0  0  0  0  0  0  0
    8.3264  -16.1772   23.3748 N   0  0  0  0  0  0  0  0  0  0  0  0
    9.3533  -15.9090   24.3240 C   0  0  1  0  0  0  0  0  0  0  0  0
    8.8990  -15.5861   25.6925 C   0  0  0  0  0  0  0  0  0  0  0  0
    7.6193  -14.8545   25.7945 C   0  0  0  0  0  0  0  0  0  0  0  0
    6.3289  -15.3180   25.7208 C   0  0  0  0  0  0  0  0  0  0  0  0
    5.4540  -14.2911   25.8759 N   0  0  0  0  0  0  0  0  0  0  0  0
    6.1558  -13.1528   26.0518 C   0  0  0  0  0  0  0  0  0  0  0  0
    5.7588  -11.8460   26.2516 C   0  0  0  0  0  0  0  0  0  0  0  0
    6.6730  -10.8318   26.4098 C   0  0  0  0  0  0  0  0  0  0  0  0
    8.0073  -11.1636   26.3619 C   0  0  0  0  0  0  0  0  0  0  0  0
    8.4085  -12.4678   26.1624 C   0  0  0  0  0  0  0  0  0  0  0  0
    7.4861  -13.4920   26.0029 C   0  0  0  0  0  0  0  0  0  0  0  0
   10.4117  -16.9532   24.3553 C   0  0  0  0  0  0  0  0  0  0  0  0
   10.1159  -18.1828   24.5265 O   0  0  0  0  0  0  0  0  0  0  0  0
   11.7785  -16.6568   24.2018 N   0  0  0  0  0  0  0  0  0  0  0  0
   12.8400  -17.6949   24.2267 C   0  0  1  0  0  0  0  0  0  0  0  0
   13.9190  -17.2886   23.2828 C   0  0  0  0  0  0  0  0  0  0  0  0
   14.3501  -15.8746   23.3892 C   0  0  0  0  0  0  0  0  0  0  0  0
   15.4691  -15.4618   22.5331 C   0  0  0  0  0  0  0  0  0  0  0  0
   15.3368  -14.9724   21.3669 O   0  0  0  0  0  0  0  0  0  0  0  0
   13.1402  -17.9325   25.6180 C   0  0  0  0  0  0  0  0  0  0  0  0
   12.6775  -17.1604   26.5155 O   0  0  0  0  0  0  0  0  0  0  0  0
   16.7930  -15.5904   22.9875 O   0  0  0  0  0  0  0  0  0  0  0  0
   13.9125  -18.9740   26.0871 O   0  0  0  0  0  0  0  0  0  0  0  0
  2  1  1  1
  2  3  1  0
  4  2  1  0
  4  5  2  0
  6  4  1  0
  7  6  1  0
  7  8  1  1
  9  8  1  0
  9 10  2  0
 11 10  1  0
 12 11  1  0
 13 12  2  0
 14 13  1  0
 15 14  2  0
 15 16  1  0
 16 17  2  0
 17 12  1  0
 17  9  1  0
 18  7  1  0
 19 18  2  0
 20 18  1  0
 21 20  1  0
 21 22  1  6
 22 23  1  0
 24 23  1  0
 24 28  1  0
 25 24  2  0
 26 21  1  0
 26 29  1  0
 27 26  2  0
M  END
$$$$
