AWE.pdb
     RDKit          3D

 29 30  0  0  1  0  0  0  0  0999 V2000
    8.6749  -18.3180   19.8088 C   0  0  0  0  0  0  0  0  0  0  0  0
    8.1913  -16.9770   20.3803 C   0  0  2  0  0  0  0  0  0  0  0  0
    8.8113  -15.9677   19.5448 N   0  0  0  0  0  0  0  0  0  0  0  0
    8.6955  -16.8705   21.7468 C   0  0  0  0  0  0  0  0  0  0  0  0
    9.8842  -16.5169   21.9484 O   0  0  0  0  0  0  0  0  0  0  0  0
    7.9048  -17.1495   22.9214 N   0  0  0  0  0  0  0  0  0  0  0  0
    8.4228  -17.0545   24.2442 C   0  0  1  0  0  0  0  0  0  0  0  0
    7.4329  -16.7821   25.3070 C   0  0  0  0  0  0  0  0  0  0  0  0
    6.8525  -15.4234   25.3187 C   0  0  0  0  0  0  0  0  0  0  0  0
    5.6057  -14.9925   24.9375 C   0  0  0  0  0  0  0  0  0  0  0  0
    5.4969  -13.6520   25.1256 N   0  0  0  0  0  0  0  0  0  0  0  0
    6.6615  -13.1936   25.6282 C   0  0  0  0  0  0  0  0  0  0  0  0
    7.0737  -11.9282   25.9943 C   0  0  0  0  0  0  0  0  0  0  0  0
    8.3333  -11.6974   26.4937 C   0  0  0  0  0  0  0  0  0  0  0  0
    9.1772  -12.7769   26.6177 C   0  0  0  0  0  0  0  0  0  0  0  0
    8.7697  -14.0429   26.2532 C   0  0  0  0  0  0  0  0  0  0  0  0
    7.4982  -14.2765   25.7492 C   0  0  0  0  0  0  0  0  0  0  0  0
    9.2920  -18.2015   24.6186 C   0  0  0  0  0  0  0  0  0  0  0  0
    9.4056  -19.2164   23.8531 O   0  0  0  0  0  0  0  0  0  0  0  0
   10.0288  -18.2394   25.8165 N   0  0  0  0  0  0  0  0  0  0  0  0
   11.5015  -18.4256   25.8561 C   0  0  1  0  0  0  0  0  0  0  0  0
   12.1216  -17.4897   24.8763 C   0  0  0  0  0  0  0  0  0  0  0  0
   13.6033  -17.5003   24.8454 C   0  0  0  0  0  0  0  0  0  0  0  0
   14.2322  -17.7975   23.5525 C   0  0  0  0  0  0  0  0  0  0  0  0
   13.6939  -17.5670   22.4237 O   0  0  0  0  0  0  0  0  0  0  0  0
   11.8776  -18.3774   27.2484 C   0  0  0  0  0  0  0  0  0  0  0  0
   11.9515  -19.4474   27.9307 O   0  0  0  0  0  0  0  0  0  0  0  0
   15.5151  -18.3698   23.5041 O   0  0  0  0  0  0  0  0  0  0  0  0
   12.1871  -17.2242   27.9380 O   0  0  0  0  0  0  0  0  0  0  0  0
  2  1  1  6
  2  3  1  0
  4  2  1  0
  4  5  2  0
  6  4  1  0
  7  6  1  0
  7  8  1  1
  9  8  1  0
  9 10  2  0
 11 10  1  0
 12 11  1  0
 13 12  2  0
 14 13  1  0
 15 14  2  0
 15 16  1  0
 16 17  2  0
 17 12  1  0
 17  9  1  0
 18  7  1  0
 19 18  2  0
 20 18  1  0
 21 20  1  0
 21 22  1  6
 22 23  1  0
 24 23  1  0
 24 28  1  0
 25 24  2  0
 26 21  1  0
 26 29  1  0
 27 26  2  0
M  END
$$$$
