AWE.pdb
     RDKit          3D

 29 30  0  0  1  0  0  0  0  0999 V2000
    7.6863  -18.5064   19.2245 C   0  0  0  0  0  0  0  0  0  0  0  0
    7.8309  -16.9782   19.1714 C   0  0  2  0  0  0  0  0  0  0  0  0
    8.8305  -16.7314   18.1512 N   0  0  0  0  0  0  0  0  0  0  0  0
    8.3266  -16.5350   20.4717 C   0  0  0  0  0  0  0  0  0  0  0  0
    9.5533  -16.6119   20.7320 O   0  0  0  0  0  0  0  0  0  0  0  0
    7.4855  -15.9972   21.5138 N   0  0  0  0  0  0  0  0  0  0  0  0
    8.0025  -15.4680   22.7303 C   0  0  1  0  0  0  0  0  0  0  0  0
    7.0383  -14.7343   23.5763 C   0  0  0  0  0  0  0  0  0  0  0  0
    7.5133  -14.3599   24.9244 C   0  0  0  0  0  0  0  0  0  0  0  0
    8.3217  -15.0450   25.7976 C   0  0  0  0  0  0  0  0  0  0  0  0
    8.5080  -14.3186   26.9297 N   0  0  0  0  0  0  0  0  0  0  0  0
    7.8296  -13.1589   26.8116 C   0  0  0  0  0  0  0  0  0  0  0  0
    7.6881  -12.0822   27.6636 C   0  0  0  0  0  0  0  0  0  0  0  0
    6.9312  -10.9873   27.3208 C   0  0  0  0  0  0  0  0  0  0  0  0
    6.3140  -10.9990   26.0913 C   0  0  0  0  0  0  0  0  0  0  0  0
    6.4526  -12.0726   25.2369 C   0  0  0  0  0  0  0  0  0  0  0  0
    7.2166  -13.1781   25.5823 C   0  0  0  0  0  0  0  0  0  0  0  0
    8.7509  -16.4693   23.5356 C   0  0  0  0  0  0  0  0  0  0  0  0
    8.3500  -17.6783   23.6171 O   0  0  0  0  0  0  0  0  0  0  0  0
    9.9243  -16.1531   24.2444 N   0  0  0  0  0  0  0  0  0  0  0  0
   11.0852  -17.0740   24.3412 C   0  0  1  0  0  0  0  0  0  0  0  0
   12.1547  -16.5820   23.4277 C   0  0  0  0  0  0  0  0  0  0  0  0
   13.4524  -17.2894   23.5379 C   0  0  0  0  0  0  0  0  0  0  0  0
   13.6896  -18.3810   22.5851 C   0  0  0  0  0  0  0  0  0  0  0  0
   12.8791  -18.7181   21.6651 O   0  0  0  0  0  0  0  0  0  0  0  0
   11.3505  -17.2431   25.7495 C   0  0  0  0  0  0  0  0  0  0  0  0
   11.8594  -18.3249   26.1814 O   0  0  0  0  0  0  0  0  0  0  0  0
   14.8773  -19.1301   22.6481 O   0  0  0  0  0  0  0  0  0  0  0  0
   11.0990  -16.2914   26.7150 O   0  0  0  0  0  0  0  0  0  0  0  0
  2  1  1  1
  2  3  1  0
  4  2  1  0
  4  5  2  0
  6  4  1  0
  7  6  1  0
  7  8  1  1
  9  8  1  0
  9 10  2  0
 11 10  1  0
 12 11  1  0
 13 12  2  0
 14 13  1  0
 15 14  2  0
 15 16  1  0
 16 17  2  0
 17 12  1  0
 17  9  1  0
 18  7  1  0
 19 18  2  0
 20 18  1  0
 21 20  1  0
 21 22  1  6
 22 23  1  0
 24 23  1  0
 24 28  1  0
 25 24  2  0
 26 21  1  0
 26 29  1  0
 27 26  2  0
M  END
$$$$
