AWE.pdb
     RDKit          3D

 29 30  0  0  1  0  0  0  0  0999 V2000
    7.4872  -17.1417   20.1161 C   0  0  0  0  0  0  0  0  0  0  0  0
    7.2184  -15.8200   20.8507 C   0  0  2  0  0  0  0  0  0  0  0  0
    7.3933  -14.7902   19.8457 N   0  0  0  0  0  0  0  0  0  0  0  0
    8.2331  -15.6776   21.8913 C   0  0  0  0  0  0  0  0  0  0  0  0
    9.3363  -15.1415   21.6191 O   0  0  0  0  0  0  0  0  0  0  0  0
    8.0576  -16.1204   23.2536 N   0  0  0  0  0  0  0  0  0  0  0  0
    9.0726  -15.9979   24.2446 C   0  0  1  0  0  0  0  0  0  0  0  0
    8.6011  -15.7811   25.6281 C   0  0  0  0  0  0  0  0  0  0  0  0
    7.4587  -14.8575   25.7858 C   0  0  0  0  0  0  0  0  0  0  0  0
    6.1106  -15.1173   25.8147 C   0  0  0  0  0  0  0  0  0  0  0  0
    5.4161  -13.9633   25.9876 N   0  0  0  0  0  0  0  0  0  0  0  0
    6.2941  -12.9431   26.0737 C   0  0  0  0  0  0  0  0  0  0  0  0
    6.1164  -11.5856   26.2492 C   0  0  0  0  0  0  0  0  0  0  0  0
    7.1836  -10.7214   26.3083 C   0  0  0  0  0  0  0  0  0  0  0  0
    8.4449  -11.2571   26.1857 C   0  0  0  0  0  0  0  0  0  0  0  0
    8.6270  -12.6127   26.0101 C   0  0  0  0  0  0  0  0  0  0  0  0
    7.5502  -13.4856   25.9505 C   0  0  0  0  0  0  0  0  0  0  0  0
   10.0748  -17.0956   24.1979 C   0  0  0  0  0  0  0  0  0  0  0  0
    9.7291  -18.2880   23.9021 O   0  0  0  0  0  0  0  0  0  0  0  0
   11.4398  -16.8926   24.4720 N   0  0  0  0  0  0  0  0  0  0  0  0
   12.4392  -17.9908   24.4654 C   0  0  1  0  0  0  0  0  0  0  0  0
   13.5324  -17.6278   23.5201 C   0  0  0  0  0  0  0  0  0  0  0  0
   14.3777  -16.4861   23.9426 C   0  0  0  0  0  0  0  0  0  0  0  0
   15.5290  -16.1686   23.0887 C   0  0  0  0  0  0  0  0  0  0  0  0
   16.5956  -16.8590   23.0376 O   0  0  0  0  0  0  0  0  0  0  0  0
   12.7362  -18.2751   25.8486 C   0  0  0  0  0  0  0  0  0  0  0  0
   12.1788  -17.6070   26.7753 O   0  0  0  0  0  0  0  0  0  0  0  0
   15.4986  -15.0412   22.2498 O   0  0  0  0  0  0  0  0  0  0  0  0
   13.6037  -19.2567   26.2789 O   0  0  0  0  0  0  0  0  0  0  0  0
  2  1  1  6
  2  3  1  0
  4  2  1  0
  4  5  2  0
  6  4  1  0
  7  6  1  0
  7  8  1  1
  9  8  1  0
  9 10  2  0
 11 10  1  0
 12 11  1  0
 13 12  2  0
 14 13  1  0
 15 14  2  0
 15 16  1  0
 16 17  2  0
 17 12  1  0
 17  9  1  0
 18  7  1  0
 19 18  2  0
 20 18  1  0
 21 20  1  0
 21 22  1  6
 22 23  1  0
 24 23  1  0
 24 28  1  0
 25 24  2  0
 26 21  1  0
 26 29  1  0
 27 26  2  0
M  END
$$$$
