AWE.pdb
     RDKit          3D

 29 30  0  0  1  0  0  0  0  0999 V2000
    7.0714  -13.6191   20.4791 C   0  0  0  0  0  0  0  0  0  0  0  0
    7.7830  -14.9791   20.5335 C   0  0  2  0  0  0  0  0  0  0  0  0
    6.7196  -15.9533   20.6784 N   0  0  0  0  0  0  0  0  0  0  0  0
    8.6314  -14.9876   21.7222 C   0  0  0  0  0  0  0  0  0  0  0  0
    9.6240  -14.2201   21.7869 O   0  0  0  0  0  0  0  0  0  0  0  0
    8.4073  -15.8390   22.8658 N   0  0  0  0  0  0  0  0  0  0  0  0
    9.2445  -15.8251   24.0174 C   0  0  1  0  0  0  0  0  0  0  0  0
    8.5594  -15.9961   25.3154 C   0  0  0  0  0  0  0  0  0  0  0  0
    7.4097  -15.1019   25.5638 C   0  0  0  0  0  0  0  0  0  0  0  0
    6.0622  -15.3535   25.4849 C   0  0  0  0  0  0  0  0  0  0  0  0
    5.3589  -14.2374   25.8072 N   0  0  0  0  0  0  0  0  0  0  0  0
    6.2307  -13.2505   26.0988 C   0  0  0  0  0  0  0  0  0  0  0  0
    6.0433  -11.9376   26.4815 C   0  0  0  0  0  0  0  0  0  0  0  0
    7.1056  -11.1016   26.7307 C   0  0  0  0  0  0  0  0  0  0  0  0
    8.3718  -11.6195   26.5851 C   0  0  0  0  0  0  0  0  0  0  0  0
    8.5636  -12.9305   26.2028 C   0  0  0  0  0  0  0  0  0  0  0  0
    7.4918  -13.7750   25.9513 C   0  0  0  0  0  0  0  0  0  0  0  0
   10.4052  -16.7486   23.9112 C   0  0  0  0  0  0  0  0  0  0  0  0
   10.2403  -17.9786   23.6132 O   0  0  0  0  0  0  0  0  0  0  0  0
   11.7315  -16.3328   24.1287 N   0  0  0  0  0  0  0  0  0  0  0  0
   12.8965  -17.2458   24.0091 C   0  0  1  0  0  0  0  0  0  0  0  0
   14.0623  -16.4604   23.5147 C   0  0  0  0  0  0  0  0  0  0  0  0
   15.3284  -17.2210   23.3925 C   0  0  0  0  0  0  0  0  0  0  0  0
   16.4883  -16.4879   22.8702 C   0  0  0  0  0  0  0  0  0  0  0  0
   17.6307  -17.0069   22.6637 O   0  0  0  0  0  0  0  0  0  0  0  0
   12.9780  -17.9628   25.2587 C   0  0  0  0  0  0  0  0  0  0  0  0
   12.5280  -17.4426   26.3278 O   0  0  0  0  0  0  0  0  0  0  0  0
   16.3801  -15.1219   22.5569 O   0  0  0  0  0  0  0  0  0  0  0  0
   13.5168  -19.2234   25.4063 O   0  0  0  0  0  0  0  0  0  0  0  0
  2  1  1  1
  2  3  1  0
  4  2  1  0
  4  5  2  0
  6  4  1  0
  7  6  1  0
  7  8  1  1
  9  8  1  0
  9 10  2  0
 11 10  1  0
 12 11  1  0
 13 12  2  0
 14 13  1  0
 15 14  2  0
 15 16  1  0
 16 17  2  0
 17 12  1  0
 17  9  1  0
 18  7  1  0
 19 18  2  0
 20 18  1  0
 21 20  1  0
 21 22  1  1
 22 23  1  0
 24 23  1  0
 24 28  1  0
 25 24  2  0
 26 21  1  0
 26 29  1  0
 27 26  2  0
M  END
$$$$
