GIQ.pdb
     RDKit          3D

 22 21  0  0  1  0  0  0  0  0999 V2000
    4.7685  -17.9787   22.3942 N   0  0  0  0  0  0  0  0  0  0  0  0
    5.1771  -17.7112   23.7532 C   0  0  0  0  0  0  0  0  0  0  0  0
    6.2127  -16.6265   23.7773 C   0  0  0  0  0  0  0  0  0  0  0  0
    6.9487  -16.4555   22.7836 O   0  0  0  0  0  0  0  0  0  0  0  0
    5.2463  -12.2828   26.8248 C   0  0  0  0  0  0  0  0  0  0  0  0
    5.8347  -13.1613   25.7689 C   0  0  0  0  0  0  0  0  0  0  0  0
    7.0572  -13.9373   26.2084 C   0  0  2  0  0  0  0  0  0  0  0  0
    8.1427  -12.9419   26.6062 C   0  0  0  0  0  0  0  0  0  0  0  0
    7.4636  -14.8281   25.0649 C   0  0  2  0  0  0  0  0  0  0  0  0
    6.3656  -15.7916   24.9178 N   0  0  0  0  0  0  0  0  0  0  0  0
    8.7455  -15.5392   25.2733 C   0  0  0  0  0  0  0  0  0  0  0  0
    8.7509  -16.5117   26.1040 O   0  0  0  0  0  0  0  0  0  0  0  0
   14.0470  -14.9832   21.5122 N   0  0  0  0  0  0  0  0  0  0  0  0
   14.3551  -16.0532   22.4639 C   0  0  0  0  0  0  0  0  0  0  0  0
   15.5341  -16.4466   22.3611 O   0  0  0  0  0  0  0  0  0  0  0  0
   13.3223  -16.5271   23.3766 C   0  0  0  0  0  0  0  0  0  0  0  0
   12.0785  -15.7707   23.5759 C   0  0  0  0  0  0  0  0  0  0  0  0
   11.0822  -16.2167   24.5655 C   0  0  2  0  0  0  0  0  0  0  0  0
    9.9603  -15.2707   24.6620 N   0  0  0  0  0  0  0  0  0  0  0  0
   11.6746  -16.4206   25.9037 C   0  0  0  0  0  0  0  0  0  0  0  0
   12.2827  -17.5785   26.3250 O   0  0  0  0  0  0  0  0  0  0  0  0
   11.6280  -15.4539   26.7525 O   0  0  0  0  0  0  0  0  0  0  0  0
  2  3  1  0
  2  1  1  0
  3  4  2  0
  5  6  1  0
  6  7  1  0
  7  9  1  0
  7  8  1  6
  9 11  1  0
  9 10  1  1
 10  3  1  0
 11 12  2  0
 11 19  1  0
 14 13  1  0
 14 16  1  0
 15 14  2  0
 17 16  1  0
 18 17  1  6
 18 20  1  0
 19 18  1  0
 20 22  2  0
 20 21  1  0
M  END
$$$$
