GIQ.pdb
     RDKit          3D

 22 21  0  0  1  0  0  0  0  0999 V2000
    6.6660  -14.9367   20.3926 N   0  0  0  0  0  0  0  0  0  0  0  0
    6.1589  -15.0053   21.7430 C   0  0  0  0  0  0  0  0  0  0  0  0
    7.2615  -14.7352   22.7232 C   0  0  0  0  0  0  0  0  0  0  0  0
    8.4481  -14.9170   22.3809 O   0  0  0  0  0  0  0  0  0  0  0  0
    6.2917  -11.0825   26.4614 C   0  0  0  0  0  0  0  0  0  0  0  0
    7.0106  -12.0254   25.5519 C   0  0  0  0  0  0  0  0  0  0  0  0
    7.3601  -13.3576   26.1789 C   0  0  2  0  0  0  0  0  0  0  0  0
    8.2986  -13.1054   27.3548 C   0  0  0  0  0  0  0  0  0  0  0  0
    7.9753  -14.2156   25.1059 C   0  0  2  0  0  0  0  0  0  0  0  0
    6.9711  -14.2750   24.0366 N   0  0  0  0  0  0  0  0  0  0  0  0
    8.3330  -15.5822   25.5501 C   0  0  0  0  0  0  0  0  0  0  0  0
    7.3812  -16.3423   25.9402 O   0  0  0  0  0  0  0  0  0  0  0  0
   12.0500  -17.9557   22.3516 N   0  0  0  0  0  0  0  0  0  0  0  0
   12.7404  -17.3129   23.4723 C   0  0  0  0  0  0  0  0  0  0  0  0
   13.7893  -16.7427   23.1116 O   0  0  0  0  0  0  0  0  0  0  0  0
   12.1754  -17.3985   24.8131 C   0  0  0  0  0  0  0  0  0  0  0  0
   10.9189  -18.1178   25.0641 C   0  0  0  0  0  0  0  0  0  0  0  0
    9.8903  -17.5409   25.9474 C   0  0  2  0  0  0  0  0  0  0  0  0
    9.5996  -16.1437   25.5920 N   0  0  0  0  0  0  0  0  0  0  0  0
   10.2681  -17.6208   27.3736 C   0  0  0  0  0  0  0  0  0  0  0  0
   10.5115  -18.7877   28.0572 O   0  0  0  0  0  0  0  0  0  0  0  0
   10.3831  -16.5274   28.0432 O   0  0  0  0  0  0  0  0  0  0  0  0
  2  3  1  0
  2  1  1  0
  3  4  2  0
  5  6  1  0
  6  7  1  0
  7  9  1  0
  7  8  1  1
  9 11  1  0
  9 10  1  6
 10  3  1  0
 11 12  2  0
 11 19  1  0
 14 13  1  0
 14 16  1  0
 15 14  2  0
 17 16  1  0
 18 17  1  6
 18 20  1  0
 19 18  1  0
 20 22  2  0
 20 21  1  0
M  END
$$$$
