GIQ.pdb
     RDKit          3D

 22 21  0  0  1  0  0  0  0  0999 V2000
    5.5851  -16.7377   21.1192 N   0  0  0  0  0  0  0  0  0  0  0  0
    5.4328  -16.1465   22.4279 C   0  0  0  0  0  0  0  0  0  0  0  0
    6.7642  -15.6916   22.9474 C   0  0  0  0  0  0  0  0  0  0  0  0
    7.8053  -16.0104   22.3367 O   0  0  0  0  0  0  0  0  0  0  0  0
    6.5131  -12.2754   27.3580 C   0  0  0  0  0  0  0  0  0  0  0  0
    6.7833  -13.4255   26.4430 C   0  0  0  0  0  0  0  0  0  0  0  0
    7.8243  -13.1500   25.3799 C   0  0  2  0  0  0  0  0  0  0  0  0
    7.2733  -12.0925   24.4283 C   0  0  0  0  0  0  0  0  0  0  0  0
    8.1313  -14.4561   24.6972 C   0  0  2  0  0  0  0  0  0  0  0  0
    6.8543  -14.9021   24.1263 N   0  0  0  0  0  0  0  0  0  0  0  0
    8.6834  -15.4966   25.5943 C   0  0  0  0  0  0  0  0  0  0  0  0
    7.8493  -16.2233   26.2363 O   0  0  0  0  0  0  0  0  0  0  0  0
   13.8976  -20.5749   24.5187 N   0  0  0  0  0  0  0  0  0  0  0  0
   13.2320  -19.2830   24.3353 C   0  0  0  0  0  0  0  0  0  0  0  0
   13.5911  -18.7159   23.2842 O   0  0  0  0  0  0  0  0  0  0  0  0
   12.2800  -18.8132   25.3339 C   0  0  0  0  0  0  0  0  0  0  0  0
   11.5697  -17.5378   25.1663 C   0  0  0  0  0  0  0  0  0  0  0  0
   10.5557  -17.1120   26.1468 C   0  0  2  0  0  0  0  0  0  0  0  0
   10.0208  -15.7809   25.8225 N   0  0  0  0  0  0  0  0  0  0  0  0
   11.0782  -17.1125   27.5289 C   0  0  0  0  0  0  0  0  0  0  0  0
   11.2372  -15.9924   28.3086 O   0  0  0  0  0  0  0  0  0  0  0  0
   11.4151  -18.2355   28.0603 O   0  0  0  0  0  0  0  0  0  0  0  0
  2  3  1  0
  2  1  1  0
  3  4  2  0
  5  6  1  0
  6  7  1  0
  7  9  1  0
  7  8  1  6
  9 11  1  0
  9 10  1  1
 10  3  1  0
 11 12  2  0
 11 19  1  0
 14 13  1  0
 14 16  1  0
 15 14  2  0
 17 16  1  0
 18 17  1  6
 18 20  1  0
 19 18  1  0
 20 22  2  0
 20 21  1  0
M  END
$$$$
