GIQ.pdb
     RDKit          3D

 22 21  0  0  1  0  0  0  0  0999 V2000
   10.6339  -18.0978   17.4569 N   0  0  0  0  0  0  0  0  0  0  0  0
    9.4413  -17.8321   18.2267 C   0  0  0  0  0  0  0  0  0  0  0  0
    9.7663  -16.9488   19.3944 C   0  0  0  0  0  0  0  0  0  0  0  0
   10.9296  -16.9291   19.8469 O   0  0  0  0  0  0  0  0  0  0  0  0
    6.8480  -12.5001   19.8762 C   0  0  0  0  0  0  0  0  0  0  0  0
    7.9591  -13.4877   20.0279 C   0  0  0  0  0  0  0  0  0  0  0  0
    7.8591  -14.3596   21.2607 C   0  0  2  0  0  0  0  0  0  0  0  0
    7.9036  -13.4602   22.4921 C   0  0  0  0  0  0  0  0  0  0  0  0
    8.9937  -15.3477   21.2100 C   0  0  2  0  0  0  0  0  0  0  0  0
    8.7657  -16.1342   19.9915 N   0  0  0  0  0  0  0  0  0  0  0  0
    9.0766  -16.2401   22.3886 C   0  0  0  0  0  0  0  0  0  0  0  0
    8.0874  -17.0212   22.6062 O   0  0  0  0  0  0  0  0  0  0  0  0
   13.1190  -20.5721   23.5912 N   0  0  0  0  0  0  0  0  0  0  0  0
   13.5449  -19.1711   23.5511 C   0  0  0  0  0  0  0  0  0  0  0  0
   14.7405  -19.0543   23.2160 O   0  0  0  0  0  0  0  0  0  0  0  0
   12.5954  -18.1180   23.8880 C   0  0  0  0  0  0  0  0  0  0  0  0
   11.1608  -18.4039   24.0273 C   0  0  0  0  0  0  0  0  0  0  0  0
   10.2142  -17.3292   24.3735 C   0  0  2  0  0  0  0  0  0  0  0  0
   10.1188  -16.3305   23.2981 N   0  0  0  0  0  0  0  0  0  0  0  0
   10.5675  -16.6588   25.6420 C   0  0  0  0  0  0  0  0  0  0  0  0
   10.6233  -17.2770   26.8678 O   0  0  0  0  0  0  0  0  0  0  0  0
   10.8473  -15.4025   25.6183 O   0  0  0  0  0  0  0  0  0  0  0  0
  2  3  1  0
  2  1  1  0
  3  4  2  0
  5  6  1  0
  6  7  1  0
  7  9  1  0
  7  8  1  1
  9 11  1  0
  9 10  1  6
 10  3  1  0
 11 12  2  0
 11 19  1  0
 14 13  1  0
 14 16  1  0
 15 14  2  0
 17 16  1  0
 18 17  1  6
 18 20  1  0
 19 18  1  0
 20 22  2  0
 20 21  1  0
M  END
$$$$
