GIQ.pdb
     RDKit          3D

 22 21  0  0  1  0  0  0  0  0999 V2000
    7.1710  -14.5267   20.1135 N   0  0  0  0  0  0  0  0  0  0  0  0
    6.4701  -14.7068   21.3631 C   0  0  0  0  0  0  0  0  0  0  0  0
    7.4092  -14.5079   22.5155 C   0  0  0  0  0  0  0  0  0  0  0  0
    8.6344  -14.6797   22.3483 O   0  0  0  0  0  0  0  0  0  0  0  0
    5.8319  -11.0758   26.2944 C   0  0  0  0  0  0  0  0  0  0  0  0
    6.6674  -11.9582   25.4247 C   0  0  0  0  0  0  0  0  0  0  0  0
    6.9659  -13.3192   26.0150 C   0  0  2  0  0  0  0  0  0  0  0  0
    7.7099  -13.1208   27.3319 C   0  0  0  0  0  0  0  0  0  0  0  0
    7.7633  -14.0896   24.9967 C   0  0  2  0  0  0  0  0  0  0  0  0
    6.9208  -14.1265   23.7950 N   0  0  0  0  0  0  0  0  0  0  0  0
    8.1193  -15.4644   25.4159 C   0  0  0  0  0  0  0  0  0  0  0  0
    7.1588  -16.2785   25.6406 O   0  0  0  0  0  0  0  0  0  0  0  0
   12.3344  -19.2519   22.8871 N   0  0  0  0  0  0  0  0  0  0  0  0
   12.6778  -17.9491   23.4620 C   0  0  0  0  0  0  0  0  0  0  0  0
   13.7211  -17.4786   22.9664 O   0  0  0  0  0  0  0  0  0  0  0  0
   11.8266  -17.3677   24.4923 C   0  0  0  0  0  0  0  0  0  0  0  0
   10.5502  -17.9925   24.8658 C   0  0  0  0  0  0  0  0  0  0  0  0
    9.6962  -17.3870   25.9026 C   0  0  2  0  0  0  0  0  0  0  0  0
    9.3930  -15.9812   25.5950 N   0  0  0  0  0  0  0  0  0  0  0  0
   10.2979  -17.4808   27.2489 C   0  0  0  0  0  0  0  0  0  0  0  0
   10.6217  -16.4057   28.0408 O   0  0  0  0  0  0  0  0  0  0  0  0
   10.5447  -18.6473   27.7340 O   0  0  0  0  0  0  0  0  0  0  0  0
  2  3  1  0
  2  1  1  0
  3  4  2  0
  5  6  1  0
  6  7  1  0
  7  9  1  0
  7  8  1  1
  9 11  1  0
  9 10  1  6
 10  3  1  0
 11 12  2  0
 11 19  1  0
 14 13  1  0
 14 16  1  0
 15 14  2  0
 17 16  1  0
 18 17  1  6
 18 20  1  0
 19 18  1  0
 20 22  2  0
 20 21  1  0
M  END
$$$$
