GIQ.pdb
     RDKit          3D

 22 21  0  0  1  0  0  0  0  0999 V2000
    7.4115  -15.1170   19.7970 N   0  0  0  0  0  0  0  0  0  0  0  0
    6.7572  -15.3689   21.0595 C   0  0  0  0  0  0  0  0  0  0  0  0
    7.6211  -14.8991   22.1919 C   0  0  0  0  0  0  0  0  0  0  0  0
    8.8608  -14.8662   22.0482 O   0  0  0  0  0  0  0  0  0  0  0  0
    6.9154  -11.7713   27.4734 C   0  0  0  0  0  0  0  0  0  0  0  0
    7.7141  -12.5918   26.5133 C   0  0  0  0  0  0  0  0  0  0  0  0
    6.8907  -13.3105   25.4667 C   0  0  2  0  0  0  0  0  0  0  0  0
    5.8869  -14.2120   26.1786 C   0  0  0  0  0  0  0  0  0  0  0  0
    7.8441  -14.0705   24.5836 C   0  0  2  0  0  0  0  0  0  0  0  0
    7.0452  -14.4912   23.4260 N   0  0  0  0  0  0  0  0  0  0  0  0
    8.4673  -15.2470   25.2316 C   0  0  0  0  0  0  0  0  0  0  0  0
    7.7164  -16.2548   25.4690 O   0  0  0  0  0  0  0  0  0  0  0  0
   13.5998  -18.0342   22.5861 N   0  0  0  0  0  0  0  0  0  0  0  0
   13.2650  -16.9158   23.4709 C   0  0  0  0  0  0  0  0  0  0  0  0
   14.2240  -16.1324   23.6192 O   0  0  0  0  0  0  0  0  0  0  0  0
   11.9333  -16.8329   24.0574 C   0  0  0  0  0  0  0  0  0  0  0  0
   11.7428  -16.8357   25.5144 C   0  0  0  0  0  0  0  0  0  0  0  0
   10.4029  -16.6362   26.0939 C   0  0  2  0  0  0  0  0  0  0  0  0
    9.7918  -15.3868   25.6160 N   0  0  0  0  0  0  0  0  0  0  0  0
   10.4250  -16.6433   27.5713 C   0  0  0  0  0  0  0  0  0  0  0  0
   10.7056  -17.7421   28.3471 O   0  0  0  0  0  0  0  0  0  0  0  0
   10.1649  -15.5488   28.1971 O   0  0  0  0  0  0  0  0  0  0  0  0
  2  3  1  0
  2  1  1  0
  3  4  2  0
  5  6  1  0
  6  7  1  0
  7  9  1  0
  7  8  1  1
  9 11  1  0
  9 10  1  6
 10  3  1  0
 11 12  2  0
 11 19  1  0
 14 13  1  0
 14 16  1  0
 15 14  2  0
 17 16  1  0
 18 17  1  6
 18 20  1  0
 19 18  1  0
 20 22  2  0
 20 21  1  0
M  END
$$$$
