GIQ.pdb
     RDKit          3D

 22 21  0  0  1  0  0  0  0  0999 V2000
    4.3556  -17.9164   23.0619 N   0  0  0  0  0  0  0  0  0  0  0  0
    4.8036  -17.4583   24.3560 C   0  0  0  0  0  0  0  0  0  0  0  0
    6.0020  -16.5694   24.2030 C   0  0  0  0  0  0  0  0  0  0  0  0
    6.7129  -16.6646   23.1813 O   0  0  0  0  0  0  0  0  0  0  0  0
    6.0133  -11.7683   26.6186 C   0  0  0  0  0  0  0  0  0  0  0  0
    6.4050  -12.8767   25.6960 C   0  0  0  0  0  0  0  0  0  0  0  0
    7.4492  -13.8184   26.2550 C   0  0  2  0  0  0  0  0  0  0  0  0
    8.7275  -13.0253   26.5082 C   0  0  0  0  0  0  0  0  0  0  0  0
    7.6333  -14.9329   25.2599 C   0  0  2  0  0  0  0  0  0  0  0  0
    6.3373  -15.6206   25.2071 N   0  0  0  0  0  0  0  0  0  0  0  0
    8.7078  -15.8897   25.6097 C   0  0  0  0  0  0  0  0  0  0  0  0
    8.5035  -16.6660   26.6054 O   0  0  0  0  0  0  0  0  0  0  0  0
   14.9179  -19.3003   22.9456 N   0  0  0  0  0  0  0  0  0  0  0  0
   13.8619  -18.2857   22.9147 C   0  0  0  0  0  0  0  0  0  0  0  0
   14.0053  -17.4888   21.9662 O   0  0  0  0  0  0  0  0  0  0  0  0
   12.8162  -18.3008   23.9300 C   0  0  0  0  0  0  0  0  0  0  0  0
   11.7664  -17.2731   23.9555 C   0  0  0  0  0  0  0  0  0  0  0  0
   10.7618  -17.2567   25.0332 C   0  0  2  0  0  0  0  0  0  0  0  0
    9.9290  -16.0461   24.9726 N   0  0  0  0  0  0  0  0  0  0  0  0
   11.3756  -17.3691   26.3726 C   0  0  0  0  0  0  0  0  0  0  0  0
   11.5673  -16.3201   27.2391 O   0  0  0  0  0  0  0  0  0  0  0  0
   11.7662  -18.5273   26.7766 O   0  0  0  0  0  0  0  0  0  0  0  0
  2  3  1  0
  2  1  1  0
  3  4  2  0
  5  6  1  0
  6  7  1  0
  7  9  1  0
  7  8  1  6
  9 11  1  0
  9 10  1  1
 10  3  1  0
 11 12  2  0
 11 19  1  0
 14 13  1  0
 14 16  1  0
 15 14  2  0
 17 16  1  0
 18 17  1  6
 18 20  1  0
 19 18  1  0
 20 22  2  0
 20 21  1  0
M  END
$$$$
