GIQ.pdb
     RDKit          3D

 22 21  0  0  1  0  0  0  0  0999 V2000
    5.7675  -16.3313   20.9023 N   0  0  0  0  0  0  0  0  0  0  0  0
    5.5984  -16.2794   22.3355 C   0  0  0  0  0  0  0  0  0  0  0  0
    6.7804  -15.6100   22.9712 C   0  0  0  0  0  0  0  0  0  0  0  0
    7.8806  -15.6125   22.3812 O   0  0  0  0  0  0  0  0  0  0  0  0
    5.8327  -11.6312   26.4189 C   0  0  0  0  0  0  0  0  0  0  0  0
    6.5486  -12.5400   25.4730 C   0  0  0  0  0  0  0  0  0  0  0  0
    7.2600  -13.6999   26.1352 C   0  0  2  0  0  0  0  0  0  0  0  0
    8.3321  -13.1403   27.0651 C   0  0  0  0  0  0  0  0  0  0  0  0
    7.8216  -14.5701   25.0428 C   0  0  2  0  0  0  0  0  0  0  0  0
    6.6626  -14.9732   24.2368 N   0  0  0  0  0  0  0  0  0  0  0  0
    8.5483  -15.7648   25.5295 C   0  0  0  0  0  0  0  0  0  0  0  0
    7.8680  -16.6594   26.1400 O   0  0  0  0  0  0  0  0  0  0  0  0
   12.6775  -18.7576   22.0195 N   0  0  0  0  0  0  0  0  0  0  0  0
   12.8567  -19.4464   23.2997 C   0  0  0  0  0  0  0  0  0  0  0  0
   13.6412  -20.4115   23.2068 O   0  0  0  0  0  0  0  0  0  0  0  0
   12.1456  -18.9724   24.4803 C   0  0  0  0  0  0  0  0  0  0  0  0
   11.3226  -17.7560   24.4347 C   0  0  0  0  0  0  0  0  0  0  0  0
   10.5250  -17.3482   25.6045 C   0  0  2  0  0  0  0  0  0  0  0  0
    9.9021  -16.0322   25.3975 N   0  0  0  0  0  0  0  0  0  0  0  0
   11.3238  -17.3281   26.8474 C   0  0  0  0  0  0  0  0  0  0  0  0
   11.7210  -18.4440   27.5437 O   0  0  0  0  0  0  0  0  0  0  0  0
   11.6846  -16.1905   27.3301 O   0  0  0  0  0  0  0  0  0  0  0  0
  2  3  1  0
  2  1  1  0
  3  4  2  0
  5  6  1  0
  6  7  1  0
  7  9  1  0
  7  8  1  1
  9 11  1  0
  9 10  1  6
 10  3  1  0
 11 12  2  0
 11 19  1  0
 14 13  1  0
 14 16  1  0
 15 14  2  0
 17 16  1  0
 18 17  1  6
 18 20  1  0
 19 18  1  0
 20 22  2  0
 20 21  1  0
M  END
$$$$
