GIQ.pdb
     RDKit          3D

 22 21  0  0  1  0  0  0  0  0999 V2000
   10.8190  -17.7420   16.9198 N   0  0  0  0  0  0  0  0  0  0  0  0
    9.6837  -17.5609   17.7937 C   0  0  0  0  0  0  0  0  0  0  0  0
   10.0366  -16.6260   18.9122 C   0  0  0  0  0  0  0  0  0  0  0  0
   11.2362  -16.4362   19.2009 O   0  0  0  0  0  0  0  0  0  0  0  0
    6.6855  -12.5399   19.7248 C   0  0  0  0  0  0  0  0  0  0  0  0
    7.9354  -13.3582   19.7615 C   0  0  0  0  0  0  0  0  0  0  0  0
    8.0647  -14.2514   20.9761 C   0  0  2  0  0  0  0  0  0  0  0  0
    8.1124  -13.3697   22.2201 C   0  0  0  0  0  0  0  0  0  0  0  0
    9.3052  -15.0849   20.7955 C   0  0  2  0  0  0  0  0  0  0  0  0
    9.0217  -15.9541   19.6467 N   0  0  0  0  0  0  0  0  0  0  0  0
    9.6687  -15.8993   21.9775 C   0  0  0  0  0  0  0  0  0  0  0  0
    8.9045  -16.8813   22.2732 O   0  0  0  0  0  0  0  0  0  0  0  0
   14.9365  -15.4736   22.8577 N   0  0  0  0  0  0  0  0  0  0  0  0
   14.7465  -16.9130   23.0518 C   0  0  0  0  0  0  0  0  0  0  0  0
   15.6770  -17.5795   22.5565 O   0  0  0  0  0  0  0  0  0  0  0  0
   13.5651  -17.3970   23.7548 C   0  0  0  0  0  0  0  0  0  0  0  0
   12.5552  -16.4651   24.2753 C   0  0  0  0  0  0  0  0  0  0  0  0
   11.1356  -16.6217   23.9129 C   0  0  2  0  0  0  0  0  0  0  0  0
   10.7593  -15.7197   22.8141 N   0  0  0  0  0  0  0  0  0  0  0  0
   10.2362  -16.4018   25.0644 C   0  0  0  0  0  0  0  0  0  0  0  0
    9.9838  -17.3243   26.0510 O   0  0  0  0  0  0  0  0  0  0  0  0
    9.6350  -15.2684   25.1695 O   0  0  0  0  0  0  0  0  0  0  0  0
  2  3  1  0
  2  1  1  0
  3  4  2  0
  5  6  1  0
  6  7  1  0
  7  9  1  0
  7  8  1  1
  9 11  1  0
  9 10  1  6
 10  3  1  0
 11 12  2  0
 11 19  1  0
 14 13  1  0
 14 16  1  0
 15 14  2  0
 17 16  1  0
 18 17  1  1
 18 20  1  0
 19 18  1  0
 20 22  2  0
 20 21  1  0
M  END
$$$$
