GIQ.pdb
     RDKit          3D

 22 21  0  0  1  0  0  0  0  0999 V2000
    6.6296  -14.5322   20.1145 N   0  0  0  0  0  0  0  0  0  0  0  0
    6.2068  -14.9426   21.4329 C   0  0  0  0  0  0  0  0  0  0  0  0
    7.2821  -14.6467   22.4357 C   0  0  0  0  0  0  0  0  0  0  0  0
    8.4806  -14.7478   22.1016 O   0  0  0  0  0  0  0  0  0  0  0  0
    6.0396  -11.0898   26.1557 C   0  0  0  0  0  0  0  0  0  0  0  0
    6.8024  -11.9962   25.2449 C   0  0  0  0  0  0  0  0  0  0  0  0
    7.2755  -13.2805   25.8904 C   0  0  2  0  0  0  0  0  0  0  0  0
    8.2005  -12.9248   27.0501 C   0  0  0  0  0  0  0  0  0  0  0  0
    7.9529  -14.1002   24.8249 C   0  0  2  0  0  0  0  0  0  0  0  0
    6.9524  -14.2527   23.7613 N   0  0  0  0  0  0  0  0  0  0  0  0
    8.4201  -15.4282   25.2838 C   0  0  0  0  0  0  0  0  0  0  0  0
    7.5283  -16.2951   25.5821 O   0  0  0  0  0  0  0  0  0  0  0  0
   12.3308  -18.1884   21.2917 N   0  0  0  0  0  0  0  0  0  0  0  0
   12.4510  -17.9484   22.7317 C   0  0  0  0  0  0  0  0  0  0  0  0
   13.6410  -17.9130   23.1031 O   0  0  0  0  0  0  0  0  0  0  0  0
   11.2486  -17.7886   23.5398 C   0  0  0  0  0  0  0  0  0  0  0  0
   11.3283  -17.6341   24.9989 C   0  0  0  0  0  0  0  0  0  0  0  0
   10.1453  -17.2184   25.7727 C   0  0  2  0  0  0  0  0  0  0  0  0
    9.7328  -15.8492   25.4290 N   0  0  0  0  0  0  0  0  0  0  0  0
   10.3662  -17.3180   27.2303 C   0  0  0  0  0  0  0  0  0  0  0  0
   10.5997  -18.4886   27.9108 O   0  0  0  0  0  0  0  0  0  0  0  0
   10.3421  -16.2395   27.9327 O   0  0  0  0  0  0  0  0  0  0  0  0
  2  3  1  0
  2  1  1  0
  3  4  2  0
  5  6  1  0
  6  7  1  0
  7  9  1  0
  7  8  1  1
  9 11  1  0
  9 10  1  6
 10  3  1  0
 11 12  2  0
 11 19  1  0
 14 13  1  0
 14 16  1  0
 15 14  2  0
 17 16  1  0
 18 17  1  6
 18 20  1  0
 19 18  1  0
 20 22  2  0
 20 21  1  0
M  END
$$$$
