GIQ.pdb
     RDKit          3D

 22 21  0  0  1  0  0  0  0  0999 V2000
    7.3895  -15.2948   19.6804 N   0  0  0  0  0  0  0  0  0  0  0  0
    6.6864  -15.3641   20.9399 C   0  0  0  0  0  0  0  0  0  0  0  0
    7.5208  -14.7621   22.0311 C   0  0  0  0  0  0  0  0  0  0  0  0
    8.6870  -14.3927   21.7822 O   0  0  0  0  0  0  0  0  0  0  0  0
    6.6942  -11.8588   27.3724 C   0  0  0  0  0  0  0  0  0  0  0  0
    7.5485  -12.5991   26.3951 C   0  0  0  0  0  0  0  0  0  0  0  0
    6.7774  -13.3628   25.3407 C   0  0  2  0  0  0  0  0  0  0  0  0
    5.8302  -14.3309   26.0428 C   0  0  0  0  0  0  0  0  0  0  0  0
    7.7812  -14.0550   24.4579 C   0  0  2  0  0  0  0  0  0  0  0  0
    6.9995  -14.6074   23.3447 N   0  0  0  0  0  0  0  0  0  0  0  0
    8.5449  -15.1300   25.1315 C   0  0  0  0  0  0  0  0  0  0  0  0
    7.8884  -16.1444   25.5507 O   0  0  0  0  0  0  0  0  0  0  0  0
   13.9131  -15.4685   23.3493 N   0  0  0  0  0  0  0  0  0  0  0  0
   13.5884  -16.8826   23.5505 C   0  0  0  0  0  0  0  0  0  0  0  0
   14.1687  -17.6183   22.7274 O   0  0  0  0  0  0  0  0  0  0  0  0
   12.6759  -17.2689   24.6193 C   0  0  0  0  0  0  0  0  0  0  0  0
   12.0772  -16.2636   25.5082 C   0  0  0  0  0  0  0  0  0  0  0  0
   10.6494  -16.3358   25.8645 C   0  0  2  0  0  0  0  0  0  0  0  0
    9.9111  -15.1667   25.3633 N   0  0  0  0  0  0  0  0  0  0  0  0
   10.4417  -16.4653   27.3217 C   0  0  0  0  0  0  0  0  0  0  0  0
   10.3030  -15.4110   28.1918 O   0  0  0  0  0  0  0  0  0  0  0  0
   10.3834  -17.6450   27.8337 O   0  0  0  0  0  0  0  0  0  0  0  0
  2  3  1  0
  2  1  1  0
  3  4  2  0
  5  6  1  0
  6  7  1  0
  7  9  1  0
  7  8  1  1
  9 11  1  0
  9 10  1  6
 10  3  1  0
 11 12  2  0
 11 19  1  0
 14 13  1  0
 14 16  1  0
 15 14  2  0
 17 16  1  0
 18 17  1  1
 18 20  1  0
 19 18  1  0
 20 22  2  0
 20 21  1  0
M  END
$$$$
