GIQ.pdb
     RDKit          3D

 22 21  0  0  1  0  0  0  0  0999 V2000
    4.7784  -18.6827   23.5324 N   0  0  0  0  0  0  0  0  0  0  0  0
    5.0967  -17.9198   24.7165 C   0  0  0  0  0  0  0  0  0  0  0  0
    6.1458  -16.8945   24.4040 C   0  0  0  0  0  0  0  0  0  0  0  0
    6.7792  -16.9688   23.3309 O   0  0  0  0  0  0  0  0  0  0  0  0
    5.5849  -12.0370   26.5471 C   0  0  0  0  0  0  0  0  0  0  0  0
    6.0831  -13.1149   25.6399 C   0  0  0  0  0  0  0  0  0  0  0  0
    7.3342  -13.8144   26.1251 C   0  0  2  0  0  0  0  0  0  0  0  0
    8.4715  -12.7983   26.1606 C   0  0  0  0  0  0  0  0  0  0  0  0
    7.6000  -14.9657   25.1924 C   0  0  2  0  0  0  0  0  0  0  0  0
    6.4270  -15.8400   25.3151 N   0  0  0  0  0  0  0  0  0  0  0  0
    8.8369  -15.7213   25.4955 C   0  0  0  0  0  0  0  0  0  0  0  0
    8.8483  -16.4287   26.5610 O   0  0  0  0  0  0  0  0  0  0  0  0
   12.1355  -20.1264   23.0328 N   0  0  0  0  0  0  0  0  0  0  0  0
   11.0092  -19.4577   22.3772 C   0  0  0  0  0  0  0  0  0  0  0  0
   10.8164  -19.8879   21.2226 O   0  0  0  0  0  0  0  0  0  0  0  0
   10.2729  -18.4199   23.0879 C   0  0  0  0  0  0  0  0  0  0  0  0
   10.5671  -18.1055   24.4928 C   0  0  0  0  0  0  0  0  0  0  0  0
   11.0581  -16.7695   24.8733 C   0  0  2  0  0  0  0  0  0  0  0  0
   10.0027  -15.7532   24.7463 N   0  0  0  0  0  0  0  0  0  0  0  0
   12.2375  -16.3603   24.0828 C   0  0  0  0  0  0  0  0  0  0  0  0
   12.2338  -15.3857   23.1142 O   0  0  0  0  0  0  0  0  0  0  0  0
   13.3614  -16.9481   24.3028 O   0  0  0  0  0  0  0  0  0  0  0  0
  2  3  1  0
  2  1  1  0
  3  4  2  0
  5  6  1  0
  6  7  1  0
  7  9  1  0
  7  8  1  6
  9 11  1  0
  9 10  1  1
 10  3  1  0
 11 12  2  0
 11 19  1  0
 14 13  1  0
 14 16  1  0
 15 14  2  0
 17 16  1  0
 18 17  1  6
 18 20  1  0
 19 18  1  0
 20 22  2  0
 20 21  1  0
M  END
$$$$
