GIQ.pdb
     RDKit          3D

 22 21  0  0  1  0  0  0  0  0999 V2000
    4.7962  -18.5707   23.8044 N   0  0  0  0  0  0  0  0  0  0  0  0
    5.3173  -17.8934   24.9685 C   0  0  0  0  0  0  0  0  0  0  0  0
    6.1876  -16.7452   24.5518 C   0  0  0  0  0  0  0  0  0  0  0  0
    6.7593  -16.7766   23.4424 O   0  0  0  0  0  0  0  0  0  0  0  0
    5.2915  -11.9161   26.7474 C   0  0  0  0  0  0  0  0  0  0  0  0
    5.8027  -12.9692   25.8185 C   0  0  0  0  0  0  0  0  0  0  0  0
    7.1519  -13.5394   26.1986 C   0  0  2  0  0  0  0  0  0  0  0  0
    8.1799  -12.4130   26.1582 C   0  0  0  0  0  0  0  0  0  0  0  0
    7.4599  -14.6547   25.2356 C   0  0  2  0  0  0  0  0  0  0  0  0
    6.3690  -15.6224   25.4048 N   0  0  0  0  0  0  0  0  0  0  0  0
    8.7676  -15.3110   25.4628 C   0  0  0  0  0  0  0  0  0  0  0  0
    8.9684  -15.8424   26.6087 O   0  0  0  0  0  0  0  0  0  0  0  0
    9.8488  -19.8253   27.2034 N   0  0  0  0  0  0  0  0  0  0  0  0
   10.9792  -19.0626   26.6685 C   0  0  0  0  0  0  0  0  0  0  0  0
   11.7298  -18.6420   27.5712 O   0  0  0  0  0  0  0  0  0  0  0  0
   11.1081  -18.8771   25.2286 C   0  0  0  0  0  0  0  0  0  0  0  0
   10.4217  -17.7756   24.5396 C   0  0  0  0  0  0  0  0  0  0  0  0
   10.9150  -16.3928   24.6636 C   0  0  2  0  0  0  0  0  0  0  0  0
    9.8167  -15.4199   24.5632 N   0  0  0  0  0  0  0  0  0  0  0  0
   11.9511  -16.0756   23.6591 C   0  0  0  0  0  0  0  0  0  0  0  0
   13.3055  -16.1553   23.8760 O   0  0  0  0  0  0  0  0  0  0  0  0
   11.5778  -15.6945   22.4875 O   0  0  0  0  0  0  0  0  0  0  0  0
  2  3  1  0
  2  1  1  0
  3  4  2  0
  5  6  1  0
  6  7  1  0
  7  9  1  0
  7  8  1  6
  9 11  1  0
  9 10  1  1
 10  3  1  0
 11 12  2  0
 11 19  1  0
 14 13  1  0
 14 16  1  0
 15 14  2  0
 17 16  1  0
 18 17  1  6
 18 20  1  0
 19 18  1  0
 20 22  2  0
 20 21  1  0
M  END
$$$$
