GIQ.pdb
     RDKit          3D

 22 21  0  0  1  0  0  0  0  0999 V2000
    6.9869  -14.3682   19.9807 N   0  0  0  0  0  0  0  0  0  0  0  0
    6.3209  -14.2727   21.2585 C   0  0  0  0  0  0  0  0  0  0  0  0
    7.3315  -14.2309   22.3660 C   0  0  0  0  0  0  0  0  0  0  0  0
    8.5398  -14.4034   22.1039 O   0  0  0  0  0  0  0  0  0  0  0  0
    6.0708  -11.0332   26.4513 C   0  0  0  0  0  0  0  0  0  0  0  0
    6.8433  -11.8619   25.4768 C   0  0  0  0  0  0  0  0  0  0  0  0
    7.1404  -13.2691   25.9472 C   0  0  2  0  0  0  0  0  0  0  0  0
    7.9508  -13.1851   27.2370 C   0  0  0  0  0  0  0  0  0  0  0  0
    7.8713  -13.9735   24.8356 C   0  0  2  0  0  0  0  0  0  0  0  0
    6.9296  -13.9973   23.7095 N   0  0  0  0  0  0  0  0  0  0  0  0
    8.3067  -15.3489   25.1693 C   0  0  0  0  0  0  0  0  0  0  0  0
    7.3954  -16.2088   25.4259 O   0  0  0  0  0  0  0  0  0  0  0  0
   13.6478  -20.4690   24.1689 N   0  0  0  0  0  0  0  0  0  0  0  0
   12.7763  -19.3628   23.7659 C   0  0  0  0  0  0  0  0  0  0  0  0
   13.1230  -18.8663   22.6757 O   0  0  0  0  0  0  0  0  0  0  0  0
   11.6637  -18.9714   24.6223 C   0  0  0  0  0  0  0  0  0  0  0  0
   11.0482  -17.6420   24.5090 C   0  0  0  0  0  0  0  0  0  0  0  0
    9.9838  -17.2287   25.4402 C   0  0  2  0  0  0  0  0  0  0  0  0
    9.6081  -15.8216   25.2359 N   0  0  0  0  0  0  0  0  0  0  0  0
   10.3623  -17.4402   26.8527 C   0  0  0  0  0  0  0  0  0  0  0  0
   10.3821  -18.6593   27.4862 O   0  0  0  0  0  0  0  0  0  0  0  0
   10.7022  -16.4194   27.5595 O   0  0  0  0  0  0  0  0  0  0  0  0
  2  3  1  0
  2  1  1  0
  3  4  2  0
  5  6  1  0
  6  7  1  0
  7  9  1  0
  7  8  1  1
  9 11  1  0
  9 10  1  6
 10  3  1  0
 11 12  2  0
 11 19  1  0
 14 13  1  0
 14 16  1  0
 15 14  2  0
 17 16  1  0
 18 17  1  6
 18 20  1  0
 19 18  1  0
 20 22  2  0
 20 21  1  0
M  END
$$$$
