GIQ.pdb
     RDKit          3D

 22 21  0  0  1  0  0  0  0  0999 V2000
    9.8295  -17.9019   16.5651 N   0  0  0  0  0  0  0  0  0  0  0  0
    8.8026  -17.6881   17.5577 C   0  0  0  0  0  0  0  0  0  0  0  0
    9.3506  -16.8921   18.7047 C   0  0  0  0  0  0  0  0  0  0  0  0
   10.5576  -16.9963   19.0057 O   0  0  0  0  0  0  0  0  0  0  0  0
    6.7196  -12.3013   19.8607 C   0  0  0  0  0  0  0  0  0  0  0  0
    7.8316  -13.2959   19.7746 C   0  0  0  0  0  0  0  0  0  0  0  0
    7.8815  -14.2816   20.9218 C   0  0  2  0  0  0  0  0  0  0  0  0
    8.1106  -13.5051   22.2147 C   0  0  0  0  0  0  0  0  0  0  0  0
    8.9784  -15.2685   20.6236 C   0  0  2  0  0  0  0  0  0  0  0  0
    8.5120  -16.0210   19.4524 N   0  0  0  0  0  0  0  0  0  0  0  0
    9.2847  -16.1932   21.7387 C   0  0  0  0  0  0  0  0  0  0  0  0
    8.3944  -17.0578   22.0478 O   0  0  0  0  0  0  0  0  0  0  0  0
   14.6562  -19.1811   22.6452 N   0  0  0  0  0  0  0  0  0  0  0  0
   13.9465  -19.4756   23.8924 C   0  0  0  0  0  0  0  0  0  0  0  0
   14.5956  -20.2426   24.6310 O   0  0  0  0  0  0  0  0  0  0  0  0
   12.6353  -18.8864   24.1333 C   0  0  0  0  0  0  0  0  0  0  0  0
   12.0504  -17.9224   23.1912 C   0  0  0  0  0  0  0  0  0  0  0  0
   10.7643  -17.2690   23.4918 C   0  0  2  0  0  0  0  0  0  0  0  0
   10.4434  -16.2329   22.4986 N   0  0  0  0  0  0  0  0  0  0  0  0
   10.7382  -16.6810   24.8471 C   0  0  0  0  0  0  0  0  0  0  0  0
   11.0996  -15.3905   25.1501 O   0  0  0  0  0  0  0  0  0  0  0  0
   10.3511  -17.4158   25.8306 O   0  0  0  0  0  0  0  0  0  0  0  0
  2  3  1  0
  2  1  1  0
  3  4  2  0
  5  6  1  0
  6  7  1  0
  7  9  1  0
  7  8  1  1
  9 11  1  0
  9 10  1  6
 10  3  1  0
 11 12  2  0
 11 19  1  0
 14 13  1  0
 14 16  1  0
 15 14  2  0
 17 16  1  0
 18 17  1  6
 18 20  1  0
 19 18  1  0
 20 22  2  0
 20 21  1  0
M  END
$$$$
