GIQ.pdb
     RDKit          3D

 22 21  0  0  1  0  0  0  0  0999 V2000
    4.4955  -18.2932   23.0538 N   0  0  0  0  0  0  0  0  0  0  0  0
    5.0314  -17.9144   24.3402 C   0  0  0  0  0  0  0  0  0  0  0  0
    6.0355  -16.8122   24.1773 C   0  0  0  0  0  0  0  0  0  0  0  0
    6.6043  -16.6548   23.0773 O   0  0  0  0  0  0  0  0  0  0  0  0
    5.5913  -12.3729   27.1635 C   0  0  0  0  0  0  0  0  0  0  0  0
    6.0289  -13.3059   26.0813 C   0  0  0  0  0  0  0  0  0  0  0  0
    7.2768  -14.0987   26.4036 C   0  0  2  0  0  0  0  0  0  0  0  0
    8.4286  -13.1206   26.6129 C   0  0  0  0  0  0  0  0  0  0  0  0
    7.5133  -15.0541   25.2645 C   0  0  2  0  0  0  0  0  0  0  0  0
    6.3466  -15.9453   25.2603 N   0  0  0  0  0  0  0  0  0  0  0  0
    8.7609  -15.8430   25.3810 C   0  0  0  0  0  0  0  0  0  0  0  0
    8.9177  -16.5436   26.4394 O   0  0  0  0  0  0  0  0  0  0  0  0
   12.0333  -14.3854   20.4205 N   0  0  0  0  0  0  0  0  0  0  0  0
   11.6559  -15.6578   21.0403 C   0  0  0  0  0  0  0  0  0  0  0  0
   11.0258  -16.3931   20.2544 O   0  0  0  0  0  0  0  0  0  0  0  0
   12.0247  -15.9237   22.4250 C   0  0  0  0  0  0  0  0  0  0  0  0
   11.4785  -17.0801   23.1486 C   0  0  0  0  0  0  0  0  0  0  0  0
   10.8756  -16.9111   24.4824 C   0  0  2  0  0  0  0  0  0  0  0  0
    9.7955  -15.9132   24.4610 N   0  0  0  0  0  0  0  0  0  0  0  0
   11.8745  -16.5378   25.5052 C   0  0  0  0  0  0  0  0  0  0  0  0
   11.9296  -15.3214   26.1418 O   0  0  0  0  0  0  0  0  0  0  0  0
   12.7680  -17.4024   25.8389 O   0  0  0  0  0  0  0  0  0  0  0  0
  2  3  1  0
  2  1  1  0
  3  4  2  0
  5  6  1  0
  6  7  1  0
  7  9  1  0
  7  8  1  6
  9 11  1  0
  9 10  1  1
 10  3  1  0
 11 12  2  0
 11 19  1  0
 14 13  1  0
 14 16  1  0
 15 14  2  0
 17 16  1  0
 18 17  1  6
 18 20  1  0
 19 18  1  0
 20 22  2  0
 20 21  1  0
M  END
$$$$
