MDI.pdb
     RDKit          3D

 25 24  0  0  1  0  0  0  0  0999 V2000
    8.5739  -11.3839   19.2740 C   0  0  0  0  0  0  0  0  0  0  0  0
    7.5331  -12.4996   18.2875 S   0  0  0  0  0  0  0  0  0  0  0  0
    7.5886  -14.1941   18.9926 C   0  0  0  0  0  0  0  0  0  0  0  0
    9.0257  -14.5669   19.1051 C   0  0  0  0  0  0  0  0  0  0  0  0
    9.3124  -15.9209   19.6487 C   0  0  2  0  0  0  0  0  0  0  0  0
    8.9064  -16.9500   18.7154 N   0  0  0  0  0  0  0  0  0  0  0  0
    8.8192  -16.1752   21.0171 C   0  0  0  0  0  0  0  0  0  0  0  0
    8.0008  -15.3737   21.5367 O   0  0  0  0  0  0  0  0  0  0  0  0
    9.2222  -17.2912   21.7975 N   0  0  0  0  0  0  0  0  0  0  0  0
    8.7313  -17.5858   23.1112 C   0  0  1  0  0  0  0  0  0  0  0  0
    9.0777  -18.9376   23.6285 C   0  0  0  0  0  0  0  0  0  0  0  0
    9.0364  -19.9263   22.5362 C   0  0  0  0  0  0  0  0  0  0  0  0
    7.9330  -20.2493   22.0454 O   0  0  0  0  0  0  0  0  0  0  0  0
    9.1029  -16.5070   24.0919 C   0  0  0  0  0  0  0  0  0  0  0  0
   10.3227  -16.2927   24.2614 O   0  0  0  0  0  0  0  0  0  0  0  0
   10.1789  -20.5221   22.0215 O   0  0  0  0  0  0  0  0  0  0  0  0
    6.7055  -11.4935   26.7972 C   0  0  0  0  0  0  0  0  0  0  0  0
    7.7675  -12.5611   26.7542 C   0  0  0  0  0  0  0  0  0  0  0  0
    7.3838  -13.7286   25.8723 C   0  0  2  0  0  0  0  0  0  0  0  0
    6.0557  -14.2713   26.2499 C   0  0  0  0  0  0  0  0  0  0  0  0
    8.4920  -14.7209   25.7712 C   0  0  2  0  0  0  0  0  0  0  0  0
    8.1642  -15.7528   24.8041 N   0  0  0  0  0  0  0  0  0  0  0  0
    8.9019  -15.2973   27.0674 C   0  0  0  0  0  0  0  0  0  0  0  0
    8.5106  -16.4778   27.3248 O   0  0  0  0  0  0  0  0  0  0  0  0
    9.6613  -14.6801   28.0128 O   0  0  0  0  0  0  0  0  0  0  0  0
  2  3  1  0
  2  1  1  0
  4  5  1  0
  4  3  1  0
  5  7  1  0
  5  6  1  6
  7  8  2  0
  9 10  1  0
  9  7  1  0
 10 11  1  1
 12 11  1  0
 13 12  2  0
 14 10  1  0
 14 15  2  0
 16 12  1  0
 18 17  1  0
 19 18  1  0
 19 20  1  1
 21 22  1  6
 21 19  1  0
 22 14  1  0
 23 21  1  0
 24 23  2  0
 25 23  1  0
M  END
$$$$
