MDI.pdb
     RDKit          3D

 25 24  0  0  1  0  0  0  0  0999 V2000
    9.2366  -11.8704   19.3765 C   0  0  0  0  0  0  0  0  0  0  0  0
    7.8404  -12.6324   20.2546 S   0  0  0  0  0  0  0  0  0  0  0  0
    7.2761  -14.1293   19.3533 C   0  0  0  0  0  0  0  0  0  0  0  0
    8.4844  -14.9630   19.1042 C   0  0  0  0  0  0  0  0  0  0  0  0
    8.3938  -16.3898   19.5133 C   0  0  2  0  0  0  0  0  0  0  0  0
    7.1828  -16.9980   19.0049 N   0  0  0  0  0  0  0  0  0  0  0  0
    8.5954  -16.6536   20.9521 C   0  0  0  0  0  0  0  0  0  0  0  0
    7.5956  -16.8529   21.6887 O   0  0  0  0  0  0  0  0  0  0  0  0
    9.8752  -16.6951   21.5663 N   0  0  0  0  0  0  0  0  0  0  0  0
   10.1092  -17.0384   22.9378 C   0  0  1  0  0  0  0  0  0  0  0  0
   11.3915  -17.7454   23.2040 C   0  0  0  0  0  0  0  0  0  0  0  0
   11.4422  -19.0093   22.4477 C   0  0  0  0  0  0  0  0  0  0  0  0
   10.5125  -19.8354   22.5746 O   0  0  0  0  0  0  0  0  0  0  0  0
    9.9376  -15.8467   23.8401 C   0  0  0  0  0  0  0  0  0  0  0  0
   10.7752  -14.9259   23.7259 O   0  0  0  0  0  0  0  0  0  0  0  0
   12.4863  -19.3285   21.5914 O   0  0  0  0  0  0  0  0  0  0  0  0
    6.3158  -11.8590   26.3817 C   0  0  0  0  0  0  0  0  0  0  0  0
    7.5338  -12.7238   26.5766 C   0  0  0  0  0  0  0  0  0  0  0  0
    7.5713  -13.8995   25.6257 C   0  0  2  0  0  0  0  0  0  0  0  0
    6.3020  -14.6660   25.6715 C   0  0  0  0  0  0  0  0  0  0  0  0
    8.8221  -14.6936   25.7919 C   0  0  2  0  0  0  0  0  0  0  0  0
    8.9059  -15.7289   24.7777 N   0  0  0  0  0  0  0  0  0  0  0  0
    9.0088  -15.2427   27.1498 C   0  0  0  0  0  0  0  0  0  0  0  0
    8.7913  -16.4842   27.3063 O   0  0  0  0  0  0  0  0  0  0  0  0
    9.3930  -14.5410   28.2504 O   0  0  0  0  0  0  0  0  0  0  0  0
  2  3  1  0
  2  1  1  0
  4  5  1  0
  4  3  1  0
  5  7  1  0
  5  6  1  1
  7  8  2  0
  9 10  1  0
  9  7  1  0
 10 11  1  6
 12 11  1  0
 13 12  2  0
 14 10  1  0
 14 15  2  0
 16 12  1  0
 18 17  1  0
 19 18  1  0
 19 20  1  1
 21 22  1  6
 21 19  1  0
 22 14  1  0
 23 21  1  0
 24 23  2  0
 25 23  1  0
M  END
$$$$
