MDI.pdb
     RDKit          3D

 25 24  0  0  1  0  0  0  0  0999 V2000
    9.3490  -12.4362   18.6864 C   0  0  0  0  0  0  0  0  0  0  0  0
    7.8311  -12.0580   19.6104 S   0  0  0  0  0  0  0  0  0  0  0  0
    7.1105  -13.6040   20.2902 C   0  0  0  0  0  0  0  0  0  0  0  0
    8.1656  -14.6500   20.1929 C   0  0  0  0  0  0  0  0  0  0  0  0
    7.7763  -16.0181   20.6265 C   0  0  2  0  0  0  0  0  0  0  0  0
    6.4142  -16.3160   20.2381 N   0  0  0  0  0  0  0  0  0  0  0  0
    8.0401  -16.3359   22.0441 C   0  0  0  0  0  0  0  0  0  0  0  0
    7.1437  -16.1246   22.9008 O   0  0  0  0  0  0  0  0  0  0  0  0
    9.2695  -16.8749   22.5077 N   0  0  0  0  0  0  0  0  0  0  0  0
    9.5339  -17.2492   23.8655 C   0  0  1  0  0  0  0  0  0  0  0  0
   10.5987  -18.2734   24.0445 C   0  0  0  0  0  0  0  0  0  0  0  0
   10.3763  -19.4043   23.1259 C   0  0  0  0  0  0  0  0  0  0  0  0
    9.4078  -20.1701   23.3222 O   0  0  0  0  0  0  0  0  0  0  0  0
    9.7765  -16.0428   24.7312 C   0  0  0  0  0  0  0  0  0  0  0  0
   10.6748  -15.2549   24.3640 O   0  0  0  0  0  0  0  0  0  0  0  0
   11.2019  -19.6616   22.0408 O   0  0  0  0  0  0  0  0  0  0  0  0
    6.1008  -12.8556   26.4129 C   0  0  0  0  0  0  0  0  0  0  0  0
    7.3717  -13.5764   26.0456 C   0  0  0  0  0  0  0  0  0  0  0  0
    8.1893  -13.9684   27.2563 C   0  0  2  0  0  0  0  0  0  0  0  0
    8.4203  -12.8042   28.1464 C   0  0  0  0  0  0  0  0  0  0  0  0
    9.4009  -14.7447   26.8660 C   0  0  2  0  0  0  0  0  0  0  0  0
    9.0571  -15.7727   25.9003 N   0  0  0  0  0  0  0  0  0  0  0  0
   10.1529  -15.2990   28.0095 C   0  0  0  0  0  0  0  0  0  0  0  0
    9.9394  -16.5151   28.3070 O   0  0  0  0  0  0  0  0  0  0  0  0
   11.0549  -14.6267   28.7749 O   0  0  0  0  0  0  0  0  0  0  0  0
  2  3  1  0
  2  1  1  0
  4  5  1  0
  4  3  1  0
  5  7  1  0
  5  6  1  1
  7  8  2  0
  9 10  1  0
  9  7  1  0
 10 11  1  6
 12 11  1  0
 13 12  2  0
 14 10  1  0
 14 15  2  0
 16 12  1  0
 18 17  1  0
 19 18  1  0
 19 20  1  6
 21 22  1  6
 21 19  1  0
 22 14  1  0
 23 21  1  0
 24 23  2  0
 25 23  1  0
M  END
$$$$
