MDI.pdb
     RDKit          3D

 25 24  0  0  1  0  0  0  0  0999 V2000
    7.2787  -10.9597   25.0937 C   0  0  0  0  0  0  0  0  0  0  0  0
    6.3178  -12.4650   25.4282 S   0  0  0  0  0  0  0  0  0  0  0  0
    7.2252  -13.9369   24.8107 C   0  0  0  0  0  0  0  0  0  0  0  0
    7.0035  -13.9936   23.3395 C   0  0  0  0  0  0  0  0  0  0  0  0
    7.5961  -15.1585   22.6303 C   0  0  2  0  0  0  0  0  0  0  0  0
    6.5626  -16.0142   22.0874 N   0  0  0  0  0  0  0  0  0  0  0  0
    8.6134  -15.9148   23.3875 C   0  0  0  0  0  0  0  0  0  0  0  0
    8.2646  -16.5744   24.4001 O   0  0  0  0  0  0  0  0  0  0  0  0
    9.9889  -15.9415   23.0353 N   0  0  0  0  0  0  0  0  0  0  0  0
   10.9842  -16.7299   23.6997 C   0  0  1  0  0  0  0  0  0  0  0  0
   12.2396  -16.9453   22.9298 C   0  0  0  0  0  0  0  0  0  0  0  0
   11.9296  -17.4662   21.5865 C   0  0  0  0  0  0  0  0  0  0  0  0
   11.2591  -18.5158   21.4775 O   0  0  0  0  0  0  0  0  0  0  0  0
   11.2666  -16.2081   25.0823 C   0  0  0  0  0  0  0  0  0  0  0  0
   12.0952  -15.2770   25.1769 O   0  0  0  0  0  0  0  0  0  0  0  0
   12.3524  -16.8385   20.4235 O   0  0  0  0  0  0  0  0  0  0  0  0
    8.9671  -13.3356   28.1238 C   0  0  0  0  0  0  0  0  0  0  0  0
   10.0445  -14.2182   27.5497 C   0  0  0  0  0  0  0  0  0  0  0  0
   10.1819  -15.5280   28.2936 C   0  0  2  0  0  0  0  0  0  0  0  0
   10.4521  -15.2998   29.7344 C   0  0  0  0  0  0  0  0  0  0  0  0
   11.1134  -16.4568   27.5919 C   0  0  2  0  0  0  0  0  0  0  0  0
   10.6560  -16.7086   26.2373 N   0  0  0  0  0  0  0  0  0  0  0  0
   11.3728  -17.7131   28.3233 C   0  0  0  0  0  0  0  0  0  0  0  0
   12.2125  -17.6652   29.2749 O   0  0  0  0  0  0  0  0  0  0  0  0
   10.7946  -18.9189   28.0718 O   0  0  0  0  0  0  0  0  0  0  0  0
  2  3  1  0
  2  1  1  0
  4  5  1  0
  4  3  1  0
  5  7  1  0
  5  6  1  1
  7  8  2  0
  9 10  1  0
  9  7  1  0
 10 11  1  6
 12 11  1  0
 13 12  2  0
 14 10  1  0
 14 15  2  0
 16 12  1  0
 18 17  1  0
 19 18  1  0
 19 20  1  1
 21 22  1  6
 21 19  1  0
 22 14  1  0
 23 21  1  0
 24 23  2  0
 25 23  1  0
M  END
$$$$
