MDI.pdb
     RDKit          3D

 25 24  0  0  1  0  0  0  0  0999 V2000
    8.2489  -11.5102   20.0558 C   0  0  0  0  0  0  0  0  0  0  0  0
    7.6959  -12.4390   18.5955 S   0  0  0  0  0  0  0  0  0  0  0  0
    7.6934  -14.2382   18.9621 C   0  0  0  0  0  0  0  0  0  0  0  0
    8.3695  -14.4106   20.2774 C   0  0  0  0  0  0  0  0  0  0  0  0
    8.7926  -15.7938   20.6222 C   0  0  2  0  0  0  0  0  0  0  0  0
    8.0501  -16.7692   19.8526 N   0  0  0  0  0  0  0  0  0  0  0  0
    8.8144  -16.1123   22.0639 C   0  0  0  0  0  0  0  0  0  0  0  0
    8.0196  -15.5203   22.8385 O   0  0  0  0  0  0  0  0  0  0  0  0
    9.6971  -17.0641   22.6400 N   0  0  0  0  0  0  0  0  0  0  0  0
    9.6723  -17.4702   24.0140 C   0  0  1  0  0  0  0  0  0  0  0  0
   10.4269  -18.7159   24.3202 C   0  0  0  0  0  0  0  0  0  0  0  0
   10.0555  -19.7817   23.3724 C   0  0  0  0  0  0  0  0  0  0  0  0
   10.9542  -20.3788   22.7411 O   0  0  0  0  0  0  0  0  0  0  0  0
   10.0716  -16.3435   24.9277 C   0  0  0  0  0  0  0  0  0  0  0  0
   11.1367  -15.7474   24.6581 O   0  0  0  0  0  0  0  0  0  0  0  0
    8.7392  -20.1572   23.1456 O   0  0  0  0  0  0  0  0  0  0  0  0
    6.6169  -12.7787   26.2832 C   0  0  0  0  0  0  0  0  0  0  0  0
    7.8303  -13.6291   26.0110 C   0  0  0  0  0  0  0  0  0  0  0  0
    8.5724  -14.0057   27.2741 C   0  0  2  0  0  0  0  0  0  0  0  0
    8.8854  -12.8063   28.0892 C   0  0  0  0  0  0  0  0  0  0  0  0
    9.7168  -14.9155   26.9816 C   0  0  2  0  0  0  0  0  0  0  0  0
    9.3199  -15.9452   26.0384 N   0  0  0  0  0  0  0  0  0  0  0  0
   10.3489  -15.4915   28.1853 C   0  0  0  0  0  0  0  0  0  0  0  0
    9.9904  -16.6623   28.5224 O   0  0  0  0  0  0  0  0  0  0  0  0
   11.2811  -14.8833   28.9679 O   0  0  0  0  0  0  0  0  0  0  0  0
  2  3  1  0
  2  1  1  0
  4  5  1  0
  4  3  1  0
  5  7  1  0
  5  6  1  6
  7  8  2  0
  9 10  1  0
  9  7  1  0
 10 11  1  6
 12 11  1  0
 13 12  2  0
 14 10  1  0
 14 15  2  0
 16 12  1  0
 18 17  1  0
 19 18  1  0
 19 20  1  6
 21 22  1  6
 21 19  1  0
 22 14  1  0
 23 21  1  0
 24 23  2  0
 25 23  1  0
M  END
$$$$
