MDI.pdb
     RDKit          3D

 25 24  0  0  1  0  0  0  0  0999 V2000
    8.3007  -11.6349   20.2599 C   0  0  0  0  0  0  0  0  0  0  0  0
    8.4514  -12.8820   18.9473 S   0  0  0  0  0  0  0  0  0  0  0  0
    6.9942  -13.9987   18.9747 C   0  0  0  0  0  0  0  0  0  0  0  0
    7.0181  -14.7059   20.2848 C   0  0  0  0  0  0  0  0  0  0  0  0
    8.1803  -15.6014   20.5268 C   0  0  2  0  0  0  0  0  0  0  0  0
    8.2178  -16.6744   19.5560 N   0  0  0  0  0  0  0  0  0  0  0  0
    8.3301  -16.0898   21.9122 C   0  0  0  0  0  0  0  0  0  0  0  0
    7.3402  -16.0587   22.6877 O   0  0  0  0  0  0  0  0  0  0  0  0
    9.5486  -16.6012   22.4323 N   0  0  0  0  0  0  0  0  0  0  0  0
    9.7077  -17.1438   23.7490 C   0  0  1  0  0  0  0  0  0  0  0  0
   10.5945  -18.3355   23.8402 C   0  0  0  0  0  0  0  0  0  0  0  0
   10.6853  -18.7965   25.2371 C   0  0  0  0  0  0  0  0  0  0  0  0
   11.6665  -18.4532   25.9316 O   0  0  0  0  0  0  0  0  0  0  0  0
   10.1062  -16.0816   24.7372 C   0  0  0  0  0  0  0  0  0  0  0  0
   11.1707  -15.4675   24.5085 O   0  0  0  0  0  0  0  0  0  0  0  0
    9.7211  -19.6034   25.8239 O   0  0  0  0  0  0  0  0  0  0  0  0
    6.2659  -13.0232   26.3610 C   0  0  0  0  0  0  0  0  0  0  0  0
    7.5867  -13.6443   25.9879 C   0  0  0  0  0  0  0  0  0  0  0  0
    8.4479  -13.9492   27.1934 C   0  0  2  0  0  0  0  0  0  0  0  0
    8.6565  -12.7370   28.0229 C   0  0  0  0  0  0  0  0  0  0  0  0
    9.6780  -14.6981   26.8075 C   0  0  2  0  0  0  0  0  0  0  0  0
    9.3544  -15.7605   25.8725 N   0  0  0  0  0  0  0  0  0  0  0  0
   10.4604  -15.1997   27.9549 C   0  0  0  0  0  0  0  0  0  0  0  0
   10.2844  -16.4123   28.2888 O   0  0  0  0  0  0  0  0  0  0  0  0
   11.3538  -14.4821   28.6886 O   0  0  0  0  0  0  0  0  0  0  0  0
  2  3  1  0
  2  1  1  0
  4  5  1  0
  4  3  1  0
  5  7  1  0
  5  6  1  6
  7  8  2  0
  9 10  1  0
  9  7  1  0
 10 11  1  6
 12 11  1  0
 13 12  2  0
 14 10  1  0
 14 15  2  0
 16 12  1  0
 18 17  1  0
 19 18  1  0
 19 20  1  6
 21 22  1  6
 21 19  1  0
 22 14  1  0
 23 21  1  0
 24 23  2  0
 25 23  1  0
M  END
$$$$
