MDI.pdb
     RDKit          3D

 25 24  0  0  1  0  0  0  0  0999 V2000
    8.5183  -11.7402   20.2264 C   0  0  0  0  0  0  0  0  0  0  0  0
    8.1247  -13.0287   19.0075 S   0  0  0  0  0  0  0  0  0  0  0  0
    6.6605  -13.9882   19.5616 C   0  0  0  0  0  0  0  0  0  0  0  0
    6.9811  -14.5200   20.9148 C   0  0  0  0  0  0  0  0  0  0  0  0
    8.0059  -15.5958   20.9721 C   0  0  2  0  0  0  0  0  0  0  0  0
    7.6543  -16.6927   20.0956 N   0  0  0  0  0  0  0  0  0  0  0  0
    8.3738  -16.0533   22.3270 C   0  0  0  0  0  0  0  0  0  0  0  0
    7.5644  -15.8866   23.2753 O   0  0  0  0  0  0  0  0  0  0  0  0
    9.6111  -16.6810   22.6300 N   0  0  0  0  0  0  0  0  0  0  0  0
    9.9539  -17.2300   23.9085 C   0  0  1  0  0  0  0  0  0  0  0  0
   11.0477  -18.2392   23.8920 C   0  0  0  0  0  0  0  0  0  0  0  0
   11.1409  -18.9099   25.2010 C   0  0  0  0  0  0  0  0  0  0  0  0
   10.2647  -18.6889   26.0650 O   0  0  0  0  0  0  0  0  0  0  0  0
   10.2164  -16.1471   24.9196 C   0  0  0  0  0  0  0  0  0  0  0  0
   11.2794  -15.5017   24.7936 O   0  0  0  0  0  0  0  0  0  0  0  0
   12.1681  -19.7855   25.5227 O   0  0  0  0  0  0  0  0  0  0  0  0
    6.5508  -12.7577   25.9441 C   0  0  0  0  0  0  0  0  0  0  0  0
    7.8173  -13.5625   25.8112 C   0  0  0  0  0  0  0  0  0  0  0  0
    8.4032  -13.9515   27.1503 C   0  0  2  0  0  0  0  0  0  0  0  0
    8.5900  -12.7632   28.0187 C   0  0  0  0  0  0  0  0  0  0  0  0
    9.5917  -14.8367   26.9875 C   0  0  2  0  0  0  0  0  0  0  0  0
    9.3427  -15.8402   25.9683 N   0  0  0  0  0  0  0  0  0  0  0  0
   10.0656  -15.4437   28.2474 C   0  0  0  0  0  0  0  0  0  0  0  0
    9.6088  -16.5910   28.5440 O   0  0  0  0  0  0  0  0  0  0  0  0
   10.9476  -14.8869   29.1211 O   0  0  0  0  0  0  0  0  0  0  0  0
  2  3  1  0
  2  1  1  0
  4  5  1  0
  4  3  1  0
  5  7  1  0
  5  6  1  6
  7  8  2  0
  9 10  1  0
  9  7  1  0
 10 11  1  6
 12 11  1  0
 13 12  2  0
 14 10  1  0
 14 15  2  0
 16 12  1  0
 18 17  1  0
 19 18  1  0
 19 20  1  6
 21 22  1  6
 21 19  1  0
 22 14  1  0
 23 21  1  0
 24 23  2  0
 25 23  1  0
M  END
$$$$
