MDI.pdb
     RDKit          3D

 25 24  0  0  1  0  0  0  0  0999 V2000
    9.0852  -11.6162   20.3259 C   0  0  0  0  0  0  0  0  0  0  0  0
    7.5145  -12.1800   19.6076 S   0  0  0  0  0  0  0  0  0  0  0  0
    7.5064  -14.0117   19.4798 C   0  0  0  0  0  0  0  0  0  0  0  0
    7.8210  -14.5394   20.8361 C   0  0  0  0  0  0  0  0  0  0  0  0
    7.8015  -16.0187   20.9862 C   0  0  2  0  0  0  0  0  0  0  0  0
    6.5315  -16.5656   20.5582 N   0  0  0  0  0  0  0  0  0  0  0  0
    8.2185  -16.5302   22.3071 C   0  0  0  0  0  0  0  0  0  0  0  0
    7.3425  -16.8064   23.1663 O   0  0  0  0  0  0  0  0  0  0  0  0
    9.5758  -16.7315   22.6733 N   0  0  0  0  0  0  0  0  0  0  0  0
   10.0109  -17.2249   23.9465 C   0  0  1  0  0  0  0  0  0  0  0  0
   11.1800  -18.1449   23.9034 C   0  0  0  0  0  0  0  0  0  0  0  0
   11.5119  -18.6096   25.2620 C   0  0  0  0  0  0  0  0  0  0  0  0
   12.6583  -18.4028   25.7159 O   0  0  0  0  0  0  0  0  0  0  0  0
   10.2258  -16.1037   24.9265 C   0  0  0  0  0  0  0  0  0  0  0  0
   11.2289  -15.3799   24.7465 O   0  0  0  0  0  0  0  0  0  0  0  0
   10.6005  -19.2739   26.0702 O   0  0  0  0  0  0  0  0  0  0  0  0
    6.3111  -13.0334   26.2244 C   0  0  0  0  0  0  0  0  0  0  0  0
    7.6144  -13.7516   25.9896 C   0  0  0  0  0  0  0  0  0  0  0  0
    8.3494  -14.0593   27.2753 C   0  0  2  0  0  0  0  0  0  0  0  0
    8.4944  -12.8438   28.1135 C   0  0  0  0  0  0  0  0  0  0  0  0
    9.5997  -14.8289   27.0161 C   0  0  2  0  0  0  0  0  0  0  0  0
    9.3716  -15.8440   26.0037 N   0  0  0  0  0  0  0  0  0  0  0  0
   10.2173  -15.3978   28.2307 C   0  0  0  0  0  0  0  0  0  0  0  0
    9.9721  -16.6173   28.4870 O   0  0  0  0  0  0  0  0  0  0  0  0
   11.0261  -14.7357   29.1018 O   0  0  0  0  0  0  0  0  0  0  0  0
  2  3  1  0
  2  1  1  0
  4  5  1  0
  4  3  1  0
  5  7  1  0
  5  6  1  1
  7  8  2  0
  9 10  1  0
  9  7  1  0
 10 11  1  6
 12 11  1  0
 13 12  2  0
 14 10  1  0
 14 15  2  0
 16 12  1  0
 18 17  1  0
 19 18  1  0
 19 20  1  6
 21 22  1  6
 21 19  1  0
 22 14  1  0
 23 21  1  0
 24 23  2  0
 25 23  1  0
M  END
$$$$
