MDI.pdb
     RDKit          3D

 25 24  0  0  1  0  0  0  0  0999 V2000
    7.7036  -11.8248   25.4896 C   0  0  0  0  0  0  0  0  0  0  0  0
    6.1761  -12.7908   25.3034 S   0  0  0  0  0  0  0  0  0  0  0  0
    6.5259  -14.3455   24.3915 C   0  0  0  0  0  0  0  0  0  0  0  0
    7.2701  -13.9641   23.1595 C   0  0  0  0  0  0  0  0  0  0  0  0
    7.6427  -15.0768   22.2462 C   0  0  2  0  0  0  0  0  0  0  0  0
    6.4656  -15.6808   21.6592 N   0  0  0  0  0  0  0  0  0  0  0  0
    8.5691  -16.0795   22.8091 C   0  0  0  0  0  0  0  0  0  0  0  0
    8.1453  -16.9004   23.6625 O   0  0  0  0  0  0  0  0  0  0  0  0
    9.9369  -16.1734   22.4386 N   0  0  0  0  0  0  0  0  0  0  0  0
   10.8976  -17.0215   23.0800 C   0  0  1  0  0  0  0  0  0  0  0  0
   12.0649  -17.4048   22.2401 C   0  0  0  0  0  0  0  0  0  0  0  0
   11.7399  -17.2407   20.8120 C   0  0  0  0  0  0  0  0  0  0  0  0
   10.8227  -17.9267   20.3109 O   0  0  0  0  0  0  0  0  0  0  0  0
   11.3320  -16.4566   24.4051 C   0  0  0  0  0  0  0  0  0  0  0  0
   12.2432  -15.6011   24.3836 O   0  0  0  0  0  0  0  0  0  0  0  0
   12.4128  -16.3497   19.9881 O   0  0  0  0  0  0  0  0  0  0  0  0
   10.3790  -13.4710   29.2076 C   0  0  0  0  0  0  0  0  0  0  0  0
   11.0925  -14.7011   28.7104 C   0  0  0  0  0  0  0  0  0  0  0  0
   10.5459  -15.1975   27.3903 C   0  0  2  0  0  0  0  0  0  0  0  0
    9.0651  -15.2834   27.4221 C   0  0  0  0  0  0  0  0  0  0  0  0
   11.2629  -16.4211   26.9305 C   0  0  2  0  0  0  0  0  0  0  0  0
   10.7731  -16.8390   25.6293 N   0  0  0  0  0  0  0  0  0  0  0  0
   11.2421  -17.5310   27.9042 C   0  0  0  0  0  0  0  0  0  0  0  0
   10.3546  -18.4250   27.7429 O   0  0  0  0  0  0  0  0  0  0  0  0
   12.0870  -17.6848   28.9596 O   0  0  0  0  0  0  0  0  0  0  0  0
  2  3  1  0
  2  1  1  0
  4  5  1  0
  4  3  1  0
  5  7  1  0
  5  6  1  1
  7  8  2  0
  9 10  1  0
  9  7  1  0
 10 11  1  6
 12 11  1  0
 13 12  2  0
 14 10  1  0
 14 15  2  0
 16 12  1  0
 18 17  1  0
 19 18  1  0
 19 20  1  1
 21 22  1  6
 21 19  1  0
 22 14  1  0
 23 21  1  0
 24 23  2  0
 25 23  1  0
M  END
$$$$
