MDI.pdb
     RDKit          3D

 25 24  0  0  1  0  0  0  0  0999 V2000
    7.8458  -11.6308   20.4203 C   0  0  0  0  0  0  0  0  0  0  0  0
    8.2784  -12.8704   19.1645 S   0  0  0  0  0  0  0  0  0  0  0  0
    7.0413  -14.2272   19.1721 C   0  0  0  0  0  0  0  0  0  0  0  0
    7.1738  -14.9236   20.4815 C   0  0  0  0  0  0  0  0  0  0  0  0
    8.5576  -15.2593   20.9099 C   0  0  2  0  0  0  0  0  0  0  0  0
    9.2525  -16.0016   19.8798 N   0  0  0  0  0  0  0  0  0  0  0  0
    8.6768  -15.8929   22.2384 C   0  0  0  0  0  0  0  0  0  0  0  0
    7.7477  -15.7521   23.0745 O   0  0  0  0  0  0  0  0  0  0  0  0
    9.7998  -16.6654   22.6370 N   0  0  0  0  0  0  0  0  0  0  0  0
   10.0013  -17.1885   23.9558 C   0  0  1  0  0  0  0  0  0  0  0  0
   11.0555  -18.2330   24.0688 C   0  0  0  0  0  0  0  0  0  0  0  0
   10.8704  -19.2576   23.0257 C   0  0  0  0  0  0  0  0  0  0  0  0
    9.9947  -20.1363   23.1804 O   0  0  0  0  0  0  0  0  0  0  0  0
   10.2055  -16.0864   24.9594 C   0  0  0  0  0  0  0  0  0  0  0  0
   11.2170  -15.3671   24.8111 O   0  0  0  0  0  0  0  0  0  0  0  0
   11.6322  -19.2927   21.8665 O   0  0  0  0  0  0  0  0  0  0  0  0
    6.1464  -13.1805   26.3223 C   0  0  0  0  0  0  0  0  0  0  0  0
    7.4891  -13.8102   26.0573 C   0  0  0  0  0  0  0  0  0  0  0  0
    8.2507  -14.1139   27.3283 C   0  0  2  0  0  0  0  0  0  0  0  0
    8.3498  -12.9127   28.1933 C   0  0  0  0  0  0  0  0  0  0  0  0
    9.5316  -14.8200   27.0392 C   0  0  2  0  0  0  0  0  0  0  0  0
    9.3329  -15.8392   26.0246 N   0  0  0  0  0  0  0  0  0  0  0  0
   10.2005  -15.3651   28.2374 C   0  0  0  0  0  0  0  0  0  0  0  0
   10.6880  -14.5278   29.0586 O   0  0  0  0  0  0  0  0  0  0  0  0
   10.3431  -16.6831   28.5438 O   0  0  0  0  0  0  0  0  0  0  0  0
  2  3  1  0
  2  1  1  0
  4  5  1  0
  4  3  1  0
  5  7  1  0
  5  6  1  6
  7  8  2  0
  9 10  1  0
  9  7  1  0
 10 11  1  6
 12 11  1  0
 13 12  2  0
 14 10  1  0
 14 15  2  0
 16 12  1  0
 18 17  1  0
 19 18  1  0
 19 20  1  6
 21 22  1  6
 21 19  1  0
 22 14  1  0
 23 21  1  0
 24 23  2  0
 25 23  1  0
M  END
$$$$
