MDI.pdb
     RDKit          3D

 25 24  0  0  1  0  0  0  0  0999 V2000
    7.9865  -11.5342   20.0397 C   0  0  0  0  0  0  0  0  0  0  0  0
    8.1050  -13.2138   19.3572 S   0  0  0  0  0  0  0  0  0  0  0  0
    6.5051  -14.0896   19.5685 C   0  0  0  0  0  0  0  0  0  0  0  0
    6.7517  -15.2156   20.5109 C   0  0  0  0  0  0  0  0  0  0  0  0
    8.1707  -15.4661   20.8782 C   0  0  2  0  0  0  0  0  0  0  0  0
    8.8114  -16.3292   19.9089 N   0  0  0  0  0  0  0  0  0  0  0  0
    8.3998  -15.9115   22.2673 C   0  0  0  0  0  0  0  0  0  0  0  0
    7.7042  -15.4229   23.1944 O   0  0  0  0  0  0  0  0  0  0  0  0
    9.3783  -16.8760   22.6265 N   0  0  0  0  0  0  0  0  0  0  0  0
    9.6234  -17.3277   23.9643 C   0  0  1  0  0  0  0  0  0  0  0  0
   10.5652  -18.4739   24.0833 C   0  0  0  0  0  0  0  0  0  0  0  0
   10.2989  -19.4633   23.0240 C   0  0  0  0  0  0  0  0  0  0  0  0
   11.2265  -19.8038   22.2582 O   0  0  0  0  0  0  0  0  0  0  0  0
   10.0213  -16.1898   24.8646 C   0  0  0  0  0  0  0  0  0  0  0  0
   11.0797  -15.5881   24.5813 O   0  0  0  0  0  0  0  0  0  0  0  0
    9.0516  -20.0412   22.8351 O   0  0  0  0  0  0  0  0  0  0  0  0
    6.5283  -12.7119   26.4034 C   0  0  0  0  0  0  0  0  0  0  0  0
    7.7499  -13.5269   26.0673 C   0  0  0  0  0  0  0  0  0  0  0  0
    8.5659  -13.8839   27.2898 C   0  0  2  0  0  0  0  0  0  0  0  0
    8.9154  -12.6732   28.0727 C   0  0  0  0  0  0  0  0  0  0  0  0
    9.6990  -14.7884   26.9421 C   0  0  2  0  0  0  0  0  0  0  0  0
    9.2752  -15.7872   25.9775 N   0  0  0  0  0  0  0  0  0  0  0  0
   10.3571  -15.4036   28.1121 C   0  0  0  0  0  0  0  0  0  0  0  0
   11.0415  -14.6379   28.8593 O   0  0  0  0  0  0  0  0  0  0  0  0
   10.2980  -16.7165   28.4643 O   0  0  0  0  0  0  0  0  0  0  0  0
  2  3  1  0
  2  1  1  0
  4  5  1  0
  4  3  1  0
  5  7  1  0
  5  6  1  6
  7  8  2  0
  9 10  1  0
  9  7  1  0
 10 11  1  6
 12 11  1  0
 13 12  2  0
 14 10  1  0
 14 15  2  0
 16 12  1  0
 18 17  1  0
 19 18  1  0
 19 20  1  6
 21 22  1  6
 21 19  1  0
 22 14  1  0
 23 21  1  0
 24 23  2  0
 25 23  1  0
M  END
$$$$
