ALS.pdb
     RDKit          3D

 20 19  0  0  1  0  0  0  0  0999 V2000
   18.1456   -8.3821  -20.1182 C   0  0  0  0  0  0  0  0  0  0  0  0
   18.8349   -9.6441  -19.5992 C   0  0  2  0  0  0  0  0  0  0  0  0
   17.8480  -10.6976  -19.6257 N   0  0  0  0  0  0  0  0  0  0  0  0
   19.2973   -9.4392  -18.2247 C   0  0  0  0  0  0  0  0  0  0  0  0
   18.4208   -9.4824  -17.2929 O   0  0  0  0  0  0  0  0  0  0  0  0
   21.4547  -10.0090  -13.5680 C   0  0  0  0  0  0  0  0  0  0  0  0
   22.5119   -9.5808  -14.5560 C   0  0  1  0  0  0  0  0  0  0  0  0
   23.7288  -10.4796  -14.2871 C   0  0  0  0  0  0  0  0  0  0  0  0
   22.1058   -9.8127  -15.9553 C   0  0  0  0  0  0  0  0  0  0  0  0
   21.0149   -8.9952  -16.5238 C   0  0  2  0  0  0  0  0  0  0  0  0
   20.6560   -9.1972  -17.8767 N   0  0  0  0  0  0  0  0  0  0  0  0
   21.4278   -7.5503  -16.3460 C   0  0  0  0  0  0  0  0  0  0  0  0
   22.3260   -7.0952  -17.0922 O   0  0  0  0  0  0  0  0  0  0  0  0
   20.3002   -3.1248  -14.9979 O   0  0  0  0  0  0  0  0  0  0  0  0
   19.9000   -4.4591  -15.0677 C   0  0  0  0  0  0  0  0  0  0  0  0
   21.1423   -5.2991  -15.2556 C   0  0  2  0  0  0  0  0  0  0  0  0
   20.8389   -6.7029  -15.3739 N   0  0  0  0  0  0  0  0  0  0  0  0
   22.0918   -5.0191  -14.1599 C   0  0  0  0  0  0  0  0  0  0  0  0
   23.0946   -4.0669  -14.2402 O   0  0  0  0  0  0  0  0  0  0  0  0
   21.9860   -5.6775  -13.0996 O   0  0  0  0  0  0  0  0  0  0  0  0
  2  1  1  1
  2  4  1  0
  3  2  1  0
  4  5  2  0
  7  6  1  1
  7  9  1  0
  8  7  1  0
 10  9  1  6
 10 12  1  0
 11 10  1  0
 11  4  1  0
 12 13  2  0
 15 14  1  0
 16 15  1  1
 16 18  1  0
 17 16  1  0
 17 12  1  0
 18 20  2  0
 18 19  1  0
M  END
$$$$
