ALS.pdb
     RDKit          3D

 20 19  0  0  1  0  0  0  0  0999 V2000
   16.9439   -8.3882  -18.9932 C   0  0  0  0  0  0  0  0  0  0  0  0
   17.6443   -9.5611  -18.3071 C   0  0  2  0  0  0  0  0  0  0  0  0
   16.6188  -10.5224  -17.9773 N   0  0  0  0  0  0  0  0  0  0  0  0
   18.3053   -9.1086  -17.0810 C   0  0  0  0  0  0  0  0  0  0  0  0
   17.5662   -8.6283  -16.1529 O   0  0  0  0  0  0  0  0  0  0  0  0
   20.9231   -9.6081  -12.6090 C   0  0  0  0  0  0  0  0  0  0  0  0
   21.8881   -9.3140  -13.7312 C   0  0  1  0  0  0  0  0  0  0  0  0
   23.0988  -10.2308  -13.4970 C   0  0  0  0  0  0  0  0  0  0  0  0
   21.3372   -9.6580  -15.0560 C   0  0  0  0  0  0  0  0  0  0  0  0
   20.2579   -8.8198  -15.6165 C   0  0  2  0  0  0  0  0  0  0  0  0
   19.7116   -9.1750  -16.8716 N   0  0  0  0  0  0  0  0  0  0  0  0
   20.8149   -7.4162  -15.7138 C   0  0  0  0  0  0  0  0  0  0  0  0
   21.6560   -7.1740  -16.6108 O   0  0  0  0  0  0  0  0  0  0  0  0
   20.1938   -2.7468  -14.9079 O   0  0  0  0  0  0  0  0  0  0  0  0
   19.7064   -4.0361  -14.6941 C   0  0  0  0  0  0  0  0  0  0  0  0
   20.8280   -5.0037  -14.9942 C   0  0  2  0  0  0  0  0  0  0  0  0
   20.4214   -6.3769  -14.8336 N   0  0  0  0  0  0  0  0  0  0  0  0
   22.0016   -4.6637  -14.1649 C   0  0  0  0  0  0  0  0  0  0  0  0
   22.9506   -3.7231  -14.5301 O   0  0  0  0  0  0  0  0  0  0  0  0
   22.1482   -5.2572  -13.0717 O   0  0  0  0  0  0  0  0  0  0  0  0
  2  1  1  1
  2  4  1  0
  3  2  1  0
  4  5  2  0
  7  6  1  1
  7  9  1  0
  8  7  1  0
 10  9  1  6
 10 12  1  0
 11 10  1  0
 11  4  1  0
 12 13  2  0
 15 14  1  0
 16 15  1  1
 16 18  1  0
 17 16  1  0
 17 12  1  0
 18 20  2  0
 18 19  1  0
M  END
$$$$
