ALS.pdb
     RDKit          3D

 20 19  0  0  1  0  0  0  0  0999 V2000
   29.0049  -29.1237  -21.8756 C   0  0  0  0  0  0  0  0  0  0  0  0
   29.1495  -29.0515  -20.3554 C   0  0  2  0  0  0  0  0  0  0  0  0
   30.4622  -29.5618  -20.0379 N   0  0  0  0  0  0  0  0  0  0  0  0
   28.1305  -29.8826  -19.7103 C   0  0  0  0  0  0  0  0  0  0  0  0
   27.5669  -30.7858  -20.4209 O   0  0  0  0  0  0  0  0  0  0  0  0
   28.2071  -32.5422  -14.7776 C   0  0  0  0  0  0  0  0  0  0  0  0
   28.0869  -32.1151  -16.2199 C   0  0  1  0  0  0  0  0  0  0  0  0
   27.7074  -33.3807  -17.0041 C   0  0  0  0  0  0  0  0  0  0  0  0
   27.0035  -31.1360  -16.4317 C   0  0  0  0  0  0  0  0  0  0  0  0
   26.7759  -30.6112  -17.7934 C   0  0  2  0  0  0  0  0  0  0  0  0
   27.7399  -29.7386  -18.3493 N   0  0  0  0  0  0  0  0  0  0  0  0
   25.4430  -29.8956  -17.7573 C   0  0  0  0  0  0  0  0  0  0  0  0
   24.4300  -30.5481  -17.4127 O   0  0  0  0  0  0  0  0  0  0  0  0
   22.9303  -25.7959  -17.8892 O   0  0  0  0  0  0  0  0  0  0  0  0
   24.1846  -26.3455  -18.1545 C   0  0  0  0  0  0  0  0  0  0  0  0
   24.0324  -27.8492  -18.1583 C   0  0  2  0  0  0  0  0  0  0  0  0
   25.3031  -28.5263  -18.0965 N   0  0  0  0  0  0  0  0  0  0  0  0
   23.2343  -28.2566  -19.3320 C   0  0  0  0  0  0  0  0  0  0  0  0
   23.7892  -28.5970  -20.5547 O   0  0  0  0  0  0  0  0  0  0  0  0
   21.9877  -28.2972  -19.2173 O   0  0  0  0  0  0  0  0  0  0  0  0
  2  1  1  6
  2  4  1  0
  3  2  1  0
  4  5  2  0
  7  6  1  1
  7  9  1  0
  8  7  1  0
 10  9  1  1
 10 12  1  0
 11 10  1  0
 11  4  1  0
 12 13  2  0
 15 14  1  0
 16 15  1  6
 16 18  1  0
 17 16  1  0
 17 12  1  0
 18 20  2  0
 18 19  1  0
M  END
$$$$
