ALS.pdb
     RDKit          3D

 20 19  0  0  1  0  0  0  0  0999 V2000
   23.7286   -8.8801  -17.2417 C   0  0  0  0  0  0  0  0  0  0  0  0
   22.6832   -9.7083  -16.4946 C   0  0  2  0  0  0  0  0  0  0  0  0
   22.0926  -10.6028  -17.4618 N   0  0  0  0  0  0  0  0  0  0  0  0
   21.6481   -8.8340  -15.9385 C   0  0  0  0  0  0  0  0  0  0  0  0
   20.7203   -8.4397  -16.7273 O   0  0  0  0  0  0  0  0  0  0  0  0
   18.5894   -8.9877  -11.1931 C   0  0  0  0  0  0  0  0  0  0  0  0
   19.1154   -8.8984  -12.6046 C   0  0  1  0  0  0  0  0  0  0  0  0
   17.8878   -8.6603  -13.4976 C   0  0  0  0  0  0  0  0  0  0  0  0
   20.0196   -7.7490  -12.7999 C   0  0  0  0  0  0  0  0  0  0  0  0
   20.6077   -7.5262  -14.1364 C   0  0  2  0  0  0  0  0  0  0  0  0
   21.6219   -8.4055  -14.5815 N   0  0  0  0  0  0  0  0  0  0  0  0
   21.1609   -6.1177  -14.1294 C   0  0  0  0  0  0  0  0  0  0  0  0
   22.1825   -5.8864  -13.4414 O   0  0  0  0  0  0  0  0  0  0  0  0
   22.5712   -2.3272  -16.1865 O   0  0  0  0  0  0  0  0  0  0  0  0
   22.0097   -3.6037  -16.2112 C   0  0  0  0  0  0  0  0  0  0  0  0
   21.1482   -3.7473  -14.9777 C   0  0  2  0  0  0  0  0  0  0  0  0
   20.5684   -5.0620  -14.8672 N   0  0  0  0  0  0  0  0  0  0  0  0
   20.1281   -2.6798  -14.9671 C   0  0  0  0  0  0  0  0  0  0  0  0
   20.2966   -1.4658  -14.3217 O   0  0  0  0  0  0  0  0  0  0  0  0
   19.0513   -2.8814  -15.5744 O   0  0  0  0  0  0  0  0  0  0  0  0
  2  1  1  6
  2  4  1  0
  3  2  1  0
  4  5  2  0
  7  6  1  1
  7  9  1  0
  8  7  1  0
 10  9  1  1
 10 12  1  0
 11 10  1  0
 11  4  1  0
 12 13  2  0
 15 14  1  0
 16 15  1  6
 16 18  1  0
 17 16  1  0
 17 12  1  0
 18 20  2  0
 18 19  1  0
M  END
$$$$
