ALS.pdb
     RDKit          3D

 20 19  0  0  1  0  0  0  0  0999 V2000
   26.2106  -20.2253  -14.0923 C   0  0  0  0  0  0  0  0  0  0  0  0
   27.3032  -20.5293  -13.0672 C   0  0  2  0  0  0  0  0  0  0  0  0
   28.0630  -21.6415  -13.5868 N   0  0  0  0  0  0  0  0  0  0  0  0
   26.7033  -20.9015  -11.7839 C   0  0  0  0  0  0  0  0  0  0  0  0
   26.3351  -22.1181  -11.6336 O   0  0  0  0  0  0  0  0  0  0  0  0
   27.4430  -18.4795   -6.5275 C   0  0  0  0  0  0  0  0  0  0  0  0
   27.4435  -19.4054   -7.7190 C   0  0  1  0  0  0  0  0  0  0  0  0
   27.8999  -20.7737   -7.1894 C   0  0  0  0  0  0  0  0  0  0  0  0
   26.0964  -19.5924   -8.2910 C   0  0  0  0  0  0  0  0  0  0  0  0
   25.9453  -20.4382   -9.4924 C   0  0  2  0  0  0  0  0  0  0  0  0
   26.5114  -19.9896  -10.7081 N   0  0  0  0  0  0  0  0  0  0  0  0
   24.4579  -20.6287   -9.6954 C   0  0  0  0  0  0  0  0  0  0  0  0
   23.8652  -19.8590  -10.4872 O   0  0  0  0  0  0  0  0  0  0  0  0
   21.7820  -22.4601   -7.0746 O   0  0  0  0  0  0  0  0  0  0  0  0
   21.7718  -22.9739   -8.3713 C   0  0  0  0  0  0  0  0  0  0  0  0
   22.3290  -21.9095   -9.2884 C   0  0  2  0  0  0  0  0  0  0  0  0
   23.7199  -21.6379   -9.0271 N   0  0  0  0  0  0  0  0  0  0  0  0
   21.4917  -20.6968   -9.1949 C   0  0  0  0  0  0  0  0  0  0  0  0
   20.1457  -20.6686   -9.5208 O   0  0  0  0  0  0  0  0  0  0  0  0
   22.0262  -19.6352   -8.7997 O   0  0  0  0  0  0  0  0  0  0  0  0
  2  1  1  6
  2  4  1  0
  3  2  1  0
  4  5  2  0
  7  6  1  1
  7  9  1  0
  8  7  1  0
 10  9  1  1
 10 12  1  0
 11 10  1  0
 11  4  1  0
 12 13  2  0
 15 14  1  0
 16 15  1  1
 16 18  1  0
 17 16  1  0
 17 12  1  0
 18 20  2  0
 18 19  1  0
M  END
$$$$
