ALS.pdb
     RDKit          3D

 20 19  0  0  1  0  0  0  0  0999 V2000
   26.5515  -18.8640  -17.6184 C   0  0  0  0  0  0  0  0  0  0  0  0
   27.3846  -19.3632  -16.4378 C   0  0  2  0  0  0  0  0  0  0  0  0
   28.3601  -20.2814  -16.9761 N   0  0  0  0  0  0  0  0  0  0  0  0
   26.5303  -20.0632  -15.4758 C   0  0  0  0  0  0  0  0  0  0  0  0
   26.0850  -21.2159  -15.8091 O   0  0  0  0  0  0  0  0  0  0  0  0
   25.9082  -22.3039  -11.0257 C   0  0  0  0  0  0  0  0  0  0  0  0
   25.0216  -21.0854  -10.9475 C   0  0  1  0  0  0  0  0  0  0  0  0
   25.1969  -20.5270   -9.5268 C   0  0  0  0  0  0  0  0  0  0  0  0
   25.4371  -20.0223  -11.8825 C   0  0  0  0  0  0  0  0  0  0  0  0
   25.3428  -20.2759  -13.3345 C   0  0  2  0  0  0  0  0  0  0  0  0
   26.1745  -19.5327  -14.2039 N   0  0  0  0  0  0  0  0  0  0  0  0
   23.9005  -20.0265  -13.7182 C   0  0  0  0  0  0  0  0  0  0  0  0
   23.4652  -18.8530  -13.6538 O   0  0  0  0  0  0  0  0  0  0  0  0
   21.5621  -23.0593  -15.3349 O   0  0  0  0  0  0  0  0  0  0  0  0
   21.2962  -21.7488  -15.7317 C   0  0  0  0  0  0  0  0  0  0  0  0
   21.6820  -20.8386  -14.5885 C   0  0  2  0  0  0  0  0  0  0  0  0
   23.0338  -21.0647  -14.1434 N   0  0  0  0  0  0  0  0  0  0  0  0
   20.6986  -20.9821  -13.4963 C   0  0  0  0  0  0  0  0  0  0  0  0
   19.3690  -20.6105  -13.6093 O   0  0  0  0  0  0  0  0  0  0  0  0
   21.0863  -21.4659  -12.4080 O   0  0  0  0  0  0  0  0  0  0  0  0
  2  1  1  6
  2  4  1  0
  3  2  1  0
  4  5  2  0
  7  6  1  1
  7  9  1  0
  8  7  1  0
 10  9  1  1
 10 12  1  0
 11 10  1  0
 11  4  1  0
 12 13  2  0
 15 14  1  0
 16 15  1  6
 16 18  1  0
 17 16  1  0
 17 12  1  0
 18 20  2  0
 18 19  1  0
M  END
$$$$
