ALS.pdb
     RDKit          3D

 20 19  0  0  1  0  0  0  0  0999 V2000
   24.6168  -10.6115  -18.1349 C   0  0  0  0  0  0  0  0  0  0  0  0
   24.1081  -11.0404  -16.7586 C   0  0  2  0  0  0  0  0  0  0  0  0
   23.8744  -12.4635  -16.8267 N   0  0  0  0  0  0  0  0  0  0  0  0
   22.8541  -10.3515  -16.4455 C   0  0  0  0  0  0  0  0  0  0  0  0
   21.7804  -10.8092  -16.9709 O   0  0  0  0  0  0  0  0  0  0  0  0
   20.2915   -8.7948  -11.7432 C   0  0  0  0  0  0  0  0  0  0  0  0
   20.5941   -9.2890  -13.1364 C   0  0  1  0  0  0  0  0  0  0  0  0
   19.2453   -9.7196  -13.7332 C   0  0  0  0  0  0  0  0  0  0  0  0
   21.1320   -8.2277  -14.0089 C   0  0  0  0  0  0  0  0  0  0  0  0
   21.5250   -8.5739  -15.3900 C   0  0  2  0  0  0  0  0  0  0  0  0
   22.7699   -9.2123  -15.5965 N   0  0  0  0  0  0  0  0  0  0  0  0
   21.5117   -7.2798  -16.1742 C   0  0  0  0  0  0  0  0  0  0  0  0
   22.5798   -6.6301  -16.2623 O   0  0  0  0  0  0  0  0  0  0  0  0
   19.1616   -6.4408  -19.3956 O   0  0  0  0  0  0  0  0  0  0  0  0
   19.0769   -5.4448  -18.4228 C   0  0  0  0  0  0  0  0  0  0  0  0
   20.3081   -5.5508  -17.5526 C   0  0  2  0  0  0  0  0  0  0  0  0
   20.3440   -6.7828  -16.8060 N   0  0  0  0  0  0  0  0  0  0  0  0
   20.3942   -4.3619  -16.6810 C   0  0  0  0  0  0  0  0  0  0  0  0
   21.0398   -3.1914  -17.0440 O   0  0  0  0  0  0  0  0  0  0  0  0
   19.8548   -4.4132  -15.5518 O   0  0  0  0  0  0  0  0  0  0  0  0
  2  1  1  6
  2  4  1  0
  3  2  1  0
  4  5  2  0
  7  6  1  1
  7  9  1  0
  8  7  1  0
 10  9  1  1
 10 12  1  0
 11 10  1  0
 11  4  1  0
 12 13  2  0
 15 14  1  0
 16 15  1  1
 16 18  1  0
 17 16  1  0
 17 12  1  0
 18 20  2  0
 18 19  1  0
M  END
$$$$
