ALS.pdb
     RDKit          3D

 20 19  0  0  1  0  0  0  0  0999 V2000
   25.8172  -17.0794  -16.9331 C   0  0  0  0  0  0  0  0  0  0  0  0
   26.9025  -17.9053  -16.2424 C   0  0  2  0  0  0  0  0  0  0  0  0
   27.7008  -18.5002  -17.2880 N   0  0  0  0  0  0  0  0  0  0  0  0
   26.2943  -18.9605  -15.4287 C   0  0  0  0  0  0  0  0  0  0  0  0
   26.1867  -20.1235  -15.9523 O   0  0  0  0  0  0  0  0  0  0  0  0
   25.9955  -22.2198  -11.3145 C   0  0  0  0  0  0  0  0  0  0  0  0
   25.1280  -21.0065  -11.0859 C   0  0  1  0  0  0  0  0  0  0  0  0
   25.3060  -20.6339   -9.6059 C   0  0  0  0  0  0  0  0  0  0  0  0
   25.5644  -19.8413  -11.8789 C   0  0  0  0  0  0  0  0  0  0  0  0
   25.3588  -19.8595  -13.3414 C   0  0  2  0  0  0  0  0  0  0  0  0
   25.8224  -18.7604  -14.1009 N   0  0  0  0  0  0  0  0  0  0  0  0
   23.8683  -20.0016  -13.5607 C   0  0  0  0  0  0  0  0  0  0  0  0
   23.1385  -19.0097  -13.3277 O   0  0  0  0  0  0  0  0  0  0  0  0
   22.3890  -22.5287  -16.2217 O   0  0  0  0  0  0  0  0  0  0  0  0
   21.5526  -22.5674  -15.1061 C   0  0  0  0  0  0  0  0  0  0  0  0
   21.8633  -21.3539  -14.2604 C   0  0  2  0  0  0  0  0  0  0  0  0
   23.2758  -21.2063  -14.0162 N   0  0  0  0  0  0  0  0  0  0  0  0
   21.0796  -21.4158  -13.0104 C   0  0  0  0  0  0  0  0  0  0  0  0
   19.6949  -21.4289  -12.9745 O   0  0  0  0  0  0  0  0  0  0  0  0
   21.6991  -21.4587  -11.9227 O   0  0  0  0  0  0  0  0  0  0  0  0
  2  1  1  6
  2  4  1  0
  3  2  1  0
  4  5  2  0
  7  6  1  6
  7  9  1  0
  8  7  1  0
 10  9  1  1
 10 12  1  0
 11 10  1  0
 11  4  1  0
 12 13  2  0
 15 14  1  0
 16 15  1  1
 16 18  1  0
 17 16  1  0
 17 12  1  0
 18 20  2  0
 18 19  1  0
M  END
$$$$
