ALS.pdb
     RDKit          3D

 20 19  0  0  1  0  0  0  0  0999 V2000
   16.7878   -8.1920  -18.7980 C   0  0  0  0  0  0  0  0  0  0  0  0
   17.7148   -9.4023  -18.6850 C   0  0  2  0  0  0  0  0  0  0  0  0
   16.8677  -10.5687  -18.6046 N   0  0  0  0  0  0  0  0  0  0  0  0
   18.5304   -9.3034  -17.4725 C   0  0  0  0  0  0  0  0  0  0  0  0
   17.9267   -9.3738  -16.3460 O   0  0  0  0  0  0  0  0  0  0  0  0
   21.8557  -10.0546  -13.5862 C   0  0  0  0  0  0  0  0  0  0  0  0
   22.6211   -9.5521  -14.7856 C   0  0  1  0  0  0  0  0  0  0  0  0
   23.8839  -10.4229  -14.8749 C   0  0  0  0  0  0  0  0  0  0  0  0
   21.8800   -9.7372  -16.0479 C   0  0  0  0  0  0  0  0  0  0  0  0
   20.6446   -8.9581  -16.2679 C   0  0  2  0  0  0  0  0  0  0  0  0
   19.9436   -9.1350  -17.4832 N   0  0  0  0  0  0  0  0  0  0  0  0
   21.0318   -7.5006  -16.1432 C   0  0  0  0  0  0  0  0  0  0  0  0
   21.7193   -6.9904  -17.0584 O   0  0  0  0  0  0  0  0  0  0  0  0
   18.7136   -4.6967  -15.2576 O   0  0  0  0  0  0  0  0  0  0  0  0
   19.7912   -4.4954  -14.3951 C   0  0  0  0  0  0  0  0  0  0  0  0
   20.9566   -5.2981  -14.9258 C   0  0  2  0  0  0  0  0  0  0  0  0
   20.6469   -6.7011  -15.0375 N   0  0  0  0  0  0  0  0  0  0  0  0
   22.1446   -5.0494  -14.0848 C   0  0  0  0  0  0  0  0  0  0  0  0
   22.7712   -3.8177  -13.9895 O   0  0  0  0  0  0  0  0  0  0  0  0
   22.6123   -6.0029  -13.4208 O   0  0  0  0  0  0  0  0  0  0  0  0
  2  1  1  1
  2  4  1  0
  3  2  1  0
  4  5  2  0
  7  6  1  1
  7  9  1  0
  8  7  1  0
 10  9  1  6
 10 12  1  0
 11 10  1  0
 11  4  1  0
 12 13  2  0
 15 14  1  0
 16 15  1  1
 16 18  1  0
 17 16  1  0
 17 12  1  0
 18 20  2  0
 18 19  1  0
M  END
$$$$
