AAV.pdb
     RDKit          3D

 18 17  0  0  1  0  0  0  0  0999 V2000
   11.3842  -16.8322   20.8016 C   0  0  0  0  0  0  0  0  0  0  0  0
    9.9350  -17.2178   20.6077 C   0  0  2  0  0  0  0  0  0  0  0  0
    9.5628  -16.9148   19.2586 N   0  0  0  0  0  0  0  0  0  0  0  0
    9.0458  -16.5907   21.6099 C   0  0  0  0  0  0  0  0  0  0  0  0
    8.6347  -15.4258   21.3903 O   0  0  0  0  0  0  0  0  0  0  0  0
    7.0881  -17.7088   24.6850 C   0  0  0  0  0  0  0  0  0  0  0  0
    7.7382  -16.6967   23.7818 C   0  0  2  0  0  0  0  0  0  0  0  0
    8.6307  -17.2356   22.8095 N   0  0  0  0  0  0  0  0  0  0  0  0
    8.3796  -15.6661   24.6723 C   0  0  0  0  0  0  0  0  0  0  0  0
    9.6060  -15.7810   24.8881 O   0  0  0  0  0  0  0  0  0  0  0  0
    5.9641  -12.9641   26.8710 C   0  0  0  0  0  0  0  0  0  0  0  0
    7.2775  -12.4543   26.3416 C   0  0  2  0  0  0  0  0  0  0  0  0
    7.0784  -11.6738   25.0746 C   0  0  0  0  0  0  0  0  0  0  0  0
    8.2467  -13.6209   26.1374 C   0  0  2  0  0  0  0  0  0  0  0  0
    7.6680  -14.6114   25.2517 N   0  0  0  0  0  0  0  0  0  0  0  0
    8.4171  -14.2604   27.4866 C   0  0  0  0  0  0  0  0  0  0  0  0
    7.7907  -15.3157   27.7884 O   0  0  0  0  0  0  0  0  0  0  0  0
    9.2617  -13.7172   28.4387 O   0  0  0  0  0  0  0  0  0  0  0  0
  2  1  1  1
  2  3  1  0
  4  2  1  0
  4  5  2  0
  7  6  1  1
  7  8  1  0
  8  4  1  0
  9  7  1  0
  9 15  1  0
 10  9  2  0
 12 11  1  6
 12 14  1  0
 13 12  1  0
 14 15  1  6
 14 16  1  0
 16 17  2  0
 16 18  1  0
M  END
$$$$
