AAV.pdb
     RDKit          3D

 18 17  0  0  1  0  0  0  0  0999 V2000
    7.9707  -15.1516   13.6098 C   0  0  0  0  0  0  0  0  0  0  0  0
    8.9325  -15.5039   14.7221 C   0  0  2  0  0  0  0  0  0  0  0  0
    9.6608  -16.6750   14.3366 N   0  0  0  0  0  0  0  0  0  0  0  0
    8.2551  -15.6458   16.0295 C   0  0  0  0  0  0  0  0  0  0  0  0
    7.6670  -14.6440   16.5035 O   0  0  0  0  0  0  0  0  0  0  0  0
    7.4923  -18.4545   18.5162 C   0  0  0  0  0  0  0  0  0  0  0  0
    7.6589  -17.0267   18.0730 C   0  0  2  0  0  0  0  0  0  0  0  0
    8.2334  -16.8558   16.7794 N   0  0  0  0  0  0  0  0  0  0  0  0
    8.4210  -16.3185   19.1611 C   0  0  0  0  0  0  0  0  0  0  0  0
    9.6659  -16.4371   19.1572 O   0  0  0  0  0  0  0  0  0  0  0  0
    7.6144  -12.6256   20.4857 C   0  0  0  0  0  0  0  0  0  0  0  0
    7.7084  -13.6013   21.6278 C   0  0  2  0  0  0  0  0  0  0  0  0
    8.3119  -12.9519   22.8396 C   0  0  0  0  0  0  0  0  0  0  0  0
    8.5031  -14.8358   21.1963 C   0  0  2  0  0  0  0  0  0  0  0  0
    7.7993  -15.5519   20.1512 N   0  0  0  0  0  0  0  0  0  0  0  0
    8.5645  -15.7323   22.4009 C   0  0  0  0  0  0  0  0  0  0  0  0
    9.4177  -15.5369   23.3124 O   0  0  0  0  0  0  0  0  0  0  0  0
    7.6928  -16.7964   22.5508 O   0  0  0  0  0  0  0  0  0  0  0  0
  2  1  1  6
  2  3  1  0
  4  2  1  0
  4  5  2  0
  7  6  1  1
  7  8  1  0
  8  4  1  0
  9  7  1  0
  9 15  1  0
 10  9  2  0
 12 11  1  6
 12 14  1  0
 13 12  1  0
 14 15  1  6
 14 16  1  0
 16 17  2  0
 16 18  1  0
M  END
$$$$
