AAV.pdb
     RDKit          3D

 18 17  0  0  1  0  0  0  0  0999 V2000
    8.8330  -12.3724   19.4610 C   0  0  0  0  0  0  0  0  0  0  0  0
    8.4272  -13.8216   19.3138 C   0  0  2  0  0  0  0  0  0  0  0  0
    7.5150  -13.9267   18.2151 N   0  0  0  0  0  0  0  0  0  0  0  0
    7.8895  -14.3870   20.5707 C   0  0  0  0  0  0  0  0  0  0  0  0
    6.7317  -14.0546   20.9218 O   0  0  0  0  0  0  0  0  0  0  0  0
    8.6557  -17.1800   22.9962 C   0  0  0  0  0  0  0  0  0  0  0  0
    8.1765  -15.7936   22.6628 C   0  0  2  0  0  0  0  0  0  0  0  0
    8.6128  -15.2871   21.4036 N   0  0  0  0  0  0  0  0  0  0  0  0
    8.5541  -14.9112   23.8227 C   0  0  0  0  0  0  0  0  0  0  0  0
    9.7309  -14.4897   23.8607 O   0  0  0  0  0  0  0  0  0  0  0  0
    6.0821  -12.2055   25.3621 C   0  0  0  0  0  0  0  0  0  0  0  0
    6.7239  -12.9939   26.4719 C   0  0  2  0  0  0  0  0  0  0  0  0
    7.0290  -12.1128   27.6487 C   0  0  0  0  0  0  0  0  0  0  0  0
    7.9810  -13.6967   25.9542 C   0  0  2  0  0  0  0  0  0  0  0  0
    7.6559  -14.5560   24.8334 N   0  0  0  0  0  0  0  0  0  0  0  0
    8.4588  -14.5737   27.0771 C   0  0  0  0  0  0  0  0  0  0  0  0
    8.0341  -15.7573   27.2019 O   0  0  0  0  0  0  0  0  0  0  0  0
    9.3755  -14.1160   28.0071 O   0  0  0  0  0  0  0  0  0  0  0  0
  2  1  1  1
  2  3  1  0
  4  2  1  0
  4  5  2  0
  7  6  1  1
  7  8  1  0
  8  4  1  0
  9  7  1  0
  9 15  1  0
 10  9  2  0
 12 11  1  6
 12 14  1  0
 13 12  1  0
 14 15  1  6
 14 16  1  0
 16 17  2  0
 16 18  1  0
M  END
$$$$
