AAV.pdb
     RDKit          3D

 18 17  0  0  1  0  0  0  0  0999 V2000
    5.8583  -18.6533   24.5274 C   0  0  0  0  0  0  0  0  0  0  0  0
    6.1645  -18.4200   23.0651 C   0  0  2  0  0  0  0  0  0  0  0  0
    6.5771  -19.6626   22.4853 N   0  0  0  0  0  0  0  0  0  0  0  0
    7.1443  -17.3306   22.8610 C   0  0  0  0  0  0  0  0  0  0  0  0
    8.3496  -17.5618   23.1216 O   0  0  0  0  0  0  0  0  0  0  0  0
    7.1256  -13.8347   21.3030 C   0  0  0  0  0  0  0  0  0  0  0  0
    7.7085  -14.9834   22.0799 C   0  0  2  0  0  0  0  0  0  0  0  0
    6.7954  -16.0347   22.3855 N   0  0  0  0  0  0  0  0  0  0  0  0
    8.3687  -14.3952   23.2983 C   0  0  0  0  0  0  0  0  0  0  0  0
    9.4001  -13.7119   23.1158 O   0  0  0  0  0  0  0  0  0  0  0  0
    6.1046  -13.9525   26.6526 C   0  0  0  0  0  0  0  0  0  0  0  0
    7.3583  -13.1341   26.4982 C   0  0  2  0  0  0  0  0  0  0  0  0
    7.0729  -11.8461   25.7814 C   0  0  0  0  0  0  0  0  0  0  0  0
    8.4315  -13.9533   25.7778 C   0  0  2  0  0  0  0  0  0  0  0  0
    7.8797  -14.5824   24.5946 N   0  0  0  0  0  0  0  0  0  0  0  0
    8.8300  -15.0450   26.7304 C   0  0  0  0  0  0  0  0  0  0  0  0
    8.4373  -16.2335   26.5564 O   0  0  0  0  0  0  0  0  0  0  0  0
    9.6365  -14.7860   27.8247 O   0  0  0  0  0  0  0  0  0  0  0  0
  2  1  1  1
  2  3  1  0
  4  2  1  0
  4  5  2  0
  7  6  1  1
  7  8  1  0
  8  4  1  0
  9  7  1  0
  9 15  1  0
 10  9  2  0
 12 11  1  6
 12 14  1  0
 13 12  1  0
 14 15  1  6
 14 16  1  0
 16 17  2  0
 16 18  1  0
M  END
$$$$
