AAV.pdb
     RDKit          3D

 18 17  0  0  1  0  0  0  0  0999 V2000
    9.3791  -12.6047   19.4551 C   0  0  0  0  0  0  0  0  0  0  0  0
    8.3871  -13.7414   19.3552 C   0  0  2  0  0  0  0  0  0  0  0  0
    7.3897  -13.3881   18.3904 N   0  0  0  0  0  0  0  0  0  0  0  0
    7.8180  -14.1103   20.6699 C   0  0  0  0  0  0  0  0  0  0  0  0
    6.8497  -13.4413   21.1047 O   0  0  0  0  0  0  0  0  0  0  0  0
    7.8935  -17.0792   23.0019 C   0  0  0  0  0  0  0  0  0  0  0  0
    7.7680  -15.6074   22.7179 C   0  0  2  0  0  0  0  0  0  0  0  0
    8.3078  -15.1821   21.4688 N   0  0  0  0  0  0  0  0  0  0  0  0
    8.3579  -14.8836   23.8988 C   0  0  0  0  0  0  0  0  0  0  0  0
    9.5994  -14.7338   23.9154 O   0  0  0  0  0  0  0  0  0  0  0  0
    5.7973  -13.4047   26.9458 C   0  0  0  0  0  0  0  0  0  0  0  0
    7.0961  -12.7006   26.6586 C   0  0  2  0  0  0  0  0  0  0  0  0
    6.8854  -11.5488   25.7188 C   0  0  0  0  0  0  0  0  0  0  0  0
    8.1196  -13.6962   26.1079 C   0  0  2  0  0  0  0  0  0  0  0  0
    7.5840  -14.3859   24.9512 N   0  0  0  0  0  0  0  0  0  0  0  0
    8.3298  -14.7173   27.1903 C   0  0  0  0  0  0  0  0  0  0  0  0
    7.7348  -15.8317   27.1556 O   0  0  0  0  0  0  0  0  0  0  0  0
    9.1780  -14.4720   28.2557 O   0  0  0  0  0  0  0  0  0  0  0  0
  2  1  1  1
  2  3  1  0
  4  2  1  0
  4  5  2  0
  7  6  1  1
  7  8  1  0
  8  4  1  0
  9  7  1  0
  9 15  1  0
 10  9  2  0
 12 11  1  6
 12 14  1  0
 13 12  1  0
 14 15  1  6
 14 16  1  0
 16 17  2  0
 16 18  1  0
M  END
$$$$
