AAV.pdb
     RDKit          3D

 18 17  0  0  1  0  0  0  0  0999 V2000
    8.8152  -12.3486   19.2935 C   0  0  0  0  0  0  0  0  0  0  0  0
    8.3459  -13.7858   19.2704 C   0  0  2  0  0  0  0  0  0  0  0  0
    7.4136  -13.9402   18.1946 N   0  0  0  0  0  0  0  0  0  0  0  0
    7.8037  -14.2229   20.5755 C   0  0  0  0  0  0  0  0  0  0  0  0
    6.6616  -13.8223   20.9063 O   0  0  0  0  0  0  0  0  0  0  0  0
    8.2260  -17.0474   22.9406 C   0  0  0  0  0  0  0  0  0  0  0  0
    8.0032  -15.5775   22.7117 C   0  0  2  0  0  0  0  0  0  0  0  0
    8.5057  -15.0726   21.4768 N   0  0  0  0  0  0  0  0  0  0  0  0
    8.5531  -14.8605   23.9159 C   0  0  0  0  0  0  0  0  0  0  0  0
    9.7701  -14.5728   23.9034 O   0  0  0  0  0  0  0  0  0  0  0  0
    5.8981  -13.5634   26.9671 C   0  0  0  0  0  0  0  0  0  0  0  0
    7.1423  -12.7844   26.6352 C   0  0  2  0  0  0  0  0  0  0  0  0
    6.8505  -11.7126   25.6251 C   0  0  0  0  0  0  0  0  0  0  0  0
    8.2388  -13.7340   26.1473 C   0  0  2  0  0  0  0  0  0  0  0  0
    7.7687  -14.5142   25.0201 N   0  0  0  0  0  0  0  0  0  0  0  0
    8.5003  -14.6843   27.2817 C   0  0  0  0  0  0  0  0  0  0  0  0
    7.9894  -15.8401   27.2910 O   0  0  0  0  0  0  0  0  0  0  0  0
    9.3057  -14.3267   28.3486 O   0  0  0  0  0  0  0  0  0  0  0  0
  2  1  1  1
  2  3  1  0
  4  2  1  0
  4  5  2  0
  7  6  1  1
  7  8  1  0
  8  4  1  0
  9  7  1  0
  9 15  1  0
 10  9  2  0
 12 11  1  6
 12 14  1  0
 13 12  1  0
 14 15  1  6
 14 16  1  0
 16 17  2  0
 16 18  1  0
M  END
$$$$
