AAV.pdb
     RDKit          3D

 18 17  0  0  1  0  0  0  0  0999 V2000
    8.8026  -12.4511   19.4222 C   0  0  0  0  0  0  0  0  0  0  0  0
    8.2860  -13.8710   19.3621 C   0  0  2  0  0  0  0  0  0  0  0  0
    7.2876  -13.9463   18.3384 N   0  0  0  0  0  0  0  0  0  0  0  0
    7.8074  -14.3529   20.6763 C   0  0  0  0  0  0  0  0  0  0  0  0
    6.7439  -13.8685   21.1331 O   0  0  0  0  0  0  0  0  0  0  0  0
    8.5564  -17.2068   23.0682 C   0  0  0  0  0  0  0  0  0  0  0  0
    8.0771  -15.8223   22.7272 C   0  0  2  0  0  0  0  0  0  0  0  0
    8.4863  -15.3356   21.4512 N   0  0  0  0  0  0  0  0  0  0  0  0
    8.4869  -14.9264   23.8655 C   0  0  0  0  0  0  0  0  0  0  0  0
    9.6605  -14.4945   23.8590 O   0  0  0  0  0  0  0  0  0  0  0  0
    6.0399  -12.2345   25.4478 C   0  0  0  0  0  0  0  0  0  0  0  0
    6.7302  -12.9921   26.5499 C   0  0  2  0  0  0  0  0  0  0  0  0
    7.0679  -12.0828   27.6959 C   0  0  0  0  0  0  0  0  0  0  0  0
    7.9754  -13.6929   26.0018 C   0  0  2  0  0  0  0  0  0  0  0  0
    7.6212  -14.5700   24.9038 N   0  0  0  0  0  0  0  0  0  0  0  0
    8.4956  -14.5508   27.1206 C   0  0  0  0  0  0  0  0  0  0  0  0
    8.1081  -15.7461   27.2559 O   0  0  0  0  0  0  0  0  0  0  0  0
    9.4119  -14.0624   28.0353 O   0  0  0  0  0  0  0  0  0  0  0  0
  2  1  1  1
  2  3  1  0
  4  2  1  0
  4  5  2  0
  7  6  1  1
  7  8  1  0
  8  4  1  0
  9  7  1  0
  9 15  1  0
 10  9  2  0
 12 11  1  6
 12 14  1  0
 13 12  1  0
 14 15  1  6
 14 16  1  0
 16 17  2  0
 16 18  1  0
M  END
$$$$
