AAV.pdb
     RDKit          3D

 18 17  0  0  1  0  0  0  0  0999 V2000
    5.6225  -18.3567   24.6346 C   0  0  0  0  0  0  0  0  0  0  0  0
    6.1451  -18.3871   23.2160 C   0  0  2  0  0  0  0  0  0  0  0  0
    6.6706  -19.6934   22.9552 N   0  0  0  0  0  0  0  0  0  0  0  0
    7.1193  -17.3060   22.9507 C   0  0  0  0  0  0  0  0  0  0  0  0
    8.3064  -17.4748   23.3202 O   0  0  0  0  0  0  0  0  0  0  0  0
    7.1545  -13.9916   21.0336 C   0  0  0  0  0  0  0  0  0  0  0  0
    7.6937  -15.0368   21.9715 C   0  0  2  0  0  0  0  0  0  0  0  0
    6.7847  -16.0849   22.2995 N   0  0  0  0  0  0  0  0  0  0  0  0
    8.2231  -14.3084   23.1780 C   0  0  0  0  0  0  0  0  0  0  0  0
    9.1795  -13.5231   22.9974 O   0  0  0  0  0  0  0  0  0  0  0  0
    6.0750  -12.3348   25.4053 C   0  0  0  0  0  0  0  0  0  0  0  0
    6.9115  -13.1436   26.3598 C   0  0  2  0  0  0  0  0  0  0  0  0
    7.3285  -12.3160   27.5411 C   0  0  0  0  0  0  0  0  0  0  0  0
    8.1211  -13.7289   25.6276 C   0  0  2  0  0  0  0  0  0  0  0  0
    7.6947  -14.4761   24.4613 N   0  0  0  0  0  0  0  0  0  0  0  0
    8.7557  -14.6994   26.5835 C   0  0  0  0  0  0  0  0  0  0  0  0
    9.3617  -14.2922   27.6150 O   0  0  0  0  0  0  0  0  0  0  0  0
    8.6976  -16.0649   26.3667 O   0  0  0  0  0  0  0  0  0  0  0  0
  2  1  1  1
  2  3  1  0
  4  2  1  0
  4  5  2  0
  7  6  1  6
  7  8  1  0
  8  4  1  0
  9  7  1  0
  9 15  1  0
 10  9  2  0
 12 11  1  6
 12 14  1  0
 13 12  1  0
 14 15  1  6
 14 16  1  0
 16 17  2  0
 16 18  1  0
M  END
$$$$
