AAV.pdb
     RDKit          3D

 18 17  0  0  1  0  0  0  0  0999 V2000
    8.6602  -12.6883   19.4411 C   0  0  0  0  0  0  0  0  0  0  0  0
    8.1450  -14.1098   19.4491 C   0  0  2  0  0  0  0  0  0  0  0  0
    7.1025  -14.2188   18.4735 N   0  0  0  0  0  0  0  0  0  0  0  0
    7.7260  -14.5501   20.7978 C   0  0  0  0  0  0  0  0  0  0  0  0
    6.6833  -14.0516   21.2861 O   0  0  0  0  0  0  0  0  0  0  0  0
    8.5379  -17.3625   23.2069 C   0  0  0  0  0  0  0  0  0  0  0  0
    8.0767  -15.9707   22.8707 C   0  0  2  0  0  0  0  0  0  0  0  0
    8.4402  -15.5079   21.5722 N   0  0  0  0  0  0  0  0  0  0  0  0
    8.5577  -15.0725   23.9791 C   0  0  0  0  0  0  0  0  0  0  0  0
    9.7403  -14.6707   23.9166 O   0  0  0  0  0  0  0  0  0  0  0  0
    6.2760  -12.2745   25.5709 C   0  0  0  0  0  0  0  0  0  0  0  0
    6.9674  -13.0271   26.6757 C   0  0  2  0  0  0  0  0  0  0  0  0
    7.3748  -12.0991   27.7835 C   0  0  0  0  0  0  0  0  0  0  0  0
    8.1669  -13.7940   26.1144 C   0  0  2  0  0  0  0  0  0  0  0  0
    7.7469  -14.6823   25.0491 N   0  0  0  0  0  0  0  0  0  0  0  0
    8.6802  -14.6451   27.2415 C   0  0  0  0  0  0  0  0  0  0  0  0
    8.2456  -15.8185   27.4186 O   0  0  0  0  0  0  0  0  0  0  0  0
    9.6412  -14.1741   28.1187 O   0  0  0  0  0  0  0  0  0  0  0  0
  2  1  1  1
  2  3  1  0
  4  2  1  0
  4  5  2  0
  7  6  1  1
  7  8  1  0
  8  4  1  0
  9  7  1  0
  9 15  1  0
 10  9  2  0
 12 11  1  6
 12 14  1  0
 13 12  1  0
 14 15  1  6
 14 16  1  0
 16 17  2  0
 16 18  1  0
M  END
$$$$
