AAV.pdb
     RDKit          3D

 18 17  0  0  1  0  0  0  0  0999 V2000
    6.5129  -17.7042   18.1600 C   0  0  0  0  0  0  0  0  0  0  0  0
    7.3410  -16.5222   17.7089 C   0  0  2  0  0  0  0  0  0  0  0  0
    8.1765  -16.9425   16.6247 N   0  0  0  0  0  0  0  0  0  0  0  0
    8.0986  -15.9073   18.8209 C   0  0  0  0  0  0  0  0  0  0  0  0
    9.1559  -16.4676   19.1981 O   0  0  0  0  0  0  0  0  0  0  0  0
    7.7267  -12.8465   21.1074 C   0  0  0  0  0  0  0  0  0  0  0  0
    8.3427  -14.1260   20.6112 C   0  0  2  0  0  0  0  0  0  0  0  0
    7.6946  -14.7153   19.4865 N   0  0  0  0  0  0  0  0  0  0  0  0
    8.4393  -15.0511   21.7950 C   0  0  0  0  0  0  0  0  0  0  0  0
    7.3661  -15.4288   22.3142 O   0  0  0  0  0  0  0  0  0  0  0  0
   11.9124  -17.2436   22.4583 C   0  0  0  0  0  0  0  0  0  0  0  0
   10.5774  -17.6483   23.0232 C   0  0  2  0  0  0  0  0  0  0  0  0
    9.8119  -18.4877   22.0415 C   0  0  0  0  0  0  0  0  0  0  0  0
    9.7868  -16.4052   23.4374 C   0  0  2  0  0  0  0  0  0  0  0  0
    9.6579  -15.4910   22.3202 N   0  0  0  0  0  0  0  0  0  0  0  0
   10.6101  -15.7217   24.4926 C   0  0  0  0  0  0  0  0  0  0  0  0
   10.6448  -16.1637   25.6760 O   0  0  0  0  0  0  0  0  0  0  0  0
   11.3540  -14.5911   24.2044 O   0  0  0  0  0  0  0  0  0  0  0  0
  2  1  1  1
  2  3  1  0
  4  2  1  0
  4  5  2  0
  7  6  1  1
  7  8  1  0
  8  4  1  0
  9  7  1  0
  9 15  1  0
 10  9  2  0
 12 11  1  6
 12 14  1  0
 13 12  1  0
 14 15  1  6
 14 16  1  0
 16 17  2  0
 16 18  1  0
M  END
$$$$
