AAV.pdb
     RDKit          3D

 18 17  0  0  1  0  0  0  0  0999 V2000
    7.5180  -15.9456   18.9106 C   0  0  0  0  0  0  0  0  0  0  0  0
    8.3913  -16.2257   20.1127 C   0  0  2  0  0  0  0  0  0  0  0  0
    8.7952  -17.5988   20.0684 N   0  0  0  0  0  0  0  0  0  0  0  0
    7.7349  -15.8545   21.3853 C   0  0  0  0  0  0  0  0  0  0  0  0
    7.3743  -14.6627   21.5400 O   0  0  0  0  0  0  0  0  0  0  0  0
    6.6678  -17.6249   24.6172 C   0  0  0  0  0  0  0  0  0  0  0  0
    6.9697  -16.4476   23.7307 C   0  0  2  0  0  0  0  0  0  0  0  0
    7.4896  -16.7743   22.4441 N   0  0  0  0  0  0  0  0  0  0  0  0
    7.8639  -15.5272   24.5180 C   0  0  0  0  0  0  0  0  0  0  0  0
    9.0982  -15.6719   24.3783 O   0  0  0  0  0  0  0  0  0  0  0  0
    6.1861  -12.7738   27.3061 C   0  0  0  0  0  0  0  0  0  0  0  0
    7.3990  -12.3707   26.5115 C   0  0  2  0  0  0  0  0  0  0  0  0
    7.0075  -11.5639   25.3073 C   0  0  0  0  0  0  0  0  0  0  0  0
    8.2032  -13.6124   26.1197 C   0  0  2  0  0  0  0  0  0  0  0  0
    7.3730  -14.5408   25.3785 N   0  0  0  0  0  0  0  0  0  0  0  0
    8.5927  -14.2790   27.4090 C   0  0  0  0  0  0  0  0  0  0  0  0
    7.9759  -15.3011   27.8234 O   0  0  0  0  0  0  0  0  0  0  0  0
    9.6351  -13.7976   28.1814 O   0  0  0  0  0  0  0  0  0  0  0  0
  2  1  1  6
  2  3  1  0
  4  2  1  0
  4  5  2  0
  7  6  1  1
  7  8  1  0
  8  4  1  0
  9  7  1  0
  9 15  1  0
 10  9  2  0
 12 11  1  6
 12 14  1  0
 13 12  1  0
 14 15  1  6
 14 16  1  0
 16 17  2  0
 16 18  1  0
M  END
$$$$
