AAV.pdb
     RDKit          3D

 18 17  0  0  1  0  0  0  0  0999 V2000
   10.0105  -16.5389   19.9567 C   0  0  0  0  0  0  0  0  0  0  0  0
    8.5978  -17.0714   20.0408 C   0  0  2  0  0  0  0  0  0  0  0  0
    7.9242  -16.7631   18.8154 N   0  0  0  0  0  0  0  0  0  0  0  0
    7.8802  -16.5796   21.2373 C   0  0  0  0  0  0  0  0  0  0  0  0
    7.4202  -15.4125   21.2137 O   0  0  0  0  0  0  0  0  0  0  0  0
    6.5854  -18.0503   24.5200 C   0  0  0  0  0  0  0  0  0  0  0  0
    6.9741  -16.9425   23.5794 C   0  0  2  0  0  0  0  0  0  0  0  0
    7.6826  -17.3569   22.4137 N   0  0  0  0  0  0  0  0  0  0  0  0
    7.7173  -15.9186   24.3953 C   0  0  0  0  0  0  0  0  0  0  0  0
    8.9661  -15.9853   24.3962 O   0  0  0  0  0  0  0  0  0  0  0  0
    5.7912  -12.3813   25.4697 C   0  0  0  0  0  0  0  0  0  0  0  0
    6.7448  -12.9182   26.5030 C   0  0  2  0  0  0  0  0  0  0  0  0
    7.4262  -11.7994   27.2366 C   0  0  0  0  0  0  0  0  0  0  0  0
    7.7571  -13.8566   25.8422 C   0  0  2  0  0  0  0  0  0  0  0  0
    7.0743  -14.9205   25.1335 N   0  0  0  0  0  0  0  0  0  0  0  0
    8.5364  -14.4833   26.9639 C   0  0  0  0  0  0  0  0  0  0  0  0
    8.0844  -15.4853   27.5874 O   0  0  0  0  0  0  0  0  0  0  0  0
    9.7689  -13.9861   27.3493 O   0  0  0  0  0  0  0  0  0  0  0  0
  2  1  1  6
  2  3  1  0
  4  2  1  0
  4  5  2  0
  7  6  1  1
  7  8  1  0
  8  4  1  0
  9  7  1  0
  9 15  1  0
 10  9  2  0
 12 11  1  6
 12 14  1  0
 13 12  1  0
 14 15  1  1
 14 16  1  0
 16 17  2  0
 16 18  1  0
M  END
$$$$
