AAV.pdb
     RDKit          3D

 18 17  0  0  1  0  0  0  0  0999 V2000
    9.8257  -13.0524   19.5824 C   0  0  0  0  0  0  0  0  0  0  0  0
    8.5186  -13.8011   19.4512 C   0  0  2  0  0  0  0  0  0  0  0  0
    7.6809  -13.0914   18.5319 N   0  0  0  0  0  0  0  0  0  0  0  0
    7.8719  -14.0402   20.7600 C   0  0  0  0  0  0  0  0  0  0  0  0
    7.1991  -13.1102   21.2667 O   0  0  0  0  0  0  0  0  0  0  0  0
    7.2981  -16.9919   23.1172 C   0  0  0  0  0  0  0  0  0  0  0  0
    7.4000  -15.5355   22.7549 C   0  0  2  0  0  0  0  0  0  0  0  0
    7.9707  -15.2666   21.4764 N   0  0  0  0  0  0  0  0  0  0  0  0
    8.1244  -14.8547   23.8855 C   0  0  0  0  0  0  0  0  0  0  0  0
    9.3700  -14.7793   23.8030 O   0  0  0  0  0  0  0  0  0  0  0  0
    5.9097  -13.2077   27.1177 C   0  0  0  0  0  0  0  0  0  0  0  0
    7.2249  -12.5944   26.7187 C   0  0  2  0  0  0  0  0  0  0  0  0
    7.0160  -11.4403   25.7813 C   0  0  0  0  0  0  0  0  0  0  0  0
    8.1338  -13.6612   26.1041 C   0  0  2  0  0  0  0  0  0  0  0  0
    7.4679  -14.3174   24.9967 N   0  0  0  0  0  0  0  0  0  0  0  0
    8.3525  -14.6894   27.1780 C   0  0  0  0  0  0  0  0  0  0  0  0
    7.7078  -15.7763   27.1769 O   0  0  0  0  0  0  0  0  0  0  0  0
    9.2631  -14.4809   28.1989 O   0  0  0  0  0  0  0  0  0  0  0  0
  2  1  1  1
  2  3  1  0
  4  2  1  0
  4  5  2  0
  7  6  1  1
  7  8  1  0
  8  4  1  0
  9  7  1  0
  9 15  1  0
 10  9  2  0
 12 11  1  6
 12 14  1  0
 13 12  1  0
 14 15  1  6
 14 16  1  0
 16 17  2  0
 16 18  1  0
M  END
$$$$
