AAV.pdb
     RDKit          3D

 18 17  0  0  1  0  0  0  0  0999 V2000
    9.5782  -16.8567   19.9671 C   0  0  0  0  0  0  0  0  0  0  0  0
    8.1902  -17.4369   20.1192 C   0  0  2  0  0  0  0  0  0  0  0  0
    7.4559  -17.1743   18.9183 N   0  0  0  0  0  0  0  0  0  0  0  0
    7.5056  -16.9494   21.3366 C   0  0  0  0  0  0  0  0  0  0  0  0
    6.9191  -15.8415   21.2826 O   0  0  0  0  0  0  0  0  0  0  0  0
    6.6382  -18.2932   24.8082 C   0  0  0  0  0  0  0  0  0  0  0  0
    6.8727  -17.2219   23.7786 C   0  0  2  0  0  0  0  0  0  0  0  0
    7.4752  -17.6673   22.5657 N   0  0  0  0  0  0  0  0  0  0  0  0
    7.6462  -16.1245   24.4597 C   0  0  0  0  0  0  0  0  0  0  0  0
    8.8909  -16.1431   24.3394 O   0  0  0  0  0  0  0  0  0  0  0  0
    5.8137  -12.5350   25.3621 C   0  0  0  0  0  0  0  0  0  0  0  0
    6.7586  -13.0114   26.4322 C   0  0  2  0  0  0  0  0  0  0  0  0
    7.4692  -11.8548   27.0739 C   0  0  0  0  0  0  0  0  0  0  0  0
    7.7458  -14.0227   25.8451 C   0  0  2  0  0  0  0  0  0  0  0  0
    7.0352  -15.1107   25.2035 N   0  0  0  0  0  0  0  0  0  0  0  0
    8.4976  -14.5958   27.0133 C   0  0  0  0  0  0  0  0  0  0  0  0
    8.0140  -15.5444   27.6940 O   0  0  0  0  0  0  0  0  0  0  0  0
    9.7385  -14.1057   27.3805 O   0  0  0  0  0  0  0  0  0  0  0  0
  2  1  1  6
  2  3  1  0
  4  2  1  0
  4  5  2  0
  7  6  1  1
  7  8  1  0
  8  4  1  0
  9  7  1  0
  9 15  1  0
 10  9  2  0
 12 11  1  6
 12 14  1  0
 13 12  1  0
 14 15  1  1
 14 16  1  0
 16 17  2  0
 16 18  1  0
M  END
$$$$
