AAV.pdb
     RDKit          3D

 18 17  0  0  1  0  0  0  0  0999 V2000
    9.5125  -12.7560   19.9915 C   0  0  0  0  0  0  0  0  0  0  0  0
    8.4236  -13.7965   19.8574 C   0  0  2  0  0  0  0  0  0  0  0  0
    7.3293  -13.2163   19.1390 N   0  0  0  0  0  0  0  0  0  0  0  0
    8.0241  -14.3660   21.1630 C   0  0  0  0  0  0  0  0  0  0  0  0
    7.1207  -13.7845   21.8110 O   0  0  0  0  0  0  0  0  0  0  0  0
    8.3525  -17.6083   23.0534 C   0  0  0  0  0  0  0  0  0  0  0  0
    8.2833  -16.1069   22.9905 C   0  0  2  0  0  0  0  0  0  0  0  0
    8.6076  -15.5369   21.7247 N   0  0  0  0  0  0  0  0  0  0  0  0
    9.1365  -15.5838   24.1152 C   0  0  0  0  0  0  0  0  0  0  0  0
   10.3538  -15.4196   23.8805 O   0  0  0  0  0  0  0  0  0  0  0  0
    7.7744  -12.8361   26.5202 C   0  0  0  0  0  0  0  0  0  0  0  0
    8.5177  -13.8418   27.3576 C   0  0  2  0  0  0  0  0  0  0  0  0
    9.3167  -13.1603   28.4307 C   0  0  0  0  0  0  0  0  0  0  0  0
    9.4034  -14.7132   26.4642 C   0  0  2  0  0  0  0  0  0  0  0  0
    8.6264  -15.2829   25.3816 N   0  0  0  0  0  0  0  0  0  0  0  0
    9.8788  -15.8464   27.3292 C   0  0  0  0  0  0  0  0  0  0  0  0
    9.1552  -16.8646   27.5204 O   0  0  0  0  0  0  0  0  0  0  0  0
   11.1190  -15.8123   27.9419 O   0  0  0  0  0  0  0  0  0  0  0  0
  2  1  1  1
  2  3  1  0
  4  2  1  0
  4  5  2  0
  7  6  1  6
  7  8  1  0
  8  4  1  0
  9  7  1  0
  9 15  1  0
 10  9  2  0
 12 11  1  6
 12 14  1  0
 13 12  1  0
 14 15  1  6
 14 16  1  0
 16 17  2  0
 16 18  1  0
M  END
$$$$
