AAV.pdb
     RDKit          3D

 18 17  0  0  1  0  0  0  0  0999 V2000
   11.0214  -18.3853   21.6759 C   0  0  0  0  0  0  0  0  0  0  0  0
   10.8130  -17.1831   20.7829 C   0  0  2  0  0  0  0  0  0  0  0  0
   12.0842  -16.7826   20.2592 N   0  0  0  0  0  0  0  0  0  0  0  0
   10.0974  -16.0866   21.4713 C   0  0  0  0  0  0  0  0  0  0  0  0
   10.7758  -15.2446   22.1078 O   0  0  0  0  0  0  0  0  0  0  0  0
    6.4872  -14.8446   21.7949 C   0  0  0  0  0  0  0  0  0  0  0  0
    7.9367  -14.9610   22.1802 C   0  0  2  0  0  0  0  0  0  0  0  0
    8.6820  -15.9339   21.4518 N   0  0  0  0  0  0  0  0  0  0  0  0
    7.9759  -15.1740   23.6700 C   0  0  0  0  0  0  0  0  0  0  0  0
    8.2842  -16.3159   24.0762 O   0  0  0  0  0  0  0  0  0  0  0  0
    5.8643  -12.6888   26.3246 C   0  0  0  0  0  0  0  0  0  0  0  0
    7.2690  -13.0465   26.7298 C   0  0  2  0  0  0  0  0  0  0  0  0
    8.2149  -11.9172   26.4396 C   0  0  0  0  0  0  0  0  0  0  0  0
    7.7019  -14.3370   26.0304 C   0  0  2  0  0  0  0  0  0  0  0  0
    7.6866  -14.1634   24.5916 N   0  0  0  0  0  0  0  0  0  0  0  0
    6.6624  -15.3657   26.3761 C   0  0  0  0  0  0  0  0  0  0  0  0
    5.6578  -15.5488   25.6316 O   0  0  0  0  0  0  0  0  0  0  0  0
    6.7705  -16.1428   27.5160 O   0  0  0  0  0  0  0  0  0  0  0  0
  2  1  1  1
  2  3  1  0
  4  2  1  0
  4  5  2  0
  7  6  1  6
  7  8  1  0
  8  4  1  0
  9  7  1  0
  9 15  1  0
 10  9  2  0
 12 11  1  6
 12 14  1  0
 13 12  1  0
 14 15  1  6
 14 16  1  0
 16 17  2  0
 16 18  1  0
M  END
$$$$
