VFN.pdb
     RDKit          3D

 27 27  0  0  1  0  0  0  0  0999 V2000
   26.3513  -19.6777  -14.8583 C   0  0  0  0  0  0  0  0  0  0  0  0
   25.8452  -20.1506  -13.5276 C   0  0  1  0  0  0  0  0  0  0  0  0
   24.7036  -21.1235  -13.6865 C   0  0  0  0  0  0  0  0  0  0  0  0
   26.9604  -20.6908  -12.6883 C   0  0  2  0  0  0  0  0  0  0  0  0
   27.5192  -21.8366  -13.3750 N   0  0  0  0  0  0  0  0  0  0  0  0
   26.5508  -21.0386  -11.3187 C   0  0  0  0  0  0  0  0  0  0  0  0
   26.2686  -22.2062  -10.9525 O   0  0  0  0  0  0  0  0  0  0  0  0
   26.4733  -19.9842  -10.3637 N   0  0  0  0  0  0  0  0  0  0  0  0
   25.9679  -20.1119   -9.0354 C   0  0  1  0  0  0  0  0  0  0  0  0
   26.3454  -18.9881   -8.0875 C   0  0  0  0  0  0  0  0  0  0  0  0
   26.9762  -19.4773   -6.8345 C   0  0  0  0  0  0  0  0  0  0  0  0
   26.5065  -19.1925   -5.5700 C   0  0  0  0  0  0  0  0  0  0  0  0
   27.1409  -19.6651   -4.4223 C   0  0  0  0  0  0  0  0  0  0  0  0
   28.2645  -20.4345   -4.5969 C   0  0  0  0  0  0  0  0  0  0  0  0
   28.7492  -20.7305   -5.8507 C   0  0  0  0  0  0  0  0  0  0  0  0
   28.1256  -20.2657   -6.9837 C   0  0  0  0  0  0  0  0  0  0  0  0
   24.5550  -20.5050   -8.9638 C   0  0  0  0  0  0  0  0  0  0  0  0
   23.7423  -20.0183   -9.8248 O   0  0  0  0  0  0  0  0  0  0  0  0
   20.3019  -22.7010   -5.4848 N   0  0  0  0  0  0  0  0  0  0  0  0
   20.9825  -23.1729   -6.6632 C   0  0  0  0  0  0  0  0  0  0  0  0
   20.3150  -23.8705   -7.4563 O   0  0  0  0  0  0  0  0  0  0  0  0
   22.4002  -22.7921   -6.8278 C   0  0  0  0  0  0  0  0  0  0  0  0
   22.6321  -21.7944   -7.9437 C   0  0  2  0  0  0  0  0  0  0  0  0
   24.0350  -21.3964   -7.9920 N   0  0  0  0  0  0  0  0  0  0  0  0
   21.7850  -20.6084   -7.7880 C   0  0  0  0  0  0  0  0  0  0  0  0
   20.5058  -20.5518   -8.3008 O   0  0  0  0  0  0  0  0  0  0  0  0
   22.2128  -19.6014   -7.1747 O   0  0  0  0  0  0  0  0  0  0  0  0
  2  1  1  6
  2  4  1  0
  3  2  1  0
  4  5  1  6
  6  7  2  0
  6  4  1  0
  8  6  1  0
  9  8  1  0
  9 17  1  0
  9 10  1  6
 11 12  2  0
 11 10  1  0
 13 12  1  0
 14 13  2  0
 15 14  1  0
 15 16  2  0
 16 11  1  0
 17 24  1  0
 18 17  2  0
 19 20  1  0
 20 22  1  0
 21 20  2  0
 23 22  1  1
 23 25  1  0
 24 23  1  0
 25 27  2  0
 25 26  1  0
M  END
$$$$
