VFN.pdb
     RDKit          3D

 27 27  0  0  1  0  0  0  0  0999 V2000
   28.1577  -21.9978  -13.8339 C   0  0  0  0  0  0  0  0  0  0  0  0
   28.0095  -20.5264  -13.5821 C   0  0  1  0  0  0  0  0  0  0  0  0
   28.2722  -19.7244  -14.8322 C   0  0  0  0  0  0  0  0  0  0  0  0
   26.6850  -20.2175  -12.9575 C   0  0  2  0  0  0  0  0  0  0  0  0
   26.4816  -18.7858  -13.0312 N   0  0  0  0  0  0  0  0  0  0  0  0
   26.5594  -20.7025  -11.5742 C   0  0  0  0  0  0  0  0  0  0  0  0
   26.5162  -21.9189  -11.2648 O   0  0  0  0  0  0  0  0  0  0  0  0
   26.4832  -19.7292  -10.5366 N   0  0  0  0  0  0  0  0  0  0  0  0
   26.3201  -20.0167   -9.1483 C   0  0  1  0  0  0  0  0  0  0  0  0
   27.1033  -19.1221   -8.2049 C   0  0  0  0  0  0  0  0  0  0  0  0
   27.1436  -19.6444   -6.8146 C   0  0  0  0  0  0  0  0  0  0  0  0
   26.1990  -19.3561   -5.8526 C   0  0  0  0  0  0  0  0  0  0  0  0
   26.2866  -19.8609   -4.5563 C   0  0  0  0  0  0  0  0  0  0  0  0
   27.3603  -20.6659   -4.2666 C   0  0  0  0  0  0  0  0  0  0  0  0
   28.3139  -20.9660   -5.2129 C   0  0  0  0  0  0  0  0  0  0  0  0
   28.2298  -20.4695   -6.4915 C   0  0  0  0  0  0  0  0  0  0  0  0
   24.9281  -20.2432   -8.7396 C   0  0  0  0  0  0  0  0  0  0  0  0
   24.0283  -19.4403   -9.1690 O   0  0  0  0  0  0  0  0  0  0  0  0
   21.3922  -24.4311   -5.6990 N   0  0  0  0  0  0  0  0  0  0  0  0
   21.6064  -23.2916   -6.5536 C   0  0  0  0  0  0  0  0  0  0  0  0
   20.5875  -22.7464   -7.0290 O   0  0  0  0  0  0  0  0  0  0  0  0
   23.0027  -22.8720   -6.7900 C   0  0  0  0  0  0  0  0  0  0  0  0
   23.1213  -21.5937   -7.5941 C   0  0  2  0  0  0  0  0  0  0  0  0
   24.5199  -21.3041   -7.8929 N   0  0  0  0  0  0  0  0  0  0  0  0
   22.5194  -20.4583   -6.8892 C   0  0  0  0  0  0  0  0  0  0  0  0
   21.2048  -20.0898   -7.0862 O   0  0  0  0  0  0  0  0  0  0  0  0
   23.1986  -19.7851   -6.0777 O   0  0  0  0  0  0  0  0  0  0  0  0
  2  1  1  6
  2  4  1  0
  3  2  1  0
  4  5  1  1
  6  7  2  0
  6  4  1  0
  8  6  1  0
  9  8  1  0
  9 17  1  0
  9 10  1  1
 11 12  2  0
 11 10  1  0
 13 12  1  0
 14 13  2  0
 15 14  1  0
 15 16  2  0
 16 11  1  0
 17 24  1  0
 18 17  2  0
 19 20  1  0
 20 22  1  0
 21 20  2  0
 23 22  1  1
 23 25  1  0
 24 23  1  0
 25 27  2  0
 25 26  1  0
M  END
$$$$
