VFN.pdb
     RDKit          3D

 27 27  0  0  1  0  0  0  0  0999 V2000
   20.1745  -13.6735  -20.2244 C   0  0  0  0  0  0  0  0  0  0  0  0
   19.8449  -12.7132  -19.1200 C   0  0  1  0  0  0  0  0  0  0  0  0
   20.2823  -13.2455  -17.7782 C   0  0  0  0  0  0  0  0  0  0  0  0
   20.3874  -11.3493  -19.4124 C   0  0  2  0  0  0  0  0  0  0  0  0
   21.8051  -11.4816  -19.6756 N   0  0  0  0  0  0  0  0  0  0  0  0
   20.1336  -10.3731  -18.3414 C   0  0  0  0  0  0  0  0  0  0  0  0
   18.9844  -10.0620  -17.9419 O   0  0  0  0  0  0  0  0  0  0  0  0
   21.2617   -9.7527  -17.7312 N   0  0  0  0  0  0  0  0  0  0  0  0
   21.2019   -8.7556  -16.7121 C   0  0  1  0  0  0  0  0  0  0  0  0
   22.2382   -8.8909  -15.6113 C   0  0  0  0  0  0  0  0  0  0  0  0
   22.0718   -7.8809  -14.5347 C   0  0  0  0  0  0  0  0  0  0  0  0
   22.5085   -6.5762  -14.6241 C   0  0  0  0  0  0  0  0  0  0  0  0
   22.3400   -5.6675  -13.5807 C   0  0  0  0  0  0  0  0  0  0  0  0
   21.7157   -6.1224  -12.4457 C   0  0  0  0  0  0  0  0  0  0  0  0
   21.2721   -7.4209  -12.3368 C   0  0  0  0  0  0  0  0  0  0  0  0
   21.4370   -8.3187  -13.3640 C   0  0  0  0  0  0  0  0  0  0  0  0
   21.0427   -7.3863  -17.2179 C   0  0  0  0  0  0  0  0  0  0  0  0
   21.9513   -6.9095  -17.9832 O   0  0  0  0  0  0  0  0  0  0  0  0
   17.4234   -6.3840  -20.0010 N   0  0  0  0  0  0  0  0  0  0  0  0
   18.6022   -5.6984  -19.5372 C   0  0  0  0  0  0  0  0  0  0  0  0
   19.5956   -5.7132  -20.2951 O   0  0  0  0  0  0  0  0  0  0  0  0
   18.5317   -5.0430  -18.2154 C   0  0  0  0  0  0  0  0  0  0  0  0
   19.7996   -5.1903  -17.3997 C   0  0  2  0  0  0  0  0  0  0  0  0
   19.9360   -6.5569  -16.9069 N   0  0  0  0  0  0  0  0  0  0  0  0
   19.8256   -4.2521  -16.2740 C   0  0  0  0  0  0  0  0  0  0  0  0
   20.5255   -3.0647  -16.3286 O   0  0  0  0  0  0  0  0  0  0  0  0
   19.2016   -4.5134  -15.2178 O   0  0  0  0  0  0  0  0  0  0  0  0
  2  1  1  6
  2  4  1  0
  3  2  1  0
  4  5  1  1
  6  7  2  0
  6  4  1  0
  8  6  1  0
  9  8  1  0
  9 17  1  0
  9 10  1  6
 11 12  2  0
 11 10  1  0
 13 12  1  0
 14 13  2  0
 15 14  1  0
 15 16  2  0
 16 11  1  0
 17 24  1  0
 18 17  2  0
 19 20  1  0
 20 22  1  0
 21 20  2  0
 23 22  1  1
 23 25  1  0
 24 23  1  0
 25 27  2  0
 25 26  1  0
M  END
$$$$
