VFN.pdb
     RDKit          3D

 27 27  0  0  1  0  0  0  0  0999 V2000
   28.5735  -19.9290  -12.7970 C   0  0  0  0  0  0  0  0  0  0  0  0
   29.6794  -20.8870  -12.4657 C   0  0  1  0  0  0  0  0  0  0  0  0
   30.9614  -20.5122  -13.1664 C   0  0  0  0  0  0  0  0  0  0  0  0
   29.8431  -21.0293  -10.9849 C   0  0  2  0  0  0  0  0  0  0  0  0
   30.8015  -22.0875  -10.7430 N   0  0  0  0  0  0  0  0  0  0  0  0
   28.5798  -21.2828  -10.2749 C   0  0  0  0  0  0  0  0  0  0  0  0
   28.0029  -22.3982  -10.2583 O   0  0  0  0  0  0  0  0  0  0  0  0
   27.9872  -20.1952   -9.5708 N   0  0  0  0  0  0  0  0  0  0  0  0
   26.6649  -20.1845   -9.0343 C   0  0  1  0  0  0  0  0  0  0  0  0
   26.4559  -19.2661   -7.8440 C   0  0  0  0  0  0  0  0  0  0  0  0
   27.3060  -19.6271   -6.6802 C   0  0  0  0  0  0  0  0  0  0  0  0
   28.3803  -18.8799   -6.2461 C   0  0  0  0  0  0  0  0  0  0  0  0
   29.1565  -19.2667   -5.1549 C   0  0  0  0  0  0  0  0  0  0  0  0
   28.8097  -20.4328   -4.5187 C   0  0  0  0  0  0  0  0  0  0  0  0
   27.7406  -21.1928   -4.9362 C   0  0  0  0  0  0  0  0  0  0  0  0
   26.9739  -20.8136   -6.0118 C   0  0  0  0  0  0  0  0  0  0  0  0
   25.6048  -20.1012  -10.0468 C   0  0  0  0  0  0  0  0  0  0  0  0
   25.5275  -19.0430  -10.7630 O   0  0  0  0  0  0  0  0  0  0  0  0
   21.7291  -21.3413  -13.2793 N   0  0  0  0  0  0  0  0  0  0  0  0
   22.5072  -22.5305  -13.0449 C   0  0  0  0  0  0  0  0  0  0  0  0
   22.2362  -23.5270  -13.7483 O   0  0  0  0  0  0  0  0  0  0  0  0
   23.5495  -22.4660  -12.0004 C   0  0  0  0  0  0  0  0  0  0  0  0
   23.6940  -21.0940  -11.3749 C   0  0  2  0  0  0  0  0  0  0  0  0
   24.6567  -21.1291  -10.2790 N   0  0  0  0  0  0  0  0  0  0  0  0
   22.4073  -20.5875  -10.8888 C   0  0  0  0  0  0  0  0  0  0  0  0
   21.4619  -20.0566  -11.7414 O   0  0  0  0  0  0  0  0  0  0  0  0
   22.1334  -20.6262   -9.6654 O   0  0  0  0  0  0  0  0  0  0  0  0
  2  1  1  1
  2  4  1  0
  3  2  1  0
  4  5  1  6
  6  7  2  0
  6  4  1  0
  8  6  1  0
  9  8  1  0
  9 17  1  0
  9 10  1  1
 11 12  2  0
 11 10  1  0
 13 12  1  0
 14 13  2  0
 15 14  1  0
 15 16  2  0
 16 11  1  0
 17 24  1  0
 18 17  2  0
 19 20  1  0
 20 22  1  0
 21 20  2  0
 23 22  1  1
 23 25  1  0
 24 23  1  0
 25 27  2  0
 25 26  1  0
M  END
$$$$
