VFN.pdb
     RDKit          3D

 27 27  0  0  1  0  0  0  0  0999 V2000
   25.5652  -20.1039  -17.8425 C   0  0  0  0  0  0  0  0  0  0  0  0
   26.4951  -21.2050  -18.2588 C   0  0  1  0  0  0  0  0  0  0  0  0
   27.2035  -20.8701  -19.5476 C   0  0  0  0  0  0  0  0  0  0  0  0
   27.4358  -21.5631  -17.1512 C   0  0  2  0  0  0  0  0  0  0  0  0
   28.1955  -22.7225  -17.5701 N   0  0  0  0  0  0  0  0  0  0  0  0
   26.7650  -21.8030  -15.8639 C   0  0  0  0  0  0  0  0  0  0  0  0
   25.9994  -22.7750  -15.6491 O   0  0  0  0  0  0  0  0  0  0  0  0
   27.0046  -20.8745  -14.8102 N   0  0  0  0  0  0  0  0  0  0  0  0
   26.3902  -20.9134  -13.5229 C   0  0  1  0  0  0  0  0  0  0  0  0
   27.2239  -20.3444  -12.3893 C   0  0  0  0  0  0  0  0  0  0  0  0
   26.5542  -20.4562  -11.0679 C   0  0  0  0  0  0  0  0  0  0  0  0
   26.6345  -21.5644  -10.2516 C   0  0  0  0  0  0  0  0  0  0  0  0
   25.9773  -21.6270   -9.0239 C   0  0  0  0  0  0  0  0  0  0  0  0
   25.2376  -20.5323   -8.6505 C   0  0  0  0  0  0  0  0  0  0  0  0
   25.1451  -19.4162   -9.4509 C   0  0  0  0  0  0  0  0  0  0  0  0
   25.7920  -19.3521  -10.6616 C   0  0  0  0  0  0  0  0  0  0  0  0
   24.9883  -20.4769  -13.5112 C   0  0  0  0  0  0  0  0  0  0  0  0
   24.6914  -19.3647  -14.0710 O   0  0  0  0  0  0  0  0  0  0  0  0
   22.2760  -22.2050  -16.1600 N   0  0  0  0  0  0  0  0  0  0  0  0
   21.7500  -21.2461  -15.2228 C   0  0  0  0  0  0  0  0  0  0  0  0
   21.3754  -20.1498  -15.6910 O   0  0  0  0  0  0  0  0  0  0  0  0
   21.7006  -21.6421  -13.8006 C   0  0  0  0  0  0  0  0  0  0  0  0
   22.5506  -20.7692  -12.9006 C   0  0  2  0  0  0  0  0  0  0  0  0
   23.9388  -21.2186  -12.9132 N   0  0  0  0  0  0  0  0  0  0  0  0
   22.0439  -20.7623  -11.5253 C   0  0  0  0  0  0  0  0  0  0  0  0
   20.8014  -20.2547  -11.2070 O   0  0  0  0  0  0  0  0  0  0  0  0
   22.7415  -21.2255  -10.5916 O   0  0  0  0  0  0  0  0  0  0  0  0
  2  1  1  1
  2  4  1  0
  3  2  1  0
  4  5  1  6
  6  7  2  0
  6  4  1  0
  8  6  1  0
  9  8  1  0
  9 17  1  0
  9 10  1  1
 11 12  2  0
 11 10  1  0
 13 12  1  0
 14 13  2  0
 15 14  1  0
 15 16  2  0
 16 11  1  0
 17 24  1  0
 18 17  2  0
 19 20  1  0
 20 22  1  0
 21 20  2  0
 23 22  1  6
 23 25  1  0
 24 23  1  0
 25 27  2  0
 25 26  1  0
M  END
$$$$
