VFN.pdb
     RDKit          3D

 27 27  0  0  1  0  0  0  0  0999 V2000
   26.8421  -19.4875  -19.5583 C   0  0  0  0  0  0  0  0  0  0  0  0
   26.1380  -19.9393  -18.3131 C   0  0  1  0  0  0  0  0  0  0  0  0
   24.7150  -20.3475  -18.6021 C   0  0  0  0  0  0  0  0  0  0  0  0
   26.9193  -21.0038  -17.6086 C   0  0  2  0  0  0  0  0  0  0  0  0
   27.1016  -22.1054  -18.5305 N   0  0  0  0  0  0  0  0  0  0  0  0
   26.2983  -21.4566  -16.3541 C   0  0  0  0  0  0  0  0  0  0  0  0
   25.4583  -22.3881  -16.2905 O   0  0  0  0  0  0  0  0  0  0  0  0
   26.6783  -20.7943  -15.1514 N   0  0  0  0  0  0  0  0  0  0  0  0
   26.0297  -20.9433  -13.8891 C   0  0  1  0  0  0  0  0  0  0  0  0
   26.8706  -20.5739  -12.6807 C   0  0  0  0  0  0  0  0  0  0  0  0
   26.0936  -20.5761  -11.4143 C   0  0  0  0  0  0  0  0  0  0  0  0
   25.2924  -19.5347  -10.9970 C   0  0  0  0  0  0  0  0  0  0  0  0
   24.5914  -19.5785   -9.7929 C   0  0  0  0  0  0  0  0  0  0  0  0
   24.7281  -20.7095   -9.0268 C   0  0  0  0  0  0  0  0  0  0  0  0
   25.5228  -21.7602   -9.4259 C   0  0  0  0  0  0  0  0  0  0  0  0
   26.2149  -21.7195  -10.6124 C   0  0  0  0  0  0  0  0  0  0  0  0
   24.6608  -20.4135  -13.8491 C   0  0  0  0  0  0  0  0  0  0  0  0
   24.4823  -19.1674  -14.0814 O   0  0  0  0  0  0  0  0  0  0  0  0
   21.3663  -23.2654  -14.4138 N   0  0  0  0  0  0  0  0  0  0  0  0
   21.4917  -22.1705  -15.3412 C   0  0  0  0  0  0  0  0  0  0  0  0
   21.6347  -22.4685  -16.5463 O   0  0  0  0  0  0  0  0  0  0  0  0
   21.4403  -20.8018  -14.7883 C   0  0  0  0  0  0  0  0  0  0  0  0
   22.1712  -20.6552  -13.4696 C   0  0  2  0  0  0  0  0  0  0  0  0
   23.5193  -21.2051  -13.5668 N   0  0  0  0  0  0  0  0  0  0  0  0
   21.4456  -21.3111  -12.3779 C   0  0  0  0  0  0  0  0  0  0  0  0
   21.9580  -22.4065  -11.7145 O   0  0  0  0  0  0  0  0  0  0  0  0
   20.3232  -20.8831  -12.0172 O   0  0  0  0  0  0  0  0  0  0  0  0
  2  1  1  6
  2  4  1  0
  3  2  1  0
  4  5  1  6
  6  7  2  0
  6  4  1  0
  8  6  1  0
  9  8  1  0
  9 17  1  0
  9 10  1  1
 11 12  2  0
 11 10  1  0
 13 12  1  0
 14 13  2  0
 15 14  1  0
 15 16  2  0
 16 11  1  0
 17 24  1  0
 18 17  2  0
 19 20  1  0
 20 22  1  0
 21 20  2  0
 23 22  1  6
 23 25  1  0
 24 23  1  0
 25 27  2  0
 25 26  1  0
M  END
$$$$
