VFN.pdb
     RDKit          3D

 27 27  0  0  1  0  0  0  0  0999 V2000
   29.0030  -20.7552  -18.5408 C   0  0  0  0  0  0  0  0  0  0  0  0
   28.4865  -21.1749  -17.1963 C   0  0  1  0  0  0  0  0  0  0  0  0
   29.3074  -20.5786  -16.0802 C   0  0  0  0  0  0  0  0  0  0  0  0
   27.0243  -20.8834  -17.0660 C   0  0  2  0  0  0  0  0  0  0  0  0
   26.8092  -19.5051  -17.4544 N   0  0  0  0  0  0  0  0  0  0  0  0
   26.4893  -21.1473  -15.7212 C   0  0  0  0  0  0  0  0  0  0  0  0
   26.4984  -22.2800  -15.1789 O   0  0  0  0  0  0  0  0  0  0  0  0
   25.9324  -20.0494  -15.0040 N   0  0  0  0  0  0  0  0  0  0  0  0
   25.3055  -20.1346  -13.7249 C   0  0  1  0  0  0  0  0  0  0  0  0
   26.0391  -19.4344  -12.5956 C   0  0  0  0  0  0  0  0  0  0  0  0
   27.2842  -20.1377  -12.1926 C   0  0  0  0  0  0  0  0  0  0  0  0
   27.3498  -21.0791  -11.1875 C   0  0  0  0  0  0  0  0  0  0  0  0
   28.5456  -21.7037  -10.8371 C   0  0  0  0  0  0  0  0  0  0  0  0
   29.6709  -21.3444  -11.5367 C   0  0  0  0  0  0  0  0  0  0  0  0
   29.6265  -20.4070  -12.5437 C   0  0  0  0  0  0  0  0  0  0  0  0
   28.4488  -19.7898  -12.8911 C   0  0  0  0  0  0  0  0  0  0  0  0
   23.8591  -19.8823  -13.7450 C   0  0  0  0  0  0  0  0  0  0  0  0
   23.4219  -18.8958  -14.4338 O   0  0  0  0  0  0  0  0  0  0  0  0
   18.9706  -21.0691  -14.4541 N   0  0  0  0  0  0  0  0  0  0  0  0
   20.0231  -21.5865  -15.2902 C   0  0  0  0  0  0  0  0  0  0  0  0
   19.6726  -22.1754  -16.3350 O   0  0  0  0  0  0  0  0  0  0  0  0
   21.4142  -21.3758  -14.8405 C   0  0  0  0  0  0  0  0  0  0  0  0
   21.5166  -20.7903  -13.4472 C   0  0  2  0  0  0  0  0  0  0  0  0
   22.9135  -20.6709  -13.0428 N   0  0  0  0  0  0  0  0  0  0  0  0
   20.7846  -21.6004  -12.4694 C   0  0  0  0  0  0  0  0  0  0  0  0
   21.1632  -22.8900  -12.1593 O   0  0  0  0  0  0  0  0  0  0  0  0
   19.7802  -21.1304  -11.8833 O   0  0  0  0  0  0  0  0  0  0  0  0
  2  1  1  6
  2  4  1  0
  3  2  1  0
  4  5  1  1
  6  7  2  0
  6  4  1  0
  8  6  1  0
  9  8  1  0
  9 17  1  0
  9 10  1  1
 11 12  2  0
 11 10  1  0
 13 12  1  0
 14 13  2  0
 15 14  1  0
 15 16  2  0
 16 11  1  0
 17 24  1  0
 18 17  2  0
 19 20  1  0
 20 22  1  0
 21 20  2  0
 23 22  1  6
 23 25  1  0
 24 23  1  0
 25 27  2  0
 25 26  1  0
M  END
$$$$
