VFN.pdb
     RDKit          3D

 27 27  0  0  1  0  0  0  0  0999 V2000
   28.8579  -17.8760  -15.6266 C   0  0  0  0  0  0  0  0  0  0  0  0
   28.1937  -19.0108  -14.9044 C   0  0  1  0  0  0  0  0  0  0  0  0
   28.9139  -19.3444  -13.6217 C   0  0  0  0  0  0  0  0  0  0  0  0
   26.7356  -18.7407  -14.7023 C   0  0  2  0  0  0  0  0  0  0  0  0
   26.6116  -17.5146  -13.9420 N   0  0  0  0  0  0  0  0  0  0  0  0
   26.0172  -19.8465  -14.0499 C   0  0  0  0  0  0  0  0  0  0  0  0
   25.9267  -21.0005  -14.5370 O   0  0  0  0  0  0  0  0  0  0  0  0
   25.3934  -19.5817  -12.7967 N   0  0  0  0  0  0  0  0  0  0  0  0
   24.5883  -20.5061  -12.0661 C   0  0  1  0  0  0  0  0  0  0  0  0
   24.8394  -20.5426  -10.5696 C   0  0  0  0  0  0  0  0  0  0  0  0
   26.2519  -20.8522  -10.2287 C   0  0  0  0  0  0  0  0  0  0  0  0
   26.9009  -20.3715   -9.1114 C   0  0  0  0  0  0  0  0  0  0  0  0
   28.2328  -20.6805   -8.8404 C   0  0  0  0  0  0  0  0  0  0  0  0
   28.8848  -21.4911   -9.7364 C   0  0  0  0  0  0  0  0  0  0  0  0
   28.2546  -21.9817  -10.8575 C   0  0  0  0  0  0  0  0  0  0  0  0
   26.9416  -21.6784  -11.1269 C   0  0  0  0  0  0  0  0  0  0  0  0
   23.1668  -20.4880  -12.4334 C   0  0  0  0  0  0  0  0  0  0  0  0
   22.5459  -19.3687  -12.4124 O   0  0  0  0  0  0  0  0  0  0  0  0
   22.2775  -23.1718  -16.2834 N   0  0  0  0  0  0  0  0  0  0  0  0
   21.3884  -22.2320  -15.6503 C   0  0  0  0  0  0  0  0  0  0  0  0
   21.1802  -21.1594  -16.2565 O   0  0  0  0  0  0  0  0  0  0  0  0
   20.8058  -22.6179  -14.3490 C   0  0  0  0  0  0  0  0  0  0  0  0
   21.0475  -21.6002  -13.2533 C   0  0  2  0  0  0  0  0  0  0  0  0
   22.4376  -21.6431  -12.8117 N   0  0  0  0  0  0  0  0  0  0  0  0
   20.1569  -21.8203  -12.1103 C   0  0  0  0  0  0  0  0  0  0  0  0
   18.7840  -21.7653  -12.2326 O   0  0  0  0  0  0  0  0  0  0  0  0
   20.6321  -22.0673  -10.9761 O   0  0  0  0  0  0  0  0  0  0  0  0
  2  1  1  1
  2  4  1  0
  3  2  1  0
  4  5  1  1
  6  7  2  0
  6  4  1  0
  8  6  1  0
  9  8  1  0
  9 17  1  0
  9 10  1  1
 11 12  2  0
 11 10  1  0
 13 12  1  0
 14 13  2  0
 15 14  1  0
 15 16  2  0
 16 11  1  0
 17 24  1  0
 18 17  2  0
 19 20  1  0
 20 22  1  0
 21 20  2  0
 23 22  1  6
 23 25  1  0
 24 23  1  0
 25 27  2  0
 25 26  1  0
M  END
$$$$
