VFN.pdb
     RDKit          3D

 27 27  0  0  1  0  0  0  0  0999 V2000
   24.0704  -20.6171  -20.6311 C   0  0  0  0  0  0  0  0  0  0  0  0
   23.7939  -21.0655  -19.2264 C   0  0  1  0  0  0  0  0  0  0  0  0
   22.7515  -22.1551  -19.1910 C   0  0  0  0  0  0  0  0  0  0  0  0
   25.0595  -21.4447  -18.5232 C   0  0  2  0  0  0  0  0  0  0  0  0
   25.6892  -22.5052  -19.2817 N   0  0  0  0  0  0  0  0  0  0  0  0
   24.8572  -21.8410  -17.1208 C   0  0  0  0  0  0  0  0  0  0  0  0
   24.9854  -23.0193  -16.7056 O   0  0  0  0  0  0  0  0  0  0  0  0
   24.4960  -20.8233  -16.1916 N   0  0  0  0  0  0  0  0  0  0  0  0
   24.1901  -21.0369  -14.8142 C   0  0  1  0  0  0  0  0  0  0  0  0
   24.9524  -20.1602  -13.8374 C   0  0  0  0  0  0  0  0  0  0  0  0
   24.7644  -20.5734  -12.4228 C   0  0  0  0  0  0  0  0  0  0  0  0
   25.5968  -21.4464  -11.7551 C   0  0  0  0  0  0  0  0  0  0  0  0
   25.3718  -21.8139  -10.4295 C   0  0  0  0  0  0  0  0  0  0  0  0
   24.2781  -21.2693   -9.8033 C   0  0  0  0  0  0  0  0  0  0  0  0
   23.4352  -20.3956  -10.4522 C   0  0  0  0  0  0  0  0  0  0  0  0
   23.6549  -20.0318  -11.7590 C   0  0  0  0  0  0  0  0  0  0  0  0
   22.7544  -21.1446  -14.5258 C   0  0  0  0  0  0  0  0  0  0  0  0
   21.9952  -20.1610  -14.8336 O   0  0  0  0  0  0  0  0  0  0  0  0
   18.9723  -24.2598  -12.6981 N   0  0  0  0  0  0  0  0  0  0  0  0
   19.6126  -23.4846  -11.6668 C   0  0  0  0  0  0  0  0  0  0  0  0
   19.3309  -23.7794  -10.4856 O   0  0  0  0  0  0  0  0  0  0  0  0
   20.5393  -22.4171  -12.0949 C   0  0  0  0  0  0  0  0  0  0  0  0
   20.7365  -22.3543  -13.5955 C   0  0  2  0  0  0  0  0  0  0  0  0
   22.1564  -22.2798  -13.9232 N   0  0  0  0  0  0  0  0  0  0  0  0
   20.0314  -21.2112  -14.1823 C   0  0  0  0  0  0  0  0  0  0  0  0
   20.1073  -19.9470  -13.6356 O   0  0  0  0  0  0  0  0  0  0  0  0
   19.3310  -21.3603  -15.2120 O   0  0  0  0  0  0  0  0  0  0  0  0
  2  1  1  6
  2  4  1  0
  3  2  1  0
  4  5  1  6
  6  7  2  0
  6  4  1  0
  8  6  1  0
  9  8  1  0
  9 17  1  0
  9 10  1  1
 11 12  2  0
 11 10  1  0
 13 12  1  0
 14 13  2  0
 15 14  1  0
 15 16  2  0
 16 11  1  0
 17 24  1  0
 18 17  2  0
 19 20  1  0
 20 22  1  0
 21 20  2  0
 23 22  1  1
 23 25  1  0
 24 23  1  0
 25 27  2  0
 25 26  1  0
M  END
$$$$
