VFN.pdb
     RDKit          3D

 27 27  0  0  1  0  0  0  0  0999 V2000
   18.3442   -4.4518  -18.0393 C   0  0  0  0  0  0  0  0  0  0  0  0
   19.2022   -3.5595  -18.8866 C   0  0  1  0  0  0  0  0  0  0  0  0
   18.5959   -2.1858  -19.0293 C   0  0  0  0  0  0  0  0  0  0  0  0
   20.6102   -3.5267  -18.3801 C   0  0  2  0  0  0  0  0  0  0  0  0
   21.4127   -2.8024  -19.3435 N   0  0  0  0  0  0  0  0  0  0  0  0
   21.1714   -4.8607  -18.1154 C   0  0  0  0  0  0  0  0  0  0  0  0
   21.6497   -5.6037  -19.0077 O   0  0  0  0  0  0  0  0  0  0  0  0
   21.1665   -5.3247  -16.7684 N   0  0  0  0  0  0  0  0  0  0  0  0
   21.6616   -6.5897  -16.3315 C   0  0  1  0  0  0  0  0  0  0  0  0
   22.7195   -6.5314  -15.2446 C   0  0  0  0  0  0  0  0  0  0  0  0
   23.2768   -7.8672  -14.9093 C   0  0  0  0  0  0  0  0  0  0  0  0
   24.3329   -8.4534  -15.5740 C   0  0  0  0  0  0  0  0  0  0  0  0
   24.8131   -9.7160  -15.2301 C   0  0  0  0  0  0  0  0  0  0  0  0
   24.1899  -10.3642  -14.1926 C   0  0  0  0  0  0  0  0  0  0  0  0
   23.1343   -9.7960  -13.5161 C   0  0  0  0  0  0  0  0  0  0  0  0
   22.6591   -8.5515  -13.8533 C   0  0  0  0  0  0  0  0  0  0  0  0
   20.6187   -7.5964  -16.0971 C   0  0  0  0  0  0  0  0  0  0  0  0
   19.6974   -7.3335  -15.2481 O   0  0  0  0  0  0  0  0  0  0  0  0
   17.5900  -11.5396  -19.3465 N   0  0  0  0  0  0  0  0  0  0  0  0
   17.8872  -10.8568  -18.1137 C   0  0  0  0  0  0  0  0  0  0  0  0
   16.9114  -10.4569  -17.4435 O   0  0  0  0  0  0  0  0  0  0  0  0
   19.3102  -10.6915  -17.7540 C   0  0  0  0  0  0  0  0  0  0  0  0
   19.5265   -9.8387  -16.5208 C   0  0  2  0  0  0  0  0  0  0  0  0
   20.5717   -8.8489  -16.7590 N   0  0  0  0  0  0  0  0  0  0  0  0
   19.8749  -10.6577  -15.3563 C   0  0  0  0  0  0  0  0  0  0  0  0
   19.0403  -10.7663  -14.2634 O   0  0  0  0  0  0  0  0  0  0  0  0
   20.9587  -11.2882  -15.3275 O   0  0  0  0  0  0  0  0  0  0  0  0
  2  1  1  1
  2  4  1  0
  3  2  1  0
  4  5  1  6
  6  7  2  0
  6  4  1  0
  8  6  1  0
  9  8  1  0
  9 17  1  0
  9 10  1  1
 11 12  2  0
 11 10  1  0
 13 12  1  0
 14 13  2  0
 15 14  1  0
 15 16  2  0
 16 11  1  0
 17 24  1  0
 18 17  2  0
 19 20  1  0
 20 22  1  0
 21 20  2  0
 23 22  1  6
 23 25  1  0
 24 23  1  0
 25 27  2  0
 25 26  1  0
M  END
$$$$
