VFN.pdb
     RDKit          3D

 27 27  0  0  1  0  0  0  0  0999 V2000
   22.0823  -13.4759  -19.9862 C   0  0  0  0  0  0  0  0  0  0  0  0
   22.0995  -12.4401  -18.9012 C   0  0  1  0  0  0  0  0  0  0  0  0
   20.7025  -12.0162  -18.5220 C   0  0  0  0  0  0  0  0  0  0  0  0
   22.9084  -12.9010  -17.7293 C   0  0  2  0  0  0  0  0  0  0  0  0
   22.3808  -14.1792  -17.2999 N   0  0  0  0  0  0  0  0  0  0  0  0
   22.9372  -11.9367  -16.6185 C   0  0  0  0  0  0  0  0  0  0  0  0
   22.0755  -11.9012  -15.7057 O   0  0  0  0  0  0  0  0  0  0  0  0
   24.0066  -10.9957  -16.5873 N   0  0  0  0  0  0  0  0  0  0  0  0
   24.1607   -9.9562  -15.6219 C   0  0  1  0  0  0  0  0  0  0  0  0
   25.4533   -9.9961  -14.8273 C   0  0  0  0  0  0  0  0  0  0  0  0
   26.2440  -11.2297  -15.0730 C   0  0  0  0  0  0  0  0  0  0  0  0
   27.2251  -11.3404  -16.0353 C   0  0  0  0  0  0  0  0  0  0  0  0
   27.9324  -12.5246  -16.2366 C   0  0  0  0  0  0  0  0  0  0  0  0
   27.6142  -13.5910  -15.4326 C   0  0  0  0  0  0  0  0  0  0  0  0
   26.6384  -13.5008  -14.4659 C   0  0  0  0  0  0  0  0  0  0  0  0
   25.9397  -12.3345  -14.2656 C   0  0  0  0  0  0  0  0  0  0  0  0
   23.8023   -8.6198  -16.1134 C   0  0  0  0  0  0  0  0  0  0  0  0
   24.2552   -8.2469  -17.2512 O   0  0  0  0  0  0  0  0  0  0  0  0
   21.4767   -4.0360  -16.7622 N   0  0  0  0  0  0  0  0  0  0  0  0
   20.5163   -5.0791  -16.5096 C   0  0  0  0  0  0  0  0  0  0  0  0
   19.3169   -4.8031  -16.7258 O   0  0  0  0  0  0  0  0  0  0  0  0
   21.0318   -6.3740  -16.0205 C   0  0  0  0  0  0  0  0  0  0  0  0
   22.5435   -6.4319  -15.9427 C   0  0  2  0  0  0  0  0  0  0  0  0
   22.9800   -7.7134  -15.3983 N   0  0  0  0  0  0  0  0  0  0  0  0
   23.0814   -5.3380  -15.1288 C   0  0  0  0  0  0  0  0  0  0  0  0
   23.4127   -4.1155  -15.6751 O   0  0  0  0  0  0  0  0  0  0  0  0
   23.2556   -5.4928  -13.8964 O   0  0  0  0  0  0  0  0  0  0  0  0
  2  1  1  6
  2  4  1  0
  3  2  1  0
  4  5  1  1
  6  7  2  0
  6  4  1  0
  8  6  1  0
  9  8  1  0
  9 17  1  0
  9 10  1  6
 11 12  2  0
 11 10  1  0
 13 12  1  0
 14 13  2  0
 15 14  1  0
 15 16  2  0
 16 11  1  0
 17 24  1  0
 18 17  2  0
 19 20  1  0
 20 22  1  0
 21 20  2  0
 23 22  1  1
 23 25  1  0
 24 23  1  0
 25 27  2  0
 25 26  1  0
M  END
$$$$
