VFN.pdb
     RDKit          3D

 27 27  0  0  1  0  0  0  0  0999 V2000
   26.6790  -18.4729  -18.2448 C   0  0  0  0  0  0  0  0  0  0  0  0
   25.9182  -19.1414  -17.1381 C   0  0  1  0  0  0  0  0  0  0  0  0
   24.7429  -19.9223  -17.6709 C   0  0  0  0  0  0  0  0  0  0  0  0
   26.8271  -19.9659  -16.2813 C   0  0  2  0  0  0  0  0  0  0  0  0
   27.4923  -20.9275  -17.1353 N   0  0  0  0  0  0  0  0  0  0  0  0
   26.1389  -20.6321  -15.1646 C   0  0  0  0  0  0  0  0  0  0  0  0
   25.5898  -21.7577  -15.2581 O   0  0  0  0  0  0  0  0  0  0  0  0
   26.0992  -19.9531  -13.9127 N   0  0  0  0  0  0  0  0  0  0  0  0
   25.3884  -20.3967  -12.7576 C   0  0  1  0  0  0  0  0  0  0  0  0
   26.0777  -20.1326  -11.4313 C   0  0  0  0  0  0  0  0  0  0  0  0
   27.4932  -20.5833  -11.4167 C   0  0  0  0  0  0  0  0  0  0  0  0
   27.9781  -21.5829  -10.6004 C   0  0  0  0  0  0  0  0  0  0  0  0
   29.3192  -21.9627  -10.6141 C   0  0  0  0  0  0  0  0  0  0  0  0
   30.1517  -21.2983  -11.4803 C   0  0  0  0  0  0  0  0  0  0  0  0
   29.6872  -20.2978  -12.3038 C   0  0  0  0  0  0  0  0  0  0  0  0
   28.3656  -19.9215  -12.2920 C   0  0  0  0  0  0  0  0  0  0  0  0
   23.9586  -20.0625  -12.7651 C   0  0  0  0  0  0  0  0  0  0  0  0
   23.6156  -18.8573  -13.0271 O   0  0  0  0  0  0  0  0  0  0  0  0
   18.9870  -20.5430  -13.8685 N   0  0  0  0  0  0  0  0  0  0  0  0
   20.0350  -20.4310  -14.8502 C   0  0  0  0  0  0  0  0  0  0  0  0
   19.6802  -20.2154  -16.0288 O   0  0  0  0  0  0  0  0  0  0  0  0
   21.4268  -20.5799  -14.3788 C   0  0  0  0  0  0  0  0  0  0  0  0
   21.5387  -20.7910  -12.8830 C   0  0  2  0  0  0  0  0  0  0  0  0
   22.9304  -21.0008  -12.4977 N   0  0  0  0  0  0  0  0  0  0  0  0
   20.7245  -21.9259  -12.4387 C   0  0  0  0  0  0  0  0  0  0  0  0
   21.1106  -23.2320  -12.6574 O   0  0  0  0  0  0  0  0  0  0  0  0
   19.6400  -21.7306  -11.8398 O   0  0  0  0  0  0  0  0  0  0  0  0
  2  1  1  6
  2  4  1  0
  3  2  1  0
  4  5  1  6
  6  7  2  0
  6  4  1  0
  8  6  1  0
  9  8  1  0
  9 17  1  0
  9 10  1  1
 11 12  2  0
 11 10  1  0
 13 12  1  0
 14 13  2  0
 15 14  1  0
 15 16  2  0
 16 11  1  0
 17 24  1  0
 18 17  2  0
 19 20  1  0
 20 22  1  0
 21 20  2  0
 23 22  1  6
 23 25  1  0
 24 23  1  0
 25 27  2  0
 25 26  1  0
M  END
$$$$
