VFN.pdb
     RDKit          3D

 27 27  0  0  1  0  0  0  0  0999 V2000
   35.7532  -27.7242  -20.5084 C   0  0  0  0  0  0  0  0  0  0  0  0
   34.8158  -27.5658  -19.3479 C   0  0  1  0  0  0  0  0  0  0  0  0
   35.5108  -26.9523  -18.1581 C   0  0  0  0  0  0  0  0  0  0  0  0
   33.5810  -26.8220  -19.7506 C   0  0  2  0  0  0  0  0  0  0  0  0
   33.9904  -25.5535  -20.3161 N   0  0  0  0  0  0  0  0  0  0  0  0
   32.6244  -26.6300  -18.6494 C   0  0  0  0  0  0  0  0  0  0  0  0
   32.1842  -27.5675  -17.9390 O   0  0  0  0  0  0  0  0  0  0  0  0
   32.1797  -25.3029  -18.3836 N   0  0  0  0  0  0  0  0  0  0  0  0
   31.2704  -24.9310  -17.3487 C   0  0  1  0  0  0  0  0  0  0  0  0
   31.7675  -23.8495  -16.4068 C   0  0  0  0  0  0  0  0  0  0  0  0
   32.9231  -24.2885  -15.5827 C   0  0  0  0  0  0  0  0  0  0  0  0
   34.2172  -24.3762  -16.0500 C   0  0  0  0  0  0  0  0  0  0  0  0
   35.2675  -24.8059  -15.2406 C   0  0  0  0  0  0  0  0  0  0  0  0
   34.9650  -25.1430  -13.9446 C   0  0  0  0  0  0  0  0  0  0  0  0
   33.6796  -25.0620  -13.4587 C   0  0  0  0  0  0  0  0  0  0  0  0
   32.6424  -24.6388  -14.2547 C   0  0  0  0  0  0  0  0  0  0  0  0
   29.8873  -24.7386  -17.8027 C   0  0  0  0  0  0  0  0  0  0  0  0
   29.6879  -24.1151  -18.9028 O   0  0  0  0  0  0  0  0  0  0  0  0
   24.4957  -27.0044  -18.0573 N   0  0  0  0  0  0  0  0  0  0  0  0
   25.4195  -26.0620  -18.6342 C   0  0  0  0  0  0  0  0  0  0  0  0
   24.9404  -25.2101  -19.4127 O   0  0  0  0  0  0  0  0  0  0  0  0
   26.8420  -26.1861  -18.2564 C   0  0  0  0  0  0  0  0  0  0  0  0
   27.3827  -24.9709  -17.5314 C   0  0  2  0  0  0  0  0  0  0  0  0
   28.7539  -25.2050  -17.0907 N   0  0  0  0  0  0  0  0  0  0  0  0
   26.5460  -24.6155  -16.3816 C   0  0  0  0  0  0  0  0  0  0  0  0
   25.6455  -23.5717  -16.4283 O   0  0  0  0  0  0  0  0  0  0  0  0
   26.6326  -25.2638  -15.3115 O   0  0  0  0  0  0  0  0  0  0  0  0
  2  1  1  6
  2  4  1  0
  3  2  1  0
  4  5  1  1
  6  7  2  0
  6  4  1  0
  8  6  1  0
  9  8  1  0
  9 17  1  0
  9 10  1  6
 11 12  2  0
 11 10  1  0
 13 12  1  0
 14 13  2  0
 15 14  1  0
 15 16  2  0
 16 11  1  0
 17 24  1  0
 18 17  2  0
 19 20  1  0
 20 22  1  0
 21 20  2  0
 23 22  1  1
 23 25  1  0
 24 23  1  0
 25 27  2  0
 25 26  1  0
M  END
$$$$
