VFN.pdb
     RDKit          3D

 27 27  0  0  1  0  0  0  0  0999 V2000
   26.9176  -17.8369  -14.1713 C   0  0  0  0  0  0  0  0  0  0  0  0
   27.5895  -18.6665  -15.2253 C   0  0  1  0  0  0  0  0  0  0  0  0
   28.7687  -17.9435  -15.8268 C   0  0  0  0  0  0  0  0  0  0  0  0
   27.9420  -20.0227  -14.6996 C   0  0  2  0  0  0  0  0  0  0  0  0
   28.5402  -20.7772  -15.7812 N   0  0  0  0  0  0  0  0  0  0  0  0
   26.7995  -20.7430  -14.1164 C   0  0  0  0  0  0  0  0  0  0  0  0
   25.8769  -21.2531  -14.7990 O   0  0  0  0  0  0  0  0  0  0  0  0
   26.7472  -20.8619  -12.6976 N   0  0  0  0  0  0  0  0  0  0  0  0
   25.6964  -21.4871  -11.9619 C   0  0  1  0  0  0  0  0  0  0  0  0
   26.1136  -22.1202  -10.6470 C   0  0  0  0  0  0  0  0  0  0  0  0
   26.5606  -21.1217   -9.6418 C   0  0  0  0  0  0  0  0  0  0  0  0
   25.7194  -20.2311   -9.0095 C   0  0  0  0  0  0  0  0  0  0  0  0
   26.1886  -19.3033   -8.0811 C   0  0  0  0  0  0  0  0  0  0  0  0
   27.5353  -19.3070   -7.8144 C   0  0  0  0  0  0  0  0  0  0  0  0
   28.3918  -20.1882   -8.4347 C   0  0  0  0  0  0  0  0  0  0  0  0
   27.9317  -21.1038   -9.3504 C   0  0  0  0  0  0  0  0  0  0  0  0
   24.4643  -20.6928  -11.8785 C   0  0  0  0  0  0  0  0  0  0  0  0
   24.5630  -19.4359  -11.6566 O   0  0  0  0  0  0  0  0  0  0  0  0
   20.9418  -18.1484  -14.4810 N   0  0  0  0  0  0  0  0  0  0  0  0
   20.9993  -19.5791  -14.6370 C   0  0  0  0  0  0  0  0  0  0  0  0
   20.0636  -20.1135  -15.2697 O   0  0  0  0  0  0  0  0  0  0  0  0
   22.1523  -20.2824  -14.0389 C   0  0  0  0  0  0  0  0  0  0  0  0
   22.0325  -20.4737  -12.5411 C   0  0  2  0  0  0  0  0  0  0  0  0
   23.1650  -21.2388  -12.0299 N   0  0  0  0  0  0  0  0  0  0  0  0
   20.7791  -21.1445  -12.1841 C   0  0  0  0  0  0  0  0  0  0  0  0
   19.6463  -20.4388  -11.8358 O   0  0  0  0  0  0  0  0  0  0  0  0
   20.7084  -22.3967  -12.1873 O   0  0  0  0  0  0  0  0  0  0  0  0
  2  1  1  1
  2  4  1  0
  3  2  1  0
  4  5  1  6
  6  7  2  0
  6  4  1  0
  8  6  1  0
  9  8  1  0
  9 17  1  0
  9 10  1  1
 11 12  2  0
 11 10  1  0
 13 12  1  0
 14 13  2  0
 15 14  1  0
 15 16  2  0
 16 11  1  0
 17 24  1  0
 18 17  2  0
 19 20  1  0
 20 22  1  0
 21 20  2  0
 23 22  1  6
 23 25  1  0
 24 23  1  0
 25 27  2  0
 25 26  1  0
M  END
$$$$
