GNR.pdb
     RDKit          3D

 24 23  0  0  1  0  0  0  0  0999 V2000
   18.4421  -12.5282  -17.5914 N   0  0  0  0  0  0  0  0  0  0  0  0
   19.7354  -12.0564  -17.1693 C   0  0  0  0  0  0  0  0  0  0  0  0
   19.6209  -10.8812  -16.2559 C   0  0  0  0  0  0  0  0  0  0  0  0
   18.9273  -11.0101  -15.2285 O   0  0  0  0  0  0  0  0  0  0  0  0
   21.7638   -9.3950  -13.7099 N   0  0  0  0  0  0  0  0  0  0  0  0
   22.2045   -8.2390  -14.3984 C   0  0  0  0  0  0  0  0  0  0  0  0
   23.2805   -7.7150  -14.0230 O   0  0  0  0  0  0  0  0  0  0  0  0
   21.3692   -7.7336  -15.5060 C   0  0  0  0  0  0  0  0  0  0  0  0
   20.0947   -8.5365  -15.6668 C   0  0  2  0  0  0  0  0  0  0  0  0
   20.2765   -9.6539  -16.5399 N   0  0  0  0  0  0  0  0  0  0  0  0
   19.0617   -7.6013  -16.1854 C   0  0  0  0  0  0  0  0  0  0  0  0
   19.0432   -7.3594  -17.4142 O   0  0  0  0  0  0  0  0  0  0  0  0
   11.2149   -6.3391  -12.7023 N   0  0  0  0  0  0  0  0  0  0  0  0
   11.1104   -5.7107  -13.9810 C   0  0  0  0  0  0  0  0  0  0  0  0
    9.9563   -5.3689  -14.4594 N   0  0  0  0  0  0  0  0  0  0  0  0
   12.2493   -5.4324  -14.7816 N   0  0  0  0  0  0  0  0  0  0  0  0
   13.5105   -6.1349  -14.5019 C   0  0  0  0  0  0  0  0  0  0  0  0
   14.6115   -5.6219  -15.4114 C   0  0  0  0  0  0  0  0  0  0  0  0
   15.8135   -6.4837  -15.1308 C   0  0  0  0  0  0  0  0  0  0  0  0
   17.0460   -6.1060  -15.8753 C   0  0  2  0  0  0  0  0  0  0  0  0
   18.1130   -6.9842  -15.3517 N   0  0  0  0  0  0  0  0  0  0  0  0
   17.4568   -4.7357  -15.4999 C   0  0  0  0  0  0  0  0  0  0  0  0
   18.3667   -4.4942  -14.6566 O   0  0  0  0  0  0  0  0  0  0  0  0
   16.8506   -3.6442  -16.0688 O   0  0  0  0  0  0  0  0  0  0  0  0
  2  1  1  0
  2  3  1  0
  3 10  1  0
  4  3  2  0
  6  5  1  0
  6  7  2  0
  8  6  1  0
  9  8  1  6
  9 11  1  0
 10  9  1  0
 11 21  1  0
 11 12  2  0
 13 14  1  0
 14 16  1  0
 15 14  2  0
 16 17  1  0
 17 18  1  0
 18 19  1  0
 20 19  1  1
 21 20  1  0
 22 20  1  0
 22 24  1  0
 23 22  2  0
M  END
$$$$
