GNR.pdb
     RDKit          3D

 24 23  0  0  1  0  0  0  0  0999 V2000
   15.8896  -26.8254    0.1551 N   0  0  0  0  0  0  0  0  0  0  0  0
   16.6847  -26.3708    1.2662 C   0  0  0  0  0  0  0  0  0  0  0  0
   15.9818  -25.3111    2.0483 C   0  0  0  0  0  0  0  0  0  0  0  0
   14.7571  -25.1709    1.8654 O   0  0  0  0  0  0  0  0  0  0  0  0
   17.8827  -24.5863    6.4170 N   0  0  0  0  0  0  0  0  0  0  0  0
   16.6632  -24.0115    5.9848 C   0  0  0  0  0  0  0  0  0  0  0  0
   15.6094  -24.3965    6.5457 O   0  0  0  0  0  0  0  0  0  0  0  0
   16.7177  -23.0029    4.9079 C   0  0  0  0  0  0  0  0  0  0  0  0
   15.9728  -23.4558    3.6690 C   0  0  2  0  0  0  0  0  0  0  0  0
   16.6772  -24.4860    2.9716 N   0  0  0  0  0  0  0  0  0  0  0  0
   15.7846  -22.2512    2.8179 C   0  0  0  0  0  0  0  0  0  0  0  0
   16.5906  -22.0558    1.8793 O   0  0  0  0  0  0  0  0  0  0  0  0
   11.7103  -23.3648   -3.4076 N   0  0  0  0  0  0  0  0  0  0  0  0
   11.4579  -21.9587   -3.4084 C   0  0  0  0  0  0  0  0  0  0  0  0
   10.8241  -21.3993   -4.3898 N   0  0  0  0  0  0  0  0  0  0  0  0
   11.8825  -21.1141   -2.3492 N   0  0  0  0  0  0  0  0  0  0  0  0
   12.6191  -21.6984   -1.2186 C   0  0  0  0  0  0  0  0  0  0  0  0
   12.8642  -20.6482   -0.1511 C   0  0  0  0  0  0  0  0  0  0  0  0
   13.6141  -21.3474    0.9512 C   0  0  0  0  0  0  0  0  0  0  0  0
   14.2361  -20.4457    1.9592 C   0  0  2  0  0  0  0  0  0  0  0  0
   14.7423  -21.3317    3.0281 N   0  0  0  0  0  0  0  0  0  0  0  0
   13.1915  -19.6216    2.6051 C   0  0  0  0  0  0  0  0  0  0  0  0
   12.4776  -20.0371    3.5617 O   0  0  0  0  0  0  0  0  0  0  0  0
   12.9513  -18.3394    2.1801 O   0  0  0  0  0  0  0  0  0  0  0  0
  2  1  1  0
  2  3  1  0
  3 10  1  0
  4  3  2  0
  6  5  1  0
  6  7  2  0
  8  6  1  0
  9  8  1  1
  9 11  1  0
 10  9  1  0
 11 21  1  0
 11 12  2  0
 13 14  1  0
 14 16  1  0
 15 14  2  0
 16 17  1  0
 17 18  1  0
 18 19  1  0
 20 19  1  6
 21 20  1  0
 22 20  1  0
 22 24  1  0
 23 22  2  0
M  END
$$$$
