GNR.pdb
     RDKit          3D

 24 23  0  0  1  0  0  0  0  0999 V2000
   18.0249  -27.1820   -4.5984 N   0  0  0  0  0  0  0  0  0  0  0  0
   18.6630  -26.7347   -3.3876 C   0  0  0  0  0  0  0  0  0  0  0  0
   17.6805  -26.5740   -2.2751 C   0  0  0  0  0  0  0  0  0  0  0  0
   16.5654  -26.0906   -2.5510 O   0  0  0  0  0  0  0  0  0  0  0  0
   16.8837  -29.5188    0.1191 N   0  0  0  0  0  0  0  0  0  0  0  0
   17.2991  -28.9306    1.3381 C   0  0  0  0  0  0  0  0  0  0  0  0
   17.5084  -29.6956    2.3099 O   0  0  0  0  0  0  0  0  0  0  0  0
   17.4561  -27.4631    1.3794 C   0  0  0  0  0  0  0  0  0  0  0  0
   17.0165  -26.8095    0.0854 C   0  0  2  0  0  0  0  0  0  0  0  0
   17.9970  -26.9562   -0.9446 N   0  0  0  0  0  0  0  0  0  0  0  0
   16.7596  -25.3779    0.3942 C   0  0  0  0  0  0  0  0  0  0  0  0
   17.7381  -24.6439    0.6638 O   0  0  0  0  0  0  0  0  0  0  0  0
   11.8741  -20.6724   -4.4134 N   0  0  0  0  0  0  0  0  0  0  0  0
   11.9292  -21.7877   -3.5224 C   0  0  0  0  0  0  0  0  0  0  0  0
   11.1393  -22.8021   -3.6803 N   0  0  0  0  0  0  0  0  0  0  0  0
   12.8391  -21.8413   -2.4340 N   0  0  0  0  0  0  0  0  0  0  0  0
   12.3546  -21.5361   -1.0796 C   0  0  0  0  0  0  0  0  0  0  0  0
   13.4841  -21.6666   -0.0748 C   0  0  0  0  0  0  0  0  0  0  0  0
   13.9948  -23.0764   -0.2088 C   0  0  0  0  0  0  0  0  0  0  0  0
   15.2224  -23.3782    0.5773 C   0  0  2  0  0  0  0  0  0  0  0  0
   15.4676  -24.8240    0.3941 N   0  0  0  0  0  0  0  0  0  0  0  0
   14.9445  -23.2149    2.0208 C   0  0  0  0  0  0  0  0  0  0  0  0
   14.6042  -24.1733    2.7711 O   0  0  0  0  0  0  0  0  0  0  0  0
   15.0495  -21.9839    2.6174 O   0  0  0  0  0  0  0  0  0  0  0  0
  2  1  1  0
  2  3  1  0
  3 10  1  0
  4  3  2  0
  6  5  1  0
  6  7  2  0
  8  6  1  0
  9  8  1  1
  9 11  1  0
 10  9  1  0
 11 21  1  0
 11 12  2  0
 13 14  1  0
 14 16  1  0
 15 14  2  0
 16 17  1  0
 17 18  1  0
 18 19  1  0
 20 19  1  6
 21 20  1  0
 22 20  1  0
 22 24  1  0
 23 22  2  0
M  END
$$$$
