GNR.pdb
     RDKit          3D

 24 23  0  0  1  0  0  0  0  0999 V2000
   43.2181  -20.1635  -15.5266 N   0  0  0  0  0  0  0  0  0  0  0  0
   44.2959  -19.2429  -15.7803 C   0  0  0  0  0  0  0  0  0  0  0  0
   44.0443  -17.9140  -15.1483 C   0  0  0  0  0  0  0  0  0  0  0  0
   45.0316  -17.2016  -14.8823 O   0  0  0  0  0  0  0  0  0  0  0  0
   42.2813  -13.8448  -15.6718 N   0  0  0  0  0  0  0  0  0  0  0  0
   41.0558  -14.4184  -15.2549 C   0  0  0  0  0  0  0  0  0  0  0  0
   39.9993  -13.8155  -15.5607 O   0  0  0  0  0  0  0  0  0  0  0  0
   41.1079  -15.6815  -14.4921 C   0  0  0  0  0  0  0  0  0  0  0  0
   42.5292  -16.1678  -14.2973 C   0  0  2  0  0  0  0  0  0  0  0  0
   42.7278  -17.4685  -14.8565 N   0  0  0  0  0  0  0  0  0  0  0  0
   42.7886  -16.1579  -12.8333 C   0  0  0  0  0  0  0  0  0  0  0  0
   42.5706  -17.2071  -12.1847 O   0  0  0  0  0  0  0  0  0  0  0  0
   43.1319  -17.7744   -5.9434 N   0  0  0  0  0  0  0  0  0  0  0  0
   44.5334  -17.4999   -5.9078 C   0  0  0  0  0  0  0  0  0  0  0  0
   45.2530  -17.8552   -4.8911 N   0  0  0  0  0  0  0  0  0  0  0  0
   45.2001  -16.8333   -6.9692 N   0  0  0  0  0  0  0  0  0  0  0  0
   44.5580  -16.7695   -8.2906 C   0  0  0  0  0  0  0  0  0  0  0  0
   45.4354  -16.0069   -9.2658 C   0  0  0  0  0  0  0  0  0  0  0  0
   44.7091  -16.0361  -10.5842 C   0  0  0  0  0  0  0  0  0  0  0  0
   43.6128  -15.0384  -10.7208 C   0  0  2  0  0  0  0  0  0  0  0  0
   43.2659  -15.0216  -12.1572 N   0  0  0  0  0  0  0  0  0  0  0  0
   44.1313  -13.6833  -10.4343 C   0  0  0  0  0  0  0  0  0  0  0  0
   44.2342  -13.2165   -9.2643 O   0  0  0  0  0  0  0  0  0  0  0  0
   44.5328  -12.8588  -11.4547 O   0  0  0  0  0  0  0  0  0  0  0  0
  2  1  1  0
  2  3  1  0
  3 10  1  0
  4  3  2  0
  6  5  1  0
  6  7  2  0
  8  6  1  0
  9  8  1  1
  9 11  1  0
 10  9  1  0
 11 21  1  0
 11 12  2  0
 13 14  1  0
 14 16  1  0
 15 14  2  0
 16 17  1  0
 17 18  1  0
 18 19  1  0
 20 19  1  6
 21 20  1  0
 22 20  1  0
 22 24  1  0
 23 22  2  0
M  END
$$$$
