GNR.pdb
     RDKit          3D

 24 23  0  0  1  0  0  0  0  0999 V2000
   13.0459  -22.5158   -2.8114 N   0  0  0  0  0  0  0  0  0  0  0  0
   14.2805  -21.9787   -2.3008 C   0  0  0  0  0  0  0  0  0  0  0  0
   14.2619  -21.8773   -0.8115 C   0  0  0  0  0  0  0  0  0  0  0  0
   13.3847  -21.1624   -0.2894 O   0  0  0  0  0  0  0  0  0  0  0  0
   16.3028  -25.8340    1.5647 N   0  0  0  0  0  0  0  0  0  0  0  0
   15.4700  -24.7860    2.0259 C   0  0  0  0  0  0  0  0  0  0  0  0
   14.2888  -25.0759    2.3328 O   0  0  0  0  0  0  0  0  0  0  0  0
   16.0485  -23.4304    2.1127 C   0  0  0  0  0  0  0  0  0  0  0  0
   15.1873  -22.4006    1.4108 C   0  0  2  0  0  0  0  0  0  0  0  0
   15.2077  -22.5686   -0.0088 N   0  0  0  0  0  0  0  0  0  0  0  0
   15.7054  -21.0652    1.8096 C   0  0  0  0  0  0  0  0  0  0  0  0
   16.6394  -20.5667    1.1403 O   0  0  0  0  0  0  0  0  0  0  0  0
   12.0515  -14.6928    4.7401 N   0  0  0  0  0  0  0  0  0  0  0  0
   13.3407  -14.1091    4.9353 C   0  0  0  0  0  0  0  0  0  0  0  0
   13.5132  -13.1544    5.7935 N   0  0  0  0  0  0  0  0  0  0  0  0
   14.4826  -14.5389    4.2095 N   0  0  0  0  0  0  0  0  0  0  0  0
   14.3838  -15.7369    3.3624 C   0  0  0  0  0  0  0  0  0  0  0  0
   14.4270  -16.9903    4.2165 C   0  0  0  0  0  0  0  0  0  0  0  0
   14.4025  -18.1470    3.2533 C   0  0  0  0  0  0  0  0  0  0  0  0
   15.6354  -18.9813    3.2406 C   0  0  2  0  0  0  0  0  0  0  0  0
   15.1880  -20.3486    2.9027 N   0  0  0  0  0  0  0  0  0  0  0  0
   16.1842  -19.0834    4.6101 C   0  0  0  0  0  0  0  0  0  0  0  0
   15.8734  -20.0103    5.4112 O   0  0  0  0  0  0  0  0  0  0  0  0
   17.0769  -18.1516    5.0762 O   0  0  0  0  0  0  0  0  0  0  0  0
  2  1  1  0
  2  3  1  0
  3 10  1  0
  4  3  2  0
  6  5  1  0
  6  7  2  0
  8  6  1  0
  9  8  1  1
  9 11  1  0
 10  9  1  0
 11 21  1  0
 11 12  2  0
 13 14  1  0
 14 16  1  0
 15 14  2  0
 16 17  1  0
 17 18  1  0
 18 19  1  0
 20 19  1  1
 21 20  1  0
 22 20  1  0
 22 24  1  0
 23 22  2  0
M  END
$$$$
