GNR.pdb
     RDKit          3D

 24 23  0  0  1  0  0  0  0  0999 V2000
   24.6150  -21.0749   -9.7470 N   0  0  0  0  0  0  0  0  0  0  0  0
   24.5764  -21.7272  -11.0302 C   0  0  0  0  0  0  0  0  0  0  0  0
   24.7609  -20.7543  -12.1474 C   0  0  0  0  0  0  0  0  0  0  0  0
   24.8119  -19.5428  -11.8595 O   0  0  0  0  0  0  0  0  0  0  0  0
   28.3012  -20.1271  -15.8658 N   0  0  0  0  0  0  0  0  0  0  0  0
   27.3421  -20.9941  -15.2887 C   0  0  0  0  0  0  0  0  0  0  0  0
   27.7566  -21.8698  -14.4921 O   0  0  0  0  0  0  0  0  0  0  0  0
   25.9265  -20.8069  -15.6640 C   0  0  0  0  0  0  0  0  0  0  0  0
   25.1111  -20.2249  -14.5277 C   0  0  2  0  0  0  0  0  0  0  0  0
   24.8754  -21.1856  -13.4956 N   0  0  0  0  0  0  0  0  0  0  0  0
   23.8376  -19.7371  -15.1202 C   0  0  0  0  0  0  0  0  0  0  0  0
   22.9019  -20.5557  -15.2726 O   0  0  0  0  0  0  0  0  0  0  0  0
   19.4650  -14.5651  -17.9984 N   0  0  0  0  0  0  0  0  0  0  0  0
   19.3032  -13.6104  -16.9480 C   0  0  0  0  0  0  0  0  0  0  0  0
   18.2142  -12.9169  -16.8444 N   0  0  0  0  0  0  0  0  0  0  0  0
   20.3127  -13.3760  -15.9778 N   0  0  0  0  0  0  0  0  0  0  0  0
   21.5323  -14.1973  -16.0002 C   0  0  0  0  0  0  0  0  0  0  0  0
   21.1752  -15.6711  -15.9456 C   0  0  0  0  0  0  0  0  0  0  0  0
   22.4801  -16.4156  -16.0429 C   0  0  0  0  0  0  0  0  0  0  0  0
   22.3600  -17.8994  -16.0337 C   0  0  2  0  0  0  0  0  0  0  0  0
   23.6486  -18.4004  -15.5120 N   0  0  0  0  0  0  0  0  0  0  0  0
   22.2848  -18.4035  -17.4221 C   0  0  0  0  0  0  0  0  0  0  0  0
   23.3040  -18.5826  -18.1478 O   0  0  0  0  0  0  0  0  0  0  0  0
   21.0734  -18.7056  -17.9909 O   0  0  0  0  0  0  0  0  0  0  0  0
  2  1  1  0
  2  3  1  0
  3 10  1  0
  4  3  2  0
  6  5  1  0
  6  7  2  0
  8  6  1  0
  9  8  1  6
  9 11  1  0
 10  9  1  0
 11 21  1  0
 11 12  2  0
 13 14  1  0
 14 16  1  0
 15 14  2  0
 16 17  1  0
 17 18  1  0
 18 19  1  0
 20 19  1  6
 21 20  1  0
 22 20  1  0
 22 24  1  0
 23 22  2  0
M  END
$$$$
