GNR.pdb
     RDKit          3D

 24 23  0  0  1  0  0  0  0  0999 V2000
   18.8662  -25.0961   -5.7823 N   0  0  0  0  0  0  0  0  0  0  0  0
   18.0156  -24.6282   -6.8457 C   0  0  0  0  0  0  0  0  0  0  0  0
   18.7604  -24.5103   -8.1342 C   0  0  0  0  0  0  0  0  0  0  0  0
   20.0035  -24.4381   -8.0814 O   0  0  0  0  0  0  0  0  0  0  0  0
   19.7324  -26.9974  -10.3755 N   0  0  0  0  0  0  0  0  0  0  0  0
   18.8440  -26.7733  -11.4549 C   0  0  0  0  0  0  0  0  0  0  0  0
   18.5795  -27.7467  -12.2004 O   0  0  0  0  0  0  0  0  0  0  0  0
   18.2933  -25.4141  -11.6262 C   0  0  0  0  0  0  0  0  0  0  0  0
   18.8393  -24.4474  -10.5956 C   0  0  2  0  0  0  0  0  0  0  0  0
   18.0837  -24.4805   -9.3824 N   0  0  0  0  0  0  0  0  0  0  0  0
   18.8128  -23.0974  -11.2181 C   0  0  0  0  0  0  0  0  0  0  0  0
   17.7476  -22.4405  -11.1661 O   0  0  0  0  0  0  0  0  0  0  0  0
   24.7810  -24.0038  -13.9832 N   0  0  0  0  0  0  0  0  0  0  0  0
   24.6863  -22.9779  -14.9728 C   0  0  0  0  0  0  0  0  0  0  0  0
   25.1179  -23.1771  -16.1777 N   0  0  0  0  0  0  0  0  0  0  0  0
   24.1226  -21.7058  -14.6910 N   0  0  0  0  0  0  0  0  0  0  0  0
   23.5974  -21.4375  -13.3439 C   0  0  0  0  0  0  0  0  0  0  0  0
   22.1813  -21.9673  -13.2161 C   0  0  0  0  0  0  0  0  0  0  0  0
   21.3662  -20.8343  -12.6518 C   0  0  0  0  0  0  0  0  0  0  0  0
   19.9373  -21.1577  -12.3879 C   0  0  2  0  0  0  0  0  0  0  0  0
   19.9322  -22.5371  -11.8577 N   0  0  0  0  0  0  0  0  0  0  0  0
   19.1975  -21.2340  -13.6662 C   0  0  0  0  0  0  0  0  0  0  0  0
   19.0242  -22.3134  -14.3003 O   0  0  0  0  0  0  0  0  0  0  0  0
   18.6551  -20.1058  -14.2278 O   0  0  0  0  0  0  0  0  0  0  0  0
  2  1  1  0
  2  3  1  0
  3 10  1  0
  4  3  2  0
  6  5  1  0
  6  7  2  0
  8  6  1  0
  9  8  1  6
  9 11  1  0
 10  9  1  0
 11 21  1  0
 11 12  2  0
 13 14  1  0
 14 16  1  0
 15 14  2  0
 16 17  1  0
 17 18  1  0
 18 19  1  0
 20 19  1  6
 21 20  1  0
 22 20  1  0
 22 24  1  0
 23 22  2  0
M  END
$$$$
