GNR.pdb
     RDKit          3D

 24 23  0  0  1  0  0  0  0  0999 V2000
   17.7473  -11.6345  -14.8255 N   0  0  0  0  0  0  0  0  0  0  0  0
   18.7033  -10.7004  -15.3614 C   0  0  0  0  0  0  0  0  0  0  0  0
   19.1157   -9.6903  -14.3425 C   0  0  0  0  0  0  0  0  0  0  0  0
   19.0106  -10.0020  -13.1405 O   0  0  0  0  0  0  0  0  0  0  0  0
   21.8110   -4.4143  -13.2150 N   0  0  0  0  0  0  0  0  0  0  0  0
   21.6926   -5.8125  -13.0267 C   0  0  0  0  0  0  0  0  0  0  0  0
   22.0516   -6.2814  -11.9201 O   0  0  0  0  0  0  0  0  0  0  0  0
   21.1566   -6.6174  -14.1425 C   0  0  0  0  0  0  0  0  0  0  0  0
   19.9825   -7.4723  -13.7118 C   0  0  2  0  0  0  0  0  0  0  0  0
   19.6122   -8.4147  -14.7210 N   0  0  0  0  0  0  0  0  0  0  0  0
   18.8664   -6.5410  -13.3990 C   0  0  0  0  0  0  0  0  0  0  0  0
   18.2054   -6.0658  -14.3508 O   0  0  0  0  0  0  0  0  0  0  0  0
   14.8230   -9.2132   -8.5940 N   0  0  0  0  0  0  0  0  0  0  0  0
   13.8870   -8.1677   -8.3260 C   0  0  0  0  0  0  0  0  0  0  0  0
   12.6203   -8.4205   -8.2298 N   0  0  0  0  0  0  0  0  0  0  0  0
   14.2908   -6.8176   -8.1539 N   0  0  0  0  0  0  0  0  0  0  0  0
   15.6478   -6.4190   -8.5565 C   0  0  0  0  0  0  0  0  0  0  0  0
   15.7062   -6.1907  -10.0555 C   0  0  0  0  0  0  0  0  0  0  0  0
   17.0592   -5.5898  -10.3289 C   0  0  0  0  0  0  0  0  0  0  0  0
   17.3569   -5.3375  -11.7655 C   0  0  2  0  0  0  0  0  0  0  0  0
   18.5299   -6.1784  -12.0832 N   0  0  0  0  0  0  0  0  0  0  0  0
   17.8224   -3.9449  -11.9426 C   0  0  0  0  0  0  0  0  0  0  0  0
   17.0752   -2.9401  -11.7715 O   0  0  0  0  0  0  0  0  0  0  0  0
   19.1186   -3.6828  -12.3080 O   0  0  0  0  0  0  0  0  0  0  0  0
  2  1  1  0
  2  3  1  0
  3 10  1  0
  4  3  2  0
  6  5  1  0
  6  7  2  0
  8  6  1  0
  9  8  1  6
  9 11  1  0
 10  9  1  0
 11 21  1  0
 11 12  2  0
 13 14  1  0
 14 16  1  0
 15 14  2  0
 16 17  1  0
 17 18  1  0
 18 19  1  0
 20 19  1  1
 21 20  1  0
 22 20  1  0
 22 24  1  0
 23 22  2  0
M  END
$$$$
