GNR.pdb
     RDKit          3D

 24 23  0  0  1  0  0  0  0  0999 V2000
   14.7058  -11.8621   -9.0937 N   0  0  0  0  0  0  0  0  0  0  0  0
   14.7622  -11.3930  -10.4539 C   0  0  0  0  0  0  0  0  0  0  0  0
   14.8095   -9.9023  -10.5199 C   0  0  0  0  0  0  0  0  0  0  0  0
   14.3831   -9.3533  -11.5543 O   0  0  0  0  0  0  0  0  0  0  0  0
   16.1660   -4.8034   -7.4902 N   0  0  0  0  0  0  0  0  0  0  0  0
   15.2270   -5.6045   -8.1839 C   0  0  0  0  0  0  0  0  0  0  0  0
   14.3032   -5.0170   -8.7960 O   0  0  0  0  0  0  0  0  0  0  0  0
   15.4009   -7.0699   -8.1380 C   0  0  0  0  0  0  0  0  0  0  0  0
   15.2550   -7.7011   -9.5073 C   0  0  2  0  0  0  0  0  0  0  0  0
   15.3215   -9.1279   -9.4452 N   0  0  0  0  0  0  0  0  0  0  0  0
   16.3401   -7.1408  -10.3553 C   0  0  0  0  0  0  0  0  0  0  0  0
   17.5223   -7.2519   -9.9567 O   0  0  0  0  0  0  0  0  0  0  0  0
   16.4193  -10.3961  -17.2643 N   0  0  0  0  0  0  0  0  0  0  0  0
   17.2341  -10.9026  -16.2058 C   0  0  0  0  0  0  0  0  0  0  0  0
   17.6319  -12.1353  -16.2070 N   0  0  0  0  0  0  0  0  0  0  0  0
   17.6439  -10.0931  -15.1139 N   0  0  0  0  0  0  0  0  0  0  0  0
   17.1486   -8.7116  -15.0209 C   0  0  0  0  0  0  0  0  0  0  0  0
   17.6507   -8.0572  -13.7473 C   0  0  0  0  0  0  0  0  0  0  0  0
   17.0519   -6.6761  -13.7292 C   0  0  0  0  0  0  0  0  0  0  0  0
   17.1680   -5.9569  -12.4310 C   0  0  2  0  0  0  0  0  0  0  0  0
   16.0878   -6.4960  -11.5787 N   0  0  0  0  0  0  0  0  0  0  0  0
   16.8333   -4.5286  -12.6189 C   0  0  0  0  0  0  0  0  0  0  0  0
   17.5992   -3.7113  -13.2045 O   0  0  0  0  0  0  0  0  0  0  0  0
   15.6462   -4.0223  -12.1536 O   0  0  0  0  0  0  0  0  0  0  0  0
  2  1  1  0
  2  3  1  0
  3 10  1  0
  4  3  2  0
  6  5  1  0
  6  7  2  0
  8  6  1  0
  9  8  1  1
  9 11  1  0
 10  9  1  0
 11 21  1  0
 11 12  2  0
 13 14  1  0
 14 16  1  0
 15 14  2  0
 16 17  1  0
 17 18  1  0
 18 19  1  0
 20 19  1  6
 21 20  1  0
 22 20  1  0
 22 24  1  0
 23 22  2  0
M  END
$$$$
