GNR.pdb
     RDKit          3D

 24 23  0  0  1  0  0  0  0  0999 V2000
   27.9936  -20.0099  -16.4068 N   0  0  0  0  0  0  0  0  0  0  0  0
   27.1339  -19.1801  -15.6032 C   0  0  0  0  0  0  0  0  0  0  0  0
   26.0820  -19.9839  -14.9131 C   0  0  0  0  0  0  0  0  0  0  0  0
   25.3476  -20.7045  -15.6163 O   0  0  0  0  0  0  0  0  0  0  0  0
   26.3819  -22.8513  -11.2785 N   0  0  0  0  0  0  0  0  0  0  0  0
   26.2935  -21.4563  -11.0537 C   0  0  0  0  0  0  0  0  0  0  0  0
   27.3007  -20.8805  -10.5767 O   0  0  0  0  0  0  0  0  0  0  0  0
   25.0264  -20.7799  -11.3953 C   0  0  0  0  0  0  0  0  0  0  0  0
   24.8393  -20.6497  -12.8929 C   0  0  2  0  0  0  0  0  0  0  0  0
   25.9166  -19.9352  -13.5035 N   0  0  0  0  0  0  0  0  0  0  0  0
   23.5387  -19.9607  -13.1039 C   0  0  0  0  0  0  0  0  0  0  0  0
   23.5043  -18.7129  -13.0002 O   0  0  0  0  0  0  0  0  0  0  0  0
   20.6717  -18.3133  -20.2368 N   0  0  0  0  0  0  0  0  0  0  0  0
   19.4152  -18.5799  -19.6115 C   0  0  0  0  0  0  0  0  0  0  0  0
   18.3139  -18.5388  -20.2921 N   0  0  0  0  0  0  0  0  0  0  0  0
   19.3102  -18.8991  -18.2322 N   0  0  0  0  0  0  0  0  0  0  0  0
   20.5006  -18.7812  -17.3770 C   0  0  0  0  0  0  0  0  0  0  0  0
   20.1212  -18.9628  -15.9190 C   0  0  0  0  0  0  0  0  0  0  0  0
   21.2783  -19.6816  -15.2780 C   0  0  0  0  0  0  0  0  0  0  0  0
   21.1152  -19.9670  -13.8261 C   0  0  2  0  0  0  0  0  0  0  0  0
   22.3562  -20.6550  -13.4133 N   0  0  0  0  0  0  0  0  0  0  0  0
   20.0396  -20.9631  -13.6301 C   0  0  0  0  0  0  0  0  0  0  0  0
   20.2318  -22.2101  -13.7029 O   0  0  0  0  0  0  0  0  0  0  0  0
   18.7575  -20.5612  -13.3529 O   0  0  0  0  0  0  0  0  0  0  0  0
  2  1  1  0
  2  3  1  0
  3 10  1  0
  4  3  2  0
  6  5  1  0
  6  7  2  0
  8  6  1  0
  9  8  1  1
  9 11  1  0
 10  9  1  0
 11 21  1  0
 11 12  2  0
 13 14  1  0
 14 16  1  0
 15 14  2  0
 16 17  1  0
 17 18  1  0
 18 19  1  0
 20 19  1  6
 21 20  1  0
 22 20  1  0
 22 24  1  0
 23 22  2  0
M  END
$$$$
