GNR.pdb
     RDKit          3D

 24 23  0  0  1  0  0  0  0  0999 V2000
   26.5430  -22.5966  -15.6982 N   0  0  0  0  0  0  0  0  0  0  0  0
   25.2347  -23.1766  -15.8576 C   0  0  0  0  0  0  0  0  0  0  0  0
   24.2275  -22.5113  -14.9792 C   0  0  0  0  0  0  0  0  0  0  0  0
   24.5090  -22.3759  -13.7727 O   0  0  0  0  0  0  0  0  0  0  0  0
   23.3389  -19.2744  -13.5507 N   0  0  0  0  0  0  0  0  0  0  0  0
   22.3528  -18.9508  -14.5138 C   0  0  0  0  0  0  0  0  0  0  0  0
   22.1697  -17.7369  -14.7713 O   0  0  0  0  0  0  0  0  0  0  0  0
   21.6122  -20.0612  -15.1450 C   0  0  0  0  0  0  0  0  0  0  0  0
   22.0540  -21.4101  -14.6159 C   0  0  2  0  0  0  0  0  0  0  0  0
   22.9880  -22.0453  -15.4922 N   0  0  0  0  0  0  0  0  0  0  0  0
   20.8236  -22.2272  -14.4450 C   0  0  0  0  0  0  0  0  0  0  0  0
   20.3088  -22.7451  -15.4627 O   0  0  0  0  0  0  0  0  0  0  0  0
   19.6498  -27.4799   -9.0984 N   0  0  0  0  0  0  0  0  0  0  0  0
   18.3000  -27.2836   -9.5233 C   0  0  0  0  0  0  0  0  0  0  0  0
   17.3407  -28.0071   -9.0397 N   0  0  0  0  0  0  0  0  0  0  0  0
   17.9456  -26.2997  -10.4834 N   0  0  0  0  0  0  0  0  0  0  0  0
   18.9549  -25.8489  -11.4532 C   0  0  0  0  0  0  0  0  0  0  0  0
   19.6307  -24.5832  -10.9595 C   0  0  0  0  0  0  0  0  0  0  0  0
   18.8491  -23.4404  -11.5506 C   0  0  0  0  0  0  0  0  0  0  0  0
   19.0090  -23.2623  -13.0199 C   0  0  2  0  0  0  0  0  0  0  0  0
   20.2227  -22.4370  -13.1916 N   0  0  0  0  0  0  0  0  0  0  0  0
   17.9027  -22.4340  -13.5465 C   0  0  0  0  0  0  0  0  0  0  0  0
   17.9328  -21.1705  -13.5614 O   0  0  0  0  0  0  0  0  0  0  0  0
   16.7711  -23.0207  -14.0540 O   0  0  0  0  0  0  0  0  0  0  0  0
  2  1  1  0
  2  3  1  0
  3 10  1  0
  4  3  2  0
  6  5  1  0
  6  7  2  0
  8  6  1  0
  9  8  1  6
  9 11  1  0
 10  9  1  0
 11 21  1  0
 11 12  2  0
 13 14  1  0
 14 16  1  0
 15 14  2  0
 16 17  1  0
 17 18  1  0
 18 19  1  0
 20 19  1  1
 21 20  1  0
 22 20  1  0
 22 24  1  0
 23 22  2  0
M  END
$$$$
