GNR.pdb
     RDKit          3D

 24 23  0  0  1  0  0  0  0  0999 V2000
   17.9313  -14.4475  -15.2010 N   0  0  0  0  0  0  0  0  0  0  0  0
   17.0022  -13.3834  -15.4801 C   0  0  0  0  0  0  0  0  0  0  0  0
   17.3625  -12.1329  -14.7487 C   0  0  0  0  0  0  0  0  0  0  0  0
   16.9473  -12.0036  -13.5807 O   0  0  0  0  0  0  0  0  0  0  0  0
   20.8279   -7.9721  -13.2839 N   0  0  0  0  0  0  0  0  0  0  0  0
   19.9381   -7.9748  -14.3852 C   0  0  0  0  0  0  0  0  0  0  0  0
   19.4051   -6.8848  -14.7031 O   0  0  0  0  0  0  0  0  0  0  0  0
   19.7010   -9.2562  -15.0792 C   0  0  0  0  0  0  0  0  0  0  0  0
   18.3979   -9.8997  -14.6518 C   0  0  2  0  0  0  0  0  0  0  0  0
   18.1511  -11.1195  -15.3553 N   0  0  0  0  0  0  0  0  0  0  0  0
   17.3251   -8.9004  -14.8994 C   0  0  0  0  0  0  0  0  0  0  0  0
   16.8573   -8.8063  -16.0575 O   0  0  0  0  0  0  0  0  0  0  0  0
   10.2920  -10.4247  -12.3319 N   0  0  0  0  0  0  0  0  0  0  0  0
   11.1159  -10.1150  -11.2068 C   0  0  0  0  0  0  0  0  0  0  0  0
   10.7820  -10.4972  -10.0151 N   0  0  0  0  0  0  0  0  0  0  0  0
   12.3256   -9.3830  -11.3347 N   0  0  0  0  0  0  0  0  0  0  0  0
   12.7611   -8.9467  -12.6697 C   0  0  0  0  0  0  0  0  0  0  0  0
   14.0568   -8.1633  -12.5707 C   0  0  0  0  0  0  0  0  0  0  0  0
   14.4686   -7.8658  -13.9878 C   0  0  0  0  0  0  0  0  0  0  0  0
   15.7336   -7.0935  -14.1265 C   0  0  2  0  0  0  0  0  0  0  0  0
   16.8217   -8.0645  -13.8876 N   0  0  0  0  0  0  0  0  0  0  0  0
   15.8441   -6.1129  -13.0249 C   0  0  0  0  0  0  0  0  0  0  0  0
   15.1052   -5.0916  -12.9329 O   0  0  0  0  0  0  0  0  0  0  0  0
   16.7771   -6.2790  -12.0328 O   0  0  0  0  0  0  0  0  0  0  0  0
  2  1  1  0
  2  3  1  0
  3 10  1  0
  4  3  2  0
  6  5  1  0
  6  7  2  0
  8  6  1  0
  9  8  1  6
  9 11  1  0
 10  9  1  0
 11 21  1  0
 11 12  2  0
 13 14  1  0
 14 16  1  0
 15 14  2  0
 16 17  1  0
 17 18  1  0
 18 19  1  0
 20 19  1  1
 21 20  1  0
 22 20  1  0
 22 24  1  0
 23 22  2  0
M  END
$$$$
