GNR.pdb
     RDKit          3D

 24 23  0  0  1  0  0  0  0  0999 V2000
   26.2362  -25.2853  -16.1686 N   0  0  0  0  0  0  0  0  0  0  0  0
   25.2053  -24.3939  -16.6333 C   0  0  0  0  0  0  0  0  0  0  0  0
   24.8706  -23.3594  -15.6103 C   0  0  0  0  0  0  0  0  0  0  0  0
   24.7094  -23.7375  -14.4338 O   0  0  0  0  0  0  0  0  0  0  0  0
   26.9383  -20.3566  -15.3437 N   0  0  0  0  0  0  0  0  0  0  0  0
   26.0075  -19.3264  -15.6211 C   0  0  0  0  0  0  0  0  0  0  0  0
   26.4603  -18.2288  -16.0255 O   0  0  0  0  0  0  0  0  0  0  0  0
   24.5744  -19.6158  -15.4155 C   0  0  0  0  0  0  0  0  0  0  0  0
   24.3438  -21.0422  -14.9607 C   0  0  2  0  0  0  0  0  0  0  0  0
   24.7384  -21.9886  -15.9570 N   0  0  0  0  0  0  0  0  0  0  0  0
   22.8971  -21.1606  -14.6383 C   0  0  0  0  0  0  0  0  0  0  0  0
   22.0950  -21.3702  -15.5772 O   0  0  0  0  0  0  0  0  0  0  0  0
   18.5399  -25.3633   -9.7496 N   0  0  0  0  0  0  0  0  0  0  0  0
   17.5831  -24.3058   -9.8333 C   0  0  0  0  0  0  0  0  0  0  0  0
   16.3286  -24.5267   -9.5986 N   0  0  0  0  0  0  0  0  0  0  0  0
   17.9523  -22.9778  -10.1731 N   0  0  0  0  0  0  0  0  0  0  0  0
   19.3286  -22.7077  -10.6149 C   0  0  0  0  0  0  0  0  0  0  0  0
   19.4942  -21.2375  -10.9518 C   0  0  0  0  0  0  0  0  0  0  0  0
   20.8819  -21.0978  -11.5186 C   0  0  0  0  0  0  0  0  0  0  0  0
   20.9728  -21.2265  -12.9989 C   0  0  2  0  0  0  0  0  0  0  0  0
   22.4023  -21.0465  -13.3276 N   0  0  0  0  0  0  0  0  0  0  0  0
   20.2834  -20.0877  -13.6431 C   0  0  0  0  0  0  0  0  0  0  0  0
   20.7653  -18.9199  -13.6795 O   0  0  0  0  0  0  0  0  0  0  0  0
   19.0618  -20.2597  -14.2434 O   0  0  0  0  0  0  0  0  0  0  0  0
  2  1  1  0
  2  3  1  0
  3 10  1  0
  4  3  2  0
  6  5  1  0
  6  7  2  0
  8  6  1  0
  9  8  1  6
  9 11  1  0
 10  9  1  0
 11 21  1  0
 11 12  2  0
 13 14  1  0
 14 16  1  0
 15 14  2  0
 16 17  1  0
 17 18  1  0
 18 19  1  0
 20 19  1  1
 21 20  1  0
 22 20  1  0
 22 24  1  0
 23 22  2  0
M  END
$$$$
