GNR.pdb
     RDKit          3D

 24 23  0  0  1  0  0  0  0  0999 V2000
   22.8465   -8.5576  -10.1500 N   0  0  0  0  0  0  0  0  0  0  0  0
   22.6687   -8.6911  -11.5727 C   0  0  0  0  0  0  0  0  0  0  0  0
   21.7640   -7.6348  -12.1153 C   0  0  0  0  0  0  0  0  0  0  0  0
   22.0609   -6.4453  -11.8915 O   0  0  0  0  0  0  0  0  0  0  0  0
   20.0258   -8.7006  -16.4824 N   0  0  0  0  0  0  0  0  0  0  0  0
   20.0473   -7.4828  -15.7604 C   0  0  0  0  0  0  0  0  0  0  0  0
   20.8882   -6.6185  -16.1055 O   0  0  0  0  0  0  0  0  0  0  0  0
   19.0815   -7.3167  -14.6561 C   0  0  0  0  0  0  0  0  0  0  0  0
   19.7627   -6.9212  -13.3621 C   0  0  2  0  0  0  0  0  0  0  0  0
   20.6022   -7.9649  -12.8623 N   0  0  0  0  0  0  0  0  0  0  0  0
   18.6843   -6.5792  -12.3973 C   0  0  0  0  0  0  0  0  0  0  0  0
   18.4026   -7.4097  -11.5030 O   0  0  0  0  0  0  0  0  0  0  0  0
   13.9121   -9.9547   -8.2821 N   0  0  0  0  0  0  0  0  0  0  0  0
   13.2912   -8.6934   -8.0282 C   0  0  0  0  0  0  0  0  0  0  0  0
   12.1923   -8.6206   -7.3463 N   0  0  0  0  0  0  0  0  0  0  0  0
   13.8383   -7.4725   -8.5030 N   0  0  0  0  0  0  0  0  0  0  0  0
   14.8771   -7.5098   -9.5433 C   0  0  0  0  0  0  0  0  0  0  0  0
   15.3397   -6.1033   -9.8755 C   0  0  0  0  0  0  0  0  0  0  0  0
   16.3775   -6.2546  -10.9556 C   0  0  0  0  0  0  0  0  0  0  0  0
   16.9799   -4.9796  -11.4324 C   0  0  2  0  0  0  0  0  0  0  0  0
   17.9758   -5.3664  -12.4534 N   0  0  0  0  0  0  0  0  0  0  0  0
   17.7658   -4.3599  -10.3435 C   0  0  0  0  0  0  0  0  0  0  0  0
   19.0212   -4.2209  -10.3909 O   0  0  0  0  0  0  0  0  0  0  0  0
   17.1460   -3.8985   -9.2098 O   0  0  0  0  0  0  0  0  0  0  0  0
  2  1  1  0
  2  3  1  0
  3 10  1  0
  4  3  2  0
  6  5  1  0
  6  7  2  0
  8  6  1  0
  9  8  1  6
  9 11  1  0
 10  9  1  0
 11 21  1  0
 11 12  2  0
 13 14  1  0
 14 16  1  0
 15 14  2  0
 16 17  1  0
 17 18  1  0
 18 19  1  0
 20 19  1  1
 21 20  1  0
 22 20  1  0
 22 24  1  0
 23 22  2  0
M  END
$$$$
