GMD.pdb
     RDKit          3D

 21 20  0  0  1  0  0  0  0  0999 V2000
    8.1384  -15.4565   18.6867 N   0  0  0  0  0  0  0  0  0  0  0  0
    7.2310  -15.2960   19.7790 C   0  0  0  0  0  0  0  0  0  0  0  0
    7.9228  -14.9627   21.0513 C   0  0  0  0  0  0  0  0  0  0  0  0
    9.1705  -15.1307   21.1172 O   0  0  0  0  0  0  0  0  0  0  0  0
    7.1142  -11.5097   28.1672 C   0  0  0  0  0  0  0  0  0  0  0  0
    6.3401  -12.2014   26.6848 S   0  0  0  0  0  0  0  0  0  0  0  0
    7.5319  -13.1108   25.6659 C   0  0  0  0  0  0  0  0  0  0  0  0
    6.8278  -13.5062   24.3805 C   0  0  0  0  0  0  0  0  0  0  0  0
    7.8016  -14.2289   23.4435 C   0  0  2  0  0  0  0  0  0  0  0  0
    7.1835  -14.4687   22.1554 N   0  0  0  0  0  0  0  0  0  0  0  0
    8.1485  -15.5146   24.1200 C   0  0  0  0  0  0  0  0  0  0  0  0
    7.4904  -16.5322   23.7976 O   0  0  0  0  0  0  0  0  0  0  0  0
    9.1585  -15.6355   25.0824 N   0  0  0  0  0  0  0  0  0  0  0  0
    9.9596  -16.8362   25.1241 C   0  0  1  0  0  0  0  0  0  0  0  0
   11.0989  -16.7700   24.1659 C   0  0  0  0  0  0  0  0  0  0  0  0
   11.9828  -17.9385   24.3265 C   0  0  0  0  0  0  0  0  0  0  0  0
   13.0446  -17.7709   25.0202 O   0  0  0  0  0  0  0  0  0  0  0  0
   10.4222  -16.9804   26.5405 C   0  0  0  0  0  0  0  0  0  0  0  0
   10.8951  -18.0392   27.0185 O   0  0  0  0  0  0  0  0  0  0  0  0
   11.7962  -19.1913   23.8139 O   0  0  0  0  0  0  0  0  0  0  0  0
   10.3248  -15.8826   27.3785 O   0  0  0  0  0  0  0  0  0  0  0  0
  2  1  1  0
  3  2  1  0
  4  3  2  0
  6  7  1  0
  6  5  1  0
  7  8  1  0
  9  8  1  1
  9 11  1  0
  9 10  1  0
 10  3  1  0
 11 13  1  0
 12 11  2  0
 13 14  1  0
 14 15  1  6
 14 18  1  0
 16 17  2  0
 16 15  1  0
 18 19  2  0
 18 21  1  0
 20 16  1  0
M  END
$$$$
