GMD.pdb
     RDKit          3D

 21 20  0  0  1  0  0  0  0  0999 V2000
    5.5334  -18.6195   21.4434 N   0  0  0  0  0  0  0  0  0  0  0  0
    5.4131  -18.1439   22.7857 C   0  0  0  0  0  0  0  0  0  0  0  0
    6.5346  -17.2511   23.1775 C   0  0  0  0  0  0  0  0  0  0  0  0
    7.5350  -17.1746   22.4141 O   0  0  0  0  0  0  0  0  0  0  0  0
    7.9138  -11.6719   26.8872 C   0  0  0  0  0  0  0  0  0  0  0  0
    6.2541  -12.3231   26.5765 S   0  0  0  0  0  0  0  0  0  0  0  0
    6.2814  -13.6989   25.3969 C   0  0  0  0  0  0  0  0  0  0  0  0
    7.1589  -14.7891   25.9850 C   0  0  0  0  0  0  0  0  0  0  0  0
    7.6010  -15.7633   24.8877 C   0  0  2  0  0  0  0  0  0  0  0  0
    6.4662  -16.5096   24.3837 N   0  0  0  0  0  0  0  0  0  0  0  0
    8.6025  -16.6724   25.5213 C   0  0  0  0  0  0  0  0  0  0  0  0
    8.1639  -17.6165   26.2205 O   0  0  0  0  0  0  0  0  0  0  0  0
    9.9871  -16.5225   25.3738 N   0  0  0  0  0  0  0  0  0  0  0  0
   10.8690  -17.5583   25.8581 C   0  0  1  0  0  0  0  0  0  0  0  0
   12.2595  -17.3757   25.3544 C   0  0  0  0  0  0  0  0  0  0  0  0
   12.2927  -17.4413   23.8823 C   0  0  0  0  0  0  0  0  0  0  0  0
   11.5068  -18.2809   23.3217 O   0  0  0  0  0  0  0  0  0  0  0  0
   10.7988  -17.5011   27.3524 C   0  0  0  0  0  0  0  0  0  0  0  0
   10.1807  -16.6162   27.9912 O   0  0  0  0  0  0  0  0  0  0  0  0
   13.0746  -16.7015   23.0406 O   0  0  0  0  0  0  0  0  0  0  0  0
   11.4535  -18.4812   28.0788 O   0  0  0  0  0  0  0  0  0  0  0  0
  2  1  1  0
  3  2  1  0
  4  3  2  0
  6  7  1  0
  6  5  1  0
  7  8  1  0
  9  8  1  1
  9 11  1  0
  9 10  1  0
 10  3  1  0
 11 13  1  0
 12 11  2  0
 13 14  1  0
 14 15  1  1
 14 18  1  0
 16 17  2  0
 16 15  1  0
 18 19  2  0
 18 21  1  0
 20 16  1  0
M  END
$$$$
