GMD.pdb
     RDKit          3D

 21 20  0  0  1  0  0  0  0  0999 V2000
    7.5099  -16.3965   19.3468 N   0  0  0  0  0  0  0  0  0  0  0  0
    6.8559  -16.2947   20.6134 C   0  0  0  0  0  0  0  0  0  0  0  0
    7.6991  -15.6273   21.6391 C   0  0  0  0  0  0  0  0  0  0  0  0
    8.9243  -15.4616   21.3928 O   0  0  0  0  0  0  0  0  0  0  0  0
    5.2201  -11.9310   26.5433 C   0  0  0  0  0  0  0  0  0  0  0  0
    6.9998  -11.6903   26.3201 S   0  0  0  0  0  0  0  0  0  0  0  0
    7.8581  -13.2584   26.0206 C   0  0  0  0  0  0  0  0  0  0  0  0
    7.0294  -14.0514   25.0262 C   0  0  0  0  0  0  0  0  0  0  0  0
    7.9268  -14.6165   23.9199 C   0  0  2  0  0  0  0  0  0  0  0  0
    7.1247  -15.1930   22.8601 N   0  0  0  0  0  0  0  0  0  0  0  0
    8.7815  -15.6540   24.5710 C   0  0  0  0  0  0  0  0  0  0  0  0
    8.2448  -16.7529   24.8485 O   0  0  0  0  0  0  0  0  0  0  0  0
   10.1334  -15.4607   24.8814 N   0  0  0  0  0  0  0  0  0  0  0  0
   10.9300  -16.5841   25.3154 C   0  0  1  0  0  0  0  0  0  0  0  0
   12.3883  -16.3042   25.1909 C   0  0  0  0  0  0  0  0  0  0  0  0
   12.9501  -16.9848   24.0104 C   0  0  0  0  0  0  0  0  0  0  0  0
   12.2825  -17.9676   23.5358 O   0  0  0  0  0  0  0  0  0  0  0  0
   10.5277  -16.8590   26.7309 C   0  0  0  0  0  0  0  0  0  0  0  0
    9.8011  -16.0974   27.4130 O   0  0  0  0  0  0  0  0  0  0  0  0
   14.1133  -16.6835   23.3597 O   0  0  0  0  0  0  0  0  0  0  0  0
   10.9817  -18.0223   27.3288 O   0  0  0  0  0  0  0  0  0  0  0  0
  2  1  1  0
  3  2  1  0
  4  3  2  0
  6  7  1  0
  6  5  1  0
  7  8  1  0
  9  8  1  1
  9 11  1  0
  9 10  1  0
 10  3  1  0
 11 13  1  0
 12 11  2  0
 13 14  1  0
 14 15  1  1
 14 18  1  0
 16 17  2  0
 16 15  1  0
 18 19  2  0
 18 21  1  0
 20 16  1  0
M  END
$$$$
