GMD.pdb
     RDKit          3D

 21 20  0  0  1  0  0  0  0  0999 V2000
    7.6999  -15.4677   19.3974 N   0  0  0  0  0  0  0  0  0  0  0  0
    7.0649  -14.6858   20.4113 C   0  0  0  0  0  0  0  0  0  0  0  0
    7.8186  -14.6910   21.6919 C   0  0  0  0  0  0  0  0  0  0  0  0
    9.0538  -14.4404   21.6617 O   0  0  0  0  0  0  0  0  0  0  0  0
    6.7804  -10.7189   26.8812 C   0  0  0  0  0  0  0  0  0  0  0  0
    7.3400  -12.4111   26.5673 S   0  0  0  0  0  0  0  0  0  0  0  0
    6.2064  -13.3013   25.4684 C   0  0  0  0  0  0  0  0  0  0  0  0
    6.7365  -14.7151   25.3113 C   0  0  0  0  0  0  0  0  0  0  0  0
    7.7858  -14.7669   24.1957 C   0  0  2  0  0  0  0  0  0  0  0  0
    7.1506  -14.9727   22.9100 N   0  0  0  0  0  0  0  0  0  0  0  0
    8.6931  -15.9041   24.5342 C   0  0  0  0  0  0  0  0  0  0  0  0
    8.2164  -17.0621   24.4678 O   0  0  0  0  0  0  0  0  0  0  0  0
   10.0304  -15.7408   24.9166 N   0  0  0  0  0  0  0  0  0  0  0  0
   10.9004  -16.8921   24.9659 C   0  0  1  0  0  0  0  0  0  0  0  0
   12.2677  -16.5691   24.4690 C   0  0  0  0  0  0  0  0  0  0  0  0
   13.1349  -17.7599   24.5201 C   0  0  0  0  0  0  0  0  0  0  0  0
   12.5931  -18.8839   24.2375 O   0  0  0  0  0  0  0  0  0  0  0  0
   10.9118  -17.3458   26.3925 C   0  0  0  0  0  0  0  0  0  0  0  0
   11.6552  -18.2555   26.8322 O   0  0  0  0  0  0  0  0  0  0  0  0
   14.4631  -17.8006   24.8383 O   0  0  0  0  0  0  0  0  0  0  0  0
   10.0525  -16.7282   27.2853 O   0  0  0  0  0  0  0  0  0  0  0  0
  2  1  1  0
  3  2  1  0
  4  3  2  0
  6  7  1  0
  6  5  1  0
  7  8  1  0
  9  8  1  1
  9 11  1  0
  9 10  1  0
 10  3  1  0
 11 13  1  0
 12 11  2  0
 13 14  1  0
 14 15  1  1
 14 18  1  0
 16 17  2  0
 16 15  1  0
 18 19  2  0
 18 21  1  0
 20 16  1  0
M  END
$$$$
