GMD.pdb
     RDKit          3D

 21 20  0  0  1  0  0  0  0  0999 V2000
    4.8186  -20.0509   23.1868 N   0  0  0  0  0  0  0  0  0  0  0  0
    5.0415  -18.6552   23.3982 C   0  0  0  0  0  0  0  0  0  0  0  0
    6.2267  -18.1481   22.6591 C   0  0  0  0  0  0  0  0  0  0  0  0
    7.0551  -18.9846   22.2081 O   0  0  0  0  0  0  0  0  0  0  0  0
    7.5595  -11.5833   21.2642 C   0  0  0  0  0  0  0  0  0  0  0  0
    8.0282  -12.6337   19.8670 S   0  0  0  0  0  0  0  0  0  0  0  0
    8.4202  -14.3221   20.3968 C   0  0  0  0  0  0  0  0  0  0  0  0
    7.2784  -14.8037   21.2736 C   0  0  0  0  0  0  0  0  0  0  0  0
    7.5658  -16.2181   21.7887 C   0  0  2  0  0  0  0  0  0  0  0  0
    6.4075  -16.7544   22.4738 N   0  0  0  0  0  0  0  0  0  0  0  0
    8.7280  -16.0910   22.7183 C   0  0  0  0  0  0  0  0  0  0  0  0
    8.4794  -15.8455   23.9227 O   0  0  0  0  0  0  0  0  0  0  0  0
   10.0617  -16.2307   22.3147 N   0  0  0  0  0  0  0  0  0  0  0  0
   11.0597  -16.6192   23.2833 C   0  0  1  0  0  0  0  0  0  0  0  0
   10.8420  -18.0113   23.7682 C   0  0  0  0  0  0  0  0  0  0  0  0
   11.9833  -18.4626   24.5846 C   0  0  0  0  0  0  0  0  0  0  0  0
   12.3492  -17.6974   25.5424 O   0  0  0  0  0  0  0  0  0  0  0  0
   12.3844  -16.4595   22.6046 C   0  0  0  0  0  0  0  0  0  0  0  0
   13.4509  -16.1863   23.2056 O   0  0  0  0  0  0  0  0  0  0  0  0
   12.7018  -19.6150   24.4332 O   0  0  0  0  0  0  0  0  0  0  0  0
   12.4427  -16.6221   21.2309 O   0  0  0  0  0  0  0  0  0  0  0  0
  2  1  1  0
  3  2  1  0
  4  3  2  0
  6  7  1  0
  6  5  1  0
  7  8  1  0
  9  8  1  1
  9 11  1  0
  9 10  1  0
 10  3  1  0
 11 13  1  0
 12 11  2  0
 13 14  1  0
 14 15  1  6
 14 18  1  0
 16 17  2  0
 16 15  1  0
 18 19  2  0
 18 21  1  0
 20 16  1  0
M  END
$$$$
