GMD.pdb
     RDKit          3D

 21 20  0  0  1  0  0  0  0  0999 V2000
    7.4147  -15.6437   19.2164 N   0  0  0  0  0  0  0  0  0  0  0  0
    6.9535  -16.0678   20.5009 C   0  0  0  0  0  0  0  0  0  0  0  0
    7.7464  -15.4834   21.6136 C   0  0  0  0  0  0  0  0  0  0  0  0
    8.9831  -15.3092   21.4415 O   0  0  0  0  0  0  0  0  0  0  0  0
    6.0175  -10.9257   26.2023 C   0  0  0  0  0  0  0  0  0  0  0  0
    6.5268  -12.4053   27.1115 S   0  0  0  0  0  0  0  0  0  0  0  0
    7.6855  -13.4176   26.1536 C   0  0  0  0  0  0  0  0  0  0  0  0
    6.9014  -14.0724   25.0306 C   0  0  0  0  0  0  0  0  0  0  0  0
    7.8569  -14.6025   23.9561 C   0  0  2  0  0  0  0  0  0  0  0  0
    7.1129  -15.1353   22.8330 N   0  0  0  0  0  0  0  0  0  0  0  0
    8.6698  -15.6682   24.6154 C   0  0  0  0  0  0  0  0  0  0  0  0
    8.1437  -16.7993   24.7431 O   0  0  0  0  0  0  0  0  0  0  0  0
    9.9717  -15.4669   25.0905 N   0  0  0  0  0  0  0  0  0  0  0  0
   10.7333  -16.5943   25.5741 C   0  0  1  0  0  0  0  0  0  0  0  0
   12.1992  -16.3329   25.5151 C   0  0  0  0  0  0  0  0  0  0  0  0
   12.7240  -16.6128   24.1665 C   0  0  0  0  0  0  0  0  0  0  0  0
   11.8954  -17.0702   23.3056 O   0  0  0  0  0  0  0  0  0  0  0  0
   10.2619  -16.8477   26.9722 C   0  0  0  0  0  0  0  0  0  0  0  0
    9.8702  -15.9477   27.7532 O   0  0  0  0  0  0  0  0  0  0  0  0
   14.0061  -16.4386   23.7272 O   0  0  0  0  0  0  0  0  0  0  0  0
   10.2553  -18.1517   27.4371 O   0  0  0  0  0  0  0  0  0  0  0  0
  2  1  1  0
  3  2  1  0
  4  3  2  0
  6  7  1  0
  6  5  1  0
  7  8  1  0
  9  8  1  1
  9 11  1  0
  9 10  1  0
 10  3  1  0
 11 13  1  0
 12 11  2  0
 13 14  1  0
 14 15  1  1
 14 18  1  0
 16 17  2  0
 16 15  1  0
 18 19  2  0
 18 21  1  0
 20 16  1  0
M  END
$$$$
