GMD.pdb
     RDKit          3D

 21 20  0  0  1  0  0  0  0  0999 V2000
    7.6259  -15.6283   19.4237 N   0  0  0  0  0  0  0  0  0  0  0  0
    6.9619  -15.7722   20.6810 C   0  0  0  0  0  0  0  0  0  0  0  0
    7.8711  -15.5502   21.8353 C   0  0  0  0  0  0  0  0  0  0  0  0
    9.1133  -15.6603   21.6499 O   0  0  0  0  0  0  0  0  0  0  0  0
    6.7857  -10.4145   26.6731 C   0  0  0  0  0  0  0  0  0  0  0  0
    6.6656  -12.2202   26.6947 S   0  0  0  0  0  0  0  0  0  0  0  0
    7.5576  -12.9701   25.3065 C   0  0  0  0  0  0  0  0  0  0  0  0
    7.4294  -14.4768   25.4400 C   0  0  0  0  0  0  0  0  0  0  0  0
    8.1693  -15.1754   24.2942 C   0  0  2  0  0  0  0  0  0  0  0  0
    7.3392  -15.2229   23.1078 N   0  0  0  0  0  0  0  0  0  0  0  0
    8.4849  -16.5507   24.7838 C   0  0  0  0  0  0  0  0  0  0  0  0
    7.8935  -16.9453   25.8169 O   0  0  0  0  0  0  0  0  0  0  0  0
    9.3960  -17.4073   24.1536 N   0  0  0  0  0  0  0  0  0  0  0  0
   10.7845  -17.3822   24.5491 C   0  0  1  0  0  0  0  0  0  0  0  0
   11.4094  -16.0571   24.2769 C   0  0  0  0  0  0  0  0  0  0  0  0
   12.7450  -16.2249   23.6763 C   0  0  0  0  0  0  0  0  0  0  0  0
   13.6218  -16.8402   24.3758 O   0  0  0  0  0  0  0  0  0  0  0  0
   10.8100  -17.7288   26.0053 C   0  0  0  0  0  0  0  0  0  0  0  0
   11.3320  -18.7713   26.4680 O   0  0  0  0  0  0  0  0  0  0  0  0
   13.1573  -15.7938   22.4469 O   0  0  0  0  0  0  0  0  0  0  0  0
   10.2240  -16.8499   26.9002 O   0  0  0  0  0  0  0  0  0  0  0  0
  2  1  1  0
  3  2  1  0
  4  3  2  0
  6  7  1  0
  6  5  1  0
  7  8  1  0
  9  8  1  1
  9 11  1  0
  9 10  1  0
 10  3  1  0
 11 13  1  0
 12 11  2  0
 13 14  1  0
 14 15  1  1
 14 18  1  0
 16 17  2  0
 16 15  1  0
 18 19  2  0
 18 21  1  0
 20 16  1  0
M  END
$$$$
