GMD.pdb
     RDKit          3D

 21 20  0  0  1  0  0  0  0  0999 V2000
    7.2385  -16.0556   19.0604 N   0  0  0  0  0  0  0  0  0  0  0  0
    6.7224  -16.1894   20.3864 C   0  0  0  0  0  0  0  0  0  0  0  0
    7.5796  -15.5250   21.4023 C   0  0  0  0  0  0  0  0  0  0  0  0
    8.7957  -15.3354   21.1292 O   0  0  0  0  0  0  0  0  0  0  0  0
    6.1937  -10.9619   26.5308 C   0  0  0  0  0  0  0  0  0  0  0  0
    6.7387  -12.5898   27.1036 S   0  0  0  0  0  0  0  0  0  0  0  0
    7.8421  -13.3886   25.9080 C   0  0  0  0  0  0  0  0  0  0  0  0
    6.9748  -14.0054   24.8254 C   0  0  0  0  0  0  0  0  0  0  0  0
    7.8510  -14.5728   23.7034 C   0  0  2  0  0  0  0  0  0  0  0  0
    7.0284  -15.1198   22.6438 N   0  0  0  0  0  0  0  0  0  0  0  0
    8.6916  -15.6350   24.3328 C   0  0  0  0  0  0  0  0  0  0  0  0
    8.1419  -16.7344   24.5810 O   0  0  0  0  0  0  0  0  0  0  0  0
   10.0439  -15.4637   24.6540 N   0  0  0  0  0  0  0  0  0  0  0  0
   10.8719  -16.6244   24.8828 C   0  0  1  0  0  0  0  0  0  0  0  0
   12.3170  -16.3144   24.6927 C   0  0  0  0  0  0  0  0  0  0  0  0
   13.1439  -17.5062   24.9546 C   0  0  0  0  0  0  0  0  0  0  0  0
   12.9967  -18.0753   26.0910 O   0  0  0  0  0  0  0  0  0  0  0  0
   10.5723  -17.0827   26.2761 C   0  0  0  0  0  0  0  0  0  0  0  0
   10.5519  -18.2864   26.6283 O   0  0  0  0  0  0  0  0  0  0  0  0
   14.0583  -18.0771   24.1150 O   0  0  0  0  0  0  0  0  0  0  0  0
   10.3007  -16.1252   27.2386 O   0  0  0  0  0  0  0  0  0  0  0  0
  2  1  1  0
  3  2  1  0
  4  3  2  0
  6  7  1  0
  6  5  1  0
  7  8  1  0
  9  8  1  1
  9 11  1  0
  9 10  1  0
 10  3  1  0
 11 13  1  0
 12 11  2  0
 13 14  1  0
 14 15  1  1
 14 18  1  0
 16 17  2  0
 16 15  1  0
 18 19  2  0
 18 21  1  0
 20 16  1  0
M  END
$$$$
