GMD.pdb
     RDKit          3D

 21 20  0  0  1  0  0  0  0  0999 V2000
    7.4463  -13.6484   19.0077 N   0  0  0  0  0  0  0  0  0  0  0  0
    6.9503  -14.3711   20.1365 C   0  0  0  0  0  0  0  0  0  0  0  0
    7.8503  -14.2765   21.3152 C   0  0  0  0  0  0  0  0  0  0  0  0
    9.0937  -14.3703   21.1292 O   0  0  0  0  0  0  0  0  0  0  0  0
    5.6743  -12.5251   27.5038 C   0  0  0  0  0  0  0  0  0  0  0  0
    7.3955  -12.0101   27.2856 S   0  0  0  0  0  0  0  0  0  0  0  0
    8.2789  -13.0897   26.1283 C   0  0  0  0  0  0  0  0  0  0  0  0
    7.3618  -13.3403   24.9447 C   0  0  0  0  0  0  0  0  0  0  0  0
    8.1531  -13.9442   23.7796 C   0  0  2  0  0  0  0  0  0  0  0  0
    7.3085  -14.0853   22.6110 N   0  0  0  0  0  0  0  0  0  0  0  0
    8.6380  -15.2745   24.2551 C   0  0  0  0  0  0  0  0  0  0  0  0
    7.8287  -16.2316   24.2153 O   0  0  0  0  0  0  0  0  0  0  0  0
    9.9338  -15.5001   24.7360 N   0  0  0  0  0  0  0  0  0  0  0  0
   10.3114  -16.8263   25.1644 C   0  0  1  0  0  0  0  0  0  0  0  0
   11.7192  -17.1436   24.7930 C   0  0  0  0  0  0  0  0  0  0  0  0
   11.8887  -17.1225   23.3290 C   0  0  0  0  0  0  0  0  0  0  0  0
   12.5769  -16.1617   22.8390 O   0  0  0  0  0  0  0  0  0  0  0  0
   10.0973  -16.8631   26.6456 C   0  0  0  0  0  0  0  0  0  0  0  0
    9.7907  -15.8605   27.3341 O   0  0  0  0  0  0  0  0  0  0  0  0
   11.3896  -18.0197   22.4273 O   0  0  0  0  0  0  0  0  0  0  0  0
   10.2453  -18.0737   27.3009 O   0  0  0  0  0  0  0  0  0  0  0  0
  2  1  1  0
  3  2  1  0
  4  3  2  0
  6  7  1  0
  6  5  1  0
  7  8  1  0
  9  8  1  1
  9 11  1  0
  9 10  1  0
 10  3  1  0
 11 13  1  0
 12 11  2  0
 13 14  1  0
 14 15  1  1
 14 18  1  0
 16 17  2  0
 16 15  1  0
 18 19  2  0
 18 21  1  0
 20 16  1  0
M  END
$$$$
