GMD.pdb
     RDKit          3D

 21 20  0  0  1  0  0  0  0  0999 V2000
    8.0021  -16.0064   18.9725 N   0  0  0  0  0  0  0  0  0  0  0  0
    7.3584  -16.2776   20.2193 C   0  0  0  0  0  0  0  0  0  0  0  0
    8.0723  -15.6724   21.3736 C   0  0  0  0  0  0  0  0  0  0  0  0
    9.3219  -15.5252   21.2955 O   0  0  0  0  0  0  0  0  0  0  0  0
    6.9061  -11.1739   27.5483 C   0  0  0  0  0  0  0  0  0  0  0  0
    6.4166  -12.8011   26.9254 S   0  0  0  0  0  0  0  0  0  0  0  0
    7.6930  -13.5258   25.8620 C   0  0  0  0  0  0  0  0  0  0  0  0
    6.9895  -14.2163   24.7076 C   0  0  0  0  0  0  0  0  0  0  0  0
    8.0166  -14.7407   23.6984 C   0  0  2  0  0  0  0  0  0  0  0  0
    7.3514  -15.2753   22.5277 N   0  0  0  0  0  0  0  0  0  0  0  0
    8.7887  -15.8036   24.4092 C   0  0  0  0  0  0  0  0  0  0  0  0
    8.1946  -16.8795   24.6582 O   0  0  0  0  0  0  0  0  0  0  0  0
   10.1242  -15.6577   24.8046 N   0  0  0  0  0  0  0  0  0  0  0  0
   10.8265  -16.7881   25.3647 C   0  0  1  0  0  0  0  0  0  0  0  0
   12.3039  -16.6108   25.2864 C   0  0  0  0  0  0  0  0  0  0  0  0
   12.7265  -16.3718   23.8946 C   0  0  0  0  0  0  0  0  0  0  0  0
   12.2726  -17.1721   23.0056 O   0  0  0  0  0  0  0  0  0  0  0  0
   10.3486  -16.9181   26.7775 C   0  0  0  0  0  0  0  0  0  0  0  0
   10.4449  -17.9689   27.4556 O   0  0  0  0  0  0  0  0  0  0  0  0
   13.5555  -15.3845   23.4418 O   0  0  0  0  0  0  0  0  0  0  0  0
    9.7643  -15.8156   27.3775 O   0  0  0  0  0  0  0  0  0  0  0  0
  2  1  1  0
  3  2  1  0
  4  3  2  0
  6  7  1  0
  6  5  1  0
  7  8  1  0
  9  8  1  1
  9 11  1  0
  9 10  1  0
 10  3  1  0
 11 13  1  0
 12 11  2  0
 13 14  1  0
 14 15  1  1
 14 18  1  0
 16 17  2  0
 16 15  1  0
 18 19  2  0
 18 21  1  0
 20 16  1  0
M  END
$$$$
