GMD.pdb
     RDKit          3D

 21 20  0  0  1  0  0  0  0  0999 V2000
    8.0343  -15.4760   19.0895 N   0  0  0  0  0  0  0  0  0  0  0  0
    7.2877  -15.7862   20.2679 C   0  0  0  0  0  0  0  0  0  0  0  0
    7.9536  -15.3087   21.5076 C   0  0  0  0  0  0  0  0  0  0  0  0
    9.2110  -15.2176   21.5159 O   0  0  0  0  0  0  0  0  0  0  0  0
    7.9751  -11.0263   27.4674 C   0  0  0  0  0  0  0  0  0  0  0  0
    7.1930  -11.8670   26.0685 S   0  0  0  0  0  0  0  0  0  0  0  0
    7.3621  -13.6678   26.1863 C   0  0  0  0  0  0  0  0  0  0  0  0
    6.7211  -14.2699   24.9490 C   0  0  0  0  0  0  0  0  0  0  0  0
    7.7933  -14.6057   23.9067 C   0  0  2  0  0  0  0  0  0  0  0  0
    7.1797  -14.9675   22.6452 N   0  0  0  0  0  0  0  0  0  0  0  0
    8.5744  -15.7472   24.4706 C   0  0  0  0  0  0  0  0  0  0  0  0
    8.0167  -16.8700   24.4987 O   0  0  0  0  0  0  0  0  0  0  0  0
    9.8801  -15.6246   24.9618 N   0  0  0  0  0  0  0  0  0  0  0  0
   10.6166  -16.8124   25.3247 C   0  0  1  0  0  0  0  0  0  0  0  0
   12.0857  -16.5635   25.3436 C   0  0  0  0  0  0  0  0  0  0  0  0
   12.5748  -16.2312   23.9935 C   0  0  0  0  0  0  0  0  0  0  0  0
   12.0433  -16.8592   23.0137 O   0  0  0  0  0  0  0  0  0  0  0  0
   10.0987  -17.2314   26.6654 C   0  0  0  0  0  0  0  0  0  0  0  0
    9.5017  -16.4630   27.4569 O   0  0  0  0  0  0  0  0  0  0  0  0
   13.5402  -15.3213   23.6661 O   0  0  0  0  0  0  0  0  0  0  0  0
   10.2868  -18.5446   27.0613 O   0  0  0  0  0  0  0  0  0  0  0  0
  2  1  1  0
  3  2  1  0
  4  3  2  0
  6  7  1  0
  6  5  1  0
  7  8  1  0
  9  8  1  1
  9 11  1  0
  9 10  1  0
 10  3  1  0
 11 13  1  0
 12 11  2  0
 13 14  1  0
 14 15  1  1
 14 18  1  0
 16 17  2  0
 16 15  1  0
 18 19  2  0
 18 21  1  0
 20 16  1  0
M  END
$$$$
