GMD.pdb
     RDKit          3D

 21 20  0  0  1  0  0  0  0  0999 V2000
    4.6390  -19.1086   22.6049 N   0  0  0  0  0  0  0  0  0  0  0  0
    5.1756  -18.6173   23.8350 C   0  0  0  0  0  0  0  0  0  0  0  0
    6.1688  -17.5310   23.6310 C   0  0  0  0  0  0  0  0  0  0  0  0
    6.6295  -17.3497   22.4715 O   0  0  0  0  0  0  0  0  0  0  0  0
    5.5830  -11.0524   26.7329 C   0  0  0  0  0  0  0  0  0  0  0  0
    6.6666  -12.4864   26.9448 S   0  0  0  0  0  0  0  0  0  0  0  0
    6.5911  -13.6029   25.5190 C   0  0  0  0  0  0  0  0  0  0  0  0
    7.5582  -14.7437   25.7788 C   0  0  0  0  0  0  0  0  0  0  0  0
    7.5877  -15.6972   24.5795 C   0  0  2  0  0  0  0  0  0  0  0  0
    6.5784  -16.7264   24.7238 N   0  0  0  0  0  0  0  0  0  0  0  0
    8.9587  -16.2895   24.5562 C   0  0  0  0  0  0  0  0  0  0  0  0
    9.1499  -17.3287   25.2316 O   0  0  0  0  0  0  0  0  0  0  0  0
   10.0244  -15.7476   23.8269 N   0  0  0  0  0  0  0  0  0  0  0  0
   11.1966  -16.5531   23.5777 C   0  0  1  0  0  0  0  0  0  0  0  0
   11.9610  -16.0603   22.3974 C   0  0  0  0  0  0  0  0  0  0  0  0
   13.1718  -16.8735   22.1848 C   0  0  0  0  0  0  0  0  0  0  0  0
   14.2944  -16.3237   22.4573 O   0  0  0  0  0  0  0  0  0  0  0  0
   12.0090  -16.5078   24.8343 C   0  0  0  0  0  0  0  0  0  0  0  0
   11.8477  -15.6576   25.7423 O   0  0  0  0  0  0  0  0  0  0  0  0
   13.2326  -18.1589   21.7251 O   0  0  0  0  0  0  0  0  0  0  0  0
   12.9997  -17.4587   25.0109 O   0  0  0  0  0  0  0  0  0  0  0  0
  2  1  1  0
  3  2  1  0
  4  3  2  0
  6  7  1  0
  6  5  1  0
  7  8  1  0
  9  8  1  1
  9 11  1  0
  9 10  1  0
 10  3  1  0
 11 13  1  0
 12 11  2  0
 13 14  1  0
 14 15  1  6
 14 18  1  0
 16 17  2  0
 16 15  1  0
 18 19  2  0
 18 21  1  0
 20 16  1  0
M  END
$$$$
