GMD.pdb
     RDKit          3D

 21 20  0  0  1  0  0  0  0  0999 V2000
    7.2075  -14.5822   19.4321 N   0  0  0  0  0  0  0  0  0  0  0  0
    6.6966  -15.0289   20.6897 C   0  0  0  0  0  0  0  0  0  0  0  0
    7.6107  -14.7192   21.8197 C   0  0  0  0  0  0  0  0  0  0  0  0
    8.8472  -14.6413   21.5865 O   0  0  0  0  0  0  0  0  0  0  0  0
    7.5687  -11.5337   27.7109 C   0  0  0  0  0  0  0  0  0  0  0  0
    6.1223  -11.5838   26.6244 S   0  0  0  0  0  0  0  0  0  0  0  0
    6.4671  -12.4792   25.0866 C   0  0  0  0  0  0  0  0  0  0  0  0
    7.1501  -13.7827   25.4590 C   0  0  0  0  0  0  0  0  0  0  0  0
    7.9528  -14.3193   24.2689 C   0  0  2  0  0  0  0  0  0  0  0  0
    7.0896  -14.5188   23.1226 N   0  0  0  0  0  0  0  0  0  0  0  0
    8.5500  -15.6111   24.7222 C   0  0  0  0  0  0  0  0  0  0  0  0
    7.9241  -16.6632   24.4503 O   0  0  0  0  0  0  0  0  0  0  0  0
    9.7575  -15.7016   25.4257 N   0  0  0  0  0  0  0  0  0  0  0  0
   10.5736  -16.8847   25.2863 C   0  0  1  0  0  0  0  0  0  0  0  0
   11.8352  -16.5978   24.5470 C   0  0  0  0  0  0  0  0  0  0  0  0
   11.8810  -17.3536   23.2825 C   0  0  0  0  0  0  0  0  0  0  0  0
   11.7466  -18.6235   23.3612 O   0  0  0  0  0  0  0  0  0  0  0  0
   10.8341  -17.3781   26.6754 C   0  0  0  0  0  0  0  0  0  0  0  0
   11.0291  -18.5826   26.9658 O   0  0  0  0  0  0  0  0  0  0  0  0
   12.0529  -16.8483   22.0246 O   0  0  0  0  0  0  0  0  0  0  0  0
   10.8629  -16.4542   27.7062 O   0  0  0  0  0  0  0  0  0  0  0  0
  2  1  1  0
  3  2  1  0
  4  3  2  0
  6  7  1  0
  6  5  1  0
  7  8  1  0
  9  8  1  1
  9 11  1  0
  9 10  1  0
 10  3  1  0
 11 13  1  0
 12 11  2  0
 13 14  1  0
 14 15  1  1
 14 18  1  0
 16 17  2  0
 16 15  1  0
 18 19  2  0
 18 21  1  0
 20 16  1  0
M  END
$$$$
