GMD.pdb
     RDKit          3D

 21 20  0  0  1  0  0  0  0  0999 V2000
    7.6750  -15.4178   18.9800 N   0  0  0  0  0  0  0  0  0  0  0  0
    6.8182  -15.3459   20.1216 C   0  0  0  0  0  0  0  0  0  0  0  0
    7.5470  -14.9638   21.3589 C   0  0  0  0  0  0  0  0  0  0  0  0
    8.8052  -14.8956   21.3169 O   0  0  0  0  0  0  0  0  0  0  0  0
    7.7136  -11.1430   27.8295 C   0  0  0  0  0  0  0  0  0  0  0  0
    6.8529  -11.8087   26.3834 S   0  0  0  0  0  0  0  0  0  0  0  0
    7.2027  -13.5711   26.1450 C   0  0  0  0  0  0  0  0  0  0  0  0
    6.4873  -14.0132   24.8811 C   0  0  0  0  0  0  0  0  0  0  0  0
    7.5055  -14.3638   23.7908 C   0  0  2  0  0  0  0  0  0  0  0  0
    6.8305  -14.6857   22.5500 N   0  0  0  0  0  0  0  0  0  0  0  0
    8.2732  -15.5376   24.3044 C   0  0  0  0  0  0  0  0  0  0  0  0
    7.7066  -16.6559   24.2734 O   0  0  0  0  0  0  0  0  0  0  0  0
    9.5757  -15.4498   24.8112 N   0  0  0  0  0  0  0  0  0  0  0  0
   10.3680  -16.6495   24.9451 C   0  0  1  0  0  0  0  0  0  0  0  0
   11.7558  -16.4506   24.4402 C   0  0  0  0  0  0  0  0  0  0  0  0
   12.5429  -17.6890   24.5793 C   0  0  0  0  0  0  0  0  0  0  0  0
   11.8879  -18.7809   24.7048 O   0  0  0  0  0  0  0  0  0  0  0  0
   10.3429  -17.0062   26.3988 C   0  0  0  0  0  0  0  0  0  0  0  0
   10.7624  -18.0944   26.8603 O   0  0  0  0  0  0  0  0  0  0  0  0
   13.9043  -17.8049   24.5903 O   0  0  0  0  0  0  0  0  0  0  0  0
    9.8268  -16.0835   27.2928 O   0  0  0  0  0  0  0  0  0  0  0  0
  2  1  1  0
  3  2  1  0
  4  3  2  0
  6  7  1  0
  6  5  1  0
  7  8  1  0
  9  8  1  1
  9 11  1  0
  9 10  1  0
 10  3  1  0
 11 13  1  0
 12 11  2  0
 13 14  1  0
 14 15  1  1
 14 18  1  0
 16 17  2  0
 16 15  1  0
 18 19  2  0
 18 21  1  0
 20 16  1  0
M  END
$$$$
