GMD.pdb
     RDKit          3D

 21 20  0  0  1  0  0  0  0  0999 V2000
    7.0251  -17.0607   19.0964 N   0  0  0  0  0  0  0  0  0  0  0  0
    6.7641  -17.2580   20.4876 C   0  0  0  0  0  0  0  0  0  0  0  0
    7.5847  -16.3719   21.3535 C   0  0  0  0  0  0  0  0  0  0  0  0
    8.8118  -16.2476   21.0925 O   0  0  0  0  0  0  0  0  0  0  0  0
    7.3756  -11.2063   27.4156 C   0  0  0  0  0  0  0  0  0  0  0  0
    6.5207  -12.3905   26.3469 S   0  0  0  0  0  0  0  0  0  0  0  0
    7.6791  -13.3042   25.2940 C   0  0  0  0  0  0  0  0  0  0  0  0
    6.8611  -14.2138   24.3950 C   0  0  0  0  0  0  0  0  0  0  0  0
    7.7734  -14.9257   23.3903 C   0  0  2  0  0  0  0  0  0  0  0  0
    6.9873  -15.6896   22.4430 N   0  0  0  0  0  0  0  0  0  0  0  0
    8.6587  -15.8185   24.1965 C   0  0  0  0  0  0  0  0  0  0  0  0
    8.1223  -16.7936   24.7746 O   0  0  0  0  0  0  0  0  0  0  0  0
   10.0381  -15.6213   24.3354 N   0  0  0  0  0  0  0  0  0  0  0  0
   10.8972  -16.7568   24.5756 C   0  0  1  0  0  0  0  0  0  0  0  0
   10.9256  -17.6810   23.4071 C   0  0  0  0  0  0  0  0  0  0  0  0
   11.2256  -19.0578   23.8395 C   0  0  0  0  0  0  0  0  0  0  0  0
   10.6483  -19.4695   24.9045 O   0  0  0  0  0  0  0  0  0  0  0  0
   12.2510  -16.1978   24.8851 C   0  0  0  0  0  0  0  0  0  0  0  0
   13.0242  -16.6740   25.7504 O   0  0  0  0  0  0  0  0  0  0  0  0
   12.0578  -19.9523   23.2277 O   0  0  0  0  0  0  0  0  0  0  0  0
   12.6815  -15.0887   24.1770 O   0  0  0  0  0  0  0  0  0  0  0  0
  2  1  1  0
  3  2  1  0
  4  3  2  0
  6  7  1  0
  6  5  1  0
  7  8  1  0
  9  8  1  1
  9 11  1  0
  9 10  1  0
 10  3  1  0
 11 13  1  0
 12 11  2  0
 13 14  1  0
 14 15  1  6
 14 18  1  0
 16 17  2  0
 16 15  1  0
 18 19  2  0
 18 21  1  0
 20 16  1  0
M  END
$$$$
