GMD.pdb
     RDKit          3D

 21 20  0  0  1  0  0  0  0  0999 V2000
    5.2344  -19.4947   21.6483 N   0  0  0  0  0  0  0  0  0  0  0  0
    5.5049  -19.2162   23.0237 C   0  0  0  0  0  0  0  0  0  0  0  0
    6.4136  -18.0540   23.2028 C   0  0  0  0  0  0  0  0  0  0  0  0
    7.3509  -17.8927   22.3752 O   0  0  0  0  0  0  0  0  0  0  0  0
    7.7102  -11.3159   27.2150 C   0  0  0  0  0  0  0  0  0  0  0  0
    6.6976  -12.7863   26.9189 S   0  0  0  0  0  0  0  0  0  0  0  0
    7.5357  -13.9727   25.8347 C   0  0  0  0  0  0  0  0  0  0  0  0
    6.6032  -15.1551   25.6421 C   0  0  0  0  0  0  0  0  0  0  0  0
    7.1771  -16.1179   24.5970 C   0  0  2  0  0  0  0  0  0  0  0  0
    6.2180  -17.1573   24.2831 N   0  0  0  0  0  0  0  0  0  0  0  0
    8.4148  -16.6947   25.2023 C   0  0  0  0  0  0  0  0  0  0  0  0
    8.2712  -17.6086   26.0489 O   0  0  0  0  0  0  0  0  0  0  0  0
    9.7082  -16.2697   24.8741 N   0  0  0  0  0  0  0  0  0  0  0  0
   10.8460  -16.9793   25.4097 C   0  0  1  0  0  0  0  0  0  0  0  0
   12.1249  -16.4907   24.8211 C   0  0  0  0  0  0  0  0  0  0  0  0
   12.1669  -16.7582   23.3723 C   0  0  0  0  0  0  0  0  0  0  0  0
   11.7254  -17.8930   22.9795 O   0  0  0  0  0  0  0  0  0  0  0  0
   10.7982  -16.7856   26.8934 C   0  0  0  0  0  0  0  0  0  0  0  0
   11.2199  -17.6262   27.7233 O   0  0  0  0  0  0  0  0  0  0  0  0
   12.6284  -15.9254   22.3921 O   0  0  0  0  0  0  0  0  0  0  0  0
   10.2572  -15.6100   27.3854 O   0  0  0  0  0  0  0  0  0  0  0  0
  2  1  1  0
  3  2  1  0
  4  3  2  0
  6  7  1  0
  6  5  1  0
  7  8  1  0
  9  8  1  1
  9 11  1  0
  9 10  1  0
 10  3  1  0
 11 13  1  0
 12 11  2  0
 13 14  1  0
 14 15  1  6
 14 18  1  0
 16 17  2  0
 16 15  1  0
 18 19  2  0
 18 21  1  0
 20 16  1  0
M  END
$$$$
