GMD.pdb
     RDKit          3D

 21 20  0  0  1  0  0  0  0  0999 V2000
    8.0121  -15.8686   19.1955 N   0  0  0  0  0  0  0  0  0  0  0  0
    7.3343  -16.2480   20.3951 C   0  0  0  0  0  0  0  0  0  0  0  0
    7.9647  -15.6745   21.6125 C   0  0  0  0  0  0  0  0  0  0  0  0
    9.2059  -15.4539   21.5979 O   0  0  0  0  0  0  0  0  0  0  0  0
    7.9398  -11.1950   27.1196 C   0  0  0  0  0  0  0  0  0  0  0  0
    6.7111  -12.2774   26.3487 S   0  0  0  0  0  0  0  0  0  0  0  0
    7.2842  -13.9951   26.2684 C   0  0  0  0  0  0  0  0  0  0  0  0
    6.6746  -14.6238   25.0285 C   0  0  0  0  0  0  0  0  0  0  0  0
    7.7645  -14.9153   23.9915 C   0  0  2  0  0  0  0  0  0  0  0  0
    7.1759  -15.3877   22.7549 N   0  0  0  0  0  0  0  0  0  0  0  0
    8.6450  -15.9576   24.5992 C   0  0  0  0  0  0  0  0  0  0  0  0
    8.1881  -17.1226   24.6813 O   0  0  0  0  0  0  0  0  0  0  0  0
    9.9367  -15.6994   25.0745 N   0  0  0  0  0  0  0  0  0  0  0  0
   10.7586  -16.7963   25.5288 C   0  0  1  0  0  0  0  0  0  0  0  0
   12.2098  -16.4711   25.4346 C   0  0  0  0  0  0  0  0  0  0  0  0
   12.6518  -16.4653   24.0285 C   0  0  0  0  0  0  0  0  0  0  0  0
   12.3244  -17.4748   23.3139 O   0  0  0  0  0  0  0  0  0  0  0  0
   10.3349  -17.0804   26.9362 C   0  0  0  0  0  0  0  0  0  0  0  0
    9.7453  -16.2522   27.6708 O   0  0  0  0  0  0  0  0  0  0  0  0
   13.3785  -15.4964   23.3957 O   0  0  0  0  0  0  0  0  0  0  0  0
   10.6073  -18.3308   27.4646 O   0  0  0  0  0  0  0  0  0  0  0  0
  2  1  1  0
  3  2  1  0
  4  3  2  0
  6  7  1  0
  6  5  1  0
  7  8  1  0
  9  8  1  1
  9 11  1  0
  9 10  1  0
 10  3  1  0
 11 13  1  0
 12 11  2  0
 13 14  1  0
 14 15  1  1
 14 18  1  0
 16 17  2  0
 16 15  1  0
 18 19  2  0
 18 21  1  0
 20 16  1  0
M  END
$$$$
