GAK.pdb
     RDKit          3D

 19 18  0  0  1  0  0  0  0  0999 V2000
   25.4552  -14.9797  -18.4235 N   0  0  0  0  0  0  0  0  0  0  0  0
   25.6943  -13.5762  -18.6940 C   0  0  0  0  0  0  0  0  0  0  0  0
   25.3167  -12.8016  -17.5058 C   0  0  0  0  0  0  0  0  0  0  0  0
   24.2845  -13.0882  -16.8681 O   0  0  0  0  0  0  0  0  0  0  0  0
   26.7597   -9.8875  -15.5821 C   0  0  0  0  0  0  0  0  0  0  0  0
   25.6282  -10.8567  -15.9218 C   0  0  2  0  0  0  0  0  0  0  0  0
   26.0852  -11.6970  -17.0128 N   0  0  0  0  0  0  0  0  0  0  0  0
   24.3816  -10.1382  -16.2596 C   0  0  0  0  0  0  0  0  0  0  0  0
   24.2012   -9.6978  -17.4179 O   0  0  0  0  0  0  0  0  0  0  0  0
   23.4018   -9.9587  -15.2551 N   0  0  0  0  0  0  0  0  0  0  0  0
   22.1486   -9.2123  -15.5038 C   0  0  1  0  0  0  0  0  0  0  0  0
   21.0096  -10.1494  -15.6996 C   0  0  0  0  0  0  0  0  0  0  0  0
   19.7053   -9.4309  -15.9329 C   0  0  0  0  0  0  0  0  0  0  0  0
   18.5983  -10.4676  -16.2022 C   0  0  0  0  0  0  0  0  0  0  0  0
   17.3086   -9.6883  -16.4881 C   0  0  0  0  0  0  0  0  0  0  0  0
   16.2851  -10.6788  -16.8344 N   0  0  0  0  0  0  0  0  0  0  0  0
   21.9669   -8.1915  -14.4605 C   0  0  0  0  0  0  0  0  0  0  0  0
   21.0710   -7.2907  -14.5681 O   0  0  0  0  0  0  0  0  0  0  0  0
   22.7389   -8.1456  -13.3193 O   0  0  0  0  0  0  0  0  0  0  0  0
  2  3  1  0
  2  1  1  0
  3  7  1  0
  4  3  2  0
  6  5  1  6
  7  6  1  0
  8 10  1  0
  8  6  1  0
  9  8  2  0
 11 10  1  0
 11 17  1  0
 11 12  1  1
 13 12  1  0
 13 14  1  0
 14 15  1  0
 15 16  1  0
 17 18  2  0
 17 19  1  0
M  END
$$$$
