GAK.pdb
     RDKit          3D

 19 18  0  0  1  0  0  0  0  0999 V2000
   20.1105  -13.4614  -17.7995 N   0  0  0  0  0  0  0  0  0  0  0  0
   20.8443  -12.2788  -18.2035 C   0  0  0  0  0  0  0  0  0  0  0  0
   21.1177  -11.4695  -17.0098 C   0  0  0  0  0  0  0  0  0  0  0  0
   20.1789  -10.9869  -16.3467 O   0  0  0  0  0  0  0  0  0  0  0  0
   24.1586  -10.4599  -15.0234 C   0  0  0  0  0  0  0  0  0  0  0  0
   22.6995  -10.2780  -15.4392 C   0  0  2  0  0  0  0  0  0  0  0  0
   22.4419  -11.1877  -16.5398 N   0  0  0  0  0  0  0  0  0  0  0  0
   22.4092   -8.8745  -15.8001 C   0  0  0  0  0  0  0  0  0  0  0  0
   22.6108   -8.4684  -16.9674 O   0  0  0  0  0  0  0  0  0  0  0  0
   21.9021   -8.0036  -14.8072 N   0  0  0  0  0  0  0  0  0  0  0  0
   21.6483   -6.5705  -15.0738 C   0  0  1  0  0  0  0  0  0  0  0  0
   20.2664   -6.3687  -15.5871 C   0  0  0  0  0  0  0  0  0  0  0  0
   19.9724   -4.9238  -15.8993 C   0  0  0  0  0  0  0  0  0  0  0  0
   18.5279   -4.8030  -16.4202 C   0  0  0  0  0  0  0  0  0  0  0  0
   18.2664   -3.3156  -16.6879 C   0  0  0  0  0  0  0  0  0  0  0  0
   16.9323   -3.2230  -17.2879 N   0  0  0  0  0  0  0  0  0  0  0  0
   22.0153   -5.7761  -13.8915 C   0  0  0  0  0  0  0  0  0  0  0  0
   21.9364   -6.2664  -12.7171 O   0  0  0  0  0  0  0  0  0  0  0  0
   22.4615   -4.4745  -13.9764 O   0  0  0  0  0  0  0  0  0  0  0  0
  2  3  1  0
  2  1  1  0
  3  7  1  0
  4  3  2  0
  6  5  1  6
  7  6  1  0
  8 10  1  0
  8  6  1  0
  9  8  2  0
 11 10  1  0
 11 17  1  0
 11 12  1  1
 13 12  1  0
 13 14  1  0
 14 15  1  0
 15 16  1  0
 17 18  2  0
 17 19  1  0
M  END
$$$$
