GAK.pdb
     RDKit          3D

 19 18  0  0  1  0  0  0  0  0999 V2000
   30.2173  -24.9036  -16.1008 N   0  0  0  0  0  0  0  0  0  0  0  0
   29.7169  -24.1534  -17.2352 C   0  0  0  0  0  0  0  0  0  0  0  0
   29.1011  -22.9161  -16.7407 C   0  0  0  0  0  0  0  0  0  0  0  0
   28.4640  -22.9135  -15.6692 O   0  0  0  0  0  0  0  0  0  0  0  0
   29.1451  -19.2768  -17.6986 C   0  0  0  0  0  0  0  0  0  0  0  0
   28.5316  -20.4630  -16.9559 C   0  0  2  0  0  0  0  0  0  0  0  0
   29.1876  -21.6653  -17.4348 N   0  0  0  0  0  0  0  0  0  0  0  0
   27.0663  -20.5195  -17.1404 C   0  0  0  0  0  0  0  0  0  0  0  0
   26.5742  -21.1796  -18.0840 O   0  0  0  0  0  0  0  0  0  0  0  0
   26.2353  -19.8176  -16.2360 N   0  0  0  0  0  0  0  0  0  0  0  0
   24.7590  -19.8824  -16.3127 C   0  0  1  0  0  0  0  0  0  0  0  0
   24.1774  -20.1959  -14.9795 C   0  0  0  0  0  0  0  0  0  0  0  0
   22.6873  -20.4149  -15.0374 C   0  0  0  0  0  0  0  0  0  0  0  0
   22.1848  -20.8431  -13.6458 C   0  0  0  0  0  0  0  0  0  0  0  0
   20.6860  -21.1406  -13.7777 C   0  0  0  0  0  0  0  0  0  0  0  0
   20.2514  -21.6962  -12.4928 N   0  0  0  0  0  0  0  0  0  0  0  0
   24.2452  -18.6694  -16.9670 C   0  0  0  0  0  0  0  0  0  0  0  0
   24.8604  -17.5568  -16.8701 O   0  0  0  0  0  0  0  0  0  0  0  0
   23.0871  -18.6587  -17.7147 O   0  0  0  0  0  0  0  0  0  0  0  0
  2  3  1  0
  2  1  1  0
  3  7  1  0
  4  3  2  0
  6  5  1  6
  7  6  1  0
  8 10  1  0
  8  6  1  0
  9  8  2  0
 11 10  1  0
 11 17  1  0
 11 12  1  1
 13 12  1  0
 13 14  1  0
 14 15  1  0
 15 16  1  0
 17 18  2  0
 17 19  1  0
M  END
$$$$
