GAK.pdb
     RDKit          3D

 19 18  0  0  1  0  0  0  0  0999 V2000
   16.3921  -12.4729  -14.7960 N   0  0  0  0  0  0  0  0  0  0  0  0
   16.5171  -12.1346  -16.1996 C   0  0  0  0  0  0  0  0  0  0  0  0
   17.2569  -10.8718  -16.3107 C   0  0  0  0  0  0  0  0  0  0  0  0
   18.3872  -10.8474  -16.8359 O   0  0  0  0  0  0  0  0  0  0  0  0
   16.5228   -7.2365  -15.6161 C   0  0  0  0  0  0  0  0  0  0  0  0
   17.4703   -8.3725  -15.9995 C   0  0  2  0  0  0  0  0  0  0  0  0
   16.7461   -9.6193  -15.8373 N   0  0  0  0  0  0  0  0  0  0  0  0
   18.7087   -8.3414  -15.1935 C   0  0  0  0  0  0  0  0  0  0  0  0
   18.7115   -8.7879  -14.0235 O   0  0  0  0  0  0  0  0  0  0  0  0
   19.8841   -7.8008  -15.7658 N   0  0  0  0  0  0  0  0  0  0  0  0
   21.1777   -7.7962  -15.0476 C   0  0  1  0  0  0  0  0  0  0  0  0
   22.2958   -8.1089  -15.9782 C   0  0  0  0  0  0  0  0  0  0  0  0
   21.8949   -7.9797  -17.4253 C   0  0  0  0  0  0  0  0  0  0  0  0
   23.0287   -8.5241  -18.3146 C   0  0  0  0  0  0  0  0  0  0  0  0
   22.5601   -8.4030  -19.7700 C   0  0  0  0  0  0  0  0  0  0  0  0
   23.6318   -8.9525  -20.6054 N   0  0  0  0  0  0  0  0  0  0  0  0
   21.3119   -6.5482  -14.2808 C   0  0  0  0  0  0  0  0  0  0  0  0
   20.7220   -5.4801  -14.6508 O   0  0  0  0  0  0  0  0  0  0  0  0
   22.0694   -6.4559  -13.1327 O   0  0  0  0  0  0  0  0  0  0  0  0
  2  3  1  0
  2  1  1  0
  3  7  1  0
  4  3  2  0
  6  5  1  1
  7  6  1  0
  8 10  1  0
  8  6  1  0
  9  8  2  0
 11 10  1  0
 11 17  1  0
 11 12  1  6
 13 12  1  0
 13 14  1  0
 14 15  1  0
 15 16  1  0
 17 18  2  0
 17 19  1  0
M  END
$$$$
