GAK.pdb
     RDKit          3D

 19 18  0  0  1  0  0  0  0  0999 V2000
   25.0138  -20.8541  -10.1698 N   0  0  0  0  0  0  0  0  0  0  0  0
   25.8471  -21.3393  -11.2517 C   0  0  0  0  0  0  0  0  0  0  0  0
   26.1544  -20.2147  -12.1436 C   0  0  0  0  0  0  0  0  0  0  0  0
   25.6716  -19.0864  -11.9249 O   0  0  0  0  0  0  0  0  0  0  0  0
   28.6907  -19.4900  -14.7816 C   0  0  0  0  0  0  0  0  0  0  0  0
   27.3377  -19.1999  -14.1332 C   0  0  2  0  0  0  0  0  0  0  0  0
   27.0044  -20.3336  -13.2913 N   0  0  0  0  0  0  0  0  0  0  0  0
   26.2954  -18.9367  -15.1473 C   0  0  0  0  0  0  0  0  0  0  0  0
   26.4178  -17.9782  -15.9440 O   0  0  0  0  0  0  0  0  0  0  0  0
   25.1633  -19.7833  -15.2005 N   0  0  0  0  0  0  0  0  0  0  0  0
   24.1109  -19.6251  -16.2286 C   0  0  1  0  0  0  0  0  0  0  0  0
   22.8017  -19.3104  -15.5956 C   0  0  0  0  0  0  0  0  0  0  0  0
   21.6411  -19.5285  -16.5321 C   0  0  0  0  0  0  0  0  0  0  0  0
   20.3340  -19.1386  -15.8165 C   0  0  0  0  0  0  0  0  0  0  0  0
   19.1968  -19.2971  -16.8334 C   0  0  0  0  0  0  0  0  0  0  0  0
   17.9687  -18.8568  -16.1652 N   0  0  0  0  0  0  0  0  0  0  0  0
   24.5673  -18.6815  -17.2606 C   0  0  0  0  0  0  0  0  0  0  0  0
   24.8134  -19.0721  -18.4491 O   0  0  0  0  0  0  0  0  0  0  0  0
   24.7532  -17.3381  -17.0132 O   0  0  0  0  0  0  0  0  0  0  0  0
  2  3  1  0
  2  1  1  0
  3  7  1  0
  4  3  2  0
  6  5  1  6
  7  6  1  0
  8 10  1  0
  8  6  1  0
  9  8  2  0
 11 10  1  0
 11 17  1  0
 11 12  1  1
 13 12  1  0
 13 14  1  0
 14 15  1  0
 15 16  1  0
 17 18  2  0
 17 19  1  0
M  END
$$$$
