GAK.pdb
     RDKit          3D

 19 18  0  0  1  0  0  0  0  0999 V2000
   18.0404  -10.7069  -14.8615 N   0  0  0  0  0  0  0  0  0  0  0  0
   18.6179  -10.1956  -16.0884 C   0  0  0  0  0  0  0  0  0  0  0  0
   20.0643  -10.0393  -15.8930 C   0  0  0  0  0  0  0  0  0  0  0  0
   20.5636  -10.1593  -14.7571 O   0  0  0  0  0  0  0  0  0  0  0  0
   23.1233   -9.7694  -18.0354 C   0  0  0  0  0  0  0  0  0  0  0  0
   22.3793   -9.4721  -16.7341 C   0  0  2  0  0  0  0  0  0  0  0  0
   20.9730   -9.7472  -16.9619 N   0  0  0  0  0  0  0  0  0  0  0  0
   22.6070   -8.0829  -16.2842 C   0  0  0  0  0  0  0  0  0  0  0  0
   23.7591   -7.6999  -15.9769 O   0  0  0  0  0  0  0  0  0  0  0  0
   21.5050   -7.1991  -16.2079 N   0  0  0  0  0  0  0  0  0  0  0  0
   21.6592   -5.7831  -15.8071 C   0  0  1  0  0  0  0  0  0  0  0  0
   20.7847   -4.9060  -16.6316 C   0  0  0  0  0  0  0  0  0  0  0  0
   20.7848   -3.4771  -16.1522 C   0  0  0  0  0  0  0  0  0  0  0  0
   19.7333   -2.6779  -16.9448 C   0  0  0  0  0  0  0  0  0  0  0  0
   19.7317   -1.2507  -16.3830 C   0  0  0  0  0  0  0  0  0  0  0  0
   18.7636   -0.4865  -17.1750 N   0  0  0  0  0  0  0  0  0  0  0  0
   21.4973   -5.6624  -14.3501 C   0  0  0  0  0  0  0  0  0  0  0  0
   20.6783   -6.4041  -13.7138 O   0  0  0  0  0  0  0  0  0  0  0  0
   22.2092   -4.7566  -13.5930 O   0  0  0  0  0  0  0  0  0  0  0  0
  2  3  1  0
  2  1  1  0
  3  7  1  0
  4  3  2  0
  6  5  1  6
  7  6  1  0
  8 10  1  0
  8  6  1  0
  9  8  2  0
 11 10  1  0
 11 17  1  0
 11 12  1  6
 13 12  1  0
 13 14  1  0
 14 15  1  0
 15 16  1  0
 17 18  2  0
 17 19  1  0
M  END
$$$$
