GAK.pdb
     RDKit          3D

 19 18  0  0  1  0  0  0  0  0999 V2000
   12.3637  -10.4115   -9.7054 N   0  0  0  0  0  0  0  0  0  0  0  0
   13.5530  -10.1539   -8.9183 C   0  0  0  0  0  0  0  0  0  0  0  0
   14.1856   -8.9272   -9.4178 C   0  0  0  0  0  0  0  0  0  0  0  0
   14.0014   -8.5565  -10.5936 O   0  0  0  0  0  0  0  0  0  0  0  0
   16.1738   -6.0872   -7.9552 C   0  0  0  0  0  0  0  0  0  0  0  0
   15.7080   -6.9283   -9.1430 C   0  0  2  0  0  0  0  0  0  0  0  0
   15.0323   -8.0976   -8.6124 N   0  0  0  0  0  0  0  0  0  0  0  0
   16.8363   -7.2925  -10.0254 C   0  0  0  0  0  0  0  0  0  0  0  0
   17.5357   -8.2999   -9.7723 O   0  0  0  0  0  0  0  0  0  0  0  0
   17.1093   -6.4857  -11.1550 N   0  0  0  0  0  0  0  0  0  0  0  0
   18.0686   -6.8994  -12.2030 C   0  0  1  0  0  0  0  0  0  0  0  0
   17.6466   -8.1843  -12.8232 C   0  0  0  0  0  0  0  0  0  0  0  0
   18.5459   -8.5990  -13.9594 C   0  0  0  0  0  0  0  0  0  0  0  0
   18.0112   -9.9051  -14.5765 C   0  0  0  0  0  0  0  0  0  0  0  0
   18.9668  -10.2936  -15.7116 C   0  0  0  0  0  0  0  0  0  0  0  0
   18.4827  -11.5666  -16.2536 N   0  0  0  0  0  0  0  0  0  0  0  0
   18.2951   -5.7826  -13.1330 C   0  0  0  0  0  0  0  0  0  0  0  0
   17.3445   -5.0031  -13.4716 O   0  0  0  0  0  0  0  0  0  0  0  0
   19.5280   -5.5113  -13.6868 O   0  0  0  0  0  0  0  0  0  0  0  0
  2  3  1  0
  2  1  1  0
  3  7  1  0
  4  3  2  0
  6  5  1  1
  7  6  1  0
  8 10  1  0
  8  6  1  0
  9  8  2  0
 11 10  1  0
 11 17  1  0
 11 12  1  6
 13 12  1  0
 13 14  1  0
 14 15  1  0
 15 16  1  0
 17 18  2  0
 17 19  1  0
M  END
$$$$
