GAK.pdb
     RDKit          3D

 19 18  0  0  1  0  0  0  0  0999 V2000
   12.1983  -10.4990   -8.3624 N   0  0  0  0  0  0  0  0  0  0  0  0
   13.6082  -10.1762   -8.4525 C   0  0  0  0  0  0  0  0  0  0  0  0
   13.7480   -8.7174   -8.5354 C   0  0  0  0  0  0  0  0  0  0  0  0
   12.7599   -7.9783   -8.3581 O   0  0  0  0  0  0  0  0  0  0  0  0
   14.7120   -6.1406   -7.4027 C   0  0  0  0  0  0  0  0  0  0  0  0
   15.1349   -6.6198   -8.7907 C   0  0  2  0  0  0  0  0  0  0  0  0
   14.9917   -8.0634   -8.8171 N   0  0  0  0  0  0  0  0  0  0  0  0
   16.5120   -6.1930   -9.1156 C   0  0  0  0  0  0  0  0  0  0  0  0
   17.4912   -6.7536   -8.5723 O   0  0  0  0  0  0  0  0  0  0  0  0
   16.7018   -5.1451  -10.0469 N   0  0  0  0  0  0  0  0  0  0  0  0
   17.6290   -5.2705  -11.1932 C   0  0  1  0  0  0  0  0  0  0  0  0
   17.4692   -6.5933  -11.8553 C   0  0  0  0  0  0  0  0  0  0  0  0
   18.4297   -6.7846  -13.0009 C   0  0  0  0  0  0  0  0  0  0  0  0
   18.2055   -8.1764  -13.6217 C   0  0  0  0  0  0  0  0  0  0  0  0
   19.1698   -8.3036  -14.8076 C   0  0  0  0  0  0  0  0  0  0  0  0
   18.9338   -9.6217  -15.4037 N   0  0  0  0  0  0  0  0  0  0  0  0
   17.4941   -4.0955  -12.0677 C   0  0  0  0  0  0  0  0  0  0  0  0
   16.3495   -3.6044  -12.3406 O   0  0  0  0  0  0  0  0  0  0  0  0
   18.5775   -3.4607  -12.6367 O   0  0  0  0  0  0  0  0  0  0  0  0
  2  3  1  0
  2  1  1  0
  3  7  1  0
  4  3  2  0
  6  5  1  1
  7  6  1  0
  8 10  1  0
  8  6  1  0
  9  8  2  0
 11 10  1  0
 11 17  1  0
 11 12  1  6
 13 12  1  0
 13 14  1  0
 14 15  1  0
 15 16  1  0
 17 18  2  0
 17 19  1  0
M  END
$$$$
