GAK.pdb
     RDKit          3D

 19 18  0  0  1  0  0  0  0  0999 V2000
   25.3909  -20.8552   -9.9069 N   0  0  0  0  0  0  0  0  0  0  0  0
   26.1711  -21.2546  -11.0610 C   0  0  0  0  0  0  0  0  0  0  0  0
   26.0475  -20.2148  -12.0896 C   0  0  0  0  0  0  0  0  0  0  0  0
   25.1150  -19.3888  -12.0423 O   0  0  0  0  0  0  0  0  0  0  0  0
   28.0520  -18.9745  -15.0181 C   0  0  0  0  0  0  0  0  0  0  0  0
   26.7218  -19.1789  -14.2943 C   0  0  2  0  0  0  0  0  0  0  0  0
   26.9623  -20.0825  -13.1848 N   0  0  0  0  0  0  0  0  0  0  0  0
   25.6792  -19.6890  -15.2092 C   0  0  0  0  0  0  0  0  0  0  0  0
   25.4962  -20.9217  -15.3327 O   0  0  0  0  0  0  0  0  0  0  0  0
   24.8965  -18.7634  -15.9385 N   0  0  0  0  0  0  0  0  0  0  0  0
   23.5809  -19.1254  -16.5109 C   0  0  1  0  0  0  0  0  0  0  0  0
   22.5667  -19.2871  -15.4342 C   0  0  0  0  0  0  0  0  0  0  0  0
   22.2529  -20.7337  -15.1502 C   0  0  0  0  0  0  0  0  0  0  0  0
   21.1479  -20.8105  -14.0797 C   0  0  0  0  0  0  0  0  0  0  0  0
   20.8800  -22.2967  -13.8119 C   0  0  0  0  0  0  0  0  0  0  0  0
   19.8327  -22.3589  -12.7882 N   0  0  0  0  0  0  0  0  0  0  0  0
   23.2325  -18.1807  -17.5831 C   0  0  0  0  0  0  0  0  0  0  0  0
   22.3257  -18.4564  -18.4360 O   0  0  0  0  0  0  0  0  0  0  0  0
   23.8520  -16.9580  -17.7305 O   0  0  0  0  0  0  0  0  0  0  0  0
  2  3  1  0
  2  1  1  0
  3  7  1  0
  4  3  2  0
  6  5  1  6
  7  6  1  0
  8 10  1  0
  8  6  1  0
  9  8  2  0
 11 10  1  0
 11 17  1  0
 11 12  1  1
 13 12  1  0
 13 14  1  0
 14 15  1  0
 15 16  1  0
 17 18  2  0
 17 19  1  0
M  END
$$$$
