GAK.pdb
     RDKit          3D

 19 18  0  0  1  0  0  0  0  0999 V2000
   21.6768  -22.5474  -13.9338 N   0  0  0  0  0  0  0  0  0  0  0  0
   21.3699  -21.1395  -13.7793 C   0  0  0  0  0  0  0  0  0  0  0  0
   21.9267  -20.4125  -14.9264 C   0  0  0  0  0  0  0  0  0  0  0  0
   22.6989  -20.9842  -15.7207 O   0  0  0  0  0  0  0  0  0  0  0  0
   21.5192  -16.9829  -16.4442 C   0  0  0  0  0  0  0  0  0  0  0  0
   22.2647  -18.3072  -16.2837 C   0  0  2  0  0  0  0  0  0  0  0  0
   21.6298  -19.0380  -15.2030 N   0  0  0  0  0  0  0  0  0  0  0  0
   23.7058  -18.0919  -16.0363 C   0  0  0  0  0  0  0  0  0  0  0  0
   24.1658  -18.1746  -14.8745 O   0  0  0  0  0  0  0  0  0  0  0  0
   24.5506  -17.7924  -17.1308 N   0  0  0  0  0  0  0  0  0  0  0  0
   26.0001  -18.0892  -17.1091 C   0  0  1  0  0  0  0  0  0  0  0  0
   26.2367  -19.5289  -16.8172 C   0  0  0  0  0  0  0  0  0  0  0  0
   27.6942  -19.9029  -16.9041 C   0  0  0  0  0  0  0  0  0  0  0  0
   27.8519  -21.4007  -16.5813 C   0  0  0  0  0  0  0  0  0  0  0  0
   29.3415  -21.7390  -16.7195 C   0  0  0  0  0  0  0  0  0  0  0  0
   29.4792  -23.1675  -16.4212 N   0  0  0  0  0  0  0  0  0  0  0  0
   26.6279  -17.5720  -18.3346 C   0  0  0  0  0  0  0  0  0  0  0  0
   26.1760  -17.8781  -19.4869 O   0  0  0  0  0  0  0  0  0  0  0  0
   27.7246  -16.7369  -18.3157 O   0  0  0  0  0  0  0  0  0  0  0  0
  2  3  1  0
  2  1  1  0
  3  7  1  0
  4  3  2  0
  6  5  1  1
  7  6  1  0
  8 10  1  0
  8  6  1  0
  9  8  2  0
 11 10  1  0
 11 17  1  0
 11 12  1  6
 13 12  1  0
 13 14  1  0
 14 15  1  0
 15 16  1  0
 17 18  2  0
 17 19  1  0
M  END
$$$$
