GAK.pdb
     RDKit          3D

 19 18  0  0  1  0  0  0  0  0999 V2000
   18.3341  -15.0902  -15.1871 N   0  0  0  0  0  0  0  0  0  0  0  0
   17.8507  -14.0767  -14.2709 C   0  0  0  0  0  0  0  0  0  0  0  0
   17.4813  -12.8860  -15.0458 C   0  0  0  0  0  0  0  0  0  0  0  0
   18.0241  -12.6550  -16.1440 O   0  0  0  0  0  0  0  0  0  0  0  0
   14.8124  -10.2507  -14.8881 C   0  0  0  0  0  0  0  0  0  0  0  0
   16.1767  -10.7451  -15.3671 C   0  0  2  0  0  0  0  0  0  0  0  0
   16.5015  -11.9371  -14.6062 N   0  0  0  0  0  0  0  0  0  0  0  0
   17.2119   -9.6994  -15.2287 C   0  0  0  0  0  0  0  0  0  0  0  0
   17.8814   -9.6099  -14.1742 O   0  0  0  0  0  0  0  0  0  0  0  0
   17.4306   -8.8067  -16.3041 N   0  0  0  0  0  0  0  0  0  0  0  0
   18.3801   -7.6761  -16.2064 C   0  0  1  0  0  0  0  0  0  0  0  0
   18.7500   -7.1828  -17.5605 C   0  0  0  0  0  0  0  0  0  0  0  0
   19.7379   -6.0456  -17.5101 C   0  0  0  0  0  0  0  0  0  0  0  0
   20.1441   -5.6646  -18.9462 C   0  0  0  0  0  0  0  0  0  0  0  0
   21.1188   -4.4849  -18.8429 C   0  0  0  0  0  0  0  0  0  0  0  0
   21.2998   -3.9669  -20.2021 N   0  0  0  0  0  0  0  0  0  0  0  0
   17.8499   -6.6653  -15.2787 C   0  0  0  0  0  0  0  0  0  0  0  0
   16.6217   -6.3239  -15.3069 O   0  0  0  0  0  0  0  0  0  0  0  0
   18.6329   -6.0350  -14.3352 O   0  0  0  0  0  0  0  0  0  0  0  0
  2  3  1  0
  2  1  1  0
  3  7  1  0
  4  3  2  0
  6  5  1  1
  7  6  1  0
  8 10  1  0
  8  6  1  0
  9  8  2  0
 11 10  1  0
 11 17  1  0
 11 12  1  6
 13 12  1  0
 13 14  1  0
 14 15  1  0
 15 16  1  0
 17 18  2  0
 17 19  1  0
M  END
$$$$
