GAK.pdb
     RDKit          3D

 19 18  0  0  1  0  0  0  0  0999 V2000
   20.2228  -14.6063  -18.1404 N   0  0  0  0  0  0  0  0  0  0  0  0
   20.2004  -13.3574  -18.8753 C   0  0  0  0  0  0  0  0  0  0  0  0
   20.7984  -12.3121  -18.0361 C   0  0  0  0  0  0  0  0  0  0  0  0
   20.7302  -12.3852  -16.7935 O   0  0  0  0  0  0  0  0  0  0  0  0
   22.8144   -9.1725  -18.6211 C   0  0  0  0  0  0  0  0  0  0  0  0
   22.0003  -10.1098  -17.7300 C   0  0  2  0  0  0  0  0  0  0  0  0
   21.4807  -11.1713  -18.5717 N   0  0  0  0  0  0  0  0  0  0  0  0
   20.9237   -9.3859  -17.0221 C   0  0  0  0  0  0  0  0  0  0  0  0
   19.8101   -9.2180  -17.5698 O   0  0  0  0  0  0  0  0  0  0  0  0
   21.1738   -8.8893  -15.7212 N   0  0  0  0  0  0  0  0  0  0  0  0
   20.1240   -8.2236  -14.9187 C   0  0  1  0  0  0  0  0  0  0  0  0
   19.5940   -9.1464  -13.8788 C   0  0  0  0  0  0  0  0  0  0  0  0
   18.5246   -8.5066  -13.0310 C   0  0  0  0  0  0  0  0  0  0  0  0
   18.0916   -9.4954  -11.9322 C   0  0  0  0  0  0  0  0  0  0  0  0
   17.0704   -8.7698  -11.0473 C   0  0  0  0  0  0  0  0  0  0  0  0
   16.6514   -9.7243  -10.0168 N   0  0  0  0  0  0  0  0  0  0  0  0
   20.6221   -6.9279  -14.4322 C   0  0  0  0  0  0  0  0  0  0  0  0
   19.8445   -6.0950  -13.8600 O   0  0  0  0  0  0  0  0  0  0  0  0
   21.9385   -6.5390  -14.5601 O   0  0  0  0  0  0  0  0  0  0  0  0
  2  3  1  0
  2  1  1  0
  3  7  1  0
  4  3  2  0
  6  5  1  6
  7  6  1  0
  8 10  1  0
  8  6  1  0
  9  8  2  0
 11 10  1  0
 11 17  1  0
 11 12  1  1
 13 12  1  0
 13 14  1  0
 14 15  1  0
 15 16  1  0
 17 18  2  0
 17 19  1  0
M  END
$$$$
