RSR.pdb
     RDKit          3D

 29 28  0  0  1  0  0  0  0  0999 V2000
   10.1756  -18.0391   12.9977 N   0  0  0  0  0  0  0  0  0  0  0  0
    8.9384  -17.3781   13.1855 C   0  0  0  0  0  0  0  0  0  0  0  0
    8.0352  -17.3644   12.2795 N   0  0  0  0  0  0  0  0  0  0  0  0
    8.6703  -16.6967   14.4190 N   0  0  0  0  0  0  0  0  0  0  0  0
    9.6191  -16.7145   15.5042 C   0  0  0  0  0  0  0  0  0  0  0  0
    9.8094  -18.0527   16.1136 C   0  0  0  0  0  0  0  0  0  0  0  0
   10.6779  -18.0739   17.3049 C   0  0  0  0  0  0  0  0  0  0  0  0
   10.8355  -19.4313   17.9364 C   0  0  2  0  0  0  0  0  0  0  0  0
   10.3265  -20.5205   17.2077 N   0  0  0  0  0  0  0  0  0  0  0  0
   10.4062  -19.4234   19.3544 C   0  0  0  0  0  0  0  0  0  0  0  0
    9.2434  -18.9162   19.6199 O   0  0  0  0  0  0  0  0  0  0  0  0
    7.1470  -16.8613   12.3234 O   0  0  0  0  0  0  0  0  0  0  0  0
   12.8009  -20.1111   22.6797 C   0  0  0  0  0  0  0  0  0  0  0  0
   11.4925  -20.5691   22.7758 C   0  0  1  0  0  0  0  0  0  0  0  0
   10.6008  -19.8413   21.8022 N   0  0  0  0  0  0  0  0  0  0  0  0
   11.1507  -19.9174   20.4392 C   0  0  0  0  0  0  0  0  0  0  0  0
   10.5675  -18.4065   22.1860 O   0  0  0  0  0  0  0  0  0  0  0  0
   11.1250  -17.5011   21.5219 N   0  0  0  0  0  0  0  0  0  0  0  0
    7.0588  -12.6853   19.3157 C   0  0  0  0  0  0  0  0  0  0  0  0
    8.4189  -12.6690   19.7033 N   0  0  0  0  0  0  0  0  0  0  0  0
    9.3360  -12.0828   19.0298 N   0  0  0  0  0  0  0  0  0  0  0  0
    8.8061  -13.3397   20.9088 C   0  0  0  0  0  0  0  0  0  0  0  0
    7.8100  -14.0625   21.6623 C   0  0  0  0  0  0  0  0  0  0  0  0
    8.4842  -14.6223   22.9163 C   0  0  0  0  0  0  0  0  0  0  0  0
    8.6965  -16.0966   22.7486 C   0  0  2  0  0  0  0  0  0  0  0  0
    9.7749  -16.6031   23.6800 N   0  0  0  0  0  0  0  0  0  0  0  0
    9.8712  -18.0425   23.3600 C   0  0  0  0  0  0  0  0  0  0  0  0
    9.3642  -16.4033   25.0679 O   0  0  0  0  0  0  0  0  0  0  0  0
    9.4618  -15.2609   25.8144 O   0  0  0  0  0  0  0  0  0  0  0  0
  1  2  1  0
  2  3  2  0
  4  2  1  0
  5  4  1  0
  6  5  1  0
  7  6  1  0
  8  9  1  6
  8  7  1  0
 10  8  1  0
 11 10  2  0
 14 13  1  6
 13 12  1  0
 14 15  1  0
 15 10  1  0
 16 17  2  0
 16 14  1  0
 18 19  1  0
 19 21  1  0
 20 19  2  0
 21 22  1  0
 22 23  1  0
 23 24  1  0
 25 24  1  6
 25 26  1  0
 26 16  1  0
 27 28  1  0
 27 25  1  0
 29 27  2  0
M  END
$$$$
