RSR.pdb
     RDKit          3D

 29 28  0  0  1  0  0  0  0  0999 V2000
    7.3266  -13.1078   15.4212 N   0  0  0  0  0  0  0  0  0  0  0  0
    7.3847  -13.5033   16.7788 C   0  0  0  0  0  0  0  0  0  0  0  0
    8.0810  -12.8629   17.6400 N   0  0  0  0  0  0  0  0  0  0  0  0
    6.6505  -14.6533   17.2219 N   0  0  0  0  0  0  0  0  0  0  0  0
    6.5993  -15.0157   18.6162 C   0  0  0  0  0  0  0  0  0  0  0  0
    7.4825  -16.1515   18.9743 C   0  0  0  0  0  0  0  0  0  0  0  0
    8.5846  -16.4026   18.0276 C   0  0  0  0  0  0  0  0  0  0  0  0
    9.4532  -17.5802   18.3815 C   0  0  2  0  0  0  0  0  0  0  0  0
    8.7995  -18.8168   18.5219 N   0  0  0  0  0  0  0  0  0  0  0  0
   10.3604  -17.2658   19.5098 C   0  0  0  0  0  0  0  0  0  0  0  0
   11.4993  -17.8834   19.5459 O   0  0  0  0  0  0  0  0  0  0  0  0
    8.2174  -13.1252   18.6180 O   0  0  0  0  0  0  0  0  0  0  0  0
    9.4521  -15.5863   23.1698 C   0  0  0  0  0  0  0  0  0  0  0  0
   10.6109  -15.0937   22.5822 C   0  0  1  0  0  0  0  0  0  0  0  0
   11.1327  -16.0561   21.5457 N   0  0  0  0  0  0  0  0  0  0  0  0
   10.0939  -16.3558   20.5472 C   0  0  0  0  0  0  0  0  0  0  0  0
   11.4731  -17.3320   22.2262 O   0  0  0  0  0  0  0  0  0  0  0  0
   10.8643  -18.4083   22.0198 N   0  0  0  0  0  0  0  0  0  0  0  0
   14.6989  -22.7804   18.9496 C   0  0  0  0  0  0  0  0  0  0  0  0
   15.8632  -22.4723   19.6911 N   0  0  0  0  0  0  0  0  0  0  0  0
   17.0320  -22.8835   19.3697 N   0  0  0  0  0  0  0  0  0  0  0  0
   15.7446  -21.6600   20.8655 C   0  0  0  0  0  0  0  0  0  0  0  0
   14.4310  -21.2944   21.3378 C   0  0  0  0  0  0  0  0  0  0  0  0
   14.6059  -20.3576   22.5345 C   0  0  0  0  0  0  0  0  0  0  0  0
   13.8432  -19.0910   22.2879 C   0  0  1  0  0  0  0  0  0  0  0  0
   13.1133  -18.6410   23.5335 N   0  0  0  0  0  0  0  0  0  0  0  0
   12.5385  -17.3336   23.1538 C   0  0  0  0  0  0  0  0  0  0  0  0
   14.0604  -18.4942   24.6364 O   0  0  0  0  0  0  0  0  0  0  0  0
   14.3601  -19.4069   25.6106 O   0  0  0  0  0  0  0  0  0  0  0  0
  1  2  1  0
  2  3  2  0
  4  2  1  0
  5  4  1  0
  6  5  1  0
  7  6  1  0
  8  9  1  1
  8  7  1  0
 10  8  1  0
 11 10  2  0
 14 13  1  6
 13 12  1  0
 14 15  1  0
 15 10  1  0
 16 17  2  0
 16 14  1  0
 18 19  1  0
 19 21  1  0
 20 19  2  0
 21 22  1  0
 22 23  1  0
 23 24  1  0
 25 24  1  6
 25 26  1  0
 26 16  1  0
 27 28  1  0
 27 25  1  0
 29 27  2  0
M  END
$$$$
