RSR.pdb
     RDKit          3D

 29 28  0  0  1  0  0  0  0  0999 V2000
    9.8137  -13.8589   15.8917 N   0  0  0  0  0  0  0  0  0  0  0  0
    8.4375  -13.8581   15.5617 C   0  0  0  0  0  0  0  0  0  0  0  0
    7.9912  -13.2536   14.5263 N   0  0  0  0  0  0  0  0  0  0  0  0
    7.4996  -14.5476   16.3999 N   0  0  0  0  0  0  0  0  0  0  0  0
    7.8929  -15.0818   17.6798 C   0  0  0  0  0  0  0  0  0  0  0  0
    8.4612  -14.0709   18.6036 C   0  0  0  0  0  0  0  0  0  0  0  0
    9.0372  -14.6194   19.8450 C   0  0  0  0  0  0  0  0  0  0  0  0
    8.0211  -14.9921   20.8913 C   0  0  2  0  0  0  0  0  0  0  0  0
    6.6743  -14.7564   20.5639 N   0  0  0  0  0  0  0  0  0  0  0  0
    8.3994  -14.4706   22.2254 C   0  0  0  0  0  0  0  0  0  0  0  0
    9.6601  -14.4680   22.5263 O   0  0  0  0  0  0  0  0  0  0  0  0
    7.0099  -13.1724   14.2537 O   0  0  0  0  0  0  0  0  0  0  0  0
    5.7793  -13.6418   25.4194 C   0  0  0  0  0  0  0  0  0  0  0  0
    6.9551  -12.9070   25.3279 C   0  0  1  0  0  0  0  0  0  0  0  0
    7.9984  -13.6667   24.5487 N   0  0  0  0  0  0  0  0  0  0  0  0
    7.5099  -13.9784   23.1959 C   0  0  0  0  0  0  0  0  0  0  0  0
    8.2438  -14.9592   25.2388 O   0  0  0  0  0  0  0  0  0  0  0  0
    7.8890  -16.0682   24.7741 N   0  0  0  0  0  0  0  0  0  0  0  0
   14.6207  -19.3381   24.4895 C   0  0  0  0  0  0  0  0  0  0  0  0
   13.8795  -20.1606   25.3695 N   0  0  0  0  0  0  0  0  0  0  0  0
   14.1850  -21.3781   25.6203 N   0  0  0  0  0  0  0  0  0  0  0  0
   12.7241  -19.6183   26.0204 C   0  0  0  0  0  0  0  0  0  0  0  0
   12.2932  -18.2815   25.6892 C   0  0  0  0  0  0  0  0  0  0  0  0
   11.1247  -17.9230   26.6094 C   0  0  0  0  0  0  0  0  0  0  0  0
   10.5294  -16.6196   26.1696 C   0  0  1  0  0  0  0  0  0  0  0  0
    9.3571  -16.2317   27.0426 N   0  0  0  0  0  0  0  0  0  0  0  0
    8.9121  -14.9384   26.4832 C   0  0  0  0  0  0  0  0  0  0  0  0
    9.8002  -16.0772   28.4264 O   0  0  0  0  0  0  0  0  0  0  0  0
    9.8955  -17.0449   29.3887 O   0  0  0  0  0  0  0  0  0  0  0  0
  1  2  1  0
  2  3  2  0
  4  2  1  0
  5  4  1  0
  6  5  1  0
  7  6  1  0
  8  9  1  6
  8  7  1  0
 10  8  1  0
 11 10  2  0
 14 13  1  6
 13 12  1  0
 14 15  1  0
 15 10  1  0
 16 17  2  0
 16 14  1  0
 18 19  1  0
 19 21  1  0
 20 19  2  0
 21 22  1  0
 22 23  1  0
 23 24  1  0
 25 24  1  6
 25 26  1  0
 26 16  1  0
 27 28  1  0
 27 25  1  0
 29 27  2  0
M  END
$$$$
