RSR.pdb
     RDKit          3D

 29 28  0  0  1  0  0  0  0  0999 V2000
    9.2533  -11.2477   19.4989 N   0  0  0  0  0  0  0  0  0  0  0  0
    9.2216  -12.6473   19.7062 C   0  0  0  0  0  0  0  0  0  0  0  0
   10.2597  -13.3778   19.5465 N   0  0  0  0  0  0  0  0  0  0  0  0
    8.0002  -13.2848   20.1055 N   0  0  0  0  0  0  0  0  0  0  0  0
    7.8782  -14.7211   20.1247 C   0  0  0  0  0  0  0  0  0  0  0  0
    7.4212  -15.3022   18.8395 C   0  0  0  0  0  0  0  0  0  0  0  0
    8.4033  -16.1736   18.1686 C   0  0  0  0  0  0  0  0  0  0  0  0
    8.1154  -17.6460   18.2913 C   0  0  2  0  0  0  0  0  0  0  0  0
    6.9131  -18.0958   17.7180 N   0  0  0  0  0  0  0  0  0  0  0  0
    8.3178  -18.1249   19.6787 C   0  0  0  0  0  0  0  0  0  0  0  0
    7.2635  -18.2578   20.4207 O   0  0  0  0  0  0  0  0  0  0  0  0
   10.2891  -14.3982   19.5885 O   0  0  0  0  0  0  0  0  0  0  0  0
   11.5802  -20.1300   21.0655 C   0  0  0  0  0  0  0  0  0  0  0  0
   10.3679  -20.2261   21.7378 C   0  0  1  0  0  0  0  0  0  0  0  0
    9.6076  -18.9271   21.6529 N   0  0  0  0  0  0  0  0  0  0  0  0
    9.5549  -18.4474   20.2625 C   0  0  0  0  0  0  0  0  0  0  0  0
   10.3414  -17.9068   22.4450 O   0  0  0  0  0  0  0  0  0  0  0  0
   11.2712  -17.2076   21.9779 N   0  0  0  0  0  0  0  0  0  0  0  0
    6.7212  -12.0751   27.2409 C   0  0  0  0  0  0  0  0  0  0  0  0
    6.3382  -12.7258   26.0450 N   0  0  0  0  0  0  0  0  0  0  0  0
    5.1446  -12.7047   25.5832 N   0  0  0  0  0  0  0  0  0  0  0  0
    7.3251  -13.4512   25.3016 C   0  0  0  0  0  0  0  0  0  0  0  0
    8.0692  -14.4995   25.9572 C   0  0  0  0  0  0  0  0  0  0  0  0
    9.0080  -15.1258   24.9244 C   0  0  0  0  0  0  0  0  0  0  0  0
    9.8311  -16.1906   25.5842 C   0  0  2  0  0  0  0  0  0  0  0  0
   10.8091  -16.8081   24.6099 N   0  0  0  0  0  0  0  0  0  0  0  0
    9.9725  -17.7133   23.7949 C   0  0  0  0  0  0  0  0  0  0  0  0
   11.8295  -17.5566   25.3402 O   0  0  0  0  0  0  0  0  0  0  0  0
   12.9878  -17.0779   25.8889 O   0  0  0  0  0  0  0  0  0  0  0  0
  1  2  1  0
  2  3  2  0
  4  2  1  0
  5  4  1  0
  6  5  1  0
  7  6  1  0
  8  9  1  1
  8  7  1  0
 10  8  1  0
 11 10  2  0
 14 13  1  6
 13 12  1  0
 14 15  1  0
 15 10  1  0
 16 17  2  0
 16 14  1  0
 18 19  1  0
 19 21  1  0
 20 19  2  0
 21 22  1  0
 22 23  1  0
 23 24  1  0
 25 24  1  6
 25 26  1  0
 26 16  1  0
 27 28  1  0
 27 25  1  0
 29 27  2  0
M  END
$$$$
