RSR.pdb
     RDKit          3D

 29 28  0  0  1  0  0  0  0  0999 V2000
    5.7829  -16.4494   14.1695 N   0  0  0  0  0  0  0  0  0  0  0  0
    6.6182  -17.0560   13.2014 C   0  0  0  0  0  0  0  0  0  0  0  0
    6.1832  -17.9544   12.4012 N   0  0  0  0  0  0  0  0  0  0  0  0
    7.9954  -16.6679   13.0994 N   0  0  0  0  0  0  0  0  0  0  0  0
    8.5991  -15.7918   14.0722 C   0  0  0  0  0  0  0  0  0  0  0  0
    8.5833  -16.3277   15.4545 C   0  0  0  0  0  0  0  0  0  0  0  0
    9.0823  -15.3991   16.4855 C   0  0  0  0  0  0  0  0  0  0  0  0
    8.0673  -14.3950   16.9627 C   0  0  2  0  0  0  0  0  0  0  0  0
    7.8646  -13.2740   16.1388 N   0  0  0  0  0  0  0  0  0  0  0  0
    8.2784  -14.0447   18.3867 C   0  0  0  0  0  0  0  0  0  0  0  0
    9.2572  -13.2409   18.6617 O   0  0  0  0  0  0  0  0  0  0  0  0
    6.7412  -18.4772   11.7235 O   0  0  0  0  0  0  0  0  0  0  0  0
    6.6897  -13.5605   22.9194 C   0  0  0  0  0  0  0  0  0  0  0  0
    6.4547  -13.9583   21.6090 C   0  0  1  0  0  0  0  0  0  0  0  0
    7.7373  -13.9663   20.8169 N   0  0  0  0  0  0  0  0  0  0  0  0
    7.5100  -14.5091   19.4679 C   0  0  0  0  0  0  0  0  0  0  0  0
    8.6997  -14.8684   21.5001 O   0  0  0  0  0  0  0  0  0  0  0  0
    9.1187  -14.6754   22.6658 N   0  0  0  0  0  0  0  0  0  0  0  0
    9.6951  -23.4537   20.9756 C   0  0  0  0  0  0  0  0  0  0  0  0
   10.8375  -23.0428   21.7010 N   0  0  0  0  0  0  0  0  0  0  0  0
   11.6543  -23.8608   22.2507 N   0  0  0  0  0  0  0  0  0  0  0  0
   11.1075  -21.6423   21.8375 C   0  0  0  0  0  0  0  0  0  0  0  0
   10.0996  -20.6898   21.4384 C   0  0  0  0  0  0  0  0  0  0  0  0
   10.6329  -19.2877   21.7391 C   0  0  0  0  0  0  0  0  0  0  0  0
    9.6928  -18.2677   21.1714 C   0  0  1  0  0  0  0  0  0  0  0  0
   10.1609  -16.8626   21.4773 N   0  0  0  0  0  0  0  0  0  0  0  0
    9.1670  -16.0035   20.8009 C   0  0  0  0  0  0  0  0  0  0  0  0
   11.4959  -16.6536   20.9214 O   0  0  0  0  0  0  0  0  0  0  0  0
   12.6954  -16.7148   21.5766 O   0  0  0  0  0  0  0  0  0  0  0  0
  1  2  1  0
  2  3  2  0
  4  2  1  0
  5  4  1  0
  6  5  1  0
  7  6  1  0
  8  9  1  6
  8  7  1  0
 10  8  1  0
 11 10  2  0
 14 13  1  6
 13 12  1  0
 14 15  1  0
 15 10  1  0
 16 17  2  0
 16 14  1  0
 18 19  1  0
 19 21  1  0
 20 19  2  0
 21 22  1  0
 22 23  1  0
 23 24  1  0
 25 24  1  1
 25 26  1  0
 26 16  1  0
 27 28  1  0
 27 25  1  0
 29 27  2  0
M  END
$$$$
