RSR.pdb
     RDKit          3D

 29 28  0  0  1  0  0  0  0  0999 V2000
    9.3799  -13.5527   15.0278 N   0  0  0  0  0  0  0  0  0  0  0  0
    8.1019  -14.1207   14.8113 C   0  0  0  0  0  0  0  0  0  0  0  0
    7.5536  -14.1300   13.6555 N   0  0  0  0  0  0  0  0  0  0  0  0
    7.3835  -14.7062   15.9061 N   0  0  0  0  0  0  0  0  0  0  0  0
    6.9946  -13.9204   17.0505 C   0  0  0  0  0  0  0  0  0  0  0  0
    8.1125  -13.1708   17.6723 C   0  0  0  0  0  0  0  0  0  0  0  0
    8.2246  -13.3241   19.1345 C   0  0  0  0  0  0  0  0  0  0  0  0
    9.1537  -14.4233   19.5759 C   0  0  2  0  0  0  0  0  0  0  0  0
    9.0595  -15.6380   18.8744 N   0  0  0  0  0  0  0  0  0  0  0  0
    9.1324  -14.5936   21.0474 C   0  0  0  0  0  0  0  0  0  0  0  0
    9.3623  -13.5426   21.7702 O   0  0  0  0  0  0  0  0  0  0  0  0
    6.6432  -14.5325   13.4251 O   0  0  0  0  0  0  0  0  0  0  0  0
    7.5914  -17.6473   23.3353 C   0  0  0  0  0  0  0  0  0  0  0  0
    8.0499  -16.4780   23.9299 C   0  0  1  0  0  0  0  0  0  0  0  0
    9.2153  -15.9108   23.1599 N   0  0  0  0  0  0  0  0  0  0  0  0
    8.8855  -15.7970   21.7301 C   0  0  0  0  0  0  0  0  0  0  0  0
   10.3542  -16.8574   23.2770 O   0  0  0  0  0  0  0  0  0  0  0  0
   10.7424  -17.5901   22.3367 N   0  0  0  0  0  0  0  0  0  0  0  0
   15.0788  -16.4754   19.8990 C   0  0  0  0  0  0  0  0  0  0  0  0
   15.8053  -15.3449   20.3400 N   0  0  0  0  0  0  0  0  0  0  0  0
   16.3147  -14.4812   19.5444 N   0  0  0  0  0  0  0  0  0  0  0  0
   15.9902  -15.1427   21.7463 C   0  0  0  0  0  0  0  0  0  0  0  0
   14.8432  -14.8487   22.5712 C   0  0  0  0  0  0  0  0  0  0  0  0
   14.2748  -16.1764   23.0758 C   0  0  0  0  0  0  0  0  0  0  0  0
   13.0720  -15.9081   23.9290 C   0  0  2  0  0  0  0  0  0  0  0  0
   12.4909  -17.1934   24.4745 N   0  0  0  0  0  0  0  0  0  0  0  0
   11.0363  -16.9362   24.5116 C   0  0  0  0  0  0  0  0  0  0  0  0
   13.0115  -17.4414   25.8171 O   0  0  0  0  0  0  0  0  0  0  0  0
   14.1161  -18.1693   26.1663 O   0  0  0  0  0  0  0  0  0  0  0  0
  1  2  1  0
  2  3  2  0
  4  2  1  0
  5  4  1  0
  6  5  1  0
  7  6  1  0
  8  9  1  6
  8  7  1  0
 10  8  1  0
 11 10  2  0
 14 13  1  1
 13 12  1  0
 14 15  1  0
 15 10  1  0
 16 17  2  0
 16 14  1  0
 18 19  1  0
 19 21  1  0
 20 19  2  0
 21 22  1  0
 22 23  1  0
 23 24  1  0
 25 24  1  6
 25 26  1  0
 26 16  1  0
 27 28  1  0
 27 25  1  0
 29 27  2  0
M  END
$$$$
