RSR.pdb
     RDKit          3D

 29 28  0  0  1  0  0  0  0  0999 V2000
    9.5164  -14.3273   15.7380 N   0  0  0  0  0  0  0  0  0  0  0  0
    8.3911  -13.4690   15.7435 C   0  0  0  0  0  0  0  0  0  0  0  0
    7.6984  -13.2562   14.6891 N   0  0  0  0  0  0  0  0  0  0  0  0
    8.0004  -12.8079   16.9550 N   0  0  0  0  0  0  0  0  0  0  0  0
    8.0870  -13.4733   18.2310 C   0  0  0  0  0  0  0  0  0  0  0  0
    7.0547  -14.5178   18.4348 C   0  0  0  0  0  0  0  0  0  0  0  0
    6.5813  -14.6593   19.8241 C   0  0  0  0  0  0  0  0  0  0  0  0
    7.0133  -15.9318   20.5025 C   0  0  2  0  0  0  0  0  0  0  0  0
    6.0126  -16.8966   20.7129 N   0  0  0  0  0  0  0  0  0  0  0  0
    7.8229  -15.6544   21.7118 C   0  0  0  0  0  0  0  0  0  0  0  0
    9.0529  -15.2875   21.5316 O   0  0  0  0  0  0  0  0  0  0  0  0
    6.9035  -12.6192   14.6103 O   0  0  0  0  0  0  0  0  0  0  0  0
    6.7959  -16.8548   25.5024 C   0  0  0  0  0  0  0  0  0  0  0  0
    7.6251  -15.7400   25.4766 C   0  0  1  0  0  0  0  0  0  0  0  0
    8.3329  -15.6335   24.1499 N   0  0  0  0  0  0  0  0  0  0  0  0
    7.3742  -15.7552   23.0399 C   0  0  0  0  0  0  0  0  0  0  0  0
    9.2845  -16.7688   24.0386 O   0  0  0  0  0  0  0  0  0  0  0  0
    9.2104  -17.6469   23.1469 N   0  0  0  0  0  0  0  0  0  0  0  0
   12.4237  -15.3017   18.4100 C   0  0  0  0  0  0  0  0  0  0  0  0
   13.3429  -15.2368   19.4829 N   0  0  0  0  0  0  0  0  0  0  0  0
   14.3965  -14.5100   19.4644 N   0  0  0  0  0  0  0  0  0  0  0  0
   13.0970  -16.0200   20.6572 C   0  0  0  0  0  0  0  0  0  0  0  0
   13.8210  -15.7176   21.8684 C   0  0  0  0  0  0  0  0  0  0  0  0
   13.4195  -16.7480   22.9255 C   0  0  0  0  0  0  0  0  0  0  0  0
   12.0768  -16.3863   23.4852 C   0  0  1  0  0  0  0  0  0  0  0  0
   11.6278  -17.3917   24.5218 N   0  0  0  0  0  0  0  0  0  0  0  0
   10.3279  -16.8644   24.9862 C   0  0  0  0  0  0  0  0  0  0  0  0
   12.5937  -17.4381   25.6172 O   0  0  0  0  0  0  0  0  0  0  0  0
   12.4346  -16.9749   26.8947 O   0  0  0  0  0  0  0  0  0  0  0  0
  1  2  1  0
  2  3  2  0
  4  2  1  0
  5  4  1  0
  6  5  1  0
  7  6  1  0
  8  9  1  1
  8  7  1  0
 10  8  1  0
 11 10  2  0
 14 13  1  1
 13 12  1  0
 14 15  1  0
 15 10  1  0
 16 17  2  0
 16 14  1  0
 18 19  1  0
 19 21  1  0
 20 19  2  0
 21 22  1  0
 22 23  1  0
 23 24  1  0
 25 24  1  6
 25 26  1  0
 26 16  1  0
 27 28  1  0
 27 25  1  0
 29 27  2  0
M  END
$$$$
