RSR.pdb
     RDKit          3D

 29 28  0  0  1  0  0  0  0  0999 V2000
   10.5498  -16.3536   16.5486 N   0  0  0  0  0  0  0  0  0  0  0  0
    9.3750  -16.1020   15.8007 C   0  0  0  0  0  0  0  0  0  0  0  0
    8.5493  -15.1814   16.1286 N   0  0  0  0  0  0  0  0  0  0  0  0
    9.0825  -16.8915   14.6393 N   0  0  0  0  0  0  0  0  0  0  0  0
    9.7249  -18.1631   14.4187 C   0  0  0  0  0  0  0  0  0  0  0  0
    9.2524  -19.2394   15.3224 C   0  0  0  0  0  0  0  0  0  0  0  0
    9.8752  -20.5567   15.0967 C   0  0  0  0  0  0  0  0  0  0  0  0
    9.4059  -21.6362   16.0351 C   0  0  2  0  0  0  0  0  0  0  0  0
    8.1479  -22.1994   15.7578 N   0  0  0  0  0  0  0  0  0  0  0  0
    9.5674  -21.2323   17.4513 C   0  0  0  0  0  0  0  0  0  0  0  0
    8.5380  -20.7101   18.0409 O   0  0  0  0  0  0  0  0  0  0  0  0
    7.6985  -14.9286   15.6225 O   0  0  0  0  0  0  0  0  0  0  0  0
   11.9438  -21.2910   21.6842 C   0  0  0  0  0  0  0  0  0  0  0  0
   11.9610  -21.5840   20.3260 C   0  0  2  0  0  0  0  0  0  0  0  0
   10.7219  -21.0529   19.6512 N   0  0  0  0  0  0  0  0  0  0  0  0
   10.7411  -21.3647   18.2130 C   0  0  0  0  0  0  0  0  0  0  0  0
   10.7192  -19.5732   19.7829 O   0  0  0  0  0  0  0  0  0  0  0  0
   11.3167  -18.8084   18.9893 N   0  0  0  0  0  0  0  0  0  0  0  0
    7.8605  -12.8628   22.5142 C   0  0  0  0  0  0  0  0  0  0  0  0
    7.3378  -12.7259   21.2071 N   0  0  0  0  0  0  0  0  0  0  0  0
    7.1683  -11.5952   20.6315 N   0  0  0  0  0  0  0  0  0  0  0  0
    6.9733  -13.9038   20.4774 C   0  0  0  0  0  0  0  0  0  0  0  0
    7.0635  -15.1893   21.1268 C   0  0  0  0  0  0  0  0  0  0  0  0
    8.5380  -15.5956   21.1615 C   0  0  0  0  0  0  0  0  0  0  0  0
    8.6488  -17.0767   20.9593 C   0  0  1  0  0  0  0  0  0  0  0  0
   10.0895  -17.5314   21.0267 N   0  0  0  0  0  0  0  0  0  0  0  0
   10.0061  -18.9971   20.8576 C   0  0  0  0  0  0  0  0  0  0  0  0
   10.6567  -17.1876   22.3286 O   0  0  0  0  0  0  0  0  0  0  0  0
   10.8508  -18.0130   23.4024 O   0  0  0  0  0  0  0  0  0  0  0  0
  1  2  1  0
  2  3  2  0
  4  2  1  0
  5  4  1  0
  6  5  1  0
  7  6  1  0
  8  9  1  6
  8  7  1  0
 10  8  1  0
 11 10  2  0
 14 13  1  1
 13 12  1  0
 14 15  1  0
 15 10  1  0
 16 17  2  0
 16 14  1  0
 18 19  1  0
 19 21  1  0
 20 19  2  0
 21 22  1  0
 22 23  1  0
 23 24  1  0
 25 24  1  6
 25 26  1  0
 26 16  1  0
 27 28  1  0
 27 25  1  0
 29 27  2  0
M  END
$$$$
