RSR.pdb
     RDKit          3D

 29 28  0  0  1  0  0  0  0  0999 V2000
    8.6416  -12.4236   20.3066 N   0  0  0  0  0  0  0  0  0  0  0  0
    8.5931  -13.3937   19.2772 C   0  0  0  0  0  0  0  0  0  0  0  0
    9.1476  -13.2010   18.1405 N   0  0  0  0  0  0  0  0  0  0  0  0
    7.9064  -14.6343   19.4939 N   0  0  0  0  0  0  0  0  0  0  0  0
    8.2295  -15.4817   20.6144 C   0  0  0  0  0  0  0  0  0  0  0  0
    7.4332  -15.1969   21.8322 C   0  0  0  0  0  0  0  0  0  0  0  0
    6.2738  -16.0846   22.0369 C   0  0  0  0  0  0  0  0  0  0  0  0
    6.6310  -17.5154   22.3396 C   0  0  2  0  0  0  0  0  0  0  0  0
    5.7567  -18.4954   21.8382 N   0  0  0  0  0  0  0  0  0  0  0  0
    6.9596  -17.7013   23.7722 C   0  0  0  0  0  0  0  0  0  0  0  0
    6.0371  -17.4120   24.6354 O   0  0  0  0  0  0  0  0  0  0  0  0
    9.1115  -13.8336   17.3390 O   0  0  0  0  0  0  0  0  0  0  0  0
   10.0070  -20.0141   25.2925 C   0  0  0  0  0  0  0  0  0  0  0  0
    8.8637  -19.7354   26.0315 C   0  0  1  0  0  0  0  0  0  0  0  0
    8.3593  -18.3474   25.7287 N   0  0  0  0  0  0  0  0  0  0  0  0
    8.1863  -18.1637   24.2788 C   0  0  0  0  0  0  0  0  0  0  0  0
    9.3854  -17.3719   26.1786 O   0  0  0  0  0  0  0  0  0  0  0  0
   10.3316  -16.9818   25.4545 N   0  0  0  0  0  0  0  0  0  0  0  0
    7.2153  -12.1538   24.6444 C   0  0  0  0  0  0  0  0  0  0  0  0
    6.5349  -12.0889   25.8825 N   0  0  0  0  0  0  0  0  0  0  0  0
    5.6672  -11.1905   26.1629 N   0  0  0  0  0  0  0  0  0  0  0  0
    6.8213  -13.0714   26.8854 C   0  0  0  0  0  0  0  0  0  0  0  0
    8.0639  -12.9902   27.6146 C   0  0  0  0  0  0  0  0  0  0  0  0
    8.9590  -14.1393   27.1471 C   0  0  0  0  0  0  0  0  0  0  0  0
    9.7075  -14.6938   28.3214 C   0  0  2  0  0  0  0  0  0  0  0  0
   10.3922  -15.9951   27.9684 N   0  0  0  0  0  0  0  0  0  0  0  0
    9.2905  -16.8561   27.4903 C   0  0  0  0  0  0  0  0  0  0  0  0
   11.0196  -16.5633   29.1594 O   0  0  0  0  0  0  0  0  0  0  0  0
   12.1545  -16.1366   29.7931 O   0  0  0  0  0  0  0  0  0  0  0  0
  1  2  1  0
  2  3  2  0
  4  2  1  0
  5  4  1  0
  6  5  1  0
  7  6  1  0
  8  9  1  1
  8  7  1  0
 10  8  1  0
 11 10  2  0
 14 13  1  1
 13 12  1  0
 14 15  1  0
 15 10  1  0
 16 17  2  0
 16 14  1  0
 18 19  1  0
 19 21  1  0
 20 19  2  0
 21 22  1  0
 22 23  1  0
 23 24  1  0
 25 24  1  6
 25 26  1  0
 26 16  1  0
 27 28  1  0
 27 25  1  0
 29 27  2  0
M  END
$$$$
