RSR.pdb
     RDKit          3D

 29 28  0  0  1  0  0  0  0  0999 V2000
    7.6453  -13.0791   11.9842 N   0  0  0  0  0  0  0  0  0  0  0  0
    8.4166  -13.9882   12.7468 C   0  0  0  0  0  0  0  0  0  0  0  0
    9.5652  -14.3939   12.3557 N   0  0  0  0  0  0  0  0  0  0  0  0
    7.9135  -14.4822   13.9960 N   0  0  0  0  0  0  0  0  0  0  0  0
    8.6232  -14.2548   15.2300 C   0  0  0  0  0  0  0  0  0  0  0  0
    8.0835  -13.1329   16.0353 C   0  0  0  0  0  0  0  0  0  0  0  0
    7.5206  -13.5215   17.3415 C   0  0  0  0  0  0  0  0  0  0  0  0
    8.4506  -14.3326   18.2037 C   0  0  2  0  0  0  0  0  0  0  0  0
    8.6148  -15.6820   17.8453 N   0  0  0  0  0  0  0  0  0  0  0  0
    8.1614  -14.1403   19.6440 C   0  0  0  0  0  0  0  0  0  0  0  0
    8.1373  -12.9226   20.0873 O   0  0  0  0  0  0  0  0  0  0  0  0
   10.2260  -14.9477   12.9038 O   0  0  0  0  0  0  0  0  0  0  0  0
    6.3360  -16.7760   22.0811 C   0  0  0  0  0  0  0  0  0  0  0  0
    6.4466  -15.4605   22.5149 C   0  0  1  0  0  0  0  0  0  0  0  0
    7.7148  -14.8331   21.9945 N   0  0  0  0  0  0  0  0  0  0  0  0
    7.9116  -15.1639   20.5740 C   0  0  0  0  0  0  0  0  0  0  0  0
    8.8599  -15.4091   22.7454 O   0  0  0  0  0  0  0  0  0  0  0  0
    9.7462  -16.1195   22.2147 N   0  0  0  0  0  0  0  0  0  0  0  0
   12.7427  -14.9536   28.5470 C   0  0  0  0  0  0  0  0  0  0  0  0
   11.6482  -14.9742   29.4425 N   0  0  0  0  0  0  0  0  0  0  0  0
   11.2746  -13.9554   30.1214 N   0  0  0  0  0  0  0  0  0  0  0  0
   10.9103  -16.1909   29.6105 C   0  0  0  0  0  0  0  0  0  0  0  0
    9.8880  -16.5315   28.6506 C   0  0  0  0  0  0  0  0  0  0  0  0
   10.5030  -16.4301   27.2535 C   0  0  0  0  0  0  0  0  0  0  0  0
    9.5005  -15.8324   26.3130 C   0  0  2  0  0  0  0  0  0  0  0  0
   10.0112  -15.8446   24.8896 N   0  0  0  0  0  0  0  0  0  0  0  0
    8.9564  -15.1425   24.1293 C   0  0  0  0  0  0  0  0  0  0  0  0
   10.1574  -17.2233   24.4280 O   0  0  0  0  0  0  0  0  0  0  0  0
    9.1722  -18.0764   24.0115 O   0  0  0  0  0  0  0  0  0  0  0  0
  1  2  1  0
  2  3  2  0
  4  2  1  0
  5  4  1  0
  6  5  1  0
  7  6  1  0
  8  9  1  6
  8  7  1  0
 10  8  1  0
 11 10  2  0
 14 13  1  6
 13 12  1  0
 14 15  1  0
 15 10  1  0
 16 17  2  0
 16 14  1  0
 18 19  1  0
 19 21  1  0
 20 19  2  0
 21 22  1  0
 22 23  1  0
 23 24  1  0
 25 24  1  1
 25 26  1  0
 26 16  1  0
 27 28  1  0
 27 25  1  0
 29 27  2  0
M  END
$$$$
