RSR.pdb
     RDKit          3D

 29 28  0  0  1  0  0  0  0  0999 V2000
   11.7806  -17.5159   15.0834 N   0  0  0  0  0  0  0  0  0  0  0  0
   10.9199  -18.4645   15.6851 C   0  0  0  0  0  0  0  0  0  0  0  0
   11.2987  -19.6621   15.9283 N   0  0  0  0  0  0  0  0  0  0  0  0
    9.5801  -18.0933   16.0386 N   0  0  0  0  0  0  0  0  0  0  0  0
    9.0523  -16.7936   15.7064 C   0  0  0  0  0  0  0  0  0  0  0  0
    9.9812  -15.6756   15.9984 C   0  0  0  0  0  0  0  0  0  0  0  0
    9.9611  -15.2009   17.3942 C   0  0  0  0  0  0  0  0  0  0  0  0
    8.8074  -14.2927   17.7264 C   0  0  2  0  0  0  0  0  0  0  0  0
    8.7501  -13.0759   17.0246 N   0  0  0  0  0  0  0  0  0  0  0  0
    8.6469  -14.1325   19.1905 C   0  0  0  0  0  0  0  0  0  0  0  0
    9.6726  -13.7038   19.8569 O   0  0  0  0  0  0  0  0  0  0  0  0
   10.7191  -20.4092   16.3152 O   0  0  0  0  0  0  0  0  0  0  0  0
    5.2492  -15.0832   21.5393 C   0  0  0  0  0  0  0  0  0  0  0  0
    6.0601  -14.0072   21.8791 C   0  0  1  0  0  0  0  0  0  0  0  0
    7.4670  -14.2230   21.3823 N   0  0  0  0  0  0  0  0  0  0  0  0
    7.4785  -14.4060   19.9220 C   0  0  0  0  0  0  0  0  0  0  0  0
    7.9869  -15.4754   21.9890 O   0  0  0  0  0  0  0  0  0  0  0  0
    8.1300  -16.5444   21.3499 N   0  0  0  0  0  0  0  0  0  0  0  0
   12.9361  -16.7445   29.1350 C   0  0  0  0  0  0  0  0  0  0  0  0
   12.2300  -17.9619   28.9946 N   0  0  0  0  0  0  0  0  0  0  0  0
   12.3032  -18.9199   29.8403 N   0  0  0  0  0  0  0  0  0  0  0  0
   11.3860  -18.1482   27.8517 C   0  0  0  0  0  0  0  0  0  0  0  0
   10.8578  -16.9902   27.1716 C   0  0  0  0  0  0  0  0  0  0  0  0
   10.0661  -17.4791   25.9573 C   0  0  0  0  0  0  0  0  0  0  0  0
    9.5829  -16.2972   25.1722 C   0  0  1  0  0  0  0  0  0  0  0  0
    8.7908  -16.7330   23.9599 N   0  0  0  0  0  0  0  0  0  0  0  0
    8.3390  -15.4618   23.3570 C   0  0  0  0  0  0  0  0  0  0  0  0
    7.6514  -17.5460   24.3791 O   0  0  0  0  0  0  0  0  0  0  0  0
    7.6329  -18.8872   24.6482 O   0  0  0  0  0  0  0  0  0  0  0  0
  1  2  1  0
  2  3  2  0
  4  2  1  0
  5  4  1  0
  6  5  1  0
  7  6  1  0
  8  9  1  6
  8  7  1  0
 10  8  1  0
 11 10  2  0
 14 13  1  6
 13 12  1  0
 14 15  1  0
 15 10  1  0
 16 17  2  0
 16 14  1  0
 18 19  1  0
 19 21  1  0
 20 19  2  0
 21 22  1  0
 22 23  1  0
 23 24  1  0
 25 24  1  6
 25 26  1  0
 26 16  1  0
 27 28  1  0
 27 25  1  0
 29 27  2  0
M  END
$$$$
