NAN.pdb
     RDKit          3D

 22 21  0  0  1  0  0  0  0  0999 V2000
    8.4155  -12.5006   17.4541 N   0  0  0  0  0  0  0  0  0  0  0  0
    7.3833  -13.0599   18.2188 C   0  0  0  0  0  0  0  0  0  0  0  0
    6.1996  -12.9936   17.7568 O   0  0  0  0  0  0  0  0  0  0  0  0
    7.5348  -13.7271   19.5248 C   0  0  0  0  0  0  0  0  0  0  0  0
    8.9910  -13.6615   20.0062 C   0  0  2  0  0  0  0  0  0  0  0  0
    9.8284  -13.4761   18.8612 N   0  0  0  0  0  0  0  0  0  0  0  0
    9.2806  -14.9663   20.6272 C   0  0  0  0  0  0  0  0  0  0  0  0
    8.6992  -15.2698   21.6985 O   0  0  0  0  0  0  0  0  0  0  0  0
   10.3167  -18.2969   19.8890 C   0  0  0  0  0  0  0  0  0  0  0  0
   10.5335  -17.0744   20.7554 C   0  0  2  0  0  0  0  0  0  0  0  0
   10.2102  -15.8954   20.0357 N   0  0  0  0  0  0  0  0  0  0  0  0
   11.9188  -17.0729   21.2985 C   0  0  0  0  0  0  0  0  0  0  0  0
   12.3656  -18.1086   21.8382 O   0  0  0  0  0  0  0  0  0  0  0  0
   14.2164  -13.8337   18.8651 N   0  0  0  0  0  0  0  0  0  0  0  0
   14.8113  -14.9017   19.5804 C   0  0  0  0  0  0  0  0  0  0  0  0
   15.1954  -15.8816   18.8529 O   0  0  0  0  0  0  0  0  0  0  0  0
   14.9958  -14.9249   21.0451 C   0  0  0  0  0  0  0  0  0  0  0  0
   14.1173  -15.8984   21.7377 C   0  0  2  0  0  0  0  0  0  0  0  0
   12.7652  -15.9331   21.2297 N   0  0  0  0  0  0  0  0  0  0  0  0
   14.1636  -15.7975   23.2085 C   0  0  0  0  0  0  0  0  0  0  0  0
   13.2048  -15.6696   23.9885 O   0  0  0  0  0  0  0  0  0  0  0  0
   15.4377  -15.8512   23.8102 O   0  0  0  0  0  0  0  0  0  0  0  0
  2  1  1  0
  3  2  2  0
  4  2  1  0
  4  5  1  0
  5  6  1  6
  7  5  1  0
  8  7  2  0
 10  9  1  6
 10 11  1  0
 10 12  1  0
 11  7  1  0
 12 19  1  0
 13 12  2  0
 14 15  1  0
 15 17  1  0
 16 15  2  0
 18 17  1  6
 18 20  1  0
 19 18  1  0
 20 22  1  0
 21 20  2  0
M  END
$$$$
