NAN.pdb
     RDKit          3D

 22 21  0  0  1  0  0  0  0  0999 V2000
    5.8058  -21.3620   23.8124 N   0  0  0  0  0  0  0  0  0  0  0  0
    5.3889  -20.4093   22.8736 C   0  0  0  0  0  0  0  0  0  0  0  0
    4.5153  -20.7616   22.0182 O   0  0  0  0  0  0  0  0  0  0  0  0
    5.8691  -19.0187   22.7770 C   0  0  0  0  0  0  0  0  0  0  0  0
    6.9418  -18.7361   23.8381 C   0  0  2  0  0  0  0  0  0  0  0  0
    6.3076  -18.7361   25.1205 N   0  0  0  0  0  0  0  0  0  0  0  0
    7.4695  -17.3915   23.5451 C   0  0  0  0  0  0  0  0  0  0  0  0
    8.1873  -17.2310   22.5268 O   0  0  0  0  0  0  0  0  0  0  0  0
    6.9087  -13.8717   24.4142 C   0  0  0  0  0  0  0  0  0  0  0  0
    7.8354  -15.0343   24.1280 C   0  0  2  0  0  0  0  0  0  0  0  0
    7.1816  -16.2644   24.3959 N   0  0  0  0  0  0  0  0  0  0  0  0
    9.1097  -14.8678   24.8777 C   0  0  0  0  0  0  0  0  0  0  0  0
    9.8049  -13.8467   24.6838 O   0  0  0  0  0  0  0  0  0  0  0  0
   10.1609  -13.6133   29.5358 N   0  0  0  0  0  0  0  0  0  0  0  0
   10.1738  -14.6154   28.5350 C   0  0  0  0  0  0  0  0  0  0  0  0
    9.3508  -15.5752   28.7314 O   0  0  0  0  0  0  0  0  0  0  0  0
   11.0466  -14.5947   27.3443 C   0  0  0  0  0  0  0  0  0  0  0  0
   10.8683  -15.7706   26.4583 C   0  0  2  0  0  0  0  0  0  0  0  0
    9.5760  -15.8294   25.8149 N   0  0  0  0  0  0  0  0  0  0  0  0
   11.2421  -17.0505   27.0888 C   0  0  0  0  0  0  0  0  0  0  0  0
   10.5299  -18.0581   27.2350 O   0  0  0  0  0  0  0  0  0  0  0  0
   12.5572  -17.1545   27.5867 O   0  0  0  0  0  0  0  0  0  0  0  0
  2  1  1  0
  3  2  2  0
  4  2  1  0
  4  5  1  0
  5  6  1  1
  7  5  1  0
  8  7  2  0
 10  9  1  1
 10 11  1  0
 10 12  1  0
 11  7  1  0
 12 19  1  0
 13 12  2  0
 14 15  1  0
 15 17  1  0
 16 15  2  0
 18 17  1  1
 18 20  1  0
 19 18  1  0
 20 22  1  0
 21 20  2  0
M  END
$$$$
