NAN.pdb
     RDKit          3D

 22 21  0  0  1  0  0  0  0  0999 V2000
   -0.1381  -27.6939   30.5264 N   0  0  0  0  0  0  0  0  0  0  0  0
    0.1983  -26.3386   30.4125 C   0  0  0  0  0  0  0  0  0  0  0  0
    1.3561  -25.9799   30.7993 O   0  0  0  0  0  0  0  0  0  0  0  0
   -0.6690  -25.2713   29.8813 C   0  0  0  0  0  0  0  0  0  0  0  0
   -2.0481  -25.8272   29.4994 C   0  0  2  0  0  0  0  0  0  0  0  0
   -1.9583  -26.3651   28.1768 N   0  0  0  0  0  0  0  0  0  0  0  0
   -2.9732  -24.6799   29.5071 C   0  0  0  0  0  0  0  0  0  0  0  0
   -3.2677  -24.1464   30.6055 O   0  0  0  0  0  0  0  0  0  0  0  0
   -4.6127  -22.4036   27.0364 C   0  0  0  0  0  0  0  0  0  0  0  0
   -4.4581  -23.0799   28.3822 C   0  0  2  0  0  0  0  0  0  0  0  0
   -3.5434  -24.1603   28.2896 N   0  0  0  0  0  0  0  0  0  0  0  0
   -5.7911  -23.4789   28.9090 C   0  0  0  0  0  0  0  0  0  0  0  0
   -6.2375  -24.6170   28.6460 O   0  0  0  0  0  0  0  0  0  0  0  0
   -9.6362  -24.1685   33.1638 N   0  0  0  0  0  0  0  0  0  0  0  0
   -9.2292  -24.2898   31.8126 C   0  0  0  0  0  0  0  0  0  0  0  0
  -10.1324  -24.7325   31.0218 O   0  0  0  0  0  0  0  0  0  0  0  0
   -7.8841  -23.9438   31.3117 C   0  0  0  0  0  0  0  0  0  0  0  0
   -7.8995  -22.9542   30.2073 C   0  0  2  0  0  0  0  0  0  0  0  0
   -6.5876  -22.6133   29.7070 N   0  0  0  0  0  0  0  0  0  0  0  0
   -8.7214  -21.7626   30.4898 C   0  0  0  0  0  0  0  0  0  0  0  0
   -8.3284  -20.6420   30.8557 O   0  0  0  0  0  0  0  0  0  0  0  0
  -10.1157  -21.8986   30.3296 O   0  0  0  0  0  0  0  0  0  0  0  0
  2  1  1  0
  3  2  2  0
  4  2  1  0
  4  5  1  0
  5  6  1  6
  7  5  1  0
  8  7  2  0
 10  9  1  6
 10 11  1  0
 10 12  1  0
 11  7  1  0
 12 19  1  0
 13 12  2  0
 14 15  1  0
 15 17  1  0
 16 15  2  0
 18 17  1  1
 18 20  1  0
 19 18  1  0
 20 22  1  0
 21 20  2  0
M  END
$$$$
