NAN.pdb
     RDKit          3D

 22 21  0  0  1  0  0  0  0  0999 V2000
    7.0078  -13.7931   12.0668 N   0  0  0  0  0  0  0  0  0  0  0  0
    6.9804  -14.3137   13.3672 C   0  0  0  0  0  0  0  0  0  0  0  0
    6.3124  -15.3782   13.5664 O   0  0  0  0  0  0  0  0  0  0  0  0
    7.6585  -13.7420   14.5449 C   0  0  0  0  0  0  0  0  0  0  0  0
    8.4257  -14.8268   15.3137 C   0  0  2  0  0  0  0  0  0  0  0  0
    7.4896  -15.8311   15.7159 N   0  0  0  0  0  0  0  0  0  0  0  0
    8.9902  -14.1685   16.5054 C   0  0  0  0  0  0  0  0  0  0  0  0
    9.9421  -13.3621   16.3584 O   0  0  0  0  0  0  0  0  0  0  0  0
    8.4123  -14.1162   20.2141 C   0  0  0  0  0  0  0  0  0  0  0  0
    9.2160  -13.9541   18.9412 C   0  0  2  0  0  0  0  0  0  0  0  0
    8.4770  -14.4281   17.8270 N   0  0  0  0  0  0  0  0  0  0  0  0
   10.5443  -14.6078   19.0896 C   0  0  0  0  0  0  0  0  0  0  0  0
   11.2496  -14.7978   18.0746 O   0  0  0  0  0  0  0  0  0  0  0  0
   14.5959  -15.7202   18.7896 N   0  0  0  0  0  0  0  0  0  0  0  0
   14.3654  -14.4085   19.2716 C   0  0  0  0  0  0  0  0  0  0  0  0
   15.1686  -13.5239   18.8142 O   0  0  0  0  0  0  0  0  0  0  0  0
   13.2965  -14.0447   20.2230 C   0  0  0  0  0  0  0  0  0  0  0  0
   12.4573  -15.1943   20.6395 C   0  0  2  0  0  0  0  0  0  0  0  0
   11.0517  -15.0302   20.3483 N   0  0  0  0  0  0  0  0  0  0  0  0
   12.6974  -15.6320   22.0274 C   0  0  0  0  0  0  0  0  0  0  0  0
   12.3442  -15.0604   23.0727 O   0  0  0  0  0  0  0  0  0  0  0  0
   13.4089  -16.8369   22.2006 O   0  0  0  0  0  0  0  0  0  0  0  0
  2  1  1  0
  3  2  2  0
  4  2  1  0
  4  5  1  0
  5  6  1  1
  7  5  1  0
  8  7  2  0
 10  9  1  1
 10 11  1  0
 10 12  1  0
 11  7  1  0
 12 19  1  0
 13 12  2  0
 14 15  1  0
 15 17  1  0
 16 15  2  0
 18 17  1  1
 18 20  1  0
 19 18  1  0
 20 22  1  0
 21 20  2  0
M  END
$$$$
