NAN.pdb
     RDKit          3D

 22 21  0  0  1  0  0  0  0  0999 V2000
    7.1628  -14.5702   14.1679 N   0  0  0  0  0  0  0  0  0  0  0  0
    8.4006  -14.4112   14.8046 C   0  0  0  0  0  0  0  0  0  0  0  0
    9.4383  -14.8273   14.1972 O   0  0  0  0  0  0  0  0  0  0  0  0
    8.6232  -13.8010   16.1282 C   0  0  0  0  0  0  0  0  0  0  0  0
    9.1162  -14.8481   17.1367 C   0  0  2  0  0  0  0  0  0  0  0  0
    8.2946  -16.0118   17.0047 N   0  0  0  0  0  0  0  0  0  0  0  0
    8.9277  -14.2561   18.4732 C   0  0  0  0  0  0  0  0  0  0  0  0
    9.7986  -13.4654   18.9140 O   0  0  0  0  0  0  0  0  0  0  0  0
    6.3386  -14.1243   21.1638 C   0  0  0  0  0  0  0  0  0  0  0  0
    7.7535  -14.1131   20.6252 C   0  0  2  0  0  0  0  0  0  0  0  0
    7.7733  -14.5626   19.2798 N   0  0  0  0  0  0  0  0  0  0  0  0
    8.6471  -14.8951   21.5217 C   0  0  0  0  0  0  0  0  0  0  0  0
    8.6899  -14.6144   22.7395 O   0  0  0  0  0  0  0  0  0  0  0  0
   11.0242  -19.9897   23.0947 N   0  0  0  0  0  0  0  0  0  0  0  0
   11.4376  -18.9455   22.2317 C   0  0  0  0  0  0  0  0  0  0  0  0
   12.6987  -18.7299   22.2221 O   0  0  0  0  0  0  0  0  0  0  0  0
   10.5238  -18.1458   21.3917 C   0  0  0  0  0  0  0  0  0  0  0  0
   10.3072  -16.7684   21.8969 C   0  0  2  0  0  0  0  0  0  0  0  0
    9.4629  -15.9588   21.0489 N   0  0  0  0  0  0  0  0  0  0  0  0
   11.5510  -16.0747   22.2802 C   0  0  0  0  0  0  0  0  0  0  0  0
   12.2183  -15.2831   21.5928 O   0  0  0  0  0  0  0  0  0  0  0  0
   12.0503  -16.3313   23.5736 O   0  0  0  0  0  0  0  0  0  0  0  0
  2  1  1  0
  3  2  2  0
  4  2  1  0
  4  5  1  0
  5  6  1  1
  7  5  1  0
  8  7  2  0
 10  9  1  1
 10 11  1  0
 10 12  1  0
 11  7  1  0
 12 19  1  0
 13 12  2  0
 14 15  1  0
 15 17  1  0
 16 15  2  0
 18 17  1  6
 18 20  1  0
 19 18  1  0
 20 22  1  0
 21 20  2  0
M  END
$$$$
