NAN.pdb
     RDKit          3D

 22 21  0  0  1  0  0  0  0  0999 V2000
    8.0454  -14.8053   15.2404 N   0  0  0  0  0  0  0  0  0  0  0  0
    8.5548  -15.5934   16.2807 C   0  0  0  0  0  0  0  0  0  0  0  0
    8.5729  -16.8548   16.1156 O   0  0  0  0  0  0  0  0  0  0  0  0
    9.0793  -15.0987   17.5667 C   0  0  0  0  0  0  0  0  0  0  0  0
    8.5985  -15.9799   18.7282 C   0  0  2  0  0  0  0  0  0  0  0  0
    7.1996  -16.2214   18.5517 N   0  0  0  0  0  0  0  0  0  0  0  0
    8.8161  -15.1980   19.9584 C   0  0  0  0  0  0  0  0  0  0  0  0
    9.9926  -15.0098   20.3566 O   0  0  0  0  0  0  0  0  0  0  0  0
    7.3804  -12.6424   21.9996 C   0  0  0  0  0  0  0  0  0  0  0  0
    7.9938  -14.0259   21.9534 C   0  0  2  0  0  0  0  0  0  0  0  0
    7.7156  -14.6480   20.7092 N   0  0  0  0  0  0  0  0  0  0  0  0
    7.5429  -14.8235   23.1257 C   0  0  0  0  0  0  0  0  0  0  0  0
    6.3231  -15.0541   23.2764 O   0  0  0  0  0  0  0  0  0  0  0  0
    6.1691  -18.8638   25.9845 N   0  0  0  0  0  0  0  0  0  0  0  0
    7.2707  -18.7787   25.0984 C   0  0  0  0  0  0  0  0  0  0  0  0
    8.0353  -19.8046   25.0987 O   0  0  0  0  0  0  0  0  0  0  0  0
    7.5522  -17.6217   24.2253 C   0  0  0  0  0  0  0  0  0  0  0  0
    8.1648  -16.4755   24.9395 C   0  0  2  0  0  0  0  0  0  0  0  0
    8.4481  -15.3402   24.0921 N   0  0  0  0  0  0  0  0  0  0  0  0
    9.3151  -16.8489   25.7838 C   0  0  0  0  0  0  0  0  0  0  0  0
    9.2898  -17.4200   26.8871 O   0  0  0  0  0  0  0  0  0  0  0  0
   10.5966  -16.5256   25.2925 O   0  0  0  0  0  0  0  0  0  0  0  0
  2  1  1  0
  3  2  2  0
  4  2  1  0
  4  5  1  0
  5  6  1  6
  7  5  1  0
  8  7  2  0
 10  9  1  6
 10 11  1  0
 10 12  1  0
 11  7  1  0
 12 19  1  0
 13 12  2  0
 14 15  1  0
 15 17  1  0
 16 15  2  0
 18 17  1  6
 18 20  1  0
 19 18  1  0
 20 22  1  0
 21 20  2  0
M  END
$$$$
