NAN.pdb
     RDKit          3D

 22 21  0  0  1  0  0  0  0  0999 V2000
    7.1666  -13.3683   15.6961 N   0  0  0  0  0  0  0  0  0  0  0  0
    8.3735  -14.0709   15.8078 C   0  0  0  0  0  0  0  0  0  0  0  0
    9.1513  -14.0785   14.8009 O   0  0  0  0  0  0  0  0  0  0  0  0
    8.8384  -14.8135   16.9936 C   0  0  0  0  0  0  0  0  0  0  0  0
    8.8643  -16.3233   16.7174 C   0  0  2  0  0  0  0  0  0  0  0  0
    7.5252  -16.7471   16.4455 N   0  0  0  0  0  0  0  0  0  0  0  0
    9.3457  -16.9622   17.9553 C   0  0  0  0  0  0  0  0  0  0  0  0
    8.5405  -17.1257   18.9054 O   0  0  0  0  0  0  0  0  0  0  0  0
   11.9795  -19.2371   19.0029 C   0  0  0  0  0  0  0  0  0  0  0  0
   11.0872  -18.0509   19.3014 C   0  0  2  0  0  0  0  0  0  0  0  0
   10.7112  -17.4006   18.0980 N   0  0  0  0  0  0  0  0  0  0  0  0
   11.7507  -17.1462   20.2785 C   0  0  0  0  0  0  0  0  0  0  0  0
   12.5133  -16.2476   19.8605 O   0  0  0  0  0  0  0  0  0  0  0  0
    9.0689  -16.9714   24.0845 N   0  0  0  0  0  0  0  0  0  0  0  0
   10.1421  -16.0574   23.9483 C   0  0  0  0  0  0  0  0  0  0  0  0
    9.7870  -14.8398   23.7799 O   0  0  0  0  0  0  0  0  0  0  0  0
   11.5693  -16.4332   23.9928 C   0  0  0  0  0  0  0  0  0  0  0  0
   12.2230  -16.4366   22.6617 C   0  0  2  0  0  0  0  0  0  0  0  0
   11.5534  -17.2602   21.6816 N   0  0  0  0  0  0  0  0  0  0  0  0
   13.6747  -16.6919   22.7143 C   0  0  0  0  0  0  0  0  0  0  0  0
   14.2681  -17.7462   22.4307 O   0  0  0  0  0  0  0  0  0  0  0  0
   14.4940  -15.6236   23.1335 O   0  0  0  0  0  0  0  0  0  0  0  0
  2  1  1  0
  3  2  2  0
  4  2  1  0
  4  5  1  0
  5  6  1  1
  7  5  1  0
  8  7  2  0
 10  9  1  6
 10 11  1  0
 10 12  1  0
 11  7  1  0
 12 19  1  0
 13 12  2  0
 14 15  1  0
 15 17  1  0
 16 15  2  0
 18 17  1  1
 18 20  1  0
 19 18  1  0
 20 22  1  0
 21 20  2  0
M  END
$$$$
