NAN.pdb
     RDKit          3D

 22 21  0  0  1  0  0  0  0  0999 V2000
    7.8370  -12.8181   16.2644 N   0  0  0  0  0  0  0  0  0  0  0  0
    8.0478  -12.9558   17.6425 C   0  0  0  0  0  0  0  0  0  0  0  0
    7.2508  -12.3507   18.4283 O   0  0  0  0  0  0  0  0  0  0  0  0
    9.1174  -13.7438   18.2820 C   0  0  0  0  0  0  0  0  0  0  0  0
   10.0219  -14.3951   17.2264 C   0  0  2  0  0  0  0  0  0  0  0  0
    9.2497  -15.3728   16.5233 N   0  0  0  0  0  0  0  0  0  0  0  0
   11.1094  -15.0596   17.9666 C   0  0  0  0  0  0  0  0  0  0  0  0
   10.8805  -16.1656   18.5164 O   0  0  0  0  0  0  0  0  0  0  0  0
   14.7960  -14.8544   18.1901 C   0  0  0  0  0  0  0  0  0  0  0  0
   13.4325  -15.2001   18.7501 C   0  0  2  0  0  0  0  0  0  0  0  0
   12.4212  -14.4719   18.0723 N   0  0  0  0  0  0  0  0  0  0  0  0
   13.4193  -14.9962   20.2238 C   0  0  0  0  0  0  0  0  0  0  0  0
   13.6294  -13.8532   20.6854 O   0  0  0  0  0  0  0  0  0  0  0  0
   10.6323  -14.8120   21.7909 N   0  0  0  0  0  0  0  0  0  0  0  0
   10.7101  -15.8757   22.7229 C   0  0  0  0  0  0  0  0  0  0  0  0
    9.5781  -16.3389   23.0985 O   0  0  0  0  0  0  0  0  0  0  0  0
   11.9718  -16.4377   23.2446 C   0  0  0  0  0  0  0  0  0  0  0  0
   13.1814  -15.8998   22.5760 C   0  0  2  0  0  0  0  0  0  0  0  0
   13.1757  -16.0556   21.1396 N   0  0  0  0  0  0  0  0  0  0  0  0
   14.4463  -16.3503   23.1862 C   0  0  0  0  0  0  0  0  0  0  0  0
   15.3365  -17.0396   22.6603 O   0  0  0  0  0  0  0  0  0  0  0  0
   14.6841  -15.9597   24.5200 O   0  0  0  0  0  0  0  0  0  0  0  0
  2  1  1  0
  3  2  2  0
  4  2  1  0
  4  5  1  0
  5  6  1  1
  7  5  1  0
  8  7  2  0
 10  9  1  6
 10 11  1  0
 10 12  1  0
 11  7  1  0
 12 19  1  0
 13 12  2  0
 14 15  1  0
 15 17  1  0
 16 15  2  0
 18 17  1  1
 18 20  1  0
 19 18  1  0
 20 22  1  0
 21 20  2  0
M  END
$$$$
