NAN.pdb
     RDKit          3D

 22 21  0  0  1  0  0  0  0  0999 V2000
    7.8528  -12.1944   18.1336 N   0  0  0  0  0  0  0  0  0  0  0  0
    8.5952  -13.3822   18.1592 C   0  0  0  0  0  0  0  0  0  0  0  0
    8.9109  -13.9090   17.0448 O   0  0  0  0  0  0  0  0  0  0  0  0
    9.0535  -14.0929   19.3669 C   0  0  0  0  0  0  0  0  0  0  0  0
    8.5518  -15.5437   19.3706 C   0  0  2  0  0  0  0  0  0  0  0  0
    7.1223  -15.5182   19.4194 N   0  0  0  0  0  0  0  0  0  0  0  0
    9.0797  -16.1609   20.6005 C   0  0  0  0  0  0  0  0  0  0  0  0
    8.6024  -15.8092   21.7079 O   0  0  0  0  0  0  0  0  0  0  0  0
   10.5197  -19.2354   21.7035 C   0  0  0  0  0  0  0  0  0  0  0  0
   10.5582  -17.7240   21.7842 C   0  0  2  0  0  0  0  0  0  0  0  0
   10.1245  -17.1529   20.5602 N   0  0  0  0  0  0  0  0  0  0  0  0
   11.9124  -17.2694   22.2004 C   0  0  0  0  0  0  0  0  0  0  0  0
   12.5017  -17.8693   23.1259 O   0  0  0  0  0  0  0  0  0  0  0  0
   13.5621  -14.3999   18.6485 N   0  0  0  0  0  0  0  0  0  0  0  0
   14.3023  -15.1415   19.6015 C   0  0  0  0  0  0  0  0  0  0  0  0
   14.8251  -16.2182   19.1495 O   0  0  0  0  0  0  0  0  0  0  0  0
   14.4843  -14.7423   21.0114 C   0  0  0  0  0  0  0  0  0  0  0  0
   13.8759  -15.6878   21.9783 C   0  0  2  0  0  0  0  0  0  0  0  0
   12.5724  -16.1712   21.5849 N   0  0  0  0  0  0  0  0  0  0  0  0
   13.9012  -15.2084   23.3729 C   0  0  0  0  0  0  0  0  0  0  0  0
   12.9459  -15.1312   24.1638 O   0  0  0  0  0  0  0  0  0  0  0  0
   15.1481  -14.7862   23.8782 O   0  0  0  0  0  0  0  0  0  0  0  0
  2  1  1  0
  3  2  2  0
  4  2  1  0
  4  5  1  0
  5  6  1  1
  7  5  1  0
  8  7  2  0
 10  9  1  6
 10 11  1  0
 10 12  1  0
 11  7  1  0
 12 19  1  0
 13 12  2  0
 14 15  1  0
 15 17  1  0
 16 15  2  0
 18 17  1  6
 18 20  1  0
 19 18  1  0
 20 22  1  0
 21 20  2  0
M  END
$$$$
