NAN.pdb
     RDKit          3D

 22 21  0  0  1  0  0  0  0  0999 V2000
   16.2904  -18.7566   16.1182 N   0  0  0  0  0  0  0  0  0  0  0  0
   15.1935  -19.1793   16.8804 C   0  0  0  0  0  0  0  0  0  0  0  0
   14.4534  -20.0951   16.3982 O   0  0  0  0  0  0  0  0  0  0  0  0
   14.8059  -18.6604   18.2048 C   0  0  0  0  0  0  0  0  0  0  0  0
   13.2871  -18.4531   18.2874 C   0  0  2  0  0  0  0  0  0  0  0  0
   12.8746  -17.7300   17.1240 N   0  0  0  0  0  0  0  0  0  0  0  0
   13.0458  -17.6371   19.4908 C   0  0  0  0  0  0  0  0  0  0  0  0
   13.9877  -16.9470   19.9538 O   0  0  0  0  0  0  0  0  0  0  0  0
   10.1435  -16.6750   21.6606 C   0  0  0  0  0  0  0  0  0  0  0  0
   11.6081  -16.8084   21.3009 C   0  0  2  0  0  0  0  0  0  0  0  0
   11.7608  -17.6140   20.1433 N   0  0  0  0  0  0  0  0  0  0  0  0
   12.3781  -17.3069   22.4724 C   0  0  0  0  0  0  0  0  0  0  0  0
   12.6154  -18.5305   22.5731 O   0  0  0  0  0  0  0  0  0  0  0  0
   15.8151  -14.8950   23.0247 N   0  0  0  0  0  0  0  0  0  0  0  0
   15.7109  -16.0238   23.8737 C   0  0  0  0  0  0  0  0  0  0  0  0
   16.5139  -16.9790   23.5911 O   0  0  0  0  0  0  0  0  0  0  0  0
   14.7691  -16.1329   25.0056 C   0  0  0  0  0  0  0  0  0  0  0  0
   13.5413  -16.8995   24.6831 C   0  0  2  0  0  0  0  0  0  0  0  0
   12.8607  -16.4433   23.4931 N   0  0  0  0  0  0  0  0  0  0  0  0
   12.6257  -17.0622   25.8279 C   0  0  0  0  0  0  0  0  0  0  0  0
   11.5557  -16.4641   26.0317 O   0  0  0  0  0  0  0  0  0  0  0  0
   12.9968  -18.0023   26.8110 O   0  0  0  0  0  0  0  0  0  0  0  0
  2  1  1  0
  3  2  2  0
  4  2  1  0
  4  5  1  0
  5  6  1  6
  7  5  1  0
  8  7  2  0
 10  9  1  1
 10 11  1  0
 10 12  1  0
 11  7  1  0
 12 19  1  0
 13 12  2  0
 14 15  1  0
 15 17  1  0
 16 15  2  0
 18 17  1  1
 18 20  1  0
 19 18  1  0
 20 22  1  0
 21 20  2  0
M  END
$$$$
