NAN.pdb
     RDKit          3D

 22 21  0  0  1  0  0  0  0  0999 V2000
    7.6987  -12.7145   16.6390 N   0  0  0  0  0  0  0  0  0  0  0  0
    8.0843  -13.7742   17.4704 C   0  0  0  0  0  0  0  0  0  0  0  0
    7.9127  -14.9591   17.0399 O   0  0  0  0  0  0  0  0  0  0  0  0
    8.6777  -13.6507   18.8144 C   0  0  0  0  0  0  0  0  0  0  0  0
    8.4329  -14.9224   19.6387 C   0  0  2  0  0  0  0  0  0  0  0  0
    7.0309  -15.2052   19.6116 N   0  0  0  0  0  0  0  0  0  0  0  0
    8.8496  -14.6085   21.0171 C   0  0  0  0  0  0  0  0  0  0  0  0
   10.0734  -14.4672   21.2629 O   0  0  0  0  0  0  0  0  0  0  0  0
    7.3389  -13.8932   24.3567 C   0  0  0  0  0  0  0  0  0  0  0  0
    8.3564  -14.5103   23.4207 C   0  0  2  0  0  0  0  0  0  0  0  0
    7.8897  -14.4609   22.0820 N   0  0  0  0  0  0  0  0  0  0  0  0
    8.7005  -15.8846   23.8753 C   0  0  0  0  0  0  0  0  0  0  0  0
    8.4173  -16.8595   23.1453 O   0  0  0  0  0  0  0  0  0  0  0  0
   11.6085  -20.0527   24.6857 N   0  0  0  0  0  0  0  0  0  0  0  0
   12.0688  -18.7133   24.6978 C   0  0  0  0  0  0  0  0  0  0  0  0
   13.3051  -18.5774   24.9979 O   0  0  0  0  0  0  0  0  0  0  0  0
   11.2274  -17.5388   24.3935 C   0  0  0  0  0  0  0  0  0  0  0  0
   10.1482  -17.3102   25.3846 C   0  0  2  0  0  0  0  0  0  0  0  0
    9.3441  -16.1401   25.1166 N   0  0  0  0  0  0  0  0  0  0  0  0
   10.6066  -17.3696   26.7852 C   0  0  0  0  0  0  0  0  0  0  0  0
   11.1138  -16.4537   27.4546 O   0  0  0  0  0  0  0  0  0  0  0  0
   10.4572  -18.6029   27.4520 O   0  0  0  0  0  0  0  0  0  0  0  0
  2  1  1  0
  3  2  2  0
  4  2  1  0
  4  5  1  0
  5  6  1  1
  7  5  1  0
  8  7  2  0
 10  9  1  1
 10 11  1  0
 10 12  1  0
 11  7  1  0
 12 19  1  0
 13 12  2  0
 14 15  1  0
 15 17  1  0
 16 15  2  0
 18 17  1  6
 18 20  1  0
 19 18  1  0
 20 22  1  0
 21 20  2  0
M  END
$$$$
