NAN.pdb
     RDKit          3D

 22 21  0  0  1  0  0  0  0  0999 V2000
    6.6110  -13.6157   15.2264 N   0  0  0  0  0  0  0  0  0  0  0  0
    7.9430  -14.0217   15.3805 C   0  0  0  0  0  0  0  0  0  0  0  0
    8.4705  -14.6965   14.4396 O   0  0  0  0  0  0  0  0  0  0  0  0
    8.8067  -13.7407   16.5419 C   0  0  0  0  0  0  0  0  0  0  0  0
    9.1846  -15.0390   17.2687 C   0  0  2  0  0  0  0  0  0  0  0  0
    7.9962  -15.8191   17.4290 N   0  0  0  0  0  0  0  0  0  0  0  0
    9.6980  -14.6385   18.5909 C   0  0  0  0  0  0  0  0  0  0  0  0
   10.7685  -13.9843   18.6524 O   0  0  0  0  0  0  0  0  0  0  0  0
    8.6975  -14.9574   22.1954 C   0  0  0  0  0  0  0  0  0  0  0  0
    9.6581  -14.7498   21.0437 C   0  0  2  0  0  0  0  0  0  0  0  0
    9.0026  -14.9789   19.8066 N   0  0  0  0  0  0  0  0  0  0  0  0
   10.8713  -15.5900   21.2331 C   0  0  0  0  0  0  0  0  0  0  0  0
   10.7877  -16.8285   21.0821 O   0  0  0  0  0  0  0  0  0  0  0  0
   14.4820  -13.5009   19.3811 N   0  0  0  0  0  0  0  0  0  0  0  0
   14.4952  -14.8321   19.8648 C   0  0  0  0  0  0  0  0  0  0  0  0
   14.4408  -15.7301   18.9550 O   0  0  0  0  0  0  0  0  0  0  0  0
   14.5671  -15.2007   21.2927 C   0  0  0  0  0  0  0  0  0  0  0  0
   13.3251  -15.8276   21.8062 C   0  0  2  0  0  0  0  0  0  0  0  0
   12.1347  -15.0401   21.5821 N   0  0  0  0  0  0  0  0  0  0  0  0
   13.4321  -16.3025   23.1985 C   0  0  0  0  0  0  0  0  0  0  0  0
   14.2480  -17.1190   23.6586 O   0  0  0  0  0  0  0  0  0  0  0  0
   12.5071  -15.7760   24.1233 O   0  0  0  0  0  0  0  0  0  0  0  0
  2  1  1  0
  3  2  2  0
  4  2  1  0
  4  5  1  0
  5  6  1  1
  7  5  1  0
  8  7  2  0
 10  9  1  1
 10 11  1  0
 10 12  1  0
 11  7  1  0
 12 19  1  0
 13 12  2  0
 14 15  1  0
 15 17  1  0
 16 15  2  0
 18 17  1  1
 18 20  1  0
 19 18  1  0
 20 22  1  0
 21 20  2  0
M  END
$$$$
