NAN.pdb
     RDKit          3D

 22 21  0  0  1  0  0  0  0  0999 V2000
    6.4997  -12.8343   17.3688 N   0  0  0  0  0  0  0  0  0  0  0  0
    7.6720  -13.1188   18.0812 C   0  0  0  0  0  0  0  0  0  0  0  0
    8.7846  -12.8562   17.5225 O   0  0  0  0  0  0  0  0  0  0  0  0
    7.7455  -13.7010   19.4338 C   0  0  0  0  0  0  0  0  0  0  0  0
    9.2039  -13.9515   19.8423 C   0  0  2  0  0  0  0  0  0  0  0  0
    9.9375  -14.3116   18.6681 N   0  0  0  0  0  0  0  0  0  0  0  0
    9.1812  -15.0872   20.7814 C   0  0  0  0  0  0  0  0  0  0  0  0
    8.5441  -14.9708   21.8577 O   0  0  0  0  0  0  0  0  0  0  0  0
    9.2777  -18.6339   20.8044 C   0  0  0  0  0  0  0  0  0  0  0  0
    9.8023  -17.3677   21.4477 C   0  0  2  0  0  0  0  0  0  0  0  0
    9.8695  -16.3203   20.4933 N   0  0  0  0  0  0  0  0  0  0  0  0
   11.1018  -17.6375   22.1202 C   0  0  0  0  0  0  0  0  0  0  0  0
   11.1693  -18.5423   22.9807 O   0  0  0  0  0  0  0  0  0  0  0  0
   14.5758  -15.1931   20.1591 N   0  0  0  0  0  0  0  0  0  0  0  0
   14.8001  -15.0265   21.5476 C   0  0  0  0  0  0  0  0  0  0  0  0
   16.0209  -14.8180   21.8689 O   0  0  0  0  0  0  0  0  0  0  0  0
   13.7422  -15.0790   22.5763 C   0  0  0  0  0  0  0  0  0  0  0  0
   13.2215  -16.4457   22.8218 C   0  0  2  0  0  0  0  0  0  0  0  0
   12.2824  -16.9035   21.8239 N   0  0  0  0  0  0  0  0  0  0  0  0
   12.7292  -16.6549   24.1962 C   0  0  0  0  0  0  0  0  0  0  0  0
   11.6028  -16.3841   24.6457 O   0  0  0  0  0  0  0  0  0  0  0  0
   13.6320  -17.2278   25.1153 O   0  0  0  0  0  0  0  0  0  0  0  0
  2  1  1  0
  3  2  2  0
  4  2  1  0
  4  5  1  0
  5  6  1  6
  7  5  1  0
  8  7  2  0
 10  9  1  6
 10 11  1  0
 10 12  1  0
 11  7  1  0
 12 19  1  0
 13 12  2  0
 14 15  1  0
 15 17  1  0
 16 15  2  0
 18 17  1  6
 18 20  1  0
 19 18  1  0
 20 22  1  0
 21 20  2  0
M  END
$$$$
