NAN.pdb
     RDKit          3D

 22 21  0  0  1  0  0  0  0  0999 V2000
    8.0770  -12.5620   15.1073 N   0  0  0  0  0  0  0  0  0  0  0  0
    7.4088  -13.5642   15.8226 C   0  0  0  0  0  0  0  0  0  0  0  0
    6.6802  -14.3758   15.1673 O   0  0  0  0  0  0  0  0  0  0  0  0
    7.4667  -13.7748   17.2807 C   0  0  0  0  0  0  0  0  0  0  0  0
    8.5948  -14.7491   17.6477 C   0  0  2  0  0  0  0  0  0  0  0  0
    8.2390  -16.0445   17.1558 N   0  0  0  0  0  0  0  0  0  0  0  0
    8.6553  -14.7763   19.1200 C   0  0  0  0  0  0  0  0  0  0  0  0
    9.1701  -13.8023   19.7234 O   0  0  0  0  0  0  0  0  0  0  0  0
    7.4941  -16.9156   21.9581 C   0  0  0  0  0  0  0  0  0  0  0  0
    8.4355  -15.9547   21.2632 C   0  0  2  0  0  0  0  0  0  0  0  0
    8.1396  -15.8889   19.8774 N   0  0  0  0  0  0  0  0  0  0  0  0
    9.8474  -16.3278   21.5481 C   0  0  0  0  0  0  0  0  0  0  0  0
   10.4076  -17.1909   20.8375 O   0  0  0  0  0  0  0  0  0  0  0  0
   14.9090  -15.0476   21.1094 N   0  0  0  0  0  0  0  0  0  0  0  0
   13.5216  -15.0351   21.3943 C   0  0  0  0  0  0  0  0  0  0  0  0
   12.7660  -15.0030   20.3623 O   0  0  0  0  0  0  0  0  0  0  0  0
   12.9487  -15.0583   22.7549 C   0  0  0  0  0  0  0  0  0  0  0  0
   11.9415  -16.1281   22.9556 C   0  0  2  0  0  0  0  0  0  0  0  0
   10.5951  -15.7394   22.6041 N   0  0  0  0  0  0  0  0  0  0  0  0
   12.0141  -16.7702   24.2814 C   0  0  0  0  0  0  0  0  0  0  0  0
   11.1162  -16.8417   25.1375 O   0  0  0  0  0  0  0  0  0  0  0  0
   13.2389  -17.3763   24.6288 O   0  0  0  0  0  0  0  0  0  0  0  0
  2  1  1  0
  3  2  2  0
  4  2  1  0
  4  5  1  0
  5  6  1  1
  7  5  1  0
  8  7  2  0
 10  9  1  1
 10 11  1  0
 10 12  1  0
 11  7  1  0
 12 19  1  0
 13 12  2  0
 14 15  1  0
 15 17  1  0
 16 15  2  0
 18 17  1  1
 18 20  1  0
 19 18  1  0
 20 22  1  0
 21 20  2  0
M  END
$$$$
