NAN.pdb
     RDKit          3D

 22 21  0  0  1  0  0  0  0  0999 V2000
    7.4567  -12.1078   17.4350 N   0  0  0  0  0  0  0  0  0  0  0  0
    7.4753  -13.4220   17.9200 C   0  0  0  0  0  0  0  0  0  0  0  0
    7.0926  -14.3491   17.1370 O   0  0  0  0  0  0  0  0  0  0  0  0
    7.9003  -13.8435   19.2673 C   0  0  0  0  0  0  0  0  0  0  0  0
    9.2268  -14.6139   19.2058 C   0  0  2  0  0  0  0  0  0  0  0  0
    9.0442  -15.7428   18.3464 N   0  0  0  0  0  0  0  0  0  0  0  0
    9.5019  -15.0742   20.5786 C   0  0  0  0  0  0  0  0  0  0  0  0
    9.7144  -14.2185   21.4734 O   0  0  0  0  0  0  0  0  0  0  0  0
    9.2057  -18.0755   22.6845 C   0  0  0  0  0  0  0  0  0  0  0  0
    9.9563  -16.8469   22.2161 C   0  0  2  0  0  0  0  0  0  0  0  0
    9.5320  -16.4755   20.9144 N   0  0  0  0  0  0  0  0  0  0  0  0
   11.4231  -17.0760   22.3157 C   0  0  0  0  0  0  0  0  0  0  0  0
   11.8813  -18.2165   22.0858 O   0  0  0  0  0  0  0  0  0  0  0  0
   13.4916  -13.9650   20.0470 N   0  0  0  0  0  0  0  0  0  0  0  0
   14.1585  -15.0877   20.5955 C   0  0  0  0  0  0  0  0  0  0  0  0
   14.4104  -16.0203   19.7565 O   0  0  0  0  0  0  0  0  0  0  0  0
   14.5524  -15.2143   22.0129 C   0  0  0  0  0  0  0  0  0  0  0  0
   13.7658  -16.2266   22.7584 C   0  0  2  0  0  0  0  0  0  0  0  0
   12.3357  -16.0436   22.6644 N   0  0  0  0  0  0  0  0  0  0  0  0
   14.2181  -16.4234   24.1484 C   0  0  0  0  0  0  0  0  0  0  0  0
   13.5379  -16.3362   25.1847 O   0  0  0  0  0  0  0  0  0  0  0  0
   15.5773  -16.7486   24.3354 O   0  0  0  0  0  0  0  0  0  0  0  0
  2  1  1  0
  3  2  2  0
  4  2  1  0
  4  5  1  0
  5  6  1  6
  7  5  1  0
  8  7  2  0
 10  9  1  6
 10 11  1  0
 10 12  1  0
 11  7  1  0
 12 19  1  0
 13 12  2  0
 14 15  1  0
 15 17  1  0
 16 15  2  0
 18 17  1  1
 18 20  1  0
 19 18  1  0
 20 22  1  0
 21 20  2  0
M  END
$$$$
