NAN.pdb
     RDKit          3D

 22 21  0  0  1  0  0  0  0  0999 V2000
   15.8058  -14.1828   19.0127 N   0  0  0  0  0  0  0  0  0  0  0  0
   14.7201  -14.8521   18.4329 C   0  0  0  0  0  0  0  0  0  0  0  0
   14.8494  -15.2690   17.2378 O   0  0  0  0  0  0  0  0  0  0  0  0
   13.4236  -15.1250   19.0797 C   0  0  0  0  0  0  0  0  0  0  0  0
   12.2710  -14.5078   18.2751 C   0  0  2  0  0  0  0  0  0  0  0  0
   12.5711  -13.1257   18.0598 N   0  0  0  0  0  0  0  0  0  0  0  0
   11.0673  -14.6294   19.1168 C   0  0  0  0  0  0  0  0  0  0  0  0
   10.5939  -15.7721   19.3356 O   0  0  0  0  0  0  0  0  0  0  0  0
    8.1196  -14.0090   19.2517 C   0  0  0  0  0  0  0  0  0  0  0  0
    9.1533  -13.6395   20.2944 C   0  0  2  0  0  0  0  0  0  0  0  0
   10.4262  -13.4731   19.6906 N   0  0  0  0  0  0  0  0  0  0  0  0
    9.1487  -14.6409   21.3949 C   0  0  0  0  0  0  0  0  0  0  0  0
    8.0640  -14.9547   21.9321 O   0  0  0  0  0  0  0  0  0  0  0  0
   11.4582  -19.4233   23.8359 N   0  0  0  0  0  0  0  0  0  0  0  0
   11.6950  -18.0398   24.0254 C   0  0  0  0  0  0  0  0  0  0  0  0
   11.9601  -17.7048   25.2314 O   0  0  0  0  0  0  0  0  0  0  0  0
   11.6524  -17.0305   22.9485 C   0  0  0  0  0  0  0  0  0  0  0  0
   10.3600  -16.3080   22.8644 C   0  0  2  0  0  0  0  0  0  0  0  0
   10.3364  -15.2628   21.8671 N   0  0  0  0  0  0  0  0  0  0  0  0
    9.8495  -15.8515   24.1706 C   0  0  0  0  0  0  0  0  0  0  0  0
    9.7302  -14.6804   24.5688 O   0  0  0  0  0  0  0  0  0  0  0  0
    9.4471  -16.8502   25.0810 O   0  0  0  0  0  0  0  0  0  0  0  0
  2  1  1  0
  3  2  2  0
  4  2  1  0
  4  5  1  0
  5  6  1  1
  7  5  1  0
  8  7  2  0
 10  9  1  6
 10 11  1  0
 10 12  1  0
 11  7  1  0
 12 19  1  0
 13 12  2  0
 14 15  1  0
 15 17  1  0
 16 15  2  0
 18 17  1  1
 18 20  1  0
 19 18  1  0
 20 22  1  0
 21 20  2  0
M  END
$$$$
