NAN.pdb
     RDKit          3D

 22 21  0  0  1  0  0  0  0  0999 V2000
    8.7203  -15.6259   11.8680 N   0  0  0  0  0  0  0  0  0  0  0  0
    8.0152  -14.9881   12.8970 C   0  0  0  0  0  0  0  0  0  0  0  0
    6.7507  -14.9023   12.7854 O   0  0  0  0  0  0  0  0  0  0  0  0
    8.6017  -14.3978   14.1141 C   0  0  0  0  0  0  0  0  0  0  0  0
    8.5053  -15.3732   15.2956 C   0  0  2  0  0  0  0  0  0  0  0  0
    7.1213  -15.6453   15.5339 N   0  0  0  0  0  0  0  0  0  0  0  0
    9.0812  -14.6733   16.4578 C   0  0  0  0  0  0  0  0  0  0  0  0
   10.3250  -14.5050   16.5085 O   0  0  0  0  0  0  0  0  0  0  0  0
    7.8634  -13.0379   19.6136 C   0  0  0  0  0  0  0  0  0  0  0  0
    8.8891  -13.6421   18.6781 C   0  0  2  0  0  0  0  0  0  0  0  0
    8.2535  -14.1811   17.5302 N   0  0  0  0  0  0  0  0  0  0  0  0
    9.7258  -14.6319   19.4088 C   0  0  0  0  0  0  0  0  0  0  0  0
    9.4432  -15.8476   19.3317 O   0  0  0  0  0  0  0  0  0  0  0  0
   14.0591  -13.1644   19.1313 N   0  0  0  0  0  0  0  0  0  0  0  0
   13.6725  -14.4619   19.5473 C   0  0  0  0  0  0  0  0  0  0  0  0
   13.8199  -15.3719   18.6601 O   0  0  0  0  0  0  0  0  0  0  0  0
   13.1400  -14.7851   20.8860 C   0  0  0  0  0  0  0  0  0  0  0  0
   11.7128  -15.1881   20.8746 C   0  0  2  0  0  0  0  0  0  0  0  0
   10.8444  -14.2516   20.1990 N   0  0  0  0  0  0  0  0  0  0  0  0
   11.1964  -15.5798   22.1994 C   0  0  0  0  0  0  0  0  0  0  0  0
   10.2175  -15.1055   22.8002 O   0  0  0  0  0  0  0  0  0  0  0  0
   11.8848  -16.6107   22.8714 O   0  0  0  0  0  0  0  0  0  0  0  0
  2  1  1  0
  3  2  2  0
  4  2  1  0
  4  5  1  0
  5  6  1  1
  7  5  1  0
  8  7  2  0
 10  9  1  1
 10 11  1  0
 10 12  1  0
 11  7  1  0
 12 19  1  0
 13 12  2  0
 14 15  1  0
 15 17  1  0
 16 15  2  0
 18 17  1  1
 18 20  1  0
 19 18  1  0
 20 22  1  0
 21 20  2  0
M  END
$$$$
