YVY.pdb
     RDKit          3D

 32 33  0  0  1  0  0  0  0  0999 V2000
    8.7117  -22.3994   13.9709 O   0  0  0  0  0  0  0  0  0  0  0  0
    8.9542  -21.5358   15.0278 C   0  0  0  0  0  0  0  0  0  0  0  0
   10.1845  -21.4119   15.6212 C   0  0  0  0  0  0  0  0  0  0  0  0
   10.3839  -20.5388   16.6728 C   0  0  0  0  0  0  0  0  0  0  0  0
    9.3590  -19.7538   17.1733 C   0  0  0  0  0  0  0  0  0  0  0  0
    9.5843  -18.8145   18.3085 C   0  0  0  0  0  0  0  0  0  0  0  0
    9.4424  -17.4094   17.7919 C   0  0  2  0  0  0  0  0  0  0  0  0
   10.4514  -17.1565   16.8035 N   0  0  0  0  0  0  0  0  0  0  0  0
    9.5246  -16.4463   18.9211 C   0  0  0  0  0  0  0  0  0  0  0  0
   10.6257  -16.2766   19.5047 O   0  0  0  0  0  0  0  0  0  0  0  0
    8.1265  -19.8879   16.5676 C   0  0  0  0  0  0  0  0  0  0  0  0
    7.9111  -20.7627   15.5082 C   0  0  0  0  0  0  0  0  0  0  0  0
    7.6347  -12.8738   21.7753 C   0  0  0  0  0  0  0  0  0  0  0  0
    7.4590  -13.7812   20.5812 C   0  0  1  0  0  0  0  0  0  0  0  0
    7.4165  -12.9571   19.3257 C   0  0  0  0  0  0  0  0  0  0  0  0
    8.5320  -14.8499   20.5318 C   0  0  2  0  0  0  0  0  0  0  0  0
    8.4139  -15.6951   19.3858 N   0  0  0  0  0  0  0  0  0  0  0  0
    8.5205  -15.6429   21.8133 C   0  0  0  0  0  0  0  0  0  0  0  0
    7.9102  -16.7499   21.7711 O   0  0  0  0  0  0  0  0  0  0  0  0
    7.8576  -20.2450   28.6575 O   0  0  0  0  0  0  0  0  0  0  0  0
    7.8896  -19.3486   27.5760 C   0  0  0  0  0  0  0  0  0  0  0  0
    7.4886  -18.0443   27.7643 C   0  0  0  0  0  0  0  0  0  0  0  0
    7.5414  -17.2107   26.6685 C   0  0  0  0  0  0  0  0  0  0  0  0
    7.9725  -17.6409   25.4298 C   0  0  0  0  0  0  0  0  0  0  0  0
    8.0096  -16.7238   24.2678 C   0  0  0  0  0  0  0  0  0  0  0  0
    9.2379  -15.8992   24.1557 C   0  0  2  0  0  0  0  0  0  0  0  0
    9.1691  -15.1246   22.9499 N   0  0  0  0  0  0  0  0  0  0  0  0
   10.5134  -16.6409   24.2945 C   0  0  0  0  0  0  0  0  0  0  0  0
   11.1119  -16.7722   25.3876 O   0  0  0  0  0  0  0  0  0  0  0  0
    8.3730  -18.9454   25.2422 C   0  0  0  0  0  0  0  0  0  0  0  0
    8.3211  -19.7915   26.3487 C   0  0  0  0  0  0  0  0  0  0  0  0
   11.1125  -17.2327   23.1938 O   0  0  0  0  0  0  0  0  0  0  0  0
  2  1  1  0
  3  2  2  0
  4  3  1  0
  5 11  1  0
  5  4  2  0
  6  7  1  0
  6  5  1  0
  7  8  1  6
  9  7  1  0
  9 17  1  0
 10  9  2  0
 11 12  2  0
 12  2  1  0
 14 13  1  1
 14 15  1  0
 14 16  1  0
 16 17  1  6
 16 18  1  0
 18 27  1  0
 19 18  2  0
 20 21  1  0
 21 31  2  0
 21 22  1  0
 22 23  2  0
 23 24  1  0
 24 25  1  0
 26 25  1  6
 26 28  1  0
 27 26  1  0
 28 29  2  0
 28 32  1  0
 30 24  2  0
 31 30  1  0
M  END
$$$$
