YVY.pdb
     RDKit          3D

 32 33  0  0  1  0  0  0  0  0999 V2000
    5.7327  -23.7566   19.1607 O   0  0  0  0  0  0  0  0  0  0  0  0
    6.4359  -22.6068   19.4846 C   0  0  0  0  0  0  0  0  0  0  0  0
    7.6615  -22.3070   18.9469 C   0  0  0  0  0  0  0  0  0  0  0  0
    8.3295  -21.1496   19.2967 C   0  0  0  0  0  0  0  0  0  0  0  0
    7.7972  -20.2449   20.1997 C   0  0  0  0  0  0  0  0  0  0  0  0
    8.5260  -18.9988   20.5708 C   0  0  0  0  0  0  0  0  0  0  0  0
    7.9643  -17.8654   19.7575 C   0  0  2  0  0  0  0  0  0  0  0  0
    8.0579  -18.1832   18.3613 N   0  0  0  0  0  0  0  0  0  0  0  0
    8.6825  -16.6058   20.0845 C   0  0  0  0  0  0  0  0  0  0  0  0
    9.2283  -15.9520   19.1591 O   0  0  0  0  0  0  0  0  0  0  0  0
    6.5640  -20.5583   20.7334 C   0  0  0  0  0  0  0  0  0  0  0  0
    5.8800  -21.7196   20.3905 C   0  0  0  0  0  0  0  0  0  0  0  0
    7.8816  -14.0011   19.6266 C   0  0  0  0  0  0  0  0  0  0  0  0
    8.1939  -13.7355   21.0799 C   0  0  1  0  0  0  0  0  0  0  0  0
    6.9173  -13.7098   21.8717 C   0  0  0  0  0  0  0  0  0  0  0  0
    9.1902  -14.7374   21.6271 C   0  0  2  0  0  0  0  0  0  0  0  0
    8.7894  -16.0903   21.4024 N   0  0  0  0  0  0  0  0  0  0  0  0
    9.4371  -14.4642   23.0885 C   0  0  0  0  0  0  0  0  0  0  0  0
    8.9353  -13.3955   23.5419 O   0  0  0  0  0  0  0  0  0  0  0  0
    6.3332  -10.7623   27.4565 O   0  0  0  0  0  0  0  0  0  0  0  0
    6.8673  -11.9576   26.9463 C   0  0  0  0  0  0  0  0  0  0  0  0
    8.2262  -12.1741   27.0087 C   0  0  0  0  0  0  0  0  0  0  0  0
    8.6930  -13.3636   26.4932 C   0  0  0  0  0  0  0  0  0  0  0  0
    7.8563  -14.3090   25.9354 C   0  0  0  0  0  0  0  0  0  0  0  0
    8.3883  -15.5747   25.3808 C   0  0  0  0  0  0  0  0  0  0  0  0
    9.8627  -15.6212   25.2210 C   0  0  2  0  0  0  0  0  0  0  0  0
   10.1883  -15.3841   23.8438 N   0  0  0  0  0  0  0  0  0  0  0  0
   10.5216  -16.8292   25.7712 C   0  0  0  0  0  0  0  0  0  0  0  0
   10.9382  -17.7674   25.0526 O   0  0  0  0  0  0  0  0  0  0  0  0
    6.4975  -14.0916   25.8731 C   0  0  0  0  0  0  0  0  0  0  0  0
    6.0217  -12.8894   26.3938 C   0  0  0  0  0  0  0  0  0  0  0  0
   10.7072  -16.9753   27.1368 O   0  0  0  0  0  0  0  0  0  0  0  0
  2  1  1  0
  3  2  2  0
  4  3  1  0
  5 11  1  0
  5  4  2  0
  6  7  1  0
  6  5  1  0
  7  8  1  6
  9  7  1  0
  9 17  1  0
 10  9  2  0
 11 12  2  0
 12  2  1  0
 14 13  1  6
 14 15  1  0
 14 16  1  0
 16 17  1  1
 16 18  1  0
 18 27  1  0
 19 18  2  0
 20 21  1  0
 21 31  2  0
 21 22  1  0
 22 23  2  0
 23 24  1  0
 24 25  1  0
 26 25  1  6
 26 28  1  0
 27 26  1  0
 28 29  2  0
 28 32  1  0
 30 24  2  0
 31 30  1  0
M  END
$$$$
