YVY.pdb
     RDKit          3D

 32 33  0  0  1  0  0  0  0  0999 V2000
   11.6739  -22.6239   14.6949 O   0  0  0  0  0  0  0  0  0  0  0  0
   11.6367  -21.6545   15.6850 C   0  0  0  0  0  0  0  0  0  0  0  0
   12.7556  -20.9922   16.1214 C   0  0  0  0  0  0  0  0  0  0  0  0
   12.6749  -20.0321   17.1113 C   0  0  0  0  0  0  0  0  0  0  0  0
   11.4699  -19.6959   17.7046 C   0  0  0  0  0  0  0  0  0  0  0  0
   11.3932  -18.6584   18.7721 C   0  0  0  0  0  0  0  0  0  0  0  0
   10.7374  -17.4352   18.1931 C   0  0  2  0  0  0  0  0  0  0  0  0
   11.5655  -16.8917   17.1548 N   0  0  0  0  0  0  0  0  0  0  0  0
   10.4821  -16.4426   19.2696 C   0  0  0  0  0  0  0  0  0  0  0  0
   11.4548  -15.8452   19.7975 O   0  0  0  0  0  0  0  0  0  0  0  0
   10.3520  -20.3694   17.2567 C   0  0  0  0  0  0  0  0  0  0  0  0
   10.4182  -21.3381   16.2612 C   0  0  0  0  0  0  0  0  0  0  0  0
    7.3803  -13.5168   21.7903 C   0  0  0  0  0  0  0  0  0  0  0  0
    7.6328  -14.4454   20.6266 C   0  0  1  0  0  0  0  0  0  0  0  0
    7.4569  -13.6946   19.3372 C   0  0  0  0  0  0  0  0  0  0  0  0
    8.9926  -15.1061   20.7268 C   0  0  2  0  0  0  0  0  0  0  0  0
    9.1826  -16.1251   19.7434 N   0  0  0  0  0  0  0  0  0  0  0  0
    9.2016  -15.6326   22.1233 C   0  0  0  0  0  0  0  0  0  0  0  0
    8.6927  -16.7644   22.3675 O   0  0  0  0  0  0  0  0  0  0  0  0
   10.2574  -15.1486   30.8057 O   0  0  0  0  0  0  0  0  0  0  0  0
   10.1990  -14.8602   29.4317 C   0  0  0  0  0  0  0  0  0  0  0  0
    9.4395  -13.7979   28.9936 C   0  0  0  0  0  0  0  0  0  0  0  0
    9.4199  -13.5626   27.6361 C   0  0  0  0  0  0  0  0  0  0  0  0
   10.1210  -14.3421   26.7382 C   0  0  0  0  0  0  0  0  0  0  0  0
   10.0733  -14.0704   25.2834 C   0  0  0  0  0  0  0  0  0  0  0  0
   10.0183  -15.2754   24.4195 C   0  0  2  0  0  0  0  0  0  0  0  0
    9.9285  -14.8606   23.0489 N   0  0  0  0  0  0  0  0  0  0  0  0
    8.9878  -16.2738   24.7902 C   0  0  0  0  0  0  0  0  0  0  0  0
    9.2676  -17.4173   25.2197 O   0  0  0  0  0  0  0  0  0  0  0  0
   10.8801  -15.4044   27.1773 C   0  0  0  0  0  0  0  0  0  0  0  0
   10.9024  -15.6453   28.5499 C   0  0  0  0  0  0  0  0  0  0  0  0
    7.6391  -15.9774   24.6726 O   0  0  0  0  0  0  0  0  0  0  0  0
  2  1  1  0
  3  2  2  0
  4  3  1  0
  5 11  1  0
  5  4  2  0
  6  7  1  0
  6  5  1  0
  7  8  1  6
  9  7  1  0
  9 17  1  0
 10  9  2  0
 11 12  2  0
 12  2  1  0
 14 13  1  1
 14 15  1  0
 14 16  1  0
 16 17  1  6
 16 18  1  0
 18 27  1  0
 19 18  2  0
 20 21  1  0
 21 31  2  0
 21 22  1  0
 22 23  2  0
 23 24  1  0
 24 25  1  0
 26 25  1  1
 26 28  1  0
 27 26  1  0
 28 29  2  0
 28 32  1  0
 30 24  2  0
 31 30  1  0
M  END
$$$$
