YVY.pdb
     RDKit          3D

 32 33  0  0  1  0  0  0  0  0999 V2000
    7.7158  -12.5151   16.2473 O   0  0  0  0  0  0  0  0  0  0  0  0
    7.8598  -13.2258   17.4288 C   0  0  0  0  0  0  0  0  0  0  0  0
    6.9826  -14.2045   17.8208 C   0  0  0  0  0  0  0  0  0  0  0  0
    7.1624  -14.8895   19.0068 C   0  0  0  0  0  0  0  0  0  0  0  0
    8.2286  -14.6221   19.8489 C   0  0  0  0  0  0  0  0  0  0  0  0
    8.4140  -15.3669   21.1267 C   0  0  0  0  0  0  0  0  0  0  0  0
    9.3912  -16.4836   20.8829 C   0  0  2  0  0  0  0  0  0  0  0  0
    8.8471  -17.3966   19.9189 N   0  0  0  0  0  0  0  0  0  0  0  0
    9.7104  -17.1633   22.1656 C   0  0  0  0  0  0  0  0  0  0  0  0
    9.2665  -18.3214   22.3741 O   0  0  0  0  0  0  0  0  0  0  0  0
    9.1036  -13.6355   19.4430 C   0  0  0  0  0  0  0  0  0  0  0  0
    8.9351  -12.9378   18.2519 C   0  0  0  0  0  0  0  0  0  0  0  0
   12.7517  -19.1679   24.7543 C   0  0  0  0  0  0  0  0  0  0  0  0
   12.1047  -18.3624   23.6531 C   0  0  1  0  0  0  0  0  0  0  0  0
   11.4958  -19.2920   22.6419 C   0  0  0  0  0  0  0  0  0  0  0  0
   11.0982  -17.3733   24.2047 C   0  0  2  0  0  0  0  0  0  0  0  0
   10.5002  -16.5708   23.1850 N   0  0  0  0  0  0  0  0  0  0  0  0
   11.7462  -16.5284   25.2712 C   0  0  0  0  0  0  0  0  0  0  0  0
   12.6851  -15.7752   24.8829 O   0  0  0  0  0  0  0  0  0  0  0  0
    5.3596  -11.7382   27.7833 O   0  0  0  0  0  0  0  0  0  0  0  0
    6.3199  -12.6747   27.3647 C   0  0  0  0  0  0  0  0  0  0  0  0
    5.9185  -13.7896   26.6624 C   0  0  0  0  0  0  0  0  0  0  0  0
    6.9035  -14.6730   26.2778 C   0  0  0  0  0  0  0  0  0  0  0  0
    8.2370  -14.4706   26.5717 C   0  0  0  0  0  0  0  0  0  0  0  0
    9.2724  -15.4427   26.1529 C   0  0  0  0  0  0  0  0  0  0  0  0
   10.3834  -15.6336   27.1176 C   0  0  2  0  0  0  0  0  0  0  0  0
   11.2855  -16.6210   26.5979 N   0  0  0  0  0  0  0  0  0  0  0  0
    9.9695  -15.9066   28.5142 C   0  0  0  0  0  0  0  0  0  0  0  0
   10.0400  -15.0512   29.4273 O   0  0  0  0  0  0  0  0  0  0  0  0
    8.6374  -13.3555   27.2743 C   0  0  0  0  0  0  0  0  0  0  0  0
    7.6436  -12.4596   27.6648 C   0  0  0  0  0  0  0  0  0  0  0  0
    9.4771  -17.1501   28.8773 O   0  0  0  0  0  0  0  0  0  0  0  0
  2  1  1  0
  3  2  2  0
  4  3  1  0
  5 11  1  0
  5  4  2  0
  6  7  1  0
  6  5  1  0
  7  8  1  6
  9  7  1  0
  9 17  1  0
 10  9  2  0
 11 12  2  0
 12  2  1  0
 14 13  1  1
 14 15  1  0
 14 16  1  0
 16 17  1  6
 16 18  1  0
 18 27  1  0
 19 18  2  0
 20 21  1  0
 21 31  2  0
 21 22  1  0
 22 23  2  0
 23 24  1  0
 24 25  1  0
 26 25  1  6
 26 28  1  0
 27 26  1  0
 28 29  2  0
 28 32  1  0
 30 24  2  0
 31 30  1  0
M  END
$$$$
