YVY.pdb
     RDKit          3D

 32 33  0  0  1  0  0  0  0  0999 V2000
    8.7057  -13.4835   14.6583 O   0  0  0  0  0  0  0  0  0  0  0  0
    8.4247  -13.7332   15.9925 C   0  0  0  0  0  0  0  0  0  0  0  0
    7.8318  -12.8091   16.8144 C   0  0  0  0  0  0  0  0  0  0  0  0
    7.5689  -13.0983   18.1393 C   0  0  0  0  0  0  0  0  0  0  0  0
    7.8891  -14.3253   18.6954 C   0  0  0  0  0  0  0  0  0  0  0  0
    7.6013  -14.6278   20.1262 C   0  0  0  0  0  0  0  0  0  0  0  0
    6.5442  -15.6961   20.1779 C   0  0  2  0  0  0  0  0  0  0  0  0
    5.2841  -15.1456   19.7680 N   0  0  0  0  0  0  0  0  0  0  0  0
    6.4745  -16.2707   21.5470 C   0  0  0  0  0  0  0  0  0  0  0  0
    5.8222  -15.6643   22.4350 O   0  0  0  0  0  0  0  0  0  0  0  0
    8.4850  -15.2459   17.8580 C   0  0  0  0  0  0  0  0  0  0  0  0
    8.7557  -14.9687   16.5224 C   0  0  0  0  0  0  0  0  0  0  0  0
    6.6829  -20.1337   24.5737 C   0  0  0  0  0  0  0  0  0  0  0  0
    6.8123  -19.5589   23.1834 C   0  0  1  0  0  0  0  0  0  0  0  0
    5.6687  -20.0363   22.3339 C   0  0  0  0  0  0  0  0  0  0  0  0
    6.9148  -18.0475   23.2134 C   0  0  2  0  0  0  0  0  0  0  0  0
    7.1120  -17.4838   21.9154 N   0  0  0  0  0  0  0  0  0  0  0  0
    7.9986  -17.6294   24.1736 C   0  0  0  0  0  0  0  0  0  0  0  0
    9.1783  -17.9450   23.8445 O   0  0  0  0  0  0  0  0  0  0  0  0
   11.5387  -14.1248   31.4597 O   0  0  0  0  0  0  0  0  0  0  0  0
   10.6681  -14.5161   30.4286 C   0  0  0  0  0  0  0  0  0  0  0  0
    9.9571  -15.6896   30.5504 C   0  0  0  0  0  0  0  0  0  0  0  0
    9.1190  -16.0224   29.5086 C   0  0  0  0  0  0  0  0  0  0  0  0
    8.9823  -15.2319   28.3853 C   0  0  0  0  0  0  0  0  0  0  0  0
    8.0802  -15.6205   27.2772 C   0  0  0  0  0  0  0  0  0  0  0  0
    8.6608  -16.5710   26.2969 C   0  0  2  0  0  0  0  0  0  0  0  0
    7.6493  -16.9329   25.3457 N   0  0  0  0  0  0  0  0  0  0  0  0
    9.3489  -17.7449   26.8841 C   0  0  0  0  0  0  0  0  0  0  0  0
    8.7362  -18.7378   27.3414 O   0  0  0  0  0  0  0  0  0  0  0  0
    9.6939  -14.0587   28.2643 C   0  0  0  0  0  0  0  0  0  0  0  0
   10.5426  -13.7188   29.3164 C   0  0  0  0  0  0  0  0  0  0  0  0
   10.7321  -17.7933   26.9550 O   0  0  0  0  0  0  0  0  0  0  0  0
  2  1  1  0
  3  2  2  0
  4  3  1  0
  5 11  1  0
  5  4  2  0
  6  7  1  0
  6  5  1  0
  7  8  1  1
  9  7  1  0
  9 17  1  0
 10  9  2  0
 11 12  2  0
 12  2  1  0
 14 13  1  1
 14 15  1  0
 14 16  1  0
 16 17  1  6
 16 18  1  0
 18 27  1  0
 19 18  2  0
 20 21  1  0
 21 31  2  0
 21 22  1  0
 22 23  2  0
 23 24  1  0
 24 25  1  0
 26 25  1  1
 26 28  1  0
 27 26  1  0
 28 29  2  0
 28 32  1  0
 30 24  2  0
 31 30  1  0
M  END
$$$$
