YVY.pdb
     RDKit          3D

 32 33  0  0  1  0  0  0  0  0999 V2000
   16.9295  -14.6977   18.7501 O   0  0  0  0  0  0  0  0  0  0  0  0
   15.6243  -14.4048   19.1138 C   0  0  0  0  0  0  0  0  0  0  0  0
   15.0031  -13.2294   18.7767 C   0  0  0  0  0  0  0  0  0  0  0  0
   13.7001  -12.9766   19.1593 C   0  0  0  0  0  0  0  0  0  0  0  0
   12.9657  -13.8909   19.8954 C   0  0  0  0  0  0  0  0  0  0  0  0
   11.5602  -13.6088   20.3035 C   0  0  0  0  0  0  0  0  0  0  0  0
   10.6681  -14.6327   19.6576 C   0  0  2  0  0  0  0  0  0  0  0  0
   10.1822  -14.1259   18.4061 N   0  0  0  0  0  0  0  0  0  0  0  0
    9.5554  -14.9846   20.5781 C   0  0  0  0  0  0  0  0  0  0  0  0
    8.5987  -14.1808   20.7206 O   0  0  0  0  0  0  0  0  0  0  0  0
   13.6021  -15.0692   20.2280 C   0  0  0  0  0  0  0  0  0  0  0  0
   14.9132  -15.3373   19.8498 C   0  0  0  0  0  0  0  0  0  0  0  0
    6.5368  -18.0534   22.7257 C   0  0  0  0  0  0  0  0  0  0  0  0
    7.6663  -17.7434   21.7727 C   0  0  1  0  0  0  0  0  0  0  0  0
    7.1334  -17.6660   20.3700 C   0  0  0  0  0  0  0  0  0  0  0  0
    8.4063  -16.4847   22.1773 C   0  0  2  0  0  0  0  0  0  0  0  0
    9.5100  -16.1951   21.3173 N   0  0  0  0  0  0  0  0  0  0  0  0
    8.8341  -16.5863   23.6188 C   0  0  0  0  0  0  0  0  0  0  0  0
   10.0512  -16.8693   23.8139 O   0  0  0  0  0  0  0  0  0  0  0  0
    6.8357  -10.2329   26.0784 O   0  0  0  0  0  0  0  0  0  0  0  0
    6.9211  -11.6240   26.2574 C   0  0  0  0  0  0  0  0  0  0  0  0
    5.9458  -12.4373   25.7238 C   0  0  0  0  0  0  0  0  0  0  0  0
    6.0816  -13.7928   25.9308 C   0  0  0  0  0  0  0  0  0  0  0  0
    7.1376  -14.3329   26.6369 C   0  0  0  0  0  0  0  0  0  0  0  0
    7.2519  -15.7936   26.8510 C   0  0  0  0  0  0  0  0  0  0  0  0
    8.2702  -16.4746   26.0140 C   0  0  2  0  0  0  0  0  0  0  0  0
    7.8859  -16.3674   24.6357 N   0  0  0  0  0  0  0  0  0  0  0  0
    8.5959  -17.8630   26.4171 C   0  0  0  0  0  0  0  0  0  0  0  0
    8.1212  -18.8704   25.8426 O   0  0  0  0  0  0  0  0  0  0  0  0
    8.1123  -13.5187   27.1703 C   0  0  0  0  0  0  0  0  0  0  0  0
    7.9782  -12.1470   26.9628 C   0  0  0  0  0  0  0  0  0  0  0  0
    9.4586  -18.1105   27.4731 O   0  0  0  0  0  0  0  0  0  0  0  0
  2  1  1  0
  3  2  2  0
  4  3  1  0
  5 11  1  0
  5  4  2  0
  6  7  1  0
  6  5  1  0
  7  8  1  6
  9  7  1  0
  9 17  1  0
 10  9  2  0
 11 12  2  0
 12  2  1  0
 14 13  1  1
 14 15  1  0
 14 16  1  0
 16 17  1  6
 16 18  1  0
 18 27  1  0
 19 18  2  0
 20 21  1  0
 21 31  2  0
 21 22  1  0
 22 23  2  0
 23 24  1  0
 24 25  1  0
 26 25  1  1
 26 28  1  0
 27 26  1  0
 28 29  2  0
 28 32  1  0
 30 24  2  0
 31 30  1  0
M  END
$$$$
