YVY.pdb
     RDKit          3D

 32 33  0  0  1  0  0  0  0  0999 V2000
   10.5539  -23.2733   15.7670 O   0  0  0  0  0  0  0  0  0  0  0  0
   10.6657  -22.1871   16.6210 C   0  0  0  0  0  0  0  0  0  0  0  0
   11.8702  -21.6216   16.9532 C   0  0  0  0  0  0  0  0  0  0  0  0
   11.9377  -20.5391   17.8086 C   0  0  0  0  0  0  0  0  0  0  0  0
   10.8011  -19.9785   18.3664 C   0  0  0  0  0  0  0  0  0  0  0  0
   10.8844  -18.8103   19.2885 C   0  0  0  0  0  0  0  0  0  0  0  0
   10.4551  -17.5830   18.5330 C   0  0  2  0  0  0  0  0  0  0  0  0
   11.4626  -17.2325   17.5732 N   0  0  0  0  0  0  0  0  0  0  0  0
   10.1911  -16.4719   19.4843 C   0  0  0  0  0  0  0  0  0  0  0  0
   11.1595  -15.8153   19.9457 O   0  0  0  0  0  0  0  0  0  0  0  0
    9.5959  -20.5566   18.0242 C   0  0  0  0  0  0  0  0  0  0  0  0
    9.5128  -21.6465   17.1645 C   0  0  0  0  0  0  0  0  0  0  0  0
    7.1780  -13.3176   21.8017 C   0  0  0  0  0  0  0  0  0  0  0  0
    7.3988  -14.3257   20.6994 C   0  0  1  0  0  0  0  0  0  0  0  0
    7.3235  -13.6371   19.3662 C   0  0  0  0  0  0  0  0  0  0  0  0
    8.7008  -15.0779   20.8857 C   0  0  2  0  0  0  0  0  0  0  0  0
    8.8880  -16.1035   19.9086 N   0  0  0  0  0  0  0  0  0  0  0  0
    8.7779  -15.6232   22.2885 C   0  0  0  0  0  0  0  0  0  0  0  0
    8.2125  -16.7386   22.4781 O   0  0  0  0  0  0  0  0  0  0  0  0
   10.3570  -15.4678   30.9847 O   0  0  0  0  0  0  0  0  0  0  0  0
   10.2215  -15.1729   29.6176 C   0  0  0  0  0  0  0  0  0  0  0  0
   10.7357  -16.0432   28.6820 C   0  0  0  0  0  0  0  0  0  0  0  0
   10.5731  -15.7024   27.3568 C   0  0  0  0  0  0  0  0  0  0  0  0
    9.9284  -14.5476   26.9620 C   0  0  0  0  0  0  0  0  0  0  0  0
    9.7770  -14.2032   25.5298 C   0  0  0  0  0  0  0  0  0  0  0  0
    9.4687  -15.3471   24.6366 C   0  0  2  0  0  0  0  0  0  0  0  0
    9.4533  -14.8850   23.2783 N   0  0  0  0  0  0  0  0  0  0  0  0
    8.2591  -16.1238   24.9969 C   0  0  0  0  0  0  0  0  0  0  0  0
    7.0946  -15.7121   24.7853 O   0  0  0  0  0  0  0  0  0  0  0  0
    9.4148  -13.6776   27.8983 C   0  0  0  0  0  0  0  0  0  0  0  0
    9.5773  -14.0192   29.2398 C   0  0  0  0  0  0  0  0  0  0  0  0
    8.3685  -17.3673   25.5990 O   0  0  0  0  0  0  0  0  0  0  0  0
  2  1  1  0
  3  2  2  0
  4  3  1  0
  5 11  1  0
  5  4  2  0
  6  7  1  0
  6  5  1  0
  7  8  1  6
  9  7  1  0
  9 17  1  0
 10  9  2  0
 11 12  2  0
 12  2  1  0
 14 13  1  1
 14 15  1  0
 14 16  1  0
 16 17  1  6
 16 18  1  0
 18 27  1  0
 19 18  2  0
 20 21  1  0
 21 31  2  0
 21 22  1  0
 22 23  2  0
 23 24  1  0
 24 25  1  0
 26 25  1  1
 26 28  1  0
 27 26  1  0
 28 29  2  0
 28 32  1  0
 30 24  2  0
 31 30  1  0
M  END
$$$$
