YVY.pdb
     RDKit          3D

 32 33  0  0  1  0  0  0  0  0999 V2000
   12.1160  -23.4387   17.1583 O   0  0  0  0  0  0  0  0  0  0  0  0
   11.8900  -22.3472   17.9824 C   0  0  0  0  0  0  0  0  0  0  0  0
   10.6398  -21.8299   18.2073 C   0  0  0  0  0  0  0  0  0  0  0  0
   10.4579  -20.7402   19.0364 C   0  0  0  0  0  0  0  0  0  0  0  0
   11.5210  -20.1237   19.6744 C   0  0  0  0  0  0  0  0  0  0  0  0
   11.3144  -18.9482   20.5672 C   0  0  0  0  0  0  0  0  0  0  0  0
   11.0317  -17.7478   19.7067 C   0  0  2  0  0  0  0  0  0  0  0  0
   12.2173  -17.3837   18.9850 N   0  0  0  0  0  0  0  0  0  0  0  0
   10.5352  -16.6287   20.5497 C   0  0  0  0  0  0  0  0  0  0  0  0
   11.3360  -16.0356   21.3169 O   0  0  0  0  0  0  0  0  0  0  0  0
   12.7732  -20.6538   19.4398 C   0  0  0  0  0  0  0  0  0  0  0  0
   12.9713  -21.7502   18.6078 C   0  0  0  0  0  0  0  0  0  0  0  0
    7.0738  -13.3093   21.7812 C   0  0  0  0  0  0  0  0  0  0  0  0
    7.4784  -14.4659   20.8988 C   0  0  1  0  0  0  0  0  0  0  0  0
    7.5627  -14.0036   19.4717 C   0  0  0  0  0  0  0  0  0  0  0  0
    8.7678  -15.1040   21.3740 C   0  0  2  0  0  0  0  0  0  0  0  0
    9.1876  -16.1840   20.5381 N   0  0  0  0  0  0  0  0  0  0  0  0
    8.6238  -15.5344   22.8112 C   0  0  0  0  0  0  0  0  0  0  0  0
    8.3148  -16.7469   22.9951 O   0  0  0  0  0  0  0  0  0  0  0  0
   11.2412  -15.4835   31.0735 O   0  0  0  0  0  0  0  0  0  0  0  0
   10.7144  -15.0849   29.8334 C   0  0  0  0  0  0  0  0  0  0  0  0
    9.3487  -15.0408   29.6595 C   0  0  0  0  0  0  0  0  0  0  0  0
    8.8896  -14.6426   28.4229 C   0  0  0  0  0  0  0  0  0  0  0  0
    9.7402  -14.2992   27.3915 C   0  0  0  0  0  0  0  0  0  0  0  0
    9.2171  -13.8837   26.0700 C   0  0  0  0  0  0  0  0  0  0  0  0
    8.7268  -14.9898   25.2112 C   0  0  2  0  0  0  0  0  0  0  0  0
    8.8347  -14.5934   23.8364 N   0  0  0  0  0  0  0  0  0  0  0  0
    7.3846  -15.5137   25.5582 C   0  0  0  0  0  0  0  0  0  0  0  0
    7.2091  -16.4873   26.3272 O   0  0  0  0  0  0  0  0  0  0  0  0
   11.1058  -14.3438   27.5662 C   0  0  0  0  0  0  0  0  0  0  0  0
   11.5738  -14.7461   28.8160 C   0  0  0  0  0  0  0  0  0  0  0  0
    6.2403  -14.9353   25.0321 O   0  0  0  0  0  0  0  0  0  0  0  0
  2  1  1  0
  3  2  2  0
  4  3  1  0
  5 11  1  0
  5  4  2  0
  6  7  1  0
  6  5  1  0
  7  8  1  1
  9  7  1  0
  9 17  1  0
 10  9  2  0
 11 12  2  0
 12  2  1  0
 14 13  1  1
 14 15  1  0
 14 16  1  0
 16 17  1  6
 16 18  1  0
 18 27  1  0
 19 18  2  0
 20 21  1  0
 21 31  2  0
 21 22  1  0
 22 23  2  0
 23 24  1  0
 24 25  1  0
 26 25  1  1
 26 28  1  0
 27 26  1  0
 28 29  2  0
 28 32  1  0
 30 24  2  0
 31 30  1  0
M  END
$$$$
