YVY.pdb
     RDKit          3D

 32 33  0  0  1  0  0  0  0  0999 V2000
    5.0531  -23.7234   27.7285 O   0  0  0  0  0  0  0  0  0  0  0  0
    5.4701  -22.5898   27.0484 C   0  0  0  0  0  0  0  0  0  0  0  0
    4.7589  -22.0382   26.0135 C   0  0  0  0  0  0  0  0  0  0  0  0
    5.2100  -20.9069   25.3618 C   0  0  0  0  0  0  0  0  0  0  0  0
    6.3923  -20.2815   25.7200 C   0  0  0  0  0  0  0  0  0  0  0  0
    6.8706  -19.0611   25.0105 C   0  0  0  0  0  0  0  0  0  0  0  0
    6.6098  -19.2390   23.5402 C   0  0  2  0  0  0  0  0  0  0  0  0
    7.0829  -20.5271   23.1205 N   0  0  0  0  0  0  0  0  0  0  0  0
    7.2564  -18.1398   22.7767 C   0  0  0  0  0  0  0  0  0  0  0  0
    8.3410  -18.3617   22.1800 O   0  0  0  0  0  0  0  0  0  0  0  0
    7.0982  -20.8463   26.7624 C   0  0  0  0  0  0  0  0  0  0  0  0
    6.6563  -21.9848   27.4276 C   0  0  0  0  0  0  0  0  0  0  0  0
    7.6514  -13.4647   21.2520 C   0  0  0  0  0  0  0  0  0  0  0  0
    6.7476  -14.5902   21.6954 C   0  0  1  0  0  0  0  0  0  0  0  0
    5.9123  -15.0508   20.5345 C   0  0  0  0  0  0  0  0  0  0  0  0
    7.5353  -15.7224   22.3225 C   0  0  2  0  0  0  0  0  0  0  0  0
    6.7111  -16.8331   22.6809 N   0  0  0  0  0  0  0  0  0  0  0  0
    8.3189  -15.2058   23.5016 C   0  0  0  0  0  0  0  0  0  0  0  0
    7.9681  -14.0738   23.9433 O   0  0  0  0  0  0  0  0  0  0  0  0
    5.7292  -11.0844   26.5200 O   0  0  0  0  0  0  0  0  0  0  0  0
    6.6094  -12.1785   26.4679 C   0  0  0  0  0  0  0  0  0  0  0  0
    6.1048  -13.4462   26.2791 C   0  0  0  0  0  0  0  0  0  0  0  0
    7.0147  -14.4800   26.2363 C   0  0  0  0  0  0  0  0  0  0  0  0
    8.3732  -14.2783   26.3738 C   0  0  0  0  0  0  0  0  0  0  0  0
    9.3265  -15.4107   26.3327 C   0  0  0  0  0  0  0  0  0  0  0  0
   10.1636  -15.4845   25.1099 C   0  0  2  0  0  0  0  0  0  0  0  0
    9.3643  -15.9867   24.0293 N   0  0  0  0  0  0  0  0  0  0  0  0
   11.4476  -16.2083   25.2643 C   0  0  0  0  0  0  0  0  0  0  0  0
   11.7462  -17.2213   24.5897 O   0  0  0  0  0  0  0  0  0  0  0  0
    8.8769  -13.0102   26.5628 C   0  0  0  0  0  0  0  0  0  0  0  0
    7.9594  -11.9619   26.6065 C   0  0  0  0  0  0  0  0  0  0  0  0
   12.3934  -15.7853   26.1847 O   0  0  0  0  0  0  0  0  0  0  0  0
  2  1  1  0
  3  2  2  0
  4  3  1  0
  5 11  1  0
  5  4  2  0
  6  7  1  0
  6  5  1  0
  7  8  1  6
  9  7  1  0
  9 17  1  0
 10  9  2  0
 11 12  2  0
 12  2  1  0
 14 13  1  6
 14 15  1  0
 14 16  1  0
 16 17  1  1
 16 18  1  0
 18 27  1  0
 19 18  2  0
 20 21  1  0
 21 31  2  0
 21 22  1  0
 22 23  2  0
 23 24  1  0
 24 25  1  0
 26 25  1  1
 26 28  1  0
 27 26  1  0
 28 29  2  0
 28 32  1  0
 30 24  2  0
 31 30  1  0
M  END
$$$$
