YVY.pdb
     RDKit          3D

 32 33  0  0  1  0  0  0  0  0999 V2000
    7.2545  -23.8099   18.1827 O   0  0  0  0  0  0  0  0  0  0  0  0
    7.7013  -22.5603   18.5830 C   0  0  0  0  0  0  0  0  0  0  0  0
    8.8232  -21.9681   18.0617 C   0  0  0  0  0  0  0  0  0  0  0  0
    9.2344  -20.7205   18.4886 C   0  0  0  0  0  0  0  0  0  0  0  0
    8.5386  -20.0146   19.4555 C   0  0  0  0  0  0  0  0  0  0  0  0
    8.9905  -18.6687   19.9096 C   0  0  0  0  0  0  0  0  0  0  0  0
    8.6810  -17.6769   18.8224 C   0  0  2  0  0  0  0  0  0  0  0  0
    9.2877  -18.1048   17.5945 N   0  0  0  0  0  0  0  0  0  0  0  0
    9.1486  -16.3248   19.2253 C   0  0  0  0  0  0  0  0  0  0  0  0
    9.4282  -15.4812   18.3354 O   0  0  0  0  0  0  0  0  0  0  0  0
    7.4120  -20.6214   19.9718 C   0  0  0  0  0  0  0  0  0  0  0  0
    6.9862  -21.8767   19.5516 C   0  0  0  0  0  0  0  0  0  0  0  0
    7.2861  -12.8029   21.1831 C   0  0  0  0  0  0  0  0  0  0  0  0
    7.6943  -14.0765   20.4821 C   0  0  1  0  0  0  0  0  0  0  0  0
    7.6780  -13.8593   18.9956 C   0  0  0  0  0  0  0  0  0  0  0  0
    9.0363  -14.5778   20.9756 C   0  0  2  0  0  0  0  0  0  0  0  0
    9.3001  -15.9247   20.5784 N   0  0  0  0  0  0  0  0  0  0  0  0
    9.1245  -14.4097   22.4707 C   0  0  0  0  0  0  0  0  0  0  0  0
    8.9861  -13.2287   22.9017 O   0  0  0  0  0  0  0  0  0  0  0  0
   10.6967  -14.9089   30.9077 O   0  0  0  0  0  0  0  0  0  0  0  0
   10.2457  -15.0726   29.5870 C   0  0  0  0  0  0  0  0  0  0  0  0
   10.1884  -16.3362   29.0418 C   0  0  0  0  0  0  0  0  0  0  0  0
    9.7384  -16.4358   27.7433 C   0  0  0  0  0  0  0  0  0  0  0  0
    9.3573  -15.3342   27.0041 C   0  0  0  0  0  0  0  0  0  0  0  0
    8.8862  -15.4717   25.6070 C   0  0  0  0  0  0  0  0  0  0  0  0
    9.9483  -15.3919   24.5740 C   0  0  2  0  0  0  0  0  0  0  0  0
    9.3487  -15.5400   23.2789 N   0  0  0  0  0  0  0  0  0  0  0  0
   11.1041  -16.2956   24.7829 C   0  0  0  0  0  0  0  0  0  0  0  0
   11.1402  -17.4703   24.3480 O   0  0  0  0  0  0  0  0  0  0  0  0
    9.4152  -14.0709   27.5500 C   0  0  0  0  0  0  0  0  0  0  0  0
    9.8699  -13.9663   28.8634 C   0  0  0  0  0  0  0  0  0  0  0  0
   12.2192  -15.8690   25.4865 O   0  0  0  0  0  0  0  0  0  0  0  0
  2  1  1  0
  3  2  2  0
  4  3  1  0
  5 11  1  0
  5  4  2  0
  6  7  1  0
  6  5  1  0
  7  8  1  6
  9  7  1  0
  9 17  1  0
 10  9  2  0
 11 12  2  0
 12  2  1  0
 14 13  1  1
 14 15  1  0
 14 16  1  0
 16 17  1  1
 16 18  1  0
 18 27  1  0
 19 18  2  0
 20 21  1  0
 21 31  2  0
 21 22  1  0
 22 23  2  0
 23 24  1  0
 24 25  1  0
 26 25  1  1
 26 28  1  0
 27 26  1  0
 28 29  2  0
 28 32  1  0
 30 24  2  0
 31 30  1  0
M  END
$$$$
