YVY.pdb
     RDKit          3D

 32 33  0  0  1  0  0  0  0  0999 V2000
    7.2506  -12.0070   17.2357 O   0  0  0  0  0  0  0  0  0  0  0  0
    7.4130  -12.7699   18.3816 C   0  0  0  0  0  0  0  0  0  0  0  0
    6.4260  -13.5790   18.8838 C   0  0  0  0  0  0  0  0  0  0  0  0
    6.6288  -14.3236   20.0294 C   0  0  0  0  0  0  0  0  0  0  0  0
    7.8290  -14.2884   20.7191 C   0  0  0  0  0  0  0  0  0  0  0  0
    8.0381  -15.0957   21.9545 C   0  0  0  0  0  0  0  0  0  0  0  0
    8.8818  -16.2889   21.5997 C   0  0  2  0  0  0  0  0  0  0  0  0
    8.1523  -17.1458   20.7094 N   0  0  0  0  0  0  0  0  0  0  0  0
    9.2919  -17.0025   22.8374 C   0  0  0  0  0  0  0  0  0  0  0  0
    8.4526  -17.7200   23.4394 O   0  0  0  0  0  0  0  0  0  0  0  0
    8.8135  -13.4707   20.2035 C   0  0  0  0  0  0  0  0  0  0  0  0
    8.6235  -12.7156   19.0514 C   0  0  0  0  0  0  0  0  0  0  0  0
   12.5739  -18.8192   25.9869 C   0  0  0  0  0  0  0  0  0  0  0  0
   12.3045  -18.1077   24.6826 C   0  0  1  0  0  0  0  0  0  0  0  0
   12.5741  -19.0407   23.5362 C   0  0  0  0  0  0  0  0  0  0  0  0
   10.9025  -17.5347   24.6405 C   0  0  2  0  0  0  0  0  0  0  0  0
   10.5974  -16.9192   23.3876 N   0  0  0  0  0  0  0  0  0  0  0  0
   10.7065  -16.5825   25.7921 C   0  0  0  0  0  0  0  0  0  0  0  0
   10.4583  -15.3825   25.4790 O   0  0  0  0  0  0  0  0  0  0  0  0
    6.8871  -11.4735   25.6967 O   0  0  0  0  0  0  0  0  0  0  0  0
    7.3756  -12.6473   26.2949 C   0  0  0  0  0  0  0  0  0  0  0  0
    8.4033  -12.5657   27.2084 C   0  0  0  0  0  0  0  0  0  0  0  0
    8.8412  -13.7488   27.7624 C   0  0  0  0  0  0  0  0  0  0  0  0
    8.2905  -14.9707   27.4324 C   0  0  0  0  0  0  0  0  0  0  0  0
    8.7885  -16.2269   28.0379 C   0  0  0  0  0  0  0  0  0  0  0  0
   10.2613  -16.3072   28.1990 C   0  0  2  0  0  0  0  0  0  0  0  0
   10.8070  -17.0658   27.1102 N   0  0  0  0  0  0  0  0  0  0  0  0
   10.7286  -16.7790   29.5239 C   0  0  0  0  0  0  0  0  0  0  0  0
   10.7701  -16.0415   30.5361 O   0  0  0  0  0  0  0  0  0  0  0  0
    7.2630  -15.0514   26.5186 C   0  0  0  0  0  0  0  0  0  0  0  0
    6.8173  -13.8565   25.9561 C   0  0  0  0  0  0  0  0  0  0  0  0
   11.1510  -18.0869   29.7019 O   0  0  0  0  0  0  0  0  0  0  0  0
  2  1  1  0
  3  2  2  0
  4  3  1  0
  5 11  1  0
  5  4  2  0
  6  7  1  0
  6  5  1  0
  7  8  1  6
  9  7  1  0
  9 17  1  0
 10  9  2  0
 11 12  2  0
 12  2  1  0
 14 13  1  1
 14 15  1  0
 14 16  1  0
 16 17  1  6
 16 18  1  0
 18 27  1  0
 19 18  2  0
 20 21  1  0
 21 31  2  0
 21 22  1  0
 22 23  2  0
 23 24  1  0
 24 25  1  0
 26 25  1  1
 26 28  1  0
 27 26  1  0
 28 29  2  0
 28 32  1  0
 30 24  2  0
 31 30  1  0
M  END
$$$$
