YVY.pdb
     RDKit          3D

 32 33  0  0  1  0  0  0  0  0999 V2000
    6.9263  -23.2144   15.1273 O   0  0  0  0  0  0  0  0  0  0  0  0
    7.3801  -22.2756   16.0406 C   0  0  0  0  0  0  0  0  0  0  0  0
    8.6950  -22.1792   16.4186 C   0  0  0  0  0  0  0  0  0  0  0  0
    9.1060  -21.2285   17.3326 C   0  0  0  0  0  0  0  0  0  0  0  0
    8.2166  -20.3352   17.9055 C   0  0  0  0  0  0  0  0  0  0  0  0
    8.6700  -19.3129   18.8910 C   0  0  0  0  0  0  0  0  0  0  0  0
    8.9222  -18.0272   18.1528 C   0  0  2  0  0  0  0  0  0  0  0  0
   10.0512  -18.1866   17.2816 N   0  0  0  0  0  0  0  0  0  0  0  0
    9.1280  -16.9205   19.1235 C   0  0  0  0  0  0  0  0  0  0  0  0
   10.2622  -16.7629   19.6437 O   0  0  0  0  0  0  0  0  0  0  0  0
    6.8970  -20.4428   17.5169 C   0  0  0  0  0  0  0  0  0  0  0  0
    6.4690  -21.3947   16.5980 C   0  0  0  0  0  0  0  0  0  0  0  0
    7.5696  -12.8735   21.5299 C   0  0  0  0  0  0  0  0  0  0  0  0
    7.3433  -13.8771   20.4246 C   0  0  1  0  0  0  0  0  0  0  0  0
    7.3716  -13.1762   19.0959 C   0  0  0  0  0  0  0  0  0  0  0  0
    8.3393  -15.0167   20.4951 C   0  0  2  0  0  0  0  0  0  0  0  0
    8.1017  -16.0169   19.5029 N   0  0  0  0  0  0  0  0  0  0  0  0
    8.3481  -15.6003   21.8846 C   0  0  0  0  0  0  0  0  0  0  0  0
    7.5559  -16.5662   22.0817 O   0  0  0  0  0  0  0  0  0  0  0  0
   14.7384  -18.1520   21.9978 O   0  0  0  0  0  0  0  0  0  0  0  0
   13.4475  -17.8917   22.4877 C   0  0  0  0  0  0  0  0  0  0  0  0
   12.3588  -18.0854   21.6663 C   0  0  0  0  0  0  0  0  0  0  0  0
   11.1180  -17.8141   22.2005 C   0  0  0  0  0  0  0  0  0  0  0  0
   10.9497  -17.3680   23.4958 C   0  0  0  0  0  0  0  0  0  0  0  0
    9.6037  -17.0759   24.0394 C   0  0  0  0  0  0  0  0  0  0  0  0
    9.2754  -15.6345   24.1663 C   0  0  2  0  0  0  0  0  0  0  0  0
    9.2100  -15.0558   22.8549 N   0  0  0  0  0  0  0  0  0  0  0  0
   10.1395  -14.8675   25.0944 C   0  0  0  0  0  0  0  0  0  0  0  0
   10.2847  -15.1715   26.3013 O   0  0  0  0  0  0  0  0  0  0  0  0
   12.0390  -17.1743   24.3164 C   0  0  0  0  0  0  0  0  0  0  0  0
   13.2959  -17.4479   23.7794 C   0  0  0  0  0  0  0  0  0  0  0  0
   10.8383  -13.7542   24.6553 O   0  0  0  0  0  0  0  0  0  0  0  0
  2  1  1  0
  3  2  2  0
  4  3  1  0
  5 11  1  0
  5  4  2  0
  6  7  1  0
  6  5  1  0
  7  8  1  1
  9  7  1  0
  9 17  1  0
 10  9  2  0
 11 12  2  0
 12  2  1  0
 14 13  1  1
 14 15  1  0
 14 16  1  0
 16 17  1  6
 16 18  1  0
 18 27  1  0
 19 18  2  0
 20 21  1  0
 21 31  2  0
 21 22  1  0
 22 23  2  0
 23 24  1  0
 24 25  1  0
 26 25  1  6
 26 28  1  0
 27 26  1  0
 28 29  2  0
 28 32  1  0
 30 24  2  0
 31 30  1  0
M  END
$$$$
