YVY.pdb
     RDKit          3D

 32 33  0  0  1  0  0  0  0  0999 V2000
    9.7508  -23.1785   15.5409 O   0  0  0  0  0  0  0  0  0  0  0  0
    9.8763  -22.1500   16.4618 C   0  0  0  0  0  0  0  0  0  0  0  0
    8.8078  -21.4139   16.9065 C   0  0  0  0  0  0  0  0  0  0  0  0
    8.9763  -20.3966   17.8256 C   0  0  0  0  0  0  0  0  0  0  0  0
   10.2221  -20.0748   18.3371 C   0  0  0  0  0  0  0  0  0  0  0  0
   10.3935  -18.9751   19.3286 C   0  0  0  0  0  0  0  0  0  0  0  0
   10.2519  -17.6638   18.6060 C   0  0  2  0  0  0  0  0  0  0  0  0
   11.3987  -17.4490   17.7707 N   0  0  0  0  0  0  0  0  0  0  0  0
   10.0732  -16.5632   19.5889 C   0  0  0  0  0  0  0  0  0  0  0  0
   11.0865  -16.0586   20.1369 O   0  0  0  0  0  0  0  0  0  0  0  0
   11.2884  -20.8227   17.8816 C   0  0  0  0  0  0  0  0  0  0  0  0
   11.1339  -21.8496   16.9567 C   0  0  0  0  0  0  0  0  0  0  0  0
    7.2256  -13.2528   21.9428 C   0  0  0  0  0  0  0  0  0  0  0  0
    7.4277  -14.1895   20.7758 C   0  0  1  0  0  0  0  0  0  0  0  0
    7.4120  -13.4059   19.4939 C   0  0  0  0  0  0  0  0  0  0  0  0
    8.6917  -15.0099   20.9331 C   0  0  2  0  0  0  0  0  0  0  0  0
    8.8041  -16.0408   19.9502 N   0  0  0  0  0  0  0  0  0  0  0  0
    8.7692  -15.5631   22.3329 C   0  0  0  0  0  0  0  0  0  0  0  0
    8.2153  -16.6856   22.5133 O   0  0  0  0  0  0  0  0  0  0  0  0
   10.4881  -15.5726   31.0043 O   0  0  0  0  0  0  0  0  0  0  0  0
   10.4445  -15.3000   29.6266 C   0  0  0  0  0  0  0  0  0  0  0  0
   10.8747  -16.2553   28.7325 C   0  0  0  0  0  0  0  0  0  0  0  0
   10.8086  -15.9326   27.3945 C   0  0  0  0  0  0  0  0  0  0  0  0
   10.3369  -14.7147   26.9480 C   0  0  0  0  0  0  0  0  0  0  0  0
   10.2864  -14.3929   25.5035 C   0  0  0  0  0  0  0  0  0  0  0  0
    9.3925  -15.2595   24.6965 C   0  0  2  0  0  0  0  0  0  0  0  0
    9.4326  -14.8237   23.3300 N   0  0  0  0  0  0  0  0  0  0  0  0
    8.0124  -15.4047   25.2168 C   0  0  0  0  0  0  0  0  0  0  0  0
    7.0909  -14.6010   24.9428 O   0  0  0  0  0  0  0  0  0  0  0  0
    9.9072  -13.7598   27.8429 C   0  0  0  0  0  0  0  0  0  0  0  0
    9.9724  -14.0829   29.1972 C   0  0  0  0  0  0  0  0  0  0  0  0
    7.6765  -16.4602   26.0496 O   0  0  0  0  0  0  0  0  0  0  0  0
  2  1  1  0
  3  2  2  0
  4  3  1  0
  5 11  1  0
  5  4  2  0
  6  7  1  0
  6  5  1  0
  7  8  1  1
  9  7  1  0
  9 17  1  0
 10  9  2  0
 11 12  2  0
 12  2  1  0
 14 13  1  1
 14 15  1  0
 14 16  1  0
 16 17  1  6
 16 18  1  0
 18 27  1  0
 19 18  2  0
 20 21  1  0
 21 31  2  0
 21 22  1  0
 22 23  2  0
 23 24  1  0
 24 25  1  0
 26 25  1  1
 26 28  1  0
 27 26  1  0
 28 29  2  0
 28 32  1  0
 30 24  2  0
 31 30  1  0
M  END
$$$$
