SMA.pdb
     RDKit          3D

 20 19  0  0  1  0  0  0  0  0999 V2000
   17.3576   -8.7618  -17.7317 O   0  0  0  0  0  0  0  0  0  0  0  0
   17.8286   -9.9878  -18.1954 C   0  0  0  0  0  0  0  0  0  0  0  0
   18.2947  -10.8217  -17.0251 C   0  0  2  0  0  0  0  0  0  0  0  0
   17.2563  -10.8785  -16.0346 N   0  0  0  0  0  0  0  0  0  0  0  0
   19.4910  -10.1979  -16.4004 C   0  0  0  0  0  0  0  0  0  0  0  0
   19.4333   -9.7726  -15.2047 O   0  0  0  0  0  0  0  0  0  0  0  0
   26.4853  -10.3780  -14.5483 C   0  0  0  0  0  0  0  0  0  0  0  0
   25.1619  -10.9060  -15.6744 S   0  0  0  0  0  0  0  0  0  0  0  0
   24.3637   -9.4548  -16.4131 C   0  0  0  0  0  0  0  0  0  0  0  0
   23.1709   -9.9534  -17.2015 C   0  0  0  0  0  0  0  0  0  0  0  0
   21.9117   -9.4814  -16.5135 C   0  0  2  0  0  0  0  0  0  0  0  0
   20.7241  -10.0459  -17.0786 N   0  0  0  0  0  0  0  0  0  0  0  0
   21.8123   -7.9971  -16.5312 C   0  0  0  0  0  0  0  0  0  0  0  0
   21.6443   -7.3850  -17.6299 O   0  0  0  0  0  0  0  0  0  0  0  0
   20.3893   -5.4125  -15.4217 C   0  0  0  0  0  0  0  0  0  0  0  0
   21.8654   -5.8009  -15.4026 C   0  0  2  0  0  0  0  0  0  0  0  0
   21.9021   -7.2470  -15.3354 N   0  0  0  0  0  0  0  0  0  0  0  0
   22.4356   -5.1863  -14.1681 C   0  0  0  0  0  0  0  0  0  0  0  0
   22.6496   -5.9322  -13.1893 O   0  0  0  0  0  0  0  0  0  0  0  0
   22.6982   -3.8269  -14.1678 O   0  0  0  0  0  0  0  0  0  0  0  0
  2  3  1  0
  2  1  1  0
  3  4  1  1
  5  3  1  0
  5  6  2  0
  8  7  1  0
  9  8  1  0
  9 10  1  0
 11 10  1  6
 11 12  1  0
 11 13  1  0
 12  5  1  0
 13 17  1  0
 14 13  2  0
 16 15  1  1
 16 18  1  0
 17 16  1  0
 18 19  2  0
 18 20  1  0
M  END
$$$$
