SMA.pdb
     RDKit          3D

 20 19  0  0  1  0  0  0  0  0999 V2000
   24.9980  -11.2516  -19.6061 O   0  0  0  0  0  0  0  0  0  0  0  0
   24.0159  -10.3228  -19.2701 C   0  0  0  0  0  0  0  0  0  0  0  0
   22.8966  -11.0201  -18.5331 C   0  0  2  0  0  0  0  0  0  0  0  0
   22.1704  -11.8568  -19.4471 N   0  0  0  0  0  0  0  0  0  0  0  0
   21.9500  -10.0167  -17.9787 C   0  0  0  0  0  0  0  0  0  0  0  0
   21.1528   -9.4010  -18.7529 O   0  0  0  0  0  0  0  0  0  0  0  0
   16.7637  -12.1472  -15.4855 C   0  0  0  0  0  0  0  0  0  0  0  0
   17.8715  -10.9844  -14.6378 S   0  0  0  0  0  0  0  0  0  0  0  0
   19.0125  -10.2360  -15.8323 C   0  0  0  0  0  0  0  0  0  0  0  0
   20.0113   -9.4157  -15.0432 C   0  0  0  0  0  0  0  0  0  0  0  0
   20.9697   -8.7664  -16.0135 C   0  0  2  0  0  0  0  0  0  0  0  0
   21.8830   -9.6985  -16.6010 N   0  0  0  0  0  0  0  0  0  0  0  0
   21.7328   -7.6675  -15.3628 C   0  0  0  0  0  0  0  0  0  0  0  0
   22.6994   -7.9384  -14.5868 O   0  0  0  0  0  0  0  0  0  0  0  0
   21.7379   -3.9580  -15.6382 C   0  0  0  0  0  0  0  0  0  0  0  0
   22.2459   -5.2719  -15.0503 C   0  0  2  0  0  0  0  0  0  0  0  0
   21.3988   -6.3127  -15.5944 N   0  0  0  0  0  0  0  0  0  0  0  0
   22.0768   -5.1528  -13.5724 C   0  0  0  0  0  0  0  0  0  0  0  0
   21.0712   -5.6830  -13.0548 O   0  0  0  0  0  0  0  0  0  0  0  0
   23.0374   -4.4644  -12.8510 O   0  0  0  0  0  0  0  0  0  0  0  0
  2  3  1  0
  2  1  1  0
  3  4  1  6
  5  3  1  0
  5  6  2  0
  8  7  1  0
  9  8  1  0
  9 10  1  0
 11 10  1  1
 11 12  1  0
 11 13  1  0
 12  5  1  0
 13 17  1  0
 14 13  2  0
 16 15  1  6
 16 18  1  0
 17 16  1  0
 18 19  2  0
 18 20  1  0
M  END
$$$$
