SMA.pdb
     RDKit          3D

 20 19  0  0  1  0  0  0  0  0999 V2000
   14.8652   -8.9851  -12.7023 O   0  0  0  0  0  0  0  0  0  0  0  0
   16.0687   -8.3048  -12.5329 C   0  0  0  0  0  0  0  0  0  0  0  0
   17.1551   -9.2893  -12.1687 C   0  0  2  0  0  0  0  0  0  0  0  0
   17.0180   -9.6641  -10.7890 N   0  0  0  0  0  0  0  0  0  0  0  0
   18.4909   -8.6603  -12.3427 C   0  0  0  0  0  0  0  0  0  0  0  0
   19.0746   -8.1256  -11.3491 O   0  0  0  0  0  0  0  0  0  0  0  0
   23.7837  -12.2826  -14.0686 C   0  0  0  0  0  0  0  0  0  0  0  0
   23.0413  -10.8966  -14.9773 S   0  0  0  0  0  0  0  0  0  0  0  0
   21.9679   -9.9383  -13.8735 C   0  0  0  0  0  0  0  0  0  0  0  0
   21.3389   -8.8396  -14.7043 C   0  0  0  0  0  0  0  0  0  0  0  0
   20.4456   -8.0144  -13.8084 C   0  0  2  0  0  0  0  0  0  0  0  0
   19.1689   -8.6213  -13.5847 N   0  0  0  0  0  0  0  0  0  0  0  0
   20.2543   -6.6435  -14.3537 C   0  0  0  0  0  0  0  0  0  0  0  0
   19.3520   -6.4242  -15.2185 O   0  0  0  0  0  0  0  0  0  0  0  0
   21.5683   -3.2618  -13.6259 C   0  0  0  0  0  0  0  0  0  0  0  0
   20.9392   -4.2807  -14.5725 C   0  0  2  0  0  0  0  0  0  0  0  0
   21.0665   -5.5686  -13.9229 N   0  0  0  0  0  0  0  0  0  0  0  0
   21.7433   -4.2252  -15.8284 C   0  0  0  0  0  0  0  0  0  0  0  0
   22.5345   -5.1642  -16.0575 O   0  0  0  0  0  0  0  0  0  0  0  0
   21.5742   -3.1417  -16.6736 O   0  0  0  0  0  0  0  0  0  0  0  0
  2  3  1  0
  2  1  1  0
  3  4  1  1
  5  3  1  0
  5  6  2  0
  8  7  1  0
  9  8  1  0
  9 10  1  0
 11 10  1  6
 11 12  1  0
 11 13  1  0
 12  5  1  0
 13 17  1  0
 14 13  2  0
 16 15  1  1
 16 18  1  0
 17 16  1  0
 18 19  2  0
 18 20  1  0
M  END
$$$$
