SMA.pdb
     RDKit          3D

 20 19  0  0  1  0  0  0  0  0999 V2000
   16.4506  -11.8392  -17.2451 O   0  0  0  0  0  0  0  0  0  0  0  0
   17.4928  -11.4257  -16.4188 C   0  0  0  0  0  0  0  0  0  0  0  0
   17.9594  -10.0543  -16.8474 C   0  0  2  0  0  0  0  0  0  0  0  0
   18.3644  -10.0956  -18.2248 N   0  0  0  0  0  0  0  0  0  0  0  0
   19.1343   -9.6400  -16.0360 C   0  0  0  0  0  0  0  0  0  0  0  0
   19.0338   -9.5529  -14.7726 O   0  0  0  0  0  0  0  0  0  0  0  0
   26.7902   -9.9801  -14.8510 C   0  0  0  0  0  0  0  0  0  0  0  0
   25.4017  -10.2624  -15.9870 S   0  0  0  0  0  0  0  0  0  0  0  0
   23.9644   -9.2906  -15.4592 C   0  0  0  0  0  0  0  0  0  0  0  0
   22.8025   -9.6951  -16.3421 C   0  0  0  0  0  0  0  0  0  0  0  0
   21.5653   -8.9712  -15.8657 C   0  0  2  0  0  0  0  0  0  0  0  0
   20.3927   -9.3286  -16.6044 N   0  0  0  0  0  0  0  0  0  0  0  0
   21.7519   -7.4960  -15.9148 C   0  0  0  0  0  0  0  0  0  0  0  0
   21.7480   -6.8922  -17.0307 O   0  0  0  0  0  0  0  0  0  0  0  0
   21.9266   -4.7622  -13.4155 C   0  0  0  0  0  0  0  0  0  0  0  0
   22.1375   -5.3146  -14.8228 C   0  0  2  0  0  0  0  0  0  0  0  0
   21.9354   -6.7456  -14.7300 N   0  0  0  0  0  0  0  0  0  0  0  0
   23.5481   -4.9887  -15.1845 C   0  0  0  0  0  0  0  0  0  0  0  0
   24.3816   -5.9191  -15.1824 O   0  0  0  0  0  0  0  0  0  0  0  0
   23.8625   -3.6785  -15.5030 O   0  0  0  0  0  0  0  0  0  0  0  0
  2  3  1  0
  2  1  1  0
  3  4  1  6
  5  3  1  0
  5  6  2  0
  8  7  1  0
  9  8  1  0
  9 10  1  0
 11 10  1  6
 11 12  1  0
 11 13  1  0
 12  5  1  0
 13 17  1  0
 14 13  2  0
 16 15  1  1
 16 18  1  0
 17 16  1  0
 18 19  2  0
 18 20  1  0
M  END
$$$$
