SMA.pdb
     RDKit          3D

 20 19  0  0  1  0  0  0  0  0999 V2000
   21.3968   -8.8722  -13.0033 O   0  0  0  0  0  0  0  0  0  0  0  0
   21.5503   -7.7745  -13.8469 C   0  0  0  0  0  0  0  0  0  0  0  0
   21.0842   -8.1403  -15.2365 C   0  0  2  0  0  0  0  0  0  0  0  0
   22.0544   -8.9994  -15.8558 N   0  0  0  0  0  0  0  0  0  0  0  0
   20.9580   -6.9154  -16.0696 C   0  0  0  0  0  0  0  0  0  0  0  0
   21.5852   -6.8298  -17.1710 O   0  0  0  0  0  0  0  0  0  0  0  0
   14.6178   -5.3975  -15.3838 C   0  0  0  0  0  0  0  0  0  0  0  0
   15.8461   -5.1050  -16.6890 S   0  0  0  0  0  0  0  0  0  0  0  0
   17.5080   -5.0277  -15.9673 C   0  0  0  0  0  0  0  0  0  0  0  0
   18.4696   -4.7071  -17.0923 C   0  0  0  0  0  0  0  0  0  0  0  0
   19.8714   -4.6808  -16.5302 C   0  0  2  0  0  0  0  0  0  0  0  0
   20.1579   -5.8087  -15.6971 N   0  0  0  0  0  0  0  0  0  0  0  0
   20.1237   -3.4266  -15.7708 C   0  0  0  0  0  0  0  0  0  0  0  0
   19.8419   -3.3647  -14.5352 O   0  0  0  0  0  0  0  0  0  0  0  0
   21.5241   -0.0741  -16.5902 C   0  0  0  0  0  0  0  0  0  0  0  0
   20.9288   -1.0963  -15.6253 C   0  0  2  0  0  0  0  0  0  0  0  0
   20.6773   -2.2901  -16.4053 N   0  0  0  0  0  0  0  0  0  0  0  0
   19.6566   -0.4969  -15.1261 C   0  0  0  0  0  0  0  0  0  0  0  0
   18.6023   -0.7712  -15.7372 O   0  0  0  0  0  0  0  0  0  0  0  0
   19.7066    0.3293  -14.0162 O   0  0  0  0  0  0  0  0  0  0  0  0
  2  3  1  0
  2  1  1  0
  3  4  1  6
  5  3  1  0
  5  6  2  0
  8  7  1  0
  9  8  1  0
  9 10  1  0
 11 10  1  1
 11 12  1  0
 11 13  1  0
 12  5  1  0
 13 17  1  0
 14 13  2  0
 16 15  1  6
 16 18  1  0
 17 16  1  0
 18 19  2  0
 18 20  1  0
M  END
$$$$
