SMA.pdb
     RDKit          3D

 20 19  0  0  1  0  0  0  0  0999 V2000
   18.9693  -11.2908  -18.5630 O   0  0  0  0  0  0  0  0  0  0  0  0
   19.9946  -11.8891  -19.2916 C   0  0  0  0  0  0  0  0  0  0  0  0
   20.8343  -12.7417  -18.3696 C   0  0  2  0  0  0  0  0  0  0  0  0
   19.9904  -13.6823  -17.6871 N   0  0  0  0  0  0  0  0  0  0  0  0
   21.4918  -11.8879  -17.3454 C   0  0  0  0  0  0  0  0  0  0  0  0
   21.0646  -11.8895  -16.1489 O   0  0  0  0  0  0  0  0  0  0  0  0
   27.3347  -11.7753  -15.3024 C   0  0  0  0  0  0  0  0  0  0  0  0
   27.1125   -9.9779  -15.4372 S   0  0  0  0  0  0  0  0  0  0  0  0
   25.3465   -9.5804  -15.5481 C   0  0  0  0  0  0  0  0  0  0  0  0
   24.7432  -10.5087  -16.5813 C   0  0  0  0  0  0  0  0  0  0  0  0
   23.2655  -10.2135  -16.6845 C   0  0  2  0  0  0  0  0  0  0  0  0
   22.5960  -11.0503  -17.6331 N   0  0  0  0  0  0  0  0  0  0  0  0
   23.0239   -8.7856  -17.0255 C   0  0  0  0  0  0  0  0  0  0  0  0
   23.2043   -8.3770  -18.2131 O   0  0  0  0  0  0  0  0  0  0  0  0
   21.6528   -5.8202  -15.2697 C   0  0  0  0  0  0  0  0  0  0  0  0
   22.4629   -6.4657  -16.3909 C   0  0  2  0  0  0  0  0  0  0  0  0
   22.5927   -7.8651  -16.0420 N   0  0  0  0  0  0  0  0  0  0  0  0
   23.7887   -5.7806  -16.3861 C   0  0  0  0  0  0  0  0  0  0  0  0
   24.7507   -6.3735  -15.8538 O   0  0  0  0  0  0  0  0  0  0  0  0
   23.8872   -4.5284  -16.9684 O   0  0  0  0  0  0  0  0  0  0  0  0
  2  3  1  0
  2  1  1  0
  3  4  1  1
  5  3  1  0
  5  6  2  0
  8  7  1  0
  9  8  1  0
  9 10  1  0
 11 10  1  6
 11 12  1  0
 11 13  1  0
 12  5  1  0
 13 17  1  0
 14 13  2  0
 16 15  1  1
 16 18  1  0
 17 16  1  0
 18 19  2  0
 18 20  1  0
M  END
$$$$
