SMA.pdb
     RDKit          3D

 20 19  0  0  1  0  0  0  0  0999 V2000
   19.5407  -21.0157  -11.9336 O   0  0  0  0  0  0  0  0  0  0  0  0
   19.5030  -20.1122  -12.9930 C   0  0  0  0  0  0  0  0  0  0  0  0
   20.5698  -20.4741  -13.9996 C   0  0  2  0  0  0  0  0  0  0  0  0
   20.6355  -21.9025  -14.1344 N   0  0  0  0  0  0  0  0  0  0  0  0
   21.8966  -19.9962  -13.5287 C   0  0  0  0  0  0  0  0  0  0  0  0
   22.0985  -18.7541  -13.3551 O   0  0  0  0  0  0  0  0  0  0  0  0
   25.3825  -20.5214   -8.3886 C   0  0  0  0  0  0  0  0  0  0  0  0
   26.5796  -21.1255   -9.6133 S   0  0  0  0  0  0  0  0  0  0  0  0
   26.1362  -20.5168  -11.2631 C   0  0  0  0  0  0  0  0  0  0  0  0
   24.7677  -21.0751  -11.5928 C   0  0  0  0  0  0  0  0  0  0  0  0
   24.2975  -20.4550  -12.8874 C   0  0  2  0  0  0  0  0  0  0  0  0
   22.9775  -20.8682  -13.2549 N   0  0  0  0  0  0  0  0  0  0  0  0
   25.2385  -20.7535  -14.0005 C   0  0  0  0  0  0  0  0  0  0  0  0
   25.2193  -21.8920  -14.5603 O   0  0  0  0  0  0  0  0  0  0  0  0
   27.8528  -18.8376  -15.8352 C   0  0  0  0  0  0  0  0  0  0  0  0
   26.9765  -20.0681  -15.6159 C   0  0  2  0  0  0  0  0  0  0  0  0
   26.1636  -19.7833  -14.4518 N   0  0  0  0  0  0  0  0  0  0  0  0
   27.9148  -21.1995  -15.3580 C   0  0  0  0  0  0  0  0  0  0  0  0
   28.1243  -21.5258  -14.1706 O   0  0  0  0  0  0  0  0  0  0  0  0
   28.5042  -21.8288  -16.4413 O   0  0  0  0  0  0  0  0  0  0  0  0
  2  3  1  0
  2  1  1  0
  3  4  1  1
  5  3  1  0
  5  6  2  0
  8  7  1  0
  9  8  1  0
  9 10  1  0
 11 10  1  1
 11 12  1  0
 11 13  1  0
 12  5  1  0
 13 17  1  0
 14 13  2  0
 16 15  1  1
 16 18  1  0
 17 16  1  0
 18 19  2  0
 18 20  1  0
M  END
$$$$
