SMA.pdb
     RDKit          3D

 20 19  0  0  1  0  0  0  0  0999 V2000
   17.6605  -11.3582  -17.9505 O   0  0  0  0  0  0  0  0  0  0  0  0
   18.4936  -10.9047  -16.9305 C   0  0  0  0  0  0  0  0  0  0  0  0
   19.9264  -11.2506  -17.2615 C   0  0  2  0  0  0  0  0  0  0  0  0
   20.1311  -12.6612  -17.0847 N   0  0  0  0  0  0  0  0  0  0  0  0
   20.8483  -10.5343  -16.3410 C   0  0  0  0  0  0  0  0  0  0  0  0
   20.6712  -10.6038  -15.0849 O   0  0  0  0  0  0  0  0  0  0  0  0
   26.9084  -10.9365  -14.4916 C   0  0  0  0  0  0  0  0  0  0  0  0
   26.5306  -10.3754  -16.1770 S   0  0  0  0  0  0  0  0  0  0  0  0
   24.7396  -10.4252  -16.4577 C   0  0  0  0  0  0  0  0  0  0  0  0
   24.2439   -8.9945  -16.4381 C   0  0  0  0  0  0  0  0  0  0  0  0
   22.8122   -8.9910  -15.9567 C   0  0  2  0  0  0  0  0  0  0  0  0
   21.9418   -9.7583  -16.7946 N   0  0  0  0  0  0  0  0  0  0  0  0
   22.2881   -7.6039  -15.8355 C   0  0  0  0  0  0  0  0  0  0  0  0
   21.9124   -6.9742  -16.8710 O   0  0  0  0  0  0  0  0  0  0  0  0
   21.2625   -5.4328  -13.0165 C   0  0  0  0  0  0  0  0  0  0  0  0
   21.6006   -5.6509  -14.4891 C   0  0  2  0  0  0  0  0  0  0  0  0
   22.1993   -6.9666  -14.5759 N   0  0  0  0  0  0  0  0  0  0  0  0
   22.5811   -4.5845  -14.8473 C   0  0  0  0  0  0  0  0  0  0  0  0
   23.7894   -4.8964  -14.9025 O   0  0  0  0  0  0  0  0  0  0  0  0
   22.1065   -3.3086  -15.0997 O   0  0  0  0  0  0  0  0  0  0  0  0
  2  3  1  0
  2  1  1  0
  3  4  1  1
  5  3  1  0
  5  6  2  0
  8  7  1  0
  9  8  1  0
  9 10  1  0
 11 10  1  6
 11 12  1  0
 11 13  1  0
 12  5  1  0
 13 17  1  0
 14 13  2  0
 16 15  1  1
 16 18  1  0
 17 16  1  0
 18 19  2  0
 18 20  1  0
M  END
$$$$
