SMA.pdb
     RDKit          3D

 20 19  0  0  1  0  0  0  0  0999 V2000
   20.8062  -14.0126  -20.7629 O   0  0  0  0  0  0  0  0  0  0  0  0
   20.7698  -13.5638  -19.4448 C   0  0  0  0  0  0  0  0  0  0  0  0
   22.0925  -13.8587  -18.7774 C   0  0  2  0  0  0  0  0  0  0  0  0
   22.0355  -15.1506  -18.1523 N   0  0  0  0  0  0  0  0  0  0  0  0
   22.3652  -12.8493  -17.7204 C   0  0  0  0  0  0  0  0  0  0  0  0
   21.6025  -12.7694  -16.7076 O   0  0  0  0  0  0  0  0  0  0  0  0
   28.5018  -13.3884  -15.3315 C   0  0  0  0  0  0  0  0  0  0  0  0
   27.7145  -11.9435  -16.0999 S   0  0  0  0  0  0  0  0  0  0  0  0
   25.9102  -12.1007  -16.0070 C   0  0  0  0  0  0  0  0  0  0  0  0
   25.3200  -10.8509  -16.6256 C   0  0  0  0  0  0  0  0  0  0  0  0
   23.8250  -11.0343  -16.7402 C   0  0  2  0  0  0  0  0  0  0  0  0
   23.4547  -11.9474  -17.7782 N   0  0  0  0  0  0  0  0  0  0  0  0
   23.1378   -9.7326  -16.9564 C   0  0  0  0  0  0  0  0  0  0  0  0
   23.1679   -9.1805  -18.0985 O   0  0  0  0  0  0  0  0  0  0  0  0
   20.7923   -7.6349  -15.0031 C   0  0  0  0  0  0  0  0  0  0  0  0
   21.7634   -7.8403  -16.1628 C   0  0  2  0  0  0  0  0  0  0  0  0
   22.4442   -9.0918  -15.9034 N   0  0  0  0  0  0  0  0  0  0  0  0
   22.7103   -6.6879  -16.1141 C   0  0  0  0  0  0  0  0  0  0  0  0
   23.8753   -6.9053  -15.7196 O   0  0  0  0  0  0  0  0  0  0  0  0
   22.2539   -5.4410  -16.5063 O   0  0  0  0  0  0  0  0  0  0  0  0
  2  3  1  0
  2  1  1  0
  3  4  1  1
  5  3  1  0
  5  6  2  0
  8  7  1  0
  9  8  1  0
  9 10  1  0
 11 10  1  6
 11 12  1  0
 11 13  1  0
 12  5  1  0
 13 17  1  0
 14 13  2  0
 16 15  1  1
 16 18  1  0
 17 16  1  0
 18 19  2  0
 18 20  1  0
M  END
$$$$
