SMA.pdb
     RDKit          3D

 20 19  0  0  1  0  0  0  0  0999 V2000
   21.0772  -13.7119  -19.1395 O   0  0  0  0  0  0  0  0  0  0  0  0
   20.8897  -12.9089  -18.0169 C   0  0  0  0  0  0  0  0  0  0  0  0
   21.0881  -11.4604  -18.3971 C   0  0  2  0  0  0  0  0  0  0  0  0
   22.1033  -11.3660  -19.4087 N   0  0  0  0  0  0  0  0  0  0  0  0
   21.5445  -10.6823  -17.2153 C   0  0  0  0  0  0  0  0  0  0  0  0
   20.8460  -10.6722  -16.1541 O   0  0  0  0  0  0  0  0  0  0  0  0
   27.4588  -12.4482  -15.1825 C   0  0  0  0  0  0  0  0  0  0  0  0
   26.9215  -10.7489  -15.5310 S   0  0  0  0  0  0  0  0  0  0  0  0
   25.1106  -10.6738  -15.5923 C   0  0  0  0  0  0  0  0  0  0  0  0
   24.7336   -9.2496  -15.9426 C   0  0  0  0  0  0  0  0  0  0  0  0
   23.2322   -9.1749  -16.0903 C   0  0  2  0  0  0  0  0  0  0  0  0
   22.7444   -9.9315  -17.2029 N   0  0  0  0  0  0  0  0  0  0  0  0
   22.7723   -7.7651  -16.2095 C   0  0  0  0  0  0  0  0  0  0  0  0
   23.0367   -7.0971  -17.2554 O   0  0  0  0  0  0  0  0  0  0  0  0
   20.1735   -5.6708  -15.1415 C   0  0  0  0  0  0  0  0  0  0  0  0
   21.6915   -5.7468  -15.2831 C   0  0  2  0  0  0  0  0  0  0  0  0
   22.0385   -7.1482  -15.1695 N   0  0  0  0  0  0  0  0  0  0  0  0
   22.2497   -4.9564  -14.1470 C   0  0  0  0  0  0  0  0  0  0  0  0
   22.7381   -5.5834  -13.1833 O   0  0  0  0  0  0  0  0  0  0  0  0
   22.1993   -3.5746  -14.2161 O   0  0  0  0  0  0  0  0  0  0  0  0
  2  3  1  0
  2  1  1  0
  3  4  1  6
  5  3  1  0
  5  6  2  0
  8  7  1  0
  9  8  1  0
  9 10  1  0
 11 10  1  6
 11 12  1  0
 11 13  1  0
 12  5  1  0
 13 17  1  0
 14 13  2  0
 16 15  1  1
 16 18  1  0
 17 16  1  0
 18 19  2  0
 18 20  1  0
M  END
$$$$
