SMA.pdb
     RDKit          3D

 20 19  0  0  1  0  0  0  0  0999 V2000
   26.3313  -33.6257  -14.6559 O   0  0  0  0  0  0  0  0  0  0  0  0
   27.2250  -32.5586  -14.7064 C   0  0  0  0  0  0  0  0  0  0  0  0
   28.1719  -32.7514  -15.8676 C   0  0  2  0  0  0  0  0  0  0  0  0
   29.2579  -33.6001  -15.4634 N   0  0  0  0  0  0  0  0  0  0  0  0
   28.7423  -31.4424  -16.2817 C   0  0  0  0  0  0  0  0  0  0  0  0
   29.7552  -30.9717  -15.6763 O   0  0  0  0  0  0  0  0  0  0  0  0
   32.9788  -31.1180  -20.6835 C   0  0  0  0  0  0  0  0  0  0  0  0
   31.3756  -30.2660  -20.7247 S   0  0  0  0  0  0  0  0  0  0  0  0
   30.6896  -30.1590  -19.0494 C   0  0  0  0  0  0  0  0  0  0  0  0
   29.3405  -29.4804  -19.1610 C   0  0  0  0  0  0  0  0  0  0  0  0
   28.7251  -29.4100  -17.7834 C   0  0  2  0  0  0  0  0  0  0  0  0
   28.2083  -30.6688  -17.3400 N   0  0  0  0  0  0  0  0  0  0  0  0
   27.6491  -28.3842  -17.7259 C   0  0  0  0  0  0  0  0  0  0  0  0
   26.4694  -28.6803  -18.0875 O   0  0  0  0  0  0  0  0  0  0  0  0
   27.4077  -24.8517  -16.5844 C   0  0  0  0  0  0  0  0  0  0  0  0
   26.8621  -26.0811  -17.3061 C   0  0  2  0  0  0  0  0  0  0  0  0
   27.9176  -27.0719  -17.2716 N   0  0  0  0  0  0  0  0  0  0  0  0
   26.5754  -25.6431  -18.7036 C   0  0  0  0  0  0  0  0  0  0  0  0
   27.4590  -25.8283  -19.5668 O   0  0  0  0  0  0  0  0  0  0  0  0
   25.3509  -25.0561  -18.9737 O   0  0  0  0  0  0  0  0  0  0  0  0
  2  3  1  0
  2  1  1  0
  3  4  1  1
  5  3  1  0
  5  6  2  0
  8  7  1  0
  9  8  1  0
  9 10  1  0
 11 10  1  6
 11 12  1  0
 11 13  1  0
 12  5  1  0
 13 17  1  0
 14 13  2  0
 16 15  1  1
 16 18  1  0
 17 16  1  0
 18 19  2  0
 18 20  1  0
M  END
$$$$
