SMA.pdb
     RDKit          3D

 20 19  0  0  1  0  0  0  0  0999 V2000
   21.1514  -13.3003  -21.3248 O   0  0  0  0  0  0  0  0  0  0  0  0
   21.2184  -12.6424  -20.0989 C   0  0  0  0  0  0  0  0  0  0  0  0
   22.5809  -12.8629  -19.4847 C   0  0  2  0  0  0  0  0  0  0  0  0
   22.7368  -14.2514  -19.1525 N   0  0  0  0  0  0  0  0  0  0  0  0
   22.7072  -12.0742  -18.2307 C   0  0  0  0  0  0  0  0  0  0  0  0
   22.0377  -12.4051  -17.2030 O   0  0  0  0  0  0  0  0  0  0  0  0
   28.0200  -12.6610  -14.8929 C   0  0  0  0  0  0  0  0  0  0  0  0
   27.3626  -11.1079  -15.5663 S   0  0  0  0  0  0  0  0  0  0  0  0
   25.6008  -11.2983  -15.9517 C   0  0  0  0  0  0  0  0  0  0  0  0
   25.1155   -9.9702  -16.4938 C   0  0  0  0  0  0  0  0  0  0  0  0
   23.6819  -10.1315  -16.9415 C   0  0  2  0  0  0  0  0  0  0  0  0
   23.5529  -10.9454  -18.1117 N   0  0  0  0  0  0  0  0  0  0  0  0
   23.0412   -8.8107  -17.1831 C   0  0  0  0  0  0  0  0  0  0  0  0
   23.4298   -8.0833  -18.1473 O   0  0  0  0  0  0  0  0  0  0  0  0
   19.9204   -7.2575  -16.7597 C   0  0  0  0  0  0  0  0  0  0  0  0
   21.4226   -7.0390  -16.5992 C   0  0  2  0  0  0  0  0  0  0  0  0
   21.9969   -8.3450  -16.3506 N   0  0  0  0  0  0  0  0  0  0  0  0
   21.5830   -6.1424  -15.4171 C   0  0  0  0  0  0  0  0  0  0  0  0
   21.9929   -6.6486  -14.3513 O   0  0  0  0  0  0  0  0  0  0  0  0
   21.2713   -4.8009  -15.5586 O   0  0  0  0  0  0  0  0  0  0  0  0
  2  3  1  0
  2  1  1  0
  3  4  1  1
  5  3  1  0
  5  6  2  0
  8  7  1  0
  9  8  1  0
  9 10  1  0
 11 10  1  6
 11 12  1  0
 11 13  1  0
 12  5  1  0
 13 17  1  0
 14 13  2  0
 16 15  1  1
 16 18  1  0
 17 16  1  0
 18 19  2  0
 18 20  1  0
M  END
$$$$
