SMA.pdb
     RDKit          3D

 20 19  0  0  1  0  0  0  0  0999 V2000
   18.7005   -8.7436  -13.1387 O   0  0  0  0  0  0  0  0  0  0  0  0
   19.0930   -9.1269  -11.8585 C   0  0  0  0  0  0  0  0  0  0  0  0
   17.9403   -9.8138  -11.1645 C   0  0  2  0  0  0  0  0  0  0  0  0
   17.4978  -10.9257  -11.9587 N   0  0  0  0  0  0  0  0  0  0  0  0
   16.7998   -8.8713  -11.0188 C   0  0  0  0  0  0  0  0  0  0  0  0
   15.7962   -8.9655  -11.7921 O   0  0  0  0  0  0  0  0  0  0  0  0
   11.4324   -8.7405   -6.9692 C   0  0  0  0  0  0  0  0  0  0  0  0
   13.0682   -7.9548   -6.9006 S   0  0  0  0  0  0  0  0  0  0  0  0
   13.7532   -7.8072   -8.5733 C   0  0  0  0  0  0  0  0  0  0  0  0
   15.0689   -7.0670   -8.4540 C   0  0  0  0  0  0  0  0  0  0  0  0
   15.6753   -6.9444   -9.8320 C   0  0  2  0  0  0  0  0  0  0  0  0
   16.7657   -7.8472  -10.0423 N   0  0  0  0  0  0  0  0  0  0  0  0
   16.1255   -5.5520  -10.1003 C   0  0  0  0  0  0  0  0  0  0  0  0
   17.2133   -5.1292   -9.6025 O   0  0  0  0  0  0  0  0  0  0  0  0
   14.8816   -2.7118  -12.1556 C   0  0  0  0  0  0  0  0  0  0  0  0
   15.8008   -3.3158  -11.0971 C   0  0  2  0  0  0  0  0  0  0  0  0
   15.3571   -4.6812  -10.9078 N   0  0  0  0  0  0  0  0  0  0  0  0
   15.5949   -2.5028   -9.8627 C   0  0  0  0  0  0  0  0  0  0  0  0
   14.8720   -2.9800   -8.9627 O   0  0  0  0  0  0  0  0  0  0  0  0
   16.2118   -1.2664   -9.7756 O   0  0  0  0  0  0  0  0  0  0  0  0
  2  3  1  0
  2  1  1  0
  3  4  1  6
  5  3  1  0
  5  6  2  0
  8  7  1  0
  9  8  1  0
  9 10  1  0
 11 10  1  1
 11 12  1  0
 11 13  1  0
 12  5  1  0
 13 17  1  0
 14 13  2  0
 16 15  1  6
 16 18  1  0
 17 16  1  0
 18 19  2  0
 18 20  1  0
M  END
$$$$
