SMA.pdb
     RDKit          3D

 20 19  0  0  1  0  0  0  0  0999 V2000
   17.3076   -9.3826  -19.8537 O   0  0  0  0  0  0  0  0  0  0  0  0
   18.1318   -8.9407  -18.8216 C   0  0  0  0  0  0  0  0  0  0  0  0
   18.6271  -10.1289  -18.0310 C   0  0  2  0  0  0  0  0  0  0  0  0
   17.5379  -10.6952  -17.2856 N   0  0  0  0  0  0  0  0  0  0  0  0
   19.6698   -9.6970  -17.0631 C   0  0  0  0  0  0  0  0  0  0  0  0
   19.3447   -9.3967  -15.8723 O   0  0  0  0  0  0  0  0  0  0  0  0
   27.2079  -10.1125  -14.8965 C   0  0  0  0  0  0  0  0  0  0  0  0
   25.9554  -10.4392  -16.1703 S   0  0  0  0  0  0  0  0  0  0  0  0
   24.4092   -9.5908  -15.7482 C   0  0  0  0  0  0  0  0  0  0  0  0
   23.3802   -9.9954  -16.7830 C   0  0  0  0  0  0  0  0  0  0  0  0
   22.0922   -9.2637  -16.4881 C   0  0  2  0  0  0  0  0  0  0  0  0
   21.0411   -9.5982  -17.4001 N   0  0  0  0  0  0  0  0  0  0  0  0
   22.2978   -7.7902  -16.4875 C   0  0  0  0  0  0  0  0  0  0  0  0
   22.4757   -7.1733  -17.5819 O   0  0  0  0  0  0  0  0  0  0  0  0
   22.1008   -5.1061  -13.9291 C   0  0  0  0  0  0  0  0  0  0  0  0
   22.4476   -5.6160  -15.3255 C   0  0  2  0  0  0  0  0  0  0  0  0
   22.2989   -7.0557  -15.2787 N   0  0  0  0  0  0  0  0  0  0  0  0
   23.8680   -5.2253  -15.5640 C   0  0  0  0  0  0  0  0  0  0  0  0
   24.7538   -6.0770  -15.3397 O   0  0  0  0  0  0  0  0  0  0  0  0
   24.1333   -3.9452  -16.0197 O   0  0  0  0  0  0  0  0  0  0  0  0
  2  3  1  0
  2  1  1  0
  3  4  1  1
  5  3  1  0
  5  6  2  0
  8  7  1  0
  9  8  1  0
  9 10  1  0
 11 10  1  6
 11 12  1  0
 11 13  1  0
 12  5  1  0
 13 17  1  0
 14 13  2  0
 16 15  1  1
 16 18  1  0
 17 16  1  0
 18 19  2  0
 18 20  1  0
M  END
$$$$
