SMA.pdb
     RDKit          3D

 20 19  0  0  1  0  0  0  0  0999 V2000
   17.1714  -10.8328  -17.1315 O   0  0  0  0  0  0  0  0  0  0  0  0
   17.9781  -10.2019  -16.1875 C   0  0  0  0  0  0  0  0  0  0  0  0
   19.3850  -10.7428  -16.2876 C   0  0  2  0  0  0  0  0  0  0  0  0
   19.4247  -12.0748  -15.7517 N   0  0  0  0  0  0  0  0  0  0  0  0
   20.3124   -9.8991  -15.4886 C   0  0  0  0  0  0  0  0  0  0  0  0
   20.2843   -9.9520  -14.2196 O   0  0  0  0  0  0  0  0  0  0  0  0
   26.5457  -11.1901  -14.6869 C   0  0  0  0  0  0  0  0  0  0  0  0
   25.8478   -9.7008  -15.4570 S   0  0  0  0  0  0  0  0  0  0  0  0
   24.0913   -9.5505  -15.0315 C   0  0  0  0  0  0  0  0  0  0  0  0
   23.5697   -8.3058  -15.7184 C   0  0  0  0  0  0  0  0  0  0  0  0
   22.1143   -8.1325  -15.3532 C   0  0  2  0  0  0  0  0  0  0  0  0
   21.2506   -9.0163  -16.0752 N   0  0  0  0  0  0  0  0  0  0  0  0
   21.6709   -6.7274  -15.5598 C   0  0  0  0  0  0  0  0  0  0  0  0
   21.6033   -6.2488  -16.7329 O   0  0  0  0  0  0  0  0  0  0  0  0
   20.3173   -3.9924  -13.4656 C   0  0  0  0  0  0  0  0  0  0  0  0
   21.0931   -4.4926  -14.6815 C   0  0  2  0  0  0  0  0  0  0  0  0
   21.3195   -5.9061  -14.4631 N   0  0  0  0  0  0  0  0  0  0  0  0
   22.3775   -3.7329  -14.6898 C   0  0  0  0  0  0  0  0  0  0  0  0
   23.4096   -4.3261  -14.3115 O   0  0  0  0  0  0  0  0  0  0  0  0
   22.3626   -2.4150  -15.1139 O   0  0  0  0  0  0  0  0  0  0  0  0
  2  3  1  0
  2  1  1  0
  3  4  1  1
  5  3  1  0
  5  6  2  0
  8  7  1  0
  9  8  1  0
  9 10  1  0
 11 10  1  6
 11 12  1  0
 11 13  1  0
 12  5  1  0
 13 17  1  0
 14 13  2  0
 16 15  1  1
 16 18  1  0
 17 16  1  0
 18 19  2  0
 18 20  1  0
M  END
$$$$
