LGK.pdb
     RDKit          3D

 22 21  0  0  1  0  0  0  0  0999 V2000
    8.2722  -13.6883   18.3135 C   0  0  0  0  0  0  0  0  0  0  0  0
    7.4951  -13.9718   19.5800 C   0  0  2  0  0  0  0  0  0  0  0  0
    6.6447  -12.7751   19.9783 C   0  0  0  0  0  0  0  0  0  0  0  0
    8.4736  -14.3246   20.6766 C   0  0  0  0  0  0  0  0  0  0  0  0
    9.2317  -15.5820   20.3827 C   0  0  2  0  0  0  0  0  0  0  0  0
    8.3378  -16.6680   20.1733 N   0  0  0  0  0  0  0  0  0  0  0  0
   10.3073  -15.8316   21.3676 C   0  0  0  0  0  0  0  0  0  0  0  0
   11.1594  -14.9231   21.5077 O   0  0  0  0  0  0  0  0  0  0  0  0
   10.4208  -17.0174   22.1426 N   0  0  0  0  0  0  0  0  0  0  0  0
   11.3908  -17.2143   23.1807 C   0  0  0  0  0  0  0  0  0  0  0  0
   11.1112  -16.5468   24.4503 C   0  0  0  0  0  0  0  0  0  0  0  0
   11.9401  -16.6392   25.4270 O   0  0  0  0  0  0  0  0  0  0  0  0
    9.9705  -15.7895   24.6975 N   0  0  0  0  0  0  0  0  0  0  0  0
    9.7535  -15.1165   26.0530 C   0  0  1  0  0  0  0  0  0  0  0  0
    8.5863  -14.2351   25.7434 C   0  0  0  0  0  0  0  0  0  0  0  0
    7.9431  -13.3887   26.7293 C   0  0  0  0  0  0  0  0  0  0  0  0
    6.8071  -12.5383   26.3253 C   0  0  0  0  0  0  0  0  0  0  0  0
    6.2590  -11.7343   27.5236 C   0  0  0  0  0  0  0  0  0  0  0  0
    5.1259  -10.9483   27.1459 N   0  0  0  0  0  0  0  0  0  0  0  0
    9.4997  -16.2722   26.9268 C   0  0  0  0  0  0  0  0  0  0  0  0
    8.9147  -17.4705   26.4459 O   0  0  0  0  0  0  0  0  0  0  0  0
    9.7738  -16.2834   28.1293 O   0  0  0  0  0  0  0  0  0  0  0  0
  2  1  1  6
  3  2  1  0
  4  5  1  0
  4  2  1  0
  5  6  1  1
  7  5  1  0
  7  8  2  0
  9  7  1  0
 10  9  1  0
 10 11  1  0
 11 13  1  0
 12 11  2  0
 13 14  1  0
 14 15  1  6
 14 20  1  0
 16 15  1  0
 17 16  1  0
 18 17  1  0
 19 18  1  0
 20 22  2  0
 20 21  1  0
M  END
$$$$
