LGK.pdb
     RDKit          3D

 22 21  0  0  1  0  0  0  0  0999 V2000
    6.5903  -14.4093   19.6712 C   0  0  0  0  0  0  0  0  0  0  0  0
    7.6737  -13.5645   20.3042 C   0  0  2  0  0  0  0  0  0  0  0  0
    7.5327  -12.1043   19.9017 C   0  0  0  0  0  0  0  0  0  0  0  0
    9.0184  -14.1107   19.8824 C   0  0  0  0  0  0  0  0  0  0  0  0
    9.3441  -15.4084   20.5549 C   0  0  2  0  0  0  0  0  0  0  0  0
    8.5618  -15.5728   21.7310 N   0  0  0  0  0  0  0  0  0  0  0  0
   10.8006  -15.5968   20.7349 C   0  0  0  0  0  0  0  0  0  0  0  0
   11.4532  -15.9202   19.7148 O   0  0  0  0  0  0  0  0  0  0  0  0
   11.4797  -15.4340   21.9726 N   0  0  0  0  0  0  0  0  0  0  0  0
   12.8983  -15.5658   22.1391 C   0  0  0  0  0  0  0  0  0  0  0  0
   13.3426  -16.6887   22.9621 C   0  0  0  0  0  0  0  0  0  0  0  0
   14.5261  -16.6977   23.4610 O   0  0  0  0  0  0  0  0  0  0  0  0
   12.5548  -17.7963   23.2594 N   0  0  0  0  0  0  0  0  0  0  0  0
   13.0069  -18.8260   24.2952 C   0  0  1  0  0  0  0  0  0  0  0  0
   11.6864  -19.3199   24.7926 C   0  0  0  0  0  0  0  0  0  0  0  0
   10.8886  -18.6111   25.7740 C   0  0  0  0  0  0  0  0  0  0  0  0
    9.6051  -19.1871   26.2188 C   0  0  0  0  0  0  0  0  0  0  0  0
    9.0054  -18.3761   27.3873 C   0  0  0  0  0  0  0  0  0  0  0  0
    7.8155  -18.9904   27.8880 N   0  0  0  0  0  0  0  0  0  0  0  0
   13.7964  -19.7552   23.4726 C   0  0  0  0  0  0  0  0  0  0  0  0
   14.6898  -20.6975   24.0411 O   0  0  0  0  0  0  0  0  0  0  0  0
   13.7402  -19.7822   22.2407 O   0  0  0  0  0  0  0  0  0  0  0  0
  2  1  1  6
  3  2  1  0
  4  5  1  0
  4  2  1  0
  5  6  1  1
  7  5  1  0
  7  8  2  0
  9  7  1  0
 10  9  1  0
 10 11  1  0
 11 13  1  0
 12 11  2  0
 13 14  1  0
 14 15  1  6
 14 20  1  0
 16 15  1  0
 17 16  1  0
 18 17  1  0
 19 18  1  0
 20 22  2  0
 20 21  1  0
M  END
$$$$
