LGK.pdb
     RDKit          3D

 22 21  0  0  1  0  0  0  0  0999 V2000
    6.6837  -13.5906   19.7821 C   0  0  0  0  0  0  0  0  0  0  0  0
    7.8502  -13.9484   20.6763 C   0  0  2  0  0  0  0  0  0  0  0  0
    8.2083  -12.7909   21.5960 C   0  0  0  0  0  0  0  0  0  0  0  0
    9.0263  -14.3266   19.8055 C   0  0  0  0  0  0  0  0  0  0  0  0
    9.1769  -15.8094   19.6618 C   0  0  2  0  0  0  0  0  0  0  0  0
    7.9299  -16.4614   19.8672 N   0  0  0  0  0  0  0  0  0  0  0  0
   10.3043  -16.3387   20.4606 C   0  0  0  0  0  0  0  0  0  0  0  0
   11.3834  -15.7046   20.3941 O   0  0  0  0  0  0  0  0  0  0  0  0
   10.2284  -17.4987   21.2781 N   0  0  0  0  0  0  0  0  0  0  0  0
   11.3313  -18.0379   22.0198 C   0  0  0  0  0  0  0  0  0  0  0  0
   11.4471  -17.5912   23.4064 C   0  0  0  0  0  0  0  0  0  0  0  0
   12.5906  -17.2556   23.8854 O   0  0  0  0  0  0  0  0  0  0  0  0
   10.3740  -17.4985   24.2871 N   0  0  0  0  0  0  0  0  0  0  0  0
   10.5818  -17.0474   25.7330 C   0  0  1  0  0  0  0  0  0  0  0  0
    9.2263  -16.5046   26.0537 C   0  0  0  0  0  0  0  0  0  0  0  0
    8.7690  -15.1976   25.6240 C   0  0  0  0  0  0  0  0  0  0  0  0
    7.9924  -15.0746   24.3756 C   0  0  0  0  0  0  0  0  0  0  0  0
    7.6401  -13.6009   24.0812 C   0  0  0  0  0  0  0  0  0  0  0  0
    6.8747  -13.4808   22.8796 N   0  0  0  0  0  0  0  0  0  0  0  0
   10.9656  -18.3063   26.3899 C   0  0  0  0  0  0  0  0  0  0  0  0
   11.6940  -18.3343   27.6056 O   0  0  0  0  0  0  0  0  0  0  0  0
   10.6851  -19.4183   25.9359 O   0  0  0  0  0  0  0  0  0  0  0  0
  2  1  1  6
  3  2  1  0
  4  5  1  0
  4  2  1  0
  5  6  1  1
  7  5  1  0
  7  8  2  0
  9  7  1  0
 10  9  1  0
 10 11  1  0
 11 13  1  0
 12 11  2  0
 13 14  1  0
 14 15  1  1
 14 20  1  0
 16 15  1  0
 17 16  1  0
 18 17  1  0
 19 18  1  0
 20 22  2  0
 20 21  1  0
M  END
$$$$
