LGK.pdb
     RDKit          3D

 22 21  0  0  1  0  0  0  0  0999 V2000
    6.8658  -13.4160   21.1215 C   0  0  0  0  0  0  0  0  0  0  0  0
    8.1175  -13.5604   20.2845 C   0  0  2  0  0  0  0  0  0  0  0  0
    8.3270  -12.3404   19.4004 C   0  0  0  0  0  0  0  0  0  0  0  0
    7.9965  -14.8146   19.4497 C   0  0  0  0  0  0  0  0  0  0  0  0
    8.1073  -16.0609   20.2722 C   0  0  2  0  0  0  0  0  0  0  0  0
    7.0596  -16.1221   21.2318 N   0  0  0  0  0  0  0  0  0  0  0  0
    9.4704  -16.2563   20.8136 C   0  0  0  0  0  0  0  0  0  0  0  0
   10.3931  -16.3816   19.9745 O   0  0  0  0  0  0  0  0  0  0  0  0
    9.7791  -16.3077   22.1998 N   0  0  0  0  0  0  0  0  0  0  0  0
   11.0071  -15.8364   22.7720 C   0  0  0  0  0  0  0  0  0  0  0  0
   11.1470  -16.0119   24.2160 C   0  0  0  0  0  0  0  0  0  0  0  0
   12.2375  -15.6776   24.8065 O   0  0  0  0  0  0  0  0  0  0  0  0
   10.1534  -16.5361   25.0369 N   0  0  0  0  0  0  0  0  0  0  0  0
   10.0609  -16.1377   26.5100 C   0  0  1  0  0  0  0  0  0  0  0  0
    8.6773  -15.5737   26.5603 C   0  0  0  0  0  0  0  0  0  0  0  0
    8.3983  -14.1555   26.6732 C   0  0  0  0  0  0  0  0  0  0  0  0
    6.9980  -13.6915   26.7043 C   0  0  0  0  0  0  0  0  0  0  0  0
    6.9227  -12.1557   26.8396 C   0  0  0  0  0  0  0  0  0  0  0  0
    5.5666  -11.7040   26.8733 N   0  0  0  0  0  0  0  0  0  0  0  0
   10.2779  -17.4262   27.1855 C   0  0  0  0  0  0  0  0  0  0  0  0
   10.4747  -18.6330   26.4684 O   0  0  0  0  0  0  0  0  0  0  0  0
   10.3039  -17.5501   28.4124 O   0  0  0  0  0  0  0  0  0  0  0  0
  2  1  1  6
  3  2  1  0
  4  5  1  0
  4  2  1  0
  5  6  1  1
  7  5  1  0
  7  8  2  0
  9  7  1  0
 10  9  1  0
 10 11  1  0
 11 13  1  0
 12 11  2  0
 13 14  1  0
 14 15  1  6
 14 20  1  0
 16 15  1  0
 17 16  1  0
 18 17  1  0
 19 18  1  0
 20 22  2  0
 20 21  1  0
M  END
$$$$
