LGK.pdb
     RDKit          3D

 22 21  0  0  1  0  0  0  0  0999 V2000
    7.1614  -21.1538   19.6344 C   0  0  0  0  0  0  0  0  0  0  0  0
    7.7041  -20.3061   18.5052 C   0  0  2  0  0  0  0  0  0  0  0  0
    8.3164  -21.1741   17.4164 C   0  0  0  0  0  0  0  0  0  0  0  0
    8.7295  -19.3503   19.0705 C   0  0  0  0  0  0  0  0  0  0  0  0
    8.1150  -18.3144   19.9602 C   0  0  2  0  0  0  0  0  0  0  0  0
    7.1138  -17.5849   19.2619 N   0  0  0  0  0  0  0  0  0  0  0  0
    9.1333  -17.4890   20.6464 C   0  0  0  0  0  0  0  0  0  0  0  0
    9.9461  -18.0989   21.3803 O   0  0  0  0  0  0  0  0  0  0  0  0
    9.2347  -16.0772   20.5195 N   0  0  0  0  0  0  0  0  0  0  0  0
   10.2775  -15.2861   21.1060 C   0  0  0  0  0  0  0  0  0  0  0  0
   10.2019  -15.1028   22.5539 C   0  0  0  0  0  0  0  0  0  0  0  0
   11.1298  -14.4689   23.1758 O   0  0  0  0  0  0  0  0  0  0  0  0
    9.1635  -15.5816   23.3465 N   0  0  0  0  0  0  0  0  0  0  0  0
    9.1431  -15.3241   24.8534 C   0  0  1  0  0  0  0  0  0  0  0  0
    7.8668  -14.5573   24.9883 C   0  0  0  0  0  0  0  0  0  0  0  0
    7.7337  -13.3691   25.8084 C   0  0  0  0  0  0  0  0  0  0  0  0
    6.4307  -12.6811   25.8832 C   0  0  0  0  0  0  0  0  0  0  0  0
    6.5245  -11.4016   26.7414 C   0  0  0  0  0  0  0  0  0  0  0  0
    5.2531  -10.7571   26.8522 N   0  0  0  0  0  0  0  0  0  0  0  0
    9.1562  -16.6921   25.3936 C   0  0  0  0  0  0  0  0  0  0  0  0
    9.5575  -16.9771   26.7229 O   0  0  0  0  0  0  0  0  0  0  0  0
    8.8230  -17.6814   24.7366 O   0  0  0  0  0  0  0  0  0  0  0  0
  2  1  1  1
  3  2  1  0
  4  5  1  0
  4  2  1  0
  5  6  1  6
  7  5  1  0
  7  8  2  0
  9  7  1  0
 10  9  1  0
 10 11  1  0
 11 13  1  0
 12 11  2  0
 13 14  1  0
 14 15  1  6
 14 20  1  0
 16 15  1  0
 17 16  1  0
 18 17  1  0
 19 18  1  0
 20 22  2  0
 20 21  1  0
M  END
$$$$
