LGK.pdb
     RDKit          3D

 22 21  0  0  1  0  0  0  0  0999 V2000
    0.5849  -20.5421   19.8943 C   0  0  0  0  0  0  0  0  0  0  0  0
    1.4771  -19.9993   20.9886 C   0  0  2  0  0  0  0  0  0  0  0  0
    2.0960  -18.6711   20.5800 C   0  0  0  0  0  0  0  0  0  0  0  0
    2.5489  -21.0221   21.2878 C   0  0  0  0  0  0  0  0  0  0  0  0
    2.4874  -21.5173   22.6997 C   0  0  2  0  0  0  0  0  0  0  0  0
    1.3635  -20.9666   23.3747 N   0  0  0  0  0  0  0  0  0  0  0  0
    3.7806  -21.3686   23.4030 C   0  0  0  0  0  0  0  0  0  0  0  0
    4.5735  -22.3364   23.3268 O   0  0  0  0  0  0  0  0  0  0  0  0
    4.1600  -20.2150   24.1411 N   0  0  0  0  0  0  0  0  0  0  0  0
    5.4043  -20.0769   24.8412 C   0  0  0  0  0  0  0  0  0  0  0  0
    6.5318  -20.8273   24.2926 C   0  0  0  0  0  0  0  0  0  0  0  0
    6.3279  -21.8957   23.6095 O   0  0  0  0  0  0  0  0  0  0  0  0
    7.8645  -20.4640   24.4595 N   0  0  0  0  0  0  0  0  0  0  0  0
    8.9857  -21.2663   23.7989 C   0  0  1  0  0  0  0  0  0  0  0  0
    9.4009  -20.3249   22.7142 C   0  0  0  0  0  0  0  0  0  0  0  0
    8.7016  -20.2079   21.4496 C   0  0  0  0  0  0  0  0  0  0  0  0
    9.1952  -19.2601   20.4323 C   0  0  0  0  0  0  0  0  0  0  0  0
    8.2566  -19.2180   19.2077 C   0  0  0  0  0  0  0  0  0  0  0  0
    8.7630  -18.3440   18.1959 N   0  0  0  0  0  0  0  0  0  0  0  0
    9.9252  -21.4484   24.9158 C   0  0  0  0  0  0  0  0  0  0  0  0
    9.5915  -21.1031   26.2495 O   0  0  0  0  0  0  0  0  0  0  0  0
   11.0605  -21.9096   24.7756 O   0  0  0  0  0  0  0  0  0  0  0  0
  2  1  1  6
  3  2  1  0
  4  5  1  0
  4  2  1  0
  5  6  1  1
  7  5  1  0
  7  8  2  0
  9  7  1  0
 10  9  1  0
 10 11  1  0
 11 13  1  0
 12 11  2  0
 13 14  1  0
 14 15  1  6
 14 20  1  0
 16 15  1  0
 17 16  1  0
 18 17  1  0
 19 18  1  0
 20 22  2  0
 20 21  1  0
M  END
$$$$
