LGK.pdb
     RDKit          3D

 22 21  0  0  1  0  0  0  0  0999 V2000
    1.7255  -19.7396   20.1376 C   0  0  0  0  0  0  0  0  0  0  0  0
    2.8239  -19.6815   21.1761 C   0  0  2  0  0  0  0  0  0  0  0  0
    2.4048  -20.3915   22.4544 C   0  0  0  0  0  0  0  0  0  0  0  0
    3.1520  -18.2317   21.4495 C   0  0  0  0  0  0  0  0  0  0  0  0
    4.4729  -17.8265   20.8722 C   0  0  2  0  0  0  0  0  0  0  0  0
    5.3354  -18.9513   20.7579 N   0  0  0  0  0  0  0  0  0  0  0  0
    5.0527  -16.6553   21.5661 C   0  0  0  0  0  0  0  0  0  0  0  0
    4.5306  -16.3386   22.6607 O   0  0  0  0  0  0  0  0  0  0  0  0
    6.1426  -15.8912   21.0683 N   0  0  0  0  0  0  0  0  0  0  0  0
    6.6899  -14.7404   21.7266 C   0  0  0  0  0  0  0  0  0  0  0  0
    7.6308  -15.0128   22.8110 C   0  0  0  0  0  0  0  0  0  0  0  0
    8.2103  -14.0445   23.4243 O   0  0  0  0  0  0  0  0  0  0  0  0
    7.9653  -16.2902   23.2496 N   0  0  0  0  0  0  0  0  0  0  0  0
    8.9962  -16.4941   24.3601 C   0  0  1  0  0  0  0  0  0  0  0  0
    8.4219  -17.6843   25.0590 C   0  0  0  0  0  0  0  0  0  0  0  0
    8.5249  -17.8949   26.4898 C   0  0  0  0  0  0  0  0  0  0  0  0
    7.9997  -19.1411   27.0796 C   0  0  0  0  0  0  0  0  0  0  0  0
    8.0427  -19.0892   28.6217 C   0  0  0  0  0  0  0  0  0  0  0  0
    7.5199  -20.2898   29.1957 N   0  0  0  0  0  0  0  0  0  0  0  0
   10.2310  -16.7080   23.5901 C   0  0  0  0  0  0  0  0  0  0  0  0
   11.5156  -16.4586   24.1350 O   0  0  0  0  0  0  0  0  0  0  0  0
   10.2395  -17.1154   22.4259 O   0  0  0  0  0  0  0  0  0  0  0  0
  2  1  1  6
  3  2  1  0
  4  5  1  0
  4  2  1  0
  5  6  1  1
  7  5  1  0
  7  8  2  0
  9  7  1  0
 10  9  1  0
 10 11  1  0
 11 13  1  0
 12 11  2  0
 13 14  1  0
 14 15  1  6
 14 20  1  0
 16 15  1  0
 17 16  1  0
 18 17  1  0
 19 18  1  0
 20 22  2  0
 20 21  1  0
M  END
$$$$
