LGK.pdb
     RDKit          3D

 22 21  0  0  1  0  0  0  0  0999 V2000
    9.1267  -12.8351   18.6645 C   0  0  0  0  0  0  0  0  0  0  0  0
    7.8492  -13.4965   19.1324 C   0  0  2  0  0  0  0  0  0  0  0  0
    6.8490  -12.4630   19.6279 C   0  0  0  0  0  0  0  0  0  0  0  0
    8.1900  -14.4821   20.2265 C   0  0  0  0  0  0  0  0  0  0  0  0
    9.1470  -15.5378   19.7661 C   0  0  2  0  0  0  0  0  0  0  0  0
    8.4459  -16.7075   19.3631 N   0  0  0  0  0  0  0  0  0  0  0  0
   10.2432  -15.7619   20.7344 C   0  0  0  0  0  0  0  0  0  0  0  0
   11.0777  -14.8350   20.8591 O   0  0  0  0  0  0  0  0  0  0  0  0
   10.3944  -16.9431   21.5099 N   0  0  0  0  0  0  0  0  0  0  0  0
   11.4059  -17.1291   22.5097 C   0  0  0  0  0  0  0  0  0  0  0  0
   11.0986  -16.5965   23.8353 C   0  0  0  0  0  0  0  0  0  0  0  0
   11.9411  -16.7249   24.7962 O   0  0  0  0  0  0  0  0  0  0  0  0
    9.9164  -15.9359   24.1546 N   0  0  0  0  0  0  0  0  0  0  0  0
    9.6573  -15.4324   25.5747 C   0  0  1  0  0  0  0  0  0  0  0  0
    8.4728  -14.5494   25.3459 C   0  0  0  0  0  0  0  0  0  0  0  0
    7.8591  -13.7527   26.3903 C   0  0  0  0  0  0  0  0  0  0  0  0
    6.8028  -12.7844   26.0385 C   0  0  0  0  0  0  0  0  0  0  0  0
    6.3017  -12.0281   27.2873 C   0  0  0  0  0  0  0  0  0  0  0  0
    5.4255  -10.9570   26.9280 N   0  0  0  0  0  0  0  0  0  0  0  0
    9.4186  -16.6886   26.3016 C   0  0  0  0  0  0  0  0  0  0  0  0
    8.8755  -17.8363   25.6714 O   0  0  0  0  0  0  0  0  0  0  0  0
    9.6704  -16.8341   27.5003 O   0  0  0  0  0  0  0  0  0  0  0  0
  2  1  1  1
  3  2  1  0
  4  5  1  0
  4  2  1  0
  5  6  1  1
  7  5  1  0
  7  8  2  0
  9  7  1  0
 10  9  1  0
 10 11  1  0
 11 13  1  0
 12 11  2  0
 13 14  1  0
 14 15  1  6
 14 20  1  0
 16 15  1  0
 17 16  1  0
 18 17  1  0
 19 18  1  0
 20 22  2  0
 20 21  1  0
M  END
$$$$
