LGK.pdb
     RDKit          3D

 22 21  0  0  1  0  0  0  0  0999 V2000
    8.2047  -14.1407   18.0114 C   0  0  0  0  0  0  0  0  0  0  0  0
    7.3663  -13.6872   19.1861 C   0  0  2  0  0  0  0  0  0  0  0  0
    7.1966  -12.1755   19.1845 C   0  0  0  0  0  0  0  0  0  0  0  0
    8.0323  -14.1518   20.4609 C   0  0  0  0  0  0  0  0  0  0  0  0
    8.0758  -15.6446   20.5711 C   0  0  2  0  0  0  0  0  0  0  0  0
    6.7792  -16.1982   20.3851 N   0  0  0  0  0  0  0  0  0  0  0  0
    8.7858  -16.0966   21.7879 C   0  0  0  0  0  0  0  0  0  0  0  0
    8.1603  -15.9986   22.8697 O   0  0  0  0  0  0  0  0  0  0  0  0
   10.1060  -16.6226   21.7930 N   0  0  0  0  0  0  0  0  0  0  0  0
   11.1998  -16.0528   22.5253 C   0  0  0  0  0  0  0  0  0  0  0  0
   11.0172  -15.9547   23.9719 C   0  0  0  0  0  0  0  0  0  0  0  0
   12.0000  -15.6193   24.7275 O   0  0  0  0  0  0  0  0  0  0  0  0
    9.8147  -16.2082   24.6242 N   0  0  0  0  0  0  0  0  0  0  0  0
    9.6039  -15.7801   26.0766 C   0  0  1  0  0  0  0  0  0  0  0  0
    8.3148  -15.0316   25.9628 C   0  0  0  0  0  0  0  0  0  0  0  0
    8.0732  -13.7572   26.6106 C   0  0  0  0  0  0  0  0  0  0  0  0
    6.7840  -13.0704   26.4031 C   0  0  0  0  0  0  0  0  0  0  0  0
    6.6891  -11.7916   27.2623 C   0  0  0  0  0  0  0  0  0  0  0  0
    5.4312  -11.1369   27.0805 N   0  0  0  0  0  0  0  0  0  0  0  0
    9.5602  -17.0764   26.7702 C   0  0  0  0  0  0  0  0  0  0  0  0
    9.5439  -18.3090   26.0704 O   0  0  0  0  0  0  0  0  0  0  0  0
    9.5343  -17.1852   27.9985 O   0  0  0  0  0  0  0  0  0  0  0  0
  2  1  1  6
  3  2  1  0
  4  5  1  0
  4  2  1  0
  5  6  1  1
  7  5  1  0
  7  8  2  0
  9  7  1  0
 10  9  1  0
 10 11  1  0
 11 13  1  0
 12 11  2  0
 13 14  1  0
 14 15  1  6
 14 20  1  0
 16 15  1  0
 17 16  1  0
 18 17  1  0
 19 18  1  0
 20 22  2  0
 20 21  1  0
M  END
$$$$
