LGK.pdb
     RDKit          3D

 22 21  0  0  1  0  0  0  0  0999 V2000
   10.1618  -21.5372   19.5729 C   0  0  0  0  0  0  0  0  0  0  0  0
   10.8214  -20.3708   20.2749 C   0  0  2  0  0  0  0  0  0  0  0  0
   11.8459  -20.8532   21.2905 C   0  0  0  0  0  0  0  0  0  0  0  0
    9.7489  -19.5431   20.9451 C   0  0  0  0  0  0  0  0  0  0  0  0
    8.8902  -18.8141   19.9584 C   0  0  2  0  0  0  0  0  0  0  0  0
    9.5741  -18.6540   18.7219 N   0  0  0  0  0  0  0  0  0  0  0  0
    8.3133  -17.5749   20.5249 C   0  0  0  0  0  0  0  0  0  0  0  0
    7.5876  -17.7079   21.5382 O   0  0  0  0  0  0  0  0  0  0  0  0
    8.5341  -16.2757   19.9931 N   0  0  0  0  0  0  0  0  0  0  0  0
    8.0545  -15.0646   20.5937 C   0  0  0  0  0  0  0  0  0  0  0  0
    8.5797  -14.7601   21.9230 C   0  0  0  0  0  0  0  0  0  0  0  0
    9.8354  -14.5489   22.0905 O   0  0  0  0  0  0  0  0  0  0  0  0
    7.7967  -14.6793   23.0702 N   0  0  0  0  0  0  0  0  0  0  0  0
    8.3660  -14.1126   24.3710 C   0  0  1  0  0  0  0  0  0  0  0  0
    7.1822  -13.3614   24.8900 C   0  0  0  0  0  0  0  0  0  0  0  0
    7.2340  -12.4966   26.0525 C   0  0  0  0  0  0  0  0  0  0  0  0
    6.0091  -11.8052   26.4979 C   0  0  0  0  0  0  0  0  0  0  0  0
    6.2587  -11.0110   27.7977 C   0  0  0  0  0  0  0  0  0  0  0  0
    5.0632  -10.3724   28.2530 N   0  0  0  0  0  0  0  0  0  0  0  0
    8.7447  -15.3366   25.0934 C   0  0  0  0  0  0  0  0  0  0  0  0
    8.4900  -16.6310   24.5748 O   0  0  0  0  0  0  0  0  0  0  0  0
    9.3055  -15.3269   26.1920 O   0  0  0  0  0  0  0  0  0  0  0  0
  2  1  1  1
  3  2  1  0
  4  5  1  0
  4  2  1  0
  5  6  1  6
  7  5  1  0
  7  8  2  0
  9  7  1  0
 10  9  1  0
 10 11  1  0
 11 13  1  0
 12 11  2  0
 13 14  1  0
 14 15  1  1
 14 20  1  0
 16 15  1  0
 17 16  1  0
 18 17  1  0
 19 18  1  0
 20 22  2  0
 20 21  1  0
M  END
$$$$
