CPH.pdb
     RDKit          3D

 24 25  0  0  1  0  0  0  0  0999 V2000
   10.5056  -16.0187   16.4190 N   0  0  0  0  0  0  0  0  0  0  0  0
    9.3212  -15.9375   17.2418 C   0  0  1  0  0  0  0  0  0  0  0  0
    8.8397  -17.3911   17.3785 C   0  0  0  0  0  0  0  0  0  0  0  0
    7.4382  -17.4591   18.5232 S   0  0  0  0  0  0  0  0  0  0  0  0
    9.7192  -15.4337   18.6155 C   0  0  0  0  0  0  0  0  0  0  0  0
   10.6055  -16.1496   19.1597 O   0  0  0  0  0  0  0  0  0  0  0  0
    9.1300  -14.2899   19.1677 N   0  0  0  0  0  0  0  0  0  0  0  0
    8.6718  -13.1565   18.3352 C   0  0  0  0  0  0  0  0  0  0  0  0
    7.3188  -12.8996   18.9388 C   0  0  0  0  0  0  0  0  0  0  0  0
    7.3404  -13.4794   20.3239 C   0  0  0  0  0  0  0  0  0  0  0  0
    8.8487  -13.8473   20.4768 C   0  0  1  0  0  0  0  0  0  0  0  0
    9.0250  -14.7325   21.6065 C   0  0  0  0  0  0  0  0  0  0  0  0
    8.2380  -14.8143   22.5544 O   0  0  0  0  0  0  0  0  0  0  0  0
   10.1713  -15.5711   21.6479 N   0  0  0  0  0  0  0  0  0  0  0  0
   10.4357  -16.4478   22.7931 C   0  0  1  0  0  0  0  0  0  0  0  0
   10.3745  -17.8533   22.2419 C   0  0  0  0  0  0  0  0  0  0  0  0
    9.0384  -18.2391   21.7432 C   0  0  0  0  0  0  0  0  0  0  0  0
    7.8126  -17.6779   22.0186 C   0  0  0  0  0  0  0  0  0  0  0  0
    6.8435  -18.3328   21.3669 N   0  0  0  0  0  0  0  0  0  0  0  0
    7.4373  -19.3241   20.6644 C   0  0  0  0  0  0  0  0  0  0  0  0
    8.7643  -19.2636   20.8950 N   0  0  0  0  0  0  0  0  0  0  0  0
   11.8019  -16.2203   23.3222 C   0  0  0  0  0  0  0  0  0  0  0  0
   12.2491  -16.7512   24.3475 O   0  0  0  0  0  0  0  0  0  0  0  0
   12.6693  -15.3505   22.6370 O   0  0  0  0  0  0  0  0  0  0  0  0
  2  1  1  6
  2  5  1  0
  3  2  1  0
  4  3  1  0
  5  6  2  0
  7 11  1  0
  7  5  1  0
  8  7  1  0
  9 10  1  0
  9  8  1  0
 10 11  1  0
 11 12  1  1
 12 13  2  0
 12 14  1  0
 14 15  1  0
 15 16  1  6
 15 22  1  0
 16 17  1  0
 17 18  2  0
 17 21  1  0
 18 19  1  0
 19 20  1  0
 21 20  2  0
 22 24  1  0
 23 22  2  0
M  END
$$$$
