CPH.pdb
     RDKit          3D

 24 25  0  0  1  0  0  0  0  0999 V2000
    8.7934  -17.2676   16.7269 N   0  0  0  0  0  0  0  0  0  0  0  0
    7.9703  -16.7941   17.8153 C   0  0  1  0  0  0  0  0  0  0  0  0
    7.3524  -18.0653   18.4200 C   0  0  0  0  0  0  0  0  0  0  0  0
    6.3179  -17.6197   19.8378 S   0  0  0  0  0  0  0  0  0  0  0  0
    8.8666  -16.1546   18.8579 C   0  0  0  0  0  0  0  0  0  0  0  0
    9.6836  -16.9721   19.3662 O   0  0  0  0  0  0  0  0  0  0  0  0
    8.7519  -14.7966   19.1789 N   0  0  0  0  0  0  0  0  0  0  0  0
    8.4608  -13.7653   18.1596 C   0  0  0  0  0  0  0  0  0  0  0  0
    7.3947  -12.9732   18.8646 C   0  0  0  0  0  0  0  0  0  0  0  0
    7.5495  -13.2420   20.3339 C   0  0  0  0  0  0  0  0  0  0  0  0
    8.8918  -14.0366   20.3585 C   0  0  1  0  0  0  0  0  0  0  0  0
    9.0517  -14.6886   21.6392 C   0  0  0  0  0  0  0  0  0  0  0  0
    8.1494  -14.8133   22.4728 O   0  0  0  0  0  0  0  0  0  0  0  0
   10.3215  -15.2277   21.9801 N   0  0  0  0  0  0  0  0  0  0  0  0
   10.5463  -15.9004   23.2635 C   0  0  1  0  0  0  0  0  0  0  0  0
    9.8239  -17.2229   23.1526 C   0  0  0  0  0  0  0  0  0  0  0  0
    8.5758  -17.2870   23.9407 C   0  0  0  0  0  0  0  0  0  0  0  0
    7.9820  -16.3119   24.7088 C   0  0  0  0  0  0  0  0  0  0  0  0
    6.8589  -16.7792   25.2681 N   0  0  0  0  0  0  0  0  0  0  0  0
    6.7186  -18.0623   24.8647 C   0  0  0  0  0  0  0  0  0  0  0  0
    7.7590  -18.3649   24.0624 N   0  0  0  0  0  0  0  0  0  0  0  0
   11.9887  -16.1796   23.4627 C   0  0  0  0  0  0  0  0  0  0  0  0
   12.4797  -16.5838   24.5251 O   0  0  0  0  0  0  0  0  0  0  0  0
   12.8819  -15.9820   22.3942 O   0  0  0  0  0  0  0  0  0  0  0  0
  2  1  1  6
  2  5  1  0
  3  2  1  0
  4  3  1  0
  5  6  2  0
  7 11  1  0
  7  5  1  0
  8  7  1  0
  9 10  1  0
  9  8  1  0
 10 11  1  0
 11 12  1  1
 12 13  2  0
 12 14  1  0
 14 15  1  0
 15 16  1  6
 15 22  1  0
 16 17  1  0
 17 18  2  0
 17 21  1  0
 18 19  1  0
 19 20  1  0
 21 20  2  0
 22 24  1  0
 23 22  2  0
M  END
$$$$
