CPH.pdb
     RDKit          3D

 24 25  0  0  1  0  0  0  0  0999 V2000
    8.7937  -16.5035   16.2923 N   0  0  0  0  0  0  0  0  0  0  0  0
    7.8495  -16.2531   17.3563 C   0  0  1  0  0  0  0  0  0  0  0  0
    7.0571  -17.5634   17.4924 C   0  0  0  0  0  0  0  0  0  0  0  0
    6.0643  -17.5156   19.0060 S   0  0  0  0  0  0  0  0  0  0  0  0
    8.6189  -16.0228   18.6425 C   0  0  0  0  0  0  0  0  0  0  0  0
    9.3156  -17.0205   18.9793 O   0  0  0  0  0  0  0  0  0  0  0  0
    8.5250  -14.8108   19.3371 N   0  0  0  0  0  0  0  0  0  0  0  0
    8.3223  -13.5182   18.6475 C   0  0  0  0  0  0  0  0  0  0  0  0
    7.2409  -12.9161   19.5013 C   0  0  0  0  0  0  0  0  0  0  0  0
    7.3039  -13.6024   20.8355 C   0  0  0  0  0  0  0  0  0  0  0  0
    8.6192  -14.4288   20.6913 C   0  0  1  0  0  0  0  0  0  0  0  0
    8.6871  -15.4278   21.7345 C   0  0  0  0  0  0  0  0  0  0  0  0
    7.7199  -16.0848   22.1312 O   0  0  0  0  0  0  0  0  0  0  0  0
    9.9384  -15.6855   22.3564 N   0  0  0  0  0  0  0  0  0  0  0  0
   10.0657  -16.6652   23.4400 C   0  0  1  0  0  0  0  0  0  0  0  0
   11.4172  -17.3100   23.2379 C   0  0  0  0  0  0  0  0  0  0  0  0
   11.7826  -18.2708   24.2993 C   0  0  0  0  0  0  0  0  0  0  0  0
   11.0440  -19.3045   24.8276 C   0  0  0  0  0  0  0  0  0  0  0  0
   11.7402  -19.9340   25.7824 N   0  0  0  0  0  0  0  0  0  0  0  0
   12.9362  -19.3101   25.8782 C   0  0  0  0  0  0  0  0  0  0  0  0
   12.9572  -18.3052   24.9797 N   0  0  0  0  0  0  0  0  0  0  0  0
   10.0714  -15.9888   24.7593 C   0  0  0  0  0  0  0  0  0  0  0  0
   10.3180  -14.7867   24.9247 O   0  0  0  0  0  0  0  0  0  0  0  0
    9.7819  -16.7345   25.9163 O   0  0  0  0  0  0  0  0  0  0  0  0
  2  1  1  6
  2  5  1  0
  3  2  1  0
  4  3  1  0
  5  6  2  0
  7 11  1  0
  7  5  1  0
  8  7  1  0
  9 10  1  0
  9  8  1  0
 10 11  1  0
 11 12  1  1
 12 13  2  0
 12 14  1  0
 14 15  1  0
 15 16  1  6
 15 22  1  0
 16 17  1  0
 17 18  2  0
 17 21  1  0
 18 19  1  0
 19 20  1  0
 21 20  2  0
 22 24  1  0
 23 22  2  0
M  END
$$$$
