CPH.pdb
     RDKit          3D

 24 25  0  0  1  0  0  0  0  0999 V2000
    5.7549  -18.1894   24.3256 N   0  0  0  0  0  0  0  0  0  0  0  0
    6.2040  -16.8170   24.2893 C   0  0  1  0  0  0  0  0  0  0  0  0
    6.3463  -16.4130   25.7658 C   0  0  0  0  0  0  0  0  0  0  0  0
    6.2884  -14.6087   25.9076 S   0  0  0  0  0  0  0  0  0  0  0  0
    7.5765  -16.7732   23.6463 C   0  0  0  0  0  0  0  0  0  0  0  0
    8.3827  -17.5976   24.1608 O   0  0  0  0  0  0  0  0  0  0  0  0
    7.8584  -15.8901   22.5970 N   0  0  0  0  0  0  0  0  0  0  0  0
    6.8378  -15.4917   21.6034 C   0  0  0  0  0  0  0  0  0  0  0  0
    7.0625  -14.0057   21.5571 C   0  0  0  0  0  0  0  0  0  0  0  0
    8.4575  -13.7584   22.0551 C   0  0  0  0  0  0  0  0  0  0  0  0
    9.0110  -15.2141   22.1463 C   0  0  1  0  0  0  0  0  0  0  0  0
   10.2259  -15.2281   22.9303 C   0  0  0  0  0  0  0  0  0  0  0  0
   11.1507  -14.4216   22.7929 O   0  0  0  0  0  0  0  0  0  0  0  0
   10.3859  -16.2263   23.9288 N   0  0  0  0  0  0  0  0  0  0  0  0
   10.9143  -15.9004   25.2572 C   0  0  1  0  0  0  0  0  0  0  0  0
    9.7876  -15.1907   25.9715 C   0  0  0  0  0  0  0  0  0  0  0  0
   10.0716  -14.9037   27.3927 C   0  0  0  0  0  0  0  0  0  0  0  0
   10.5187  -13.7382   27.9714 C   0  0  0  0  0  0  0  0  0  0  0  0
   10.6566  -13.8977   29.2936 N   0  0  0  0  0  0  0  0  0  0  0  0
   10.2990  -15.1702   29.5794 C   0  0  0  0  0  0  0  0  0  0  0  0
    9.9461  -15.7746   28.4271 N   0  0  0  0  0  0  0  0  0  0  0  0
   11.2312  -17.1364   26.0123 C   0  0  0  0  0  0  0  0  0  0  0  0
   10.8898  -18.2737   25.6615 O   0  0  0  0  0  0  0  0  0  0  0  0
   11.9659  -17.0430   27.2081 O   0  0  0  0  0  0  0  0  0  0  0  0
  2  1  1  1
  2  5  1  0
  3  2  1  0
  4  3  1  0
  5  6  2  0
  7 11  1  0
  7  5  1  0
  8  7  1  0
  9 10  1  0
  9  8  1  0
 10 11  1  0
 11 12  1  1
 12 13  2  0
 12 14  1  0
 14 15  1  0
 15 16  1  1
 15 22  1  0
 16 17  1  0
 17 18  2  0
 17 21  1  0
 18 19  1  0
 19 20  1  0
 21 20  2  0
 22 24  1  0
 23 22  2  0
M  END
$$$$
