CPH.pdb
     RDKit          3D

 24 25  0  0  1  0  0  0  0  0999 V2000
    7.7709  -12.8251   18.5748 N   0  0  0  0  0  0  0  0  0  0  0  0
    8.6480  -13.8675   19.0548 C   0  0  1  0  0  0  0  0  0  0  0  0
   10.0165  -13.1850   19.2129 C   0  0  0  0  0  0  0  0  0  0  0  0
   11.2132  -14.3743   19.8705 S   0  0  0  0  0  0  0  0  0  0  0  0
    8.1716  -14.3087   20.4251 C   0  0  0  0  0  0  0  0  0  0  0  0
    8.1951  -13.3742   21.2738 O   0  0  0  0  0  0  0  0  0  0  0  0
    7.7621  -15.6266   20.6613 N   0  0  0  0  0  0  0  0  0  0  0  0
    6.9389  -16.3840   19.6938 C   0  0  0  0  0  0  0  0  0  0  0  0
    7.6728  -17.6962   19.6743 C   0  0  0  0  0  0  0  0  0  0  0  0
    8.4566  -17.7782   20.9525 C   0  0  0  0  0  0  0  0  0  0  0  0
    7.9083  -16.5395   21.7262 C   0  0  1  0  0  0  0  0  0  0  0  0
    8.7760  -16.2353   22.8422 C   0  0  0  0  0  0  0  0  0  0  0  0
    9.9428  -15.8475   22.7293 O   0  0  0  0  0  0  0  0  0  0  0  0
    8.2729  -16.3856   24.1625 N   0  0  0  0  0  0  0  0  0  0  0  0
    9.1054  -16.0974   25.3347 C   0  0  1  0  0  0  0  0  0  0  0  0
    8.1372  -15.6900   26.4210 C   0  0  0  0  0  0  0  0  0  0  0  0
    7.3715  -14.4661   26.1070 C   0  0  0  0  0  0  0  0  0  0  0  0
    7.7799  -13.1526   26.1417 C   0  0  0  0  0  0  0  0  0  0  0  0
    6.7732  -12.3424   25.7913 N   0  0  0  0  0  0  0  0  0  0  0  0
    5.7047  -13.1282   25.5273 C   0  0  0  0  0  0  0  0  0  0  0  0
    6.0711  -14.4113   25.7196 N   0  0  0  0  0  0  0  0  0  0  0  0
    9.8153  -17.3184   25.7857 C   0  0  0  0  0  0  0  0  0  0  0  0
   10.6430  -17.3428   26.7063 O   0  0  0  0  0  0  0  0  0  0  0  0
    9.5527  -18.5431   25.1458 O   0  0  0  0  0  0  0  0  0  0  0  0
  2  1  1  1
  2  5  1  0
  3  2  1  0
  4  3  1  0
  5  6  2  0
  7 11  1  0
  7  5  1  0
  8  7  1  0
  9 10  1  0
  9  8  1  0
 10 11  1  0
 11 12  1  1
 12 13  2  0
 12 14  1  0
 14 15  1  0
 15 16  1  1
 15 22  1  0
 16 17  1  0
 17 18  2  0
 17 21  1  0
 18 19  1  0
 19 20  1  0
 21 20  2  0
 22 24  1  0
 23 22  2  0
M  END
$$$$
