CPH.pdb
     RDKit          3D

 24 25  0  0  1  0  0  0  0  0999 V2000
    5.6685  -13.6598   26.3805 N   0  0  0  0  0  0  0  0  0  0  0  0
    6.3697  -13.4649   25.1328 C   0  0  1  0  0  0  0  0  0  0  0  0
    7.2248  -12.2071   25.3572 C   0  0  0  0  0  0  0  0  0  0  0  0
    7.1011  -11.6925   27.0889 S   0  0  0  0  0  0  0  0  0  0  0  0
    7.2989  -14.6423   24.9102 C   0  0  0  0  0  0  0  0  0  0  0  0
    7.7391  -15.1271   25.9897 O   0  0  0  0  0  0  0  0  0  0  0  0
    7.5983  -15.0966   23.6201 N   0  0  0  0  0  0  0  0  0  0  0  0
    6.6117  -15.0558   22.5189 C   0  0  0  0  0  0  0  0  0  0  0  0
    7.4569  -14.4896   21.4117 C   0  0  0  0  0  0  0  0  0  0  0  0
    8.8892  -14.7626   21.7712 C   0  0  0  0  0  0  0  0  0  0  0  0
    8.7199  -15.6954   23.0101 C   0  0  1  0  0  0  0  0  0  0  0  0
    9.9753  -15.7998   23.7200 C   0  0  0  0  0  0  0  0  0  0  0  0
   10.8829  -14.9653   23.6528 O   0  0  0  0  0  0  0  0  0  0  0  0
   10.1992  -16.9279   24.5544 N   0  0  0  0  0  0  0  0  0  0  0  0
   11.4262  -17.0612   25.3461 C   0  0  1  0  0  0  0  0  0  0  0  0
   10.9626  -17.2458   26.7723 C   0  0  0  0  0  0  0  0  0  0  0  0
   10.5074  -15.9965   27.4164 C   0  0  0  0  0  0  0  0  0  0  0  0
   10.4008  -14.7326   26.8829 C   0  0  0  0  0  0  0  0  0  0  0  0
    9.9527  -13.8734   27.8068 N   0  0  0  0  0  0  0  0  0  0  0  0
    9.7663  -14.5774   28.9464 C   0  0  0  0  0  0  0  0  0  0  0  0
   10.1030  -15.8604   28.7055 N   0  0  0  0  0  0  0  0  0  0  0  0
   12.1781  -18.2748   24.9460 C   0  0  0  0  0  0  0  0  0  0  0  0
   13.3684  -18.4784   25.2197 O   0  0  0  0  0  0  0  0  0  0  0  0
   11.5241  -19.2772   24.2073 O   0  0  0  0  0  0  0  0  0  0  0  0
  2  1  1  1
  2  5  1  0
  3  2  1  0
  4  3  1  0
  5  6  2  0
  7 11  1  0
  7  5  1  0
  8  7  1  0
  9 10  1  0
  9  8  1  0
 10 11  1  0
 11 12  1  1
 12 13  2  0
 12 14  1  0
 14 15  1  0
 15 16  1  1
 15 22  1  0
 16 17  1  0
 17 18  2  0
 17 21  1  0
 18 19  1  0
 19 20  1  0
 21 20  2  0
 22 24  1  0
 23 22  2  0
M  END
$$$$
