CPH.pdb
     RDKit          3D

 24 25  0  0  1  0  0  0  0  0999 V2000
    9.1112  -16.2700   15.9839 N   0  0  0  0  0  0  0  0  0  0  0  0
    8.1484  -16.1356   17.0522 C   0  0  1  0  0  0  0  0  0  0  0  0
    7.4848  -17.5184   17.1569 C   0  0  0  0  0  0  0  0  0  0  0  0
    6.5741  -17.6358   18.7176 S   0  0  0  0  0  0  0  0  0  0  0  0
    8.8936  -15.8630   18.3444 C   0  0  0  0  0  0  0  0  0  0  0  0
    9.7178  -16.7746   18.6337 O   0  0  0  0  0  0  0  0  0  0  0  0
    8.6491  -14.7051   19.0926 N   0  0  0  0  0  0  0  0  0  0  0  0
    8.2488  -13.4276   18.4639 C   0  0  0  0  0  0  0  0  0  0  0  0
    7.1167  -13.0189   19.3650 C   0  0  0  0  0  0  0  0  0  0  0  0
    7.3106  -13.7422   20.6667 C   0  0  0  0  0  0  0  0  0  0  0  0
    8.7246  -14.3680   20.4599 C   0  0  1  0  0  0  0  0  0  0  0  0
    8.9595  -15.3883   21.4572 C   0  0  0  0  0  0  0  0  0  0  0  0
    8.0653  -16.0103   22.0387 O   0  0  0  0  0  0  0  0  0  0  0  0
   10.2987  -15.7112   21.8052 N   0  0  0  0  0  0  0  0  0  0  0  0
   10.6012  -16.6392   22.8995 C   0  0  1  0  0  0  0  0  0  0  0  0
   11.4964  -17.6940   22.2920 C   0  0  0  0  0  0  0  0  0  0  0  0
   10.7732  -18.6875   21.4717 C   0  0  0  0  0  0  0  0  0  0  0  0
    9.4178  -18.8859   21.3418 C   0  0  0  0  0  0  0  0  0  0  0  0
    9.1739  -19.8995   20.5017 N   0  0  0  0  0  0  0  0  0  0  0  0
   10.3724  -20.3644   20.0819 C   0  0  0  0  0  0  0  0  0  0  0  0
   11.3364  -19.6286   20.6711 N   0  0  0  0  0  0  0  0  0  0  0  0
   11.3609  -15.9536   23.9724 C   0  0  0  0  0  0  0  0  0  0  0  0
   11.9138  -14.8535   23.8404 O   0  0  0  0  0  0  0  0  0  0  0  0
   11.4787  -16.5675   25.2324 O   0  0  0  0  0  0  0  0  0  0  0  0
  2  1  1  6
  2  5  1  0
  3  2  1  0
  4  3  1  0
  5  6  2  0
  7 11  1  0
  7  5  1  0
  8  7  1  0
  9 10  1  0
  9  8  1  0
 10 11  1  0
 11 12  1  1
 12 13  2  0
 12 14  1  0
 14 15  1  0
 15 16  1  6
 15 22  1  0
 16 17  1  0
 17 18  2  0
 17 21  1  0
 18 19  1  0
 19 20  1  0
 21 20  2  0
 22 24  1  0
 23 22  2  0
M  END
$$$$
