CPH.pdb
     RDKit          3D

 24 25  0  0  1  0  0  0  0  0999 V2000
    9.3003  -16.9267   16.9821 N   0  0  0  0  0  0  0  0  0  0  0  0
    8.2676  -16.5681   17.9261 C   0  0  1  0  0  0  0  0  0  0  0  0
    7.4835  -17.8694   18.1610 C   0  0  0  0  0  0  0  0  0  0  0  0
    6.3814  -17.6633   19.5830 S   0  0  0  0  0  0  0  0  0  0  0  0
    8.9240  -16.1622   19.2313 C   0  0  0  0  0  0  0  0  0  0  0  0
    9.6684  -17.0656   19.7044 O   0  0  0  0  0  0  0  0  0  0  0  0
    8.6899  -14.9048   19.8011 N   0  0  0  0  0  0  0  0  0  0  0  0
    8.4475  -13.6981   18.9810 C   0  0  0  0  0  0  0  0  0  0  0  0
    7.2632  -13.1106   19.6974 C   0  0  0  0  0  0  0  0  0  0  0  0
    7.2735  -13.6695   21.0911 C   0  0  0  0  0  0  0  0  0  0  0  0
    8.6523  -14.3988   21.1168 C   0  0  1  0  0  0  0  0  0  0  0  0
    8.7123  -15.2935   22.2512 C   0  0  0  0  0  0  0  0  0  0  0  0
    7.7452  -15.9216   22.6925 O   0  0  0  0  0  0  0  0  0  0  0  0
    9.9552  -15.4759   22.9153 N   0  0  0  0  0  0  0  0  0  0  0  0
   10.0762  -16.3564   24.0816 C   0  0  1  0  0  0  0  0  0  0  0  0
   11.4941  -16.8772   24.0427 C   0  0  0  0  0  0  0  0  0  0  0  0
   11.7513  -17.8203   22.9349 C   0  0  0  0  0  0  0  0  0  0  0  0
   10.8839  -18.6901   22.3150 C   0  0  0  0  0  0  0  0  0  0  0  0
   11.5187  -19.3775   21.3573 N   0  0  0  0  0  0  0  0  0  0  0  0
   12.8036  -18.9559   21.3515 C   0  0  0  0  0  0  0  0  0  0  0  0
   12.9396  -18.0146   22.3069 N   0  0  0  0  0  0  0  0  0  0  0  0
    9.9027  -15.5882   25.3378 C   0  0  0  0  0  0  0  0  0  0  0  0
    9.7980  -14.3556   25.3916 O   0  0  0  0  0  0  0  0  0  0  0  0
    9.8498  -16.2762   26.5635 O   0  0  0  0  0  0  0  0  0  0  0  0
  2  1  1  6
  2  5  1  0
  3  2  1  0
  4  3  1  0
  5  6  2  0
  7 11  1  0
  7  5  1  0
  8  7  1  0
  9 10  1  0
  9  8  1  0
 10 11  1  0
 11 12  1  1
 12 13  2  0
 12 14  1  0
 14 15  1  0
 15 16  1  1
 15 22  1  0
 16 17  1  0
 17 18  2  0
 17 21  1  0
 18 19  1  0
 19 20  1  0
 21 20  2  0
 22 24  1  0
 23 22  2  0
M  END
$$$$
