CPH.pdb
     RDKit          3D

 24 25  0  0  1  0  0  0  0  0999 V2000
    8.9798  -13.4685   17.8475 N   0  0  0  0  0  0  0  0  0  0  0  0
    9.6751  -14.4956   18.5878 C   0  0  1  0  0  0  0  0  0  0  0  0
   10.9518  -13.8107   19.1019 C   0  0  0  0  0  0  0  0  0  0  0  0
   12.2245  -13.8591   17.8147 S   0  0  0  0  0  0  0  0  0  0  0  0
    8.8283  -14.8889   19.7826 C   0  0  0  0  0  0  0  0  0  0  0  0
    8.2417  -13.9032   20.3104 O   0  0  0  0  0  0  0  0  0  0  0  0
    8.7462  -16.2207   20.2068 N   0  0  0  0  0  0  0  0  0  0  0  0
    8.6010  -17.3453   19.2572 C   0  0  0  0  0  0  0  0  0  0  0  0
    9.6225  -18.3031   19.8051 C   0  0  0  0  0  0  0  0  0  0  0  0
    9.8495  -17.9266   21.2410 C   0  0  0  0  0  0  0  0  0  0  0  0
    8.7250  -16.8676   21.4598 C   0  0  1  0  0  0  0  0  0  0  0  0
    8.9797  -16.1263   22.6749 C   0  0  0  0  0  0  0  0  0  0  0  0
   10.0608  -15.5984   22.9529 O   0  0  0  0  0  0  0  0  0  0  0  0
    7.9316  -15.9843   23.6237 N   0  0  0  0  0  0  0  0  0  0  0  0
    8.0707  -15.1069   24.7902 C   0  0  1  0  0  0  0  0  0  0  0  0
    6.7198  -14.4516   24.9598 C   0  0  0  0  0  0  0  0  0  0  0  0
    6.6612  -13.4909   26.0808 C   0  0  0  0  0  0  0  0  0  0  0  0
    7.6643  -13.0846   26.9305 C   0  0  0  0  0  0  0  0  0  0  0  0
    7.1922  -12.2023   27.8201 N   0  0  0  0  0  0  0  0  0  0  0  0
    5.8779  -12.0320   27.5512 C   0  0  0  0  0  0  0  0  0  0  0  0
    5.5613  -12.8130   26.4990 N   0  0  0  0  0  0  0  0  0  0  0  0
    8.3538  -15.8997   26.0107 C   0  0  0  0  0  0  0  0  0  0  0  0
    7.8453  -17.0009   26.2595 O   0  0  0  0  0  0  0  0  0  0  0  0
    9.2539  -15.3944   26.9662 O   0  0  0  0  0  0  0  0  0  0  0  0
  2  1  1  6
  2  5  1  0
  3  2  1  0
  4  3  1  0
  5  6  2  0
  7 11  1  0
  7  5  1  0
  8  7  1  0
  9 10  1  0
  9  8  1  0
 10 11  1  0
 11 12  1  1
 12 13  2  0
 12 14  1  0
 14 15  1  0
 15 16  1  1
 15 22  1  0
 16 17  1  0
 17 18  2  0
 17 21  1  0
 18 19  1  0
 19 20  1  0
 21 20  2  0
 22 24  1  0
 23 22  2  0
M  END
$$$$
