CPH.pdb
     RDKit          3D

 24 25  0  0  1  0  0  0  0  0999 V2000
    9.1850  -16.0255   15.8959 N   0  0  0  0  0  0  0  0  0  0  0  0
    8.2571  -15.9376   16.9993 C   0  0  1  0  0  0  0  0  0  0  0  0
    7.6076  -17.3289   17.0759 C   0  0  0  0  0  0  0  0  0  0  0  0
    6.6558  -17.4687   18.6100 S   0  0  0  0  0  0  0  0  0  0  0  0
    9.0424  -15.7047   18.2754 C   0  0  0  0  0  0  0  0  0  0  0  0
    9.8899  -16.6135   18.4991 O   0  0  0  0  0  0  0  0  0  0  0  0
    8.8065  -14.5819   19.0779 N   0  0  0  0  0  0  0  0  0  0  0  0
    8.4709  -13.2592   18.5077 C   0  0  0  0  0  0  0  0  0  0  0  0
    7.3190  -12.8627   19.3891 C   0  0  0  0  0  0  0  0  0  0  0  0
    7.4407  -13.6622   20.6544 C   0  0  0  0  0  0  0  0  0  0  0  0
    8.8410  -14.3230   20.4638 C   0  0  1  0  0  0  0  0  0  0  0  0
    9.0057  -15.4037   21.4102 C   0  0  0  0  0  0  0  0  0  0  0  0
    8.0922  -16.1462   21.7829 O   0  0  0  0  0  0  0  0  0  0  0  0
   10.2942  -15.6439   21.9590 N   0  0  0  0  0  0  0  0  0  0  0  0
   10.5189  -16.7053   22.9454 C   0  0  1  0  0  0  0  0  0  0  0  0
   11.9202  -17.2050   22.6814 C   0  0  0  0  0  0  0  0  0  0  0  0
   12.0321  -18.0544   21.4777 C   0  0  0  0  0  0  0  0  0  0  0  0
   11.0482  -18.4583   20.6046 C   0  0  0  0  0  0  0  0  0  0  0  0
   11.5675  -19.2323   19.6434 N   0  0  0  0  0  0  0  0  0  0  0  0
   12.8934  -19.3345   19.8892 C   0  0  0  0  0  0  0  0  0  0  0  0
   13.1696  -18.6209   20.9991 N   0  0  0  0  0  0  0  0  0  0  0  0
   10.4777  -16.1575   24.3225 C   0  0  0  0  0  0  0  0  0  0  0  0
   10.4306  -14.9495   24.5904 O   0  0  0  0  0  0  0  0  0  0  0  0
   10.4918  -17.0423   25.4158 O   0  0  0  0  0  0  0  0  0  0  0  0
  2  1  1  6
  2  5  1  0
  3  2  1  0
  4  3  1  0
  5  6  2  0
  7 11  1  0
  7  5  1  0
  8  7  1  0
  9 10  1  0
  9  8  1  0
 10 11  1  0
 11 12  1  1
 12 13  2  0
 12 14  1  0
 14 15  1  0
 15 16  1  6
 15 22  1  0
 16 17  1  0
 17 18  2  0
 17 21  1  0
 18 19  1  0
 19 20  1  0
 21 20  2  0
 22 24  1  0
 23 22  2  0
M  END
$$$$
