CPH.pdb
     RDKit          3D

 24 25  0  0  1  0  0  0  0  0999 V2000
    5.5440  -13.9240   26.5017 N   0  0  0  0  0  0  0  0  0  0  0  0
    6.2063  -13.6171   25.2553 C   0  0  1  0  0  0  0  0  0  0  0  0
    6.9592  -12.3042   25.5256 C   0  0  0  0  0  0  0  0  0  0  0  0
    7.3670  -12.1921   27.2863 S   0  0  0  0  0  0  0  0  0  0  0  0
    7.2249  -14.7029   24.9677 C   0  0  0  0  0  0  0  0  0  0  0  0
    7.7426  -15.1763   26.0175 O   0  0  0  0  0  0  0  0  0  0  0  0
    7.5169  -15.0948   23.6557 N   0  0  0  0  0  0  0  0  0  0  0  0
    6.5130  -15.0357   22.5711 C   0  0  0  0  0  0  0  0  0  0  0  0
    7.3256  -14.4008   21.4768 C   0  0  0  0  0  0  0  0  0  0  0  0
    8.7700  -14.6486   21.8044 C   0  0  0  0  0  0  0  0  0  0  0  0
    8.6449  -15.6364   23.0054 C   0  0  1  0  0  0  0  0  0  0  0  0
    9.9133  -15.7353   23.6927 C   0  0  0  0  0  0  0  0  0  0  0  0
   10.8504  -14.9462   23.5383 O   0  0  0  0  0  0  0  0  0  0  0  0
   10.1149  -16.8020   24.6094 N   0  0  0  0  0  0  0  0  0  0  0  0
   11.4205  -17.0357   25.2346 C   0  0  1  0  0  0  0  0  0  0  0  0
   11.1294  -17.2336   26.7040 C   0  0  0  0  0  0  0  0  0  0  0  0
   10.7194  -15.9971   27.4010 C   0  0  0  0  0  0  0  0  0  0  0  0
   10.5264  -14.7344   26.8895 C   0  0  0  0  0  0  0  0  0  0  0  0
   10.1629  -13.8886   27.8617 N   0  0  0  0  0  0  0  0  0  0  0  0
   10.1186  -14.6002   29.0109 C   0  0  0  0  0  0  0  0  0  0  0  0
   10.4558  -15.8743   28.7275 N   0  0  0  0  0  0  0  0  0  0  0  0
   12.0342  -18.2816   24.7154 C   0  0  0  0  0  0  0  0  0  0  0  0
   11.4538  -19.0886   23.9771 O   0  0  0  0  0  0  0  0  0  0  0  0
   13.3598  -18.5942   25.0668 O   0  0  0  0  0  0  0  0  0  0  0  0
  2  1  1  1
  2  5  1  0
  3  2  1  0
  4  3  1  0
  5  6  2  0
  7 11  1  0
  7  5  1  0
  8  7  1  0
  9 10  1  0
  9  8  1  0
 10 11  1  0
 11 12  1  1
 12 13  2  0
 12 14  1  0
 14 15  1  0
 15 16  1  1
 15 22  1  0
 16 17  1  0
 17 18  2  0
 17 21  1  0
 18 19  1  0
 19 20  1  0
 21 20  2  0
 22 24  1  0
 23 22  2  0
M  END
$$$$
