CPH.pdb
     RDKit          3D

 24 25  0  0  1  0  0  0  0  0999 V2000
    9.3087  -17.8696   18.1528 N   0  0  0  0  0  0  0  0  0  0  0  0
    8.3933  -17.1799   19.0319 C   0  0  1  0  0  0  0  0  0  0  0  0
    7.8529  -18.2724   19.9688 C   0  0  0  0  0  0  0  0  0  0  0  0
    6.6114  -19.2592   19.0948 S   0  0  0  0  0  0  0  0  0  0  0  0
    9.1776  -16.1822   19.8618 C   0  0  0  0  0  0  0  0  0  0  0  0
   10.1026  -16.7235   20.5294 O   0  0  0  0  0  0  0  0  0  0  0  0
    8.8613  -14.8184   19.8470 N   0  0  0  0  0  0  0  0  0  0  0  0
    8.3236  -14.1447   18.6451 C   0  0  0  0  0  0  0  0  0  0  0  0
    7.1969  -13.3552   19.2517 C   0  0  0  0  0  0  0  0  0  0  0  0
    7.5070  -13.2021   20.7130 C   0  0  0  0  0  0  0  0  0  0  0  0
    8.9616  -13.7623   20.7762 C   0  0  1  0  0  0  0  0  0  0  0  0
    9.3267  -14.0239   22.1506 C   0  0  0  0  0  0  0  0  0  0  0  0
    9.4198  -13.1543   23.0223 O   0  0  0  0  0  0  0  0  0  0  0  0
    9.6001  -15.3615   22.5446 N   0  0  0  0  0  0  0  0  0  0  0  0
    9.9674  -15.6914   23.9253 C   0  0  1  0  0  0  0  0  0  0  0  0
    8.6869  -16.1573   24.5782 C   0  0  0  0  0  0  0  0  0  0  0  0
    7.7850  -15.0554   24.9723 C   0  0  0  0  0  0  0  0  0  0  0  0
    8.0143  -13.6987   24.9618 C   0  0  0  0  0  0  0  0  0  0  0  0
    6.9360  -13.0406   25.4055 N   0  0  0  0  0  0  0  0  0  0  0  0
    6.0003  -13.9693   25.7067 C   0  0  0  0  0  0  0  0  0  0  0  0
    6.5180  -15.1859   25.4433 N   0  0  0  0  0  0  0  0  0  0  0  0
   10.9344  -16.8150   23.9555 C   0  0  0  0  0  0  0  0  0  0  0  0
   11.4498  -17.2626   24.9885 O   0  0  0  0  0  0  0  0  0  0  0  0
   11.3098  -17.4326   22.7488 O   0  0  0  0  0  0  0  0  0  0  0  0
  2  1  1  6
  2  5  1  0
  3  2  1  0
  4  3  1  0
  5  6  2  0
  7 11  1  0
  7  5  1  0
  8  7  1  0
  9 10  1  0
  9  8  1  0
 10 11  1  0
 11 12  1  1
 12 13  2  0
 12 14  1  0
 14 15  1  0
 15 16  1  1
 15 22  1  0
 16 17  1  0
 17 18  2  0
 17 21  1  0
 18 19  1  0
 19 20  1  0
 21 20  2  0
 22 24  1  0
 23 22  2  0
M  END
$$$$
