CPH.pdb
     RDKit          3D

 24 25  0  0  1  0  0  0  0  0999 V2000
    6.8261  -14.8965   18.7820 N   0  0  0  0  0  0  0  0  0  0  0  0
    7.9134  -14.4805   19.6370 C   0  0  1  0  0  0  0  0  0  0  0  0
    7.6197  -13.0049   19.9532 C   0  0  0  0  0  0  0  0  0  0  0  0
    8.8530  -12.3797   21.1224 S   0  0  0  0  0  0  0  0  0  0  0  0
    7.8429  -15.2704   20.9294 C   0  0  0  0  0  0  0  0  0  0  0  0
    6.9513  -14.8427   21.7144 O   0  0  0  0  0  0  0  0  0  0  0  0
    8.7027  -16.3494   21.1682 N   0  0  0  0  0  0  0  0  0  0  0  0
    9.0474  -17.3327   20.1186 C   0  0  0  0  0  0  0  0  0  0  0  0
   10.5366  -17.4249   20.3046 C   0  0  0  0  0  0  0  0  0  0  0  0
   10.8324  -16.9624   21.7023 C   0  0  0  0  0  0  0  0  0  0  0  0
    9.3940  -16.8420   22.2943 C   0  0  1  0  0  0  0  0  0  0  0  0
    9.4323  -16.0827   23.5243 C   0  0  0  0  0  0  0  0  0  0  0  0
   10.1224  -15.0734   23.6965 O   0  0  0  0  0  0  0  0  0  0  0  0
    8.6314  -16.5086   24.6179 N   0  0  0  0  0  0  0  0  0  0  0  0
    8.9192  -16.0771   25.9894 C   0  0  1  0  0  0  0  0  0  0  0  0
    7.5896  -15.6371   26.5565 C   0  0  0  0  0  0  0  0  0  0  0  0
    7.1444  -14.3144   26.0714 C   0  0  0  0  0  0  0  0  0  0  0  0
    7.7725  -13.4503   25.2042 C   0  0  0  0  0  0  0  0  0  0  0  0
    7.0344  -12.3470   25.0299 N   0  0  0  0  0  0  0  0  0  0  0  0
    5.9217  -12.4904   25.7850 C   0  0  0  0  0  0  0  0  0  0  0  0
    5.9926  -13.6813   26.4129 N   0  0  0  0  0  0  0  0  0  0  0  0
    9.4127  -17.2140   26.8033 C   0  0  0  0  0  0  0  0  0  0  0  0
    9.7837  -17.1183   27.9807 O   0  0  0  0  0  0  0  0  0  0  0  0
    9.4750  -18.4961   26.2283 O   0  0  0  0  0  0  0  0  0  0  0  0
  2  1  1  6
  2  5  1  0
  3  2  1  0
  4  3  1  0
  5  6  2  0
  7 11  1  0
  7  5  1  0
  8  7  1  0
  9 10  1  0
  9  8  1  0
 10 11  1  0
 11 12  1  1
 12 13  2  0
 12 14  1  0
 14 15  1  0
 15 16  1  1
 15 22  1  0
 16 17  1  0
 17 18  2  0
 17 21  1  0
 18 19  1  0
 19 20  1  0
 21 20  2  0
 22 24  1  0
 23 22  2  0
M  END
$$$$
