CPH.pdb
     RDKit          3D

 24 25  0  0  1  0  0  0  0  0999 V2000
    7.9934  -18.2403   18.9873 N   0  0  0  0  0  0  0  0  0  0  0  0
    7.1415  -17.3395   19.7284 C   0  0  1  0  0  0  0  0  0  0  0  0
    6.1262  -18.2532   20.4340 C   0  0  0  0  0  0  0  0  0  0  0  0
    4.8842  -17.2402   21.2768 S   0  0  0  0  0  0  0  0  0  0  0  0
    7.9759  -16.6439   20.7863 C   0  0  0  0  0  0  0  0  0  0  0  0
    8.4937  -17.4511   21.6077 O   0  0  0  0  0  0  0  0  0  0  0  0
    8.1188  -15.2511   20.7979 N   0  0  0  0  0  0  0  0  0  0  0  0
    8.2786  -14.4626   19.5569 C   0  0  0  0  0  0  0  0  0  0  0  0
    7.3089  -13.3427   19.8143 C   0  0  0  0  0  0  0  0  0  0  0  0
    7.1083  -13.2706   21.3008 C   0  0  0  0  0  0  0  0  0  0  0  0
    8.1988  -14.2663   21.8040 C   0  0  1  0  0  0  0  0  0  0  0  0
    7.9510  -14.6061   23.1875 C   0  0  0  0  0  0  0  0  0  0  0  0
    6.9872  -14.1964   23.8416 O   0  0  0  0  0  0  0  0  0  0  0  0
    8.8636  -15.4658   23.8562 N   0  0  0  0  0  0  0  0  0  0  0  0
    8.8100  -15.6551   25.3093 C   0  0  1  0  0  0  0  0  0  0  0  0
    7.4566  -16.2691   25.5819 C   0  0  0  0  0  0  0  0  0  0  0  0
    7.2849  -17.6147   24.9963 C   0  0  0  0  0  0  0  0  0  0  0  0
    8.1362  -18.3216   24.1785 C   0  0  0  0  0  0  0  0  0  0  0  0
    7.6002  -19.5068   23.8613 N   0  0  0  0  0  0  0  0  0  0  0  0
    6.3960  -19.5743   24.4730 C   0  0  0  0  0  0  0  0  0  0  0  0
    6.2097  -18.4282   25.1580 N   0  0  0  0  0  0  0  0  0  0  0  0
    9.8486  -16.6168   25.7505 C   0  0  0  0  0  0  0  0  0  0  0  0
    9.9968  -16.9937   26.9207 O   0  0  0  0  0  0  0  0  0  0  0  0
   10.7378  -17.1529   24.8017 O   0  0  0  0  0  0  0  0  0  0  0  0
  2  1  1  6
  2  5  1  0
  3  2  1  0
  4  3  1  0
  5  6  2  0
  7 11  1  0
  7  5  1  0
  8  7  1  0
  9 10  1  0
  9  8  1  0
 10 11  1  0
 11 12  1  1
 12 13  2  0
 12 14  1  0
 14 15  1  0
 15 16  1  6
 15 22  1  0
 16 17  1  0
 17 18  2  0
 17 21  1  0
 18 19  1  0
 19 20  1  0
 21 20  2  0
 22 24  1  0
 23 22  2  0
M  END
$$$$
