DPE.pdb
     RDKit          3D

 25 25  0  0  1  0  0  0  0  0999 V2000
    7.7200  -14.4282   20.9469 N   0  0  0  0  0  0  0  0  0  0  0  0
    7.3381  -14.7696   22.2798 C   0  0  1  0  0  0  0  0  0  0  0  0
    6.9797  -16.2103   22.4396 C   0  0  0  0  0  0  0  0  0  0  0  0
    6.1738  -16.7902   21.3587 C   0  0  0  0  0  0  0  0  0  0  0  0
    4.9224  -16.6552   21.3845 O   0  0  0  0  0  0  0  0  0  0  0  0
    8.2440  -14.2633   23.3268 C   0  0  0  0  0  0  0  0  0  0  0  0
    9.4820  -14.2369   22.9997 O   0  0  0  0  0  0  0  0  0  0  0  0
    6.6872  -17.4931   20.2832 O   0  0  0  0  0  0  0  0  0  0  0  0
    7.8755  -13.8246   24.6073 N   0  0  0  0  0  0  0  0  0  0  0  0
    6.4709  -13.7422   25.0442 C   0  0  0  0  0  0  0  0  0  0  0  0
    6.5004  -13.0099   26.3729 C   0  0  0  0  0  0  0  0  0  0  0  0
    7.8339  -12.3201   26.3184 C   0  0  0  0  0  0  0  0  0  0  0  0
    8.7103  -13.3889   25.6989 C   0  0  1  0  0  0  0  0  0  0  0  0
    9.0224  -14.4702   26.6610 C   0  0  0  0  0  0  0  0  0  0  0  0
    8.0661  -15.1781   27.0658 O   0  0  0  0  0  0  0  0  0  0  0  0
   10.3109  -14.7457   27.1410 N   0  0  0  0  0  0  0  0  0  0  0  0
   10.7216  -16.0258   27.7410 C   0  0  1  0  0  0  0  0  0  0  0  0
   12.0557  -16.4386   27.2454 C   0  0  0  0  0  0  0  0  0  0  0  0
   12.2117  -16.2404   25.7763 C   0  0  0  0  0  0  0  0  0  0  0  0
   13.6078  -15.9413   25.3982 C   0  0  0  0  0  0  0  0  0  0  0  0
   14.5470  -15.8108   26.2083 O   0  0  0  0  0  0  0  0  0  0  0  0
   10.5923  -15.8757   29.1997 C   0  0  0  0  0  0  0  0  0  0  0  0
   10.3281  -14.7072   29.6495 O   0  0  0  0  0  0  0  0  0  0  0  0
   13.9516  -15.7836   24.0394 O   0  0  0  0  0  0  0  0  0  0  0  0
   10.7308  -16.8902   30.1129 O   0  0  0  0  0  0  0  0  0  0  0  0
  2  1  1  6
  2  3  1  0
  3  4  1  0
  4  5  2  0
  4  8  1  0
  6  2  1  0
  6  9  1  0
  7  6  2  0
  9 13  1  0
 10  9  1  0
 10 11  1  0
 11 12  1  0
 13 12  1  0
 14 16  1  0
 13 14  1  1
 15 14  2  0
 17 18  1  1
 17 22  1  0
 17 16  1  0
 19 20  1  0
 19 18  1  0
 20 24  1  0
 21 20  2  0
 22 25  1  0
 23 22  2  0
M  END
$$$$
