DPE.pdb
     RDKit          3D

 25 25  0  0  1  0  0  0  0  0999 V2000
    9.8218  -15.4242   15.1031 N   0  0  0  0  0  0  0  0  0  0  0  0
    8.9876  -15.5515   16.2549 C   0  0  1  0  0  0  0  0  0  0  0  0
    8.3651  -16.9025   16.3855 C   0  0  0  0  0  0  0  0  0  0  0  0
    7.7813  -17.4564   15.1581 C   0  0  0  0  0  0  0  0  0  0  0  0
    6.5630  -17.2561   14.9120 O   0  0  0  0  0  0  0  0  0  0  0  0
    9.5866  -15.0503   17.5052 C   0  0  0  0  0  0  0  0  0  0  0  0
   10.8651  -15.1098   17.5503 O   0  0  0  0  0  0  0  0  0  0  0  0
    8.4758  -18.2017   14.2219 O   0  0  0  0  0  0  0  0  0  0  0  0
    8.8962  -14.5329   18.6114 N   0  0  0  0  0  0  0  0  0  0  0  0
    7.4263  -14.4486   18.6610 C   0  0  0  0  0  0  0  0  0  0  0  0
    7.1073  -13.6273   19.8964 C   0  0  0  0  0  0  0  0  0  0  0  0
    8.4079  -12.9166   20.1419 C   0  0  0  0  0  0  0  0  0  0  0  0
    9.4170  -14.0077   19.8489 C   0  0  1  0  0  0  0  0  0  0  0  0
    9.4687  -15.0147   20.9331 C   0  0  0  0  0  0  0  0  0  0  0  0
    8.5606  -15.8832   20.9597 O   0  0  0  0  0  0  0  0  0  0  0  0
   10.4628  -15.0533   21.9214 N   0  0  0  0  0  0  0  0  0  0  0  0
   10.8506  -16.2615   22.6678 C   0  0  1  0  0  0  0  0  0  0  0  0
   12.3149  -16.4781   22.6001 C   0  0  0  0  0  0  0  0  0  0  0  0
   13.0943  -15.3116   23.1040 C   0  0  0  0  0  0  0  0  0  0  0  0
   14.5516  -15.5219   22.9890 C   0  0  0  0  0  0  0  0  0  0  0  0
   15.2740  -15.0022   22.1151 O   0  0  0  0  0  0  0  0  0  0  0  0
   10.2783  -16.1325   24.0180 C   0  0  0  0  0  0  0  0  0  0  0  0
    9.6976  -15.0296   24.3076 O   0  0  0  0  0  0  0  0  0  0  0  0
   15.2175  -16.3596   23.9077 O   0  0  0  0  0  0  0  0  0  0  0  0
   10.3174  -17.1022   24.9878 O   0  0  0  0  0  0  0  0  0  0  0  0
  2  1  1  6
  2  3  1  0
  3  4  1  0
  4  5  2  0
  4  8  1  0
  6  2  1  0
  6  9  1  0
  7  6  2  0
  9 13  1  0
 10  9  1  0
 10 11  1  0
 11 12  1  0
 13 12  1  0
 14 16  1  0
 13 14  1  1
 15 14  2  0
 17 18  1  1
 17 22  1  0
 17 16  1  0
 19 20  1  0
 19 18  1  0
 20 24  1  0
 21 20  2  0
 22 25  1  0
 23 22  2  0
M  END
$$$$
