DPE.pdb
     RDKit          3D

 25 25  0  0  1  0  0  0  0  0999 V2000
    7.8627  -14.5571   20.9228 N   0  0  0  0  0  0  0  0  0  0  0  0
    7.3972  -14.8836   22.2327 C   0  0  1  0  0  0  0  0  0  0  0  0
    7.0157  -16.3195   22.3818 C   0  0  0  0  0  0  0  0  0  0  0  0
    6.2454  -16.8929   21.2719 C   0  0  0  0  0  0  0  0  0  0  0  0
    5.1802  -16.3296   20.9073 O   0  0  0  0  0  0  0  0  0  0  0  0
    8.2429  -14.3769   23.3287 C   0  0  0  0  0  0  0  0  0  0  0  0
    9.4987  -14.3659   23.0777 O   0  0  0  0  0  0  0  0  0  0  0  0
    6.6003  -18.0325   20.5723 O   0  0  0  0  0  0  0  0  0  0  0  0
    7.8015  -13.9228   24.5805 N   0  0  0  0  0  0  0  0  0  0  0  0
    6.3816  -13.9332   24.9730 C   0  0  0  0  0  0  0  0  0  0  0  0
    6.3132  -13.1543   26.2734 C   0  0  0  0  0  0  0  0  0  0  0  0
    7.5916  -12.3664   26.2318 C   0  0  0  0  0  0  0  0  0  0  0  0
    8.5658  -13.3859   25.6787 C   0  0  1  0  0  0  0  0  0  0  0  0
    8.9281  -14.4053   26.6896 C   0  0  0  0  0  0  0  0  0  0  0  0
    8.0207  -15.1838   27.0770 O   0  0  0  0  0  0  0  0  0  0  0  0
   10.2126  -14.5493   27.2333 N   0  0  0  0  0  0  0  0  0  0  0  0
   10.7209  -15.7818   27.8578 C   0  0  1  0  0  0  0  0  0  0  0  0
   12.0982  -16.0783   27.3990 C   0  0  0  0  0  0  0  0  0  0  0  0
   12.2308  -16.0473   25.9145 C   0  0  0  0  0  0  0  0  0  0  0  0
   13.6379  -15.9296   25.4816 C   0  0  0  0  0  0  0  0  0  0  0  0
   14.6043  -15.7720   26.2542 O   0  0  0  0  0  0  0  0  0  0  0  0
   10.5426  -15.6300   29.3111 C   0  0  0  0  0  0  0  0  0  0  0  0
   10.8014  -16.6461   30.0446 O   0  0  0  0  0  0  0  0  0  0  0  0
   13.9612  -15.9940   24.1103 O   0  0  0  0  0  0  0  0  0  0  0  0
   10.1231  -14.4848   29.9396 O   0  0  0  0  0  0  0  0  0  0  0  0
  2  1  1  6
  2  3  1  0
  3  4  1  0
  4  5  2  0
  4  8  1  0
  6  2  1  0
  6  9  1  0
  7  6  2  0
  9 13  1  0
 10  9  1  0
 10 11  1  0
 11 12  1  0
 13 12  1  0
 14 16  1  0
 13 14  1  1
 15 14  2  0
 17 18  1  1
 17 22  1  0
 17 16  1  0
 19 20  1  0
 19 18  1  0
 20 24  1  0
 21 20  2  0
 22 25  1  0
 23 22  2  0
M  END
$$$$
