DPE.pdb
     RDKit          3D

 25 25  0  0  1  0  0  0  0  0999 V2000
    5.1482  -18.3691   19.7335 N   0  0  0  0  0  0  0  0  0  0  0  0
    5.5093  -17.1947   20.4610 C   0  0  1  0  0  0  0  0  0  0  0  0
    5.0135  -17.1979   21.8694 C   0  0  0  0  0  0  0  0  0  0  0  0
    5.5644  -18.2461   22.7366 C   0  0  0  0  0  0  0  0  0  0  0  0
    6.2910  -19.1421   22.2324 O   0  0  0  0  0  0  0  0  0  0  0  0
    6.9244  -16.8025   20.3305 C   0  0  0  0  0  0  0  0  0  0  0  0
    7.7014  -17.7274   19.9049 O   0  0  0  0  0  0  0  0  0  0  0  0
    5.3465  -18.3359   24.0999 O   0  0  0  0  0  0  0  0  0  0  0  0
    7.4715  -15.5447   20.6248 N   0  0  0  0  0  0  0  0  0  0  0  0
    6.6661  -14.4359   21.1653 C   0  0  0  0  0  0  0  0  0  0  0  0
    7.5663  -13.2155   21.1120 C   0  0  0  0  0  0  0  0  0  0  0  0
    8.5979  -13.6337   20.1031 C   0  0  0  0  0  0  0  0  0  0  0  0
    8.8293  -15.0826   20.4792 C   0  0  1  0  0  0  0  0  0  0  0  0
    9.6238  -15.2081   21.7222 C   0  0  0  0  0  0  0  0  0  0  0  0
    9.0444  -14.9506   22.8074 O   0  0  0  0  0  0  0  0  0  0  0  0
   10.9716  -15.5936   21.7565 N   0  0  0  0  0  0  0  0  0  0  0  0
   11.6015  -16.3275   22.8665 C   0  0  1  0  0  0  0  0  0  0  0  0
   11.5516  -17.7894   22.6300 C   0  0  0  0  0  0  0  0  0  0  0  0
   10.9752  -18.5405   23.7814 C   0  0  0  0  0  0  0  0  0  0  0  0
   10.9383  -19.9965   23.5364 C   0  0  0  0  0  0  0  0  0  0  0  0
   11.3669  -20.5507   22.5045 O   0  0  0  0  0  0  0  0  0  0  0  0
   12.9418  -15.7490   23.0560 C   0  0  0  0  0  0  0  0  0  0  0  0
   13.4108  -15.0286   22.1081 O   0  0  0  0  0  0  0  0  0  0  0  0
   10.3904  -20.8609   24.5069 O   0  0  0  0  0  0  0  0  0  0  0  0
   13.7253  -15.9204   24.1692 O   0  0  0  0  0  0  0  0  0  0  0  0
  2  1  1  1
  2  3  1  0
  3  4  1  0
  4  5  2  0
  4  8  1  0
  6  2  1  0
  6  9  1  0
  7  6  2  0
  9 13  1  0
 10  9  1  0
 10 11  1  0
 11 12  1  0
 13 12  1  0
 14 16  1  0
 13 14  1  1
 15 14  2  0
 17 18  1  6
 17 22  1  0
 17 16  1  0
 19 20  1  0
 19 18  1  0
 20 24  1  0
 21 20  2  0
 22 25  1  0
 23 22  2  0
M  END
$$$$
