DPE.pdb
     RDKit          3D

 25 25  0  0  1  0  0  0  0  0999 V2000
    8.7432  -17.7122   17.6499 N   0  0  0  0  0  0  0  0  0  0  0  0
    8.0603  -17.2002   18.7947 C   0  0  1  0  0  0  0  0  0  0  0  0
    7.0970  -18.1731   19.3905 C   0  0  0  0  0  0  0  0  0  0  0  0
    6.3076  -18.9563   18.4325 C   0  0  0  0  0  0  0  0  0  0  0  0
    6.4780  -18.7711   17.1989 O   0  0  0  0  0  0  0  0  0  0  0  0
    8.9313  -16.5438   19.7865 C   0  0  0  0  0  0  0  0  0  0  0  0
   10.1843  -16.7522   19.6229 O   0  0  0  0  0  0  0  0  0  0  0  0
    5.3650  -19.9077   18.7797 O   0  0  0  0  0  0  0  0  0  0  0  0
    8.5159  -15.7392   20.8579 N   0  0  0  0  0  0  0  0  0  0  0  0
    7.1019  -15.3994   21.0935 C   0  0  0  0  0  0  0  0  0  0  0  0
    7.1134  -14.3411   22.1808 C   0  0  0  0  0  0  0  0  0  0  0  0
    8.5242  -13.8308   22.1034 C   0  0  0  0  0  0  0  0  0  0  0  0
    9.3050  -15.1108   21.8878 C   0  0  1  0  0  0  0  0  0  0  0  0
    9.3936  -15.9163   23.1269 C   0  0  0  0  0  0  0  0  0  0  0  0
    8.3549  -16.5159   23.5025 O   0  0  0  0  0  0  0  0  0  0  0  0
   10.5584  -16.0463   23.8968 N   0  0  0  0  0  0  0  0  0  0  0  0
   11.0995  -17.3267   24.3816 C   0  0  1  0  0  0  0  0  0  0  0  0
   12.4592  -17.5645   23.8427 C   0  0  0  0  0  0  0  0  0  0  0  0
   13.1003  -18.7837   24.4128 C   0  0  0  0  0  0  0  0  0  0  0  0
   14.4779  -18.9747   23.9157 C   0  0  0  0  0  0  0  0  0  0  0  0
   14.8699  -18.6498   22.7771 O   0  0  0  0  0  0  0  0  0  0  0  0
   10.9791  -17.3141   25.8487 C   0  0  0  0  0  0  0  0  0  0  0  0
   10.9677  -16.1732   26.4281 O   0  0  0  0  0  0  0  0  0  0  0  0
   15.4530  -19.5606   24.7494 O   0  0  0  0  0  0  0  0  0  0  0  0
   10.8762  -18.4289   26.6418 O   0  0  0  0  0  0  0  0  0  0  0  0
  2  1  1  6
  2  3  1  0
  3  4  1  0
  4  5  2  0
  4  8  1  0
  6  2  1  0
  6  9  1  0
  7  6  2  0
  9 13  1  0
 10  9  1  0
 10 11  1  0
 11 12  1  0
 13 12  1  0
 14 16  1  0
 13 14  1  1
 15 14  2  0
 17 18  1  1
 17 22  1  0
 17 16  1  0
 19 20  1  0
 19 18  1  0
 20 24  1  0
 21 20  2  0
 22 25  1  0
 23 22  2  0
M  END
$$$$
