DPE.pdb
     RDKit          3D

 25 25  0  0  1  0  0  0  0  0999 V2000
    7.8078  -14.6118   21.0233 N   0  0  0  0  0  0  0  0  0  0  0  0
    7.3244  -14.8319   22.3487 C   0  0  1  0  0  0  0  0  0  0  0  0
    6.8665  -16.2335   22.5841 C   0  0  0  0  0  0  0  0  0  0  0  0
    6.0375  -16.8196   21.5241 C   0  0  0  0  0  0  0  0  0  0  0  0
    4.7933  -16.9078   21.6948 O   0  0  0  0  0  0  0  0  0  0  0  0
    8.1949  -14.3045   23.4152 C   0  0  0  0  0  0  0  0  0  0  0  0
    9.4439  -14.2918   23.1324 O   0  0  0  0  0  0  0  0  0  0  0  0
    6.5210  -17.2973   20.3191 O   0  0  0  0  0  0  0  0  0  0  0  0
    7.7830  -13.8332   24.6707 N   0  0  0  0  0  0  0  0  0  0  0  0
    6.3662  -13.7712   25.0693 C   0  0  0  0  0  0  0  0  0  0  0  0
    6.3438  -12.9952   26.3730 C   0  0  0  0  0  0  0  0  0  0  0  0
    7.6613  -12.2747   26.3288 C   0  0  0  0  0  0  0  0  0  0  0  0
    8.5788  -13.3413   25.7675 C   0  0  1  0  0  0  0  0  0  0  0  0
    8.8918  -14.3822   26.7729 C   0  0  0  0  0  0  0  0  0  0  0  0
    7.9887  -15.2126   27.0461 O   0  0  0  0  0  0  0  0  0  0  0  0
   10.1254  -14.4925   27.4304 N   0  0  0  0  0  0  0  0  0  0  0  0
   10.9061  -15.7361   27.5365 C   0  0  1  0  0  0  0  0  0  0  0  0
   12.1971  -15.6133   26.8199 C   0  0  0  0  0  0  0  0  0  0  0  0
   13.0324  -16.8438   26.9214 C   0  0  0  0  0  0  0  0  0  0  0  0
   14.3364  -16.6912   26.2449 C   0  0  0  0  0  0  0  0  0  0  0  0
   14.6942  -15.6720   25.6213 O   0  0  0  0  0  0  0  0  0  0  0  0
   10.9908  -16.0673   28.9684 C   0  0  0  0  0  0  0  0  0  0  0  0
   10.7029  -15.1420   29.8040 O   0  0  0  0  0  0  0  0  0  0  0  0
   15.2753  -17.7430   26.2788 O   0  0  0  0  0  0  0  0  0  0  0  0
   11.3520  -17.2898   29.4757 O   0  0  0  0  0  0  0  0  0  0  0  0
  2  1  1  6
  2  3  1  0
  3  4  1  0
  4  5  2  0
  4  8  1  0
  6  2  1  0
  6  9  1  0
  7  6  2  0
  9 13  1  0
 10  9  1  0
 10 11  1  0
 11 12  1  0
 13 12  1  0
 14 16  1  0
 13 14  1  1
 15 14  2  0
 17 18  1  1
 17 22  1  0
 17 16  1  0
 19 20  1  0
 19 18  1  0
 20 24  1  0
 21 20  2  0
 22 25  1  0
 23 22  2  0
M  END
$$$$
