DPE.pdb
     RDKit          3D

 25 25  0  0  1  0  0  0  0  0999 V2000
    9.2167  -17.1000   16.5924 N   0  0  0  0  0  0  0  0  0  0  0  0
    8.4418  -17.0437   17.7905 C   0  0  1  0  0  0  0  0  0  0  0  0
    7.8706  -18.3654   18.1857 C   0  0  0  0  0  0  0  0  0  0  0  0
    6.4140  -18.4939   18.0586 C   0  0  0  0  0  0  0  0  0  0  0  0
    5.6806  -18.1578   19.0251 O   0  0  0  0  0  0  0  0  0  0  0  0
    9.0819  -16.3171   18.9021 C   0  0  0  0  0  0  0  0  0  0  0  0
   10.3343  -16.5451   19.0428 O   0  0  0  0  0  0  0  0  0  0  0  0
    5.7598  -18.9667   16.9349 O   0  0  0  0  0  0  0  0  0  0  0  0
    8.4546  -15.4287   19.7882 N   0  0  0  0  0  0  0  0  0  0  0  0
    7.0041  -15.1724   19.7606 C   0  0  0  0  0  0  0  0  0  0  0  0
    6.7805  -13.9985   20.6958 C   0  0  0  0  0  0  0  0  0  0  0  0
    8.1541  -13.3949   20.7714 C   0  0  0  0  0  0  0  0  0  0  0  0
    9.0309  -14.6282   20.8395 C   0  0  1  0  0  0  0  0  0  0  0  0
    8.9648  -15.2773   22.1687 C   0  0  0  0  0  0  0  0  0  0  0  0
    7.9551  -15.9827   22.4183 O   0  0  0  0  0  0  0  0  0  0  0  0
    9.9545  -15.1504   23.1540 N   0  0  0  0  0  0  0  0  0  0  0  0
   10.1876  -16.1247   24.2327 C   0  0  1  0  0  0  0  0  0  0  0  0
   11.6359  -16.3846   24.4072 C   0  0  0  0  0  0  0  0  0  0  0  0
   12.2842  -16.8931   23.1649 C   0  0  0  0  0  0  0  0  0  0  0  0
   13.7252  -17.1559   23.3542 C   0  0  0  0  0  0  0  0  0  0  0  0
   14.1898  -18.0699   24.0643 O   0  0  0  0  0  0  0  0  0  0  0  0
    9.4727  -15.6280   25.4198 C   0  0  0  0  0  0  0  0  0  0  0  0
    9.0641  -14.4156   25.3957 O   0  0  0  0  0  0  0  0  0  0  0  0
   14.6805  -16.3441   22.7080 O   0  0  0  0  0  0  0  0  0  0  0  0
    9.2092  -16.3635   26.5477 O   0  0  0  0  0  0  0  0  0  0  0  0
  2  1  1  6
  2  3  1  0
  3  4  1  0
  4  5  2  0
  4  8  1  0
  6  2  1  0
  6  9  1  0
  7  6  2  0
  9 13  1  0
 10  9  1  0
 10 11  1  0
 11 12  1  0
 13 12  1  0
 14 16  1  0
 13 14  1  1
 15 14  2  0
 17 18  1  1
 17 22  1  0
 17 16  1  0
 19 20  1  0
 19 18  1  0
 20 24  1  0
 21 20  2  0
 22 25  1  0
 23 22  2  0
M  END
$$$$
