DPE.pdb
     RDKit          3D

 25 25  0  0  1  0  0  0  0  0999 V2000
    7.9077  -14.5567   20.9844 N   0  0  0  0  0  0  0  0  0  0  0  0
    7.3746  -14.8224   22.2822 C   0  0  1  0  0  0  0  0  0  0  0  0
    6.9146  -16.2327   22.4530 C   0  0  0  0  0  0  0  0  0  0  0  0
    6.2179  -16.8196   21.3022 C   0  0  0  0  0  0  0  0  0  0  0  0
    4.9966  -16.5678   21.1291 O   0  0  0  0  0  0  0  0  0  0  0  0
    8.2010  -14.3280   23.3984 C   0  0  0  0  0  0  0  0  0  0  0  0
    9.4639  -14.3618   23.1883 O   0  0  0  0  0  0  0  0  0  0  0  0
    6.8060  -17.6500   20.3647 O   0  0  0  0  0  0  0  0  0  0  0  0
    7.7349  -13.8417   24.6290 N   0  0  0  0  0  0  0  0  0  0  0  0
    6.3008  -13.7414   24.9508 C   0  0  0  0  0  0  0  0  0  0  0  0
    6.2291  -12.9605   26.2499 C   0  0  0  0  0  0  0  0  0  0  0  0
    7.5656  -12.2749   26.2751 C   0  0  0  0  0  0  0  0  0  0  0  0
    8.4834  -13.3671   25.7660 C   0  0  1  0  0  0  0  0  0  0  0  0
    8.7145  -14.4124   26.7888 C   0  0  0  0  0  0  0  0  0  0  0  0
    7.7387  -15.1390   27.1040 O   0  0  0  0  0  0  0  0  0  0  0  0
    9.9474  -14.6349   27.4189 N   0  0  0  0  0  0  0  0  0  0  0  0
   10.4614  -15.9601   27.8021 C   0  0  1  0  0  0  0  0  0  0  0  0
   11.4917  -16.4253   26.8441 C   0  0  0  0  0  0  0  0  0  0  0  0
   12.5641  -15.4156   26.6152 C   0  0  0  0  0  0  0  0  0  0  0  0
   13.5832  -15.8905   25.6575 C   0  0  0  0  0  0  0  0  0  0  0  0
   14.8147  -15.8163   25.8410 O   0  0  0  0  0  0  0  0  0  0  0  0
   10.8835  -15.8649   29.2091 C   0  0  0  0  0  0  0  0  0  0  0  0
   10.8770  -14.7042   29.7478 O   0  0  0  0  0  0  0  0  0  0  0  0
   13.1854  -16.4755   24.4374 O   0  0  0  0  0  0  0  0  0  0  0  0
   11.2807  -16.9227   29.9873 O   0  0  0  0  0  0  0  0  0  0  0  0
  2  1  1  6
  2  3  1  0
  3  4  1  0
  4  5  2  0
  4  8  1  0
  6  2  1  0
  6  9  1  0
  7  6  2  0
  9 13  1  0
 10  9  1  0
 10 11  1  0
 11 12  1  0
 13 12  1  0
 14 16  1  0
 13 14  1  1
 15 14  2  0
 17 18  1  6
 17 22  1  0
 17 16  1  0
 19 20  1  0
 19 18  1  0
 20 24  1  0
 21 20  2  0
 22 25  1  0
 23 22  2  0
M  END
$$$$
