DPE.pdb
     RDKit          3D

 25 25  0  0  1  0  0  0  0  0999 V2000
    8.8889  -17.4065   17.3965 N   0  0  0  0  0  0  0  0  0  0  0  0
    8.1276  -17.1322   18.5730 C   0  0  1  0  0  0  0  0  0  0  0  0
    7.3386  -18.3060   19.0516 C   0  0  0  0  0  0  0  0  0  0  0  0
    6.7904  -19.1754   18.0038 C   0  0  0  0  0  0  0  0  0  0  0  0
    6.5281  -20.3762   18.2762 O   0  0  0  0  0  0  0  0  0  0  0  0
    8.8748  -16.4435   19.6411 C   0  0  0  0  0  0  0  0  0  0  0  0
   10.1485  -16.5490   19.5600 O   0  0  0  0  0  0  0  0  0  0  0  0
    6.5303  -18.7761   16.7049 O   0  0  0  0  0  0  0  0  0  0  0  0
    8.3253  -15.7089   20.7024 N   0  0  0  0  0  0  0  0  0  0  0  0
    6.8727  -15.5923   20.9185 C   0  0  0  0  0  0  0  0  0  0  0  0
    6.7053  -14.5406   21.9995 C   0  0  0  0  0  0  0  0  0  0  0  0
    8.0206  -13.8173   21.9363 C   0  0  0  0  0  0  0  0  0  0  0  0
    8.9936  -14.9611   21.7380 C   0  0  1  0  0  0  0  0  0  0  0  0
    9.1902  -15.7381   22.9830 C   0  0  0  0  0  0  0  0  0  0  0  0
    8.3621  -16.6499   23.2326 O   0  0  0  0  0  0  0  0  0  0  0  0
   10.2368  -15.5160   23.8895 N   0  0  0  0  0  0  0  0  0  0  0  0
   11.2379  -16.5255   24.2715 C   0  0  1  0  0  0  0  0  0  0  0  0
   12.5594  -16.2107   23.6797 C   0  0  0  0  0  0  0  0  0  0  0  0
   13.6040  -17.2131   24.0350 C   0  0  0  0  0  0  0  0  0  0  0  0
   14.9318  -16.8496   23.5002 C   0  0  0  0  0  0  0  0  0  0  0  0
   15.5977  -15.8628   23.8722 O   0  0  0  0  0  0  0  0  0  0  0  0
   11.1968  -16.6351   25.7390 C   0  0  0  0  0  0  0  0  0  0  0  0
   10.9450  -15.5696   26.4014 O   0  0  0  0  0  0  0  0  0  0  0  0
   15.5294  -17.6426   22.4986 O   0  0  0  0  0  0  0  0  0  0  0  0
   11.4052  -17.7896   26.4504 O   0  0  0  0  0  0  0  0  0  0  0  0
  2  1  1  6
  2  3  1  0
  3  4  1  0
  4  5  2  0
  4  8  1  0
  6  2  1  0
  6  9  1  0
  7  6  2  0
  9 13  1  0
 10  9  1  0
 10 11  1  0
 11 12  1  0
 13 12  1  0
 14 16  1  0
 13 14  1  1
 15 14  2  0
 17 18  1  1
 17 22  1  0
 17 16  1  0
 19 20  1  0
 19 18  1  0
 20 24  1  0
 21 20  2  0
 22 25  1  0
 23 22  2  0
M  END
$$$$
