DPE.pdb
     RDKit          3D

 25 25  0  0  1  0  0  0  0  0999 V2000
    8.5717  -14.4539   21.0461 N   0  0  0  0  0  0  0  0  0  0  0  0
    7.7266  -14.3261   22.1899 C   0  0  1  0  0  0  0  0  0  0  0  0
    6.6386  -15.3477   22.2361 C   0  0  0  0  0  0  0  0  0  0  0  0
    6.7294  -16.4210   21.2392 C   0  0  0  0  0  0  0  0  0  0  0  0
    5.8755  -17.3459   21.2521 O   0  0  0  0  0  0  0  0  0  0  0  0
    8.4435  -14.1638   23.4679 C   0  0  0  0  0  0  0  0  0  0  0  0
    9.6542  -14.5813   23.4618 O   0  0  0  0  0  0  0  0  0  0  0  0
    7.7018  -16.5053   20.2586 O   0  0  0  0  0  0  0  0  0  0  0  0
    7.9270  -13.6106   24.6490 N   0  0  0  0  0  0  0  0  0  0  0  0
    6.5433  -13.1162   24.7549 C   0  0  0  0  0  0  0  0  0  0  0  0
    6.4694  -12.3961   26.0885 C   0  0  0  0  0  0  0  0  0  0  0  0
    7.9186  -12.1229   26.3753 C   0  0  0  0  0  0  0  0  0  0  0  0
    8.5721  -13.4124   25.9229 C   0  0  1  0  0  0  0  0  0  0  0  0
    8.3278  -14.5173   26.8777 C   0  0  0  0  0  0  0  0  0  0  0  0
    7.1385  -14.8905   27.0385 O   0  0  0  0  0  0  0  0  0  0  0  0
    9.3376  -15.1636   27.6051 N   0  0  0  0  0  0  0  0  0  0  0  0
    9.7160  -16.5759   27.4333 C   0  0  1  0  0  0  0  0  0  0  0  0
   10.1149  -16.8503   26.0328 C   0  0  0  0  0  0  0  0  0  0  0  0
   10.6652  -18.2234   25.8484 C   0  0  0  0  0  0  0  0  0  0  0  0
   10.1984  -18.8484   24.5943 C   0  0  0  0  0  0  0  0  0  0  0  0
    9.0047  -19.0926   24.3279 O   0  0  0  0  0  0  0  0  0  0  0  0
   10.7238  -16.8772   28.4630 C   0  0  0  0  0  0  0  0  0  0  0  0
   10.6792  -18.0337   29.0090 O   0  0  0  0  0  0  0  0  0  0  0  0
   11.1292  -19.2119   23.5990 O   0  0  0  0  0  0  0  0  0  0  0  0
   11.7071  -16.0164   28.8809 O   0  0  0  0  0  0  0  0  0  0  0  0
  2  1  1  6
  2  3  1  0
  3  4  1  0
  4  5  2  0
  4  8  1  0
  6  2  1  0
  6  9  1  0
  7  6  2  0
  9 13  1  0
 10  9  1  0
 10 11  1  0
 11 12  1  0
 13 12  1  0
 14 16  1  0
 13 14  1  1
 15 14  2  0
 17 18  1  6
 17 22  1  0
 17 16  1  0
 19 20  1  0
 19 18  1  0
 20 24  1  0
 21 20  2  0
 22 25  1  0
 23 22  2  0
M  END
$$$$
