DPE.pdb
     RDKit          3D

 25 25  0  0  1  0  0  0  0  0999 V2000
    7.7478  -14.4429   20.9731 N   0  0  0  0  0  0  0  0  0  0  0  0
    7.1496  -14.3385   22.2654 C   0  0  1  0  0  0  0  0  0  0  0  0
    6.2457  -15.4817   22.5907 C   0  0  0  0  0  0  0  0  0  0  0  0
    6.6298  -16.7794   22.0227 C   0  0  0  0  0  0  0  0  0  0  0  0
    6.4997  -17.8188   22.7210 O   0  0  0  0  0  0  0  0  0  0  0  0
    8.0873  -13.9956   23.3501 C   0  0  0  0  0  0  0  0  0  0  0  0
    9.3257  -14.0594   23.0302 O   0  0  0  0  0  0  0  0  0  0  0  0
    7.1374  -16.9627   20.7488 O   0  0  0  0  0  0  0  0  0  0  0  0
    7.7472  -13.6195   24.6581 N   0  0  0  0  0  0  0  0  0  0  0  0
    6.3532  -13.5668   25.1317 C   0  0  0  0  0  0  0  0  0  0  0  0
    6.4107  -12.8972   26.4921 C   0  0  0  0  0  0  0  0  0  0  0  0
    7.7387  -12.1968   26.4383 C   0  0  0  0  0  0  0  0  0  0  0  0
    8.6058  -13.2299   25.7487 C   0  0  1  0  0  0  0  0  0  0  0  0
    8.9468  -14.3528   26.6515 C   0  0  0  0  0  0  0  0  0  0  0  0
    8.0015  -15.0710   27.0638 O   0  0  0  0  0  0  0  0  0  0  0  0
   10.2509  -14.6566   27.0680 N   0  0  0  0  0  0  0  0  0  0  0  0
   10.6569  -15.9360   27.6725 C   0  0  1  0  0  0  0  0  0  0  0  0
   12.0124  -16.3284   27.2203 C   0  0  0  0  0  0  0  0  0  0  0  0
   12.2460  -16.0360   25.7774 C   0  0  0  0  0  0  0  0  0  0  0  0
   13.6141  -16.3920   25.3498 C   0  0  0  0  0  0  0  0  0  0  0  0
   14.6523  -15.8502   25.7789 O   0  0  0  0  0  0  0  0  0  0  0  0
   10.4754  -15.7988   29.1269 C   0  0  0  0  0  0  0  0  0  0  0  0
   10.6751  -16.8389   29.8451 O   0  0  0  0  0  0  0  0  0  0  0  0
   13.8112  -17.4087   24.3923 O   0  0  0  0  0  0  0  0  0  0  0  0
   10.1114  -14.6436   29.7714 O   0  0  0  0  0  0  0  0  0  0  0  0
  2  1  1  6
  2  3  1  0
  3  4  1  0
  4  5  2  0
  4  8  1  0
  6  2  1  0
  6  9  1  0
  7  6  2  0
  9 13  1  0
 10  9  1  0
 10 11  1  0
 11 12  1  0
 13 12  1  0
 14 16  1  0
 13 14  1  1
 15 14  2  0
 17 18  1  1
 17 22  1  0
 17 16  1  0
 19 20  1  0
 19 18  1  0
 20 24  1  0
 21 20  2  0
 22 25  1  0
 23 22  2  0
M  END
$$$$
