DPE.pdb
     RDKit          3D

 25 25  0  0  1  0  0  0  0  0999 V2000
    8.5063  -17.1214   16.4418 N   0  0  0  0  0  0  0  0  0  0  0  0
    7.7910  -16.5197   17.5212 C   0  0  1  0  0  0  0  0  0  0  0  0
    6.6628  -17.3600   18.0218 C   0  0  0  0  0  0  0  0  0  0  0  0
    7.0223  -18.7135   18.4609 C   0  0  0  0  0  0  0  0  0  0  0  0
    8.2135  -19.1027   18.3406 O   0  0  0  0  0  0  0  0  0  0  0  0
    8.6428  -15.9704   18.5917 C   0  0  0  0  0  0  0  0  0  0  0  0
    9.8686  -16.3388   18.5455 O   0  0  0  0  0  0  0  0  0  0  0  0
    6.1381  -19.6242   19.0114 O   0  0  0  0  0  0  0  0  0  0  0  0
    8.2360  -15.1089   19.6215 N   0  0  0  0  0  0  0  0  0  0  0  0
    6.8310  -14.7098   19.8135 C   0  0  0  0  0  0  0  0  0  0  0  0
    6.8597  -13.6096   20.8581 C   0  0  0  0  0  0  0  0  0  0  0  0
    8.2895  -13.1534   20.7902 C   0  0  0  0  0  0  0  0  0  0  0  0
    9.0272  -14.4680   20.6420 C   0  0  1  0  0  0  0  0  0  0  0  0
    9.0621  -15.2256   21.9136 C   0  0  0  0  0  0  0  0  0  0  0  0
    8.0270  -15.8609   22.2370 O   0  0  0  0  0  0  0  0  0  0  0  0
   10.1728  -15.2734   22.7683 N   0  0  0  0  0  0  0  0  0  0  0  0
   10.4730  -16.3858   23.6848 C   0  0  1  0  0  0  0  0  0  0  0  0
   11.8596  -16.8711   23.4915 C   0  0  0  0  0  0  0  0  0  0  0  0
   12.8641  -15.7698   23.5115 C   0  0  0  0  0  0  0  0  0  0  0  0
   14.2384  -16.2632   23.2899 C   0  0  0  0  0  0  0  0  0  0  0  0
   14.8628  -16.1574   22.2155 O   0  0  0  0  0  0  0  0  0  0  0  0
   10.1324  -15.9264   25.0412 C   0  0  0  0  0  0  0  0  0  0  0  0
   10.2123  -16.7822   25.9893 O   0  0  0  0  0  0  0  0  0  0  0  0
   14.9339  -16.9052   24.3356 O   0  0  0  0  0  0  0  0  0  0  0  0
    9.7384  -14.6534   25.3678 O   0  0  0  0  0  0  0  0  0  0  0  0
  2  1  1  6
  2  3  1  0
  3  4  1  0
  4  5  2  0
  4  8  1  0
  6  2  1  0
  6  9  1  0
  7  6  2  0
  9 13  1  0
 10  9  1  0
 10 11  1  0
 11 12  1  0
 13 12  1  0
 14 16  1  0
 13 14  1  1
 15 14  2  0
 17 18  1  1
 17 22  1  0
 17 16  1  0
 19 20  1  0
 19 18  1  0
 20 24  1  0
 21 20  2  0
 22 25  1  0
 23 22  2  0
M  END
$$$$
