HTD.pdb
     RDKit          3D

 26 26  0  0  1  0  0  0  0  0999 V2000
    8.6752  -15.9295   17.6765 N   0  0  0  0  0  0  0  0  0  0  0  0
    9.1735  -14.5847   17.8956 C   0  0  1  0  0  0  0  0  0  0  0  0
    8.1861  -13.6302   17.2689 C   0  0  0  0  0  0  0  0  0  0  0  0
    8.0535  -13.8538   15.8161 C   0  0  0  0  0  0  0  0  0  0  0  0
    8.3095  -12.9438   14.8251 C   0  0  0  0  0  0  0  0  0  0  0  0
    8.0609  -13.5643   13.6371 N   0  0  0  0  0  0  0  0  0  0  0  0
    7.6650  -14.8153   13.8929 C   0  0  0  0  0  0  0  0  0  0  0  0
    7.6588  -14.9993   15.2377 N   0  0  0  0  0  0  0  0  0  0  0  0
    9.1580  -14.3352   19.3848 C   0  0  0  0  0  0  0  0  0  0  0  0
    9.5899  -13.2177   19.8091 O   0  0  0  0  0  0  0  0  0  0  0  0
    6.9241  -13.7554   22.1084 C   0  0  0  0  0  0  0  0  0  0  0  0
    7.5982  -15.0673   22.4201 C   0  0  1  0  0  0  0  0  0  0  0  0
    6.7897  -16.1655   22.2422 O   0  0  0  0  0  0  0  0  0  0  0  0
    8.9253  -15.1853   21.6842 C   0  0  2  0  0  0  0  0  0  0  0  0
    8.6733  -15.3246   20.2828 N   0  0  0  0  0  0  0  0  0  0  0  0
    9.6388  -16.3353   22.2808 C   0  0  0  0  0  0  0  0  0  0  0  0
   10.1083  -17.1891   21.4817 O   0  0  0  0  0  0  0  0  0  0  0  0
    9.8396  -16.5601   23.6549 N   0  0  0  0  0  0  0  0  0  0  0  0
   11.0200  -17.0831   24.2557 C   0  0  1  0  0  0  0  0  0  0  0  0
   12.2909  -16.3630   23.8625 C   0  0  0  0  0  0  0  0  0  0  0  0
   13.0617  -17.1400   22.8473 C   0  0  0  0  0  0  0  0  0  0  0  0
   13.4715  -18.3091   23.0673 O   0  0  0  0  0  0  0  0  0  0  0  0
   10.9515  -17.2163   25.7160 C   0  0  0  0  0  0  0  0  0  0  0  0
   10.4160  -16.2859   26.3775 O   0  0  0  0  0  0  0  0  0  0  0  0
   13.3794  -16.6197   21.5836 O   0  0  0  0  0  0  0  0  0  0  0  0
   11.4458  -18.3129   26.4045 O   0  0  0  0  0  0  0  0  0  0  0  0
  2  1  1  1
  2  9  1  0
  3  4  1  0
  3  2  1  0
  4  8  1  0
  5  6  1  0
  5  4  2  0
  6  7  1  0
  7  8  2  0
  9 15  1  0
  9 10  2  0
 12 11  1  6
 12 14  1  0
 13 12  1  0
 14 16  1  0
 14 15  1  6
 16 17  2  0
 16 18  1  0
 18 19  1  0
 19 23  1  0
 19 20  1  1
 20 21  1  0
 21 25  1  0
 21 22  2  0
 23 26  1  0
 24 23  2  0
M  END
$$$$
