HTD.pdb
     RDKit          3D

 26 26  0  0  1  0  0  0  0  0999 V2000
   10.7876  -15.2498   13.9822 N   0  0  0  0  0  0  0  0  0  0  0  0
    9.8699  -15.7661   14.9802 C   0  0  1  0  0  0  0  0  0  0  0  0
   10.1033  -17.2541   15.0806 C   0  0  0  0  0  0  0  0  0  0  0  0
    9.5524  -17.9755   13.9169 C   0  0  0  0  0  0  0  0  0  0  0  0
    8.8928  -17.4210   12.8523 C   0  0  0  0  0  0  0  0  0  0  0  0
    8.5610  -18.4410   12.0110 N   0  0  0  0  0  0  0  0  0  0  0  0
    9.0038  -19.5842   12.5440 C   0  0  0  0  0  0  0  0  0  0  0  0
    9.6171  -19.3021   13.7216 N   0  0  0  0  0  0  0  0  0  0  0  0
   10.2583  -15.1587   16.3070 C   0  0  0  0  0  0  0  0  0  0  0  0
   11.4891  -14.9245   16.5208 O   0  0  0  0  0  0  0  0  0  0  0  0
    7.6917  -12.8270   18.6631 C   0  0  0  0  0  0  0  0  0  0  0  0
    8.4415  -13.9405   19.3491 C   0  0  1  0  0  0  0  0  0  0  0  0
    7.6557  -15.0188   19.6827 O   0  0  0  0  0  0  0  0  0  0  0  0
    9.6781  -14.3343   18.5538 C   0  0  2  0  0  0  0  0  0  0  0  0
    9.2724  -14.8589   17.2860 N   0  0  0  0  0  0  0  0  0  0  0  0
   10.4279  -15.2985   19.3877 C   0  0  0  0  0  0  0  0  0  0  0  0
   10.8253  -16.3513   18.8206 O   0  0  0  0  0  0  0  0  0  0  0  0
   10.7360  -15.1459   20.7518 N   0  0  0  0  0  0  0  0  0  0  0  0
   11.7747  -15.8177   21.4576 C   0  0  1  0  0  0  0  0  0  0  0  0
   13.1559  -15.6150   20.8750 C   0  0  0  0  0  0  0  0  0  0  0  0
   14.1892  -16.3498   21.6630 C   0  0  0  0  0  0  0  0  0  0  0  0
   14.1542  -17.5984   21.8149 O   0  0  0  0  0  0  0  0  0  0  0  0
   11.7970  -15.5553   22.9017 C   0  0  0  0  0  0  0  0  0  0  0  0
   11.1767  -14.5474   23.3367 O   0  0  0  0  0  0  0  0  0  0  0  0
   15.2654  -15.6988   22.2847 O   0  0  0  0  0  0  0  0  0  0  0  0
   12.4658  -16.3593   23.8112 O   0  0  0  0  0  0  0  0  0  0  0  0
  2  1  1  6
  2  9  1  0
  3  4  1  0
  3  2  1  0
  4  8  1  0
  5  6  1  0
  5  4  2  0
  6  7  1  0
  7  8  2  0
  9 15  1  0
  9 10  2  0
 12 11  1  6
 12 14  1  0
 13 12  1  0
 14 16  1  0
 14 15  1  6
 16 17  2  0
 16 18  1  0
 18 19  1  0
 19 23  1  0
 19 20  1  6
 20 21  1  0
 21 25  1  0
 21 22  2  0
 23 26  1  0
 24 23  2  0
M  END
$$$$
