HTD.pdb
     RDKit          3D

 26 26  0  0  1  0  0  0  0  0999 V2000
   13.5427  -14.0199   16.1558 N   0  0  0  0  0  0  0  0  0  0  0  0
   12.3703  -14.7902   16.5257 C   0  0  1  0  0  0  0  0  0  0  0  0
   12.7714  -16.2454   16.5353 C   0  0  0  0  0  0  0  0  0  0  0  0
   13.0262  -16.7531   15.1732 C   0  0  0  0  0  0  0  0  0  0  0  0
   12.3013  -16.4649   14.0475 C   0  0  0  0  0  0  0  0  0  0  0  0
   12.8806  -17.1392   13.0141 N   0  0  0  0  0  0  0  0  0  0  0  0
   13.9276  -17.8190   13.4923 C   0  0  0  0  0  0  0  0  0  0  0  0
   14.0220  -17.5839   14.8258 N   0  0  0  0  0  0  0  0  0  0  0  0
   12.0114  -14.4125   17.9430 C   0  0  0  0  0  0  0  0  0  0  0  0
   12.9153  -13.8957   18.6720 O   0  0  0  0  0  0  0  0  0  0  0  0
    8.6433  -12.5295   18.9314 C   0  0  0  0  0  0  0  0  0  0  0  0
    8.8845  -13.7627   19.7644 C   0  0  1  0  0  0  0  0  0  0  0  0
    8.0513  -14.8134   19.4589 O   0  0  0  0  0  0  0  0  0  0  0  0
   10.3560  -14.1514   19.7473 C   0  0  2  0  0  0  0  0  0  0  0  0
   10.6991  -14.6303   18.4435 N   0  0  0  0  0  0  0  0  0  0  0  0
   10.5413  -15.1526   20.8200 C   0  0  0  0  0  0  0  0  0  0  0  0
   10.7117  -16.3477   20.4585 O   0  0  0  0  0  0  0  0  0  0  0  0
   10.5447  -14.8910   22.2023 N   0  0  0  0  0  0  0  0  0  0  0  0
   10.6913  -15.8568   23.2385 C   0  0  1  0  0  0  0  0  0  0  0  0
   10.5514  -15.2966   24.6367 C   0  0  0  0  0  0  0  0  0  0  0  0
   10.8994  -16.3191   25.6672 C   0  0  0  0  0  0  0  0  0  0  0  0
   11.2859  -17.4763   25.3597 O   0  0  0  0  0  0  0  0  0  0  0  0
    9.8418  -17.0444   23.0878 C   0  0  0  0  0  0  0  0  0  0  0  0
    8.6019  -16.8775   22.9307 O   0  0  0  0  0  0  0  0  0  0  0  0
   10.8189  -16.0584   27.0434 O   0  0  0  0  0  0  0  0  0  0  0  0
   10.3337  -18.3400   23.1097 O   0  0  0  0  0  0  0  0  0  0  0  0
  2  1  1  1
  2  9  1  0
  3  4  1  0
  3  2  1  0
  4  8  1  0
  5  6  1  0
  5  4  2  0
  6  7  1  0
  7  8  2  0
  9 15  1  0
  9 10  2  0
 12 11  1  6
 12 14  1  0
 13 12  1  0
 14 16  1  0
 14 15  1  6
 16 17  2  0
 16 18  1  0
 18 19  1  0
 19 23  1  0
 19 20  1  1
 20 21  1  0
 21 25  1  0
 21 22  2  0
 23 26  1  0
 24 23  2  0
M  END
$$$$
