HTD.pdb
     RDKit          3D

 26 26  0  0  1  0  0  0  0  0999 V2000
    9.1016  -15.5215   13.9709 N   0  0  0  0  0  0  0  0  0  0  0  0
    8.8504  -16.1339   15.2619 C   0  0  1  0  0  0  0  0  0  0  0  0
    9.4730  -17.5089   15.2376 C   0  0  0  0  0  0  0  0  0  0  0  0
    8.6499  -18.4704   14.4785 C   0  0  0  0  0  0  0  0  0  0  0  0
    8.8801  -18.9103   13.2021 C   0  0  0  0  0  0  0  0  0  0  0  0
    7.8827  -19.7871   12.8943 N   0  0  0  0  0  0  0  0  0  0  0  0
    7.0673  -19.8810   13.9495 C   0  0  0  0  0  0  0  0  0  0  0  0
    7.5369  -19.0695   14.9311 N   0  0  0  0  0  0  0  0  0  0  0  0
    9.5911  -15.3224   16.2977 C   0  0  0  0  0  0  0  0  0  0  0  0
   10.6930  -14.7854   15.9618 O   0  0  0  0  0  0  0  0  0  0  0  0
    7.8970  -12.7958   18.9202 C   0  0  0  0  0  0  0  0  0  0  0  0
    8.8102  -13.8009   19.5747 C   0  0  1  0  0  0  0  0  0  0  0  0
    8.1495  -14.7669   20.2970 O   0  0  0  0  0  0  0  0  0  0  0  0
    9.7894  -14.3841   18.5658 C   0  0  2  0  0  0  0  0  0  0  0  0
    9.0672  -15.1658   17.6097 N   0  0  0  0  0  0  0  0  0  0  0  0
   10.7847  -15.1565   19.3404 C   0  0  0  0  0  0  0  0  0  0  0  0
   10.6120  -16.4031   19.4039 O   0  0  0  0  0  0  0  0  0  0  0  0
   11.9027  -14.6262   20.0098 N   0  0  0  0  0  0  0  0  0  0  0  0
   12.8646  -15.3674   20.7537 C   0  0  1  0  0  0  0  0  0  0  0  0
   14.2310  -14.7220   20.8227 C   0  0  0  0  0  0  0  0  0  0  0  0
   14.8533  -14.6254   19.4692 C   0  0  0  0  0  0  0  0  0  0  0  0
   14.6446  -15.4830   18.5725 O   0  0  0  0  0  0  0  0  0  0  0  0
   12.4255  -15.7549   22.0997 C   0  0  0  0  0  0  0  0  0  0  0  0
   11.3507  -15.2664   22.5426 O   0  0  0  0  0  0  0  0  0  0  0  0
   15.7097  -13.5745   19.1078 O   0  0  0  0  0  0  0  0  0  0  0  0
   13.1327  -16.6305   22.9086 O   0  0  0  0  0  0  0  0  0  0  0  0
  2  1  1  6
  2  9  1  0
  3  4  1  0
  3  2  1  0
  4  8  1  0
  5  6  1  0
  5  4  2  0
  6  7  1  0
  7  8  2  0
  9 15  1  0
  9 10  2  0
 12 11  1  6
 12 14  1  0
 13 12  1  0
 14 16  1  0
 14 15  1  6
 16 17  2  0
 16 18  1  0
 18 19  1  0
 19 23  1  0
 19 20  1  1
 20 21  1  0
 21 25  1  0
 21 22  2  0
 23 26  1  0
 24 23  2  0
M  END
$$$$
