HTD.pdb
     RDKit          3D

 26 26  0  0  1  0  0  0  0  0999 V2000
    9.4109  -15.2825   14.3599 N   0  0  0  0  0  0  0  0  0  0  0  0
    8.6820  -15.6696   15.5531 C   0  0  1  0  0  0  0  0  0  0  0  0
    8.8722  -17.1560   15.7354 C   0  0  0  0  0  0  0  0  0  0  0  0
    8.0325  -17.9347   14.8044 C   0  0  0  0  0  0  0  0  0  0  0  0
    6.9209  -17.4871   14.1412 C   0  0  0  0  0  0  0  0  0  0  0  0
    6.4573  -18.5256   13.3897 N   0  0  0  0  0  0  0  0  0  0  0  0
    7.2602  -19.5762   13.5867 C   0  0  0  0  0  0  0  0  0  0  0  0
    8.2351  -19.2163   14.4598 N   0  0  0  0  0  0  0  0  0  0  0  0
    9.3408  -14.9840   16.7261 C   0  0  0  0  0  0  0  0  0  0  0  0
   10.5608  -14.6460   16.6140 O   0  0  0  0  0  0  0  0  0  0  0  0
    7.5750  -12.3210   19.2664 C   0  0  0  0  0  0  0  0  0  0  0  0
    8.2488  -13.4844   19.9486 C   0  0  1  0  0  0  0  0  0  0  0  0
    7.3732  -14.3969   20.4891 O   0  0  0  0  0  0  0  0  0  0  0  0
    9.2819  -14.1271   19.0341 C   0  0  2  0  0  0  0  0  0  0  0  0
    8.6135  -14.7258   17.9197 N   0  0  0  0  0  0  0  0  0  0  0  0
   10.0407  -15.0884   19.8632 C   0  0  0  0  0  0  0  0  0  0  0  0
    9.8285  -16.3124   19.6516 O   0  0  0  0  0  0  0  0  0  0  0  0
   10.9745  -14.7600   20.8627 N   0  0  0  0  0  0  0  0  0  0  0  0
   11.7379  -15.6826   21.6335 C   0  0  1  0  0  0  0  0  0  0  0  0
   13.1511  -15.2297   21.9271 C   0  0  0  0  0  0  0  0  0  0  0  0
   13.9306  -16.3002   22.6163 C   0  0  0  0  0  0  0  0  0  0  0  0
   14.0973  -17.4399   22.1098 O   0  0  0  0  0  0  0  0  0  0  0  0
   11.0865  -16.1253   22.8723 C   0  0  0  0  0  0  0  0  0  0  0  0
   10.1998  -15.3861   23.3796 O   0  0  0  0  0  0  0  0  0  0  0  0
   14.5278  -16.1071   23.8710 O   0  0  0  0  0  0  0  0  0  0  0  0
   11.3971  -17.3146   23.5127 O   0  0  0  0  0  0  0  0  0  0  0  0
  2  1  1  6
  2  9  1  0
  3  4  1  0
  3  2  1  0
  4  8  1  0
  5  6  1  0
  5  4  2  0
  6  7  1  0
  7  8  2  0
  9 15  1  0
  9 10  2  0
 12 11  1  6
 12 14  1  0
 13 12  1  0
 14 16  1  0
 14 15  1  6
 16 17  2  0
 16 18  1  0
 18 19  1  0
 19 23  1  0
 19 20  1  1
 20 21  1  0
 21 25  1  0
 21 22  2  0
 23 26  1  0
 24 23  2  0
M  END
$$$$
