HTD.pdb
     RDKit          3D

 26 26  0  0  1  0  0  0  0  0999 V2000
   15.4767  -14.9895   15.1323 N   0  0  0  0  0  0  0  0  0  0  0  0
   16.0192  -13.7719   15.7050 C   0  0  1  0  0  0  0  0  0  0  0  0
   15.4728  -12.6146   14.9046 C   0  0  0  0  0  0  0  0  0  0  0  0
   15.8891  -12.6810   13.4901 C   0  0  0  0  0  0  0  0  0  0  0  0
   16.7638  -11.8378   12.8580 C   0  0  0  0  0  0  0  0  0  0  0  0
   16.8630  -12.2589   11.5652 N   0  0  0  0  0  0  0  0  0  0  0  0
   16.0735  -13.3266   11.4109 C   0  0  0  0  0  0  0  0  0  0  0  0
   15.4696  -13.5916   12.5973 N   0  0  0  0  0  0  0  0  0  0  0  0
   15.4702  -13.6493   17.1063 C   0  0  0  0  0  0  0  0  0  0  0  0
   15.7472  -12.6003   17.7682 O   0  0  0  0  0  0  0  0  0  0  0  0
   11.9430  -13.7166   18.4296 C   0  0  0  0  0  0  0  0  0  0  0  0
   12.7196  -14.8387   19.0702 C   0  0  1  0  0  0  0  0  0  0  0  0
   12.3896  -16.0867   18.5960 O   0  0  0  0  0  0  0  0  0  0  0  0
   14.2157  -14.5636   19.0181 C   0  0  2  0  0  0  0  0  0  0  0  0
   14.6668  -14.6801   17.6654 N   0  0  0  0  0  0  0  0  0  0  0  0
   14.8544  -15.5219   19.9460 C   0  0  0  0  0  0  0  0  0  0  0  0
   15.2532  -16.6107   19.4526 O   0  0  0  0  0  0  0  0  0  0  0  0
   15.0559  -15.3274   21.3246 N   0  0  0  0  0  0  0  0  0  0  0  0
   15.6768  -16.2449   22.2195 C   0  0  1  0  0  0  0  0  0  0  0  0
   16.7398  -15.6306   23.1033 C   0  0  0  0  0  0  0  0  0  0  0  0
   17.8322  -15.0182   22.2908 C   0  0  0  0  0  0  0  0  0  0  0  0
   17.9141  -15.1815   21.0459 O   0  0  0  0  0  0  0  0  0  0  0  0
   14.7401  -17.0285   23.0339 C   0  0  0  0  0  0  0  0  0  0  0  0
   15.1971  -17.9818   23.7212 O   0  0  0  0  0  0  0  0  0  0  0  0
   18.8373  -14.2217   22.8597 O   0  0  0  0  0  0  0  0  0  0  0  0
   13.3787  -16.7737   23.0854 O   0  0  0  0  0  0  0  0  0  0  0  0
  2  1  1  6
  2  9  1  0
  3  4  1  0
  3  2  1  0
  4  8  1  0
  5  6  1  0
  5  4  2  0
  6  7  1  0
  7  8  2  0
  9 15  1  0
  9 10  2  0
 12 11  1  6
 12 14  1  0
 13 12  1  0
 14 16  1  0
 14 15  1  6
 16 17  2  0
 16 18  1  0
 18 19  1  0
 19 23  1  0
 19 20  1  1
 20 21  1  0
 21 25  1  0
 21 22  2  0
 23 26  1  0
 24 23  2  0
M  END
$$$$
