HTD.pdb
     RDKit          3D

 26 26  0  0  1  0  0  0  0  0999 V2000
   10.3708  -15.1783   15.3111 N   0  0  0  0  0  0  0  0  0  0  0  0
   10.3500  -16.1215   16.4133 C   0  0  1  0  0  0  0  0  0  0  0  0
   11.6187  -16.9357   16.3339 C   0  0  0  0  0  0  0  0  0  0  0  0
   11.5750  -17.9131   15.2289 C   0  0  0  0  0  0  0  0  0  0  0  0
   10.7440  -18.9976   15.1329 C   0  0  0  0  0  0  0  0  0  0  0  0
   11.0361  -19.6235   13.9577 N   0  0  0  0  0  0  0  0  0  0  0  0
   12.0154  -18.9434   13.3532 C   0  0  0  0  0  0  0  0  0  0  0  0
   12.3518  -17.8856   14.1343 N   0  0  0  0  0  0  0  0  0  0  0  0
   10.4077  -15.3214   17.6926 C   0  0  0  0  0  0  0  0  0  0  0  0
   11.3852  -14.5260   17.8577 O   0  0  0  0  0  0  0  0  0  0  0  0
    7.9313  -12.9406   19.3680 C   0  0  0  0  0  0  0  0  0  0  0  0
    8.2116  -14.1060   20.2824 C   0  0  1  0  0  0  0  0  0  0  0  0
    7.1732  -15.0029   20.3765 O   0  0  0  0  0  0  0  0  0  0  0  0
    9.5349  -14.7693   19.9281 C   0  0  2  0  0  0  0  0  0  0  0  0
    9.3955  -15.4568   18.6812 N   0  0  0  0  0  0  0  0  0  0  0  0
    9.8821  -15.6526   21.0624 C   0  0  0  0  0  0  0  0  0  0  0  0
    9.4319  -16.8290   21.0249 O   0  0  0  0  0  0  0  0  0  0  0  0
   10.6670  -15.2984   22.1748 N   0  0  0  0  0  0  0  0  0  0  0  0
   11.0381  -16.1582   23.2477 C   0  0  1  0  0  0  0  0  0  0  0  0
   12.3459  -15.7934   23.9148 C   0  0  0  0  0  0  0  0  0  0  0  0
   13.4840  -15.8666   22.9515 C   0  0  0  0  0  0  0  0  0  0  0  0
   13.4746  -16.6413   21.9601 O   0  0  0  0  0  0  0  0  0  0  0  0
    9.9948  -16.3495   24.2626 C   0  0  0  0  0  0  0  0  0  0  0  0
   10.1969  -17.1937   25.1771 O   0  0  0  0  0  0  0  0  0  0  0  0
   14.6367  -15.0783   23.0872 O   0  0  0  0  0  0  0  0  0  0  0  0
    8.7987  -15.6494   24.2660 O   0  0  0  0  0  0  0  0  0  0  0  0
  2  1  1  6
  2  9  1  0
  3  4  1  0
  3  2  1  0
  4  8  1  0
  5  6  1  0
  5  4  2  0
  6  7  1  0
  7  8  2  0
  9 15  1  0
  9 10  2  0
 12 11  1  6
 12 14  1  0
 13 12  1  0
 14 16  1  0
 14 15  1  6
 16 17  2  0
 16 18  1  0
 18 19  1  0
 19 23  1  0
 19 20  1  1
 20 21  1  0
 21 25  1  0
 21 22  2  0
 23 26  1  0
 24 23  2  0
M  END
$$$$
