HTD.pdb
     RDKit          3D

 26 26  0  0  1  0  0  0  0  0999 V2000
   10.2427  -15.9327   14.8903 N   0  0  0  0  0  0  0  0  0  0  0  0
    9.2587  -16.3443   15.8737 C   0  0  1  0  0  0  0  0  0  0  0  0
    9.3748  -17.8413   16.0286 C   0  0  0  0  0  0  0  0  0  0  0  0
    8.8336  -18.5576   14.8571 C   0  0  0  0  0  0  0  0  0  0  0  0
    7.6121  -18.3556   14.2716 C   0  0  0  0  0  0  0  0  0  0  0  0
    7.5211  -19.2236   13.2245 N   0  0  0  0  0  0  0  0  0  0  0  0
    8.6517  -19.9348   13.1707 C   0  0  0  0  0  0  0  0  0  0  0  0
    9.4661  -19.5271   14.1772 N   0  0  0  0  0  0  0  0  0  0  0  0
    9.6522  -15.7231   17.1926 C   0  0  0  0  0  0  0  0  0  0  0  0
   10.8886  -15.6629   17.4807 O   0  0  0  0  0  0  0  0  0  0  0  0
    7.6064  -12.6366   19.0562 C   0  0  0  0  0  0  0  0  0  0  0  0
    7.9100  -13.8439   19.9064 C   0  0  1  0  0  0  0  0  0  0  0  0
    6.8108  -14.6243   20.1790 O   0  0  0  0  0  0  0  0  0  0  0  0
    9.0703  -14.6399   19.3262 C   0  0  2  0  0  0  0  0  0  0  0  0
    8.6648  -15.2212   18.0834 N   0  0  0  0  0  0  0  0  0  0  0  0
    9.4574  -15.6321   20.3524 C   0  0  0  0  0  0  0  0  0  0  0  0
    9.2906  -16.8465   20.0600 O   0  0  0  0  0  0  0  0  0  0  0  0
    9.9933  -15.3427   21.6205 N   0  0  0  0  0  0  0  0  0  0  0  0
   10.4179  -16.2961   22.5894 C   0  0  1  0  0  0  0  0  0  0  0  0
   11.8461  -16.7646   22.4184 C   0  0  0  0  0  0  0  0  0  0  0  0
   12.2481  -17.6896   23.5190 C   0  0  0  0  0  0  0  0  0  0  0  0
   11.5309  -18.6604   23.8745 O   0  0  0  0  0  0  0  0  0  0  0  0
   10.1868  -15.8925   23.9817 C   0  0  0  0  0  0  0  0  0  0  0  0
   10.2032  -14.6625   24.2591 O   0  0  0  0  0  0  0  0  0  0  0  0
   13.4492  -17.5386   24.2280 O   0  0  0  0  0  0  0  0  0  0  0  0
    9.9519  -16.7950   25.0070 O   0  0  0  0  0  0  0  0  0  0  0  0
  2  1  1  6
  2  9  1  0
  3  4  1  0
  3  2  1  0
  4  8  1  0
  5  6  1  0
  5  4  2  0
  6  7  1  0
  7  8  2  0
  9 15  1  0
  9 10  2  0
 12 11  1  6
 12 14  1  0
 13 12  1  0
 14 16  1  0
 14 15  1  6
 16 17  2  0
 16 18  1  0
 18 19  1  0
 19 23  1  0
 19 20  1  1
 20 21  1  0
 21 25  1  0
 21 22  2  0
 23 26  1  0
 24 23  2  0
M  END
$$$$
