HTD.pdb
     RDKit          3D

 26 26  0  0  1  0  0  0  0  0999 V2000
    9.7409  -15.5325   14.1224 N   0  0  0  0  0  0  0  0  0  0  0  0
    9.2086  -16.0827   15.3548 C   0  0  1  0  0  0  0  0  0  0  0  0
    9.6928  -17.5087   15.4581 C   0  0  0  0  0  0  0  0  0  0  0  0
    8.9647  -18.4033   14.5373 C   0  0  0  0  0  0  0  0  0  0  0  0
    9.4296  -18.9038   13.3502 C   0  0  0  0  0  0  0  0  0  0  0  0
    8.4396  -19.6822   12.8283 N   0  0  0  0  0  0  0  0  0  0  0  0
    7.4011  -19.6589   13.6699 C   0  0  0  0  0  0  0  0  0  0  0  0
    7.7205  -18.8703   14.7274 N   0  0  0  0  0  0  0  0  0  0  0  0
    9.8279  -15.3129   16.4967 C   0  0  0  0  0  0  0  0  0  0  0  0
   11.0186  -14.8907   16.3580 O   0  0  0  0  0  0  0  0  0  0  0  0
    7.8714  -12.5635   18.6701 C   0  0  0  0  0  0  0  0  0  0  0  0
    8.5812  -13.5893   19.5167 C   0  0  1  0  0  0  0  0  0  0  0  0
    7.7371  -14.4788   20.1393 O   0  0  0  0  0  0  0  0  0  0  0  0
    9.6853  -14.2770   18.7262 C   0  0  2  0  0  0  0  0  0  0  0  0
    9.0964  -15.0696   17.6909 N   0  0  0  0  0  0  0  0  0  0  0  0
   10.4784  -15.0584   19.6997 C   0  0  0  0  0  0  0  0  0  0  0  0
   10.2608  -16.2988   19.7444 O   0  0  0  0  0  0  0  0  0  0  0  0
   11.4503  -14.5430   20.5765 N   0  0  0  0  0  0  0  0  0  0  0  0
   12.2207  -15.2935   21.5099 C   0  0  1  0  0  0  0  0  0  0  0  0
   13.5511  -14.6675   21.8658 C   0  0  0  0  0  0  0  0  0  0  0  0
   14.4346  -14.5553   20.6677 C   0  0  0  0  0  0  0  0  0  0  0  0
   14.3350  -15.3356   19.6857 O   0  0  0  0  0  0  0  0  0  0  0  0
   11.4998  -15.6664   22.7330 C   0  0  0  0  0  0  0  0  0  0  0  0
   10.3617  -15.1624   22.9343 O   0  0  0  0  0  0  0  0  0  0  0  0
   15.4319  -13.5747   20.5572 O   0  0  0  0  0  0  0  0  0  0  0  0
   12.0071  -16.5444   23.6779 O   0  0  0  0  0  0  0  0  0  0  0  0
  2  1  1  6
  2  9  1  0
  3  4  1  0
  3  2  1  0
  4  8  1  0
  5  6  1  0
  5  4  2  0
  6  7  1  0
  7  8  2  0
  9 15  1  0
  9 10  2  0
 12 11  1  6
 12 14  1  0
 13 12  1  0
 14 16  1  0
 14 15  1  6
 16 17  2  0
 16 18  1  0
 18 19  1  0
 19 23  1  0
 19 20  1  1
 20 21  1  0
 21 25  1  0
 21 22  2  0
 23 26  1  0
 24 23  2  0
M  END
$$$$
