HTD.pdb
     RDKit          3D

 26 26  0  0  1  0  0  0  0  0999 V2000
   12.2557  -14.4745   14.9167 N   0  0  0  0  0  0  0  0  0  0  0  0
   11.5575  -15.3999   15.7889 C   0  0  1  0  0  0  0  0  0  0  0  0
   12.3489  -16.6852   15.8089 C   0  0  0  0  0  0  0  0  0  0  0  0
   12.3646  -17.3403   14.4864 C   0  0  0  0  0  0  0  0  0  0  0  0
   11.3074  -17.9539   13.8686 C   0  0  0  0  0  0  0  0  0  0  0  0
   11.7589  -18.4188   12.6693 N   0  0  0  0  0  0  0  0  0  0  0  0
   13.0522  -18.0998   12.5566 C   0  0  0  0  0  0  0  0  0  0  0  0
   13.4313  -17.4332   13.6765 N   0  0  0  0  0  0  0  0  0  0  0  0
   11.5993  -14.8235   17.1840 C   0  0  0  0  0  0  0  0  0  0  0  0
   12.6523  -14.2116   17.5475 O   0  0  0  0  0  0  0  0  0  0  0  0
    8.7334  -12.7003   18.8499 C   0  0  0  0  0  0  0  0  0  0  0  0
    9.1435  -13.8593   19.7224 C   0  0  1  0  0  0  0  0  0  0  0  0
    8.2159  -14.8733   19.7747 O   0  0  0  0  0  0  0  0  0  0  0  0
   10.5361  -14.3511   19.3543 C   0  0  2  0  0  0  0  0  0  0  0  0
   10.4905  -14.9636   18.0622 N   0  0  0  0  0  0  0  0  0  0  0  0
   10.9606  -15.2667   20.4355 C   0  0  0  0  0  0  0  0  0  0  0  0
   10.6149  -16.4735   20.3263 O   0  0  0  0  0  0  0  0  0  0  0  0
   11.7130  -14.9123   21.5700 N   0  0  0  0  0  0  0  0  0  0  0  0
   12.1421  -15.7954   22.6016 C   0  0  1  0  0  0  0  0  0  0  0  0
   13.3593  -15.3191   23.3632 C   0  0  0  0  0  0  0  0  0  0  0  0
   14.5014  -15.0447   22.4419 C   0  0  0  0  0  0  0  0  0  0  0  0
   14.7951  -15.8138   21.4905 O   0  0  0  0  0  0  0  0  0  0  0  0
   11.0864  -16.1908   23.5418 C   0  0  0  0  0  0  0  0  0  0  0  0
   11.2630  -17.2263   24.2393 O   0  0  0  0  0  0  0  0  0  0  0  0
   15.3209  -13.9137   22.5752 O   0  0  0  0  0  0  0  0  0  0  0  0
    9.9051  -15.4836   23.7014 O   0  0  0  0  0  0  0  0  0  0  0  0
  2  1  1  6
  2  9  1  0
  3  4  1  0
  3  2  1  0
  4  8  1  0
  5  6  1  0
  5  4  2  0
  6  7  1  0
  7  8  2  0
  9 15  1  0
  9 10  2  0
 12 11  1  6
 12 14  1  0
 13 12  1  0
 14 16  1  0
 14 15  1  6
 16 17  2  0
 16 18  1  0
 18 19  1  0
 19 23  1  0
 19 20  1  1
 20 21  1  0
 21 25  1  0
 21 22  2  0
 23 26  1  0
 24 23  2  0
M  END
$$$$
