HTD.pdb
     RDKit          3D

 26 26  0  0  1  0  0  0  0  0999 V2000
    7.6293  -17.5432   19.3017 N   0  0  0  0  0  0  0  0  0  0  0  0
    8.9561  -17.0460   19.6134 C   0  0  1  0  0  0  0  0  0  0  0  0
    8.8149  -16.0699   20.7563 C   0  0  0  0  0  0  0  0  0  0  0  0
    8.2995  -14.7638   20.3015 C   0  0  0  0  0  0  0  0  0  0  0  0
    7.9075  -14.4408   19.0296 C   0  0  0  0  0  0  0  0  0  0  0  0
    7.5006  -13.1400   19.0538 N   0  0  0  0  0  0  0  0  0  0  0  0
    7.6392  -12.6810   20.3017 C   0  0  0  0  0  0  0  0  0  0  0  0
    8.1324  -13.6804   21.0766 N   0  0  0  0  0  0  0  0  0  0  0  0
    9.7687  -18.2147   20.1171 C   0  0  0  0  0  0  0  0  0  0  0  0
    9.2635  -18.9490   21.0232 O   0  0  0  0  0  0  0  0  0  0  0  0
   13.7827  -21.0520   19.6694 C   0  0  0  0  0  0  0  0  0  0  0  0
   12.9429  -19.9150   19.1453 C   0  0  1  0  0  0  0  0  0  0  0  0
   12.4947  -20.1002   17.8583 O   0  0  0  0  0  0  0  0  0  0  0  0
   11.8228  -19.5731   20.1174 C   0  0  2  0  0  0  0  0  0  0  0  0
   11.0614  -18.4825   19.5902 N   0  0  0  0  0  0  0  0  0  0  0  0
   12.4653  -19.2807   21.4170 C   0  0  0  0  0  0  0  0  0  0  0  0
   13.0467  -18.1680   21.5257 O   0  0  0  0  0  0  0  0  0  0  0  0
   12.4852  -20.1301   22.5382 N   0  0  0  0  0  0  0  0  0  0  0  0
   13.1631  -19.8831   23.7660 C   0  0  1  0  0  0  0  0  0  0  0  0
   12.4893  -20.4814   24.9811 C   0  0  0  0  0  0  0  0  0  0  0  0
   11.1202  -19.9181   25.1734 C   0  0  0  0  0  0  0  0  0  0  0  0
   10.8763  -18.6904   25.0454 O   0  0  0  0  0  0  0  0  0  0  0  0
   14.5871  -20.2396   23.7569 C   0  0  0  0  0  0  0  0  0  0  0  0
   15.2903  -19.9213   24.7540 O   0  0  0  0  0  0  0  0  0  0  0  0
   10.0175  -20.7181   25.5086 O   0  0  0  0  0  0  0  0  0  0  0  0
   15.1978  -20.9081   22.7076 O   0  0  0  0  0  0  0  0  0  0  0  0
  2  1  1  1
  2  9  1  0
  3  4  1  0
  3  2  1  0
  4  8  1  0
  5  6  1  0
  5  4  2  0
  6  7  1  0
  7  8  2  0
  9 15  1  0
  9 10  2  0
 12 11  1  1
 12 14  1  0
 13 12  1  0
 14 16  1  0
 14 15  1  6
 16 17  2  0
 16 18  1  0
 18 19  1  0
 19 23  1  0
 19 20  1  1
 20 21  1  0
 21 25  1  0
 21 22  2  0
 23 26  1  0
 24 23  2  0
M  END
$$$$
