HTD.pdb
     RDKit          3D

 26 26  0  0  1  0  0  0  0  0999 V2000
   12.3581  -14.6463   15.8795 N   0  0  0  0  0  0  0  0  0  0  0  0
   11.2619  -15.4049   16.4520 C   0  0  1  0  0  0  0  0  0  0  0  0
   11.6865  -16.8530   16.4889 C   0  0  0  0  0  0  0  0  0  0  0  0
   11.7180  -17.4499   15.1395 C   0  0  0  0  0  0  0  0  0  0  0  0
   10.7224  -18.1820   14.5491 C   0  0  0  0  0  0  0  0  0  0  0  0
   11.1656  -18.5345   13.3091 N   0  0  0  0  0  0  0  0  0  0  0  0
   12.3943  -18.0338   13.1456 C   0  0  0  0  0  0  0  0  0  0  0  0
   12.7403  -17.3627   14.2736 N   0  0  0  0  0  0  0  0  0  0  0  0
   11.0954  -14.9477   17.8815 C   0  0  0  0  0  0  0  0  0  0  0  0
   12.1404  -14.6477   18.5397 O   0  0  0  0  0  0  0  0  0  0  0  0
    7.9875  -12.6297   19.1060 C   0  0  0  0  0  0  0  0  0  0  0  0
    8.2538  -13.8210   19.9906 C   0  0  1  0  0  0  0  0  0  0  0  0
    7.3070  -14.8133   19.8892 O   0  0  0  0  0  0  0  0  0  0  0  0
    9.6727  -14.3364   19.7963 C   0  0  2  0  0  0  0  0  0  0  0  0
    9.8048  -14.8568   18.4702 N   0  0  0  0  0  0  0  0  0  0  0  0
    9.9077  -15.3387   20.8582 C   0  0  0  0  0  0  0  0  0  0  0  0
    9.9260  -16.5479   20.5041 O   0  0  0  0  0  0  0  0  0  0  0  0
   10.1119  -15.0640   22.2227 N   0  0  0  0  0  0  0  0  0  0  0  0
   10.3194  -16.0275   23.2506 C   0  0  1  0  0  0  0  0  0  0  0  0
   11.6478  -15.9018   23.9635 C   0  0  0  0  0  0  0  0  0  0  0  0
   11.8122  -16.9688   24.9945 C   0  0  0  0  0  0  0  0  0  0  0  0
   11.5210  -16.7827   26.2043 O   0  0  0  0  0  0  0  0  0  0  0  0
    9.2310  -16.1142   24.2317 C   0  0  0  0  0  0  0  0  0  0  0  0
    8.4617  -15.1236   24.3616 O   0  0  0  0  0  0  0  0  0  0  0  0
   12.3008  -18.2467   24.6838 O   0  0  0  0  0  0  0  0  0  0  0  0
    9.0063  -17.2298   25.0229 O   0  0  0  0  0  0  0  0  0  0  0  0
  2  1  1  1
  2  9  1  0
  3  4  1  0
  3  2  1  0
  4  8  1  0
  5  6  1  0
  5  4  2  0
  6  7  1  0
  7  8  2  0
  9 15  1  0
  9 10  2  0
 12 11  1  6
 12 14  1  0
 13 12  1  0
 14 16  1  0
 14 15  1  6
 16 17  2  0
 16 18  1  0
 18 19  1  0
 19 23  1  0
 19 20  1  1
 20 21  1  0
 21 25  1  0
 21 22  2  0
 23 26  1  0
 24 23  2  0
M  END
$$$$
