GQL.pdb
     RDKit          3D

 22 21  0  0  1  0  0  0  0  0999 V2000
    8.5858  -19.8336   21.1252 N   0  0  0  0  0  0  0  0  0  0  0  0
    7.8956  -18.8467   21.8918 C   0  0  0  0  0  0  0  0  0  0  0  0
    8.4662  -17.4796   21.7081 C   0  0  0  0  0  0  0  0  0  0  0  0
    9.7003  -17.3288   21.8976 O   0  0  0  0  0  0  0  0  0  0  0  0
    9.7840  -12.3178   18.9749 N   0  0  0  0  0  0  0  0  0  0  0  0
    8.5380  -12.9781   18.9235 C   0  0  0  0  0  0  0  0  0  0  0  0
    8.2877  -13.6792   17.9177 O   0  0  0  0  0  0  0  0  0  0  0  0
    7.5196  -12.8614   20.0308 C   0  0  0  0  0  0  0  0  0  0  0  0
    7.1806  -14.2323   20.4683 C   0  0  0  0  0  0  0  0  0  0  0  0
    8.2202  -15.0000   21.2114 C   0  0  2  0  0  0  0  0  0  0  0  0
    7.6892  -16.3676   21.3364 N   0  0  0  0  0  0  0  0  0  0  0  0
    8.4977  -14.4922   22.5627 C   0  0  0  0  0  0  0  0  0  0  0  0
    9.0953  -13.3813   22.6759 O   0  0  0  0  0  0  0  0  0  0  0  0
    5.8048  -12.2318   26.9920 C   0  0  0  0  0  0  0  0  0  0  0  0
    7.1392  -12.8343   26.6526 C   0  0  2  0  0  0  0  0  0  0  0  0
    8.1849  -11.7108   26.6340 C   0  0  0  0  0  0  0  0  0  0  0  0
    7.1024  -13.5292   25.3455 C   0  0  0  0  0  0  0  0  0  0  0  0
    8.2034  -14.4715   25.0248 C   0  0  2  0  0  0  0  0  0  0  0  0
    8.1493  -15.1409   23.7774 N   0  0  0  0  0  0  0  0  0  0  0  0
    8.4936  -15.4297   26.1196 C   0  0  0  0  0  0  0  0  0  0  0  0
    8.5228  -14.9993   27.2919 O   0  0  0  0  0  0  0  0  0  0  0  0
    8.7331  -16.7746   25.9061 O   0  0  0  0  0  0  0  0  0  0  0  0
  1  2  1  0
  2  3  1  0
  3  4  2  0
  5  6  1  0
  6  8  1  0
  7  6  2  0
  8  9  1  0
 10  9  1  1
 11  3  1  0
 11 10  1  0
 12 19  1  0
 12 10  1  0
 13 12  2  0
 15 14  1  6
 15 17  1  0
 15 16  1  0
 18 17  1  1
 18 20  1  0
 18 19  1  0
 20 22  1  0
 21 20  2  0
M  END
$$$$
