GQL.pdb
     RDKit          3D

 22 21  0  0  1  0  0  0  0  0999 V2000
    7.6630  -12.8095   18.7550 N   0  0  0  0  0  0  0  0  0  0  0  0
    8.7532  -13.3601   19.4943 C   0  0  0  0  0  0  0  0  0  0  0  0
    8.2998  -14.2732   20.5846 C   0  0  0  0  0  0  0  0  0  0  0  0
    7.0623  -14.3890   20.7760 O   0  0  0  0  0  0  0  0  0  0  0  0
   10.4314  -19.8442   21.9422 N   0  0  0  0  0  0  0  0  0  0  0  0
   10.2959  -19.0112   20.8112 C   0  0  0  0  0  0  0  0  0  0  0  0
   10.9131  -19.3312   19.7708 O   0  0  0  0  0  0  0  0  0  0  0  0
    9.4412  -17.7678   20.8258 C   0  0  0  0  0  0  0  0  0  0  0  0
    9.5060  -17.2005   22.1894 C   0  0  0  0  0  0  0  0  0  0  0  0
    8.7621  -15.9352   22.4500 C   0  0  2  0  0  0  0  0  0  0  0  0
    9.1895  -15.0000   21.3961 N   0  0  0  0  0  0  0  0  0  0  0  0
    9.0525  -15.3193   23.7528 C   0  0  0  0  0  0  0  0  0  0  0  0
   10.2156  -14.8602   23.9541 O   0  0  0  0  0  0  0  0  0  0  0  0
    7.5760  -11.6500   25.3728 C   0  0  0  0  0  0  0  0  0  0  0  0
    6.7005  -12.7612   25.8802 C   0  0  2  0  0  0  0  0  0  0  0  0
    5.5555  -12.1405   26.6924 C   0  0  0  0  0  0  0  0  0  0  0  0
    7.4670  -13.7168   26.7123 C   0  0  0  0  0  0  0  0  0  0  0  0
    8.4927  -14.5567   26.0450 C   0  0  2  0  0  0  0  0  0  0  0  0
    8.1331  -15.1848   24.8271 N   0  0  0  0  0  0  0  0  0  0  0  0
    9.1439  -15.5259   26.9601 C   0  0  0  0  0  0  0  0  0  0  0  0
    9.0475  -16.7439   26.6998 O   0  0  0  0  0  0  0  0  0  0  0  0
    9.8515  -15.1476   28.0861 O   0  0  0  0  0  0  0  0  0  0  0  0
  1  2  1  0
  2  3  1  0
  3  4  2  0
  5  6  1  0
  6  8  1  0
  7  6  2  0
  8  9  1  0
 10  9  1  6
 11  3  1  0
 11 10  1  0
 12 19  1  0
 12 10  1  0
 13 12  2  0
 15 14  1  1
 15 17  1  0
 15 16  1  0
 18 17  1  1
 18 20  1  0
 18 19  1  0
 20 22  1  0
 21 20  2  0
M  END
$$$$
