GQL.pdb
     RDKit          3D

 22 21  0  0  1  0  0  0  0  0999 V2000
    7.5263  -14.0042   19.0615 N   0  0  0  0  0  0  0  0  0  0  0  0
    7.9978  -15.1690   19.7391 C   0  0  0  0  0  0  0  0  0  0  0  0
    7.4690  -15.2726   21.1311 C   0  0  0  0  0  0  0  0  0  0  0  0
    6.8010  -14.3054   21.5782 O   0  0  0  0  0  0  0  0  0  0  0  0
    6.3582  -20.7726   23.7235 N   0  0  0  0  0  0  0  0  0  0  0  0
    6.6417  -19.9897   24.8627 C   0  0  0  0  0  0  0  0  0  0  0  0
    6.9834  -20.5824   25.9105 O   0  0  0  0  0  0  0  0  0  0  0  0
    6.5447  -18.4840   24.8483 C   0  0  0  0  0  0  0  0  0  0  0  0
    7.0150  -18.0215   23.5252 C   0  0  0  0  0  0  0  0  0  0  0  0
    7.1044  -16.5511   23.2963 C   0  0  2  0  0  0  0  0  0  0  0  0
    7.6848  -16.3940   21.9523 N   0  0  0  0  0  0  0  0  0  0  0  0
    7.9662  -15.8407   24.2521 C   0  0  0  0  0  0  0  0  0  0  0  0
    9.2172  -15.8500   24.0546 O   0  0  0  0  0  0  0  0  0  0  0  0
    6.9886  -11.6500   25.1383 C   0  0  0  0  0  0  0  0  0  0  0  0
    6.6399  -12.5300   26.3056 C   0  0  2  0  0  0  0  0  0  0  0  0
    5.9306  -11.6714   27.3619 C   0  0  0  0  0  0  0  0  0  0  0  0
    7.8458  -13.1681   26.8814 C   0  0  0  0  0  0  0  0  0  0  0  0
    8.4045  -14.3563   26.1894 C   0  0  2  0  0  0  0  0  0  0  0  0
    7.5196  -15.1282   25.3968 N   0  0  0  0  0  0  0  0  0  0  0  0
    9.2063  -15.2311   27.0799 C   0  0  0  0  0  0  0  0  0  0  0  0
   10.0477  -14.6980   27.8337 O   0  0  0  0  0  0  0  0  0  0  0  0
    9.0680  -16.6063   27.1162 O   0  0  0  0  0  0  0  0  0  0  0  0
  1  2  1  0
  2  3  1  0
  3  4  2  0
  5  6  1  0
  6  8  1  0
  7  6  2  0
  8  9  1  0
 10  9  1  1
 11  3  1  0
 11 10  1  0
 12 19  1  0
 12 10  1  0
 13 12  2  0
 15 14  1  6
 15 17  1  0
 15 16  1  0
 18 17  1  1
 18 20  1  0
 18 19  1  0
 20 22  1  0
 21 20  2  0
M  END
$$$$
