GQL.pdb
     RDKit          3D

 22 21  0  0  1  0  0  0  0  0999 V2000
    7.8622  -12.5419   18.0201 N   0  0  0  0  0  0  0  0  0  0  0  0
    8.7864  -13.3284   18.7719 C   0  0  0  0  0  0  0  0  0  0  0  0
    8.1081  -14.2060   19.7709 C   0  0  0  0  0  0  0  0  0  0  0  0
    7.0876  -14.8393   19.3980 O   0  0  0  0  0  0  0  0  0  0  0  0
    9.4392  -19.1572   20.7722 N   0  0  0  0  0  0  0  0  0  0  0  0
   10.3987  -18.1227   20.7524 C   0  0  0  0  0  0  0  0  0  0  0  0
   11.5636  -18.4112   20.3976 O   0  0  0  0  0  0  0  0  0  0  0  0
   10.0607  -16.7046   21.1413 C   0  0  0  0  0  0  0  0  0  0  0  0
    8.6291  -16.6743   21.5088 C   0  0  0  0  0  0  0  0  0  0  0  0
    8.0713  -15.3894   22.0190 C   0  0  2  0  0  0  0  0  0  0  0  0
    8.5586  -14.3513   21.0954 N   0  0  0  0  0  0  0  0  0  0  0  0
    8.5099  -15.0354   23.3767 C   0  0  0  0  0  0  0  0  0  0  0  0
    9.7168  -14.6915   23.5473 O   0  0  0  0  0  0  0  0  0  0  0  0
    5.9252  -11.8176   27.0385 C   0  0  0  0  0  0  0  0  0  0  0  0
    7.2354  -12.3881   26.5732 C   0  0  2  0  0  0  0  0  0  0  0  0
    7.4632  -11.9499   25.1199 C   0  0  0  0  0  0  0  0  0  0  0  0
    7.2498  -13.8652   26.6772 C   0  0  0  0  0  0  0  0  0  0  0  0
    8.1798  -14.6176   25.7986 C   0  0  2  0  0  0  0  0  0  0  0  0
    7.6913  -15.0397   24.5375 N   0  0  0  0  0  0  0  0  0  0  0  0
    8.8688  -15.7336   26.4919 C   0  0  0  0  0  0  0  0  0  0  0  0
    8.7249  -16.8901   26.0420 O   0  0  0  0  0  0  0  0  0  0  0  0
    9.6616  -15.5566   27.6107 O   0  0  0  0  0  0  0  0  0  0  0  0
  1  2  1  0
  2  3  1  0
  3  4  2  0
  5  6  1  0
  6  8  1  0
  7  6  2  0
  8  9  1  0
 10  9  1  6
 11  3  1  0
 11 10  1  0
 12 19  1  0
 12 10  1  0
 13 12  2  0
 15 14  1  6
 15 17  1  0
 15 16  1  0
 18 17  1  1
 18 20  1  0
 18 19  1  0
 20 22  1  0
 21 20  2  0
M  END
$$$$
