GQL.pdb
     RDKit          3D

 22 21  0  0  1  0  0  0  0  0999 V2000
    4.8125  -18.5856   20.7097 N   0  0  0  0  0  0  0  0  0  0  0  0
    5.1504  -17.4138   21.4518 C   0  0  0  0  0  0  0  0  0  0  0  0
    6.6139  -17.1214   21.4214 C   0  0  0  0  0  0  0  0  0  0  0  0
    7.3064  -17.6852   20.5359 O   0  0  0  0  0  0  0  0  0  0  0  0
    8.8473  -12.6888   18.8555 N   0  0  0  0  0  0  0  0  0  0  0  0
    7.9528  -13.7587   19.0707 C   0  0  0  0  0  0  0  0  0  0  0  0
    7.4211  -14.2879   18.0691 O   0  0  0  0  0  0  0  0  0  0  0  0
    7.6281  -14.2702   20.4525 C   0  0  0  0  0  0  0  0  0  0  0  0
    8.7359  -15.1558   20.8697 C   0  0  0  0  0  0  0  0  0  0  0  0
    8.6388  -15.8039   22.2087 C   0  0  2  0  0  0  0  0  0  0  0  0
    7.2416  -16.2519   22.3316 N   0  0  0  0  0  0  0  0  0  0  0  0
    8.9327  -14.9092   23.3374 C   0  0  0  0  0  0  0  0  0  0  0  0
   10.1279  -14.5239   23.5028 O   0  0  0  0  0  0  0  0  0  0  0  0
    7.6075  -11.4042   26.2055 C   0  0  0  0  0  0  0  0  0  0  0  0
    6.5998  -12.5191   26.1850 C   0  0  2  0  0  0  0  0  0  0  0  0
    5.4691  -12.1651   27.1609 C   0  0  0  0  0  0  0  0  0  0  0  0
    7.2171  -13.8132   26.5550 C   0  0  0  0  0  0  0  0  0  0  0  0
    8.2672  -14.3658   25.6635 C   0  0  2  0  0  0  0  0  0  0  0  0
    7.9841  -14.4239   24.2765 N   0  0  0  0  0  0  0  0  0  0  0  0
    8.8200  -15.6580   26.1383 C   0  0  0  0  0  0  0  0  0  0  0  0
    9.7936  -15.6347   26.9205 O   0  0  0  0  0  0  0  0  0  0  0  0
    8.3108  -16.8859   25.7577 O   0  0  0  0  0  0  0  0  0  0  0  0
  1  2  1  0
  2  3  1  0
  3  4  2  0
  5  6  1  0
  6  8  1  0
  7  6  2  0
  8  9  1  0
 10  9  1  6
 11  3  1  0
 11 10  1  0
 12 19  1  0
 12 10  1  0
 13 12  2  0
 15 14  1  1
 15 17  1  0
 15 16  1  0
 18 17  1  1
 18 20  1  0
 18 19  1  0
 20 22  1  0
 21 20  2  0
M  END
$$$$
