GQL.pdb
     RDKit          3D

 22 21  0  0  1  0  0  0  0  0999 V2000
    7.4886  -12.6712   18.8224 N   0  0  0  0  0  0  0  0  0  0  0  0
    8.6174  -13.1322   19.5649 C   0  0  0  0  0  0  0  0  0  0  0  0
    8.2338  -14.0618   20.6681 C   0  0  0  0  0  0  0  0  0  0  0  0
    7.0309  -14.0721   21.0346 O   0  0  0  0  0  0  0  0  0  0  0  0
    8.6382  -17.8220   19.0501 N   0  0  0  0  0  0  0  0  0  0  0  0
    8.0542  -17.8786   20.3334 C   0  0  0  0  0  0  0  0  0  0  0  0
    6.8483  -17.5626   20.4425 O   0  0  0  0  0  0  0  0  0  0  0  0
    8.8334  -18.3029   21.5538 C   0  0  0  0  0  0  0  0  0  0  0  0
    9.5689  -17.1182   22.0449 C   0  0  0  0  0  0  0  0  0  0  0  0
    8.7811  -15.8890   22.3466 C   0  0  2  0  0  0  0  0  0  0  0  0
    9.1518  -14.9156   21.3058 N   0  0  0  0  0  0  0  0  0  0  0  0
    9.0718  -15.2898   23.6570 C   0  0  0  0  0  0  0  0  0  0  0  0
   10.2142  -14.7754   23.8420 O   0  0  0  0  0  0  0  0  0  0  0  0
    7.7435  -11.5788   25.4647 C   0  0  0  0  0  0  0  0  0  0  0  0
    6.8145  -12.7130   25.7954 C   0  0  2  0  0  0  0  0  0  0  0  0
    5.6002  -12.1405   26.5396 C   0  0  0  0  0  0  0  0  0  0  0  0
    7.4889  -13.7422   26.6193 C   0  0  0  0  0  0  0  0  0  0  0  0
    8.5212  -14.5889   25.9710 C   0  0  2  0  0  0  0  0  0  0  0  0
    8.1738  -15.2292   24.7559 N   0  0  0  0  0  0  0  0  0  0  0  0
    9.1626  -15.5491   26.9025 C   0  0  0  0  0  0  0  0  0  0  0  0
    9.0303  -16.7709   26.6784 O   0  0  0  0  0  0  0  0  0  0  0  0
    9.8989  -15.1583   28.0055 O   0  0  0  0  0  0  0  0  0  0  0  0
  1  2  1  0
  2  3  1  0
  3  4  2  0
  5  6  1  0
  6  8  1  0
  7  6  2  0
  8  9  1  0
 10  9  1  6
 11  3  1  0
 11 10  1  0
 12 19  1  0
 12 10  1  0
 13 12  2  0
 15 14  1  1
 15 17  1  0
 15 16  1  0
 18 17  1  1
 18 20  1  0
 18 19  1  0
 20 22  1  0
 21 20  2  0
M  END
$$$$
