GQL.pdb
     RDKit          3D

 22 21  0  0  1  0  0  0  0  0999 V2000
    8.1932  -16.1149   17.9079 N   0  0  0  0  0  0  0  0  0  0  0  0
    8.9678  -16.5820   19.0124 C   0  0  0  0  0  0  0  0  0  0  0  0
    8.1658  -16.6901   20.2667 C   0  0  0  0  0  0  0  0  0  0  0  0
    6.9764  -16.2825   20.2393 O   0  0  0  0  0  0  0  0  0  0  0  0
    7.3506  -19.1600   25.7650 N   0  0  0  0  0  0  0  0  0  0  0  0
    6.7304  -19.8630   24.7103 C   0  0  0  0  0  0  0  0  0  0  0  0
    5.7600  -20.6019   24.9899 O   0  0  0  0  0  0  0  0  0  0  0  0
    7.1999  -19.7474   23.2810 C   0  0  0  0  0  0  0  0  0  0  0  0
    8.2559  -18.7134   23.2429 C   0  0  0  0  0  0  0  0  0  0  0  0
    7.8947  -17.3733   22.6989 C   0  0  2  0  0  0  0  0  0  0  0  0
    8.6802  -17.2227   21.4626 N   0  0  0  0  0  0  0  0  0  0  0  0
    8.2229  -16.2500   23.5885 C   0  0  0  0  0  0  0  0  0  0  0  0
    9.4339  -15.8904   23.6799 O   0  0  0  0  0  0  0  0  0  0  0  0
    5.8903  -11.7356   27.2014 C   0  0  0  0  0  0  0  0  0  0  0  0
    7.0678  -12.3445   26.4933 C   0  0  2  0  0  0  0  0  0  0  0  0
    7.7449  -11.2511   25.6554 C   0  0  0  0  0  0  0  0  0  0  0  0
    6.6551  -13.4762   25.6320 C   0  0  0  0  0  0  0  0  0  0  0  0
    7.6968  -14.4421   25.2021 C   0  0  2  0  0  0  0  0  0  0  0  0
    7.2918  -15.5133   24.3681 N   0  0  0  0  0  0  0  0  0  0  0  0
    8.5341  -14.9393   26.3213 C   0  0  0  0  0  0  0  0  0  0  0  0
    8.1496  -15.9509   26.9453 O   0  0  0  0  0  0  0  0  0  0  0  0
    9.7180  -14.3384   26.7073 O   0  0  0  0  0  0  0  0  0  0  0  0
  1  2  1  0
  2  3  1  0
  3  4  2  0
  5  6  1  0
  6  8  1  0
  7  6  2  0
  8  9  1  0
 10  9  1  1
 11  3  1  0
 11 10  1  0
 12 19  1  0
 12 10  1  0
 13 12  2  0
 15 14  1  6
 15 17  1  0
 15 16  1  0
 18 17  1  1
 18 20  1  0
 18 19  1  0
 20 22  1  0
 21 20  2  0
M  END
$$$$
