GQL.pdb
     RDKit          3D

 22 21  0  0  1  0  0  0  0  0999 V2000
    7.9934  -12.4957   18.8499 N   0  0  0  0  0  0  0  0  0  0  0  0
    8.7401  -13.5765   19.4089 C   0  0  0  0  0  0  0  0  0  0  0  0
    8.0427  -14.2145   20.5642 C   0  0  0  0  0  0  0  0  0  0  0  0
    6.9941  -13.6671   20.9913 O   0  0  0  0  0  0  0  0  0  0  0  0
    5.6499  -19.4490   21.8736 N   0  0  0  0  0  0  0  0  0  0  0  0
    6.0868  -18.6611   22.9597 C   0  0  0  0  0  0  0  0  0  0  0  0
    5.2181  -18.1810   23.7218 O   0  0  0  0  0  0  0  0  0  0  0  0
    7.5480  -18.3888   23.2194 C   0  0  0  0  0  0  0  0  0  0  0  0
    8.0294  -17.4906   22.1483 C   0  0  0  0  0  0  0  0  0  0  0  0
    7.8411  -16.0238   22.3366 C   0  0  2  0  0  0  0  0  0  0  0  0
    8.5051  -15.3882   21.1863 N   0  0  0  0  0  0  0  0  0  0  0  0
    8.4446  -15.4886   23.5656 C   0  0  0  0  0  0  0  0  0  0  0  0
    9.7074  -15.4210   23.6343 O   0  0  0  0  0  0  0  0  0  0  0  0
    7.8111  -11.5051   25.1705 C   0  0  0  0  0  0  0  0  0  0  0  0
    6.9077  -12.4474   25.9153 C   0  0  2  0  0  0  0  0  0  0  0  0
    6.0572  -11.6269   26.8948 C   0  0  0  0  0  0  0  0  0  0  0  0
    7.6826  -13.4795   26.6413 C   0  0  0  0  0  0  0  0  0  0  0  0
    8.3952  -14.5077   25.8425 C   0  0  2  0  0  0  0  0  0  0  0  0
    7.7312  -15.0282   24.7043 N   0  0  0  0  0  0  0  0  0  0  0  0
    8.9576  -15.6056   26.6666 C   0  0  0  0  0  0  0  0  0  0  0  0
    8.5633  -16.7710   26.4503 O   0  0  0  0  0  0  0  0  0  0  0  0
    9.8961  -15.4023   27.6614 O   0  0  0  0  0  0  0  0  0  0  0  0
  1  2  1  0
  2  3  1  0
  3  4  2  0
  5  6  1  0
  6  8  1  0
  7  6  2  0
  8  9  1  0
 10  9  1  6
 11  3  1  0
 11 10  1  0
 12 19  1  0
 12 10  1  0
 13 12  2  0
 15 14  1  1
 15 17  1  0
 15 16  1  0
 18 17  1  1
 18 20  1  0
 18 19  1  0
 20 22  1  0
 21 20  2  0
M  END
$$$$
