GQL.pdb
     RDKit          3D

 22 21  0  0  1  0  0  0  0  0999 V2000
    7.2445  -12.5334   19.1750 N   0  0  0  0  0  0  0  0  0  0  0  0
    8.4538  -13.1092   19.6690 C   0  0  0  0  0  0  0  0  0  0  0  0
    8.2141  -14.0652   20.7901 C   0  0  0  0  0  0  0  0  0  0  0  0
    7.0445  -14.1565   21.2432 O   0  0  0  0  0  0  0  0  0  0  0  0
   10.1285  -19.6452   20.7936 N   0  0  0  0  0  0  0  0  0  0  0  0
    9.5435  -19.3985   22.0538 C   0  0  0  0  0  0  0  0  0  0  0  0
    8.6846  -20.2081   22.4694 O   0  0  0  0  0  0  0  0  0  0  0  0
    9.9213  -18.2050   22.8962 C   0  0  0  0  0  0  0  0  0  0  0  0
    9.9130  -17.0186   22.0142 C   0  0  0  0  0  0  0  0  0  0  0  0
    8.9934  -15.8993   22.3664 C   0  0  2  0  0  0  0  0  0  0  0  0
    9.2307  -14.8578   21.3530 N   0  0  0  0  0  0  0  0  0  0  0  0
    9.2351  -15.3110   23.6916 C   0  0  0  0  0  0  0  0  0  0  0  0
   10.3848  -14.8409   23.9393 O   0  0  0  0  0  0  0  0  0  0  0  0
    7.6172  -11.7069   25.5201 C   0  0  0  0  0  0  0  0  0  0  0  0
    6.7867  -12.8998   25.9023 C   0  0  2  0  0  0  0  0  0  0  0  0
    5.5719  -12.4060   26.7000 C   0  0  0  0  0  0  0  0  0  0  0  0
    7.5699  -13.8713   26.6996 C   0  0  0  0  0  0  0  0  0  0  0  0
    8.6122  -14.6662   26.0036 C   0  0  2  0  0  0  0  0  0  0  0  0
    8.2816  -15.2152   24.7400 N   0  0  0  0  0  0  0  0  0  0  0  0
    9.2441  -15.6918   26.8694 C   0  0  0  0  0  0  0  0  0  0  0  0
    9.7133  -15.3314   27.9696 O   0  0  0  0  0  0  0  0  0  0  0  0
    9.3391  -17.0258   26.5187 O   0  0  0  0  0  0  0  0  0  0  0  0
  1  2  1  0
  2  3  1  0
  3  4  2  0
  5  6  1  0
  6  8  1  0
  7  6  2  0
  8  9  1  0
 10  9  1  6
 11  3  1  0
 11 10  1  0
 12 19  1  0
 12 10  1  0
 13 12  2  0
 15 14  1  1
 15 17  1  0
 15 16  1  0
 18 17  1  1
 18 20  1  0
 18 19  1  0
 20 22  1  0
 21 20  2  0
M  END
$$$$
