GQL.pdb
     RDKit          3D

 22 21  0  0  1  0  0  0  0  0999 V2000
    8.5282  -12.9225   17.5497 N   0  0  0  0  0  0  0  0  0  0  0  0
    9.1841  -13.3560   18.7413 C   0  0  0  0  0  0  0  0  0  0  0  0
    8.2521  -14.0303   19.6926 C   0  0  0  0  0  0  0  0  0  0  0  0
    7.1889  -14.5151   19.2276 O   0  0  0  0  0  0  0  0  0  0  0  0
   10.0534  -18.3944   19.6878 N   0  0  0  0  0  0  0  0  0  0  0  0
    9.3428  -18.8093   20.8341 C   0  0  0  0  0  0  0  0  0  0  0  0
    9.3334  -20.0305   21.1072 O   0  0  0  0  0  0  0  0  0  0  0  0
    8.6081  -17.8349   21.7216 C   0  0  0  0  0  0  0  0  0  0  0  0
    8.8343  -16.4798   21.1756 C   0  0  0  0  0  0  0  0  0  0  0  0
    8.1829  -15.3340   21.8723 C   0  0  2  0  0  0  0  0  0  0  0  0
    8.5118  -14.1438   21.0703 N   0  0  0  0  0  0  0  0  0  0  0  0
    8.6616  -15.1076   23.2436 C   0  0  0  0  0  0  0  0  0  0  0  0
    9.8862  -14.8333   23.4145 O   0  0  0  0  0  0  0  0  0  0  0  0
    7.5900  -11.6938   25.7645 C   0  0  0  0  0  0  0  0  0  0  0  0
    6.6890  -12.8717   26.0085 C   0  0  2  0  0  0  0  0  0  0  0  0
    5.5720  -12.4342   26.9661 C   0  0  0  0  0  0  0  0  0  0  0  0
    7.4374  -14.0172   26.5746 C   0  0  0  0  0  0  0  0  0  0  0  0
    8.3618  -14.7576   25.6801 C   0  0  2  0  0  0  0  0  0  0  0  0
    7.8644  -15.1654   24.4177 N   0  0  0  0  0  0  0  0  0  0  0  0
    9.0578  -15.8806   26.3548 C   0  0  0  0  0  0  0  0  0  0  0  0
    8.9541  -17.0239   25.8623 O   0  0  0  0  0  0  0  0  0  0  0  0
    9.8149  -15.7240   27.5011 O   0  0  0  0  0  0  0  0  0  0  0  0
  1  2  1  0
  2  3  1  0
  3  4  2  0
  5  6  1  0
  6  8  1  0
  7  6  2  0
  8  9  1  0
 10  9  1  6
 11  3  1  0
 11 10  1  0
 12 19  1  0
 12 10  1  0
 13 12  2  0
 15 14  1  1
 15 17  1  0
 15 16  1  0
 18 17  1  1
 18 20  1  0
 18 19  1  0
 20 22  1  0
 21 20  2  0
M  END
$$$$
