GQL.pdb
     RDKit          3D

 22 21  0  0  1  0  0  0  0  0999 V2000
    8.0245  -12.7579   17.6825 N   0  0  0  0  0  0  0  0  0  0  0  0
    8.8299  -13.0706   18.8190 C   0  0  0  0  0  0  0  0  0  0  0  0
    8.1186  -13.9426   19.7998 C   0  0  0  0  0  0  0  0  0  0  0  0
    7.0449  -14.4843   19.4322 O   0  0  0  0  0  0  0  0  0  0  0  0
    9.6978  -19.0943   20.9876 N   0  0  0  0  0  0  0  0  0  0  0  0
   10.6345  -18.0431   20.8934 C   0  0  0  0  0  0  0  0  0  0  0  0
   11.7964  -18.3255   20.5246 O   0  0  0  0  0  0  0  0  0  0  0  0
   10.2758  -16.6144   21.2202 C   0  0  0  0  0  0  0  0  0  0  0  0
    8.8007  -16.5256   21.2623 C   0  0  0  0  0  0  0  0  0  0  0  0
    8.1964  -15.3343   21.9242 C   0  0  2  0  0  0  0  0  0  0  0  0
    8.5948  -14.1796   21.1019 N   0  0  0  0  0  0  0  0  0  0  0  0
    8.6662  -15.1011   23.2975 C   0  0  0  0  0  0  0  0  0  0  0  0
    9.8601  -14.7136   23.4661 O   0  0  0  0  0  0  0  0  0  0  0  0
    7.7245  -11.6469   25.6403 C   0  0  0  0  0  0  0  0  0  0  0  0
    6.7666  -12.7929   25.8076 C   0  0  2  0  0  0  0  0  0  0  0  0
    5.5482  -12.2920   26.5954 C   0  0  0  0  0  0  0  0  0  0  0  0
    7.4031  -13.9323   26.5073 C   0  0  0  0  0  0  0  0  0  0  0  0
    8.3330  -14.7939   25.7354 C   0  0  2  0  0  0  0  0  0  0  0  0
    7.8915  -15.2696   24.4760 N   0  0  0  0  0  0  0  0  0  0  0  0
    8.9115  -15.8996   26.5378 C   0  0  0  0  0  0  0  0  0  0  0  0
    8.8079  -17.0656   26.1017 O   0  0  0  0  0  0  0  0  0  0  0  0
    9.5590  -15.7029   27.7435 O   0  0  0  0  0  0  0  0  0  0  0  0
  1  2  1  0
  2  3  1  0
  3  4  2  0
  5  6  1  0
  6  8  1  0
  7  6  2  0
  8  9  1  0
 10  9  1  6
 11  3  1  0
 11 10  1  0
 12 19  1  0
 12 10  1  0
 13 12  2  0
 15 14  1  1
 15 17  1  0
 15 16  1  0
 18 17  1  1
 18 20  1  0
 18 19  1  0
 20 22  1  0
 21 20  2  0
M  END
$$$$
