GQL.pdb
     RDKit          3D

 22 21  0  0  1  0  0  0  0  0999 V2000
    6.6608  -19.8283   21.6689 N   0  0  0  0  0  0  0  0  0  0  0  0
    6.2485  -18.5312   22.0997 C   0  0  0  0  0  0  0  0  0  0  0  0
    7.2339  -17.4699   21.7378 C   0  0  0  0  0  0  0  0  0  0  0  0
    8.4511  -17.7847   21.7096 O   0  0  0  0  0  0  0  0  0  0  0  0
    7.9641  -13.2602   17.5166 N   0  0  0  0  0  0  0  0  0  0  0  0
    8.5959  -13.2076   18.7772 C   0  0  0  0  0  0  0  0  0  0  0  0
    9.8118  -13.4976   18.8354 O   0  0  0  0  0  0  0  0  0  0  0  0
    7.8552  -12.8177   20.0326 C   0  0  0  0  0  0  0  0  0  0  0  0
    7.0897  -14.0000   20.4817 C   0  0  0  0  0  0  0  0  0  0  0  0
    7.8187  -15.0447   21.2561 C   0  0  2  0  0  0  0  0  0  0  0  0
    6.8605  -16.1489   21.4311 N   0  0  0  0  0  0  0  0  0  0  0  0
    8.2640  -14.6107   22.5881 C   0  0  0  0  0  0  0  0  0  0  0  0
    9.1298  -13.6892   22.6611 O   0  0  0  0  0  0  0  0  0  0  0  0
    5.7572  -12.4644   27.4358 C   0  0  0  0  0  0  0  0  0  0  0  0
    7.0643  -12.9281   26.8567 C   0  0  2  0  0  0  0  0  0  0  0  0
    7.9524  -11.6980   26.6244 C   0  0  0  0  0  0  0  0  0  0  0  0
    6.8626  -13.6680   25.5899 C   0  0  0  0  0  0  0  0  0  0  0  0
    8.0027  -14.4491   25.0487 C   0  0  2  0  0  0  0  0  0  0  0  0
    7.8039  -15.1353   23.8253 N   0  0  0  0  0  0  0  0  0  0  0  0
    8.6312  -15.3426   26.0525 C   0  0  0  0  0  0  0  0  0  0  0  0
    8.5059  -15.0563   27.2620 O   0  0  0  0  0  0  0  0  0  0  0  0
    9.3483  -16.4756   25.7152 O   0  0  0  0  0  0  0  0  0  0  0  0
  1  2  1  0
  2  3  1  0
  3  4  2  0
  5  6  1  0
  6  8  1  0
  7  6  2  0
  8  9  1  0
 10  9  1  1
 11  3  1  0
 11 10  1  0
 12 19  1  0
 12 10  1  0
 13 12  2  0
 15 14  1  6
 15 17  1  0
 15 16  1  0
 18 17  1  1
 18 20  1  0
 18 19  1  0
 20 22  1  0
 21 20  2  0
M  END
$$$$
