GQL.pdb
     RDKit          3D

 22 21  0  0  1  0  0  0  0  0999 V2000
    5.3101  -19.2443   21.8169 N   0  0  0  0  0  0  0  0  0  0  0  0
    5.3320  -18.0430   22.5880 C   0  0  0  0  0  0  0  0  0  0  0  0
    6.6750  -17.3914   22.5911 C   0  0  0  0  0  0  0  0  0  0  0  0
    7.6528  -18.0652   23.0049 O   0  0  0  0  0  0  0  0  0  0  0  0
    7.9511  -12.3040   19.0336 N   0  0  0  0  0  0  0  0  0  0  0  0
    8.0246  -13.6979   18.8270 C   0  0  0  0  0  0  0  0  0  0  0  0
    7.5159  -14.1627   17.7824 O   0  0  0  0  0  0  0  0  0  0  0  0
    8.6889  -14.6238   19.8160 C   0  0  0  0  0  0  0  0  0  0  0  0
    8.1228  -14.3289   21.1495 C   0  0  0  0  0  0  0  0  0  0  0  0
    8.1971  -15.3977   22.1860 C   0  0  2  0  0  0  0  0  0  0  0  0
    6.8881  -16.0711   22.1554 N   0  0  0  0  0  0  0  0  0  0  0  0
    8.4245  -14.9026   23.5513 C   0  0  0  0  0  0  0  0  0  0  0  0
    8.9246  -13.7480   23.6958 O   0  0  0  0  0  0  0  0  0  0  0  0
    8.3726  -11.9471   26.2600 C   0  0  0  0  0  0  0  0  0  0  0  0
    7.1701  -12.8100   25.9988 C   0  0  2  0  0  0  0  0  0  0  0  0
    5.9368  -12.1085   26.5844 C   0  0  0  0  0  0  0  0  0  0  0  0
    7.3311  -14.1566   26.5935 C   0  0  0  0  0  0  0  0  0  0  0  0
    8.3714  -15.0503   26.0260 C   0  0  2  0  0  0  0  0  0  0  0  0
    8.1275  -15.6091   24.7472 N   0  0  0  0  0  0  0  0  0  0  0  0
    8.8281  -16.0957   26.9744 C   0  0  0  0  0  0  0  0  0  0  0  0
    8.6252  -17.2927   26.6800 O   0  0  0  0  0  0  0  0  0  0  0  0
    9.4667  -15.8105   28.1671 O   0  0  0  0  0  0  0  0  0  0  0  0
  1  2  1  0
  2  3  1  0
  3  4  2  0
  5  6  1  0
  6  8  1  0
  7  6  2  0
  8  9  1  0
 10  9  1  6
 11  3  1  0
 11 10  1  0
 12 19  1  0
 12 10  1  0
 13 12  2  0
 15 14  1  1
 15 17  1  0
 15 16  1  0
 18 17  1  1
 18 20  1  0
 18 19  1  0
 20 22  1  0
 21 20  2  0
M  END
$$$$
