GQL.pdb
     RDKit          3D

 22 21  0  0  1  0  0  0  0  0999 V2000
    6.8162  -19.3892   19.9142 N   0  0  0  0  0  0  0  0  0  0  0  0
    6.3823  -18.3470   20.7881 C   0  0  0  0  0  0  0  0  0  0  0  0
    7.3894  -17.2525   20.9149 C   0  0  0  0  0  0  0  0  0  0  0  0
    8.5408  -17.5587   21.3176 O   0  0  0  0  0  0  0  0  0  0  0  0
   11.0587  -13.0561   19.9230 N   0  0  0  0  0  0  0  0  0  0  0  0
    9.8478  -13.0434   19.1987 C   0  0  0  0  0  0  0  0  0  0  0  0
    9.8677  -13.4556   18.0173 O   0  0  0  0  0  0  0  0  0  0  0  0
    8.5544  -12.5541   19.8024 C   0  0  0  0  0  0  0  0  0  0  0  0
    7.6506  -13.7182   19.9190 C   0  0  0  0  0  0  0  0  0  0  0  0
    8.0245  -14.7926   20.8825 C   0  0  2  0  0  0  0  0  0  0  0  0
    7.1062  -15.9099   20.6060 N   0  0  0  0  0  0  0  0  0  0  0  0
    7.8752  -14.4174   22.2959 C   0  0  0  0  0  0  0  0  0  0  0  0
    6.8799  -13.7074   22.6268 O   0  0  0  0  0  0  0  0  0  0  0  0
    5.6479  -13.2737   26.8254 C   0  0  0  0  0  0  0  0  0  0  0  0
    7.1017  -13.2822   26.4443 C   0  0  2  0  0  0  0  0  0  0  0  0
    7.6596  -11.8655   26.6385 C   0  0  0  0  0  0  0  0  0  0  0  0
    7.2914  -13.7261   25.0443 C   0  0  0  0  0  0  0  0  0  0  0  0
    8.6198  -14.2623   24.6561 C   0  0  2  0  0  0  0  0  0  0  0  0
    8.7571  -14.7856   23.3467 N   0  0  0  0  0  0  0  0  0  0  0  0
    9.1896  -15.1991   25.6553 C   0  0  0  0  0  0  0  0  0  0  0  0
    9.1244  -14.8888   26.8636 O   0  0  0  0  0  0  0  0  0  0  0  0
    9.7888  -16.3978   25.3151 O   0  0  0  0  0  0  0  0  0  0  0  0
  1  2  1  0
  2  3  1  0
  3  4  2  0
  5  6  1  0
  6  8  1  0
  7  6  2  0
  8  9  1  0
 10  9  1  6
 11  3  1  0
 11 10  1  0
 12 19  1  0
 12 10  1  0
 13 12  2  0
 15 14  1  6
 15 17  1  0
 15 16  1  0
 18 17  1  1
 18 20  1  0
 18 19  1  0
 20 22  1  0
 21 20  2  0
M  END
$$$$
