EIG.pdb
     RDKit          3D

 22 21  0  0  1  0  0  0  0  0999 V2000
   26.4084  -21.3240  -13.1958 N   0  0  0  0  0  0  0  0  0  0  0  0
   25.5573  -20.6642  -12.2815 C   0  0  1  0  0  0  0  0  0  0  0  0
   24.1231  -20.7535  -12.6415 C   0  0  0  0  0  0  0  0  0  0  0  0
   23.8292  -20.5944  -14.0816 C   0  0  0  0  0  0  0  0  0  0  0  0
   23.8077  -19.2483  -14.6271 C   0  0  0  0  0  0  0  0  0  0  0  0
   24.6606  -18.6598  -15.3154 O   0  0  0  0  0  0  0  0  0  0  0  0
   25.8142  -21.0593  -10.8573 C   0  0  0  0  0  0  0  0  0  0  0  0
   25.8631  -22.2701  -10.5157 O   0  0  0  0  0  0  0  0  0  0  0  0
   22.6613  -18.4630  -14.3540 O   0  0  0  0  0  0  0  0  0  0  0  0
   28.8430  -20.4477   -6.3691 C   0  0  0  0  0  0  0  0  0  0  0  0
   27.4536  -19.7977   -6.3214 C   0  0  0  0  0  0  0  0  0  0  0  0
   27.0857  -19.4490   -7.7216 C   0  0  2  0  0  0  0  0  0  0  0  0
   26.5083  -18.0384   -7.8073 C   0  0  0  0  0  0  0  0  0  0  0  0
   26.2245  -20.4280   -8.4379 C   0  0  2  0  0  0  0  0  0  0  0  0
   26.0128  -20.0964   -9.8342 N   0  0  0  0  0  0  0  0  0  0  0  0
   24.9125  -20.6293   -7.7735 C   0  0  0  0  0  0  0  0  0  0  0  0
   23.9738  -19.8002   -8.0182 O   0  0  0  0  0  0  0  0  0  0  0  0
   24.7221  -21.7146   -6.8934 N   0  0  0  0  0  0  0  0  0  0  0  0
   23.5450  -21.7744   -6.0617 C   0  0  0  0  0  0  0  0  0  0  0  0
   22.6863  -22.9244   -6.3493 C   0  0  0  0  0  0  0  0  0  0  0  0
   22.9769  -23.7658   -7.2244 O   0  0  0  0  0  0  0  0  0  0  0  0
   21.5012  -23.0921   -5.6248 O   0  0  0  0  0  0  0  0  0  0  0  0
  2  1  1  6
  2  7  1  0
  3  2  1  0
  3  4  1  0
  5  4  1  0
  5  6  2  0
  7  8  2  0
  9  5  1  0
 10 11  1  0
 11 12  1  0
 12 13  1  1
 12 14  1  0
 14 16  1  0
 14 15  1  6
 15  7  1  0
 16 17  2  0
 18 16  1  0
 18 19  1  0
 19 20  1  0
 20 21  2  0
 20 22  1  0
M  END
$$$$
