EIG.pdb
     RDKit          3D

 22 21  0  0  1  0  0  0  0  0999 V2000
   21.7658  -13.6841  -18.7622 N   0  0  0  0  0  0  0  0  0  0  0  0
   22.4147  -12.4495  -18.9868 C   0  0  1  0  0  0  0  0  0  0  0  0
   21.5930  -11.4823  -19.7510 C   0  0  0  0  0  0  0  0  0  0  0  0
   21.1581  -11.9485  -21.0848 C   0  0  0  0  0  0  0  0  0  0  0  0
   22.1398  -11.9592  -22.1555 C   0  0  0  0  0  0  0  0  0  0  0  0
   22.9627  -11.0857  -22.4831 O   0  0  0  0  0  0  0  0  0  0  0  0
   22.9806  -11.8522  -17.7326 C   0  0  0  0  0  0  0  0  0  0  0  0
   22.4248  -12.0315  -16.6171 O   0  0  0  0  0  0  0  0  0  0  0  0
   22.1947  -13.1200  -22.9649 O   0  0  0  0  0  0  0  0  0  0  0  0
   26.3478  -12.7391  -15.3770 C   0  0  0  0  0  0  0  0  0  0  0  0
   26.7629  -11.9560  -16.6299 C   0  0  0  0  0  0  0  0  0  0  0  0
   26.2148  -10.5789  -16.4863 C   0  0  2  0  0  0  0  0  0  0  0  0
   26.7694   -9.8894  -15.2422 C   0  0  0  0  0  0  0  0  0  0  0  0
   24.7345  -10.4498  -16.5590 C   0  0  2  0  0  0  0  0  0  0  0  0
   24.1595  -11.0628  -17.7414 N   0  0  0  0  0  0  0  0  0  0  0  0
   24.2778   -9.0409  -16.4611 C   0  0  0  0  0  0  0  0  0  0  0  0
   24.8679   -8.1600  -17.1712 O   0  0  0  0  0  0  0  0  0  0  0  0
   23.2163   -8.6975  -15.5984 N   0  0  0  0  0  0  0  0  0  0  0  0
   22.7372   -7.3378  -15.5456 C   0  0  0  0  0  0  0  0  0  0  0  0
   21.5266   -7.1156  -16.3378 C   0  0  0  0  0  0  0  0  0  0  0  0
   21.0408   -8.0034  -17.0686 O   0  0  0  0  0  0  0  0  0  0  0  0
   20.8889   -5.8718  -16.2791 O   0  0  0  0  0  0  0  0  0  0  0  0
  2  1  1  1
  2  7  1  0
  3  2  1  0
  3  4  1  0
  5  4  1  0
  5  6  2  0
  7  8  2  0
  9  5  1  0
 10 11  1  0
 11 12  1  0
 12 13  1  1
 12 14  1  0
 14 16  1  0
 14 15  1  6
 15  7  1  0
 16 17  2  0
 18 16  1  0
 18 19  1  0
 19 20  1  0
 20 21  2  0
 20 22  1  0
M  END
$$$$
