EIG.pdb
     RDKit          3D

 22 21  0  0  1  0  0  0  0  0999 V2000
   13.1181  -11.0704  -12.0485 N   0  0  0  0  0  0  0  0  0  0  0  0
   14.5045  -10.9855  -11.7910 C   0  0  1  0  0  0  0  0  0  0  0  0
   15.3313  -11.7421  -12.7597 C   0  0  0  0  0  0  0  0  0  0  0  0
   15.0186  -13.1837  -12.8564 C   0  0  0  0  0  0  0  0  0  0  0  0
   15.7955  -13.9880  -13.7836 C   0  0  0  0  0  0  0  0  0  0  0  0
   16.0731  -15.1998  -13.7393 O   0  0  0  0  0  0  0  0  0  0  0  0
   14.9791   -9.5733  -11.6158 C   0  0  0  0  0  0  0  0  0  0  0  0
   14.5854   -8.6541  -12.3809 O   0  0  0  0  0  0  0  0  0  0  0  0
   16.3303  -13.3262  -14.9157 O   0  0  0  0  0  0  0  0  0  0  0  0
   13.8768   -7.8248   -7.7297 C   0  0  0  0  0  0  0  0  0  0  0  0
   14.3700   -7.0577   -8.9640 C   0  0  0  0  0  0  0  0  0  0  0  0
   15.8385   -7.2838   -9.0614 C   0  0  2  0  0  0  0  0  0  0  0  0
   16.6186   -6.0307   -8.6718 C   0  0  0  0  0  0  0  0  0  0  0  0
   16.3327   -7.8482  -10.3461 C   0  0  2  0  0  0  0  0  0  0  0  0
   15.8867   -9.2072  -10.5886 N   0  0  0  0  0  0  0  0  0  0  0  0
   17.8107   -7.7841  -10.4681 C   0  0  0  0  0  0  0  0  0  0  0  0
   18.5187   -8.4251   -9.6217 O   0  0  0  0  0  0  0  0  0  0  0  0
   18.4053   -7.0274  -11.4989 N   0  0  0  0  0  0  0  0  0  0  0  0
   19.8419   -6.9452  -11.6003 C   0  0  0  0  0  0  0  0  0  0  0  0
   20.3022   -6.2581  -12.8081 C   0  0  0  0  0  0  0  0  0  0  0  0
   19.5144   -5.9006  -13.7080 O   0  0  0  0  0  0  0  0  0  0  0  0
   21.6664   -5.9905  -12.9656 O   0  0  0  0  0  0  0  0  0  0  0  0
  2  1  1  6
  2  7  1  0
  3  2  1  0
  3  4  1  0
  5  4  1  0
  5  6  2  0
  7  8  2  0
  9  5  1  0
 10 11  1  0
 11 12  1  0
 12 13  1  6
 12 14  1  0
 14 16  1  0
 14 15  1  1
 15  7  1  0
 16 17  2  0
 18 16  1  0
 18 19  1  0
 19 20  1  0
 20 21  2  0
 20 22  1  0
M  END
$$$$
