EIG.pdb
     RDKit          3D

 22 21  0  0  1  0  0  0  0  0999 V2000
   28.0783  -20.3001  -16.8605 N   0  0  0  0  0  0  0  0  0  0  0  0
   27.4147  -19.5542  -15.8610 C   0  0  1  0  0  0  0  0  0  0  0  0
   26.4548  -18.5649  -16.4036 C   0  0  0  0  0  0  0  0  0  0  0  0
   26.2486  -18.6313  -17.8660 C   0  0  0  0  0  0  0  0  0  0  0  0
   26.8874  -17.6197  -18.6900 C   0  0  0  0  0  0  0  0  0  0  0  0
   26.7869  -16.3808  -18.6416 O   0  0  0  0  0  0  0  0  0  0  0  0
   26.8040  -20.4186  -14.7980 C   0  0  0  0  0  0  0  0  0  0  0  0
   26.1440  -21.4488  -15.0956 O   0  0  0  0  0  0  0  0  0  0  0  0
   27.7591  -18.0772  -19.7080 O   0  0  0  0  0  0  0  0  0  0  0  0
   29.5480  -20.8785  -10.3732 C   0  0  0  0  0  0  0  0  0  0  0  0
   28.6030  -21.5895  -11.3513 C   0  0  0  0  0  0  0  0  0  0  0  0
   27.2466  -21.0096  -11.1483 C   0  0  2  0  0  0  0  0  0  0  0  0
   26.5226  -21.6879   -9.9880 C   0  0  0  0  0  0  0  0  0  0  0  0
   26.3779  -20.9321  -12.3536 C   0  0  2  0  0  0  0  0  0  0  0  0
   26.9387  -20.1206  -13.4174 N   0  0  0  0  0  0  0  0  0  0  0  0
   25.0066  -20.4576  -12.0408 C   0  0  0  0  0  0  0  0  0  0  0  0
   24.8315  -19.2148  -11.8099 O   0  0  0  0  0  0  0  0  0  0  0  0
   23.9320  -21.3699  -12.0014 N   0  0  0  0  0  0  0  0  0  0  0  0
   22.5984  -20.9055  -11.7071 C   0  0  0  0  0  0  0  0  0  0  0  0
   21.8311  -20.5435  -12.8999 C   0  0  0  0  0  0  0  0  0  0  0  0
   22.2912  -20.6848  -14.0518 O   0  0  0  0  0  0  0  0  0  0  0  0
   20.5412  -20.0223  -12.7521 O   0  0  0  0  0  0  0  0  0  0  0  0
  2  1  1  6
  2  7  1  0
  3  2  1  0
  3  4  1  0
  5  4  1  0
  5  6  2  0
  7  8  2  0
  9  5  1  0
 10 11  1  0
 11 12  1  0
 12 13  1  1
 12 14  1  0
 14 16  1  0
 14 15  1  6
 15  7  1  0
 16 17  2  0
 18 16  1  0
 18 19  1  0
 19 20  1  0
 20 21  2  0
 20 22  1  0
M  END
$$$$
