EIG.pdb
     RDKit          3D

 22 21  0  0  1  0  0  0  0  0999 V2000
   15.7968  -10.4599  -12.9423 N   0  0  0  0  0  0  0  0  0  0  0  0
   16.3933   -9.3608  -12.2851 C   0  0  1  0  0  0  0  0  0  0  0  0
   17.1903   -8.4968  -13.1866 C   0  0  0  0  0  0  0  0  0  0  0  0
   18.2347   -9.1986  -13.9627 C   0  0  0  0  0  0  0  0  0  0  0  0
   19.0675   -8.4085  -14.8528 C   0  0  0  0  0  0  0  0  0  0  0  0
   20.0101   -8.7677  -15.5808 O   0  0  0  0  0  0  0  0  0  0  0  0
   15.4175   -8.5769  -11.4583 C   0  0  0  0  0  0  0  0  0  0  0  0
   14.2214   -8.4330  -11.8243 O   0  0  0  0  0  0  0  0  0  0  0  0
   18.7929   -7.0212  -14.9264 O   0  0  0  0  0  0  0  0  0  0  0  0
   12.4607   -8.5531   -8.4831 C   0  0  0  0  0  0  0  0  0  0  0  0
   13.8294   -8.9569   -7.9184 C   0  0  0  0  0  0  0  0  0  0  0  0
   14.7180   -7.7676   -8.0334 C   0  0  2  0  0  0  0  0  0  0  0  0
   14.3277   -6.6858   -7.0294 C   0  0  0  0  0  0  0  0  0  0  0  0
   14.8837   -7.2007   -9.3989 C   0  0  2  0  0  0  0  0  0  0  0  0
   15.7911   -7.9644  -10.2342 N   0  0  0  0  0  0  0  0  0  0  0  0
   15.3082   -5.7785   -9.3800 C   0  0  0  0  0  0  0  0  0  0  0  0
   14.5364   -4.9210   -8.8346 O   0  0  0  0  0  0  0  0  0  0  0  0
   16.5375   -5.3973   -9.9565 N   0  0  0  0  0  0  0  0  0  0  0  0
   16.9571   -4.0176   -9.9208 C   0  0  0  0  0  0  0  0  0  0  0  0
   16.3654   -3.2012  -10.9820 C   0  0  0  0  0  0  0  0  0  0  0  0
   15.6587   -3.6973  -11.8836 O   0  0  0  0  0  0  0  0  0  0  0  0
   16.5949   -1.8212  -10.9925 O   0  0  0  0  0  0  0  0  0  0  0  0
  2  1  1  6
  2  7  1  0
  3  2  1  0
  3  4  1  0
  5  4  1  0
  5  6  2  0
  7  8  2  0
  9  5  1  0
 10 11  1  0
 11 12  1  0
 12 13  1  1
 12 14  1  0
 14 16  1  0
 14 15  1  6
 15  7  1  0
 16 17  2  0
 18 16  1  0
 18 19  1  0
 19 20  1  0
 20 21  2  0
 20 22  1  0
M  END
$$$$
