EIG.pdb
     RDKit          3D

 22 21  0  0  1  0  0  0  0  0999 V2000
   20.7250   -8.0975  -13.6482 N   0  0  0  0  0  0  0  0  0  0  0  0
   21.0080   -8.1210  -15.0321 C   0  0  1  0  0  0  0  0  0  0  0  0
   20.2901   -7.0759  -15.7982 C   0  0  0  0  0  0  0  0  0  0  0  0
   18.8154   -7.1610  -15.7407 C   0  0  0  0  0  0  0  0  0  0  0  0
   18.1384   -7.9421  -16.7614 C   0  0  0  0  0  0  0  0  0  0  0  0
   17.3910   -8.9286  -16.6367 O   0  0  0  0  0  0  0  0  0  0  0  0
   22.4790   -8.1352  -15.3257 C   0  0  0  0  0  0  0  0  0  0  0  0
   23.2919   -7.4900  -14.6128 O   0  0  0  0  0  0  0  0  0  0  0  0
   18.3371   -7.5496  -18.1075 O   0  0  0  0  0  0  0  0  0  0  0  0
   25.5277  -10.7284  -14.3530 C   0  0  0  0  0  0  0  0  0  0  0  0
   24.6018  -11.2217  -15.4731 C   0  0  0  0  0  0  0  0  0  0  0  0
   24.9124  -10.4139  -16.6848 C   0  0  2  0  0  0  0  0  0  0  0  0
   26.3939  -10.5002  -17.0428 C   0  0  0  0  0  0  0  0  0  0  0  0
   24.4427   -9.0023  -16.6717 C   0  0  2  0  0  0  0  0  0  0  0  0
   23.0218   -8.8697  -16.4115 N   0  0  0  0  0  0  0  0  0  0  0  0
   24.7869   -8.2735  -17.9182 C   0  0  0  0  0  0  0  0  0  0  0  0
   24.2705   -8.6693  -19.0160 O   0  0  0  0  0  0  0  0  0  0  0  0
   25.6666   -7.1721  -17.8761 N   0  0  0  0  0  0  0  0  0  0  0  0
   25.9979   -6.4634  -19.0881 C   0  0  0  0  0  0  0  0  0  0  0  0
   27.1540   -7.0213  -19.7916 C   0  0  0  0  0  0  0  0  0  0  0  0
   27.7951   -7.9948  -19.3447 O   0  0  0  0  0  0  0  0  0  0  0  0
   27.5587   -6.4508  -21.0032 O   0  0  0  0  0  0  0  0  0  0  0  0
  2  1  1  1
  2  7  1  0
  3  2  1  0
  3  4  1  0
  5  4  1  0
  5  6  2  0
  7  8  2  0
  9  5  1  0
 10 11  1  0
 11 12  1  0
 12 13  1  1
 12 14  1  0
 14 16  1  0
 14 15  1  6
 15  7  1  0
 16 17  2  0
 18 16  1  0
 18 19  1  0
 19 20  1  0
 20 21  2  0
 20 22  1  0
M  END
$$$$
