EIG.pdb
     RDKit          3D

 22 21  0  0  1  0  0  0  0  0999 V2000
   25.9124  -19.0981  -15.4725 N   0  0  0  0  0  0  0  0  0  0  0  0
   24.7028  -19.8209  -15.3721 C   0  0  1  0  0  0  0  0  0  0  0  0
   24.2787  -20.4403  -16.6491 C   0  0  0  0  0  0  0  0  0  0  0  0
   25.0131  -19.9737  -17.8443 C   0  0  0  0  0  0  0  0  0  0  0  0
   25.6451  -20.9732  -18.6880 C   0  0  0  0  0  0  0  0  0  0  0  0
   25.3303  -22.1615  -18.8782 O   0  0  0  0  0  0  0  0  0  0  0  0
   24.7016  -20.7992  -14.2349 C   0  0  0  0  0  0  0  0  0  0  0  0
   24.3748  -22.0023  -14.4108 O   0  0  0  0  0  0  0  0  0  0  0  0
   26.7911  -20.5682  -19.4149 O   0  0  0  0  0  0  0  0  0  0  0  0
   25.9873  -20.9763   -8.1582 C   0  0  0  0  0  0  0  0  0  0  0  0
   25.0836  -21.5263   -9.2700 C   0  0  0  0  0  0  0  0  0  0  0  0
   25.4783  -20.8428  -10.5326 C   0  0  2  0  0  0  0  0  0  0  0  0
   25.6582  -19.3422  -10.3168 C   0  0  0  0  0  0  0  0  0  0  0  0
   24.6284  -21.1178  -11.7223 C   0  0  2  0  0  0  0  0  0  0  0  0
   25.0653  -20.4203  -12.9168 N   0  0  0  0  0  0  0  0  0  0  0  0
   23.1929  -20.8292  -11.4787 C   0  0  0  0  0  0  0  0  0  0  0  0
   22.5546  -21.5701  -10.6589 O   0  0  0  0  0  0  0  0  0  0  0  0
   22.5613  -19.7590  -12.1455 N   0  0  0  0  0  0  0  0  0  0  0  0
   21.2114  -19.3862  -11.7999 C   0  0  0  0  0  0  0  0  0  0  0  0
   20.2492  -19.6157  -12.8789 C   0  0  0  0  0  0  0  0  0  0  0  0
   20.5806  -20.1425  -13.9611 O   0  0  0  0  0  0  0  0  0  0  0  0
   18.9150  -19.2354  -12.6988 O   0  0  0  0  0  0  0  0  0  0  0  0
  2  1  1  6
  2  7  1  0
  3  2  1  0
  3  4  1  0
  5  4  1  0
  5  6  2  0
  7  8  2  0
  9  5  1  0
 10 11  1  0
 11 12  1  0
 12 13  1  1
 12 14  1  0
 14 16  1  0
 14 15  1  6
 15  7  1  0
 16 17  2  0
 18 16  1  0
 18 19  1  0
 19 20  1  0
 20 21  2  0
 20 22  1  0
M  END
$$$$
