EIG.pdb
     RDKit          3D

 22 21  0  0  1  0  0  0  0  0999 V2000
   21.8930  -11.1001  -20.2847 N   0  0  0  0  0  0  0  0  0  0  0  0
   22.2822   -9.9425  -19.5747 C   0  0  1  0  0  0  0  0  0  0  0  0
   21.6081   -8.7094  -20.0432 C   0  0  0  0  0  0  0  0  0  0  0  0
   21.7769   -8.4129  -21.4817 C   0  0  0  0  0  0  0  0  0  0  0  0
   21.2726   -7.1446  -21.9789 C   0  0  0  0  0  0  0  0  0  0  0  0
   20.2304   -6.9014  -22.6130 O   0  0  0  0  0  0  0  0  0  0  0  0
   22.1907  -10.1132  -18.0872 C   0  0  0  0  0  0  0  0  0  0  0  0
   21.3534  -10.8998  -17.5719 O   0  0  0  0  0  0  0  0  0  0  0  0
   22.0591   -5.9954  -21.7212 O   0  0  0  0  0  0  0  0  0  0  0  0
   26.7659  -10.4398  -15.1278 C   0  0  0  0  0  0  0  0  0  0  0  0
   25.6101   -9.5783  -15.6544 C   0  0  0  0  0  0  0  0  0  0  0  0
   24.3459  -10.2889  -15.3163 C   0  0  2  0  0  0  0  0  0  0  0  0
   24.3986  -11.7507  -15.7532 C   0  0  0  0  0  0  0  0  0  0  0  0
   23.0858   -9.6376  -15.7650 C   0  0  2  0  0  0  0  0  0  0  0  0
   23.0356   -9.4030  -17.1957 N   0  0  0  0  0  0  0  0  0  0  0  0
   22.8106   -8.3684  -15.0462 C   0  0  0  0  0  0  0  0  0  0  0  0
   22.7839   -8.3858  -13.7705 O   0  0  0  0  0  0  0  0  0  0  0  0
   22.5841   -7.1787  -15.7687 N   0  0  0  0  0  0  0  0  0  0  0  0
   22.3482   -5.9399  -15.0682 C   0  0  0  0  0  0  0  0  0  0  0  0
   22.1514   -4.7952  -15.9591 C   0  0  0  0  0  0  0  0  0  0  0  0
   22.1545   -4.9146  -17.2017 O   0  0  0  0  0  0  0  0  0  0  0  0
   21.9530   -3.5248  -15.4077 O   0  0  0  0  0  0  0  0  0  0  0  0
  2  1  1  6
  2  7  1  0
  3  2  1  0
  3  4  1  0
  5  4  1  0
  5  6  2  0
  7  8  2  0
  9  5  1  0
 10 11  1  0
 11 12  1  0
 12 13  1  6
 12 14  1  0
 14 16  1  0
 14 15  1  6
 15  7  1  0
 16 17  2  0
 18 16  1  0
 18 19  1  0
 19 20  1  0
 20 21  2  0
 20 22  1  0
M  END
$$$$
