EIG.pdb
     RDKit          3D

 22 21  0  0  1  0  0  0  0  0999 V2000
   21.9812  -15.1350  -16.7960 N   0  0  0  0  0  0  0  0  0  0  0  0
   21.5530  -13.7926  -16.8971 C   0  0  1  0  0  0  0  0  0  0  0  0
   20.1369  -13.5949  -16.5095 C   0  0  0  0  0  0  0  0  0  0  0  0
   19.1622  -14.4075  -17.2678 C   0  0  0  0  0  0  0  0  0  0  0  0
   17.7487  -14.1789  -17.0227 C   0  0  0  0  0  0  0  0  0  0  0  0
   16.9641  -13.3966  -17.5882 O   0  0  0  0  0  0  0  0  0  0  0  0
   22.4742  -12.8336  -16.2029 C   0  0  0  0  0  0  0  0  0  0  0  0
   22.8175  -13.0115  -15.0047 O   0  0  0  0  0  0  0  0  0  0  0  0
   17.1434  -14.9428  -15.9953 O   0  0  0  0  0  0  0  0  0  0  0  0
   26.5783  -10.4279  -14.6375 C   0  0  0  0  0  0  0  0  0  0  0  0
   26.2513   -9.8808  -16.0336 C   0  0  0  0  0  0  0  0  0  0  0  0
   25.2927  -10.8312  -16.6622 C   0  0  2  0  0  0  0  0  0  0  0  0
   25.4023  -10.8021  -18.1846 C   0  0  0  0  0  0  0  0  0  0  0  0
   23.8757  -10.7227  -16.2220 C   0  0  2  0  0  0  0  0  0  0  0  0
   22.9991  -11.6889  -16.8565 N   0  0  0  0  0  0  0  0  0  0  0  0
   23.3224   -9.3577  -16.4064 C   0  0  0  0  0  0  0  0  0  0  0  0
   23.3194   -8.8566  -17.5800 O   0  0  0  0  0  0  0  0  0  0  0  0
   22.8166   -8.6420  -15.3016 N   0  0  0  0  0  0  0  0  0  0  0  0
   22.2820   -7.3144  -15.4822 C   0  0  0  0  0  0  0  0  0  0  0  0
   21.7470   -6.7295  -14.2516 C   0  0  0  0  0  0  0  0  0  0  0  0
   21.3429   -5.5495  -14.2001 O   0  0  0  0  0  0  0  0  0  0  0  0
   21.6837   -7.5113  -13.0932 O   0  0  0  0  0  0  0  0  0  0  0  0
  2  1  1  1
  2  7  1  0
  3  2  1  0
  3  4  1  0
  5  4  1  0
  5  6  2  0
  7  8  2  0
  9  5  1  0
 10 11  1  0
 11 12  1  0
 12 13  1  6
 12 14  1  0
 14 16  1  0
 14 15  1  6
 15  7  1  0
 16 17  2  0
 18 16  1  0
 18 19  1  0
 19 20  1  0
 20 21  2  0
 20 22  1  0
M  END
$$$$
