GDS.pdb
     RDKit          3D

 19 18  0  0  1  0  0  0  0  0999 V2000
   16.3111  -14.1212  -14.5995 N   0  0  0  0  0  0  0  0  0  0  0  0
   15.6122  -12.9423  -15.0100 C   0  0  0  0  0  0  0  0  0  0  0  0
   16.5407  -11.9801  -15.6399 C   0  0  0  0  0  0  0  0  0  0  0  0
   17.6918  -12.3798  -15.9348 O   0  0  0  0  0  0  0  0  0  0  0  0
   16.2146  -10.6377  -15.9331 N   0  0  0  0  0  0  0  0  0  0  0  0
   17.1243   -9.7448  -16.6028 C   0  0  1  0  0  0  0  0  0  0  0  0
   16.4035   -8.6662  -17.4116 C   0  0  0  0  0  0  0  0  0  0  0  0
   15.7049   -9.2085  -18.5669 C   0  0  0  0  0  0  0  0  0  0  0  0
   14.4503   -9.3364  -18.5479 O   0  0  0  0  0  0  0  0  0  0  0  0
   17.9446   -9.0182  -15.5972 C   0  0  0  0  0  0  0  0  0  0  0  0
   17.3667   -8.6205  -14.5546 O   0  0  0  0  0  0  0  0  0  0  0  0
   16.4241   -9.5906  -19.7006 O   0  0  0  0  0  0  0  0  0  0  0  0
   22.4727   -8.1856  -13.9394 O   0  0  0  0  0  0  0  0  0  0  0  0
   21.5888   -8.7702  -14.8409 C   0  0  0  0  0  0  0  0  0  0  0  0
   20.1939   -8.2221  -14.7715 C   0  0  2  0  0  0  0  0  0  0  0  0
   19.3085   -8.7564  -15.7470 N   0  0  0  0  0  0  0  0  0  0  0  0
   20.2806   -6.7500  -14.9775 C   0  0  0  0  0  0  0  0  0  0  0  0
   20.5785   -5.8551  -13.9405 O   0  0  0  0  0  0  0  0  0  0  0  0
   20.0797   -6.2853  -16.1226 O   0  0  0  0  0  0  0  0  0  0  0  0
  1  2  1  0
  3  5  1  0
  3  2  1  0
  4  3  2  0
  6  5  1  0
  6  7  1  1
  7  8  1  0
  8 12  1  0
  8  9  2  0
 10  6  1  0
 10 11  2  0
 13 14  1  0
 15 14  1  6
 15 16  1  0
 16 10  1  0
 17 18  1  0
 17 15  1  0
 19 17  2  0
M  END
$$$$
