GDS.pdb
     RDKit          3D

 19 18  0  0  1  0  0  0  0  0999 V2000
   22.1230  -12.5496  -18.4426 N   0  0  0  0  0  0  0  0  0  0  0  0
   22.9920  -11.5577  -17.8876 C   0  0  0  0  0  0  0  0  0  0  0  0
   22.2463  -10.3140  -17.6020 C   0  0  0  0  0  0  0  0  0  0  0  0
   22.3435   -9.3685  -18.4195 O   0  0  0  0  0  0  0  0  0  0  0  0
   21.4284  -10.1215  -16.4669 N   0  0  0  0  0  0  0  0  0  0  0  0
   20.6613   -8.9215  -16.2554 C   0  0  1  0  0  0  0  0  0  0  0  0
   19.4589   -9.1442  -15.3380 C   0  0  0  0  0  0  0  0  0  0  0  0
   18.4956  -10.0800  -15.8979 C   0  0  0  0  0  0  0  0  0  0  0  0
   17.8060   -9.7559  -16.9030 O   0  0  0  0  0  0  0  0  0  0  0  0
   21.5047   -7.9003  -15.5789 C   0  0  0  0  0  0  0  0  0  0  0  0
   22.3710   -8.3092  -14.7656 O   0  0  0  0  0  0  0  0  0  0  0  0
   18.3317  -11.3405  -15.3212 O   0  0  0  0  0  0  0  0  0  0  0  0
   22.7414   -3.1352  -15.2693 O   0  0  0  0  0  0  0  0  0  0  0  0
   22.0490   -4.1647  -15.8990 C   0  0  0  0  0  0  0  0  0  0  0  0
   22.1706   -5.4926  -15.2117 C   0  0  2  0  0  0  0  0  0  0  0  0
   21.3877   -6.5254  -15.7960 N   0  0  0  0  0  0  0  0  0  0  0  0
   21.7242   -5.3100  -13.8029 C   0  0  0  0  0  0  0  0  0  0  0  0
   22.5956   -4.9241  -12.7750 O   0  0  0  0  0  0  0  0  0  0  0  0
   20.5213   -5.5081  -13.5176 O   0  0  0  0  0  0  0  0  0  0  0  0
  1  2  1  0
  3  5  1  0
  3  2  1  0
  4  3  2  0
  6  5  1  0
  6  7  1  1
  7  8  1  0
  8 12  1  0
  8  9  2  0
 10  6  1  0
 10 11  2  0
 13 14  1  0
 15 14  1  6
 15 16  1  0
 16 10  1  0
 17 18  1  0
 17 15  1  0
 19 17  2  0
M  END
$$$$
