GDS.pdb
     RDKit          3D

 19 18  0  0  1  0  0  0  0  0999 V2000
   16.8244  -11.1899  -15.0431 N   0  0  0  0  0  0  0  0  0  0  0  0
   17.6851  -10.9077  -16.1506 C   0  0  0  0  0  0  0  0  0  0  0  0
   18.6894   -9.8878  -15.7820 C   0  0  0  0  0  0  0  0  0  0  0  0
   18.8537   -9.6366  -14.5647 O   0  0  0  0  0  0  0  0  0  0  0  0
   19.4787   -9.1778  -16.7133 N   0  0  0  0  0  0  0  0  0  0  0  0
   20.4488   -8.1901  -16.3174 C   0  0  1  0  0  0  0  0  0  0  0  0
   21.7529   -8.2944  -17.1084 C   0  0  0  0  0  0  0  0  0  0  0  0
   22.4658   -9.5357  -16.8476 C   0  0  0  0  0  0  0  0  0  0  0  0
   22.7812   -9.8510  -15.6678 O   0  0  0  0  0  0  0  0  0  0  0  0
   19.9168   -6.8281  -16.5892 C   0  0  0  0  0  0  0  0  0  0  0  0
   19.4825   -6.5945  -17.7451 O   0  0  0  0  0  0  0  0  0  0  0  0
   22.8041  -10.3810  -17.9056 O   0  0  0  0  0  0  0  0  0  0  0  0
   17.0537   -5.0469  -15.0601 O   0  0  0  0  0  0  0  0  0  0  0  0
   18.1614   -4.2284  -14.8630 C   0  0  0  0  0  0  0  0  0  0  0  0
   19.3036   -4.5117  -15.7934 C   0  0  2  0  0  0  0  0  0  0  0  0
   19.8740   -5.8048  -15.6395 N   0  0  0  0  0  0  0  0  0  0  0  0
   20.3625   -3.5003  -15.5231 C   0  0  0  0  0  0  0  0  0  0  0  0
   20.1508   -2.1224  -15.6705 O   0  0  0  0  0  0  0  0  0  0  0  0
   21.4918   -3.8902  -15.1485 O   0  0  0  0  0  0  0  0  0  0  0  0
  1  2  1  0
  3  5  1  0
  3  2  1  0
  4  3  2  0
  6  5  1  0
  6  7  1  6
  7  8  1  0
  8 12  1  0
  8  9  2  0
 10  6  1  0
 10 11  2  0
 13 14  1  0
 15 14  1  1
 15 16  1  0
 16 10  1  0
 17 18  1  0
 17 15  1  0
 19 17  2  0
M  END
$$$$
