GDS.pdb
     RDKit          3D

 19 18  0  0  1  0  0  0  0  0999 V2000
   16.7375  -14.0715  -15.8489 N   0  0  0  0  0  0  0  0  0  0  0  0
   17.9558  -13.5870  -16.4217 C   0  0  0  0  0  0  0  0  0  0  0  0
   17.9327  -12.1127  -16.5228 C   0  0  0  0  0  0  0  0  0  0  0  0
   18.7198  -11.5657  -17.3309 O   0  0  0  0  0  0  0  0  0  0  0  0
   17.0789  -11.2784  -15.7681 N   0  0  0  0  0  0  0  0  0  0  0  0
   17.0925   -9.8432  -15.8839 C   0  0  1  0  0  0  0  0  0  0  0  0
   15.7896   -9.2008  -15.4077 C   0  0  0  0  0  0  0  0  0  0  0  0
   14.6626   -9.5187  -16.2713 C   0  0  0  0  0  0  0  0  0  0  0  0
   14.7450   -9.3345  -17.5163 O   0  0  0  0  0  0  0  0  0  0  0  0
   18.1628   -9.2807  -15.0178 C   0  0  0  0  0  0  0  0  0  0  0  0
   18.4514   -9.9100  -13.9690 O   0  0  0  0  0  0  0  0  0  0  0  0
   13.4849  -10.0280  -15.7217 O   0  0  0  0  0  0  0  0  0  0  0  0
   22.4245   -8.1158  -14.3649 O   0  0  0  0  0  0  0  0  0  0  0  0
   21.2200   -8.6009  -14.8646 C   0  0  0  0  0  0  0  0  0  0  0  0
   20.0679   -7.6527  -14.7091 C   0  0  2  0  0  0  0  0  0  0  0  0
   18.8577   -8.1032  -15.3036 N   0  0  0  0  0  0  0  0  0  0  0  0
   20.4547   -6.3684  -15.3557 C   0  0  0  0  0  0  0  0  0  0  0  0
   21.2076   -5.3850  -14.6990 O   0  0  0  0  0  0  0  0  0  0  0  0
   20.0953   -6.1512  -16.5352 O   0  0  0  0  0  0  0  0  0  0  0  0
  1  2  1  0
  3  5  1  0
  3  2  1  0
  4  3  2  0
  6  5  1  0
  6  7  1  1
  7  8  1  0
  8 12  1  0
  8  9  2  0
 10  6  1  0
 10 11  2  0
 13 14  1  0
 15 14  1  6
 15 16  1  0
 16 10  1  0
 17 18  1  0
 17 15  1  0
 19 17  2  0
M  END
$$$$
