GDS.pdb
     RDKit          3D

 19 18  0  0  1  0  0  0  0  0999 V2000
   22.9314  -25.6393  -14.5632 N   0  0  0  0  0  0  0  0  0  0  0  0
   24.1275  -24.8736  -14.7363 C   0  0  0  0  0  0  0  0  0  0  0  0
   23.9196  -23.4779  -14.2967 C   0  0  0  0  0  0  0  0  0  0  0  0
   22.7805  -22.9765  -14.4483 O   0  0  0  0  0  0  0  0  0  0  0  0
   24.9219  -22.6712  -13.7144 N   0  0  0  0  0  0  0  0  0  0  0  0
   24.7092  -21.2871  -13.3794 C   0  0  1  0  0  0  0  0  0  0  0  0
   25.7089  -20.7705  -12.3446 C   0  0  0  0  0  0  0  0  0  0  0  0
   25.4043  -21.2283  -10.9975 C   0  0  0  0  0  0  0  0  0  0  0  0
   24.2812  -20.9784  -10.4807 O   0  0  0  0  0  0  0  0  0  0  0  0
   24.9037  -20.4432  -14.5886 C   0  0  0  0  0  0  0  0  0  0  0  0
   25.8591  -20.7335  -15.3515 O   0  0  0  0  0  0  0  0  0  0  0  0
   26.3576  -21.9453  -10.2726 O   0  0  0  0  0  0  0  0  0  0  0  0
   23.3929  -16.5147  -17.1660 O   0  0  0  0  0  0  0  0  0  0  0  0
   23.2752  -17.3375  -16.0503 C   0  0  0  0  0  0  0  0  0  0  0  0
   24.1887  -18.5275  -16.0698 C   0  0  2  0  0  0  0  0  0  0  0  0
   24.0905  -19.3567  -14.9192 N   0  0  0  0  0  0  0  0  0  0  0  0
   25.5851  -18.0185  -16.1593 C   0  0  0  0  0  0  0  0  0  0  0  0
   26.3122  -18.0049  -17.3577 O   0  0  0  0  0  0  0  0  0  0  0  0
   26.1392  -17.5833  -15.1244 O   0  0  0  0  0  0  0  0  0  0  0  0
  1  2  1  0
  3  5  1  0
  3  2  1  0
  4  3  2  0
  6  5  1  0
  6  7  1  1
  7  8  1  0
  8 12  1  0
  8  9  2  0
 10  6  1  0
 10 11  2  0
 13 14  1  0
 15 14  1  1
 15 16  1  0
 16 10  1  0
 17 18  1  0
 17 15  1  0
 19 17  2  0
M  END
$$$$
