GDS.pdb
     RDKit          3D

 19 18  0  0  1  0  0  0  0  0999 V2000
   17.6320  -12.3980  -15.6172 N   0  0  0  0  0  0  0  0  0  0  0  0
   17.0939  -11.4267  -14.7150 C   0  0  0  0  0  0  0  0  0  0  0  0
   17.5940  -10.0759  -15.0464 C   0  0  0  0  0  0  0  0  0  0  0  0
   18.3818   -9.9611  -16.0149 O   0  0  0  0  0  0  0  0  0  0  0  0
   17.2402   -8.9035  -14.3428 N   0  0  0  0  0  0  0  0  0  0  0  0
   17.7483   -7.6027  -14.6936 C   0  0  1  0  0  0  0  0  0  0  0  0
   16.7719   -6.4768  -14.3531 C   0  0  0  0  0  0  0  0  0  0  0  0
   15.5378   -6.5577  -15.1195 C   0  0  0  0  0  0  0  0  0  0  0  0
   15.5759   -6.6408  -16.3775 O   0  0  0  0  0  0  0  0  0  0  0  0
   18.9826   -7.3198  -13.9134 C   0  0  0  0  0  0  0  0  0  0  0  0
   18.9661   -7.5840  -12.6850 O   0  0  0  0  0  0  0  0  0  0  0  0
   14.3065   -6.5419  -14.4622 O   0  0  0  0  0  0  0  0  0  0  0  0
   22.5610   -8.5446  -14.6482 O   0  0  0  0  0  0  0  0  0  0  0  0
   22.5705   -7.1565  -14.5554 C   0  0  0  0  0  0  0  0  0  0  0  0
   21.3963   -6.5855  -13.8165 C   0  0  2  0  0  0  0  0  0  0  0  0
   20.1472   -6.7819  -14.4661 N   0  0  0  0  0  0  0  0  0  0  0  0
   21.6241   -5.1205  -13.6779 C   0  0  0  0  0  0  0  0  0  0  0  0
   22.6301   -4.5829  -12.8630 O   0  0  0  0  0  0  0  0  0  0  0  0
   20.8894   -4.3301  -14.3127 O   0  0  0  0  0  0  0  0  0  0  0  0
  1  2  1  0
  3  5  1  0
  3  2  1  0
  4  3  2  0
  6  5  1  0
  6  7  1  1
  7  8  1  0
  8 12  1  0
  8  9  2  0
 10  6  1  0
 10 11  2  0
 13 14  1  0
 15 14  1  6
 15 16  1  0
 16 10  1  0
 17 18  1  0
 17 15  1  0
 19 17  2  0
M  END
$$$$
