GDS.pdb
     RDKit          3D

 19 18  0  0  1  0  0  0  0  0999 V2000
   15.0248  -13.4732  -14.3881 N   0  0  0  0  0  0  0  0  0  0  0  0
   14.9808  -12.3001  -15.2058 C   0  0  0  0  0  0  0  0  0  0  0  0
   16.2027  -11.4898  -15.0189 C   0  0  0  0  0  0  0  0  0  0  0  0
   16.6374  -11.3407  -13.8525 O   0  0  0  0  0  0  0  0  0  0  0  0
   16.9148  -10.8728  -16.0709 N   0  0  0  0  0  0  0  0  0  0  0  0
   17.9749   -9.9256  -15.8419 C   0  0  1  0  0  0  0  0  0  0  0  0
   19.0424   -9.9596  -16.9356 C   0  0  0  0  0  0  0  0  0  0  0  0
   19.6950  -11.2560  -17.0383 C   0  0  0  0  0  0  0  0  0  0  0  0
   20.4796  -11.6455  -16.1308 O   0  0  0  0  0  0  0  0  0  0  0  0
   17.4241   -8.5442  -15.8548 C   0  0  0  0  0  0  0  0  0  0  0  0
   16.4394   -8.3188  -16.6023 O   0  0  0  0  0  0  0  0  0  0  0  0
   19.4544  -12.0721  -18.1448 O   0  0  0  0  0  0  0  0  0  0  0  0
   16.0421   -4.6144  -13.7746 O   0  0  0  0  0  0  0  0  0  0  0  0
   16.4783   -5.9311  -13.8841 C   0  0  0  0  0  0  0  0  0  0  0  0
   17.4400   -6.1643  -15.0116 C   0  0  2  0  0  0  0  0  0  0  0  0
   17.9362   -7.4942  -15.0890 N   0  0  0  0  0  0  0  0  0  0  0  0
   18.5956   -5.2468  -14.8113 C   0  0  0  0  0  0  0  0  0  0  0  0
   18.4737   -3.8512  -14.8612 O   0  0  0  0  0  0  0  0  0  0  0  0
   19.7265   -5.7359  -14.5890 O   0  0  0  0  0  0  0  0  0  0  0  0
  1  2  1  0
  3  5  1  0
  3  2  1  0
  4  3  2  0
  6  5  1  0
  6  7  1  6
  7  8  1  0
  8 12  1  0
  8  9  2  0
 10  6  1  0
 10 11  2  0
 13 14  1  0
 15 14  1  1
 15 16  1  0
 16 10  1  0
 17 18  1  0
 17 15  1  0
 19 17  2  0
M  END
$$$$
