GDS.pdb
     RDKit          3D

 19 18  0  0  1  0  0  0  0  0999 V2000
   13.3559  -12.3223  -10.7083 N   0  0  0  0  0  0  0  0  0  0  0  0
   13.5838  -11.4506  -11.8196 C   0  0  0  0  0  0  0  0  0  0  0  0
   14.6660  -10.4912  -11.5146 C   0  0  0  0  0  0  0  0  0  0  0  0
   15.0528  -10.3987  -10.3257 O   0  0  0  0  0  0  0  0  0  0  0  0
   15.2951   -9.6715  -12.4774 N   0  0  0  0  0  0  0  0  0  0  0  0
   16.3396   -8.7389  -12.1417 C   0  0  1  0  0  0  0  0  0  0  0  0
   17.1378   -8.2829  -13.3632 C   0  0  0  0  0  0  0  0  0  0  0  0
   17.9568   -9.3470  -13.9235 C   0  0  0  0  0  0  0  0  0  0  0  0
   18.5986  -10.1217  -13.1628 O   0  0  0  0  0  0  0  0  0  0  0  0
   15.7431   -7.5056  -11.5628 C   0  0  0  0  0  0  0  0  0  0  0  0
   14.7061   -7.0511  -12.1080 O   0  0  0  0  0  0  0  0  0  0  0  0
   18.0350   -9.5115  -15.3074 O   0  0  0  0  0  0  0  0  0  0  0  0
   16.0914   -6.5952   -7.5401 O   0  0  0  0  0  0  0  0  0  0  0  0
   16.2424   -5.5061   -8.3926 C   0  0  0  0  0  0  0  0  0  0  0  0
   15.6922   -5.7279   -9.7705 C   0  0  2  0  0  0  0  0  0  0  0  0
   16.2674   -6.8318  -10.4573 N   0  0  0  0  0  0  0  0  0  0  0  0
   15.9594   -4.4958  -10.5629 C   0  0  0  0  0  0  0  0  0  0  0  0
   16.7343   -4.4983  -11.7311 O   0  0  0  0  0  0  0  0  0  0  0  0
   15.4749   -3.4085  -10.1748 O   0  0  0  0  0  0  0  0  0  0  0  0
  1  2  1  0
  3  5  1  0
  3  2  1  0
  4  3  2  0
  6  5  1  0
  6  7  1  6
  7  8  1  0
  8 12  1  0
  8  9  2  0
 10  6  1  0
 10 11  2  0
 13 14  1  0
 15 14  1  1
 15 16  1  0
 16 10  1  0
 17 18  1  0
 17 15  1  0
 19 17  2  0
M  END
$$$$
