GDS.pdb
     RDKit          3D

 19 18  0  0  1  0  0  0  0  0999 V2000
   15.8162  -12.0511  -14.5667 N   0  0  0  0  0  0  0  0  0  0  0  0
   17.1863  -11.6851  -14.7555 C   0  0  0  0  0  0  0  0  0  0  0  0
   17.5439  -10.5432  -13.8879 C   0  0  0  0  0  0  0  0  0  0  0  0
   18.0352  -10.7912  -12.7614 O   0  0  0  0  0  0  0  0  0  0  0  0
   17.3694   -9.1884  -14.2464 N   0  0  0  0  0  0  0  0  0  0  0  0
   17.7397   -8.1004  -13.3789 C   0  0  1  0  0  0  0  0  0  0  0  0
   18.1547   -6.8470  -14.1494 C   0  0  0  0  0  0  0  0  0  0  0  0
   19.4751   -6.9716  -14.7478 C   0  0  0  0  0  0  0  0  0  0  0  0
   20.4731   -7.2550  -14.0305 O   0  0  0  0  0  0  0  0  0  0  0  0
   16.5710   -7.6998  -12.5508 C   0  0  0  0  0  0  0  0  0  0  0  0
   15.4602   -7.5916  -13.1284 O   0  0  0  0  0  0  0  0  0  0  0  0
   19.6401   -6.7756  -16.1199 O   0  0  0  0  0  0  0  0  0  0  0  0
   17.0740   -6.5486   -8.4801 O   0  0  0  0  0  0  0  0  0  0  0  0
   15.8830   -7.1573   -8.8632 C   0  0  0  0  0  0  0  0  0  0  0  0
   15.5776   -7.0346  -10.3269 C   0  0  2  0  0  0  0  0  0  0  0  0
   16.6401   -7.4398  -11.1802 N   0  0  0  0  0  0  0  0  0  0  0  0
   15.2784   -5.6024  -10.6033 C   0  0  0  0  0  0  0  0  0  0  0  0
   14.2045   -4.9237  -10.0108 O   0  0  0  0  0  0  0  0  0  0  0  0
   16.0128   -4.9720  -11.3975 O   0  0  0  0  0  0  0  0  0  0  0  0
  1  2  1  0
  3  5  1  0
  3  2  1  0
  4  3  2  0
  6  5  1  0
  6  7  1  6
  7  8  1  0
  8 12  1  0
  8  9  2  0
 10  6  1  0
 10 11  2  0
 13 14  1  0
 15 14  1  1
 15 16  1  0
 16 10  1  0
 17 18  1  0
 17 15  1  0
 19 17  2  0
M  END
$$$$
