GDS.pdb
     RDKit          3D

 19 18  0  0  1  0  0  0  0  0999 V2000
   15.0607  -12.0100  -11.2305 N   0  0  0  0  0  0  0  0  0  0  0  0
   15.4812  -11.2082  -10.1227 C   0  0  0  0  0  0  0  0  0  0  0  0
   15.9565   -9.8880  -10.5872 C   0  0  0  0  0  0  0  0  0  0  0  0
   15.9764   -9.6705  -11.8218 O   0  0  0  0  0  0  0  0  0  0  0  0
   16.3891   -8.8529   -9.7292 N   0  0  0  0  0  0  0  0  0  0  0  0
   16.7355   -7.5398  -10.2078 C   0  0  1  0  0  0  0  0  0  0  0  0
   16.6409   -6.4714   -9.1185 C   0  0  0  0  0  0  0  0  0  0  0  0
   15.2653   -6.1489   -8.7712 C   0  0  0  0  0  0  0  0  0  0  0  0
   14.8666   -6.2670   -7.5804 O   0  0  0  0  0  0  0  0  0  0  0  0
   18.1509   -7.5301  -10.6644 C   0  0  0  0  0  0  0  0  0  0  0  0
   19.0310   -7.8697   -9.8342 O   0  0  0  0  0  0  0  0  0  0  0  0
   14.3819   -5.7085   -9.7581 O   0  0  0  0  0  0  0  0  0  0  0  0
   19.9011   -9.5932  -13.0042 O   0  0  0  0  0  0  0  0  0  0  0  0
   20.0695   -8.3071  -13.5076 C   0  0  0  0  0  0  0  0  0  0  0  0
   19.8655   -7.2219  -12.4920 C   0  0  2  0  0  0  0  0  0  0  0  0
   18.5513   -7.1679  -11.9526 N   0  0  0  0  0  0  0  0  0  0  0  0
   20.1476   -5.9226  -13.1625 C   0  0  0  0  0  0  0  0  0  0  0  0
   21.4419   -5.5172  -13.5169 O   0  0  0  0  0  0  0  0  0  0  0  0
   19.1934   -5.1552  -13.4231 O   0  0  0  0  0  0  0  0  0  0  0  0
  1  2  1  0
  3  5  1  0
  3  2  1  0
  4  3  2  0
  6  5  1  0
  6  7  1  1
  7  8  1  0
  8 12  1  0
  8  9  2  0
 10  6  1  0
 10 11  2  0
 13 14  1  0
 15 14  1  6
 15 16  1  0
 16 10  1  0
 17 18  1  0
 17 15  1  0
 19 17  2  0
M  END
$$$$
