RNH.pdb
     RDKit          3D

 30 30  0  0  1  0  0  0  0  0999 V2000
    7.9948  -13.2907   15.0279 N   0  0  0  0  0  0  0  0  0  0  0  0
    8.1284  -14.6302   14.5934 C   0  0  0  0  0  0  0  0  0  0  0  0
    7.3779  -15.0851   13.6469 N   0  0  0  0  0  0  0  0  0  0  0  0
    9.1063  -15.4456   15.2266 N   0  0  0  0  0  0  0  0  0  0  0  0
    9.7680  -14.9720   16.4118 C   0  0  0  0  0  0  0  0  0  0  0  0
    9.0010  -15.2870   17.6831 C   0  0  0  0  0  0  0  0  0  0  0  0
    9.7571  -14.6866   18.8368 C   0  0  0  0  0  0  0  0  0  0  0  0
   10.0026  -15.6909   19.9423 C   0  0  2  0  0  0  0  0  0  0  0  0
    9.3965  -16.9700   19.6474 N   0  0  0  0  0  0  0  0  0  0  0  0
    9.6725  -15.1764   21.2870 C   0  0  0  0  0  0  0  0  0  0  0  0
   10.1176  -14.0541   21.6194 O   0  0  0  0  0  0  0  0  0  0  0  0
    7.4914  -16.0659   13.3379 N   0  0  0  0  0  0  0  0  0  0  0  0
    6.6058  -14.1238   21.6519 C   0  0  0  0  0  0  0  0  0  0  0  0
    6.2209  -14.7613   22.8353 O   0  0  0  0  0  0  0  0  0  0  0  0
    4.9655  -14.8282   23.0692 C   0  0  0  0  0  0  0  0  0  0  0  0
    7.0888  -15.3665   23.8463 C   0  0  2  0  0  0  0  0  0  0  0  0
    8.5495  -15.3281   23.5400 N   0  0  0  0  0  0  0  0  0  0  0  0
    8.8833  -15.8635   22.2391 C   0  0  0  0  0  0  0  0  0  0  0  0
    9.3098  -15.9629   24.6296 O   0  0  0  0  0  0  0  0  0  0  0  0
    9.2605  -15.5953   25.8318 N   0  0  0  0  0  0  0  0  0  0  0  0
   10.1642  -17.0607   24.3570 C   0  0  1  0  0  0  0  0  0  0  0  0
   10.9645  -17.6730   25.4343 C   0  0  0  0  0  0  0  0  0  0  0  0
   10.4412  -19.0880   25.5108 C   0  0  0  0  0  0  0  0  0  0  0  0
    9.0573  -19.2179   25.9615 C   0  0  0  0  0  0  0  0  0  0  0  0
    8.3134  -18.2533   26.6573 N   0  0  0  0  0  0  0  0  0  0  0  0
    7.0802  -18.7096   26.9181 C   0  0  0  0  0  0  0  0  0  0  0  0
    7.0268  -19.9513   26.3987 N   0  0  0  0  0  0  0  0  0  0  0  0
    8.2054  -20.2448   25.8326 C   0  0  0  0  0  0  0  0  0  0  0  0
   12.3920  -17.5987   25.1076 O   0  0  0  0  0  0  0  0  0  0  0  0
   13.2301  -18.0474   25.9302 O   0  0  0  0  0  0  0  0  0  0  0  0
  2  1  1  0
  3  2  2  0
  4  2  1  0
  5  4  1  0
  6  5  1  0
  7  6  1  0
  8  7  1  0
  8  9  1  6
 10 11  2  0
 10  8  1  0
 13 12  1  0
 13 15  1  0
 14 13  2  0
 16 15  1  6
 16 18  1  0
 16 17  1  0
 17 10  1  0
 18 20  1  0
 19 18  2  0
 20 21  1  0
 21 28  1  0
 22 23  1  0
 21 22  1  1
 23 27  1  0
 24 23  2  0
 24 25  1  0
 25 26  1  0
 27 26  2  0
 28 29  2  0
 28 30  1  0
M  END
$$$$
