RNH.pdb
     RDKit          3D

 30 30  0  0  1  0  0  0  0  0999 V2000
   18.5124  -13.8819   15.4527 N   0  0  0  0  0  0  0  0  0  0  0  0
   18.7737  -13.0567   16.5715 C   0  0  0  0  0  0  0  0  0  0  0  0
   19.3734  -11.9240   16.4187 N   0  0  0  0  0  0  0  0  0  0  0  0
   18.3566  -13.5125   17.8524 N   0  0  0  0  0  0  0  0  0  0  0  0
   17.5714  -14.7121   17.9594 C   0  0  0  0  0  0  0  0  0  0  0  0
   16.1549  -14.5398   17.4420 C   0  0  0  0  0  0  0  0  0  0  0  0
   15.4369  -15.8492   17.6235 C   0  0  0  0  0  0  0  0  0  0  0  0
   13.9954  -15.7772   17.1676 C   0  0  2  0  0  0  0  0  0  0  0  0
   13.8862  -15.2773   15.8153 N   0  0  0  0  0  0  0  0  0  0  0  0
   13.1100  -15.0857   18.1266 C   0  0  0  0  0  0  0  0  0  0  0  0
   12.6944  -13.9414   17.8329 O   0  0  0  0  0  0  0  0  0  0  0  0
   19.5515  -11.3296   17.2465 N   0  0  0  0  0  0  0  0  0  0  0  0
   10.2366  -12.8080   18.8284 C   0  0  0  0  0  0  0  0  0  0  0  0
    9.6881  -14.0910   18.9174 O   0  0  0  0  0  0  0  0  0  0  0  0
    8.5479  -14.2674   18.3659 C   0  0  0  0  0  0  0  0  0  0  0  0
   10.2667  -15.2660   19.5705 C   0  0  2  0  0  0  0  0  0  0  0  0
   11.6223  -15.0648   20.1629 N   0  0  0  0  0  0  0  0  0  0  0  0
   12.6917  -15.6236   19.3664 C   0  0  0  0  0  0  0  0  0  0  0  0
   11.6396  -15.5426   21.5556 O   0  0  0  0  0  0  0  0  0  0  0  0
   12.3569  -16.4906   21.9674 N   0  0  0  0  0  0  0  0  0  0  0  0
   10.8143  -14.9277   22.5304 C   0  0  2  0  0  0  0  0  0  0  0  0
    9.8489  -15.7278   23.3075 C   0  0  0  0  0  0  0  0  0  0  0  0
    8.8842  -16.2399   22.2640 C   0  0  0  0  0  0  0  0  0  0  0  0
    7.8602  -15.2876   21.8401 C   0  0  0  0  0  0  0  0  0  0  0  0
    7.6217  -14.0199   22.3916 N   0  0  0  0  0  0  0  0  0  0  0  0
    6.6009  -13.4193   21.7637 C   0  0  0  0  0  0  0  0  0  0  0  0
    6.1850  -14.2855   20.8198 N   0  0  0  0  0  0  0  0  0  0  0  0
    6.9384  -15.3923   20.8725 C   0  0  0  0  0  0  0  0  0  0  0  0
   10.5450  -16.7974   24.0295 O   0  0  0  0  0  0  0  0  0  0  0  0
   10.6822  -16.7031   25.2756 O   0  0  0  0  0  0  0  0  0  0  0  0
  2  1  1  0
  3  2  2  0
  4  2  1  0
  5  4  1  0
  6  5  1  0
  7  6  1  0
  8  7  1  0
  8  9  1  6
 10 11  2  0
 10  8  1  0
 13 12  1  0
 13 15  1  0
 14 13  2  0
 16 15  1  6
 16 18  1  0
 16 17  1  0
 17 10  1  0
 18 20  1  0
 19 18  2  0
 20 21  1  0
 21 28  1  0
 22 23  1  0
 21 22  1  6
 23 27  1  0
 24 23  2  0
 24 25  1  0
 25 26  1  0
 27 26  2  0
 28 29  2  0
 28 30  1  0
M  END
$$$$
