RNH.pdb
     RDKit          3D

 30 30  0  0  1  0  0  0  0  0999 V2000
    9.1840  -14.5424   16.6993 N   0  0  0  0  0  0  0  0  0  0  0  0
    8.2491  -13.8999   17.5443 C   0  0  0  0  0  0  0  0  0  0  0  0
    7.1995  -13.3383   17.0453 N   0  0  0  0  0  0  0  0  0  0  0  0
    8.5027  -13.8961   18.9436 N   0  0  0  0  0  0  0  0  0  0  0  0
    7.4535  -13.5291   19.8555 C   0  0  0  0  0  0  0  0  0  0  0  0
    6.5130  -14.6786   20.1683 C   0  0  0  0  0  0  0  0  0  0  0  0
    6.8122  -15.1502   21.5652 C   0  0  0  0  0  0  0  0  0  0  0  0
    8.2988  -15.2873   21.8148 C   0  0  2  0  0  0  0  0  0  0  0  0
    8.9549  -16.0152   20.7518 N   0  0  0  0  0  0  0  0  0  0  0  0
    8.6234  -15.7919   23.1645 C   0  0  0  0  0  0  0  0  0  0  0  0
    7.8438  -15.5167   24.1051 O   0  0  0  0  0  0  0  0  0  0  0  0
    6.5130  -12.8945   17.6793 N   0  0  0  0  0  0  0  0  0  0  0  0
   12.6140  -18.9323   26.7048 C   0  0  0  0  0  0  0  0  0  0  0  0
   11.3498  -18.7351   26.1410 O   0  0  0  0  0  0  0  0  0  0  0  0
   10.3437  -19.0639   26.8587 C   0  0  0  0  0  0  0  0  0  0  0  0
   11.0369  -18.1929   24.8182 C   0  0  2  0  0  0  0  0  0  0  0  0
   10.0464  -17.0759   24.8037 N   0  0  0  0  0  0  0  0  0  0  0  0
    9.7618  -16.5708   23.4792 C   0  0  0  0  0  0  0  0  0  0  0  0
   10.4656  -16.0184   25.7388 O   0  0  0  0  0  0  0  0  0  0  0  0
   11.4131  -15.2197   25.5220 N   0  0  0  0  0  0  0  0  0  0  0  0
    9.7898  -15.8500   26.9735 C   0  0  1  0  0  0  0  0  0  0  0  0
   10.2532  -14.8467   27.9505 C   0  0  0  0  0  0  0  0  0  0  0  0
    8.9737  -14.2428   28.4798 C   0  0  0  0  0  0  0  0  0  0  0  0
    8.1837  -13.4985   27.5014 C   0  0  0  0  0  0  0  0  0  0  0  0
    8.5854  -13.1380   26.2066 N   0  0  0  0  0  0  0  0  0  0  0  0
    7.6132  -12.4543   25.5866 C   0  0  0  0  0  0  0  0  0  0  0  0
    6.5972  -12.3736   26.4673 N   0  0  0  0  0  0  0  0  0  0  0  0
    6.9448  -12.9964   27.6017 C   0  0  0  0  0  0  0  0  0  0  0  0
   11.0645  -15.4899   28.9887 O   0  0  0  0  0  0  0  0  0  0  0  0
   11.4753  -14.8004   29.9564 O   0  0  0  0  0  0  0  0  0  0  0  0
  2  1  1  0
  3  2  2  0
  4  2  1  0
  5  4  1  0
  6  5  1  0
  7  6  1  0
  8  7  1  0
  8  9  1  6
 10 11  2  0
 10  8  1  0
 13 12  1  0
 13 15  1  0
 14 13  2  0
 16 15  1  6
 16 18  1  0
 16 17  1  0
 17 10  1  0
 18 20  1  0
 19 18  2  0
 20 21  1  0
 21 28  1  0
 22 23  1  0
 21 22  1  1
 23 27  1  0
 24 23  2  0
 24 25  1  0
 25 26  1  0
 27 26  2  0
 28 29  2  0
 28 30  1  0
M  END
$$$$
