RNH.pdb
     RDKit          3D

 30 30  0  0  1  0  0  0  0  0999 V2000
    6.8065  -13.5362   19.2518 N   0  0  0  0  0  0  0  0  0  0  0  0
    8.0624  -12.8882   19.3121 C   0  0  0  0  0  0  0  0  0  0  0  0
    8.2695  -11.9493   20.1734 N   0  0  0  0  0  0  0  0  0  0  0  0
    9.0748  -13.3031   18.4038 N   0  0  0  0  0  0  0  0  0  0  0  0
    8.8139  -14.3852   17.4939 C   0  0  0  0  0  0  0  0  0  0  0  0
    9.3363  -15.7189   17.9959 C   0  0  0  0  0  0  0  0  0  0  0  0
   10.7725  -15.5271   18.4005 C   0  0  0  0  0  0  0  0  0  0  0  0
   11.1120  -16.2759   19.6713 C   0  0  2  0  0  0  0  0  0  0  0  0
   10.3329  -17.4867   19.8033 N   0  0  0  0  0  0  0  0  0  0  0  0
   11.0902  -15.4245   20.8781 C   0  0  0  0  0  0  0  0  0  0  0  0
   11.2217  -14.1874   20.7349 O   0  0  0  0  0  0  0  0  0  0  0  0
    9.1637  -11.4295   20.1505 N   0  0  0  0  0  0  0  0  0  0  0  0
    7.4990  -14.5950   24.6284 C   0  0  0  0  0  0  0  0  0  0  0  0
    7.4207  -15.0460   23.3073 O   0  0  0  0  0  0  0  0  0  0  0  0
    6.2573  -15.0699   22.7769 C   0  0  0  0  0  0  0  0  0  0  0  0
    8.5187  -15.4970   22.4513 C   0  0  2  0  0  0  0  0  0  0  0  0
    9.8705  -15.4808   23.0848 N   0  0  0  0  0  0  0  0  0  0  0  0
   10.9309  -15.9061   22.1988 C   0  0  0  0  0  0  0  0  0  0  0  0
    9.8446  -16.2385   24.3472 O   0  0  0  0  0  0  0  0  0  0  0  0
    9.0870  -15.9707   25.3154 N   0  0  0  0  0  0  0  0  0  0  0  0
   10.7082  -17.3474   24.5308 C   0  0  1  0  0  0  0  0  0  0  0  0
   10.7355  -18.0714   25.8157 C   0  0  0  0  0  0  0  0  0  0  0  0
   10.9963  -19.5044   25.4154 C   0  0  0  0  0  0  0  0  0  0  0  0
   10.0849  -20.0472   24.4105 C   0  0  0  0  0  0  0  0  0  0  0  0
    8.9911  -19.3852   23.8331 N   0  0  0  0  0  0  0  0  0  0  0  0
    8.3701  -20.1837   22.9535 C   0  0  0  0  0  0  0  0  0  0  0  0
    9.0519  -21.3453   22.9615 N   0  0  0  0  0  0  0  0  0  0  0  0
   10.0686  -21.2553   23.8297 C   0  0  0  0  0  0  0  0  0  0  0  0
   11.7741  -17.5138   26.6876 O   0  0  0  0  0  0  0  0  0  0  0  0
   12.4839  -16.5672   26.2625 O   0  0  0  0  0  0  0  0  0  0  0  0
  2  1  1  0
  3  2  2  0
  4  2  1  0
  5  4  1  0
  6  5  1  0
  7  6  1  0
  8  7  1  0
  8  9  1  1
 10 11  2  0
 10  8  1  0
 13 12  1  0
 13 15  1  0
 14 13  2  0
 16 15  1  6
 16 18  1  0
 16 17  1  0
 17 10  1  0
 18 20  1  0
 19 18  2  0
 20 21  1  0
 21 28  1  0
 22 23  1  0
 21 22  1  1
 23 27  1  0
 24 23  2  0
 24 25  1  0
 25 26  1  0
 27 26  2  0
 28 29  2  0
 28 30  1  0
M  END
$$$$
