RNH.pdb
     RDKit          3D

 30 30  0  0  1  0  0  0  0  0999 V2000
    8.2724  -13.4737   17.6003 N   0  0  0  0  0  0  0  0  0  0  0  0
    8.0449  -12.7058   18.7662 C   0  0  0  0  0  0  0  0  0  0  0  0
    8.6013  -11.5491   18.9024 N   0  0  0  0  0  0  0  0  0  0  0  0
    7.1923  -13.2454   19.7683 N   0  0  0  0  0  0  0  0  0  0  0  0
    6.9014  -14.6534   19.7717 C   0  0  0  0  0  0  0  0  0  0  0  0
    7.4881  -15.3755   20.9709 C   0  0  0  0  0  0  0  0  0  0  0  0
    7.4331  -16.8524   20.6903 C   0  0  0  0  0  0  0  0  0  0  0  0
    8.8080  -17.4853   20.6933 C   0  0  2  0  0  0  0  0  0  0  0  0
    9.0717  -18.1979   19.4633 N   0  0  0  0  0  0  0  0  0  0  0  0
    9.0865  -18.2789   21.9076 C   0  0  0  0  0  0  0  0  0  0  0  0
    8.2097  -19.0776   22.3093 O   0  0  0  0  0  0  0  0  0  0  0  0
    8.4221  -10.9988   19.7599 N   0  0  0  0  0  0  0  0  0  0  0  0
   13.0719  -21.5883   20.4136 C   0  0  0  0  0  0  0  0  0  0  0  0
   12.1245  -21.2296   21.3772 O   0  0  0  0  0  0  0  0  0  0  0  0
   12.0132  -22.0039   22.3889 C   0  0  0  0  0  0  0  0  0  0  0  0
   11.2381  -20.0651   21.3675 C   0  0  2  0  0  0  0  0  0  0  0  0
   11.3621  -19.1582   22.5470 N   0  0  0  0  0  0  0  0  0  0  0  0
   10.2821  -18.2037   22.6603 C   0  0  0  0  0  0  0  0  0  0  0  0
   12.6893  -18.5204   22.5550 O   0  0  0  0  0  0  0  0  0  0  0  0
   13.7764  -19.1537   22.5638 N   0  0  0  0  0  0  0  0  0  0  0  0
   12.8010  -17.1073   22.5528 C   0  0  1  0  0  0  0  0  0  0  0  0
   14.1257  -16.4602   22.6000 C   0  0  0  0  0  0  0  0  0  0  0  0
   13.8702  -15.0775   22.0479 C   0  0  0  0  0  0  0  0  0  0  0  0
   13.5911  -15.0197   20.6148 C   0  0  0  0  0  0  0  0  0  0  0  0
   13.6135  -16.0977   19.7172 N   0  0  0  0  0  0  0  0  0  0  0  0
   13.3151  -15.6829   18.4779 C   0  0  0  0  0  0  0  0  0  0  0  0
   13.1027  -14.3561   18.5720 N   0  0  0  0  0  0  0  0  0  0  0  0
   13.2688  -13.9709   19.8446 C   0  0  0  0  0  0  0  0  0  0  0  0
   14.6348  -16.4515   23.9750 O   0  0  0  0  0  0  0  0  0  0  0  0
   13.9610  -17.0085   24.8785 O   0  0  0  0  0  0  0  0  0  0  0  0
  2  1  1  0
  3  2  2  0
  4  2  1  0
  5  4  1  0
  6  5  1  0
  7  6  1  0
  8  7  1  0
  8  9  1  6
 10 11  2  0
 10  8  1  0
 13 12  1  0
 13 15  1  0
 14 13  2  0
 16 15  1  1
 16 18  1  0
 16 17  1  0
 17 10  1  0
 18 20  1  0
 19 18  2  0
 20 21  1  0
 21 28  1  0
 22 23  1  0
 21 22  1  1
 23 27  1  0
 24 23  2  0
 24 25  1  0
 25 26  1  0
 27 26  2  0
 28 29  2  0
 28 30  1  0
M  END
$$$$
