RNH.pdb
     RDKit          3D

 30 30  0  0  1  0  0  0  0  0999 V2000
    8.3411  -13.0088   17.5793 N   0  0  0  0  0  0  0  0  0  0  0  0
    7.7636  -13.7031   16.4905 C   0  0  0  0  0  0  0  0  0  0  0  0
    6.9492  -13.0989   15.6919 N   0  0  0  0  0  0  0  0  0  0  0  0
    8.1086  -15.0706   16.3090 N   0  0  0  0  0  0  0  0  0  0  0  0
    8.9471  -15.7269   17.2752 C   0  0  0  0  0  0  0  0  0  0  0  0
    8.2459  -16.8689   17.9878 C   0  0  0  0  0  0  0  0  0  0  0  0
    9.2598  -17.5582   18.8596 C   0  0  0  0  0  0  0  0  0  0  0  0
    8.6619  -18.7243   19.6172 C   0  0  2  0  0  0  0  0  0  0  0  0
    7.9589  -19.6303   18.7368 N   0  0  0  0  0  0  0  0  0  0  0  0
    7.8729  -18.3154   20.7970 C   0  0  0  0  0  0  0  0  0  0  0  0
    6.7239  -17.8529   20.6122 O   0  0  0  0  0  0  0  0  0  0  0  0
    6.4998  -13.6327   14.9281 N   0  0  0  0  0  0  0  0  0  0  0  0
    4.8698  -20.8362   24.1464 C   0  0  0  0  0  0  0  0  0  0  0  0
    6.2460  -20.9902   23.9535 O   0  0  0  0  0  0  0  0  0  0  0  0
    6.8592  -21.7529   24.7767 C   0  0  0  0  0  0  0  0  0  0  0  0
    7.0757  -20.3791   22.9143 C   0  0  1  0  0  0  0  0  0  0  0  0
    7.5435  -18.9913   23.2043 N   0  0  0  0  0  0  0  0  0  0  0  0
    8.3222  -18.4068   22.1355 C   0  0  0  0  0  0  0  0  0  0  0  0
    8.2390  -18.9546   24.5017 O   0  0  0  0  0  0  0  0  0  0  0  0
    7.6733  -19.1354   25.6109 N   0  0  0  0  0  0  0  0  0  0  0  0
    9.6331  -18.7041   24.5563 C   0  0  1  0  0  0  0  0  0  0  0  0
   10.5293  -19.6121   25.2967 C   0  0  0  0  0  0  0  0  0  0  0  0
   10.2724  -20.9616   24.6686 C   0  0  0  0  0  0  0  0  0  0  0  0
    9.8670  -22.0148   25.5968 C   0  0  0  0  0  0  0  0  0  0  0  0
    9.6508  -21.8727   26.9755 N   0  0  0  0  0  0  0  0  0  0  0  0
    9.2953  -23.0457   27.5184 C   0  0  0  0  0  0  0  0  0  0  0  0
    9.2816  -23.9338   26.5058 N   0  0  0  0  0  0  0  0  0  0  0  0
    9.6224  -23.3129   25.3683 C   0  0  0  0  0  0  0  0  0  0  0  0
   11.9200  -19.1661   25.1664 O   0  0  0  0  0  0  0  0  0  0  0  0
   12.2020  -18.2903   24.3098 O   0  0  0  0  0  0  0  0  0  0  0  0
  2  1  1  0
  3  2  2  0
  4  2  1  0
  5  4  1  0
  6  5  1  0
  7  6  1  0
  8  7  1  0
  8  9  1  6
 10 11  2  0
 10  8  1  0
 13 12  1  0
 13 15  1  0
 14 13  2  0
 16 15  1  6
 16 18  1  0
 16 17  1  0
 17 10  1  0
 18 20  1  0
 19 18  2  0
 20 21  1  0
 21 28  1  0
 22 23  1  0
 21 22  1  1
 23 27  1  0
 24 23  2  0
 24 25  1  0
 25 26  1  0
 27 26  2  0
 28 29  2  0
 28 30  1  0
M  END
$$$$
