RNH.pdb
     RDKit          3D

 30 30  0  0  1  0  0  0  0  0999 V2000
    8.1132  -15.2875   16.0530 N   0  0  0  0  0  0  0  0  0  0  0  0
    7.6133  -14.1125   15.4443 C   0  0  0  0  0  0  0  0  0  0  0  0
    7.9525  -13.8108   14.2360 N   0  0  0  0  0  0  0  0  0  0  0  0
    6.7349  -13.2881   16.2000 N   0  0  0  0  0  0  0  0  0  0  0  0
    6.8989  -13.1930   17.6252 C   0  0  0  0  0  0  0  0  0  0  0  0
    8.3496  -13.2890   18.0612 C   0  0  0  0  0  0  0  0  0  0  0  0
    8.3678  -13.5570   19.5414 C   0  0  0  0  0  0  0  0  0  0  0  0
    8.6696  -15.0067   19.8549 C   0  0  2  0  0  0  0  0  0  0  0  0
    7.5048  -15.8453   19.6810 N   0  0  0  0  0  0  0  0  0  0  0  0
    9.3469  -15.1979   21.1535 C   0  0  0  0  0  0  0  0  0  0  0  0
   10.4405  -14.6182   21.3443 O   0  0  0  0  0  0  0  0  0  0  0  0
    7.5281  -12.9834   13.7827 N   0  0  0  0  0  0  0  0  0  0  0  0
    6.5944  -16.3080   23.2130 C   0  0  0  0  0  0  0  0  0  0  0  0
    7.2918  -16.9101   24.2647 O   0  0  0  0  0  0  0  0  0  0  0  0
    6.5917  -17.5287   25.1379 C   0  0  0  0  0  0  0  0  0  0  0  0
    8.7381  -16.9181   24.4878 C   0  0  2  0  0  0  0  0  0  0  0  0
    9.5470  -16.1983   23.4599 N   0  0  0  0  0  0  0  0  0  0  0  0
    8.8488  -15.9959   22.2102 C   0  0  0  0  0  0  0  0  0  0  0  0
   10.8478  -16.8657   23.2842 O   0  0  0  0  0  0  0  0  0  0  0  0
   11.0375  -17.8539   22.5291 N   0  0  0  0  0  0  0  0  0  0  0  0
   11.9876  -16.4021   23.9881 C   0  0  1  0  0  0  0  0  0  0  0  0
   13.3046  -17.0333   23.7805 C   0  0  0  0  0  0  0  0  0  0  0  0
   14.1746  -15.8981   23.2944 C   0  0  0  0  0  0  0  0  0  0  0  0
   13.9566  -15.4949   21.9069 C   0  0  0  0  0  0  0  0  0  0  0  0
   13.3986  -16.2817   20.8883 N   0  0  0  0  0  0  0  0  0  0  0  0
   13.3545  -15.5966   19.7368 C   0  0  0  0  0  0  0  0  0  0  0  0
   13.8763  -14.3844   20.0064 N   0  0  0  0  0  0  0  0  0  0  0  0
   14.2311  -14.3329   21.2975 C   0  0  0  0  0  0  0  0  0  0  0  0
   13.7793  -17.6345   25.0307 O   0  0  0  0  0  0  0  0  0  0  0  0
   13.0892  -17.4995   26.0730 O   0  0  0  0  0  0  0  0  0  0  0  0
  2  1  1  0
  3  2  2  0
  4  2  1  0
  5  4  1  0
  6  5  1  0
  7  6  1  0
  8  7  1  0
  8  9  1  1
 10 11  2  0
 10  8  1  0
 13 12  1  0
 13 15  1  0
 14 13  2  0
 16 15  1  1
 16 18  1  0
 16 17  1  0
 17 10  1  0
 18 20  1  0
 19 18  2  0
 20 21  1  0
 21 28  1  0
 22 23  1  0
 21 22  1  1
 23 27  1  0
 24 23  2  0
 24 25  1  0
 25 26  1  0
 27 26  2  0
 28 29  2  0
 28 30  1  0
M  END
$$$$
