RNH.pdb
     RDKit          3D

 30 30  0  0  1  0  0  0  0  0999 V2000
    7.8542  -14.4507   13.9119 N   0  0  0  0  0  0  0  0  0  0  0  0
    8.5418  -14.0230   15.0717 C   0  0  0  0  0  0  0  0  0  0  0  0
    8.5083  -12.7828   15.4278 N   0  0  0  0  0  0  0  0  0  0  0  0
    9.2599  -14.9948   15.8216 N   0  0  0  0  0  0  0  0  0  0  0  0
    9.6406  -14.7076   17.1779 C   0  0  0  0  0  0  0  0  0  0  0  0
    8.4701  -14.7535   18.1430 C   0  0  0  0  0  0  0  0  0  0  0  0
    9.0041  -14.4969   19.5258 C   0  0  0  0  0  0  0  0  0  0  0  0
    9.0963  -15.7655   20.3463 C   0  0  2  0  0  0  0  0  0  0  0  0
    8.0937  -16.7305   19.9537 N   0  0  0  0  0  0  0  0  0  0  0  0
    9.1433  -15.5210   21.8022 C   0  0  0  0  0  0  0  0  0  0  0  0
   10.0112  -14.7342   22.2448 O   0  0  0  0  0  0  0  0  0  0  0  0
    9.0426  -12.4806   16.2606 N   0  0  0  0  0  0  0  0  0  0  0  0
    6.9367  -14.2435   26.4798 C   0  0  0  0  0  0  0  0  0  0  0  0
    6.3154  -15.3367   25.8685 O   0  0  0  0  0  0  0  0  0  0  0  0
    5.2194  -15.7395   26.3899 C   0  0  0  0  0  0  0  0  0  0  0  0
    6.7717  -16.0810   24.6939 C   0  0  2  0  0  0  0  0  0  0  0  0
    8.0246  -15.5715   24.0619 N   0  0  0  0  0  0  0  0  0  0  0  0
    8.2727  -16.1157   22.7457 C   0  0  0  0  0  0  0  0  0  0  0  0
    9.1624  -15.7559   24.9784 O   0  0  0  0  0  0  0  0  0  0  0  0
    9.8228  -14.8111   25.4823 N   0  0  0  0  0  0  0  0  0  0  0  0
    9.5772  -17.0605   25.3461 C   0  0  1  0  0  0  0  0  0  0  0  0
   10.5411  -17.2586   26.4450 C   0  0  0  0  0  0  0  0  0  0  0  0
    9.8160  -16.7276   27.6591 C   0  0  0  0  0  0  0  0  0  0  0  0
   10.0576  -15.3190   27.9636 C   0  0  0  0  0  0  0  0  0  0  0  0
    9.0848  -14.3492   28.2484 N   0  0  0  0  0  0  0  0  0  0  0  0
    9.6599  -13.1594   28.4735 C   0  0  0  0  0  0  0  0  0  0  0  0
   10.9853  -13.3564   28.3365 N   0  0  0  0  0  0  0  0  0  0  0  0
   11.2123  -14.6417   28.0336 C   0  0  0  0  0  0  0  0  0  0  0  0
   10.8969  -18.6767   26.5553 O   0  0  0  0  0  0  0  0  0  0  0  0
   11.6929  -19.0374   27.4590 O   0  0  0  0  0  0  0  0  0  0  0  0
  2  1  1  0
  3  2  2  0
  4  2  1  0
  5  4  1  0
  6  5  1  0
  7  6  1  0
  8  7  1  0
  8  9  1  1
 10 11  2  0
 10  8  1  0
 13 12  1  0
 13 15  1  0
 14 13  2  0
 16 15  1  6
 16 18  1  0
 16 17  1  0
 17 10  1  0
 18 20  1  0
 19 18  2  0
 20 21  1  0
 21 28  1  0
 22 23  1  0
 21 22  1  6
 23 27  1  0
 24 23  2  0
 24 25  1  0
 25 26  1  0
 27 26  2  0
 28 29  2  0
 28 30  1  0
M  END
$$$$
