RNH.pdb
     RDKit          3D

 30 30  0  0  1  0  0  0  0  0999 V2000
   10.5450  -15.0726   11.8628 N   0  0  0  0  0  0  0  0  0  0  0  0
   10.8372  -16.4557   11.9151 C   0  0  0  0  0  0  0  0  0  0  0  0
   10.9859  -17.1310   10.8252 N   0  0  0  0  0  0  0  0  0  0  0  0
   10.9609  -17.0665   13.1933 N   0  0  0  0  0  0  0  0  0  0  0  0
   10.7877  -16.2737   14.3802 C   0  0  0  0  0  0  0  0  0  0  0  0
    9.3798  -15.7251   14.5245 C   0  0  0  0  0  0  0  0  0  0  0  0
    8.9484  -15.9358   15.9502 C   0  0  0  0  0  0  0  0  0  0  0  0
    8.9298  -17.4008   16.3300 C   0  0  2  0  0  0  0  0  0  0  0  0
    7.8368  -18.1039   15.6963 N   0  0  0  0  0  0  0  0  0  0  0  0
    9.0152  -17.6310   17.7865 C   0  0  0  0  0  0  0  0  0  0  0  0
    7.9805  -17.4748   18.4744 O   0  0  0  0  0  0  0  0  0  0  0  0
   11.1802  -18.1456   10.8808 N   0  0  0  0  0  0  0  0  0  0  0  0
   10.4045  -20.7720   22.2742 C   0  0  0  0  0  0  0  0  0  0  0  0
   11.2228  -19.8516   21.6124 O   0  0  0  0  0  0  0  0  0  0  0  0
   12.1236  -19.2760   22.3141 C   0  0  0  0  0  0  0  0  0  0  0  0
   11.1724  -19.4650   20.2018 C   0  0  1  0  0  0  0  0  0  0  0  0
   10.2254  -18.3576   19.8764 N   0  0  0  0  0  0  0  0  0  0  0  0
   10.1910  -18.0183   18.4714 C   0  0  0  0  0  0  0  0  0  0  0  0
   10.4960  -17.1938   20.7371 O   0  0  0  0  0  0  0  0  0  0  0  0
   11.5044  -16.4504   20.6220 N   0  0  0  0  0  0  0  0  0  0  0  0
    9.5931  -16.8489   21.7740 C   0  0  1  0  0  0  0  0  0  0  0  0
    9.9124  -15.7573   22.7134 C   0  0  0  0  0  0  0  0  0  0  0  0
    8.6563  -14.9183   22.7296 C   0  0  0  0  0  0  0  0  0  0  0  0
    8.3637  -14.2090   21.4861 C   0  0  0  0  0  0  0  0  0  0  0  0
    7.1944  -14.3197   20.7189 N   0  0  0  0  0  0  0  0  0  0  0  0
    7.2664  -13.5314   19.6370 C   0  0  0  0  0  0  0  0  0  0  0  0
    8.4647  -12.9197   19.7031 N   0  0  0  0  0  0  0  0  0  0  0  0
    9.1095  -13.3281   20.8044 C   0  0  0  0  0  0  0  0  0  0  0  0
   10.2604  -16.3072   24.0273 O   0  0  0  0  0  0  0  0  0  0  0  0
   10.1059  -17.5377   24.2339 O   0  0  0  0  0  0  0  0  0  0  0  0
  2  1  1  0
  3  2  2  0
  4  2  1  0
  5  4  1  0
  6  5  1  0
  7  6  1  0
  8  7  1  0
  8  9  1  1
 10 11  2  0
 10  8  1  0
 13 12  1  0
 13 15  1  0
 14 13  2  0
 16 15  1  6
 16 18  1  0
 16 17  1  0
 17 10  1  0
 18 20  1  0
 19 18  2  0
 20 21  1  0
 21 28  1  0
 22 23  1  0
 21 22  1  1
 23 27  1  0
 24 23  2  0
 24 25  1  0
 25 26  1  0
 27 26  2  0
 28 29  2  0
 28 30  1  0
M  END
$$$$
