RNH.pdb
     RDKit          3D

 30 30  0  0  1  0  0  0  0  0999 V2000
    9.6221  -14.8529   17.5825 N   0  0  0  0  0  0  0  0  0  0  0  0
    8.5810  -14.0011   17.1447 C   0  0  0  0  0  0  0  0  0  0  0  0
    8.0877  -14.1327   15.9592 N   0  0  0  0  0  0  0  0  0  0  0  0
    8.1031  -13.0096   18.0451 N   0  0  0  0  0  0  0  0  0  0  0  0
    7.9314  -13.3346   19.4351 C   0  0  0  0  0  0  0  0  0  0  0  0
    6.9053  -14.4293   19.6639 C   0  0  0  0  0  0  0  0  0  0  0  0
    7.0755  -14.9318   21.0717 C   0  0  0  0  0  0  0  0  0  0  0  0
    8.4783  -15.4375   21.3312 C   0  0  2  0  0  0  0  0  0  0  0  0
    8.9701  -16.2383   20.2324 N   0  0  0  0  0  0  0  0  0  0  0  0
    8.6349  -16.0837   22.6501 C   0  0  0  0  0  0  0  0  0  0  0  0
    7.9759  -15.6327   23.6147 O   0  0  0  0  0  0  0  0  0  0  0  0
    7.3420  -13.4873   15.6466 N   0  0  0  0  0  0  0  0  0  0  0  0
   12.3242  -17.5429   23.0475 C   0  0  0  0  0  0  0  0  0  0  0  0
   11.8564  -18.7304   23.6183 O   0  0  0  0  0  0  0  0  0  0  0  0
   12.6623  -19.7234   23.6188 C   0  0  0  0  0  0  0  0  0  0  0  0
   10.5454  -18.9756   24.2205 C   0  0  1  0  0  0  0  0  0  0  0  0
    9.6083  -17.8134   24.2060 N   0  0  0  0  0  0  0  0  0  0  0  0
    9.4834  -17.1857   22.9096 C   0  0  0  0  0  0  0  0  0  0  0  0
    9.9713  -16.8601   25.2680 O   0  0  0  0  0  0  0  0  0  0  0  0
   10.8470  -15.9654   25.1438 N   0  0  0  0  0  0  0  0  0  0  0  0
    9.3211  -16.9136   26.5265 C   0  0  1  0  0  0  0  0  0  0  0  0
    9.6247  -15.9159   27.5697 C   0  0  0  0  0  0  0  0  0  0  0  0
    8.2630  -15.4447   28.0235 C   0  0  0  0  0  0  0  0  0  0  0  0
    7.5827  -14.5303   27.1091 C   0  0  0  0  0  0  0  0  0  0  0  0
    8.1035  -14.0013   25.9187 N   0  0  0  0  0  0  0  0  0  0  0  0
    7.2094  -13.1914   25.3342 C   0  0  0  0  0  0  0  0  0  0  0  0
    6.1260  -13.1961   26.1345 N   0  0  0  0  0  0  0  0  0  0  0  0
    6.3566  -13.9938   27.1862 C   0  0  0  0  0  0  0  0  0  0  0  0
   10.4135  -16.5305   28.6421 O   0  0  0  0  0  0  0  0  0  0  0  0
   10.6438  -17.7657   28.5988 O   0  0  0  0  0  0  0  0  0  0  0  0
  2  1  1  0
  3  2  2  0
  4  2  1  0
  5  4  1  0
  6  5  1  0
  7  6  1  0
  8  7  1  0
  8  9  1  6
 10 11  2  0
 10  8  1  0
 13 12  1  0
 13 15  1  0
 14 13  2  0
 16 15  1  6
 16 18  1  0
 16 17  1  0
 17 10  1  0
 18 20  1  0
 19 18  2  0
 20 21  1  0
 21 28  1  0
 22 23  1  0
 21 22  1  1
 23 27  1  0
 24 23  2  0
 24 25  1  0
 25 26  1  0
 27 26  2  0
 28 29  2  0
 28 30  1  0
M  END
$$$$
