DEN.pdb
     RDKit          3D

 26 25  0  0  1  0  0  0  0  0999 V2000
   19.3598  -10.0891  -14.2943 N   0  0  0  0  0  0  0  0  0  0  0  0
   19.5726   -8.8701  -13.5777 C   0  0  1  0  0  0  0  0  0  0  0  0
   19.9780   -7.7274  -14.4951 C   0  0  0  0  0  0  0  0  0  0  0  0
   21.2131   -8.0882  -15.2325 C   0  0  0  0  0  0  0  0  0  0  0  0
   21.2576   -7.9049  -16.4748 O   0  0  0  0  0  0  0  0  0  0  0  0
   18.3771   -8.5027  -12.7895 C   0  0  0  0  0  0  0  0  0  0  0  0
   17.8670   -7.3515  -12.9673 O   0  0  0  0  0  0  0  0  0  0  0  0
   22.3294   -8.6214  -14.6188 O   0  0  0  0  0  0  0  0  0  0  0  0
   17.7519   -9.3486  -11.8405 N   0  0  0  0  0  0  0  0  0  0  0  0
   16.4998   -8.9723  -11.2600 C   0  0  1  0  0  0  0  0  0  0  0  0
   15.6869  -10.1093  -10.7353 C   0  0  0  0  0  0  0  0  0  0  0  0
   14.3194   -9.7781  -10.2595 C   0  0  0  0  0  0  0  0  0  0  0  0
   13.6383  -11.0491   -9.8661 C   0  0  0  0  0  0  0  0  0  0  0  0
   14.2373  -12.1487   -9.9475 O   0  0  0  0  0  0  0  0  0  0  0  0
   16.6196   -7.9367  -10.1898 C   0  0  0  0  0  0  0  0  0  0  0  0
   17.5943   -8.0172   -9.3943 O   0  0  0  0  0  0  0  0  0  0  0  0
   12.3289  -11.0354   -9.4032 O   0  0  0  0  0  0  0  0  0  0  0  0
   15.7814   -3.6538   -7.4737 N   0  0  0  0  0  0  0  0  0  0  0  0
   16.3931   -3.5179   -8.7663 C   0  0  0  0  0  0  0  0  0  0  0  0
   16.9106   -2.4231   -9.0240 O   0  0  0  0  0  0  0  0  0  0  0  0
   16.3341   -4.6929   -9.6337 C   0  0  0  0  0  0  0  0  0  0  0  0
   15.6635   -5.8917   -9.0862 C   0  0  2  0  0  0  0  0  0  0  0  0
   15.6457   -6.9215  -10.1117 N   0  0  0  0  0  0  0  0  0  0  0  0
   14.3029   -5.6666   -8.5474 C   0  0  0  0  0  0  0  0  0  0  0  0
   13.9710   -5.3470   -7.2629 O   0  0  0  0  0  0  0  0  0  0  0  0
   13.3305   -5.7813   -9.3606 O   0  0  0  0  0  0  0  0  0  0  0  0
  2  1  1  6
  2  3  1  0
  3  4  1  0
  4  8  1  0
  5  4  2  0
  6  2  1  0
  6  7  2  0
  9  6  1  0
 10  9  1  0
 10 11  1  1
 11 12  1  0
 12 13  1  0
 13 17  1  0
 13 14  2  0
 15 10  1  0
 16 15  2  0
 19 18  1  0
 19 21  1  0
 20 19  2  0
 22 21  1  6
 22 23  1  0
 23 15  1  0
 24 25  1  0
 24 22  1  0
 26 24  2  0
M  END
$$$$
