DEN.pdb
     RDKit          3D

 26 25  0  0  1  0  0  0  0  0999 V2000
   15.6412  -12.9983  -14.1749 N   0  0  0  0  0  0  0  0  0  0  0  0
   15.3459  -11.6548  -14.5656 C   0  0  1  0  0  0  0  0  0  0  0  0
   13.8810  -11.3045  -14.3572 C   0  0  0  0  0  0  0  0  0  0  0  0
   13.0371  -12.0994  -15.2820 C   0  0  0  0  0  0  0  0  0  0  0  0
   12.5963  -13.2128  -14.9013 O   0  0  0  0  0  0  0  0  0  0  0  0
   16.2149  -10.6928  -13.8553 C   0  0  0  0  0  0  0  0  0  0  0  0
   16.2451  -10.7303  -12.5845 O   0  0  0  0  0  0  0  0  0  0  0  0
   12.7069  -11.6757  -16.5542 O   0  0  0  0  0  0  0  0  0  0  0  0
   17.0252   -9.7219  -14.4939 N   0  0  0  0  0  0  0  0  0  0  0  0
   17.8809   -8.8790  -13.7169 C   0  0  1  0  0  0  0  0  0  0  0  0
   19.1703   -8.5180  -14.3771 C   0  0  0  0  0  0  0  0  0  0  0  0
   20.1056   -7.6803  -13.5838 C   0  0  0  0  0  0  0  0  0  0  0  0
   21.2947   -7.3697  -14.4345 C   0  0  0  0  0  0  0  0  0  0  0  0
   22.1285   -6.5023  -14.0782 O   0  0  0  0  0  0  0  0  0  0  0  0
   17.2207   -7.6261  -13.2409 C   0  0  0  0  0  0  0  0  0  0  0  0
   16.4486   -7.0248  -14.0357 O   0  0  0  0  0  0  0  0  0  0  0  0
   21.4979   -8.0365  -15.6359 O   0  0  0  0  0  0  0  0  0  0  0  0
   15.8443   -3.8554   -9.9397 N   0  0  0  0  0  0  0  0  0  0  0  0
   15.9113   -5.1108   -9.2447 C   0  0  0  0  0  0  0  0  0  0  0  0
   15.4668   -5.1309   -8.0894 O   0  0  0  0  0  0  0  0  0  0  0  0
   16.4995   -6.2260   -9.9842 C   0  0  0  0  0  0  0  0  0  0  0  0
   16.8893   -5.9633  -11.3863 C   0  0  2  0  0  0  0  0  0  0  0  0
   17.4867   -7.1694  -11.9348 N   0  0  0  0  0  0  0  0  0  0  0  0
   17.7813   -4.7991  -11.5890 C   0  0  0  0  0  0  0  0  0  0  0  0
   19.0452   -4.8129  -12.1032 O   0  0  0  0  0  0  0  0  0  0  0  0
   17.3315   -3.6576  -11.2502 O   0  0  0  0  0  0  0  0  0  0  0  0
  2  1  1  1
  2  3  1  0
  3  4  1  0
  4  8  1  0
  5  4  2  0
  6  2  1  0
  6  7  2  0
  9  6  1  0
 10  9  1  0
 10 11  1  6
 11 12  1  0
 12 13  1  0
 13 17  1  0
 13 14  2  0
 15 10  1  0
 16 15  2  0
 19 18  1  0
 19 21  1  0
 20 19  2  0
 22 21  1  1
 22 23  1  0
 23 15  1  0
 24 25  1  0
 24 22  1  0
 26 24  2  0
M  END
$$$$
