DEN.pdb
     RDKit          3D

 26 25  0  0  1  0  0  0  0  0999 V2000
   15.1065   -8.6639  -12.4719 N   0  0  0  0  0  0  0  0  0  0  0  0
   15.8491   -8.1304  -11.3725 C   0  0  1  0  0  0  0  0  0  0  0  0
   15.7261   -8.9904  -10.1246 C   0  0  0  0  0  0  0  0  0  0  0  0
   14.2951   -9.1910   -9.7909 C   0  0  0  0  0  0  0  0  0  0  0  0
   13.9930   -9.9183   -8.8118 O   0  0  0  0  0  0  0  0  0  0  0  0
   17.2701   -7.9420  -11.7340 C   0  0  0  0  0  0  0  0  0  0  0  0
   18.0743   -7.5422  -10.8338 O   0  0  0  0  0  0  0  0  0  0  0  0
   13.2654   -8.6142  -10.5079 O   0  0  0  0  0  0  0  0  0  0  0  0
   17.8068   -8.1771  -13.0239 N   0  0  0  0  0  0  0  0  0  0  0  0
   19.1866   -7.9058  -13.2864 C   0  0  1  0  0  0  0  0  0  0  0  0
   19.8797   -8.9360  -14.1153 C   0  0  0  0  0  0  0  0  0  0  0  0
   21.3153   -8.6911  -14.4072 C   0  0  0  0  0  0  0  0  0  0  0  0
   21.8235   -9.8201  -15.2448 C   0  0  0  0  0  0  0  0  0  0  0  0
   22.9181  -10.3729  -14.9788 O   0  0  0  0  0  0  0  0  0  0  0  0
   19.4313   -6.5620  -13.8917 C   0  0  0  0  0  0  0  0  0  0  0  0
   18.8741   -6.2974  -14.9912 O   0  0  0  0  0  0  0  0  0  0  0  0
   21.0922  -10.2774  -16.3334 O   0  0  0  0  0  0  0  0  0  0  0  0
   18.8149   -3.1254  -15.3693 N   0  0  0  0  0  0  0  0  0  0  0  0
   18.8944   -2.6829  -14.0050 C   0  0  0  0  0  0  0  0  0  0  0  0
   18.0721   -1.8287  -13.6489 O   0  0  0  0  0  0  0  0  0  0  0  0
   19.9419   -3.2944  -13.1893 C   0  0  0  0  0  0  0  0  0  0  0  0
   20.7072   -4.3988  -13.8069 C   0  0  2  0  0  0  0  0  0  0  0  0
   20.2693   -5.6527  -13.2164 N   0  0  0  0  0  0  0  0  0  0  0  0
   22.1802   -4.2705  -13.7295 C   0  0  0  0  0  0  0  0  0  0  0  0
   23.0500   -5.1396  -13.1379 O   0  0  0  0  0  0  0  0  0  0  0  0
   22.7021   -3.2426  -14.2689 O   0  0  0  0  0  0  0  0  0  0  0  0
  2  1  1  6
  2  3  1  0
  3  4  1  0
  4  8  1  0
  5  4  2  0
  6  2  1  0
  6  7  2  0
  9  6  1  0
 10  9  1  0
 10 11  1  6
 11 12  1  0
 12 13  1  0
 13 17  1  0
 13 14  2  0
 15 10  1  0
 16 15  2  0
 19 18  1  0
 19 21  1  0
 20 19  2  0
 22 21  1  1
 22 23  1  0
 23 15  1  0
 24 25  1  0
 24 22  1  0
 26 24  2  0
M  END
$$$$
