DEN.pdb
     RDKit          3D

 26 25  0  0  1  0  0  0  0  0999 V2000
   18.0583  -11.8891  -18.0098 N   0  0  0  0  0  0  0  0  0  0  0  0
   17.8718  -11.3025  -16.7192 C   0  0  1  0  0  0  0  0  0  0  0  0
   18.7711  -11.9314  -15.6667 C   0  0  0  0  0  0  0  0  0  0  0  0
   18.3708  -13.3414  -15.4404 C   0  0  0  0  0  0  0  0  0  0  0  0
   19.2496  -14.1819  -15.1238 O   0  0  0  0  0  0  0  0  0  0  0  0
   18.0754   -9.8391  -16.7673 C   0  0  0  0  0  0  0  0  0  0  0  0
   19.1182   -9.3931  -17.3423 O   0  0  0  0  0  0  0  0  0  0  0  0
   17.0683  -13.7842  -15.5609 O   0  0  0  0  0  0  0  0  0  0  0  0
   17.1839   -8.8873  -16.2137 N   0  0  0  0  0  0  0  0  0  0  0  0
   17.5095   -7.4948  -16.2489 C   0  0  1  0  0  0  0  0  0  0  0  0
   16.3648   -6.5777  -15.9712 C   0  0  0  0  0  0  0  0  0  0  0  0
   15.1655   -6.7403  -16.8322 C   0  0  0  0  0  0  0  0  0  0  0  0
   13.9899   -6.1598  -16.1145 C   0  0  0  0  0  0  0  0  0  0  0  0
   13.0304   -6.8879  -15.7628 O   0  0  0  0  0  0  0  0  0  0  0  0
   18.6487   -7.1204  -15.3577 C   0  0  0  0  0  0  0  0  0  0  0  0
   19.0914   -7.9939  -14.5638 O   0  0  0  0  0  0  0  0  0  0  0  0
   13.9387   -4.8025  -15.8240 O   0  0  0  0  0  0  0  0  0  0  0  0
   22.9132   -4.8265  -13.7934 N   0  0  0  0  0  0  0  0  0  0  0  0
   22.8167   -5.9977  -14.6196 C   0  0  0  0  0  0  0  0  0  0  0  0
   23.8596   -6.6413  -14.7954 O   0  0  0  0  0  0  0  0  0  0  0  0
   21.4924   -6.2969  -15.1609 C   0  0  0  0  0  0  0  0  0  0  0  0
   20.3850   -5.4128  -14.7382 C   0  0  2  0  0  0  0  0  0  0  0  0
   19.1768   -5.8166  -15.4381 N   0  0  0  0  0  0  0  0  0  0  0  0
   20.6298   -3.9629  -14.9112 C   0  0  0  0  0  0  0  0  0  0  0  0
   19.9170   -3.0969  -15.6885 O   0  0  0  0  0  0  0  0  0  0  0  0
   21.6080   -3.4592  -14.2713 O   0  0  0  0  0  0  0  0  0  0  0  0
  2  1  1  6
  2  3  1  0
  3  4  1  0
  4  8  1  0
  5  4  2  0
  6  2  1  0
  6  7  2  0
  9  6  1  0
 10  9  1  0
 10 11  1  1
 11 12  1  0
 12 13  1  0
 13 17  1  0
 13 14  2  0
 15 10  1  0
 16 15  2  0
 19 18  1  0
 19 21  1  0
 20 19  2  0
 22 21  1  6
 22 23  1  0
 23 15  1  0
 24 25  1  0
 24 22  1  0
 26 24  2  0
M  END
$$$$
