DEN.pdb
     RDKit          3D

 26 25  0  0  1  0  0  0  0  0999 V2000
   18.7556  -25.8545  -10.3476 N   0  0  0  0  0  0  0  0  0  0  0  0
   18.7209  -24.8288   -9.3519 C   0  0  1  0  0  0  0  0  0  0  0  0
   18.1452  -23.5273   -9.8874 C   0  0  0  0  0  0  0  0  0  0  0  0
   19.1396  -22.8594  -10.7616 C   0  0  0  0  0  0  0  0  0  0  0  0
   19.9361  -23.5651  -11.4299 O   0  0  0  0  0  0  0  0  0  0  0  0
   17.9721  -25.2741   -8.1576 C   0  0  0  0  0  0  0  0  0  0  0  0
   16.7137  -25.4284   -8.2566 O   0  0  0  0  0  0  0  0  0  0  0  0
   19.2377  -21.4871  -10.8810 O   0  0  0  0  0  0  0  0  0  0  0  0
   18.5605  -25.5443   -6.8975 N   0  0  0  0  0  0  0  0  0  0  0  0
   17.7326  -25.8254   -5.7653 C   0  0  1  0  0  0  0  0  0  0  0  0
   18.4707  -26.2666   -4.5450 C   0  0  0  0  0  0  0  0  0  0  0  0
   17.6436  -26.7818   -3.4241 C   0  0  0  0  0  0  0  0  0  0  0  0
   18.5591  -27.2052   -2.3209 C   0  0  0  0  0  0  0  0  0  0  0  0
   18.9952  -26.3685   -1.4936 O   0  0  0  0  0  0  0  0  0  0  0  0
   16.8213  -24.7018   -5.3923 C   0  0  0  0  0  0  0  0  0  0  0  0
   17.2348  -23.5229   -5.5612 O   0  0  0  0  0  0  0  0  0  0  0  0
   18.9436  -28.5335   -2.1920 O   0  0  0  0  0  0  0  0  0  0  0  0
   12.5204  -22.1032   -4.5993 N   0  0  0  0  0  0  0  0  0  0  0  0
   13.2031  -22.2695   -5.8522 C   0  0  0  0  0  0  0  0  0  0  0  0
   12.7996  -21.5833   -6.8004 O   0  0  0  0  0  0  0  0  0  0  0  0
   14.3010  -23.2344   -5.8645 C   0  0  0  0  0  0  0  0  0  0  0  0
   14.5429  -23.9838   -4.6128 C   0  0  2  0  0  0  0  0  0  0  0  0
   15.5479  -25.0020   -4.8693 N   0  0  0  0  0  0  0  0  0  0  0  0
   13.3403  -24.5813   -3.9891 C   0  0  0  0  0  0  0  0  0  0  0  0
   13.1159  -25.9042   -3.7402 O   0  0  0  0  0  0  0  0  0  0  0  0
   12.4091  -23.7851   -3.6445 O   0  0  0  0  0  0  0  0  0  0  0  0
  2  1  1  6
  2  3  1  0
  3  4  1  0
  4  8  1  0
  5  4  2  0
  6  2  1  0
  6  7  2  0
  9  6  1  0
 10  9  1  0
 10 11  1  1
 11 12  1  0
 12 13  1  0
 13 17  1  0
 13 14  2  0
 15 10  1  0
 16 15  2  0
 19 18  1  0
 19 21  1  0
 20 19  2  0
 22 21  1  6
 22 23  1  0
 23 15  1  0
 24 25  1  0
 24 22  1  0
 26 24  2  0
M  END
$$$$
