DEN.pdb
     RDKit          3D

 26 25  0  0  1  0  0  0  0  0999 V2000
   19.6985  -11.5775  -16.0921 N   0  0  0  0  0  0  0  0  0  0  0  0
   18.5811  -10.7442  -15.7731 C   0  0  1  0  0  0  0  0  0  0  0  0
   17.2838  -11.5322  -15.6834 C   0  0  0  0  0  0  0  0  0  0  0  0
   16.9701  -12.1365  -17.0009 C   0  0  0  0  0  0  0  0  0  0  0  0
   16.6290  -13.3448  -17.0523 O   0  0  0  0  0  0  0  0  0  0  0  0
   18.8192   -9.9938  -14.5219 C   0  0  0  0  0  0  0  0  0  0  0  0
   19.1033  -10.6489  -13.4696 O   0  0  0  0  0  0  0  0  0  0  0  0
   17.0341  -11.4333  -18.1876 O   0  0  0  0  0  0  0  0  0  0  0  0
   18.7534   -8.5832  -14.4085 N   0  0  0  0  0  0  0  0  0  0  0  0
   18.9179   -7.9582  -13.1324 C   0  0  1  0  0  0  0  0  0  0  0  0
   19.6985   -6.6859  -13.1552 C   0  0  0  0  0  0  0  0  0  0  0  0
   21.1733   -6.8189  -13.2695 C   0  0  0  0  0  0  0  0  0  0  0  0
   21.7659   -5.4476  -13.3213 C   0  0  0  0  0  0  0  0  0  0  0  0
   21.4923   -4.6666  -14.2645 O   0  0  0  0  0  0  0  0  0  0  0  0
   17.6325   -7.7172  -12.4100 C   0  0  0  0  0  0  0  0  0  0  0  0
   16.5566   -7.9821  -13.0114 O   0  0  0  0  0  0  0  0  0  0  0  0
   22.6311   -5.0133  -12.3253 O   0  0  0  0  0  0  0  0  0  0  0  0
   14.1779   -7.1722   -8.7608 N   0  0  0  0  0  0  0  0  0  0  0  0
   14.6521   -8.4278   -9.2727 C   0  0  0  0  0  0  0  0  0  0  0  0
   14.0151   -9.4377   -8.9452 O   0  0  0  0  0  0  0  0  0  0  0  0
   15.8379   -8.3695  -10.1252 C   0  0  0  0  0  0  0  0  0  0  0  0
   16.4842   -7.0482  -10.2774 C   0  0  2  0  0  0  0  0  0  0  0  0
   17.6736   -7.2059  -11.0978 N   0  0  0  0  0  0  0  0  0  0  0  0
   16.8103   -6.3523   -9.0118 C   0  0  0  0  0  0  0  0  0  0  0  0
   16.1784   -5.2621   -8.4880 O   0  0  0  0  0  0  0  0  0  0  0  0
   17.7830   -6.8112   -8.3313 O   0  0  0  0  0  0  0  0  0  0  0  0
  2  1  1  1
  2  3  1  0
  3  4  1  0
  4  8  1  0
  5  4  2  0
  6  2  1  0
  6  7  2  0
  9  6  1  0
 10  9  1  0
 10 11  1  6
 11 12  1  0
 12 13  1  0
 13 17  1  0
 13 14  2  0
 15 10  1  0
 16 15  2  0
 19 18  1  0
 19 21  1  0
 20 19  2  0
 22 21  1  1
 22 23  1  0
 23 15  1  0
 24 25  1  0
 24 22  1  0
 26 24  2  0
M  END
$$$$
