DEN.pdb
     RDKit          3D

 26 25  0  0  1  0  0  0  0  0999 V2000
   17.6480  -10.4558  -16.6873 N   0  0  0  0  0  0  0  0  0  0  0  0
   18.2057  -10.7326  -15.4000 C   0  0  1  0  0  0  0  0  0  0  0  0
   19.7238  -10.6458  -15.4007 C   0  0  0  0  0  0  0  0  0  0  0  0
   20.2892  -11.7297  -16.2403 C   0  0  0  0  0  0  0  0  0  0  0  0
   19.5736  -12.7256  -16.5144 O   0  0  0  0  0  0  0  0  0  0  0  0
   17.6359   -9.8367  -14.3714 C   0  0  0  0  0  0  0  0  0  0  0  0
   17.5667   -8.5926  -14.6254 O   0  0  0  0  0  0  0  0  0  0  0  0
   21.5755  -11.7020  -16.7420 O   0  0  0  0  0  0  0  0  0  0  0  0
   17.1563  -10.2678  -13.1100 N   0  0  0  0  0  0  0  0  0  0  0  0
   16.5702   -9.3266  -12.2061 C   0  0  1  0  0  0  0  0  0  0  0  0
   15.4778   -9.8778  -11.3508 C   0  0  0  0  0  0  0  0  0  0  0  0
   14.7711   -8.9070  -10.4766 C   0  0  0  0  0  0  0  0  0  0  0  0
   13.6896   -9.6346   -9.7450 C   0  0  0  0  0  0  0  0  0  0  0  0
   13.5709  -10.8794   -9.8494 O   0  0  0  0  0  0  0  0  0  0  0  0
   17.5629   -8.6371  -11.3279 C   0  0  0  0  0  0  0  0  0  0  0  0
   18.4650   -9.3357  -10.7916 O   0  0  0  0  0  0  0  0  0  0  0  0
   12.7958   -8.9447   -8.9361 O   0  0  0  0  0  0  0  0  0  0  0  0
   20.5767   -5.1368   -9.2589 N   0  0  0  0  0  0  0  0  0  0  0  0
   20.7812   -5.6467  -10.5861 C   0  0  0  0  0  0  0  0  0  0  0  0
   21.8516   -5.3541  -11.1351 O   0  0  0  0  0  0  0  0  0  0  0  0
   19.6972   -6.4561  -11.1394 C   0  0  0  0  0  0  0  0  0  0  0  0
   18.4273   -6.4756  -10.3820 C   0  0  2  0  0  0  0  0  0  0  0  0
   17.4510   -7.2461  -11.1341 N   0  0  0  0  0  0  0  0  0  0  0  0
   17.8817   -5.1464  -10.0247 C   0  0  0  0  0  0  0  0  0  0  0  0
   18.1160   -4.4438   -8.8785 O   0  0  0  0  0  0  0  0  0  0  0  0
   17.1095   -4.5899  -10.8696 O   0  0  0  0  0  0  0  0  0  0  0  0
  2  1  1  6
  2  3  1  0
  3  4  1  0
  4  8  1  0
  5  4  2  0
  6  2  1  0
  6  7  2  0
  9  6  1  0
 10  9  1  0
 10 11  1  1
 11 12  1  0
 12 13  1  0
 13 17  1  0
 13 14  2  0
 15 10  1  0
 16 15  2  0
 19 18  1  0
 19 21  1  0
 20 19  2  0
 22 21  1  6
 22 23  1  0
 23 15  1  0
 24 25  1  0
 24 22  1  0
 26 24  2  0
M  END
$$$$
