DEN.pdb
     RDKit          3D

 26 25  0  0  1  0  0  0  0  0999 V2000
   14.3043  -11.8631  -11.2816 N   0  0  0  0  0  0  0  0  0  0  0  0
   14.3170  -10.7114  -12.1290 C   0  0  1  0  0  0  0  0  0  0  0  0
   13.7961   -9.4709  -11.4206 C   0  0  0  0  0  0  0  0  0  0  0  0
   12.3985   -9.6941  -10.9775 C   0  0  0  0  0  0  0  0  0  0  0  0
   11.6134  -10.3246  -11.7293 O   0  0  0  0  0  0  0  0  0  0  0  0
   15.6699  -10.4679  -12.6727 C   0  0  0  0  0  0  0  0  0  0  0  0
   16.6486  -10.4287  -11.8617 O   0  0  0  0  0  0  0  0  0  0  0  0
   11.9089   -9.2402   -9.7687 O   0  0  0  0  0  0  0  0  0  0  0  0
   15.9586  -10.2732  -14.0460 N   0  0  0  0  0  0  0  0  0  0  0  0
   17.3141  -10.1319  -14.4805 C   0  0  1  0  0  0  0  0  0  0  0  0
   17.6165  -10.7605  -15.8004 C   0  0  0  0  0  0  0  0  0  0  0  0
   17.4633  -12.2357  -15.8790 C   0  0  0  0  0  0  0  0  0  0  0  0
   17.7013  -12.6580  -17.2930 C   0  0  0  0  0  0  0  0  0  0  0  0
   18.8609  -12.9127  -17.6990 O   0  0  0  0  0  0  0  0  0  0  0  0
   17.7944   -8.7174  -14.5038 C   0  0  0  0  0  0  0  0  0  0  0  0
   16.9330   -7.8008  -14.5894 O   0  0  0  0  0  0  0  0  0  0  0  0
   16.6418  -12.7757  -18.1833 O   0  0  0  0  0  0  0  0  0  0  0  0
   22.7099   -5.7643  -13.2581 N   0  0  0  0  0  0  0  0  0  0  0  0
   21.2835   -5.6778  -13.1127 C   0  0  0  0  0  0  0  0  0  0  0  0
   20.8132   -4.5514  -12.9055 O   0  0  0  0  0  0  0  0  0  0  0  0
   20.5469   -6.9352  -13.2261 C   0  0  0  0  0  0  0  0  0  0  0  0
   19.7371   -7.1245  -14.4489 C   0  0  2  0  0  0  0  0  0  0  0  0
   19.1790   -8.4664  -14.4318 N   0  0  0  0  0  0  0  0  0  0  0  0
   20.4448   -6.8686  -15.7240 C   0  0  0  0  0  0  0  0  0  0  0  0
   20.7890   -5.6542  -16.2426 O   0  0  0  0  0  0  0  0  0  0  0  0
   20.7718   -7.8830  -16.4197 O   0  0  0  0  0  0  0  0  0  0  0  0
  2  1  1  1
  2  3  1  0
  3  4  1  0
  4  8  1  0
  5  4  2  0
  6  2  1  0
  6  7  2  0
  9  6  1  0
 10  9  1  0
 10 11  1  6
 11 12  1  0
 12 13  1  0
 13 17  1  0
 13 14  2  0
 15 10  1  0
 16 15  2  0
 19 18  1  0
 19 21  1  0
 20 19  2  0
 22 21  1  1
 22 23  1  0
 23 15  1  0
 24 25  1  0
 24 22  1  0
 26 24  2  0
M  END
$$$$
