DEN.pdb
     RDKit          3D

 26 25  0  0  1  0  0  0  0  0999 V2000
   18.1182  -12.8662  -16.8076 N   0  0  0  0  0  0  0  0  0  0  0  0
   17.8964  -11.6320  -16.1203 C   0  0  1  0  0  0  0  0  0  0  0  0
   17.3110  -11.8439  -14.7331 C   0  0  0  0  0  0  0  0  0  0  0  0
   15.8542  -12.1014  -14.8357 C   0  0  0  0  0  0  0  0  0  0  0  0
   15.2004  -11.5499  -15.7562 O   0  0  0  0  0  0  0  0  0  0  0  0
   19.1406  -10.8376  -16.0420 C   0  0  0  0  0  0  0  0  0  0  0  0
   19.4727  -10.3450  -14.9176 O   0  0  0  0  0  0  0  0  0  0  0  0
   15.1704  -12.9245  -13.9628 O   0  0  0  0  0  0  0  0  0  0  0  0
   19.9989  -10.5824  -17.1397 N   0  0  0  0  0  0  0  0  0  0  0  0
   21.1504   -9.7506  -16.9711 C   0  0  1  0  0  0  0  0  0  0  0  0
   22.1794   -9.8818  -18.0447 C   0  0  0  0  0  0  0  0  0  0  0  0
   23.4158   -9.0766  -17.8753 C   0  0  0  0  0  0  0  0  0  0  0  0
   24.2973   -9.3149  -19.0587 C   0  0  0  0  0  0  0  0  0  0  0  0
   23.8395   -9.8370  -20.1038 O   0  0  0  0  0  0  0  0  0  0  0  0
   20.8264   -8.3028  -16.7943 C   0  0  0  0  0  0  0  0  0  0  0  0
   20.1003   -7.7482  -17.6629 O   0  0  0  0  0  0  0  0  0  0  0  0
   25.6402   -8.9622  -19.0222 O   0  0  0  0  0  0  0  0  0  0  0  0
   20.1516   -3.6984  -14.7537 N   0  0  0  0  0  0  0  0  0  0  0  0
   19.1370   -4.6905  -14.9766 C   0  0  0  0  0  0  0  0  0  0  0  0
   17.9630   -4.3295  -14.8210 O   0  0  0  0  0  0  0  0  0  0  0  0
   19.6086   -6.0189  -15.3631 C   0  0  0  0  0  0  0  0  0  0  0  0
   21.0732   -6.2159  -15.4166 C   0  0  2  0  0  0  0  0  0  0  0  0
   21.3425   -7.6207  -15.6747 N   0  0  0  0  0  0  0  0  0  0  0  0
   21.8195   -5.7507  -14.2255 C   0  0  0  0  0  0  0  0  0  0  0  0
   22.6486   -6.4920  -13.4348 O   0  0  0  0  0  0  0  0  0  0  0  0
   21.6798   -4.5299  -13.8936 O   0  0  0  0  0  0  0  0  0  0  0  0
  2  1  1  1
  2  3  1  0
  3  4  1  0
  4  8  1  0
  5  4  2  0
  6  2  1  0
  6  7  2  0
  9  6  1  0
 10  9  1  0
 10 11  1  6
 11 12  1  0
 12 13  1  0
 13 17  1  0
 13 14  2  0
 15 10  1  0
 16 15  2  0
 19 18  1  0
 19 21  1  0
 20 19  2  0
 22 21  1  1
 22 23  1  0
 23 15  1  0
 24 25  1  0
 24 22  1  0
 26 24  2  0
M  END
$$$$
