DEN.pdb
     RDKit          3D

 26 25  0  0  1  0  0  0  0  0999 V2000
   16.1433  -11.9581  -15.1134 N   0  0  0  0  0  0  0  0  0  0  0  0
   16.4897  -10.6681  -15.6238 C   0  0  1  0  0  0  0  0  0  0  0  0
   15.4402   -9.6186  -15.2935 C   0  0  0  0  0  0  0  0  0  0  0  0
   14.2024   -9.8844  -16.0658 C   0  0  0  0  0  0  0  0  0  0  0  0
   14.2971  -10.3517  -17.2284 O   0  0  0  0  0  0  0  0  0  0  0  0
   17.8188  -10.2437  -15.1350 C   0  0  0  0  0  0  0  0  0  0  0  0
   18.0152  -10.2016  -13.8793 O   0  0  0  0  0  0  0  0  0  0  0  0
   12.9368   -9.6425  -15.5690 O   0  0  0  0  0  0  0  0  0  0  0  0
   18.9009   -9.8767  -15.9724 N   0  0  0  0  0  0  0  0  0  0  0  0
   20.1260   -9.4120  -15.3983 C   0  0  1  0  0  0  0  0  0  0  0  0
   21.3401  -10.1754  -15.8129 C   0  0  0  0  0  0  0  0  0  0  0  0
   21.3183  -10.7579  -17.1790 C   0  0  0  0  0  0  0  0  0  0  0  0
   22.6440  -11.3980  -17.4378 C   0  0  0  0  0  0  0  0  0  0  0  0
   22.7865  -12.6405  -17.3353 O   0  0  0  0  0  0  0  0  0  0  0  0
   20.3792   -7.9560  -15.6175 C   0  0  0  0  0  0  0  0  0  0  0  0
   19.9971   -7.4456  -16.7050 O   0  0  0  0  0  0  0  0  0  0  0  0
   23.7428  -10.6279  -17.7965 O   0  0  0  0  0  0  0  0  0  0  0  0
   20.3993   -2.9502  -16.0838 N   0  0  0  0  0  0  0  0  0  0  0  0
   20.0696   -3.6225  -14.8579 C   0  0  0  0  0  0  0  0  0  0  0  0
   19.8556   -2.9059  -13.8713 O   0  0  0  0  0  0  0  0  0  0  0  0
   20.0245   -5.0823  -14.9157 C   0  0  0  0  0  0  0  0  0  0  0  0
   21.3060   -5.7960  -14.7286 C   0  0  2  0  0  0  0  0  0  0  0  0
   21.0311   -7.2183  -14.6095 N   0  0  0  0  0  0  0  0  0  0  0  0
   22.1335   -5.3265  -13.5942 C   0  0  0  0  0  0  0  0  0  0  0  0
   22.8548   -4.1700  -13.5275 O   0  0  0  0  0  0  0  0  0  0  0  0
   22.1856   -6.0741  -12.5655 O   0  0  0  0  0  0  0  0  0  0  0  0
  2  1  1  1
  2  3  1  0
  3  4  1  0
  4  8  1  0
  5  4  2  0
  6  2  1  0
  6  7  2  0
  9  6  1  0
 10  9  1  0
 10 11  1  6
 11 12  1  0
 12 13  1  0
 13 17  1  0
 13 14  2  0
 15 10  1  0
 16 15  2  0
 19 18  1  0
 19 21  1  0
 20 19  2  0
 22 21  1  1
 22 23  1  0
 23 15  1  0
 24 25  1  0
 24 22  1  0
 26 24  2  0
M  END
$$$$
