DEN.pdb
     RDKit          3D

 26 25  0  0  1  0  0  0  0  0999 V2000
   15.4595  -10.0004  -15.7846 N   0  0  0  0  0  0  0  0  0  0  0  0
   16.4571  -10.1665  -14.7737 C   0  0  1  0  0  0  0  0  0  0  0  0
   17.5313  -11.1611  -15.1844 C   0  0  0  0  0  0  0  0  0  0  0  0
   16.9930  -12.5411  -15.1129 C   0  0  0  0  0  0  0  0  0  0  0  0
   15.8841  -12.7354  -14.5546 O   0  0  0  0  0  0  0  0  0  0  0  0
   17.0643   -8.8688  -14.4095 C   0  0  0  0  0  0  0  0  0  0  0  0
   17.0391   -7.9288  -15.2656 O   0  0  0  0  0  0  0  0  0  0  0  0
   17.6539  -13.6364  -15.6331 O   0  0  0  0  0  0  0  0  0  0  0  0
   17.6785   -8.5931  -13.1630 N   0  0  0  0  0  0  0  0  0  0  0  0
   18.2331   -7.2995  -12.9077 C   0  0  1  0  0  0  0  0  0  0  0  0
   18.1306   -6.8438  -11.4898 C   0  0  0  0  0  0  0  0  0  0  0  0
   16.7817   -6.4301  -11.0259 C   0  0  0  0  0  0  0  0  0  0  0  0
   16.8879   -5.9975   -9.5990 C   0  0  0  0  0  0  0  0  0  0  0  0
   16.6596   -4.8080   -9.2714 O   0  0  0  0  0  0  0  0  0  0  0  0
   19.6511   -7.1536  -13.3551 C   0  0  0  0  0  0  0  0  0  0  0  0
   20.3276   -8.2028  -13.5307 O   0  0  0  0  0  0  0  0  0  0  0  0
   17.2419   -6.9058   -8.6096 O   0  0  0  0  0  0  0  0  0  0  0  0
   23.8595   -5.4581  -15.5445 N   0  0  0  0  0  0  0  0  0  0  0  0
   22.8253   -6.2424  -16.1599 C   0  0  0  0  0  0  0  0  0  0  0  0
   23.0704   -6.7022  -17.2830 O   0  0  0  0  0  0  0  0  0  0  0  0
   21.5963   -6.4086  -15.3865 C   0  0  0  0  0  0  0  0  0  0  0  0
   21.4833   -5.6228  -14.1389 C   0  0  2  0  0  0  0  0  0  0  0  0
   20.1719   -5.8603  -13.5590 N   0  0  0  0  0  0  0  0  0  0  0  0
   21.7381   -4.1710  -14.2787 C   0  0  0  0  0  0  0  0  0  0  0  0
   22.8546   -3.4919  -13.8856 O   0  0  0  0  0  0  0  0  0  0  0  0
   20.8243   -3.4712  -14.8219 O   0  0  0  0  0  0  0  0  0  0  0  0
  2  1  1  6
  2  3  1  0
  3  4  1  0
  4  8  1  0
  5  4  2  0
  6  2  1  0
  6  7  2  0
  9  6  1  0
 10  9  1  0
 10 11  1  1
 11 12  1  0
 12 13  1  0
 13 17  1  0
 13 14  2  0
 15 10  1  0
 16 15  2  0
 19 18  1  0
 19 21  1  0
 20 19  2  0
 22 21  1  6
 22 23  1  0
 23 15  1  0
 24 25  1  0
 24 22  1  0
 26 24  2  0
M  END
$$$$
