DEN.pdb
     RDKit          3D

 26 25  0  0  1  0  0  0  0  0999 V2000
   22.8471  -21.8348  -13.8940 N   0  0  0  0  0  0  0  0  0  0  0  0
   22.1459  -20.6188  -14.1667 C   0  0  1  0  0  0  0  0  0  0  0  0
   21.5927  -19.9788  -12.9032 C   0  0  0  0  0  0  0  0  0  0  0  0
   20.7290  -20.9472  -12.1853 C   0  0  0  0  0  0  0  0  0  0  0  0
   21.0330  -21.2841  -11.0135 O   0  0  0  0  0  0  0  0  0  0  0  0
   23.0051  -19.6637  -14.8980 C   0  0  0  0  0  0  0  0  0  0  0  0
   22.6880  -18.4323  -14.8828 O   0  0  0  0  0  0  0  0  0  0  0  0
   19.5955  -21.5049  -12.7433 O   0  0  0  0  0  0  0  0  0  0  0  0
   24.1681  -20.0241  -15.6222 N   0  0  0  0  0  0  0  0  0  0  0  0
   25.0168  -19.0093  -16.1664 C   0  0  1  0  0  0  0  0  0  0  0  0
   26.4663  -19.3639  -16.2111 C   0  0  0  0  0  0  0  0  0  0  0  0
   26.9568  -20.2702  -15.1415 C   0  0  0  0  0  0  0  0  0  0  0  0
   27.6899  -21.4027  -15.7852 C   0  0  0  0  0  0  0  0  0  0  0  0
   28.1005  -22.3713  -15.1012 O   0  0  0  0  0  0  0  0  0  0  0  0
   24.5985  -18.5374  -17.5209 C   0  0  0  0  0  0  0  0  0  0  0  0
   24.2954  -19.4059  -18.3830 O   0  0  0  0  0  0  0  0  0  0  0  0
   27.9300  -21.4026  -17.1532 O   0  0  0  0  0  0  0  0  0  0  0  0
   23.0795  -15.1886  -21.1873 N   0  0  0  0  0  0  0  0  0  0  0  0
   23.1050  -14.4764  -19.9401 C   0  0  0  0  0  0  0  0  0  0  0  0
   22.7130  -13.3023  -19.9623 O   0  0  0  0  0  0  0  0  0  0  0  0
   23.5931  -15.2227  -18.7820 C   0  0  0  0  0  0  0  0  0  0  0  0
   24.0741  -16.5987  -19.0311 C   0  0  2  0  0  0  0  0  0  0  0  0
   24.5618  -17.1528  -17.7790 N   0  0  0  0  0  0  0  0  0  0  0  0
   25.0960  -16.7304  -20.0944 C   0  0  0  0  0  0  0  0  0  0  0  0
   26.4243  -16.4332  -19.9979 O   0  0  0  0  0  0  0  0  0  0  0  0
   24.7046  -17.1663  -21.2243 O   0  0  0  0  0  0  0  0  0  0  0  0
  2  1  1  1
  2  3  1  0
  3  4  1  0
  4  8  1  0
  5  4  2  0
  6  2  1  0
  6  7  2  0
  9  6  1  0
 10  9  1  0
 10 11  1  6
 11 12  1  0
 12 13  1  0
 13 17  1  0
 13 14  2  0
 15 10  1  0
 16 15  2  0
 19 18  1  0
 19 21  1  0
 20 19  2  0
 22 21  1  1
 22 23  1  0
 23 15  1  0
 24 25  1  0
 24 22  1  0
 26 24  2  0
M  END
$$$$
