DEN.pdb
     RDKit          3D

 26 25  0  0  1  0  0  0  0  0999 V2000
   15.5118  -10.8013  -15.2075 N   0  0  0  0  0  0  0  0  0  0  0  0
   16.6982  -10.7855  -14.4094 C   0  0  1  0  0  0  0  0  0  0  0  0
   17.8522  -11.5132  -15.0807 C   0  0  0  0  0  0  0  0  0  0  0  0
   17.6728  -12.9786  -14.9400 C   0  0  0  0  0  0  0  0  0  0  0  0
   18.5353  -13.7489  -15.4317 O   0  0  0  0  0  0  0  0  0  0  0  0
   17.0879   -9.4015  -14.0659 C   0  0  0  0  0  0  0  0  0  0  0  0
   16.9672   -8.5016  -14.9562 O   0  0  0  0  0  0  0  0  0  0  0  0
   16.5955  -13.5476  -14.2898 O   0  0  0  0  0  0  0  0  0  0  0  0
   17.5914   -9.0006  -12.8038 N   0  0  0  0  0  0  0  0  0  0  0  0
   17.9857   -7.6425  -12.5879 C   0  0  1  0  0  0  0  0  0  0  0  0
   17.7587   -7.1384  -11.2012 C   0  0  0  0  0  0  0  0  0  0  0  0
   18.0038   -5.6907  -10.9774 C   0  0  0  0  0  0  0  0  0  0  0  0
   17.6805   -5.3743   -9.5527 C   0  0  0  0  0  0  0  0  0  0  0  0
   17.3965   -6.2889   -8.7419 O   0  0  0  0  0  0  0  0  0  0  0  0
   19.4006   -7.3580  -12.9741 C   0  0  0  0  0  0  0  0  0  0  0  0
   20.2854   -8.1900  -12.6363 O   0  0  0  0  0  0  0  0  0  0  0  0
   17.6885   -4.0610   -9.1009 O   0  0  0  0  0  0  0  0  0  0  0  0
   23.2714   -5.0849  -15.5905 N   0  0  0  0  0  0  0  0  0  0  0  0
   22.0576   -5.0740  -16.3587 C   0  0  0  0  0  0  0  0  0  0  0  0
   22.1520   -4.7222  -17.5420 O   0  0  0  0  0  0  0  0  0  0  0  0
   20.8445   -5.4813  -15.6525 C   0  0  0  0  0  0  0  0  0  0  0  0
   21.0024   -5.8941  -14.2413 C   0  0  2  0  0  0  0  0  0  0  0  0
   19.6874   -6.1802  -13.6924 N   0  0  0  0  0  0  0  0  0  0  0  0
   21.7324   -4.9375  -13.3787 C   0  0  0  0  0  0  0  0  0  0  0  0
   21.3449   -3.6726  -13.0443 O   0  0  0  0  0  0  0  0  0  0  0  0
   22.8423   -5.3258  -12.8915 O   0  0  0  0  0  0  0  0  0  0  0  0
  2  1  1  6
  2  3  1  0
  3  4  1  0
  4  8  1  0
  5  4  2  0
  6  2  1  0
  6  7  2  0
  9  6  1  0
 10  9  1  0
 10 11  1  1
 11 12  1  0
 12 13  1  0
 13 17  1  0
 13 14  2  0
 15 10  1  0
 16 15  2  0
 19 18  1  0
 19 21  1  0
 20 19  2  0
 22 21  1  6
 22 23  1  0
 23 15  1  0
 24 25  1  0
 24 22  1  0
 26 24  2  0
M  END
$$$$
