GAQ.pdb
     RDKit          3D

 19 18  0  0  1  0  0  0  0  0999 V2000
   16.0272  -14.9501  -17.0513 N   0  0  0  0  0  0  0  0  0  0  0  0
   15.9130  -13.6872  -17.7054 C   0  0  0  0  0  0  0  0  0  0  0  0
   17.2532  -13.0090  -17.7815 C   0  0  0  0  0  0  0  0  0  0  0  0
   18.0964  -13.0940  -16.8595 O   0  0  0  0  0  0  0  0  0  0  0  0
   19.2528  -11.1792  -20.4253 C   0  0  0  0  0  0  0  0  0  0  0  0
   18.8743  -11.5365  -19.0272 C   0  0  2  0  0  0  0  0  0  0  0  0
   17.6200  -12.2352  -18.9170 N   0  0  0  0  0  0  0  0  0  0  0  0
   18.9328  -10.3647  -18.1034 C   0  0  0  0  0  0  0  0  0  0  0  0
   17.8674   -9.7813  -17.7402 O   0  0  0  0  0  0  0  0  0  0  0  0
   23.2575   -9.5633  -13.8255 N   0  0  0  0  0  0  0  0  0  0  0  0
   22.2708   -8.5928  -13.5113 C   0  0  0  0  0  0  0  0  0  0  0  0
   22.1553   -8.2313  -12.3181 O   0  0  0  0  0  0  0  0  0  0  0  0
   21.4094   -8.0342  -14.5839 C   0  0  0  0  0  0  0  0  0  0  0  0
   21.1026   -9.1311  -15.5474 C   0  0  0  0  0  0  0  0  0  0  0  0
   20.2336   -8.7055  -16.7093 C   0  0  2  0  0  0  0  0  0  0  0  0
   20.1697   -9.8727  -17.6083 N   0  0  0  0  0  0  0  0  0  0  0  0
   20.7382   -7.5252  -17.4236 C   0  0  0  0  0  0  0  0  0  0  0  0
   20.5770   -6.2516  -16.9219 O   0  0  0  0  0  0  0  0  0  0  0  0
   21.3319   -7.6665  -18.5190 O   0  0  0  0  0  0  0  0  0  0  0  0
  2  1  1  0
  3  7  1  0
  3  2  1  0
  4  3  2  0
  6  5  1  6
  6  8  1  0
  6  7  1  0
  8  9  2  0
 10 11  1  0
 11 13  1  0
 11 12  2  0
 13 14  1  0
 15 14  1  1
 16 15  1  0
 16  8  1  0
 17 15  1  0
 17 18  1  0
 19 17  2  0
M  END
$$$$
