GAQ.pdb
     RDKit          3D

 19 18  0  0  1  0  0  0  0  0999 V2000
   15.3461  -12.9740  -15.1119 N   0  0  0  0  0  0  0  0  0  0  0  0
   15.2937  -11.5497  -15.0447 C   0  0  0  0  0  0  0  0  0  0  0  0
   16.5502  -10.9478  -15.6110 C   0  0  0  0  0  0  0  0  0  0  0  0
   17.6420  -11.5611  -15.6100 O   0  0  0  0  0  0  0  0  0  0  0  0
   17.4103   -7.8299  -17.5998 C   0  0  0  0  0  0  0  0  0  0  0  0
   17.7084   -9.0386  -16.7778 C   0  0  2  0  0  0  0  0  0  0  0  0
   16.5478   -9.6429  -16.1766 N   0  0  0  0  0  0  0  0  0  0  0  0
   18.7830   -8.7923  -15.7704 C   0  0  0  0  0  0  0  0  0  0  0  0
   18.4848   -8.4640  -14.5827 O   0  0  0  0  0  0  0  0  0  0  0  0
   24.5405  -10.6994  -16.6443 N   0  0  0  0  0  0  0  0  0  0  0  0
   24.7578  -10.0197  -15.4174 C   0  0  0  0  0  0  0  0  0  0  0  0
   25.8962  -10.0824  -14.8999 O   0  0  0  0  0  0  0  0  0  0  0  0
   23.6511   -9.2607  -14.7820 C   0  0  0  0  0  0  0  0  0  0  0  0
   22.4414   -9.4005  -15.6437 C   0  0  0  0  0  0  0  0  0  0  0  0
   21.2214   -8.6810  -15.1144 C   0  0  2  0  0  0  0  0  0  0  0  0
   20.1570   -8.9169  -16.1075 N   0  0  0  0  0  0  0  0  0  0  0  0
   21.4284   -7.2418  -14.9051 C   0  0  0  0  0  0  0  0  0  0  0  0
   21.2272   -6.3269  -15.9162 O   0  0  0  0  0  0  0  0  0  0  0  0
   21.7980   -6.8222  -13.7828 O   0  0  0  0  0  0  0  0  0  0  0  0
  2  1  1  0
  3  7  1  0
  3  2  1  0
  4  3  2  0
  6  5  1  1
  6  8  1  0
  6  7  1  0
  8  9  2  0
 10 11  1  0
 11 13  1  0
 11 12  2  0
 13 14  1  0
 15 14  1  6
 16 15  1  0
 16  8  1  0
 17 15  1  0
 17 18  1  0
 19 17  2  0
M  END
$$$$
