GAQ.pdb
     RDKit          3D

 19 18  0  0  1  0  0  0  0  0999 V2000
   23.1754  -13.2444  -20.0847 N   0  0  0  0  0  0  0  0  0  0  0  0
   23.8960  -12.0938  -19.6458 C   0  0  0  0  0  0  0  0  0  0  0  0
   23.3108  -11.5604  -18.3671 C   0  0  0  0  0  0  0  0  0  0  0  0
   22.0940  -11.2865  -18.2544 O   0  0  0  0  0  0  0  0  0  0  0  0
   24.5722  -10.8653  -14.8497 C   0  0  0  0  0  0  0  0  0  0  0  0
   23.6416  -10.7381  -16.0087 C   0  0  2  0  0  0  0  0  0  0  0  0
   24.1260  -11.3435  -17.2221 N   0  0  0  0  0  0  0  0  0  0  0  0
   23.2027   -9.3288  -16.2357 C   0  0  0  0  0  0  0  0  0  0  0  0
   23.8542   -8.5730  -17.0179 O   0  0  0  0  0  0  0  0  0  0  0  0
   18.2327   -7.6712  -18.1997 N   0  0  0  0  0  0  0  0  0  0  0  0
   18.5658   -6.3611  -17.7674 C   0  0  0  0  0  0  0  0  0  0  0  0
   17.8497   -5.4101  -18.1555 O   0  0  0  0  0  0  0  0  0  0  0  0
   19.7359   -6.1463  -16.8791 C   0  0  0  0  0  0  0  0  0  0  0  0
   20.3975   -7.4654  -16.6604 C   0  0  0  0  0  0  0  0  0  0  0  0
   21.6327   -7.3986  -15.7910 C   0  0  2  0  0  0  0  0  0  0  0  0
   22.0551   -8.7972  -15.5898 N   0  0  0  0  0  0  0  0  0  0  0  0
   21.4124   -6.7307  -14.5013 C   0  0  0  0  0  0  0  0  0  0  0  0
   21.5323   -5.3645  -14.3637 O   0  0  0  0  0  0  0  0  0  0  0  0
   21.1075   -7.4096  -13.4920 O   0  0  0  0  0  0  0  0  0  0  0  0
  2  1  1  0
  3  7  1  0
  3  2  1  0
  4  3  2  0
  6  5  1  1
  6  8  1  0
  6  7  1  0
  8  9  2  0
 10 11  1  0
 11 13  1  0
 11 12  2  0
 13 14  1  0
 15 14  1  6
 16 15  1  0
 16  8  1  0
 17 15  1  0
 17 18  1  0
 19 17  2  0
M  END
$$$$
