GAQ.pdb
     RDKit          3D

 19 18  0  0  1  0  0  0  0  0999 V2000
   18.2284  -14.7864  -15.6038 N   0  0  0  0  0  0  0  0  0  0  0  0
   17.5683  -13.6670  -16.1929 C   0  0  0  0  0  0  0  0  0  0  0  0
   18.5023  -12.4919  -16.2853 C   0  0  0  0  0  0  0  0  0  0  0  0
   19.6217  -12.4846  -15.7239 O   0  0  0  0  0  0  0  0  0  0  0  0
   18.7180   -9.3650  -18.3913 C   0  0  0  0  0  0  0  0  0  0  0  0
   19.0257  -10.2014  -17.1949 C   0  0  2  0  0  0  0  0  0  0  0  0
   18.1468  -11.3289  -17.0228 N   0  0  0  0  0  0  0  0  0  0  0  0
   19.1309   -9.3915  -15.9446 C   0  0  0  0  0  0  0  0  0  0  0  0
   18.1806   -9.3824  -15.1054 O   0  0  0  0  0  0  0  0  0  0  0  0
   22.2761   -5.3513  -12.8731 N   0  0  0  0  0  0  0  0  0  0  0  0
   22.6856   -5.3615  -14.2320 C   0  0  0  0  0  0  0  0  0  0  0  0
   23.2018   -4.3221  -14.7020 O   0  0  0  0  0  0  0  0  0  0  0  0
   22.4977   -6.5822  -15.0559 C   0  0  0  0  0  0  0  0  0  0  0  0
   21.8813   -7.6312  -14.1926 C   0  0  0  0  0  0  0  0  0  0  0  0
   20.3990   -7.8239  -14.4205 C   0  0  2  0  0  0  0  0  0  0  0  0
   20.2854   -8.6150  -15.6598 N   0  0  0  0  0  0  0  0  0  0  0  0
   19.6501   -6.5655  -14.5358 C   0  0  0  0  0  0  0  0  0  0  0  0
   19.2212   -5.8737  -13.4233 O   0  0  0  0  0  0  0  0  0  0  0  0
   19.3874   -6.0983  -15.6693 O   0  0  0  0  0  0  0  0  0  0  0  0
  2  1  1  0
  3  7  1  0
  3  2  1  0
  4  3  2  0
  6  5  1  6
  6  8  1  0
  6  7  1  0
  8  9  2  0
 10 11  1  0
 11 13  1  0
 11 12  2  0
 13 14  1  0
 15 14  1  6
 16 15  1  0
 16  8  1  0
 17 15  1  0
 17 18  1  0
 19 17  2  0
M  END
$$$$
