GAQ.pdb
     RDKit          3D

 19 18  0  0  1  0  0  0  0  0999 V2000
   17.6610  -14.7758  -15.5064 N   0  0  0  0  0  0  0  0  0  0  0  0
   16.6488  -13.8175  -15.2010 C   0  0  0  0  0  0  0  0  0  0  0  0
   16.9208  -12.5186  -15.9086 C   0  0  0  0  0  0  0  0  0  0  0  0
   18.0426  -12.2464  -16.3941 O   0  0  0  0  0  0  0  0  0  0  0  0
   14.8423   -9.6295  -17.1935 C   0  0  0  0  0  0  0  0  0  0  0  0
   16.1028  -10.2848  -16.7385 C   0  0  2  0  0  0  0  0  0  0  0  0
   15.9025  -11.5367  -16.0558 N   0  0  0  0  0  0  0  0  0  0  0  0
   16.9725   -9.3623  -15.9494 C   0  0  0  0  0  0  0  0  0  0  0  0
   16.9059   -9.3452  -14.6835 O   0  0  0  0  0  0  0  0  0  0  0  0
   21.5319   -7.4154  -14.1935 N   0  0  0  0  0  0  0  0  0  0  0  0
   21.6102   -8.6769  -14.8393 C   0  0  0  0  0  0  0  0  0  0  0  0
   22.3218   -9.5653  -14.3177 O   0  0  0  0  0  0  0  0  0  0  0  0
   20.8605   -8.9152  -16.0985 C   0  0  0  0  0  0  0  0  0  0  0  0
   20.1211   -7.6650  -16.4389 C   0  0  0  0  0  0  0  0  0  0  0  0
   18.7493   -7.5700  -15.8102 C   0  0  2  0  0  0  0  0  0  0  0  0
   17.8910   -8.4852  -16.5852 N   0  0  0  0  0  0  0  0  0  0  0  0
   18.1926   -6.2106  -15.8086 C   0  0  0  0  0  0  0  0  0  0  0  0
   18.6131   -5.2571  -14.9063 O   0  0  0  0  0  0  0  0  0  0  0  0
   17.3115   -5.8970  -16.6439 O   0  0  0  0  0  0  0  0  0  0  0  0
  2  1  1  0
  3  7  1  0
  3  2  1  0
  4  3  2  0
  6  5  1  1
  6  8  1  0
  6  7  1  0
  8  9  2  0
 10 11  1  0
 11 13  1  0
 11 12  2  0
 13 14  1  0
 15 14  1  6
 16 15  1  0
 16  8  1  0
 17 15  1  0
 17 18  1  0
 19 17  2  0
M  END
$$$$
