GAQ.pdb
     RDKit          3D

 19 18  0  0  1  0  0  0  0  0999 V2000
   26.6648  -21.2628  -10.9369 N   0  0  0  0  0  0  0  0  0  0  0  0
   27.2815  -20.9881  -12.1939 C   0  0  0  0  0  0  0  0  0  0  0  0
   26.4998  -19.9491  -12.9497 C   0  0  0  0  0  0  0  0  0  0  0  0
   25.3262  -19.6416  -12.6392 O   0  0  0  0  0  0  0  0  0  0  0  0
   27.2554  -17.3786  -15.6272 C   0  0  0  0  0  0  0  0  0  0  0  0
   26.3680  -18.2620  -14.8163 C   0  0  2  0  0  0  0  0  0  0  0  0
   27.0694  -19.2667  -14.0599 N   0  0  0  0  0  0  0  0  0  0  0  0
   25.2620  -18.8562  -15.6248 C   0  0  0  0  0  0  0  0  0  0  0  0
   25.4506  -19.9243  -16.2812 O   0  0  0  0  0  0  0  0  0  0  0  0
   20.7067  -21.9150  -13.1761 N   0  0  0  0  0  0  0  0  0  0  0  0
   20.8154  -20.7091  -13.9165 C   0  0  0  0  0  0  0  0  0  0  0  0
   19.9257  -19.8408  -13.7669 O   0  0  0  0  0  0  0  0  0  0  0  0
   21.9613  -20.5031  -14.8379 C   0  0  0  0  0  0  0  0  0  0  0  0
   21.7929  -19.1738  -15.4937 C   0  0  0  0  0  0  0  0  0  0  0  0
   22.8845  -18.8318  -16.4824 C   0  0  2  0  0  0  0  0  0  0  0  0
   23.9788  -18.2502  -15.6831 N   0  0  0  0  0  0  0  0  0  0  0  0
   22.4577  -17.9010  -17.5357 C   0  0  0  0  0  0  0  0  0  0  0  0
   22.4068  -18.2803  -18.8599 O   0  0  0  0  0  0  0  0  0  0  0  0
   22.1294  -16.7286  -17.2357 O   0  0  0  0  0  0  0  0  0  0  0  0
  2  1  1  0
  3  7  1  0
  3  2  1  0
  4  3  2  0
  6  5  1  6
  6  8  1  0
  6  7  1  0
  8  9  2  0
 10 11  1  0
 11 13  1  0
 11 12  2  0
 13 14  1  0
 15 14  1  1
 16 15  1  0
 16  8  1  0
 17 15  1  0
 17 18  1  0
 19 17  2  0
M  END
$$$$
