GAQ.pdb
     RDKit          3D

 19 18  0  0  1  0  0  0  0  0999 V2000
   19.3343  -13.2824  -16.0407 N   0  0  0  0  0  0  0  0  0  0  0  0
   18.5639  -12.2712  -15.3928 C   0  0  0  0  0  0  0  0  0  0  0  0
   19.4067  -11.0539  -15.1279 C   0  0  0  0  0  0  0  0  0  0  0  0
   18.9644  -10.0589  -14.5093 O   0  0  0  0  0  0  0  0  0  0  0  0
   23.0482  -10.0912  -15.5654 C   0  0  0  0  0  0  0  0  0  0  0  0
   21.5903   -9.8255  -15.3930 C   0  0  2  0  0  0  0  0  0  0  0  0
   20.7550  -10.9843  -15.5749 N   0  0  0  0  0  0  0  0  0  0  0  0
   21.1189   -8.6740  -16.2187 C   0  0  0  0  0  0  0  0  0  0  0  0
   20.4875   -8.8765  -17.2994 O   0  0  0  0  0  0  0  0  0  0  0  0
   20.1197   -1.3290  -15.7599 N   0  0  0  0  0  0  0  0  0  0  0  0
   20.4711   -2.6536  -15.3909 C   0  0  0  0  0  0  0  0  0  0  0  0
   20.7106   -2.8878  -14.1845 O   0  0  0  0  0  0  0  0  0  0  0  0
   20.5468   -3.7177  -16.4236 C   0  0  0  0  0  0  0  0  0  0  0  0
   20.8778   -5.0016  -15.7397 C   0  0  0  0  0  0  0  0  0  0  0  0
   20.9559   -6.1921  -16.6686 C   0  0  2  0  0  0  0  0  0  0  0  0
   21.3604   -7.3313  -15.8239 N   0  0  0  0  0  0  0  0  0  0  0  0
   21.8952   -6.0114  -17.7834 C   0  0  0  0  0  0  0  0  0  0  0  0
   21.5131   -5.4056  -18.9611 O   0  0  0  0  0  0  0  0  0  0  0  0
   23.0775   -6.4147  -17.6738 O   0  0  0  0  0  0  0  0  0  0  0  0
  2  1  1  0
  3  7  1  0
  3  2  1  0
  4  3  2  0
  6  5  1  6
  6  8  1  0
  6  7  1  0
  8  9  2  0
 10 11  1  0
 11 13  1  0
 11 12  2  0
 13 14  1  0
 15 14  1  1
 16 15  1  0
 16  8  1  0
 17 15  1  0
 17 18  1  0
 19 17  2  0
M  END
$$$$
