GAQ.pdb
     RDKit          3D

 19 18  0  0  1  0  0  0  0  0999 V2000
   16.0985  -13.0738  -14.6438 N   0  0  0  0  0  0  0  0  0  0  0  0
   16.5206  -11.8444  -15.2324 C   0  0  0  0  0  0  0  0  0  0  0  0
   16.9611  -10.8745  -14.1707 C   0  0  0  0  0  0  0  0  0  0  0  0
   16.4844  -10.8922  -13.0128 O   0  0  0  0  0  0  0  0  0  0  0  0
   19.6740   -8.2459  -13.8247 C   0  0  0  0  0  0  0  0  0  0  0  0
   18.3926   -8.9229  -13.4708 C   0  0  2  0  0  0  0  0  0  0  0  0
   17.9480   -9.8875  -14.4432 N   0  0  0  0  0  0  0  0  0  0  0  0
   17.3111   -7.9526  -13.1260 C   0  0  0  0  0  0  0  0  0  0  0  0
   16.4980   -7.5571  -14.0148 O   0  0  0  0  0  0  0  0  0  0  0  0
   15.3928   -7.1188   -7.4065 N   0  0  0  0  0  0  0  0  0  0  0  0
   14.3285   -7.4776   -8.2741 C   0  0  0  0  0  0  0  0  0  0  0  0
   13.2858   -7.9505   -7.7671 O   0  0  0  0  0  0  0  0  0  0  0  0
   14.4686   -7.2889   -9.7401 C   0  0  0  0  0  0  0  0  0  0  0  0
   15.8084   -6.6873  -10.0019 C   0  0  0  0  0  0  0  0  0  0  0  0
   16.1108   -6.4705  -11.4674 C   0  0  2  0  0  0  0  0  0  0  0  0
   17.1613   -7.4482  -11.8069 N   0  0  0  0  0  0  0  0  0  0  0  0
   16.5484   -5.1047  -11.7849 C   0  0  0  0  0  0  0  0  0  0  0  0
   15.6464   -4.1072  -12.0868 O   0  0  0  0  0  0  0  0  0  0  0  0
   17.7711   -4.8264  -11.7854 O   0  0  0  0  0  0  0  0  0  0  0  0
  2  1  1  0
  3  7  1  0
  3  2  1  0
  4  3  2  0
  6  5  1  6
  6  8  1  0
  6  7  1  0
  8  9  2  0
 10 11  1  0
 11 13  1  0
 11 12  2  0
 13 14  1  0
 15 14  1  1
 16 15  1  0
 16  8  1  0
 17 15  1  0
 17 18  1  0
 19 17  2  0
M  END
$$$$
