GAQ.pdb
     RDKit          3D

 19 18  0  0  1  0  0  0  0  0999 V2000
   17.2428  -12.9043  -15.7055 N   0  0  0  0  0  0  0  0  0  0  0  0
   16.9113  -11.5517  -15.3949 C   0  0  0  0  0  0  0  0  0  0  0  0
   17.7029  -10.6036  -16.2531 C   0  0  0  0  0  0  0  0  0  0  0  0
   18.4336  -11.0032  -17.1883 O   0  0  0  0  0  0  0  0  0  0  0  0
   17.3568   -7.8740  -18.0861 C   0  0  0  0  0  0  0  0  0  0  0  0
   18.2318   -8.2361  -16.9334 C   0  0  2  0  0  0  0  0  0  0  0  0
   17.6520   -9.1994  -16.0337 N   0  0  0  0  0  0  0  0  0  0  0  0
   18.7368   -7.0362  -16.2017 C   0  0  0  0  0  0  0  0  0  0  0  0
   18.1337   -6.6145  -15.1693 O   0  0  0  0  0  0  0  0  0  0  0  0
   22.1004   -7.3189  -13.2386 N   0  0  0  0  0  0  0  0  0  0  0  0
   22.4456   -6.1861  -14.0207 C   0  0  0  0  0  0  0  0  0  0  0  0
   22.6548   -5.1015  -13.4310 O   0  0  0  0  0  0  0  0  0  0  0  0
   22.5504   -6.3058  -15.4969 C   0  0  0  0  0  0  0  0  0  0  0  0
   21.8733   -5.1237  -16.1049 C   0  0  0  0  0  0  0  0  0  0  0  0
   20.3699   -5.1244  -15.9440 C   0  0  2  0  0  0  0  0  0  0  0  0
   19.8953   -6.3379  -16.6345 N   0  0  0  0  0  0  0  0  0  0  0  0
   19.7166   -3.9266  -16.4883 C   0  0  0  0  0  0  0  0  0  0  0  0
   19.6680   -2.7441  -15.7816 O   0  0  0  0  0  0  0  0  0  0  0  0
   19.1852   -3.9679  -17.6233 O   0  0  0  0  0  0  0  0  0  0  0  0
  2  1  1  0
  3  7  1  0
  3  2  1  0
  4  3  2  0
  6  5  1  6
  6  8  1  0
  6  7  1  0
  8  9  2  0
 10 11  1  0
 11 13  1  0
 11 12  2  0
 13 14  1  0
 15 14  1  6
 16 15  1  0
 16  8  1  0
 17 15  1  0
 17 18  1  0
 19 17  2  0
M  END
$$$$
