GAQ.pdb
     RDKit          3D

 19 18  0  0  1  0  0  0  0  0999 V2000
   17.7813  -15.4369  -15.8064 N   0  0  0  0  0  0  0  0  0  0  0  0
   17.8401  -14.2445  -16.5878 C   0  0  0  0  0  0  0  0  0  0  0  0
   18.5343  -13.1484  -15.8271 C   0  0  0  0  0  0  0  0  0  0  0  0
   18.4074  -13.0132  -14.5887 O   0  0  0  0  0  0  0  0  0  0  0  0
   21.0338  -10.3994  -16.6013 C   0  0  0  0  0  0  0  0  0  0  0  0
   19.9135  -11.0401  -15.8531 C   0  0  2  0  0  0  0  0  0  0  0  0
   19.3720  -12.2113  -16.4924 N   0  0  0  0  0  0  0  0  0  0  0  0
   18.8402  -10.0673  -15.4900 C   0  0  0  0  0  0  0  0  0  0  0  0
   17.7969   -9.9684  -16.2036 O   0  0  0  0  0  0  0  0  0  0  0  0
   16.7789   -9.2059  -10.1212 N   0  0  0  0  0  0  0  0  0  0  0  0
   16.1952   -8.0231  -10.6452 C   0  0  0  0  0  0  0  0  0  0  0  0
   15.4405   -7.3561   -9.9013 O   0  0  0  0  0  0  0  0  0  0  0  0
   16.4850   -7.6061  -12.0404 C   0  0  0  0  0  0  0  0  0  0  0  0
   17.4281   -8.5990  -12.6322 C   0  0  0  0  0  0  0  0  0  0  0  0
   17.9209   -8.2330  -14.0140 C   0  0  2  0  0  0  0  0  0  0  0  0
   18.9533   -9.2320  -14.3470 N   0  0  0  0  0  0  0  0  0  0  0  0
   18.4649   -6.8716  -14.1063 C   0  0  0  0  0  0  0  0  0  0  0  0
   19.8175   -6.6244  -14.0105 O   0  0  0  0  0  0  0  0  0  0  0  0
   17.6895   -5.9008  -14.2758 O   0  0  0  0  0  0  0  0  0  0  0  0
  2  1  1  0
  3  7  1  0
  3  2  1  0
  4  3  2  0
  6  5  1  6
  6  8  1  0
  6  7  1  0
  8  9  2  0
 10 11  1  0
 11 13  1  0
 11 12  2  0
 13 14  1  0
 15 14  1  1
 16 15  1  0
 16  8  1  0
 17 15  1  0
 17 18  1  0
 19 17  2  0
M  END
$$$$
