GAQ.pdb
     RDKit          3D

 19 18  0  0  1  0  0  0  0  0999 V2000
   23.3652  -19.2398  -16.7234 N   0  0  0  0  0  0  0  0  0  0  0  0
   23.9553  -18.0425  -17.2275 C   0  0  0  0  0  0  0  0  0  0  0  0
   23.5157  -16.8550  -16.4160 C   0  0  0  0  0  0  0  0  0  0  0  0
   22.3239  -16.6895  -16.0687 O   0  0  0  0  0  0  0  0  0  0  0  0
   25.2352  -13.9053  -14.7380 C   0  0  0  0  0  0  0  0  0  0  0  0
   24.0767  -14.6917  -15.2527 C   0  0  2  0  0  0  0  0  0  0  0  0
   24.4472  -15.8614  -16.0064 N   0  0  0  0  0  0  0  0  0  0  0  0
   23.0990  -13.8448  -15.9990 C   0  0  0  0  0  0  0  0  0  0  0  0
   23.1882  -13.7213  -17.2577 O   0  0  0  0  0  0  0  0  0  0  0  0
   17.3626  -13.8516  -14.9076 N   0  0  0  0  0  0  0  0  0  0  0  0
   17.3137  -12.7214  -15.7647 C   0  0  0  0  0  0  0  0  0  0  0  0
   16.1910  -12.2602  -16.0721 O   0  0  0  0  0  0  0  0  0  0  0  0
   18.5720  -12.1179  -16.2717 C   0  0  0  0  0  0  0  0  0  0  0  0
   19.7153  -12.8922  -15.7070 C   0  0  0  0  0  0  0  0  0  0  0  0
   21.0741  -12.3335  -16.0644 C   0  0  2  0  0  0  0  0  0  0  0  0
   22.0507  -13.1590  -15.3298 N   0  0  0  0  0  0  0  0  0  0  0  0
   21.2362  -10.9127  -15.7281 C   0  0  0  0  0  0  0  0  0  0  0  0
   20.6856   -9.9172  -16.5064 O   0  0  0  0  0  0  0  0  0  0  0  0
   21.8902  -10.5840  -14.7101 O   0  0  0  0  0  0  0  0  0  0  0  0
  2  1  1  0
  3  7  1  0
  3  2  1  0
  4  3  2  0
  6  5  1  6
  6  8  1  0
  6  7  1  0
  8  9  2  0
 10 11  1  0
 11 13  1  0
 11 12  2  0
 13 14  1  0
 15 14  1  1
 16 15  1  0
 16  8  1  0
 17 15  1  0
 17 18  1  0
 19 17  2  0
M  END
$$$$
