YVI.pdb
     RDKit          3D

 28 28  0  0  1  0  0  0  0  0999 V2000
    7.7390  -22.8026   30.1611 O   0  0  0  0  0  0  0  0  0  0  0  0
    7.7152  -21.7434   29.2480 C   0  0  0  0  0  0  0  0  0  0  0  0
    6.6673  -21.5589   28.3747 C   0  0  0  0  0  0  0  0  0  0  0  0
    6.6649  -20.5078   27.4831 C   0  0  0  0  0  0  0  0  0  0  0  0
    7.7013  -19.5945   27.4190 C   0  0  0  0  0  0  0  0  0  0  0  0
    7.7029  -18.4600   26.4601 C   0  0  0  0  0  0  0  0  0  0  0  0
    7.4594  -19.0239   25.0790 C   0  0  2  0  0  0  0  0  0  0  0  0
    8.2489  -20.2361   24.9693 N   0  0  0  0  0  0  0  0  0  0  0  0
    7.9772  -18.0361   24.0671 C   0  0  0  0  0  0  0  0  0  0  0  0
    9.1954  -18.0892   23.7198 O   0  0  0  0  0  0  0  0  0  0  0  0
    8.7556  -19.7818   28.2991 C   0  0  0  0  0  0  0  0  0  0  0  0
    8.7514  -20.8371   29.1898 C   0  0  0  0  0  0  0  0  0  0  0  0
    5.9911  -16.4955   20.8003 C   0  0  0  0  0  0  0  0  0  0  0  0
    6.5804  -15.5032   21.7275 C   0  0  2  0  0  0  0  0  0  0  0  0
    6.9977  -14.2158   21.0517 C   0  0  0  0  0  0  0  0  0  0  0  0
    7.7017  -16.0420   22.6127 C   0  0  2  0  0  0  0  0  0  0  0  0
    7.1156  -17.0596   23.5094 N   0  0  0  0  0  0  0  0  0  0  0  0
    8.3100  -15.0215   23.4801 C   0  0  0  0  0  0  0  0  0  0  0  0
    8.7625  -13.9473   22.9812 O   0  0  0  0  0  0  0  0  0  0  0  0
    6.3684  -11.0805   26.9669 C   0  0  0  0  0  0  0  0  0  0  0  0
    7.6263  -11.7728   26.5952 C   0  0  0  0  0  0  0  0  0  0  0  0
    7.4947  -12.9681   25.6892 C   0  0  2  0  0  0  0  0  0  0  0  0
    6.1157  -13.5258   25.8910 C   0  0  0  0  0  0  0  0  0  0  0  0
    8.5915  -13.9560   25.7681 C   0  0  2  0  0  0  0  0  0  0  0  0
    8.4616  -15.0870   24.8759 N   0  0  0  0  0  0  0  0  0  0  0  0
    8.9177  -14.4695   27.0977 C   0  0  0  0  0  0  0  0  0  0  0  0
    8.9693  -15.8028   27.4570 O   0  0  0  0  0  0  0  0  0  0  0  0
    9.1809  -13.6584   28.0259 O   0  0  0  0  0  0  0  0  0  0  0  0
  2  1  1  0
  3  2  2  0
  4  3  1  0
  5  4  2  0
  5 11  1  0
  6  5  1  0
  7  6  1  0
  7  9  1  0
  7  8  1  1
  9 10  2  0
 11 12  2  0
 12  2  1  0
 14 13  1  6
 14 15  1  0
 14 16  1  0
 16 17  1  1
 17  9  1  0
 18 16  1  0
 18 19  2  0
 20 21  1  0
 21 22  1  0
 22 23  1  1
 22 24  1  0
 24 25  1  6
 24 26  1  0
 25 18  1  0
 26 28  2  0
 26 27  1  0
M  END
$$$$
