YVI.pdb
     RDKit          3D

 28 28  0  0  1  0  0  0  0  0999 V2000
   16.1003  -14.5750   17.9225 O   0  0  0  0  0  0  0  0  0  0  0  0
   14.8514  -14.5484   18.5517 C   0  0  0  0  0  0  0  0  0  0  0  0
   14.5733  -15.3299   19.6503 C   0  0  0  0  0  0  0  0  0  0  0  0
   13.3353  -15.2876   20.2545 C   0  0  0  0  0  0  0  0  0  0  0  0
   12.3197  -14.4686   19.7956 C   0  0  0  0  0  0  0  0  0  0  0  0
   10.9841  -14.4194   20.4438 C   0  0  0  0  0  0  0  0  0  0  0  0
   10.3225  -15.7628   20.2383 C   0  0  2  0  0  0  0  0  0  0  0  0
    9.6516  -15.7142   18.9529 N   0  0  0  0  0  0  0  0  0  0  0  0
    9.2751  -15.9421   21.3053 C   0  0  0  0  0  0  0  0  0  0  0  0
    8.1441  -15.3878   21.1597 O   0  0  0  0  0  0  0  0  0  0  0  0
   12.6016  -13.6825   18.6895 C   0  0  0  0  0  0  0  0  0  0  0  0
   13.8443  -13.7300   18.0890 C   0  0  0  0  0  0  0  0  0  0  0  0
    7.1495  -18.6703   24.6358 C   0  0  0  0  0  0  0  0  0  0  0  0
    8.1450  -18.3421   23.5902 C   0  0  2  0  0  0  0  0  0  0  0  0
    9.4023  -19.1796   23.6667 C   0  0  0  0  0  0  0  0  0  0  0  0
    8.4852  -16.8582   23.4743 C   0  0  2  0  0  0  0  0  0  0  0  0
    9.5483  -16.7198   22.4574 N   0  0  0  0  0  0  0  0  0  0  0  0
    9.0170  -16.2766   24.7164 C   0  0  0  0  0  0  0  0  0  0  0  0
   10.2528  -16.3668   24.9852 O   0  0  0  0  0  0  0  0  0  0  0  0
    6.2828  -12.0876   26.9519 C   0  0  0  0  0  0  0  0  0  0  0  0
    7.4348  -12.8953   26.4825 C   0  0  0  0  0  0  0  0  0  0  0  0
    8.0075  -13.8844   27.4626 C   0  0  2  0  0  0  0  0  0  0  0  0
    8.6585  -13.0930   28.5596 C   0  0  0  0  0  0  0  0  0  0  0  0
    8.8417  -14.9558   26.8784 C   0  0  2  0  0  0  0  0  0  0  0  0
    8.2876  -15.5903   25.7026 N   0  0  0  0  0  0  0  0  0  0  0  0
    9.2875  -16.0101   27.7882 C   0  0  0  0  0  0  0  0  0  0  0  0
   10.4372  -15.9817   28.5541 O   0  0  0  0  0  0  0  0  0  0  0  0
    8.5908  -17.0530   27.9139 O   0  0  0  0  0  0  0  0  0  0  0  0
  2  1  1  0
  3  2  2  0
  4  3  1  0
  5  4  2  0
  5 11  1  0
  6  5  1  0
  7  6  1  0
  7  9  1  0
  7  8  1  6
  9 10  2  0
 11 12  2  0
 12  2  1  0
 14 13  1  1
 14 15  1  0
 14 16  1  0
 16 17  1  6
 17  9  1  0
 18 16  1  0
 18 19  2  0
 20 21  1  0
 21 22  1  0
 22 23  1  1
 22 24  1  0
 24 25  1  6
 24 26  1  0
 25 18  1  0
 26 28  2  0
 26 27  1  0
M  END
$$$$
