YVI.pdb
     RDKit          3D

 28 28  0  0  1  0  0  0  0  0999 V2000
    7.0991  -22.9755   29.2062 O   0  0  0  0  0  0  0  0  0  0  0  0
    7.3420  -21.8934   28.3539 C   0  0  0  0  0  0  0  0  0  0  0  0
    6.3257  -21.2573   27.6777 C   0  0  0  0  0  0  0  0  0  0  0  0
    6.5883  -20.1927   26.8427 C   0  0  0  0  0  0  0  0  0  0  0  0
    7.8698  -19.7130   26.6421 C   0  0  0  0  0  0  0  0  0  0  0  0
    8.1575  -18.5658   25.7434 C   0  0  0  0  0  0  0  0  0  0  0  0
    7.9313  -19.0262   24.3217 C   0  0  2  0  0  0  0  0  0  0  0  0
    8.7541  -20.2040   24.1201 N   0  0  0  0  0  0  0  0  0  0  0  0
    8.4227  -17.9484   23.3919 C   0  0  0  0  0  0  0  0  0  0  0  0
    9.6229  -17.9840   22.9850 O   0  0  0  0  0  0  0  0  0  0  0  0
    8.8919  -20.3548   27.3237 C   0  0  0  0  0  0  0  0  0  0  0  0
    8.6215  -21.4209   28.1588 C   0  0  0  0  0  0  0  0  0  0  0  0
    7.5322  -14.0319   20.5184 C   0  0  0  0  0  0  0  0  0  0  0  0
    7.0895  -15.1891   21.3289 C   0  0  2  0  0  0  0  0  0  0  0  0
    5.7804  -14.9579   22.0505 C   0  0  0  0  0  0  0  0  0  0  0  0
    8.1458  -15.7443   22.2813 C   0  0  2  0  0  0  0  0  0  0  0  0
    7.5562  -16.9076   22.9760 N   0  0  0  0  0  0  0  0  0  0  0  0
    8.5529  -14.7948   23.3284 C   0  0  0  0  0  0  0  0  0  0  0  0
    8.8133  -13.5899   23.0311 O   0  0  0  0  0  0  0  0  0  0  0  0
    6.5621  -11.0892   26.8692 C   0  0  0  0  0  0  0  0  0  0  0  0
    7.6621  -12.0840   26.8603 C   0  0  0  0  0  0  0  0  0  0  0  0
    7.6149  -13.1303   25.7786 C   0  0  2  0  0  0  0  0  0  0  0  0
    6.2515  -13.7565   25.8287 C   0  0  0  0  0  0  0  0  0  0  0  0
    8.7452  -14.0827   25.7586 C   0  0  2  0  0  0  0  0  0  0  0  0
    8.6972  -15.0670   24.6998 N   0  0  0  0  0  0  0  0  0  0  0  0
    9.0350  -14.7836   27.0087 C   0  0  0  0  0  0  0  0  0  0  0  0
    9.0955  -16.1546   27.1694 O   0  0  0  0  0  0  0  0  0  0  0  0
    9.2547  -14.1157   28.0549 O   0  0  0  0  0  0  0  0  0  0  0  0
  2  1  1  0
  3  2  2  0
  4  3  1  0
  5  4  2  0
  5 11  1  0
  6  5  1  0
  7  6  1  0
  7  9  1  0
  7  8  1  6
  9 10  2  0
 11 12  2  0
 12  2  1  0
 14 13  1  1
 14 15  1  0
 14 16  1  0
 16 17  1  1
 17  9  1  0
 18 16  1  0
 18 19  2  0
 20 21  1  0
 21 22  1  0
 22 23  1  1
 22 24  1  0
 24 25  1  6
 24 26  1  0
 25 18  1  0
 26 28  2  0
 26 27  1  0
M  END
$$$$
