YVI.pdb
     RDKit          3D

 28 28  0  0  1  0  0  0  0  0999 V2000
   11.0272  -17.7592   29.6067 O   0  0  0  0  0  0  0  0  0  0  0  0
   11.5744  -17.4796   28.3502 C   0  0  0  0  0  0  0  0  0  0  0  0
   12.1692  -18.4550   27.5822 C   0  0  0  0  0  0  0  0  0  0  0  0
   12.7020  -18.1568   26.3466 C   0  0  0  0  0  0  0  0  0  0  0  0
   12.6682  -16.8787   25.8192 C   0  0  0  0  0  0  0  0  0  0  0  0
   13.2408  -16.5528   24.4879 C   0  0  0  0  0  0  0  0  0  0  0  0
   12.3570  -17.1869   23.4385 C   0  0  2  0  0  0  0  0  0  0  0  0
   13.1885  -17.4352   22.2758 N   0  0  0  0  0  0  0  0  0  0  0  0
   11.2960  -16.1915   23.0498 C   0  0  0  0  0  0  0  0  0  0  0  0
   11.6466  -15.0563   22.6074 O   0  0  0  0  0  0  0  0  0  0  0  0
   12.0690  -15.8980   26.5939 C   0  0  0  0  0  0  0  0  0  0  0  0
   11.5371  -16.2039   27.8311 C   0  0  0  0  0  0  0  0  0  0  0  0
    8.6649  -16.2019   20.4744 C   0  0  0  0  0  0  0  0  0  0  0  0
    8.0073  -15.9927   21.7842 C   0  0  2  0  0  0  0  0  0  0  0  0
    6.7400  -15.1709   21.7013 C   0  0  0  0  0  0  0  0  0  0  0  0
    8.9262  -15.4671   22.8845 C   0  0  2  0  0  0  0  0  0  0  0  0
    9.9231  -16.5179   23.1762 N   0  0  0  0  0  0  0  0  0  0  0  0
    8.2306  -15.1883   24.1502 C   0  0  0  0  0  0  0  0  0  0  0  0
    8.1512  -16.0829   25.0453 O   0  0  0  0  0  0  0  0  0  0  0  0
    6.8616   -9.9383   25.5862 C   0  0  0  0  0  0  0  0  0  0  0  0
    7.3328  -11.3138   25.8791 C   0  0  0  0  0  0  0  0  0  0  0  0
    6.2888  -12.3986   25.8738 C   0  0  2  0  0  0  0  0  0  0  0  0
    5.4232  -12.1846   27.0814 C   0  0  0  0  0  0  0  0  0  0  0  0
    6.7965  -13.7758   25.6987 C   0  0  2  0  0  0  0  0  0  0  0  0
    7.6065  -13.9840   24.5186 N   0  0  0  0  0  0  0  0  0  0  0  0
    5.8084  -14.8520   25.7592 C   0  0  0  0  0  0  0  0  0  0  0  0
    4.9717  -15.2375   24.7294 O   0  0  0  0  0  0  0  0  0  0  0  0
    5.6764  -15.5104   26.8259 O   0  0  0  0  0  0  0  0  0  0  0  0
  2  1  1  0
  3  2  2  0
  4  3  1  0
  5  4  2  0
  5 11  1  0
  6  5  1  0
  7  6  1  0
  7  9  1  0
  7  8  1  6
  9 10  2  0
 11 12  2  0
 12  2  1  0
 14 13  1  6
 14 15  1  0
 14 16  1  0
 16 17  1  1
 17  9  1  0
 18 16  1  0
 18 19  2  0
 20 21  1  0
 21 22  1  0
 22 23  1  1
 22 24  1  0
 24 25  1  6
 24 26  1  0
 25 18  1  0
 26 28  2  0
 26 27  1  0
M  END
$$$$
