YVI.pdb
     RDKit          3D

 28 28  0  0  1  0  0  0  0  0999 V2000
    8.9127  -12.1372   17.8210 O   0  0  0  0  0  0  0  0  0  0  0  0
    8.1968  -13.1162   18.5176 C   0  0  0  0  0  0  0  0  0  0  0  0
    7.3051  -12.7937   19.5154 C   0  0  0  0  0  0  0  0  0  0  0  0
    6.6102  -13.7752   20.1889 C   0  0  0  0  0  0  0  0  0  0  0  0
    6.7697  -15.1187   19.9020 C   0  0  0  0  0  0  0  0  0  0  0  0
    6.0228  -16.1799   20.6249 C   0  0  0  0  0  0  0  0  0  0  0  0
    6.9509  -16.7727   21.6602 C   0  0  2  0  0  0  0  0  0  0  0  0
    6.2560  -17.8957   22.2609 N   0  0  0  0  0  0  0  0  0  0  0  0
    7.1846  -15.7408   22.7317 C   0  0  0  0  0  0  0  0  0  0  0  0
    6.4735  -14.6913   22.7439 O   0  0  0  0  0  0  0  0  0  0  0  0
    7.6680  -15.4415   18.8971 C   0  0  0  0  0  0  0  0  0  0  0  0
    8.3607  -14.4529   18.2264 C   0  0  0  0  0  0  0  0  0  0  0  0
    6.1953  -13.8896   24.4566 C   0  0  0  0  0  0  0  0  0  0  0  0
    7.3053  -14.3495   25.3216 C   0  0  2  0  0  0  0  0  0  0  0  0
    7.6545  -13.3777   26.4269 C   0  0  0  0  0  0  0  0  0  0  0  0
    8.5586  -14.7943   24.5714 C   0  0  2  0  0  0  0  0  0  0  0  0
    8.1858  -15.9388   23.7144 N   0  0  0  0  0  0  0  0  0  0  0  0
    9.6370  -15.2667   25.4532 C   0  0  0  0  0  0  0  0  0  0  0  0
   10.8389  -14.9320   25.2271 O   0  0  0  0  0  0  0  0  0  0  0  0
   10.3951  -13.4979   29.9875 C   0  0  0  0  0  0  0  0  0  0  0  0
   10.4651  -14.2360   28.7030 C   0  0  0  0  0  0  0  0  0  0  0  0
   10.5404  -15.7371   28.7922 C   0  0  2  0  0  0  0  0  0  0  0  0
   11.6716  -16.0683   29.7218 C   0  0  0  0  0  0  0  0  0  0  0  0
   10.5554  -16.4559   27.5007 C   0  0  2  0  0  0  0  0  0  0  0  0
    9.4981  -16.0896   26.5842 N   0  0  0  0  0  0  0  0  0  0  0  0
   10.6084  -17.9158   27.5628 C   0  0  0  0  0  0  0  0  0  0  0  0
   11.7535  -18.6760   27.7054 O   0  0  0  0  0  0  0  0  0  0  0  0
    9.5382  -18.5769   27.4828 O   0  0  0  0  0  0  0  0  0  0  0  0
  2  1  1  0
  3  2  2  0
  4  3  1  0
  5  4  2  0
  5 11  1  0
  6  5  1  0
  7  6  1  0
  7  9  1  0
  7  8  1  1
  9 10  2  0
 11 12  2  0
 12  2  1  0
 14 13  1  6
 14 15  1  0
 14 16  1  0
 16 17  1  6
 17  9  1  0
 18 16  1  0
 18 19  2  0
 20 21  1  0
 21 22  1  0
 22 23  1  6
 22 24  1  0
 24 25  1  1
 24 26  1  0
 25 18  1  0
 26 28  2  0
 26 27  1  0
M  END
$$$$
