YVI.pdb
     RDKit          3D

 28 28  0  0  1  0  0  0  0  0999 V2000
   17.4148  -18.5290   22.4765 O   0  0  0  0  0  0  0  0  0  0  0  0
   16.2021  -17.8984   22.1798 C   0  0  0  0  0  0  0  0  0  0  0  0
   15.0186  -18.2841   22.7673 C   0  0  0  0  0  0  0  0  0  0  0  0
   13.8350  -17.6482   22.4599 C   0  0  0  0  0  0  0  0  0  0  0  0
   13.7739  -16.6027   21.5567 C   0  0  0  0  0  0  0  0  0  0  0  0
   12.5008  -15.9143   21.2226 C   0  0  0  0  0  0  0  0  0  0  0  0
   11.4702  -16.9760   20.9137 C   0  0  2  0  0  0  0  0  0  0  0  0
   11.1388  -16.8504   19.5069 N   0  0  0  0  0  0  0  0  0  0  0  0
   10.2300  -16.6780   21.7141 C   0  0  0  0  0  0  0  0  0  0  0  0
    9.4495  -15.7583   21.3240 O   0  0  0  0  0  0  0  0  0  0  0  0
   14.9666  -16.2157   20.9661 C   0  0  0  0  0  0  0  0  0  0  0  0
   16.1489  -16.8573   21.2789 C   0  0  0  0  0  0  0  0  0  0  0  0
    6.8246  -18.3878   24.8047 C   0  0  0  0  0  0  0  0  0  0  0  0
    8.1208  -18.4765   24.0951 C   0  0  2  0  0  0  0  0  0  0  0  0
    9.1826  -19.2302   24.8650 C   0  0  0  0  0  0  0  0  0  0  0  0
    8.6622  -17.1439   23.5830 C   0  0  2  0  0  0  0  0  0  0  0  0
    9.9376  -17.4152   22.8881 N   0  0  0  0  0  0  0  0  0  0  0  0
    8.9659  -16.1809   24.6527 C   0  0  0  0  0  0  0  0  0  0  0  0
   10.1571  -16.0375   25.0630 O   0  0  0  0  0  0  0  0  0  0  0  0
    5.4895  -11.9495   25.7055 C   0  0  0  0  0  0  0  0  0  0  0  0
    6.7971  -12.6255   25.5241 C   0  0  0  0  0  0  0  0  0  0  0  0
    7.3032  -13.4362   26.6875 C   0  0  2  0  0  0  0  0  0  0  0  0
    7.6239  -12.4715   27.7920 C   0  0  0  0  0  0  0  0  0  0  0  0
    8.3688  -14.4115   26.3738 C   0  0  2  0  0  0  0  0  0  0  0  0
    8.0504  -15.3470   25.3176 N   0  0  0  0  0  0  0  0  0  0  0  0
    8.9130  -15.1728   27.4973 C   0  0  0  0  0  0  0  0  0  0  0  0
    8.4011  -16.3568   27.9926 O   0  0  0  0  0  0  0  0  0  0  0  0
    9.9379  -14.7461   28.0941 O   0  0  0  0  0  0  0  0  0  0  0  0
  2  1  1  0
  3  2  2  0
  4  3  1  0
  5  4  2  0
  5 11  1  0
  6  5  1  0
  7  6  1  0
  7  9  1  0
  7  8  1  6
  9 10  2  0
 11 12  2  0
 12  2  1  0
 14 13  1  1
 14 15  1  0
 14 16  1  0
 16 17  1  1
 17  9  1  0
 18 16  1  0
 18 19  2  0
 20 21  1  0
 21 22  1  0
 22 23  1  1
 22 24  1  0
 24 25  1  6
 24 26  1  0
 25 18  1  0
 26 28  2  0
 26 27  1  0
M  END
$$$$
