YVI.pdb
     RDKit          3D

 28 28  0  0  1  0  0  0  0  0999 V2000
    7.1691  -11.6186   27.1752 O   0  0  0  0  0  0  0  0  0  0  0  0
    6.9866  -12.9926   26.9875 C   0  0  0  0  0  0  0  0  0  0  0  0
    8.0489  -13.8510   26.8161 C   0  0  0  0  0  0  0  0  0  0  0  0
    7.8457  -15.2018   26.6326 C   0  0  0  0  0  0  0  0  0  0  0  0
    6.5804  -15.7596   26.6110 C   0  0  0  0  0  0  0  0  0  0  0  0
    6.3564  -17.2148   26.4139 C   0  0  0  0  0  0  0  0  0  0  0  0
    5.8848  -17.4200   24.9926 C   0  0  2  0  0  0  0  0  0  0  0  0
    5.4429  -18.7977   24.8859 N   0  0  0  0  0  0  0  0  0  0  0  0
    7.0623  -17.2346   24.0724 C   0  0  0  0  0  0  0  0  0  0  0  0
    7.8426  -18.2119   23.8635 O   0  0  0  0  0  0  0  0  0  0  0  0
    5.5119  -14.8938   26.7837 C   0  0  0  0  0  0  0  0  0  0  0  0
    5.7230  -13.5414   26.9671 C   0  0  0  0  0  0  0  0  0  0  0  0
    9.2865  -14.4280   20.6318 C   0  0  0  0  0  0  0  0  0  0  0  0
    8.1983  -14.7000   21.5980 C   0  0  2  0  0  0  0  0  0  0  0  0
    7.7390  -13.4731   22.3543 C   0  0  0  0  0  0  0  0  0  0  0  0
    8.4667  -15.8601   22.5537 C   0  0  2  0  0  0  0  0  0  0  0  0
    7.2966  -15.9851   23.4473 N   0  0  0  0  0  0  0  0  0  0  0  0
    9.6351  -15.6501   23.4223 C   0  0  0  0  0  0  0  0  0  0  0  0
   10.7897  -15.5127   22.9167 O   0  0  0  0  0  0  0  0  0  0  0  0
    9.2131  -13.6585   28.7624 C   0  0  0  0  0  0  0  0  0  0  0  0
    9.6598  -13.8532   27.3616 C   0  0  0  0  0  0  0  0  0  0  0  0
   10.4937  -15.0757   27.0845 C   0  0  2  0  0  0  0  0  0  0  0  0
   11.6906  -15.0082   27.9880 C   0  0  0  0  0  0  0  0  0  0  0  0
   10.7932  -15.3380   25.6609 C   0  0  2  0  0  0  0  0  0  0  0  0
    9.6362  -15.5755   24.8259 N   0  0  0  0  0  0  0  0  0  0  0  0
   11.7720  -16.3869   25.3787 C   0  0  0  0  0  0  0  0  0  0  0  0
   11.5270  -17.7466   25.4037 O   0  0  0  0  0  0  0  0  0  0  0  0
   12.9543  -16.0654   25.0828 O   0  0  0  0  0  0  0  0  0  0  0  0
  2  1  1  0
  3  2  2  0
  4  3  1  0
  5  4  2  0
  5 11  1  0
  6  5  1  0
  7  6  1  0
  7  9  1  0
  7  8  1  1
  9 10  2  0
 11 12  2  0
 12  2  1  0
 14 13  1  1
 14 15  1  0
 14 16  1  0
 16 17  1  1
 17  9  1  0
 18 16  1  0
 18 19  2  0
 20 21  1  0
 21 22  1  0
 22 23  1  1
 22 24  1  0
 24 25  1  6
 24 26  1  0
 25 18  1  0
 26 28  2  0
 26 27  1  0
M  END
$$$$
