YVI.pdb
     RDKit          3D

 28 28  0  0  1  0  0  0  0  0999 V2000
    3.8783  -24.9996   27.2037 O   0  0  0  0  0  0  0  0  0  0  0  0
    4.6498  -23.8676   26.9213 C   0  0  0  0  0  0  0  0  0  0  0  0
    4.0804  -22.6306   26.7203 C   0  0  0  0  0  0  0  0  0  0  0  0
    4.8602  -21.5284   26.4432 C   0  0  0  0  0  0  0  0  0  0  0  0
    6.2381  -21.6053   26.3535 C   0  0  0  0  0  0  0  0  0  0  0  0
    7.0826  -20.4202   26.0554 C   0  0  0  0  0  0  0  0  0  0  0  0
    6.9346  -20.1073   24.5841 C   0  0  2  0  0  0  0  0  0  0  0  0
    7.6805  -21.1173   23.8574 N   0  0  0  0  0  0  0  0  0  0  0  0
    7.5761  -18.7712   24.3181 C   0  0  0  0  0  0  0  0  0  0  0  0
    8.8409  -18.6889   24.2861 O   0  0  0  0  0  0  0  0  0  0  0  0
    6.8097  -22.8516   26.5562 C   0  0  0  0  0  0  0  0  0  0  0  0
    6.0222  -23.9517   26.8335 C   0  0  0  0  0  0  0  0  0  0  0  0
    6.3742  -16.3932   21.4850 C   0  0  0  0  0  0  0  0  0  0  0  0
    6.6087  -15.6287   22.7310 C   0  0  2  0  0  0  0  0  0  0  0  0
    7.1230  -14.2261   22.4933 C   0  0  0  0  0  0  0  0  0  0  0  0
    7.4582  -16.3508   23.7741 C   0  0  2  0  0  0  0  0  0  0  0  0
    6.7781  -17.6199   24.1059 N   0  0  0  0  0  0  0  0  0  0  0  0
    7.5976  -15.6092   25.0368 C   0  0  0  0  0  0  0  0  0  0  0  0
    6.5762  -15.3554   25.7440 O   0  0  0  0  0  0  0  0  0  0  0  0
   10.1756  -17.0972   29.2524 C   0  0  0  0  0  0  0  0  0  0  0  0
    9.3175  -16.4062   28.2595 C   0  0  0  0  0  0  0  0  0  0  0  0
    9.7230  -15.0077   27.8765 C   0  0  2  0  0  0  0  0  0  0  0  0
    9.8599  -14.2232   29.1491 C   0  0  0  0  0  0  0  0  0  0  0  0
    8.9026  -14.3672   26.8269 C   0  0  2  0  0  0  0  0  0  0  0  0
    8.7900  -15.1174   25.5954 N   0  0  0  0  0  0  0  0  0  0  0  0
    9.2399  -12.9871   26.4813 C   0  0  0  0  0  0  0  0  0  0  0  0
    8.7990  -11.8585   27.1455 O   0  0  0  0  0  0  0  0  0  0  0  0
    9.9963  -12.7636   25.4981 O   0  0  0  0  0  0  0  0  0  0  0  0
  2  1  1  0
  3  2  2  0
  4  3  1  0
  5  4  2  0
  5 11  1  0
  6  5  1  0
  7  6  1  0
  7  9  1  0
  7  8  1  6
  9 10  2  0
 11 12  2  0
 12  2  1  0
 14 13  1  6
 14 15  1  0
 14 16  1  0
 16 17  1  1
 17  9  1  0
 18 16  1  0
 18 19  2  0
 20 21  1  0
 21 22  1  0
 22 23  1  1
 22 24  1  0
 24 25  1  6
 24 26  1  0
 25 18  1  0
 26 28  2  0
 26 27  1  0
M  END
$$$$
