YVI.pdb
     RDKit          3D

 28 28  0  0  1  0  0  0  0  0999 V2000
    5.5850  -23.6333   27.6521 O   0  0  0  0  0  0  0  0  0  0  0  0
    6.0676  -22.4867   27.0129 C   0  0  0  0  0  0  0  0  0  0  0  0
    5.2827  -21.7442   26.1600 C   0  0  0  0  0  0  0  0  0  0  0  0
    5.7792  -20.6174   25.5408 C   0  0  0  0  0  0  0  0  0  0  0  0
    7.0754  -20.1784   25.7404 C   0  0  0  0  0  0  0  0  0  0  0  0
    7.6148  -18.9645   25.0754 C   0  0  0  0  0  0  0  0  0  0  0  0
    7.4157  -19.1281   23.5861 C   0  0  2  0  0  0  0  0  0  0  0  0
    8.0947  -20.3500   23.1980 N   0  0  0  0  0  0  0  0  0  0  0  0
    8.0915  -17.9768   22.8895 C   0  0  0  0  0  0  0  0  0  0  0  0
    9.3324  -18.0488   22.6396 O   0  0  0  0  0  0  0  0  0  0  0  0
    7.8643  -20.9273   26.5994 C   0  0  0  0  0  0  0  0  0  0  0  0
    7.3602  -22.0552   27.2165 C   0  0  0  0  0  0  0  0  0  0  0  0
    7.6810  -13.7432   20.3518 C   0  0  0  0  0  0  0  0  0  0  0  0
    7.1156  -14.9453   21.0053 C   0  0  2  0  0  0  0  0  0  0  0  0
    5.7970  -14.6923   21.7020 C   0  0  0  0  0  0  0  0  0  0  0  0
    8.0828  -15.6888   21.9234 C   0  0  2  0  0  0  0  0  0  0  0  0
    7.3518  -16.8273   22.5175 N   0  0  0  0  0  0  0  0  0  0  0  0
    8.5727  -14.8752   23.0466 C   0  0  0  0  0  0  0  0  0  0  0  0
    9.4823  -14.0117   22.8601 O   0  0  0  0  0  0  0  0  0  0  0  0
    5.8516  -12.0782   27.2764 C   0  0  0  0  0  0  0  0  0  0  0  0
    6.3858  -13.1780   26.4368 C   0  0  0  0  0  0  0  0  0  0  0  0
    7.6497  -12.8880   25.6718 C   0  0  2  0  0  0  0  0  0  0  0  0
    7.2545  -12.1344   24.4350 C   0  0  0  0  0  0  0  0  0  0  0  0
    8.5421  -14.0447   25.4464 C   0  0  2  0  0  0  0  0  0  0  0  0
    8.1344  -14.9337   24.3808 N   0  0  0  0  0  0  0  0  0  0  0  0
    8.8627  -14.8635   26.6147 C   0  0  0  0  0  0  0  0  0  0  0  0
    9.5451  -14.4350   27.7372 O   0  0  0  0  0  0  0  0  0  0  0  0
    8.5034  -16.0714   26.6400 O   0  0  0  0  0  0  0  0  0  0  0  0
  2  1  1  0
  3  2  2  0
  4  3  1  0
  5  4  2  0
  5 11  1  0
  6  5  1  0
  7  6  1  0
  7  9  1  0
  7  8  1  6
  9 10  2  0
 11 12  2  0
 12  2  1  0
 14 13  1  1
 14 15  1  0
 14 16  1  0
 16 17  1  1
 17  9  1  0
 18 16  1  0
 18 19  2  0
 20 21  1  0
 21 22  1  0
 22 23  1  6
 22 24  1  0
 24 25  1  6
 24 26  1  0
 25 18  1  0
 26 28  2  0
 26 27  1  0
M  END
$$$$
