YVI.pdb
     RDKit          3D

 28 28  0  0  1  0  0  0  0  0999 V2000
   16.1500  -22.3123   21.7240 O   0  0  0  0  0  0  0  0  0  0  0  0
   15.4108  -21.1288   21.8206 C   0  0  0  0  0  0  0  0  0  0  0  0
   14.1003  -21.1217   22.2417 C   0  0  0  0  0  0  0  0  0  0  0  0
   13.3908  -19.9433   22.3293 C   0  0  0  0  0  0  0  0  0  0  0  0
   13.9501  -18.7213   22.0030 C   0  0  0  0  0  0  0  0  0  0  0  0
   13.1895  -17.4488   22.0962 C   0  0  0  0  0  0  0  0  0  0  0  0
   12.1400  -17.4586   21.0085 C   0  0  2  0  0  0  0  0  0  0  0  0
   12.8120  -17.1272   19.7662 N   0  0  0  0  0  0  0  0  0  0  0  0
   11.1422  -16.3704   21.3044 C   0  0  0  0  0  0  0  0  0  0  0  0
   11.5016  -15.1588   21.2030 O   0  0  0  0  0  0  0  0  0  0  0  0
   15.2697  -18.7304   21.5791 C   0  0  0  0  0  0  0  0  0  0  0  0
   15.9746  -19.9148   21.4938 C   0  0  0  0  0  0  0  0  0  0  0  0
    7.6786  -16.0828   19.7215 C   0  0  0  0  0  0  0  0  0  0  0  0
    7.5635  -15.9530   21.1918 C   0  0  2  0  0  0  0  0  0  0  0  0
    6.4333  -15.0498   21.6334 C   0  0  0  0  0  0  0  0  0  0  0  0
    8.8630  -15.5879   21.9053 C   0  0  2  0  0  0  0  0  0  0  0  0
    9.8184  -16.6945   21.6913 N   0  0  0  0  0  0  0  0  0  0  0  0
    8.7146  -15.4399   23.3613 C   0  0  0  0  0  0  0  0  0  0  0  0
    9.1159  -16.3565   24.1401 O   0  0  0  0  0  0  0  0  0  0  0  0
    7.4314  -11.2422   27.9040 C   0  0  0  0  0  0  0  0  0  0  0  0
    7.6886  -12.6225   27.4259 C   0  0  0  0  0  0  0  0  0  0  0  0
    7.7180  -12.8238   25.9342 C   0  0  2  0  0  0  0  0  0  0  0  0
    6.4141  -12.3130   25.3935 C   0  0  0  0  0  0  0  0  0  0  0  0
    8.1029  -14.1760   25.4775 C   0  0  2  0  0  0  0  0  0  0  0  0
    8.1531  -14.3458   24.0419 N   0  0  0  0  0  0  0  0  0  0  0  0
    7.3470  -15.2968   26.0348 C   0  0  0  0  0  0  0  0  0  0  0  0
    7.6365  -15.9586   27.2126 O   0  0  0  0  0  0  0  0  0  0  0  0
    6.3359  -15.7277   25.4178 O   0  0  0  0  0  0  0  0  0  0  0  0
  2  1  1  0
  3  2  2  0
  4  3  1  0
  5  4  2  0
  5 11  1  0
  6  5  1  0
  7  6  1  0
  7  9  1  0
  7  8  1  6
  9 10  2  0
 11 12  2  0
 12  2  1  0
 14 13  1  6
 14 15  1  0
 14 16  1  0
 16 17  1  1
 17  9  1  0
 18 16  1  0
 18 19  2  0
 20 21  1  0
 21 22  1  0
 22 23  1  1
 22 24  1  0
 24 25  1  6
 24 26  1  0
 25 18  1  0
 26 28  2  0
 26 27  1  0
M  END
$$$$
