YVI.pdb
     RDKit          3D

 28 28  0  0  1  0  0  0  0  0999 V2000
    7.8030  -18.4073   28.0047 O   0  0  0  0  0  0  0  0  0  0  0  0
    7.9252  -18.7316   26.6496 C   0  0  0  0  0  0  0  0  0  0  0  0
    6.8379  -19.0938   25.8872 C   0  0  0  0  0  0  0  0  0  0  0  0
    6.9817  -19.4094   24.5532 C   0  0  0  0  0  0  0  0  0  0  0  0
    8.2097  -19.3794   23.9179 C   0  0  0  0  0  0  0  0  0  0  0  0
    8.3695  -19.7184   22.4805 C   0  0  0  0  0  0  0  0  0  0  0  0
    7.6141  -18.6849   21.6767 C   0  0  2  0  0  0  0  0  0  0  0  0
    7.5696  -19.1608   20.3069 N   0  0  0  0  0  0  0  0  0  0  0  0
    8.4005  -17.4009   21.6997 C   0  0  0  0  0  0  0  0  0  0  0  0
    9.6244  -17.4204   21.3692 O   0  0  0  0  0  0  0  0  0  0  0  0
    9.3034  -19.0145   24.6872 C   0  0  0  0  0  0  0  0  0  0  0  0
    9.1519  -18.6995   26.0232 C   0  0  0  0  0  0  0  0  0  0  0  0
    6.4481  -13.5783   21.4384 C   0  0  0  0  0  0  0  0  0  0  0  0
    7.7559  -14.0523   20.9317 C   0  0  2  0  0  0  0  0  0  0  0  0
    7.6784  -14.6979   19.5660 C   0  0  0  0  0  0  0  0  0  0  0  0
    8.5391  -14.9298   21.9053 C   0  0  2  0  0  0  0  0  0  0  0  0
    7.7822  -16.1860   22.0853 N   0  0  0  0  0  0  0  0  0  0  0  0
    8.6892  -14.3372   23.2432 C   0  0  0  0  0  0  0  0  0  0  0  0
    8.6602  -13.0781   23.3904 O   0  0  0  0  0  0  0  0  0  0  0  0
    6.3599  -11.4953   25.3971 C   0  0  0  0  0  0  0  0  0  0  0  0
    7.5315  -12.3716   25.1541 C   0  0  0  0  0  0  0  0  0  0  0  0
    7.6664  -13.5778   26.0450 C   0  0  2  0  0  0  0  0  0  0  0  0
    7.5393  -13.0974   27.4615 C   0  0  0  0  0  0  0  0  0  0  0  0
    8.8326  -14.4457   25.7764 C   0  0  2  0  0  0  0  0  0  0  0  0
    8.8695  -15.0289   24.4534 N   0  0  0  0  0  0  0  0  0  0  0  0
    9.0939  -15.5112   26.7431 C   0  0  0  0  0  0  0  0  0  0  0  0
    9.5851  -15.3367   28.0227 O   0  0  0  0  0  0  0  0  0  0  0  0
    8.8648  -16.7079   26.4205 O   0  0  0  0  0  0  0  0  0  0  0  0
  2  1  1  0
  3  2  2  0
  4  3  1  0
  5  4  2  0
  5 11  1  0
  6  5  1  0
  7  6  1  0
  7  9  1  0
  7  8  1  6
  9 10  2  0
 11 12  2  0
 12  2  1  0
 14 13  1  1
 14 15  1  0
 14 16  1  0
 16 17  1  1
 17  9  1  0
 18 16  1  0
 18 19  2  0
 20 21  1  0
 21 22  1  0
 22 23  1  1
 22 24  1  0
 24 25  1  6
 24 26  1  0
 25 18  1  0
 26 28  2  0
 26 27  1  0
M  END
$$$$
