YVI.pdb
     RDKit          3D

 28 28  0  0  1  0  0  0  0  0999 V2000
    6.2758  -23.3907   29.4407 O   0  0  0  0  0  0  0  0  0  0  0  0
    6.5752  -22.2706   28.6584 C   0  0  0  0  0  0  0  0  0  0  0  0
    7.7379  -21.5536   28.8289 C   0  0  0  0  0  0  0  0  0  0  0  0
    8.0124  -20.4527   28.0464 C   0  0  0  0  0  0  0  0  0  0  0  0
    7.1459  -20.0153   27.0612 C   0  0  0  0  0  0  0  0  0  0  0  0
    7.4377  -18.8296   26.2153 C   0  0  0  0  0  0  0  0  0  0  0  0
    7.2115  -19.2250   24.7741 C   0  0  2  0  0  0  0  0  0  0  0  0
    7.8535  -20.5114   24.5802 N   0  0  0  0  0  0  0  0  0  0  0  0
    7.9051  -18.2194   23.8935 C   0  0  0  0  0  0  0  0  0  0  0  0
    9.1577  -18.3106   23.7202 O   0  0  0  0  0  0  0  0  0  0  0  0
    5.9758  -20.7384   26.8910 C   0  0  0  0  0  0  0  0  0  0  0  0
    5.7072  -21.8405   27.6786 C   0  0  0  0  0  0  0  0  0  0  0  0
    7.5386  -14.3653   20.7706 C   0  0  0  0  0  0  0  0  0  0  0  0
    6.9415  -15.4387   21.5972 C   0  0  2  0  0  0  0  0  0  0  0  0
    5.6896  -15.0124   22.3315 C   0  0  0  0  0  0  0  0  0  0  0  0
    7.9170  -16.1353   22.5428 C   0  0  2  0  0  0  0  0  0  0  0  0
    7.1689  -17.1843   23.2661 N   0  0  0  0  0  0  0  0  0  0  0  0
    8.4829  -15.2442   23.5673 C   0  0  0  0  0  0  0  0  0  0  0  0
    9.3426  -14.3689   23.2474 O   0  0  0  0  0  0  0  0  0  0  0  0
    5.9781  -11.5789   25.8913 C   0  0  0  0  0  0  0  0  0  0  0  0
    7.0520  -12.4794   25.4059 C   0  0  0  0  0  0  0  0  0  0  0  0
    7.7373  -13.3297   26.4422 C   0  0  2  0  0  0  0  0  0  0  0  0
    8.2745  -12.4003   27.4916 C   0  0  0  0  0  0  0  0  0  0  0  0
    8.7048  -14.3188   25.9219 C   0  0  2  0  0  0  0  0  0  0  0  0
    8.1729  -15.2362   24.9382 N   0  0  0  0  0  0  0  0  0  0  0  0
    9.4397  -15.1025   26.9138 C   0  0  0  0  0  0  0  0  0  0  0  0
   10.5042  -14.6515   27.6704 O   0  0  0  0  0  0  0  0  0  0  0  0
    9.1047  -16.2987   27.1277 O   0  0  0  0  0  0  0  0  0  0  0  0
  2  1  1  0
  3  2  2  0
  4  3  1  0
  5  4  2  0
  5 11  1  0
  6  5  1  0
  7  6  1  0
  7  9  1  0
  7  8  1  1
  9 10  2  0
 11 12  2  0
 12  2  1  0
 14 13  1  1
 14 15  1  0
 14 16  1  0
 16 17  1  1
 17  9  1  0
 18 16  1  0
 18 19  2  0
 20 21  1  0
 21 22  1  0
 22 23  1  1
 22 24  1  0
 24 25  1  6
 24 26  1  0
 25 18  1  0
 26 28  2  0
 26 27  1  0
M  END
$$$$
