YVI.pdb
     RDKit          3D

 28 28  0  0  1  0  0  0  0  0999 V2000
   10.2585  -17.3817   29.8200 O   0  0  0  0  0  0  0  0  0  0  0  0
   11.0113  -17.3650   28.6413 C   0  0  0  0  0  0  0  0  0  0  0  0
   10.5844  -17.9983   27.4962 C   0  0  0  0  0  0  0  0  0  0  0  0
   11.3427  -17.9687   26.3457 C   0  0  0  0  0  0  0  0  0  0  0  0
   12.5571  -17.3100   26.2811 C   0  0  0  0  0  0  0  0  0  0  0  0
   13.3776  -17.2752   25.0434 C   0  0  0  0  0  0  0  0  0  0  0  0
   12.4972  -17.7107   23.8945 C   0  0  2  0  0  0  0  0  0  0  0  0
   13.3716  -17.9923   22.7716 N   0  0  0  0  0  0  0  0  0  0  0  0
   11.6082  -16.5557   23.5161 C   0  0  0  0  0  0  0  0  0  0  0  0
   12.1348  -15.4363   23.2384 O   0  0  0  0  0  0  0  0  0  0  0  0
   12.9854  -16.6730   27.4351 C   0  0  0  0  0  0  0  0  0  0  0  0
   12.2203  -16.7066   28.5843 C   0  0  0  0  0  0  0  0  0  0  0  0
    7.7012  -17.0458   21.9502 C   0  0  0  0  0  0  0  0  0  0  0  0
    8.6130  -15.8850   21.8360 C   0  0  2  0  0  0  0  0  0  0  0  0
    9.5511  -15.9657   20.6521 C   0  0  0  0  0  0  0  0  0  0  0  0
    9.3764  -15.5433   23.1134 C   0  0  2  0  0  0  0  0  0  0  0  0
   10.2014  -16.7161   23.4702 N   0  0  0  0  0  0  0  0  0  0  0  0
    8.5046  -15.2790   24.2683 C   0  0  0  0  0  0  0  0  0  0  0  0
    8.4105  -16.1288   25.2047 O   0  0  0  0  0  0  0  0  0  0  0  0
    6.9986  -10.1113   25.1725 C   0  0  0  0  0  0  0  0  0  0  0  0
    7.4207  -11.4266   25.7122 C   0  0  0  0  0  0  0  0  0  0  0  0
    6.3712  -12.5052   25.7548 C   0  0  2  0  0  0  0  0  0  0  0  0
    5.5140  -12.2405   26.9584 C   0  0  0  0  0  0  0  0  0  0  0  0
    6.8707  -13.8908   25.6296 C   0  0  2  0  0  0  0  0  0  0  0  0
    7.7159  -14.1353   24.4816 N   0  0  0  0  0  0  0  0  0  0  0  0
    5.8708  -14.9563   25.6846 C   0  0  0  0  0  0  0  0  0  0  0  0
    5.4481  -15.6076   26.8276 O   0  0  0  0  0  0  0  0  0  0  0  0
    5.3222  -15.3444   24.6182 O   0  0  0  0  0  0  0  0  0  0  0  0
  2  1  1  0
  3  2  2  0
  4  3  1  0
  5  4  2  0
  5 11  1  0
  6  5  1  0
  7  6  1  0
  7  9  1  0
  7  8  1  6
  9 10  2  0
 11 12  2  0
 12  2  1  0
 14 13  1  1
 14 15  1  0
 14 16  1  0
 16 17  1  1
 17  9  1  0
 18 16  1  0
 18 19  2  0
 20 21  1  0
 21 22  1  0
 22 23  1  1
 22 24  1  0
 24 25  1  6
 24 26  1  0
 25 18  1  0
 26 28  2  0
 26 27  1  0
M  END
$$$$
