YVI.pdb
     RDKit          3D

 28 28  0  0  1  0  0  0  0  0999 V2000
    6.3978  -23.1442   28.9897 O   0  0  0  0  0  0  0  0  0  0  0  0
    6.7839  -22.0490   28.2102 C   0  0  0  0  0  0  0  0  0  0  0  0
    7.9945  -21.4188   28.3895 C   0  0  0  0  0  0  0  0  0  0  0  0
    8.3544  -20.3409   27.6096 C   0  0  0  0  0  0  0  0  0  0  0  0
    7.5294  -19.8414   26.6184 C   0  0  0  0  0  0  0  0  0  0  0  0
    7.9131  -18.6802   25.7752 C   0  0  0  0  0  0  0  0  0  0  0  0
    7.7807  -19.0975   24.3285 C   0  0  2  0  0  0  0  0  0  0  0  0
    8.5611  -20.3092   24.1624 N   0  0  0  0  0  0  0  0  0  0  0  0
    8.3952  -18.0247   23.4689 C   0  0  0  0  0  0  0  0  0  0  0  0
    9.6533  -18.0032   23.3135 O   0  0  0  0  0  0  0  0  0  0  0  0
    6.3108  -20.4771   26.4393 C   0  0  0  0  0  0  0  0  0  0  0  0
    5.9568  -21.5566   27.2243 C   0  0  0  0  0  0  0  0  0  0  0  0
    6.1862  -14.5293   21.6777 C   0  0  0  0  0  0  0  0  0  0  0  0
    7.2524  -15.3848   21.1091 C   0  0  2  0  0  0  0  0  0  0  0  0
    6.7317  -16.4860   20.2124 C   0  0  0  0  0  0  0  0  0  0  0  0
    8.2424  -15.9375   22.1317 C   0  0  2  0  0  0  0  0  0  0  0  0
    7.5795  -17.0514   22.8410 N   0  0  0  0  0  0  0  0  0  0  0  0
    8.6340  -14.9615   23.1602 C   0  0  0  0  0  0  0  0  0  0  0  0
    9.4240  -14.0126   22.8717 O   0  0  0  0  0  0  0  0  0  0  0  0
    6.4906  -10.8217   26.7603 C   0  0  0  0  0  0  0  0  0  0  0  0
    7.5824  -11.8143   26.6103 C   0  0  0  0  0  0  0  0  0  0  0  0
    7.3256  -12.9604   25.6684 C   0  0  2  0  0  0  0  0  0  0  0  0
    6.0492  -13.6165   26.1084 C   0  0  0  0  0  0  0  0  0  0  0  0
    8.4635  -13.8787   25.4511 C   0  0  2  0  0  0  0  0  0  0  0  0
    8.2184  -14.9430   24.5028 N   0  0  0  0  0  0  0  0  0  0  0  0
    9.0651  -14.4719   26.6445 C   0  0  0  0  0  0  0  0  0  0  0  0
    9.6952  -13.7782   27.6599 O   0  0  0  0  0  0  0  0  0  0  0  0
    9.0274  -15.7223   26.7990 O   0  0  0  0  0  0  0  0  0  0  0  0
  2  1  1  0
  3  2  2  0
  4  3  1  0
  5  4  2  0
  5 11  1  0
  6  5  1  0
  7  6  1  0
  7  9  1  0
  7  8  1  1
  9 10  2  0
 11 12  2  0
 12  2  1  0
 14 13  1  1
 14 15  1  0
 14 16  1  0
 16 17  1  1
 17  9  1  0
 18 16  1  0
 18 19  2  0
 20 21  1  0
 21 22  1  0
 22 23  1  1
 22 24  1  0
 24 25  1  6
 24 26  1  0
 25 18  1  0
 26 28  2  0
 26 27  1  0
M  END
$$$$
