YVI.pdb
     RDKit          3D

 28 28  0  0  1  0  0  0  0  0999 V2000
   10.2537  -21.3338   28.8823 O   0  0  0  0  0  0  0  0  0  0  0  0
   10.8246  -20.5041   27.9116 C   0  0  0  0  0  0  0  0  0  0  0  0
   11.9100  -19.7032   28.1860 C   0  0  0  0  0  0  0  0  0  0  0  0
   12.4565  -18.8933   27.2139 C   0  0  0  0  0  0  0  0  0  0  0  0
   11.9502  -18.8426   25.9279 C   0  0  0  0  0  0  0  0  0  0  0  0
   12.5360  -17.9715   24.8768 C   0  0  0  0  0  0  0  0  0  0  0  0
   11.7571  -18.2004   23.6019 C   0  0  2  0  0  0  0  0  0  0  0  0
   12.7260  -18.4390   22.5487 N   0  0  0  0  0  0  0  0  0  0  0  0
   11.0096  -16.9358   23.2711 C   0  0  0  0  0  0  0  0  0  0  0  0
   11.6640  -15.8801   23.0170 O   0  0  0  0  0  0  0  0  0  0  0  0
   10.8573  -19.6497   25.6534 C   0  0  0  0  0  0  0  0  0  0  0  0
   10.3150  -20.4587   26.6323 C   0  0  0  0  0  0  0  0  0  0  0  0
    6.9277  -16.7989   22.0090 C   0  0  0  0  0  0  0  0  0  0  0  0
    7.9709  -15.7579   21.8682 C   0  0  2  0  0  0  0  0  0  0  0  0
    8.7536  -15.8554   20.5774 C   0  0  0  0  0  0  0  0  0  0  0  0
    8.9091  -15.6266   23.0655 C   0  0  2  0  0  0  0  0  0  0  0  0
    9.5931  -16.9242   23.2437 N   0  0  0  0  0  0  0  0  0  0  0  0
    8.2143  -15.3435   24.3307 C   0  0  0  0  0  0  0  0  0  0  0  0
    7.8898  -16.2924   25.1067 O   0  0  0  0  0  0  0  0  0  0  0  0
    6.0906  -10.0942   26.1179 C   0  0  0  0  0  0  0  0  0  0  0  0
    6.2870  -11.4671   25.5924 C   0  0  0  0  0  0  0  0  0  0  0  0
    7.0572  -12.4195   26.4680 C   0  0  2  0  0  0  0  0  0  0  0  0
    8.4064  -11.8065   26.7076 C   0  0  0  0  0  0  0  0  0  0  0  0
    7.0758  -13.8284   26.0212 C   0  0  2  0  0  0  0  0  0  0  0  0
    7.8430  -14.0797   24.8211 N   0  0  0  0  0  0  0  0  0  0  0  0
    5.7785  -14.4858   25.8694 C   0  0  0  0  0  0  0  0  0  0  0  0
    4.8980  -14.7786   26.8931 O   0  0  0  0  0  0  0  0  0  0  0  0
    5.3921  -14.8321   24.7207 O   0  0  0  0  0  0  0  0  0  0  0  0
  2  1  1  0
  3  2  2  0
  4  3  1  0
  5  4  2  0
  5 11  1  0
  6  5  1  0
  7  6  1  0
  7  9  1  0
  7  8  1  6
  9 10  2  0
 11 12  2  0
 12  2  1  0
 14 13  1  1
 14 15  1  0
 14 16  1  0
 16 17  1  1
 17  9  1  0
 18 16  1  0
 18 19  2  0
 20 21  1  0
 21 22  1  0
 22 23  1  6
 22 24  1  0
 24 25  1  6
 24 26  1  0
 25 18  1  0
 26 28  2  0
 26 27  1  0
M  END
$$$$
