YKS.pdb
     RDKit          3D

 28 28  0  0  1  0  0  0  0  0999 V2000
   27.8975  -16.0216  -17.0253 O   0  0  0  0  0  0  0  0  0  0  0  0
   27.2463  -14.7873  -17.0767 C   0  0  0  0  0  0  0  0  0  0  0  0
   26.3667  -14.5110  -16.0630 C   0  0  0  0  0  0  0  0  0  0  0  0
   25.6959  -13.3225  -16.0512 C   0  0  0  0  0  0  0  0  0  0  0  0
   25.9223  -12.4116  -17.0766 C   0  0  0  0  0  0  0  0  0  0  0  0
   25.1656  -11.1527  -17.0331 C   0  0  0  0  0  0  0  0  0  0  0  0
   23.7576  -11.3748  -17.5160 C   0  0  2  0  0  0  0  0  0  0  0  0
   23.8939  -11.7380  -18.9418 N   0  0  0  0  0  0  0  0  0  0  0  0
   22.9873  -10.1328  -17.3694 C   0  0  0  0  0  0  0  0  0  0  0  0
   23.0265   -9.2107  -18.2222 O   0  0  0  0  0  0  0  0  0  0  0  0
   26.8021  -12.6698  -18.1048 C   0  0  0  0  0  0  0  0  0  0  0  0
   27.4699  -13.8847  -18.0918 C   0  0  0  0  0  0  0  0  0  0  0  0
   22.1328   -9.8769  -16.2444 N   0  0  0  0  0  0  0  0  0  0  0  0
   21.2595   -8.7245  -16.1734 C   0  0  1  0  0  0  0  0  0  0  0  0
   19.9108   -9.2108  -15.6441 C   0  0  0  0  0  0  0  0  0  0  0  0
   18.9038   -8.1011  -15.6046 C   0  0  0  0  0  0  0  0  0  0  0  0
   17.6310   -8.6597  -14.9878 C   0  0  0  0  0  0  0  0  0  0  0  0
   16.5141   -7.6260  -15.0404 C   0  0  0  0  0  0  0  0  0  0  0  0
   15.2986   -8.2339  -14.5413 N   0  0  0  0  0  0  0  0  0  0  0  0
   21.8363   -7.7322  -15.2318 C   0  0  0  0  0  0  0  0  0  0  0  0
   22.3368   -8.0702  -14.1156 O   0  0  0  0  0  0  0  0  0  0  0  0
   22.2182   -3.6850  -16.3295 O   0  0  0  0  0  0  0  0  0  0  0  0
   23.1848   -4.2963  -15.5596 C   0  0  0  0  0  0  0  0  0  0  0  0
   22.5681   -5.4102  -14.7563 C   0  0  2  0  0  0  0  0  0  0  0  0
   21.8495   -6.3561  -15.5477 N   0  0  0  0  0  0  0  0  0  0  0  0
   21.7230   -4.8098  -13.6784 C   0  0  0  0  0  0  0  0  0  0  0  0
   22.3926   -4.0386  -12.7378 O   0  0  0  0  0  0  0  0  0  0  0  0
   20.4901   -4.9734  -13.6022 O   0  0  0  0  0  0  0  0  0  0  0  0
  2  1  1  0
  3  2  2  0
  4  3  1  0
  5 11  1  0
  5  4  2  0
  6  5  1  0
  7  6  1  0
  7  8  1  6
  9  7  1  0
  9 10  2  0
 11 12  2  0
 12  2  1  0
 13  9  1  0
 14 13  1  0
 14 15  1  1
 16 15  1  0
 16 17  1  0
 18 17  1  0
 19 18  1  0
 20 14  1  0
 21 20  2  0
 23 22  1  0
 24 23  1  6
 24 25  1  0
 25 20  1  0
 26 24  1  0
 27 26  1  0
 28 26  2  0
M  END
$$$$
