YKS.pdb
     RDKit          3D

 28 28  0  0  1  0  0  0  0  0999 V2000
   28.9928  -18.5192   -3.5702 O   0  0  0  0  0  0  0  0  0  0  0  0
   28.4986  -18.9982   -4.7852 C   0  0  0  0  0  0  0  0  0  0  0  0
   28.8303  -20.2843   -5.1222 C   0  0  0  0  0  0  0  0  0  0  0  0
   28.3808  -20.8160   -6.2961 C   0  0  0  0  0  0  0  0  0  0  0  0
   27.5899  -20.0341   -7.1301 C   0  0  0  0  0  0  0  0  0  0  0  0
   27.1430  -20.6411   -8.3915 C   0  0  0  0  0  0  0  0  0  0  0  0
   25.6585  -20.4594   -8.5594 C   0  0  2  0  0  0  0  0  0  0  0  0
   25.0487  -21.2744   -7.4883 N   0  0  0  0  0  0  0  0  0  0  0  0
   25.2505  -20.9527   -9.8813 C   0  0  0  0  0  0  0  0  0  0  0  0
   25.3358  -22.1641  -10.2045 O   0  0  0  0  0  0  0  0  0  0  0  0
   27.2452  -18.7393   -6.8101 C   0  0  0  0  0  0  0  0  0  0  0  0
   27.7154  -18.2246   -5.6118 C   0  0  0  0  0  0  0  0  0  0  0  0
   24.7245  -20.0923  -10.9032 N   0  0  0  0  0  0  0  0  0  0  0  0
   24.3696  -20.5727  -12.2220 C   0  0  1  0  0  0  0  0  0  0  0  0
   23.2545  -19.6693  -12.7475 C   0  0  0  0  0  0  0  0  0  0  0  0
   22.8253  -20.0720  -14.1262 C   0  0  0  0  0  0  0  0  0  0  0  0
   21.8185  -19.0409  -14.6116 C   0  0  0  0  0  0  0  0  0  0  0  0
   21.2443  -19.4499  -15.9614 C   0  0  0  0  0  0  0  0  0  0  0  0
   20.2710  -18.4584  -16.3685 N   0  0  0  0  0  0  0  0  0  0  0  0
   25.5532  -20.4734  -13.1125 C   0  0  0  0  0  0  0  0  0  0  0  0
   26.4311  -19.5677  -12.9726 O   0  0  0  0  0  0  0  0  0  0  0  0
   27.4885  -23.4722  -15.0572 O   0  0  0  0  0  0  0  0  0  0  0  0
   27.9356  -22.1713  -14.9653 C   0  0  0  0  0  0  0  0  0  0  0  0
   26.7798  -21.2215  -15.1347 C   0  0  2  0  0  0  0  0  0  0  0  0
   25.7488  -21.3962  -14.1632 N   0  0  0  0  0  0  0  0  0  0  0  0
   26.2687  -21.3370  -16.5355 C   0  0  0  0  0  0  0  0  0  0  0  0
   27.2082  -21.1630  -17.5430 O   0  0  0  0  0  0  0  0  0  0  0  0
   25.0776  -21.5743  -16.8137 O   0  0  0  0  0  0  0  0  0  0  0  0
  2  1  1  0
  3  2  2  0
  4  3  1  0
  5 11  1  0
  5  4  2  0
  6  5  1  0
  7  6  1  0
  7  8  1  1
  9  7  1  0
  9 10  2  0
 11 12  2  0
 12  2  1  0
 13  9  1  0
 14 13  1  0
 14 15  1  6
 16 15  1  0
 16 17  1  0
 18 17  1  0
 19 18  1  0
 20 14  1  0
 21 20  2  0
 23 22  1  0
 24 23  1  1
 24 25  1  0
 25 20  1  0
 26 24  1  0
 27 26  1  0
 28 26  2  0
M  END
$$$$
