YKS.pdb
     RDKit          3D

 28 28  0  0  1  0  0  0  0  0999 V2000
   31.6243   -7.7987  -17.4474 O   0  0  0  0  0  0  0  0  0  0  0  0
   30.8131   -8.7396  -18.0852 C   0  0  0  0  0  0  0  0  0  0  0  0
   31.3801   -9.4481  -19.1120 C   0  0  0  0  0  0  0  0  0  0  0  0
   30.6437  -10.3838  -19.7789 C   0  0  0  0  0  0  0  0  0  0  0  0
   29.3241  -10.5987  -19.3981 C   0  0  0  0  0  0  0  0  0  0  0  0
   28.5637  -11.6028  -20.1550 C   0  0  0  0  0  0  0  0  0  0  0  0
   28.4549  -12.8785  -19.3639 C   0  0  2  0  0  0  0  0  0  0  0  0
   29.8209  -13.4420  -19.3550 N   0  0  0  0  0  0  0  0  0  0  0  0
   27.5217  -13.7932  -20.0344 C   0  0  0  0  0  0  0  0  0  0  0  0
   27.9111  -14.7202  -20.7883 O   0  0  0  0  0  0  0  0  0  0  0  0
   28.7353   -9.8973  -18.3690 C   0  0  0  0  0  0  0  0  0  0  0  0
   29.5063   -8.9530  -17.7088 C   0  0  0  0  0  0  0  0  0  0  0  0
   26.0973  -13.6996  -19.8813 N   0  0  0  0  0  0  0  0  0  0  0  0
   25.1824  -14.6372  -20.4975 C   0  0  1  0  0  0  0  0  0  0  0  0
   24.2207  -15.1127  -19.4090 C   0  0  0  0  0  0  0  0  0  0  0  0
   23.3097  -16.1908  -19.9138 C   0  0  0  0  0  0  0  0  0  0  0  0
   22.4407  -16.6383  -18.7488 C   0  0  0  0  0  0  0  0  0  0  0  0
   21.4563  -17.7099  -19.1979 C   0  0  0  0  0  0  0  0  0  0  0  0
   20.6324  -18.0828  -18.0674 N   0  0  0  0  0  0  0  0  0  0  0  0
   24.4214  -13.9450  -21.5678 C   0  0  0  0  0  0  0  0  0  0  0  0
   24.0203  -12.7472  -21.4462 O   0  0  0  0  0  0  0  0  0  0  0  0
   24.8439  -14.8248  -25.5223 O   0  0  0  0  0  0  0  0  0  0  0  0
   23.5232  -14.6644  -25.1605 C   0  0  0  0  0  0  0  0  0  0  0  0
   23.4395  -13.9356  -23.8457 C   0  0  2  0  0  0  0  0  0  0  0  0
   24.1112  -14.6032  -22.7778 N   0  0  0  0  0  0  0  0  0  0  0  0
   22.0000  -13.6718  -23.5373 C   0  0  0  0  0  0  0  0  0  0  0  0
   21.2824  -12.9930  -24.5131 O   0  0  0  0  0  0  0  0  0  0  0  0
   21.4493  -14.0272  -22.4776 O   0  0  0  0  0  0  0  0  0  0  0  0
  2  1  1  0
  3  2  2  0
  4  3  1  0
  5 11  1  0
  5  4  2  0
  6  5  1  0
  7  6  1  0
  7  8  1  6
  9  7  1  0
  9 10  2  0
 11 12  2  0
 12  2  1  0
 13  9  1  0
 14 13  1  0
 14 15  1  1
 16 15  1  0
 16 17  1  0
 18 17  1  0
 19 18  1  0
 20 14  1  0
 21 20  2  0
 23 22  1  0
 24 23  1  6
 24 25  1  0
 25 20  1  0
 26 24  1  0
 27 26  1  0
 28 26  2  0
M  END
$$$$
