YKS.pdb
     RDKit          3D

 28 28  0  0  1  0  0  0  0  0999 V2000
   12.1931  -13.2584  -16.6024 O   0  0  0  0  0  0  0  0  0  0  0  0
   13.4054  -12.6500  -16.2704 C   0  0  0  0  0  0  0  0  0  0  0  0
   13.8622  -11.6790  -17.1225 C   0  0  0  0  0  0  0  0  0  0  0  0
   15.0406  -11.0433  -16.8582 C   0  0  0  0  0  0  0  0  0  0  0  0
   15.7567  -11.3984  -15.7208 C   0  0  0  0  0  0  0  0  0  0  0  0
   17.0283  -10.7006  -15.4850 C   0  0  0  0  0  0  0  0  0  0  0  0
   18.1604  -11.4468  -16.1380 C   0  0  2  0  0  0  0  0  0  0  0  0
   18.3876  -12.6275  -15.2789 N   0  0  0  0  0  0  0  0  0  0  0  0
   19.3553  -10.5934  -16.1717 C   0  0  0  0  0  0  0  0  0  0  0  0
   20.0402  -10.3518  -15.1462 O   0  0  0  0  0  0  0  0  0  0  0  0
   15.3153  -12.3717  -14.8515 C   0  0  0  0  0  0  0  0  0  0  0  0
   14.1152  -13.0011  -15.1443 C   0  0  0  0  0  0  0  0  0  0  0  0
   19.8318   -9.9711  -17.3746 N   0  0  0  0  0  0  0  0  0  0  0  0
   20.9900   -9.1030  -17.3986 C   0  0  1  0  0  0  0  0  0  0  0  0
   21.4465   -8.9979  -18.8534 C   0  0  0  0  0  0  0  0  0  0  0  0
   22.6168   -8.0721  -18.9962 C   0  0  0  0  0  0  0  0  0  0  0  0
   23.0053   -8.0489  -20.4663 C   0  0  0  0  0  0  0  0  0  0  0  0
   24.1988   -7.1296  -20.6886 C   0  0  0  0  0  0  0  0  0  0  0  0
   24.5019   -7.1007  -22.1039 N   0  0  0  0  0  0  0  0  0  0  0  0
   20.6036   -7.7595  -16.8989 C   0  0  0  0  0  0  0  0  0  0  0  0
   19.4408   -7.2818  -17.0728 O   0  0  0  0  0  0  0  0  0  0  0  0
   20.0053   -5.7754  -13.1106 O   0  0  0  0  0  0  0  0  0  0  0  0
   20.3684   -6.7156  -14.0514 C   0  0  0  0  0  0  0  0  0  0  0  0
   21.1151   -6.0495  -15.1763 C   0  0  2  0  0  0  0  0  0  0  0  0
   21.5286   -6.9521  -16.2018 N   0  0  0  0  0  0  0  0  0  0  0  0
   22.2599   -5.2795  -14.5989 C   0  0  0  0  0  0  0  0  0  0  0  0
   23.5255   -5.6556  -15.0287 O   0  0  0  0  0  0  0  0  0  0  0  0
   22.1185   -4.3513  -13.7798 O   0  0  0  0  0  0  0  0  0  0  0  0
  2  1  1  0
  3  2  2  0
  4  3  1  0
  5 11  1  0
  5  4  2  0
  6  5  1  0
  7  6  1  0
  7  8  1  1
  9  7  1  0
  9 10  2  0
 11 12  2  0
 12  2  1  0
 13  9  1  0
 14 13  1  0
 14 15  1  6
 16 15  1  0
 16 17  1  0
 18 17  1  0
 19 18  1  0
 20 14  1  0
 21 20  2  0
 23 22  1  0
 24 23  1  1
 24 25  1  0
 25 20  1  0
 26 24  1  0
 27 26  1  0
 28 26  2  0
M  END
$$$$
