YKS.pdb
     RDKit          3D

 28 28  0  0  1  0  0  0  0  0999 V2000
   22.7264  -20.1576  -18.8691 O   0  0  0  0  0  0  0  0  0  0  0  0
   23.0670  -18.8227  -18.6409 C   0  0  0  0  0  0  0  0  0  0  0  0
   22.5718  -18.2458  -17.5008 C   0  0  0  0  0  0  0  0  0  0  0  0
   22.8657  -16.9438  -17.2160 C   0  0  0  0  0  0  0  0  0  0  0  0
   23.6675  -16.2265  -18.0963 C   0  0  0  0  0  0  0  0  0  0  0  0
   23.9437  -14.8232  -17.7589 C   0  0  0  0  0  0  0  0  0  0  0  0
   25.3873  -14.4967  -18.0313 C   0  0  2  0  0  0  0  0  0  0  0  0
   26.1555  -15.3474  -17.0986 N   0  0  0  0  0  0  0  0  0  0  0  0
   25.6292  -13.0748  -17.7540 C   0  0  0  0  0  0  0  0  0  0  0  0
   25.7580  -12.6281  -16.5865 O   0  0  0  0  0  0  0  0  0  0  0  0
   24.1752  -16.7875  -19.2476 C   0  0  0  0  0  0  0  0  0  0  0  0
   23.8609  -18.1116  -19.5122 C   0  0  0  0  0  0  0  0  0  0  0  0
   25.7370  -12.0884  -18.7916 N   0  0  0  0  0  0  0  0  0  0  0  0
   25.9710  -10.6867  -18.5152 C   0  0  1  0  0  0  0  0  0  0  0  0
   26.7616  -10.1191  -19.6935 C   0  0  0  0  0  0  0  0  0  0  0  0
   28.1597  -10.6587  -19.7278 C   0  0  0  0  0  0  0  0  0  0  0  0
   29.0025   -9.8058  -18.7926 C   0  0  0  0  0  0  0  0  0  0  0  0
   30.4555  -10.2607  -18.8192 C   0  0  0  0  0  0  0  0  0  0  0  0
   31.2253   -9.3984  -17.9475 N   0  0  0  0  0  0  0  0  0  0  0  0
   24.6666   -9.9863  -18.4060 C   0  0  0  0  0  0  0  0  0  0  0  0
   23.6802  -10.2733  -19.1511 O   0  0  0  0  0  0  0  0  0  0  0  0
   21.0218   -8.9328  -16.2934 O   0  0  0  0  0  0  0  0  0  0  0  0
   22.2429   -9.5031  -16.5841 C   0  0  0  0  0  0  0  0  0  0  0  0
   23.1724   -8.4600  -17.1447 C   0  0  2  0  0  0  0  0  0  0  0  0
   24.4726   -8.9602  -17.4557 N   0  0  0  0  0  0  0  0  0  0  0  0
   23.2181   -7.3032  -16.1979 C   0  0  0  0  0  0  0  0  0  0  0  0
   22.0072   -6.6705  -15.9502 O   0  0  0  0  0  0  0  0  0  0  0  0
   24.2641   -6.9073  -15.6486 O   0  0  0  0  0  0  0  0  0  0  0  0
  2  1  1  0
  3  2  2  0
  4  3  1  0
  5 11  1  0
  5  4  2  0
  6  5  1  0
  7  6  1  0
  7  8  1  1
  9  7  1  0
  9 10  2  0
 11 12  2  0
 12  2  1  0
 13  9  1  0
 14 13  1  0
 14 15  1  6
 16 15  1  0
 16 17  1  0
 18 17  1  0
 19 18  1  0
 20 14  1  0
 21 20  2  0
 23 22  1  0
 24 23  1  1
 24 25  1  0
 25 20  1  0
 26 24  1  0
 27 26  1  0
 28 26  2  0
M  END
$$$$
