YKS.pdb
     RDKit          3D

 28 28  0  0  1  0  0  0  0  0999 V2000
   26.4828  -19.9036   -6.0016 O   0  0  0  0  0  0  0  0  0  0  0  0
   26.4506  -20.1489   -7.3760 C   0  0  0  0  0  0  0  0  0  0  0  0
   27.1958  -19.3161   -8.1690 C   0  0  0  0  0  0  0  0  0  0  0  0
   27.2098  -19.4992   -9.5214 C   0  0  0  0  0  0  0  0  0  0  0  0
   26.4614  -20.5353  -10.0681 C   0  0  0  0  0  0  0  0  0  0  0  0
   26.4920  -20.6845  -11.5297 C   0  0  0  0  0  0  0  0  0  0  0  0
   25.3892  -19.8763  -12.1586 C   0  0  2  0  0  0  0  0  0  0  0  0
   24.2143  -20.7725  -12.1679 N   0  0  0  0  0  0  0  0  0  0  0  0
   25.7707  -19.5086  -13.5285 C   0  0  0  0  0  0  0  0  0  0  0  0
   25.5480  -20.2560  -14.5139 O   0  0  0  0  0  0  0  0  0  0  0  0
   25.7056  -21.3834   -9.2889 C   0  0  0  0  0  0  0  0  0  0  0  0
   25.7097  -21.1745   -7.9183 C   0  0  0  0  0  0  0  0  0  0  0  0
   26.4254  -18.2712  -13.8469 N   0  0  0  0  0  0  0  0  0  0  0  0
   26.7028  -17.8622  -15.2076 C   0  0  1  0  0  0  0  0  0  0  0  0
   27.2315  -16.4293  -15.1504 C   0  0  0  0  0  0  0  0  0  0  0  0
   27.4917  -15.8848  -16.5225 C   0  0  0  0  0  0  0  0  0  0  0  0
   26.1617  -15.8444  -17.2588 C   0  0  0  0  0  0  0  0  0  0  0  0
   26.3601  -15.3757  -18.6940 C   0  0  0  0  0  0  0  0  0  0  0  0
   25.0649  -15.2917  -19.3354 N   0  0  0  0  0  0  0  0  0  0  0  0
   27.7405  -18.7540  -15.7835 C   0  0  0  0  0  0  0  0  0  0  0  0
   28.7366  -19.1570  -15.1083 O   0  0  0  0  0  0  0  0  0  0  0  0
   27.0236  -21.2157  -18.9444 O   0  0  0  0  0  0  0  0  0  0  0  0
   28.1215  -21.3840  -18.1277 C   0  0  0  0  0  0  0  0  0  0  0  0
   28.6495  -20.0406  -17.6996 C   0  0  2  0  0  0  0  0  0  0  0  0
   27.6564  -19.1930  -17.1228 N   0  0  0  0  0  0  0  0  0  0  0  0
   29.3348  -19.4035  -18.8664 C   0  0  0  0  0  0  0  0  0  0  0  0
   28.8527  -18.1596  -19.2513 O   0  0  0  0  0  0  0  0  0  0  0  0
   30.2838  -19.9321  -19.4767 O   0  0  0  0  0  0  0  0  0  0  0  0
  2  1  1  0
  3  2  2  0
  4  3  1  0
  5 11  1  0
  5  4  2  0
  6  5  1  0
  7  6  1  0
  7  8  1  6
  9  7  1  0
  9 10  2  0
 11 12  2  0
 12  2  1  0
 13  9  1  0
 14 13  1  0
 14 15  1  1
 16 15  1  0
 16 17  1  0
 18 17  1  0
 19 18  1  0
 20 14  1  0
 21 20  2  0
 23 22  1  0
 24 23  1  6
 24 25  1  0
 25 20  1  0
 26 24  1  0
 27 26  1  0
 28 26  2  0
M  END
$$$$
