YKS.pdb
     RDKit          3D

 28 28  0  0  1  0  0  0  0  0999 V2000
   28.1546  -19.4114   -4.6414 O   0  0  0  0  0  0  0  0  0  0  0  0
   27.8650  -19.5655   -5.9988 C   0  0  0  0  0  0  0  0  0  0  0  0
   28.7771  -19.0566   -6.8859 C   0  0  0  0  0  0  0  0  0  0  0  0
   28.5566  -19.1725   -8.2277 C   0  0  0  0  0  0  0  0  0  0  0  0
   27.4021  -19.8097   -8.6677 C   0  0  0  0  0  0  0  0  0  0  0  0
   27.1971  -19.8962  -10.1203 C   0  0  0  0  0  0  0  0  0  0  0  0
   26.6861  -21.2617  -10.4933 C   0  0  2  0  0  0  0  0  0  0  0  0
   27.8942  -22.0471  -10.8209 N   0  0  0  0  0  0  0  0  0  0  0  0
   25.8061  -21.1529  -11.6643 C   0  0  0  0  0  0  0  0  0  0  0  0
   26.2391  -21.2237  -12.8418 O   0  0  0  0  0  0  0  0  0  0  0  0
   26.4728  -20.3280   -7.7928 C   0  0  0  0  0  0  0  0  0  0  0  0
   26.7220  -20.1963   -6.4354 C   0  0  0  0  0  0  0  0  0  0  0  0
   24.3879  -20.9579  -11.5548 N   0  0  0  0  0  0  0  0  0  0  0  0
   23.5008  -21.0194  -12.6971 C   0  0  1  0  0  0  0  0  0  0  0  0
   22.0753  -21.1316  -12.1574 C   0  0  0  0  0  0  0  0  0  0  0  0
   21.0761  -21.2582  -13.2676 C   0  0  0  0  0  0  0  0  0  0  0  0
   21.2920  -22.6122  -13.9253 C   0  0  0  0  0  0  0  0  0  0  0  0
   20.3792  -22.7700  -15.1340 C   0  0  0  0  0  0  0  0  0  0  0  0
   20.6405  -24.0562  -15.7450 N   0  0  0  0  0  0  0  0  0  0  0  0
   23.6375  -19.7712  -13.4891 C   0  0  0  0  0  0  0  0  0  0  0  0
   23.4652  -18.6229  -12.9770 O   0  0  0  0  0  0  0  0  0  0  0  0
   25.7251  -19.6229  -17.0219 O   0  0  0  0  0  0  0  0  0  0  0  0
   25.4235  -18.4775  -16.3162 C   0  0  0  0  0  0  0  0  0  0  0  0
   24.0842  -18.6294  -15.6454 C   0  0  2  0  0  0  0  0  0  0  0  0
   23.9688  -19.8162  -14.8609 N   0  0  0  0  0  0  0  0  0  0  0  0
   23.0151  -18.5279  -16.6863 C   0  0  0  0  0  0  0  0  0  0  0  0
   23.0661  -17.4073  -17.5047 O   0  0  0  0  0  0  0  0  0  0  0  0
   22.1192  -19.3810  -16.8349 O   0  0  0  0  0  0  0  0  0  0  0  0
  2  1  1  0
  3  2  2  0
  4  3  1  0
  5 11  1  0
  5  4  2  0
  6  5  1  0
  7  6  1  0
  7  8  1  6
  9  7  1  0
  9 10  2  0
 11 12  2  0
 12  2  1  0
 13  9  1  0
 14 13  1  0
 14 15  1  1
 16 15  1  0
 16 17  1  0
 18 17  1  0
 19 18  1  0
 20 14  1  0
 21 20  2  0
 23 22  1  0
 24 23  1  6
 24 25  1  0
 25 20  1  0
 26 24  1  0
 27 26  1  0
 28 26  2  0
M  END
$$$$
