YKS.pdb
     RDKit          3D

 28 28  0  0  1  0  0  0  0  0999 V2000
   30.2936  -19.2970   -4.0497 O   0  0  0  0  0  0  0  0  0  0  0  0
   29.3932  -19.6410   -5.0602 C   0  0  0  0  0  0  0  0  0  0  0  0
   28.2868  -18.8444   -5.1981 C   0  0  0  0  0  0  0  0  0  0  0  0
   27.3658  -19.1234   -6.1659 C   0  0  0  0  0  0  0  0  0  0  0  0
   27.5729  -20.2186   -6.9966 C   0  0  0  0  0  0  0  0  0  0  0  0
   26.5472  -20.4918   -8.0128 C   0  0  0  0  0  0  0  0  0  0  0  0
   27.1927  -20.9356   -9.2978 C   0  0  2  0  0  0  0  0  0  0  0  0
   28.5468  -20.3444   -9.2709 N   0  0  0  0  0  0  0  0  0  0  0  0
   26.4241  -20.4174  -10.4371 C   0  0  0  0  0  0  0  0  0  0  0  0
   26.5951  -19.2597  -10.8950 O   0  0  0  0  0  0  0  0  0  0  0  0
   28.6781  -21.0319   -6.8745 C   0  0  0  0  0  0  0  0  0  0  0  0
   29.5975  -20.7254   -5.8832 C   0  0  0  0  0  0  0  0  0  0  0  0
   25.4213  -21.1906  -11.1137 N   0  0  0  0  0  0  0  0  0  0  0  0
   24.7826  -20.7444  -12.3338 C   0  0  1  0  0  0  0  0  0  0  0  0
   25.6914  -21.1486  -13.4942 C   0  0  0  0  0  0  0  0  0  0  0  0
   25.1008  -20.7592  -14.8158 C   0  0  0  0  0  0  0  0  0  0  0  0
   26.0291  -21.2782  -15.9027 C   0  0  0  0  0  0  0  0  0  0  0  0
   25.5307  -20.8541  -17.2777 C   0  0  0  0  0  0  0  0  0  0  0  0
   26.4852  -21.2977  -18.2717 N   0  0  0  0  0  0  0  0  0  0  0  0
   23.4677  -21.4197  -12.4716 C   0  0  0  0  0  0  0  0  0  0  0  0
   23.3141  -22.6565  -12.2328 O   0  0  0  0  0  0  0  0  0  0  0  0
   19.7921  -19.4031  -12.4813 O   0  0  0  0  0  0  0  0  0  0  0  0
   19.9824  -20.7252  -12.1399 C   0  0  0  0  0  0  0  0  0  0  0  0
   21.0489  -21.3293  -13.0141 C   0  0  2  0  0  0  0  0  0  0  0  0
   22.3231  -20.7005  -12.8794 N   0  0  0  0  0  0  0  0  0  0  0  0
   20.5614  -21.3326  -14.4280 C   0  0  0  0  0  0  0  0  0  0  0  0
   19.4232  -22.0875  -14.6782 O   0  0  0  0  0  0  0  0  0  0  0  0
   21.1212  -20.7059  -15.3480 O   0  0  0  0  0  0  0  0  0  0  0  0
  2  1  1  0
  3  2  2  0
  4  3  1  0
  5 11  1  0
  5  4  2  0
  6  5  1  0
  7  6  1  0
  7  8  1  6
  9  7  1  0
  9 10  2  0
 11 12  2  0
 12  2  1  0
 13  9  1  0
 14 13  1  0
 14 15  1  6
 16 15  1  0
 16 17  1  0
 18 17  1  0
 19 18  1  0
 20 14  1  0
 21 20  2  0
 23 22  1  0
 24 23  1  1
 24 25  1  0
 25 20  1  0
 26 24  1  0
 27 26  1  0
 28 26  2  0
M  END
$$$$
