YKS.pdb
     RDKit          3D

 28 28  0  0  1  0  0  0  0  0999 V2000
   24.8064  -20.7434   -7.5627 O   0  0  0  0  0  0  0  0  0  0  0  0
   24.6900  -20.8304   -8.9516 C   0  0  0  0  0  0  0  0  0  0  0  0
   25.6361  -21.5763   -9.6044 C   0  0  0  0  0  0  0  0  0  0  0  0
   25.5821  -21.7036  -10.9622 C   0  0  0  0  0  0  0  0  0  0  0  0
   24.5599  -21.0681  -11.6578 C   0  0  0  0  0  0  0  0  0  0  0  0
   24.5509  -21.2179  -13.1196 C   0  0  0  0  0  0  0  0  0  0  0  0
   25.6294  -20.3685  -13.7364 C   0  0  2  0  0  0  0  0  0  0  0  0
   25.2348  -18.9750  -13.4433 N   0  0  0  0  0  0  0  0  0  0  0  0
   25.6681  -20.6017  -15.1861 C   0  0  0  0  0  0  0  0  0  0  0  0
   24.8415  -20.0790  -15.9752 O   0  0  0  0  0  0  0  0  0  0  0  0
   23.5993  -20.3137  -11.0207 C   0  0  0  0  0  0  0  0  0  0  0  0
   23.6782  -20.2014   -9.6412 C   0  0  0  0  0  0  0  0  0  0  0  0
   26.6498  -21.4419  -15.8118 N   0  0  0  0  0  0  0  0  0  0  0  0
   26.8231  -21.5042  -17.2477 C   0  0  1  0  0  0  0  0  0  0  0  0
   28.1980  -22.1174  -17.5113 C   0  0  0  0  0  0  0  0  0  0  0  0
   28.4741  -22.2358  -18.9799 C   0  0  0  0  0  0  0  0  0  0  0  0
   29.8674  -22.8244  -19.1376 C   0  0  0  0  0  0  0  0  0  0  0  0
   30.3154  -22.7535  -20.5913 C   0  0  0  0  0  0  0  0  0  0  0  0
   31.6749  -23.2433  -20.6798 N   0  0  0  0  0  0  0  0  0  0  0  0
   25.7696  -22.3736  -17.8292 C   0  0  0  0  0  0  0  0  0  0  0  0
   25.2605  -23.3420  -17.1862 O   0  0  0  0  0  0  0  0  0  0  0  0
   22.6027  -21.1192  -19.9958 O   0  0  0  0  0  0  0  0  0  0  0  0
   22.8386  -22.2592  -19.2571 C   0  0  0  0  0  0  0  0  0  0  0  0
   24.1610  -22.8595  -19.6540 C   0  0  2  0  0  0  0  0  0  0  0  0
   25.2883  -22.1520  -19.1380 N   0  0  0  0  0  0  0  0  0  0  0  0
   24.2000  -22.9852  -21.1438 C   0  0  0  0  0  0  0  0  0  0  0  0
   25.2123  -22.2863  -21.7878 O   0  0  0  0  0  0  0  0  0  0  0  0
   23.3872  -23.6682  -21.7960 O   0  0  0  0  0  0  0  0  0  0  0  0
  2  1  1  0
  3  2  2  0
  4  3  1  0
  5 11  1  0
  5  4  2  0
  6  5  1  0
  7  6  1  0
  7  8  1  6
  9  7  1  0
  9 10  2  0
 11 12  2  0
 12  2  1  0
 13  9  1  0
 14 13  1  0
 14 15  1  1
 16 15  1  0
 16 17  1  0
 18 17  1  0
 19 18  1  0
 20 14  1  0
 21 20  2  0
 23 22  1  0
 24 23  1  6
 24 25  1  0
 25 20  1  0
 26 24  1  0
 27 26  1  0
 28 26  2  0
M  END
$$$$
