YKS.pdb
     RDKit          3D

 28 28  0  0  1  0  0  0  0  0999 V2000
   24.4544  -20.5914   -8.0708 O   0  0  0  0  0  0  0  0  0  0  0  0
   24.8451  -20.4913   -9.4078 C   0  0  0  0  0  0  0  0  0  0  0  0
   26.1900  -20.5519   -9.6637 C   0  0  0  0  0  0  0  0  0  0  0  0
   26.6413  -20.4606  -10.9485 C   0  0  0  0  0  0  0  0  0  0  0  0
   25.7186  -20.3068  -11.9768 C   0  0  0  0  0  0  0  0  0  0  0  0
   26.2502  -20.1950  -13.3423 C   0  0  0  0  0  0  0  0  0  0  0  0
   25.8649  -21.4042  -14.1513 C   0  0  2  0  0  0  0  0  0  0  0  0
   26.9248  -22.3984  -13.8837 N   0  0  0  0  0  0  0  0  0  0  0  0
   25.8343  -21.0510  -15.5767 C   0  0  0  0  0  0  0  0  0  0  0  0
   26.8775  -20.8045  -16.2326 O   0  0  0  0  0  0  0  0  0  0  0  0
   24.3628  -20.2434  -11.7410 C   0  0  0  0  0  0  0  0  0  0  0  0
   23.9321  -20.3389  -10.4267 C   0  0  0  0  0  0  0  0  0  0  0  0
   24.6146  -20.9602  -16.3285 N   0  0  0  0  0  0  0  0  0  0  0  0
   24.5940  -20.8205  -17.7693 C   0  0  1  0  0  0  0  0  0  0  0  0
   23.7514  -21.9689  -18.3232 C   0  0  0  0  0  0  0  0  0  0  0  0
   24.6114  -23.0956  -18.8110 C   0  0  0  0  0  0  0  0  0  0  0  0
   25.0233  -23.9153  -17.5981 C   0  0  0  0  0  0  0  0  0  0  0  0
   25.9324  -25.0640  -18.0139 C   0  0  0  0  0  0  0  0  0  0  0  0
   26.3879  -25.7470  -16.8215 N   0  0  0  0  0  0  0  0  0  0  0  0
   23.9650  -19.5237  -18.1250 C   0  0  0  0  0  0  0  0  0  0  0  0
   23.1789  -18.9143  -17.3369 O   0  0  0  0  0  0  0  0  0  0  0  0
   24.3555  -17.7556  -21.9693 O   0  0  0  0  0  0  0  0  0  0  0  0
   24.3808  -16.9559  -20.8464 C   0  0  0  0  0  0  0  0  0  0  0  0
   23.6645  -17.6432  -19.7146 C   0  0  2  0  0  0  0  0  0  0  0  0
   24.2218  -18.9116  -19.3712 N   0  0  0  0  0  0  0  0  0  0  0  0
   22.2107  -17.7324  -20.0542 C   0  0  0  0  0  0  0  0  0  0  0  0
   21.5648  -16.5258  -20.2886 O   0  0  0  0  0  0  0  0  0  0  0  0
   21.5888  -18.8094  -20.1299 O   0  0  0  0  0  0  0  0  0  0  0  0
  2  1  1  0
  3  2  2  0
  4  3  1  0
  5 11  1  0
  5  4  2  0
  6  5  1  0
  7  6  1  0
  7  8  1  6
  9  7  1  0
  9 10  2  0
 11 12  2  0
 12  2  1  0
 13  9  1  0
 14 13  1  0
 14 15  1  6
 16 15  1  0
 16 17  1  0
 18 17  1  0
 19 18  1  0
 20 14  1  0
 21 20  2  0
 23 22  1  0
 24 23  1  6
 24 25  1  0
 25 20  1  0
 26 24  1  0
 27 26  1  0
 28 26  2  0
M  END
$$$$
