YKS.pdb
     RDKit          3D

 28 28  0  0  1  0  0  0  0  0999 V2000
   20.1150  -22.5940   -7.7540 O   0  0  0  0  0  0  0  0  0  0  0  0
   20.9989  -22.0396   -8.6821 C   0  0  0  0  0  0  0  0  0  0  0  0
   21.7584  -20.9818   -8.2553 C   0  0  0  0  0  0  0  0  0  0  0  0
   22.6431  -20.3923   -9.1111 C   0  0  0  0  0  0  0  0  0  0  0  0
   22.7546  -20.8825  -10.4071 C   0  0  0  0  0  0  0  0  0  0  0  0
   23.7067  -20.2063  -11.2992 C   0  0  0  0  0  0  0  0  0  0  0  0
   24.8028  -21.1543  -11.7052 C   0  0  2  0  0  0  0  0  0  0  0  0
   25.6822  -21.2533  -10.5219 N   0  0  0  0  0  0  0  0  0  0  0  0
   25.5352  -20.5958  -12.8493 C   0  0  0  0  0  0  0  0  0  0  0  0
   26.3112  -19.6136  -12.7385 O   0  0  0  0  0  0  0  0  0  0  0  0
   22.0006  -21.9445  -10.8560 C   0  0  0  0  0  0  0  0  0  0  0  0
   21.1099  -22.5243   -9.9657 C   0  0  0  0  0  0  0  0  0  0  0  0
   25.4217  -21.1267  -14.1784 N   0  0  0  0  0  0  0  0  0  0  0  0
   26.2419  -20.6625  -15.2773 C   0  0  1  0  0  0  0  0  0  0  0  0
   27.0437  -21.8619  -15.7816 C   0  0  0  0  0  0  0  0  0  0  0  0
   27.9799  -21.4719  -16.8854 C   0  0  0  0  0  0  0  0  0  0  0  0
   28.6563  -22.7403  -17.3814 C   0  0  0  0  0  0  0  0  0  0  0  0
   29.6855  -22.4117  -18.4546 C   0  0  0  0  0  0  0  0  0  0  0  0
   30.4811  -23.5942  -18.7088 N   0  0  0  0  0  0  0  0  0  0  0  0
   25.3638  -20.1577  -16.3626 C   0  0  0  0  0  0  0  0  0  0  0  0
   24.2703  -20.7253  -16.6672 O   0  0  0  0  0  0  0  0  0  0  0  0
   25.7660  -16.2959  -17.8826 O   0  0  0  0  0  0  0  0  0  0  0  0
   24.5766  -16.9925  -17.9124 C   0  0  0  0  0  0  0  0  0  0  0  0
   24.8503  -18.4613  -18.0980 C   0  0  2  0  0  0  0  0  0  0  0  0
   25.7177  -19.0112  -17.1069 N   0  0  0  0  0  0  0  0  0  0  0  0
   25.3605  -18.6797  -19.4868 C   0  0  0  0  0  0  0  0  0  0  0  0
   24.5235  -18.2676  -20.5152 O   0  0  0  0  0  0  0  0  0  0  0  0
   26.4656  -19.1976  -19.7380 O   0  0  0  0  0  0  0  0  0  0  0  0
  2  1  1  0
  3  2  2  0
  4  3  1  0
  5 11  1  0
  5  4  2  0
  6  5  1  0
  7  6  1  0
  7  8  1  1
  9  7  1  0
  9 10  2  0
 11 12  2  0
 12  2  1  0
 13  9  1  0
 14 13  1  0
 14 15  1  6
 16 15  1  0
 16 17  1  0
 18 17  1  0
 19 18  1  0
 20 14  1  0
 21 20  2  0
 23 22  1  0
 24 23  1  1
 24 25  1  0
 25 20  1  0
 26 24  1  0
 27 26  1  0
 28 26  2  0
M  END
$$$$
