YKS.pdb
     RDKit          3D

 28 28  0  0  1  0  0  0  0  0999 V2000
   13.4450  -11.9815  -19.7014 O   0  0  0  0  0  0  0  0  0  0  0  0
   14.3923  -11.6643  -18.7256 C   0  0  0  0  0  0  0  0  0  0  0  0
   15.2428  -10.6270  -19.0054 C   0  0  0  0  0  0  0  0  0  0  0  0
   16.1930  -10.2638  -18.0956 C   0  0  0  0  0  0  0  0  0  0  0  0
   16.2771  -10.9605  -16.8956 C   0  0  0  0  0  0  0  0  0  0  0  0
   17.3262  -10.5469  -15.9533 C   0  0  0  0  0  0  0  0  0  0  0  0
   18.6332  -11.2026  -16.3089 C   0  0  2  0  0  0  0  0  0  0  0  0
   18.5020  -12.5982  -15.8415 N   0  0  0  0  0  0  0  0  0  0  0  0
   19.7299  -10.5225  -15.6073 C   0  0  0  0  0  0  0  0  0  0  0  0
   19.7858  -10.4499  -14.3540 O   0  0  0  0  0  0  0  0  0  0  0  0
   15.4321  -12.0061  -16.5948 C   0  0  0  0  0  0  0  0  0  0  0  0
   14.4763  -12.3537  -17.5370 C   0  0  0  0  0  0  0  0  0  0  0  0
   20.8192   -9.8903  -16.2964 N   0  0  0  0  0  0  0  0  0  0  0  0
   21.8930   -9.2110  -15.6027 C   0  0  1  0  0  0  0  0  0  0  0  0
   23.1875   -9.5301  -16.3498 C   0  0  0  0  0  0  0  0  0  0  0  0
   23.6442  -10.9327  -16.0827 C   0  0  0  0  0  0  0  0  0  0  0  0
   24.8293  -11.2095  -16.9946 C   0  0  0  0  0  0  0  0  0  0  0  0
   25.1901  -12.6887  -16.9668 C   0  0  0  0  0  0  0  0  0  0  0  0
   26.3384  -12.8999  -17.8228 N   0  0  0  0  0  0  0  0  0  0  0  0
   21.6462   -7.7475  -15.6351 C   0  0  0  0  0  0  0  0  0  0  0  0
   21.1508   -7.1673  -16.6492 O   0  0  0  0  0  0  0  0  0  0  0  0
   21.2931   -3.6120  -13.1950 O   0  0  0  0  0  0  0  0  0  0  0  0
   21.6784   -4.9341  -13.1290 C   0  0  0  0  0  0  0  0  0  0  0  0
   21.6686   -5.5378  -14.5082 C   0  0  2  0  0  0  0  0  0  0  0  0
   21.9582   -6.9353  -14.5230 N   0  0  0  0  0  0  0  0  0  0  0  0
   22.5982   -4.7537  -15.3788 C   0  0  0  0  0  0  0  0  0  0  0  0
   22.1413   -3.5095  -15.7926 O   0  0  0  0  0  0  0  0  0  0  0  0
   23.7210   -5.1651  -15.7287 O   0  0  0  0  0  0  0  0  0  0  0  0
  2  1  1  0
  3  2  2  0
  4  3  1  0
  5 11  1  0
  5  4  2  0
  6  5  1  0
  7  6  1  0
  7  8  1  1
  9  7  1  0
  9 10  2  0
 11 12  2  0
 12  2  1  0
 13  9  1  0
 14 13  1  0
 14 15  1  6
 16 15  1  0
 16 17  1  0
 18 17  1  0
 19 18  1  0
 20 14  1  0
 21 20  2  0
 23 22  1  0
 24 23  1  1
 24 25  1  0
 25 20  1  0
 26 24  1  0
 27 26  1  0
 28 26  2  0
M  END
$$$$
