YKS.pdb
     RDKit          3D

 28 28  0  0  1  0  0  0  0  0999 V2000
   20.8330  -11.5354  -19.4277 O   0  0  0  0  0  0  0  0  0  0  0  0
   20.7988  -12.9307  -19.3831 C   0  0  0  0  0  0  0  0  0  0  0  0
   20.2056  -13.4986  -18.2861 C   0  0  0  0  0  0  0  0  0  0  0  0
   20.1377  -14.8574  -18.1783 C   0  0  0  0  0  0  0  0  0  0  0  0
   20.6764  -15.6410  -19.1923 C   0  0  0  0  0  0  0  0  0  0  0  0
   20.5967  -17.0989  -19.0262 C   0  0  0  0  0  0  0  0  0  0  0  0
   21.8300  -17.6120  -18.3329 C   0  0  2  0  0  0  0  0  0  0  0  0
   22.9164  -17.4640  -19.3236 N   0  0  0  0  0  0  0  0  0  0  0  0
   21.6413  -19.0248  -17.9785 C   0  0  0  0  0  0  0  0  0  0  0  0
   21.3553  -19.9016  -18.8322 O   0  0  0  0  0  0  0  0  0  0  0  0
   21.2771  -15.0902  -20.3030 C   0  0  0  0  0  0  0  0  0  0  0  0
   21.3322  -13.7074  -20.3868 C   0  0  0  0  0  0  0  0  0  0  0  0
   21.7686  -19.5122  -16.6341 N   0  0  0  0  0  0  0  0  0  0  0  0
   21.6356  -20.9134  -16.2956 C   0  0  1  0  0  0  0  0  0  0  0  0
   22.9046  -21.3205  -15.5474 C   0  0  0  0  0  0  0  0  0  0  0  0
   24.0386  -21.5831  -16.4919 C   0  0  0  0  0  0  0  0  0  0  0  0
   25.1996  -22.1260  -15.6734 C   0  0  0  0  0  0  0  0  0  0  0  0
   26.3193  -22.6050  -16.5876 C   0  0  0  0  0  0  0  0  0  0  0  0
   27.3431  -23.2285  -15.7758 N   0  0  0  0  0  0  0  0  0  0  0  0
   20.4564  -21.0923  -15.4116 C   0  0  0  0  0  0  0  0  0  0  0  0
   20.2191  -20.3172  -14.4352 O   0  0  0  0  0  0  0  0  0  0  0  0
   16.9075  -22.0834  -16.6353 O   0  0  0  0  0  0  0  0  0  0  0  0
   17.2009  -22.8800  -15.5490 C   0  0  0  0  0  0  0  0  0  0  0  0
   18.3855  -22.3176  -14.8092 C   0  0  2  0  0  0  0  0  0  0  0  0
   19.5423  -22.1465  -15.6276 N   0  0  0  0  0  0  0  0  0  0  0  0
   18.6540  -23.1770  -13.6150 C   0  0  0  0  0  0  0  0  0  0  0  0
   17.5734  -23.4056  -12.7736 O   0  0  0  0  0  0  0  0  0  0  0  0
   19.7692  -23.6724  -13.3633 O   0  0  0  0  0  0  0  0  0  0  0  0
  2  1  1  0
  3  2  2  0
  4  3  1  0
  5 11  1  0
  5  4  2  0
  6  5  1  0
  7  6  1  0
  7  8  1  6
  9  7  1  0
  9 10  2  0
 11 12  2  0
 12  2  1  0
 13  9  1  0
 14 13  1  0
 14 15  1  1
 16 15  1  0
 16 17  1  0
 18 17  1  0
 19 18  1  0
 20 14  1  0
 21 20  2  0
 23 22  1  0
 24 23  1  6
 24 25  1  0
 25 20  1  0
 26 24  1  0
 27 26  1  0
 28 26  2  0
M  END
$$$$
