LCS.pdb
     RDKit          3D

 21 20  0  0  1  0  0  0  0  0999 V2000
   26.8475  -13.0241  -17.7108 C   0  0  0  0  0  0  0  0  0  0  0  0
   25.4087  -13.3799  -18.0009 C   0  0  2  0  0  0  0  0  0  0  0  0
   25.3085  -14.1606  -19.2948 C   0  0  0  0  0  0  0  0  0  0  0  0
   24.5709  -12.1216  -18.1726 C   0  0  0  0  0  0  0  0  0  0  0  0
   24.5425  -11.2938  -16.9056 C   0  0  2  0  0  0  0  0  0  0  0  0
   24.3923  -12.1018  -15.7292 N   0  0  0  0  0  0  0  0  0  0  0  0
   23.4309  -10.3078  -17.0735 C   0  0  0  0  0  0  0  0  0  0  0  0
   23.5398   -9.5265  -18.0615 O   0  0  0  0  0  0  0  0  0  0  0  0
   22.3209  -10.2306  -16.2031 N   0  0  0  0  0  0  0  0  0  0  0  0
   21.3235   -9.1861  -16.4682 C   0  0  1  0  0  0  0  0  0  0  0  0
   19.9558   -9.8830  -16.4481 C   0  0  0  0  0  0  0  0  0  0  0  0
   18.5814   -8.7460  -16.4317 S   0  0  0  0  0  0  0  0  0  0  0  0
   21.3657   -8.1486  -15.4312 C   0  0  0  0  0  0  0  0  0  0  0  0
   21.8254   -8.4701  -14.2817 O   0  0  0  0  0  0  0  0  0  0  0  0
   23.3253   -4.6649  -13.8172 O   0  0  0  0  0  0  0  0  0  0  0  0
   22.8474   -5.6812  -14.6406 C   0  0  0  0  0  0  0  0  0  0  0  0
   21.3391   -5.7698  -14.6018 C   0  0  2  0  0  0  0  0  0  0  0  0
   20.9486   -6.8071  -15.5635 N   0  0  0  0  0  0  0  0  0  0  0  0
   20.7078   -4.4965  -15.0287 C   0  0  0  0  0  0  0  0  0  0  0  0
   20.3830   -3.5136  -14.1055 O   0  0  0  0  0  0  0  0  0  0  0  0
   20.4446   -4.2610  -16.2358 O   0  0  0  0  0  0  0  0  0  0  0  0
  2  1  1  6
  2  4  1  0
  2  3  1  0
  5  4  1  0
  5  6  1  1
  7  5  1  0
  7  9  1  0
  8  7  2  0
 10  9  1  0
 10 13  1  0
 10 11  1  1
 12 11  1  0
 13 14  2  0
 13 18  1  0
 16 15  1  0
 17 16  1  6
 18 17  1  0
 19 17  1  0
 19 20  1  0
 21 19  2  0
M  END
$$$$
