LCS.pdb
     RDKit          3D

 21 20  0  0  1  0  0  0  0  0999 V2000
   18.2360  -11.9614  -12.6569 C   0  0  0  0  0  0  0  0  0  0  0  0
   17.1981  -11.4512  -13.6283 C   0  0  2  0  0  0  0  0  0  0  0  0
   17.8544  -11.0177  -14.9225 C   0  0  0  0  0  0  0  0  0  0  0  0
   16.4858  -10.2333  -13.0590 C   0  0  0  0  0  0  0  0  0  0  0  0
   15.7458  -10.5672  -11.7814 C   0  0  2  0  0  0  0  0  0  0  0  0
   14.6513  -11.4681  -12.0043 N   0  0  0  0  0  0  0  0  0  0  0  0
   15.3083   -9.2622  -11.1968 C   0  0  0  0  0  0  0  0  0  0  0  0
   14.3487   -8.6928  -11.7913 O   0  0  0  0  0  0  0  0  0  0  0  0
   15.9076   -8.6797  -10.0578 N   0  0  0  0  0  0  0  0  0  0  0  0
   15.4229   -7.3588   -9.6380 C   0  0  1  0  0  0  0  0  0  0  0  0
   15.6433   -7.2824   -8.1207 C   0  0  0  0  0  0  0  0  0  0  0  0
   15.3375   -5.6618   -7.4411 S   0  0  0  0  0  0  0  0  0  0  0  0
   16.1780   -6.2902  -10.3024 C   0  0  0  0  0  0  0  0  0  0  0  0
   17.4177   -6.4939  -10.5423 O   0  0  0  0  0  0  0  0  0  0  0  0
   17.1813   -3.9878  -13.8658 O   0  0  0  0  0  0  0  0  0  0  0  0
   16.5679   -4.8125  -12.9263 C   0  0  0  0  0  0  0  0  0  0  0  0
   16.4502   -4.1359  -11.5800 C   0  0  2  0  0  0  0  0  0  0  0  0
   15.6785   -5.0371  -10.7164 N   0  0  0  0  0  0  0  0  0  0  0  0
   15.7063   -2.8556  -11.6773 C   0  0  0  0  0  0  0  0  0  0  0  0
   14.4164   -2.7375  -11.1815 O   0  0  0  0  0  0  0  0  0  0  0  0
   16.2133   -1.8351  -12.2096 O   0  0  0  0  0  0  0  0  0  0  0  0
  2  1  1  1
  2  4  1  0
  2  3  1  0
  5  4  1  0
  5  6  1  6
  7  5  1  0
  7  9  1  0
  8  7  2  0
 10  9  1  0
 10 13  1  0
 10 11  1  1
 12 11  1  0
 13 14  2  0
 13 18  1  0
 16 15  1  0
 17 16  1  6
 18 17  1  0
 19 17  1  0
 19 20  1  0
 21 19  2  0
M  END
$$$$
