LCS.pdb
     RDKit          3D

 21 20  0  0  1  0  0  0  0  0999 V2000
   18.4435  -11.3369  -18.3058 C   0  0  0  0  0  0  0  0  0  0  0  0
   18.5446  -11.8970  -16.9069 C   0  0  2  0  0  0  0  0  0  0  0  0
   17.2273  -11.7356  -16.1771 C   0  0  0  0  0  0  0  0  0  0  0  0
   19.5950  -11.1441  -16.1040 C   0  0  0  0  0  0  0  0  0  0  0  0
   20.9480  -11.1832  -16.7816 C   0  0  2  0  0  0  0  0  0  0  0  0
   21.6071  -12.4465  -16.6116 N   0  0  0  0  0  0  0  0  0  0  0  0
   21.7332  -10.0427  -16.2168 C   0  0  0  0  0  0  0  0  0  0  0  0
   22.2585  -10.2498  -15.0856 O   0  0  0  0  0  0  0  0  0  0  0  0
   21.8946   -8.8054  -16.8790 N   0  0  0  0  0  0  0  0  0  0  0  0
   22.7027   -7.7787  -16.2090 C   0  0  1  0  0  0  0  0  0  0  0  0
   23.9936   -7.6450  -17.0289 C   0  0  0  0  0  0  0  0  0  0  0  0
   25.0143   -6.2718  -16.5244 S   0  0  0  0  0  0  0  0  0  0  0  0
   21.9965   -6.4926  -16.1839 C   0  0  0  0  0  0  0  0  0  0  0  0
   21.6280   -5.9906  -17.3011 O   0  0  0  0  0  0  0  0  0  0  0  0
   19.6153   -5.1663  -13.2751 O   0  0  0  0  0  0  0  0  0  0  0  0
   19.5760   -4.6725  -14.5765 C   0  0  0  0  0  0  0  0  0  0  0  0
   20.9636   -4.4494  -15.1324 C   0  0  2  0  0  0  0  0  0  0  0  0
   21.6704   -5.7321  -15.0409 N   0  0  0  0  0  0  0  0  0  0  0  0
   21.7195   -3.4580  -14.3275 C   0  0  0  0  0  0  0  0  0  0  0  0
   21.2579   -2.1591  -14.1738 O   0  0  0  0  0  0  0  0  0  0  0  0
   22.8006   -3.7552  -13.7576 O   0  0  0  0  0  0  0  0  0  0  0  0
  2  1  1  6
  2  4  1  0
  2  3  1  0
  5  4  1  0
  5  6  1  1
  7  5  1  0
  7  9  1  0
  8  7  2  0
 10  9  1  0
 10 13  1  0
 10 11  1  6
 12 11  1  0
 13 14  2  0
 13 18  1  0
 16 15  1  0
 17 16  1  1
 18 17  1  0
 19 17  1  0
 19 20  1  0
 21 19  2  0
M  END
$$$$
