LCS.pdb
     RDKit          3D

 21 20  0  0  1  0  0  0  0  0999 V2000
   24.0077  -14.3290  -16.3676 C   0  0  0  0  0  0  0  0  0  0  0  0
   25.0751  -13.2679  -16.4927 C   0  0  2  0  0  0  0  0  0  0  0  0
   26.4390  -13.8528  -16.1902 C   0  0  0  0  0  0  0  0  0  0  0  0
   24.8369  -12.1488  -15.4898 C   0  0  0  0  0  0  0  0  0  0  0  0
   23.5965  -11.3505  -15.8299 C   0  0  2  0  0  0  0  0  0  0  0  0
   23.1157  -11.6268  -17.1534 N   0  0  0  0  0  0  0  0  0  0  0  0
   23.9572   -9.9122  -15.6362 C   0  0  0  0  0  0  0  0  0  0  0  0
   24.3511   -9.6005  -14.4760 O   0  0  0  0  0  0  0  0  0  0  0  0
   23.8736   -8.9440  -16.6614 N   0  0  0  0  0  0  0  0  0  0  0  0
   24.1332   -7.5458  -16.2956 C   0  0  1  0  0  0  0  0  0  0  0  0
   24.7922   -6.8964  -17.5206 C   0  0  0  0  0  0  0  0  0  0  0  0
   24.9958   -5.1313  -17.3631 S   0  0  0  0  0  0  0  0  0  0  0  0
   22.8817   -6.8481  -15.9786 C   0  0  0  0  0  0  0  0  0  0  0  0
   21.8118   -7.2472  -16.5548 O   0  0  0  0  0  0  0  0  0  0  0  0
   19.3923   -5.6506  -13.6183 O   0  0  0  0  0  0  0  0  0  0  0  0
   20.6046   -6.1776  -14.0563 C   0  0  0  0  0  0  0  0  0  0  0  0
   21.4133   -5.1575  -14.8241 C   0  0  2  0  0  0  0  0  0  0  0  0
   22.7229   -5.7642  -15.0892 N   0  0  0  0  0  0  0  0  0  0  0  0
   21.6381   -3.9275  -14.0248 C   0  0  0  0  0  0  0  0  0  0  0  0
   20.6362   -2.9808  -13.8706 O   0  0  0  0  0  0  0  0  0  0  0  0
   22.7382   -3.6976  -13.4602 O   0  0  0  0  0  0  0  0  0  0  0  0
  2  1  1  1
  2  4  1  0
  2  3  1  0
  5  4  1  0
  5  6  1  6
  7  5  1  0
  7  9  1  0
  8  7  2  0
 10  9  1  0
 10 13  1  0
 10 11  1  6
 12 11  1  0
 13 14  2  0
 13 18  1  0
 16 15  1  0
 17 16  1  1
 18 17  1  0
 19 17  1  0
 19 20  1  0
 21 19  2  0
M  END
$$$$
