LCS.pdb
     RDKit          3D

 21 20  0  0  1  0  0  0  0  0999 V2000
   19.7151  -11.6115  -19.1600 C   0  0  0  0  0  0  0  0  0  0  0  0
   18.7893  -12.3046  -18.1886 C   0  0  2  0  0  0  0  0  0  0  0  0
   17.4557  -12.5941  -18.8454 C   0  0  0  0  0  0  0  0  0  0  0  0
   18.5112  -11.4141  -16.9868 C   0  0  0  0  0  0  0  0  0  0  0  0
   19.7906  -11.0028  -16.2901 C   0  0  2  0  0  0  0  0  0  0  0  0
   20.4059  -12.0940  -15.5904 N   0  0  0  0  0  0  0  0  0  0  0  0
   19.4294   -9.8683  -15.3852 C   0  0  0  0  0  0  0  0  0  0  0  0
   18.6443  -10.1560  -14.4369 O   0  0  0  0  0  0  0  0  0  0  0  0
   19.9167   -8.5531  -15.5534 N   0  0  0  0  0  0  0  0  0  0  0  0
   19.5275   -7.5530  -14.5512 C   0  0  1  0  0  0  0  0  0  0  0  0
   20.8319   -7.0503  -13.9168 C   0  0  0  0  0  0  0  0  0  0  0  0
   21.9952   -6.4053  -15.1053 S   0  0  0  0  0  0  0  0  0  0  0  0
   18.8186   -6.4324  -15.1798 C   0  0  0  0  0  0  0  0  0  0  0  0
   19.1192   -6.1362  -16.3873 O   0  0  0  0  0  0  0  0  0  0  0  0
   15.2492   -5.2648  -14.1151 O   0  0  0  0  0  0  0  0  0  0  0  0
   15.7117   -4.7790  -15.3354 C   0  0  0  0  0  0  0  0  0  0  0  0
   17.1981   -4.5072  -15.3022 C   0  0  2  0  0  0  0  0  0  0  0  0
   17.8203   -5.6288  -14.5893 N   0  0  0  0  0  0  0  0  0  0  0  0
   17.5079   -3.2658  -14.5506 C   0  0  0  0  0  0  0  0  0  0  0  0
   17.0805   -2.0274  -15.0063 O   0  0  0  0  0  0  0  0  0  0  0  0
   18.1656   -3.2884  -13.4788 O   0  0  0  0  0  0  0  0  0  0  0  0
  2  1  1  6
  2  4  1  0
  2  3  1  0
  5  4  1  0
  5  6  1  1
  7  5  1  0
  7  9  1  0
  8  7  2  0
 10  9  1  0
 10 13  1  0
 10 11  1  6
 12 11  1  0
 13 14  2  0
 13 18  1  0
 16 15  1  0
 17 16  1  1
 18 17  1  0
 19 17  1  0
 19 20  1  0
 21 19  2  0
M  END
$$$$
