LCS.pdb
     RDKit          3D

 21 20  0  0  1  0  0  0  0  0999 V2000
   17.7033  -12.3667  -17.6427 C   0  0  0  0  0  0  0  0  0  0  0  0
   18.0999  -12.8108  -16.2547 C   0  0  2  0  0  0  0  0  0  0  0  0
   16.9425  -12.6362  -15.2937 C   0  0  0  0  0  0  0  0  0  0  0  0
   19.2483  -11.9623  -15.7295 C   0  0  0  0  0  0  0  0  0  0  0  0
   20.4552  -12.0325  -16.6406 C   0  0  2  0  0  0  0  0  0  0  0  0
   21.1305  -13.2957  -16.5553 N   0  0  0  0  0  0  0  0  0  0  0  0
   21.3334  -10.8826  -16.2628 C   0  0  0  0  0  0  0  0  0  0  0  0
   22.0297  -11.0479  -15.2205 O   0  0  0  0  0  0  0  0  0  0  0  0
   21.4019   -9.6802  -17.0010 N   0  0  0  0  0  0  0  0  0  0  0  0
   22.3715   -8.6692  -16.5608 C   0  0  1  0  0  0  0  0  0  0  0  0
   23.2225   -8.3254  -17.7913 C   0  0  0  0  0  0  0  0  0  0  0  0
   24.3009   -6.9272  -17.5387 S   0  0  0  0  0  0  0  0  0  0  0  0
   21.6867   -7.4636  -16.0799 C   0  0  0  0  0  0  0  0  0  0  0  0
   20.6931   -7.0293  -16.7581 O   0  0  0  0  0  0  0  0  0  0  0  0
   22.0144   -5.8134  -12.2947 O   0  0  0  0  0  0  0  0  0  0  0  0
   20.8972   -5.6320  -13.1059 C   0  0  0  0  0  0  0  0  0  0  0  0
   21.2792   -5.4947  -14.5618 C   0  0  2  0  0  0  0  0  0  0  0  0
   22.0077   -6.7149  -14.9277 N   0  0  0  0  0  0  0  0  0  0  0  0
   22.1884   -4.3424  -14.7798 C   0  0  0  0  0  0  0  0  0  0  0  0
   21.7544   -3.0402  -14.5805 O   0  0  0  0  0  0  0  0  0  0  0  0
   23.3796   -4.5010  -15.1510 O   0  0  0  0  0  0  0  0  0  0  0  0
  2  1  1  6
  2  4  1  0
  2  3  1  0
  5  4  1  0
  5  6  1  1
  7  5  1  0
  7  9  1  0
  8  7  2  0
 10  9  1  0
 10 13  1  0
 10 11  1  6
 12 11  1  0
 13 14  2  0
 13 18  1  0
 16 15  1  0
 17 16  1  1
 18 17  1  0
 19 17  1  0
 19 20  1  0
 21 19  2  0
M  END
$$$$
