LCS.pdb
     RDKit          3D

 21 20  0  0  1  0  0  0  0  0999 V2000
   23.9262  -11.9727  -20.5863 C   0  0  0  0  0  0  0  0  0  0  0  0
   22.7698  -12.5828  -19.8303 C   0  0  2  0  0  0  0  0  0  0  0  0
   21.8363  -13.3004  -20.7828 C   0  0  0  0  0  0  0  0  0  0  0  0
   21.9548  -11.5017  -19.1362 C   0  0  0  0  0  0  0  0  0  0  0  0
   22.8022  -10.6957  -18.1751 C   0  0  2  0  0  0  0  0  0  0  0  0
   23.5179  -11.5269  -17.2498 N   0  0  0  0  0  0  0  0  0  0  0  0
   21.8726   -9.7427  -17.4940 C   0  0  0  0  0  0  0  0  0  0  0  0
   21.3151   -8.8933  -18.2464 O   0  0  0  0  0  0  0  0  0  0  0  0
   21.6148   -9.7655  -16.1053 N   0  0  0  0  0  0  0  0  0  0  0  0
   20.7099   -8.7419  -15.5673 C   0  0  1  0  0  0  0  0  0  0  0  0
   20.0079   -9.3802  -14.3605 C   0  0  0  0  0  0  0  0  0  0  0  0
   18.9069  -10.7117  -14.8039 S   0  0  0  0  0  0  0  0  0  0  0  0
   21.4602   -7.5573  -15.1342 C   0  0  0  0  0  0  0  0  0  0  0  0
   22.7263   -7.6702  -14.9920 O   0  0  0  0  0  0  0  0  0  0  0  0
   22.6131   -3.8422  -16.9723 O   0  0  0  0  0  0  0  0  0  0  0  0
   22.0234   -5.0424  -16.5839 C   0  0  0  0  0  0  0  0  0  0  0  0
   21.6838   -5.0480  -15.1112 C   0  0  2  0  0  0  0  0  0  0  0  0
   20.9302   -6.2803  -14.8526 N   0  0  0  0  0  0  0  0  0  0  0  0
   20.8144   -3.9015  -14.7485 C   0  0  0  0  0  0  0  0  0  0  0  0
   21.3375   -2.7714  -14.1376 O   0  0  0  0  0  0  0  0  0  0  0  0
   19.5781   -3.9101  -14.9795 O   0  0  0  0  0  0  0  0  0  0  0  0
  2  1  1  6
  2  4  1  0
  2  3  1  0
  5  4  1  0
  5  6  1  1
  7  5  1  0
  7  9  1  0
  8  7  2  0
 10  9  1  0
 10 13  1  0
 10 11  1  1
 12 11  1  0
 13 14  2  0
 13 18  1  0
 16 15  1  0
 17 16  1  6
 18 17  1  0
 19 17  1  0
 19 20  1  0
 21 19  2  0
M  END
$$$$
