LCS.pdb
     RDKit          3D

 21 20  0  0  1  0  0  0  0  0999 V2000
   26.8487  -21.8931  -11.4136 C   0  0  0  0  0  0  0  0  0  0  0  0
   26.3634  -20.5825  -10.8412 C   0  0  2  0  0  0  0  0  0  0  0  0
   26.4989  -20.5828   -9.3327 C   0  0  0  0  0  0  0  0  0  0  0  0
   24.8899  -20.3738  -11.1570 C   0  0  0  0  0  0  0  0  0  0  0  0
   24.6219  -20.4551  -12.6447 C   0  0  2  0  0  0  0  0  0  0  0  0
   25.3781  -19.4889  -13.3889 N   0  0  0  0  0  0  0  0  0  0  0  0
   23.1458  -20.2870  -12.8148 C   0  0  0  0  0  0  0  0  0  0  0  0
   22.7340  -19.0923  -12.8531 O   0  0  0  0  0  0  0  0  0  0  0  0
   22.2470  -21.3710  -12.9280 N   0  0  0  0  0  0  0  0  0  0  0  0
   20.8292  -21.0557  -13.1436 C   0  0  1  0  0  0  0  0  0  0  0  0
   20.7376  -20.4192  -14.5375 C   0  0  0  0  0  0  0  0  0  0  0  0
   19.0635  -20.0873  -15.0562 S   0  0  0  0  0  0  0  0  0  0  0  0
   20.0112  -22.2734  -13.1007 C   0  0  0  0  0  0  0  0  0  0  0  0
   20.3592  -23.2543  -13.8441 O   0  0  0  0  0  0  0  0  0  0  0  0
   18.2101  -24.0694   -9.9053 O   0  0  0  0  0  0  0  0  0  0  0  0
   17.3798  -23.8307  -10.9974 C   0  0  0  0  0  0  0  0  0  0  0  0
   18.1589  -23.7772  -12.2914 C   0  0  2  0  0  0  0  0  0  0  0  0
   18.8602  -22.4884  -12.3132 N   0  0  0  0  0  0  0  0  0  0  0  0
   17.2595  -23.8228  -13.4708 C   0  0  0  0  0  0  0  0  0  0  0  0
   16.8293  -25.0320  -13.9967 O   0  0  0  0  0  0  0  0  0  0  0  0
   16.8552  -22.7740  -14.0350 O   0  0  0  0  0  0  0  0  0  0  0  0
  2  1  1  1
  2  4  1  0
  2  3  1  0
  5  4  1  0
  5  6  1  6
  7  5  1  0
  7  9  1  0
  8  7  2  0
 10  9  1  0
 10 13  1  0
 10 11  1  6
 12 11  1  0
 13 14  2  0
 13 18  1  0
 16 15  1  0
 17 16  1  1
 18 17  1  0
 19 17  1  0
 19 20  1  0
 21 19  2  0
M  END
$$$$
