LCS.pdb
     RDKit          3D

 21 20  0  0  1  0  0  0  0  0999 V2000
   19.7534  -10.5894  -21.6857 C   0  0  0  0  0  0  0  0  0  0  0  0
   19.5761  -11.6273  -20.6030 C   0  0  2  0  0  0  0  0  0  0  0  0
   18.2462  -12.3344  -20.7622 C   0  0  0  0  0  0  0  0  0  0  0  0
   19.5719  -10.9723  -19.2298 C   0  0  0  0  0  0  0  0  0  0  0  0
   20.8071  -10.1245  -19.0130 C   0  0  2  0  0  0  0  0  0  0  0  0
   22.0183  -10.8848  -19.1312 N   0  0  0  0  0  0  0  0  0  0  0  0
   20.6516   -9.4933  -17.6663 C   0  0  0  0  0  0  0  0  0  0  0  0
   19.5750   -8.8561  -17.4839 O   0  0  0  0  0  0  0  0  0  0  0  0
   21.6248   -9.5857  -16.6465 N   0  0  0  0  0  0  0  0  0  0  0  0
   21.3462   -8.8973  -15.3798 C   0  0  1  0  0  0  0  0  0  0  0  0
   22.1750   -9.6183  -14.3075 C   0  0  0  0  0  0  0  0  0  0  0  0
   22.1519   -8.7978  -12.7238 S   0  0  0  0  0  0  0  0  0  0  0  0
   21.7487   -7.4879  -15.4521 C   0  0  0  0  0  0  0  0  0  0  0  0
   22.8944   -7.2179  -15.9525 O   0  0  0  0  0  0  0  0  0  0  0  0
   20.7222   -2.8547  -15.9256 O   0  0  0  0  0  0  0  0  0  0  0  0
   20.4177   -4.2124  -15.8718 C   0  0  0  0  0  0  0  0  0  0  0  0
   21.4927   -4.9989  -15.1575 C   0  0  2  0  0  0  0  0  0  0  0  0
   20.9967   -6.3735  -15.0235 N   0  0  0  0  0  0  0  0  0  0  0  0
   21.7372   -4.4711  -13.7923 C   0  0  0  0  0  0  0  0  0  0  0  0
   22.5906   -3.3982  -13.5817 O   0  0  0  0  0  0  0  0  0  0  0  0
   21.1838   -4.9728  -12.7805 O   0  0  0  0  0  0  0  0  0  0  0  0
  2  1  1  6
  2  4  1  0
  2  3  1  0
  5  4  1  0
  5  6  1  1
  7  5  1  0
  7  9  1  0
  8  7  2  0
 10  9  1  0
 10 13  1  0
 10 11  1  1
 12 11  1  0
 13 14  2  0
 13 18  1  0
 16 15  1  0
 17 16  1  1
 18 17  1  0
 19 17  1  0
 19 20  1  0
 21 19  2  0
M  END
$$$$
