LCS.pdb
     RDKit          3D

 21 20  0  0  1  0  0  0  0  0999 V2000
   12.2522   -9.6335  -10.9088 C   0  0  0  0  0  0  0  0  0  0  0  0
   12.5925  -10.7704   -9.9748 C   0  0  2  0  0  0  0  0  0  0  0  0
   11.6708  -10.7604   -8.7731 C   0  0  0  0  0  0  0  0  0  0  0  0
   14.0128  -10.6240   -9.4493 C   0  0  0  0  0  0  0  0  0  0  0  0
   15.0137  -10.4941  -10.5775 C   0  0  2  0  0  0  0  0  0  0  0  0
   15.7337  -11.7131  -10.8113 N   0  0  0  0  0  0  0  0  0  0  0  0
   15.9116   -9.3552  -10.2126 C   0  0  0  0  0  0  0  0  0  0  0  0
   16.7131   -9.5765   -9.2602 O   0  0  0  0  0  0  0  0  0  0  0  0
   15.8888   -8.1048  -10.8695 N   0  0  0  0  0  0  0  0  0  0  0  0
   16.8448   -7.0854  -10.4192 C   0  0  1  0  0  0  0  0  0  0  0  0
   17.8918   -6.9557  -11.5344 C   0  0  0  0  0  0  0  0  0  0  0  0
   18.9438   -5.5262  -11.3557 S   0  0  0  0  0  0  0  0  0  0  0  0
   16.1755   -5.7954  -10.2160 C   0  0  0  0  0  0  0  0  0  0  0  0
   15.4067   -5.3676  -11.1444 O   0  0  0  0  0  0  0  0  0  0  0  0
   15.0469   -1.9959   -7.3573 O   0  0  0  0  0  0  0  0  0  0  0  0
   15.6697   -3.2257   -7.5543 C   0  0  0  0  0  0  0  0  0  0  0  0
   15.5813   -3.6731   -8.9952 C   0  0  2  0  0  0  0  0  0  0  0  0
   16.2862   -4.9569   -9.0865 N   0  0  0  0  0  0  0  0  0  0  0  0
   16.2615   -2.7179   -9.9046 C   0  0  0  0  0  0  0  0  0  0  0  0
   15.5738   -1.6545  -10.4703 O   0  0  0  0  0  0  0  0  0  0  0  0
   17.4795   -2.8349  -10.1954 O   0  0  0  0  0  0  0  0  0  0  0  0
  2  1  1  6
  2  4  1  0
  2  3  1  0
  5  4  1  0
  5  6  1  1
  7  5  1  0
  7  9  1  0
  8  7  2  0
 10  9  1  0
 10 13  1  0
 10 11  1  6
 12 11  1  0
 13 14  2  0
 13 18  1  0
 16 15  1  0
 17 16  1  1
 18 17  1  0
 19 17  1  0
 19 20  1  0
 21 19  2  0
M  END
$$$$
