LCS.pdb
     RDKit          3D

 21 20  0  0  1  0  0  0  0  0999 V2000
   24.6617  -14.0999  -22.0451 C   0  0  0  0  0  0  0  0  0  0  0  0
   25.4864  -14.6478  -20.9047 C   0  0  2  0  0  0  0  0  0  0  0  0
   25.1531  -16.1056  -20.6650 C   0  0  0  0  0  0  0  0  0  0  0  0
   25.1784  -13.9015  -19.6152 C   0  0  0  0  0  0  0  0  0  0  0  0
   25.4294  -12.4155  -19.7578 C   0  0  2  0  0  0  0  0  0  0  0  0
   26.8048  -12.1191  -20.0400 N   0  0  0  0  0  0  0  0  0  0  0  0
   24.9528  -11.7858  -18.4879 C   0  0  0  0  0  0  0  0  0  0  0  0
   23.8617  -12.2342  -18.0331 O   0  0  0  0  0  0  0  0  0  0  0  0
   25.6529  -10.7574  -17.8186 N   0  0  0  0  0  0  0  0  0  0  0  0
   25.0625  -10.2297  -16.5821 C   0  0  1  0  0  0  0  0  0  0  0  0
   26.2381   -9.7884  -15.6989 C   0  0  0  0  0  0  0  0  0  0  0  0
   27.1879  -11.1519  -15.0504 S   0  0  0  0  0  0  0  0  0  0  0  0
   24.1974   -9.0789  -16.8663 C   0  0  0  0  0  0  0  0  0  0  0  0
   24.6053   -8.2210  -17.7228 O   0  0  0  0  0  0  0  0  0  0  0  0
   20.0526   -7.2171  -17.8473 O   0  0  0  0  0  0  0  0  0  0  0  0
   20.9441   -8.2190  -17.4725 C   0  0  0  0  0  0  0  0  0  0  0  0
   22.1203   -7.6624  -16.7037 C   0  0  2  0  0  0  0  0  0  0  0  0
   22.9386   -8.8078  -16.2892 N   0  0  0  0  0  0  0  0  0  0  0  0
   21.6817   -6.9522  -15.4768 C   0  0  0  0  0  0  0  0  0  0  0  0
   21.0867   -5.7013  -15.5476 O   0  0  0  0  0  0  0  0  0  0  0  0
   21.8316   -7.4536  -14.3331 O   0  0  0  0  0  0  0  0  0  0  0  0
  2  1  1  6
  2  4  1  0
  2  3  1  0
  5  4  1  0
  5  6  1  1
  7  5  1  0
  7  9  1  0
  8  7  2  0
 10  9  1  0
 10 13  1  0
 10 11  1  1
 12 11  1  0
 13 14  2  0
 13 18  1  0
 16 15  1  0
 17 16  1  1
 18 17  1  0
 19 17  1  0
 19 20  1  0
 21 19  2  0
M  END
$$$$
