LCS.pdb
     RDKit          3D

 21 20  0  0  1  0  0  0  0  0999 V2000
   17.9454  -12.2879  -19.0266 C   0  0  0  0  0  0  0  0  0  0  0  0
   17.1977  -12.1885  -17.7181 C   0  0  2  0  0  0  0  0  0  0  0  0
   15.9389  -11.3643  -17.8907 C   0  0  0  0  0  0  0  0  0  0  0  0
   18.0483  -11.4897  -16.6679 C   0  0  0  0  0  0  0  0  0  0  0  0
   19.3683  -12.2001  -16.4572 C   0  0  2  0  0  0  0  0  0  0  0  0
   19.2055  -13.4775  -15.8241 N   0  0  0  0  0  0  0  0  0  0  0  0
   20.2243  -11.2673  -15.6614 C   0  0  0  0  0  0  0  0  0  0  0  0
   19.7820  -10.9642  -14.5164 O   0  0  0  0  0  0  0  0  0  0  0  0
   21.4496  -10.7436  -16.1307 N   0  0  0  0  0  0  0  0  0  0  0  0
   22.2285   -9.9102  -15.2063 C   0  0  1  0  0  0  0  0  0  0  0  0
   23.7006  -10.2870  -15.4245 C   0  0  0  0  0  0  0  0  0  0  0  0
   24.1689  -11.8092  -14.6210 S   0  0  0  0  0  0  0  0  0  0  0  0
   22.0338   -8.4851  -15.4977 C   0  0  0  0  0  0  0  0  0  0  0  0
   21.6510   -8.1621  -16.6746 O   0  0  0  0  0  0  0  0  0  0  0  0
   19.8190   -4.7584  -15.2848 O   0  0  0  0  0  0  0  0  0  0  0  0
   20.3245   -6.0441  -15.1100 C   0  0  0  0  0  0  0  0  0  0  0  0
   21.8265   -6.0367  -14.9417 C   0  0  2  0  0  0  0  0  0  0  0  0
   22.2241   -7.4086  -14.6056 N   0  0  0  0  0  0  0  0  0  0  0  0
   22.2445   -5.1573  -13.8219 C   0  0  0  0  0  0  0  0  0  0  0  0
   22.4307   -3.7960  -14.0116 O   0  0  0  0  0  0  0  0  0  0  0  0
   22.4446   -5.6093  -12.6654 O   0  0  0  0  0  0  0  0  0  0  0  0
  2  1  1  6
  2  4  1  0
  2  3  1  0
  5  4  1  0
  5  6  1  1
  7  5  1  0
  7  9  1  0
  8  7  2  0
 10  9  1  0
 10 13  1  0
 10 11  1  6
 12 11  1  0
 13 14  2  0
 13 18  1  0
 16 15  1  0
 17 16  1  1
 18 17  1  0
 19 17  1  0
 19 20  1  0
 21 19  2  0
M  END
$$$$
