LCS.pdb
     RDKit          3D

 21 20  0  0  1  0  0  0  0  0999 V2000
   18.0624  -15.2444  -18.7783 C   0  0  0  0  0  0  0  0  0  0  0  0
   17.5130  -15.5884  -17.4142 C   0  0  2  0  0  0  0  0  0  0  0  0
   16.0028  -15.4750  -17.4094 C   0  0  0  0  0  0  0  0  0  0  0  0
   18.0371  -14.6178  -16.3663 C   0  0  0  0  0  0  0  0  0  0  0  0
   19.5503  -14.5916  -16.3384 C   0  0  2  0  0  0  0  0  0  0  0  0
   20.1047  -15.7553  -15.7080 N   0  0  0  0  0  0  0  0  0  0  0  0
   19.9351  -13.3228  -15.6467 C   0  0  0  0  0  0  0  0  0  0  0  0
   19.5779  -13.2312  -14.4374 O   0  0  0  0  0  0  0  0  0  0  0  0
   20.6496  -12.2791  -16.2759 N   0  0  0  0  0  0  0  0  0  0  0  0
   21.0340  -11.1274  -15.4502 C   0  0  1  0  0  0  0  0  0  0  0  0
   22.4943  -10.8132  -15.8043 C   0  0  0  0  0  0  0  0  0  0  0  0
   23.6702  -11.5630  -14.6921 S   0  0  0  0  0  0  0  0  0  0  0  0
   20.1905   -9.9648  -15.7505 C   0  0  0  0  0  0  0  0  0  0  0  0
   19.9630   -9.6923  -16.9793 O   0  0  0  0  0  0  0  0  0  0  0  0
   16.8624   -8.7811  -13.9996 O   0  0  0  0  0  0  0  0  0  0  0  0
   17.7572   -7.7212  -14.1217 C   0  0  0  0  0  0  0  0  0  0  0  0
   18.7583   -7.9589  -15.2289 C   0  0  2  0  0  0  0  0  0  0  0  0
   19.5882   -9.0963  -14.8157 N   0  0  0  0  0  0  0  0  0  0  0  0
   19.6530   -6.7896  -15.4140 C   0  0  0  0  0  0  0  0  0  0  0  0
   19.1494   -5.5572  -15.8031 O   0  0  0  0  0  0  0  0  0  0  0  0
   20.8940   -6.8703  -15.2265 O   0  0  0  0  0  0  0  0  0  0  0  0
  2  1  1  6
  2  4  1  0
  2  3  1  0
  5  4  1  0
  5  6  1  1
  7  5  1  0
  7  9  1  0
  8  7  2  0
 10  9  1  0
 10 13  1  0
 10 11  1  6
 12 11  1  0
 13 14  2  0
 13 18  1  0
 16 15  1  0
 17 16  1  1
 18 17  1  0
 19 17  1  0
 19 20  1  0
 21 19  2  0
M  END
$$$$
