LCS.pdb
     RDKit          3D

 21 20  0  0  1  0  0  0  0  0999 V2000
   19.8994  -11.1987  -20.1365 C   0  0  0  0  0  0  0  0  0  0  0  0
   19.0490  -11.3853  -18.9024 C   0  0  2  0  0  0  0  0  0  0  0  0
   17.6096  -11.0137  -19.1920 C   0  0  0  0  0  0  0  0  0  0  0  0
   19.5278  -10.4760  -17.7805 C   0  0  0  0  0  0  0  0  0  0  0  0
   20.9745  -10.7445  -17.4247 C   0  0  2  0  0  0  0  0  0  0  0  0
   21.1491  -12.0073  -16.7659 N   0  0  0  0  0  0  0  0  0  0  0  0
   21.4213   -9.5900  -16.5858 C   0  0  0  0  0  0  0  0  0  0  0  0
   21.0532   -9.6200  -15.3766 O   0  0  0  0  0  0  0  0  0  0  0  0
   22.2027   -8.5232  -17.0827 N   0  0  0  0  0  0  0  0  0  0  0  0
   22.6140   -7.4838  -16.1306 C   0  0  1  0  0  0  0  0  0  0  0  0
   24.0332   -7.0645  -16.5387 C   0  0  0  0  0  0  0  0  0  0  0  0
   24.6231   -5.6223  -15.6702 S   0  0  0  0  0  0  0  0  0  0  0  0
   21.7157   -6.3255  -16.2020 C   0  0  0  0  0  0  0  0  0  0  0  0
   21.2185   -6.0233  -17.3410 O   0  0  0  0  0  0  0  0  0  0  0  0
   18.1865   -3.6450  -15.1343 O   0  0  0  0  0  0  0  0  0  0  0  0
   19.0656   -4.7215  -15.0494 C   0  0  0  0  0  0  0  0  0  0  0  0
   20.4906   -4.3038  -15.3309 C   0  0  2  0  0  0  0  0  0  0  0  0
   21.3297   -5.4910  -15.1316 N   0  0  0  0  0  0  0  0  0  0  0  0
   20.9498   -3.2605  -14.3807 C   0  0  0  0  0  0  0  0  0  0  0  0
   20.4011   -1.9868  -14.3959 O   0  0  0  0  0  0  0  0  0  0  0  0
   21.8482   -3.4895  -13.5308 O   0  0  0  0  0  0  0  0  0  0  0  0
  2  1  1  6
  2  4  1  0
  2  3  1  0
  5  4  1  0
  5  6  1  1
  7  5  1  0
  7  9  1  0
  8  7  2  0
 10  9  1  0
 10 13  1  0
 10 11  1  6
 12 11  1  0
 13 14  2  0
 13 18  1  0
 16 15  1  0
 17 16  1  1
 18 17  1  0
 19 17  1  0
 19 20  1  0
 21 19  2  0
M  END
$$$$
