TKG.pdb
     RDKit          3D

 21 20  0  0  1  0  0  0  0  0999 V2000
   27.4014  -11.8336  -15.4180 C   0  0  0  0  0  0  0  0  0  0  0  0
   26.4713  -10.7463  -15.8946 C   0  0  1  0  0  0  0  0  0  0  0  0
   27.0599   -9.9930  -16.9064 O   0  0  0  0  0  0  0  0  0  0  0  0
   25.1822  -11.3922  -16.3589 C   0  0  2  0  0  0  0  0  0  0  0  0
   25.3564  -12.1067  -17.5980 N   0  0  0  0  0  0  0  0  0  0  0  0
   24.1760  -10.3430  -16.5688 C   0  0  0  0  0  0  0  0  0  0  0  0
   24.0332   -9.7636  -17.6787 O   0  0  0  0  0  0  0  0  0  0  0  0
   23.2846   -9.9041  -15.5238 N   0  0  0  0  0  0  0  0  0  0  0  0
   22.3005   -8.8644  -15.7490 C   0  0  1  0  0  0  0  0  0  0  0  0
   20.8912   -9.3838  -15.5933 C   0  0  0  0  0  0  0  0  0  0  0  0
   20.5650  -10.5083  -16.5178 C   0  0  0  0  0  0  0  0  0  0  0  0
   19.2378  -11.0937  -16.0990 C   0  0  0  0  0  0  0  0  0  0  0  0
   18.8662  -12.3164  -16.8849 C   0  0  0  0  0  0  0  0  0  0  0  0
   17.7166  -12.9218  -16.2359 N   0  0  0  0  0  0  0  0  0  0  0  0
   22.5509   -7.6875  -14.8618 C   0  0  0  0  0  0  0  0  0  0  0  0
   22.8379   -7.8093  -13.6428 O   0  0  0  0  0  0  0  0  0  0  0  0
   22.4728   -6.3633  -15.3714 N   0  0  0  0  0  0  0  0  0  0  0  0
   22.7105   -5.2347  -14.5033 C   0  0  0  0  0  0  0  0  0  0  0  0
   21.5060   -4.8142  -13.7685 C   0  0  0  0  0  0  0  0  0  0  0  0
   20.4299   -5.4107  -13.9465 O   0  0  0  0  0  0  0  0  0  0  0  0
   21.5716   -3.7635  -12.8870 O   0  0  0  0  0  0  0  0  0  0  0  0
  2  1  1  6
  3  2  1  0
  4  5  1  6
  4  2  1  0
  6  4  1  0
  7  6  2  0
  8  6  1  0
  9 10  1  1
  9  8  1  0
 10 11  1  0
 11 12  1  0
 12 13  1  0
 13 14  1  0
 15  9  1  0
 16 15  2  0
 17 15  1  0
 18 17  1  0
 19 21  1  0
 19 18  1  0
 20 19  2  0
M  END
$$$$
