TKG.pdb
     RDKit          3D

 21 20  0  0  1  0  0  0  0  0999 V2000
   32.4326  -22.7910  -10.2676 C   0  0  0  0  0  0  0  0  0  0  0  0
   31.0904  -22.7470  -10.9538 C   0  0  1  0  0  0  0  0  0  0  0  0
   30.1655  -23.5520  -10.2948 O   0  0  0  0  0  0  0  0  0  0  0  0
   30.6322  -21.3044  -11.0116 C   0  0  2  0  0  0  0  0  0  0  0  0
   30.3694  -20.7723   -9.6986 N   0  0  0  0  0  0  0  0  0  0  0  0
   29.3920  -21.2328  -11.7952 C   0  0  0  0  0  0  0  0  0  0  0  0
   29.3393  -21.5941  -13.0013 O   0  0  0  0  0  0  0  0  0  0  0  0
   28.1527  -20.7460  -11.2417 N   0  0  0  0  0  0  0  0  0  0  0  0
   26.9309  -20.7146  -12.0206 C   0  0  1  0  0  0  0  0  0  0  0  0
   25.7092  -20.5933  -11.1415 C   0  0  0  0  0  0  0  0  0  0  0  0
   24.4286  -20.5399  -11.9050 C   0  0  0  0  0  0  0  0  0  0  0  0
   24.1402  -21.9220  -12.4399 C   0  0  0  0  0  0  0  0  0  0  0  0
   22.9206  -21.9663  -13.3125 C   0  0  0  0  0  0  0  0  0  0  0  0
   22.7556  -23.3362  -13.7657 N   0  0  0  0  0  0  0  0  0  0  0  0
   26.9768  -19.6283  -13.0466 C   0  0  0  0  0  0  0  0  0  0  0  0
   27.0389  -18.4101  -12.7384 O   0  0  0  0  0  0  0  0  0  0  0  0
   26.9514  -19.9369  -14.4335 N   0  0  0  0  0  0  0  0  0  0  0  0
   27.0901  -18.8873  -15.4148 C   0  0  0  0  0  0  0  0  0  0  0  0
   25.8132  -18.5291  -16.0540 C   0  0  0  0  0  0  0  0  0  0  0  0
   24.7807  -19.1643  -15.7783 O   0  0  0  0  0  0  0  0  0  0  0  0
   25.7630  -17.4937  -16.9545 O   0  0  0  0  0  0  0  0  0  0  0  0
  2  1  1  1
  3  2  1  0
  4  5  1  1
  4  2  1  0
  6  4  1  0
  7  6  2  0
  8  6  1  0
  9 10  1  1
  9  8  1  0
 10 11  1  0
 11 12  1  0
 12 13  1  0
 13 14  1  0
 15  9  1  0
 16 15  2  0
 17 15  1  0
 18 17  1  0
 19 21  1  0
 19 18  1  0
 20 19  2  0
M  END
$$$$
