TKG.pdb
     RDKit          3D

 21 20  0  0  1  0  0  0  0  0999 V2000
   18.1394   -8.7187  -17.1957 C   0  0  0  0  0  0  0  0  0  0  0  0
   17.5652   -9.7084  -16.2133 C   0  0  1  0  0  0  0  0  0  0  0  0
   16.3281  -10.1796  -16.6436 O   0  0  0  0  0  0  0  0  0  0  0  0
   18.5606  -10.8366  -16.0373 C   0  0  2  0  0  0  0  0  0  0  0  0
   18.0330  -11.8932  -15.2118 N   0  0  0  0  0  0  0  0  0  0  0  0
   19.7682  -10.3058  -15.3915 C   0  0  0  0  0  0  0  0  0  0  0  0
   19.7778   -9.9401  -14.1856 O   0  0  0  0  0  0  0  0  0  0  0  0
   21.0225  -10.1665  -16.0890 N   0  0  0  0  0  0  0  0  0  0  0  0
   22.2173   -9.6916  -15.4202 C   0  0  1  0  0  0  0  0  0  0  0  0
   23.4523  -10.4179  -15.8971 C   0  0  0  0  0  0  0  0  0  0  0  0
   23.3998  -11.8922  -15.6749 C   0  0  0  0  0  0  0  0  0  0  0  0
   24.6596  -12.5003  -16.2430 C   0  0  0  0  0  0  0  0  0  0  0  0
   24.7394  -13.9829  -16.0277 C   0  0  0  0  0  0  0  0  0  0  0  0
   25.9734  -14.4481  -16.6360 N   0  0  0  0  0  0  0  0  0  0  0  0
   22.3621   -8.2110  -15.5678 C   0  0  0  0  0  0  0  0  0  0  0  0
   22.5931   -7.6620  -16.6761 O   0  0  0  0  0  0  0  0  0  0  0  0
   22.2420   -7.3531  -14.4414 N   0  0  0  0  0  0  0  0  0  0  0  0
   22.3654   -5.9235  -14.5996 C   0  0  0  0  0  0  0  0  0  0  0  0
   22.1655   -5.1890  -13.3395 C   0  0  0  0  0  0  0  0  0  0  0  0
   22.3628   -3.9623  -13.2975 O   0  0  0  0  0  0  0  0  0  0  0  0
   21.7613   -5.8589  -12.2111 O   0  0  0  0  0  0  0  0  0  0  0  0
  2  1  1  6
  3  2  1  0
  4  5  1  1
  4  2  1  0
  6  4  1  0
  7  6  2  0
  8  6  1  0
  9 10  1  6
  9  8  1  0
 10 11  1  0
 11 12  1  0
 12 13  1  0
 13 14  1  0
 15  9  1  0
 16 15  2  0
 17 15  1  0
 18 17  1  0
 19 21  1  0
 19 18  1  0
 20 19  2  0
M  END
$$$$
