TKG.pdb
     RDKit          3D

 21 20  0  0  1  0  0  0  0  0999 V2000
   24.9139   -6.1996  -17.0407 C   0  0  0  0  0  0  0  0  0  0  0  0
   24.7265   -6.5702  -18.4905 C   0  0  1  0  0  0  0  0  0  0  0  0
   25.9306   -6.4962  -19.1850 O   0  0  0  0  0  0  0  0  0  0  0  0
   24.1317   -7.9618  -18.5532 C   0  0  2  0  0  0  0  0  0  0  0  0
   23.9938   -8.4253  -19.9105 N   0  0  0  0  0  0  0  0  0  0  0  0
   22.7986   -7.9349  -17.9372 C   0  0  0  0  0  0  0  0  0  0  0  0
   21.7919   -7.4722  -18.5376 O   0  0  0  0  0  0  0  0  0  0  0  0
   22.5492   -8.4341  -16.6075 N   0  0  0  0  0  0  0  0  0  0  0  0
   21.2191   -8.4369  -16.0321 C   0  0  1  0  0  0  0  0  0  0  0  0
   20.8762   -9.7742  -15.4204 C   0  0  0  0  0  0  0  0  0  0  0  0
   19.5238   -9.8128  -14.7918 C   0  0  0  0  0  0  0  0  0  0  0  0
   18.6499  -10.7344  -15.6084 C   0  0  0  0  0  0  0  0  0  0  0  0
   17.2158  -10.7191  -15.1683 C   0  0  0  0  0  0  0  0  0  0  0  0
   16.4710  -11.5783  -16.0718 N   0  0  0  0  0  0  0  0  0  0  0  0
   21.0598   -7.3264  -15.0440 C   0  0  0  0  0  0  0  0  0  0  0  0
   19.9593   -7.0648  -14.4931 O   0  0  0  0  0  0  0  0  0  0  0  0
   22.1657   -6.5100  -14.6835 N   0  0  0  0  0  0  0  0  0  0  0  0
   22.0017   -5.4471  -13.7207 C   0  0  0  0  0  0  0  0  0  0  0  0
   21.6070   -4.1706  -14.3390 C   0  0  0  0  0  0  0  0  0  0  0  0
   20.4177   -3.8097  -14.3136 O   0  0  0  0  0  0  0  0  0  0  0  0
   22.5524   -3.3794  -14.9435 O   0  0  0  0  0  0  0  0  0  0  0  0
  2  1  1  1
  3  2  1  0
  4  5  1  6
  4  2  1  0
  6  4  1  0
  7  6  2  0
  8  6  1  0
  9 10  1  1
  9  8  1  0
 10 11  1  0
 11 12  1  0
 12 13  1  0
 13 14  1  0
 15  9  1  0
 16 15  2  0
 17 15  1  0
 18 17  1  0
 19 21  1  0
 19 18  1  0
 20 19  2  0
M  END
$$$$
