TKG.pdb
     RDKit          3D

 21 20  0  0  1  0  0  0  0  0999 V2000
   26.7034  -10.3241  -14.8652 C   0  0  0  0  0  0  0  0  0  0  0  0
   26.8537  -11.0341  -16.1872 C   0  0  1  0  0  0  0  0  0  0  0  0
   27.9232  -11.9245  -16.1577 O   0  0  0  0  0  0  0  0  0  0  0  0
   25.5501  -11.7392  -16.4998 C   0  0  2  0  0  0  0  0  0  0  0  0
   25.6432  -12.5311  -17.7000 N   0  0  0  0  0  0  0  0  0  0  0  0
   24.5007  -10.7299  -16.6934 C   0  0  0  0  0  0  0  0  0  0  0  0
   24.3620  -10.1069  -17.7799 O   0  0  0  0  0  0  0  0  0  0  0  0
   23.5592  -10.3825  -15.6579 N   0  0  0  0  0  0  0  0  0  0  0  0
   22.5152   -9.4012  -15.8756 C   0  0  1  0  0  0  0  0  0  0  0  0
   21.1404   -9.9908  -15.6696 C   0  0  0  0  0  0  0  0  0  0  0  0
   20.7721  -11.0147  -16.6901 C   0  0  0  0  0  0  0  0  0  0  0  0
   19.3897  -11.5282  -16.3660 C   0  0  0  0  0  0  0  0  0  0  0  0
   18.8777  -12.5052  -17.3829 C   0  0  0  0  0  0  0  0  0  0  0  0
   17.5937  -12.9944  -16.9126 N   0  0  0  0  0  0  0  0  0  0  0  0
   22.7267   -8.1941  -15.0193 C   0  0  0  0  0  0  0  0  0  0  0  0
   22.8702   -8.2677  -13.7715 O   0  0  0  0  0  0  0  0  0  0  0  0
   22.7745   -6.8951  -15.5934 N   0  0  0  0  0  0  0  0  0  0  0  0
   23.0973   -5.7501  -14.7757 C   0  0  0  0  0  0  0  0  0  0  0  0
   21.9043   -5.0816  -14.2305 C   0  0  0  0  0  0  0  0  0  0  0  0
   20.7715   -5.5221  -14.4918 O   0  0  0  0  0  0  0  0  0  0  0  0
   22.0431   -3.9719  -13.4338 O   0  0  0  0  0  0  0  0  0  0  0  0
  2  1  1  1
  3  2  1  0
  4  5  1  6
  4  2  1  0
  6  4  1  0
  7  6  2  0
  8  6  1  0
  9 10  1  1
  9  8  1  0
 10 11  1  0
 11 12  1  0
 12 13  1  0
 13 14  1  0
 15  9  1  0
 16 15  2  0
 17 15  1  0
 18 17  1  0
 19 21  1  0
 19 18  1  0
 20 19  2  0
M  END
$$$$
