TKG.pdb
     RDKit          3D

 21 20  0  0  1  0  0  0  0  0999 V2000
   25.6576  -19.0304  -17.9519 C   0  0  0  0  0  0  0  0  0  0  0  0
   25.4974  -19.7715  -16.6483 C   0  0  1  0  0  0  0  0  0  0  0  0
   24.1909  -20.2244  -16.4881 O   0  0  0  0  0  0  0  0  0  0  0  0
   26.4903  -20.9151  -16.6257 C   0  0  2  0  0  0  0  0  0  0  0  0
   26.0810  -21.9976  -17.4841 N   0  0  0  0  0  0  0  0  0  0  0  0
   26.5907  -21.4276  -15.2528 C   0  0  0  0  0  0  0  0  0  0  0  0
   25.8950  -22.3964  -14.8464 O   0  0  0  0  0  0  0  0  0  0  0  0
   27.4889  -20.8603  -14.2777 N   0  0  0  0  0  0  0  0  0  0  0  0
   27.5345  -21.3437  -12.9122 C   0  0  1  0  0  0  0  0  0  0  0  0
   28.8979  -21.1469  -12.2936 C   0  0  0  0  0  0  0  0  0  0  0  0
   29.0394  -21.7793  -10.9499 C   0  0  0  0  0  0  0  0  0  0  0  0
   30.4478  -21.5395  -10.4615 C   0  0  0  0  0  0  0  0  0  0  0  0
   30.6892  -22.0888   -9.0864 C   0  0  0  0  0  0  0  0  0  0  0  0
   32.0812  -21.8417   -8.7540 N   0  0  0  0  0  0  0  0  0  0  0  0
   26.4617  -20.7130  -12.0839 C   0  0  0  0  0  0  0  0  0  0  0  0
   26.2419  -19.4742  -12.0925 O   0  0  0  0  0  0  0  0  0  0  0  0
   25.6352  -21.5036  -11.2406 N   0  0  0  0  0  0  0  0  0  0  0  0
   24.6714  -20.8741  -10.3695 C   0  0  0  0  0  0  0  0  0  0  0  0
   23.3397  -20.7492  -10.9849 C   0  0  0  0  0  0  0  0  0  0  0  0
   23.1667  -21.0937  -12.1667 O   0  0  0  0  0  0  0  0  0  0  0  0
   22.2894  -20.2524  -10.2532 O   0  0  0  0  0  0  0  0  0  0  0  0
  2  1  1  6
  3  2  1  0
  4  5  1  6
  4  2  1  0
  6  4  1  0
  7  6  2  0
  8  6  1  0
  9 10  1  1
  9  8  1  0
 10 11  1  0
 11 12  1  0
 12 13  1  0
 13 14  1  0
 15  9  1  0
 16 15  2  0
 17 15  1  0
 18 17  1  0
 19 21  1  0
 19 18  1  0
 20 19  2  0
M  END
$$$$
