TKG.pdb
     RDKit          3D

 21 20  0  0  1  0  0  0  0  0999 V2000
   18.6974  -10.3694  -14.0576 C   0  0  0  0  0  0  0  0  0  0  0  0
   17.2302  -10.4632  -14.3940 C   0  0  1  0  0  0  0  0  0  0  0  0
   16.9434  -11.6563  -15.0512 O   0  0  0  0  0  0  0  0  0  0  0  0
   16.4379  -10.3300  -13.1100 C   0  0  2  0  0  0  0  0  0  0  0  0
   15.0307  -10.5555  -13.3224 N   0  0  0  0  0  0  0  0  0  0  0  0
   16.6130   -8.9695  -12.5848 C   0  0  0  0  0  0  0  0  0  0  0  0
   16.1654   -7.9563  -13.1857 O   0  0  0  0  0  0  0  0  0  0  0  0
   17.3064   -8.6988  -11.3499 N   0  0  0  0  0  0  0  0  0  0  0  0
   17.4910   -7.3473  -10.8604 C   0  0  1  0  0  0  0  0  0  0  0  0
   16.8430   -7.1467   -9.5113 C   0  0  0  0  0  0  0  0  0  0  0  0
   15.3599   -6.9997   -9.5786 C   0  0  0  0  0  0  0  0  0  0  0  0
   14.8303   -6.9075   -8.1677 C   0  0  0  0  0  0  0  0  0  0  0  0
   13.3343   -6.8099   -8.1121 C   0  0  0  0  0  0  0  0  0  0  0  0
   12.8127   -8.1570   -7.9619 N   0  0  0  0  0  0  0  0  0  0  0  0
   18.9400   -6.9807  -10.8312 C   0  0  0  0  0  0  0  0  0  0  0  0
   19.6952   -7.2867   -9.8725 O   0  0  0  0  0  0  0  0  0  0  0  0
   19.5292   -6.2597  -11.9047 N   0  0  0  0  0  0  0  0  0  0  0  0
   20.9568   -6.0496  -11.9429 C   0  0  0  0  0  0  0  0  0  0  0  0
   21.3900   -5.2749  -13.1175 C   0  0  0  0  0  0  0  0  0  0  0  0
   20.5654   -4.9608  -13.9931 O   0  0  0  0  0  0  0  0  0  0  0  0
   22.7046   -4.8995  -13.2454 O   0  0  0  0  0  0  0  0  0  0  0  0
  2  1  1  1
  3  2  1  0
  4  5  1  6
  4  2  1  0
  6  4  1  0
  7  6  2  0
  8  6  1  0
  9 10  1  1
  9  8  1  0
 10 11  1  0
 11 12  1  0
 12 13  1  0
 13 14  1  0
 15  9  1  0
 16 15  2  0
 17 15  1  0
 18 17  1  0
 19 21  1  0
 19 18  1  0
 20 19  2  0
M  END
$$$$
