TKG.pdb
     RDKit          3D

 21 20  0  0  1  0  0  0  0  0999 V2000
   26.7638  -10.8544  -14.9919 C   0  0  0  0  0  0  0  0  0  0  0  0
   26.8858  -11.5777  -16.3095 C   0  0  1  0  0  0  0  0  0  0  0  0
   27.9018  -12.5283  -16.2657 O   0  0  0  0  0  0  0  0  0  0  0  0
   25.5468  -12.2079  -16.6325 C   0  0  2  0  0  0  0  0  0  0  0  0
   25.6029  -12.9993  -17.8353 N   0  0  0  0  0  0  0  0  0  0  0  0
   24.5565  -11.1409  -16.8281 C   0  0  0  0  0  0  0  0  0  0  0  0
   24.4950  -10.4704  -17.8933 O   0  0  0  0  0  0  0  0  0  0  0  0
   23.5892  -10.7870  -15.8190 N   0  0  0  0  0  0  0  0  0  0  0  0
   22.6123   -9.7385  -16.0347 C   0  0  1  0  0  0  0  0  0  0  0  0
   21.2004  -10.2425  -15.8541 C   0  0  0  0  0  0  0  0  0  0  0  0
   20.8199  -11.3097  -16.8245 C   0  0  0  0  0  0  0  0  0  0  0  0
   19.7599  -12.1736  -16.1843 C   0  0  0  0  0  0  0  0  0  0  0  0
   18.3878  -11.5732  -16.2716 C   0  0  0  0  0  0  0  0  0  0  0  0
   17.4557  -12.5244  -15.6924 N   0  0  0  0  0  0  0  0  0  0  0  0
   22.8887   -8.5594  -15.1582 C   0  0  0  0  0  0  0  0  0  0  0  0
   23.2589   -8.6790  -13.9617 O   0  0  0  0  0  0  0  0  0  0  0  0
   22.7408   -7.2354  -15.6529 N   0  0  0  0  0  0  0  0  0  0  0  0
   23.1406   -6.1082  -14.8446 C   0  0  0  0  0  0  0  0  0  0  0  0
   22.0484   -5.5911  -14.0036 C   0  0  0  0  0  0  0  0  0  0  0  0
   20.9349   -6.1435  -14.0224 O   0  0  0  0  0  0  0  0  0  0  0  0
   22.2600   -4.4989  -13.1988 O   0  0  0  0  0  0  0  0  0  0  0  0
  2  1  1  1
  3  2  1  0
  4  5  1  6
  4  2  1  0
  6  4  1  0
  7  6  2  0
  8  6  1  0
  9 10  1  1
  9  8  1  0
 10 11  1  0
 11 12  1  0
 12 13  1  0
 13 14  1  0
 15  9  1  0
 16 15  2  0
 17 15  1  0
 18 17  1  0
 19 21  1  0
 19 18  1  0
 20 19  2  0
M  END
$$$$
