TKG.pdb
     RDKit          3D

 21 20  0  0  1  0  0  0  0  0999 V2000
   22.7111  -16.4702  -18.1346 C   0  0  0  0  0  0  0  0  0  0  0  0
   22.1706  -17.0880  -19.3997 C   0  0  1  0  0  0  0  0  0  0  0  0
   22.2624  -16.2005  -20.4681 O   0  0  0  0  0  0  0  0  0  0  0  0
   22.9365  -18.3666  -19.6701 C   0  0  2  0  0  0  0  0  0  0  0  0
   22.5035  -19.0036  -20.8878 N   0  0  0  0  0  0  0  0  0  0  0  0
   22.7109  -19.2978  -18.5568 C   0  0  0  0  0  0  0  0  0  0  0  0
   21.6079  -19.8825  -18.3850 O   0  0  0  0  0  0  0  0  0  0  0  0
   23.7316  -19.6070  -17.5863 N   0  0  0  0  0  0  0  0  0  0  0  0
   23.4794  -20.5017  -16.4745 C   0  0  1  0  0  0  0  0  0  0  0  0
   24.7361  -21.2112  -16.0302 C   0  0  0  0  0  0  0  0  0  0  0  0
   25.0958  -22.3786  -16.8865 C   0  0  0  0  0  0  0  0  0  0  0  0
   26.4270  -22.9152  -16.4178 C   0  0  0  0  0  0  0  0  0  0  0  0
   26.9999  -23.9447  -17.3466 C   0  0  0  0  0  0  0  0  0  0  0  0
   28.2765  -24.3676  -16.7982 N   0  0  0  0  0  0  0  0  0  0  0  0
   22.8298  -19.7771  -15.3396 C   0  0  0  0  0  0  0  0  0  0  0  0
   23.2453  -18.6656  -14.9215 O   0  0  0  0  0  0  0  0  0  0  0  0
   21.6983  -20.3269  -14.6787 N   0  0  0  0  0  0  0  0  0  0  0  0
   21.1240  -19.6537  -13.5382 C   0  0  0  0  0  0  0  0  0  0  0  0
   19.9184  -18.8799  -13.8777 C   0  0  0  0  0  0  0  0  0  0  0  0
   19.6073  -18.7051  -15.0685 O   0  0  0  0  0  0  0  0  0  0  0  0
   19.1381  -18.3515  -12.8790 O   0  0  0  0  0  0  0  0  0  0  0  0
  2  1  1  1
  3  2  1  0
  4  5  1  6
  4  2  1  0
  6  4  1  0
  7  6  2  0
  8  6  1  0
  9 10  1  1
  9  8  1  0
 10 11  1  0
 11 12  1  0
 12 13  1  0
 13 14  1  0
 15  9  1  0
 16 15  2  0
 17 15  1  0
 18 17  1  0
 19 21  1  0
 19 18  1  0
 20 19  2  0
M  END
$$$$
