TKG.pdb
     RDKit          3D

 21 20  0  0  1  0  0  0  0  0999 V2000
   27.0735  -10.4020  -14.9312 C   0  0  0  0  0  0  0  0  0  0  0  0
   27.4988  -10.6972  -16.3476 C   0  0  1  0  0  0  0  0  0  0  0  0
   28.8051  -11.1763  -16.3877 O   0  0  0  0  0  0  0  0  0  0  0  0
   26.5222  -11.6917  -16.9405 C   0  0  2  0  0  0  0  0  0  0  0  0
   26.9303  -12.1273  -18.2520 N   0  0  0  0  0  0  0  0  0  0  0  0
   25.2057  -11.0507  -17.0562 C   0  0  0  0  0  0  0  0  0  0  0  0
   24.8876  -10.3479  -18.0527 O   0  0  0  0  0  0  0  0  0  0  0  0
   24.1890  -11.1801  -16.0419 N   0  0  0  0  0  0  0  0  0  0  0  0
   22.8925  -10.5470  -16.1779 C   0  0  1  0  0  0  0  0  0  0  0  0
   21.7697  -11.5560  -16.1405 C   0  0  0  0  0  0  0  0  0  0  0  0
   20.4206  -10.9543  -16.3489 C   0  0  0  0  0  0  0  0  0  0  0  0
   19.4017  -12.0685  -16.3476 C   0  0  0  0  0  0  0  0  0  0  0  0
   18.0024  -11.5787  -16.5777 C   0  0  0  0  0  0  0  0  0  0  0  0
   17.1096  -12.7134  -16.4206 N   0  0  0  0  0  0  0  0  0  0  0  0
   22.7050   -9.4814  -15.1463 C   0  0  0  0  0  0  0  0  0  0  0  0
   23.0576   -9.6317  -13.9479 O   0  0  0  0  0  0  0  0  0  0  0  0
   22.1109   -8.2363  -15.4870 N   0  0  0  0  0  0  0  0  0  0  0  0
   21.9134   -7.2241  -14.4769 C   0  0  0  0  0  0  0  0  0  0  0  0
   22.8061   -6.0656  -14.6455 C   0  0  0  0  0  0  0  0  0  0  0  0
   23.6385   -6.0519  -15.5687 O   0  0  0  0  0  0  0  0  0  0  0  0
   22.7189   -5.0006  -13.7832 O   0  0  0  0  0  0  0  0  0  0  0  0
  2  1  1  1
  3  2  1  0
  4  5  1  6
  4  2  1  0
  6  4  1  0
  7  6  2  0
  8  6  1  0
  9 10  1  1
  9  8  1  0
 10 11  1  0
 11 12  1  0
 12 13  1  0
 13 14  1  0
 15  9  1  0
 16 15  2  0
 17 15  1  0
 18 17  1  0
 19 21  1  0
 19 18  1  0
 20 19  2  0
M  END
$$$$
