TKG.pdb
     RDKit          3D

 21 20  0  0  1  0  0  0  0  0999 V2000
   15.9215   -6.9988  -14.8319 C   0  0  0  0  0  0  0  0  0  0  0  0
   15.5213   -8.2726  -14.1306 C   0  0  1  0  0  0  0  0  0  0  0  0
   14.1520   -8.4961  -14.2431 O   0  0  0  0  0  0  0  0  0  0  0  0
   16.3227   -9.4137  -14.7222 C   0  0  2  0  0  0  0  0  0  0  0  0
   15.9993  -10.6738  -14.1025 N   0  0  0  0  0  0  0  0  0  0  0  0
   17.7516   -9.1485  -14.5099 C   0  0  0  0  0  0  0  0  0  0  0  0
   18.3590   -9.5361  -13.4761 O   0  0  0  0  0  0  0  0  0  0  0  0
   18.5566   -8.4289  -15.4658 N   0  0  0  0  0  0  0  0  0  0  0  0
   19.9760   -8.2196  -15.2618 C   0  0  1  0  0  0  0  0  0  0  0  0
   20.7740   -8.5436  -16.5022 C   0  0  0  0  0  0  0  0  0  0  0  0
   22.2467   -8.3908  -16.3201 C   0  0  0  0  0  0  0  0  0  0  0  0
   22.9274   -8.8226  -17.5968 C   0  0  0  0  0  0  0  0  0  0  0  0
   24.4227   -8.8526  -17.4786 C   0  0  0  0  0  0  0  0  0  0  0  0
   24.9606   -9.1425  -18.7961 N   0  0  0  0  0  0  0  0  0  0  0  0
   20.2499   -6.8302  -14.7827 C   0  0  0  0  0  0  0  0  0  0  0  0
   19.6794   -5.8217  -15.2730 O   0  0  0  0  0  0  0  0  0  0  0  0
   21.1816   -6.5925  -13.7364 N   0  0  0  0  0  0  0  0  0  0  0  0
   21.3801   -5.2558  -13.2290 C   0  0  0  0  0  0  0  0  0  0  0  0
   22.0421   -4.3679  -14.1990 C   0  0  0  0  0  0  0  0  0  0  0  0
   22.3902   -4.8089  -15.3080 O   0  0  0  0  0  0  0  0  0  0  0  0
   22.2749   -3.0532  -13.8785 O   0  0  0  0  0  0  0  0  0  0  0  0
  2  1  1  6
  3  2  1  0
  4  5  1  1
  4  2  1  0
  6  4  1  0
  7  6  2  0
  8  6  1  0
  9 10  1  6
  9  8  1  0
 10 11  1  0
 11 12  1  0
 12 13  1  0
 13 14  1  0
 15  9  1  0
 16 15  2  0
 17 15  1  0
 18 17  1  0
 19 21  1  0
 19 18  1  0
 20 19  2  0
M  END
$$$$
