TKG.pdb
     RDKit          3D

 21 20  0  0  1  0  0  0  0  0999 V2000
   15.0198   -7.1333  -16.6884 C   0  0  0  0  0  0  0  0  0  0  0  0
   16.3847   -7.0807  -16.0492 C   0  0  1  0  0  0  0  0  0  0  0  0
   16.3818   -6.2503  -14.9320 O   0  0  0  0  0  0  0  0  0  0  0  0
   16.7980   -8.4935  -15.6922 C   0  0  2  0  0  0  0  0  0  0  0  0
   15.9552   -9.0560  -14.6678 N   0  0  0  0  0  0  0  0  0  0  0  0
   18.1790   -8.4706  -15.1924 C   0  0  0  0  0  0  0  0  0  0  0  0
   18.4458   -8.4158  -13.9620 O   0  0  0  0  0  0  0  0  0  0  0  0
   19.3218   -8.5091  -16.0710 N   0  0  0  0  0  0  0  0  0  0  0  0
   20.6763   -8.5499  -15.5574 C   0  0  1  0  0  0  0  0  0  0  0  0
   21.5818   -9.3848  -16.4310 C   0  0  0  0  0  0  0  0  0  0  0  0
   21.1155  -10.7918  -16.5997 C   0  0  0  0  0  0  0  0  0  0  0  0
   21.9525  -11.4406  -17.6758 C   0  0  0  0  0  0  0  0  0  0  0  0
   21.4653  -12.8103  -18.0465 C   0  0  0  0  0  0  0  0  0  0  0  0
   22.2865  -13.2845  -19.1465 N   0  0  0  0  0  0  0  0  0  0  0  0
   21.2196   -7.1702  -15.3672 C   0  0  0  0  0  0  0  0  0  0  0  0
   21.1005   -6.2711  -16.2392 O   0  0  0  0  0  0  0  0  0  0  0  0
   21.9033   -6.8164  -14.1728 N   0  0  0  0  0  0  0  0  0  0  0  0
   22.4400   -5.4865  -14.0086 C   0  0  0  0  0  0  0  0  0  0  0  0
   21.4618   -4.5398  -13.4479 C   0  0  0  0  0  0  0  0  0  0  0  0
   20.2843   -4.8961  -13.2694 O   0  0  0  0  0  0  0  0  0  0  0  0
   21.8504   -3.2636  -13.1224 O   0  0  0  0  0  0  0  0  0  0  0  0
  2  1  1  1
  3  2  1  0
  4  5  1  1
  4  2  1  0
  6  4  1  0
  7  6  2  0
  8  6  1  0
  9 10  1  6
  9  8  1  0
 10 11  1  0
 11 12  1  0
 12 13  1  0
 13 14  1  0
 15  9  1  0
 16 15  2  0
 17 15  1  0
 18 17  1  0
 19 21  1  0
 19 18  1  0
 20 19  2  0
M  END
$$$$
