TKG.pdb
     RDKit          3D

 21 20  0  0  1  0  0  0  0  0999 V2000
   20.1315   -9.6239  -18.6219 C   0  0  0  0  0  0  0  0  0  0  0  0
   19.7572  -10.8606  -17.8441 C   0  0  1  0  0  0  0  0  0  0  0  0
   18.8696  -11.6546  -18.5646 O   0  0  0  0  0  0  0  0  0  0  0  0
   21.0277  -11.6122  -17.5046 C   0  0  2  0  0  0  0  0  0  0  0  0
   20.7507  -12.8630  -16.8451 N   0  0  0  0  0  0  0  0  0  0  0  0
   21.8402  -10.7851  -16.6028 C   0  0  0  0  0  0  0  0  0  0  0  0
   21.5681  -10.6623  -15.3785 O   0  0  0  0  0  0  0  0  0  0  0  0
   23.0015  -10.0587  -17.0533 N   0  0  0  0  0  0  0  0  0  0  0  0
   23.8398   -9.3163  -16.1332 C   0  0  1  0  0  0  0  0  0  0  0  0
   25.3073   -9.5116  -16.4303 C   0  0  0  0  0  0  0  0  0  0  0  0
   25.7675  -10.9204  -16.2601 C   0  0  0  0  0  0  0  0  0  0  0  0
   27.2565  -10.9635  -16.5062 C   0  0  0  0  0  0  0  0  0  0  0  0
   27.8129  -12.3564  -16.4709 C   0  0  0  0  0  0  0  0  0  0  0  0
   29.2015  -12.2842  -16.8901 N   0  0  0  0  0  0  0  0  0  0  0  0
   23.4718   -7.8674  -16.1223 C   0  0  0  0  0  0  0  0  0  0  0  0
   23.5070   -7.1536  -17.1578 O   0  0  0  0  0  0  0  0  0  0  0  0
   23.0612   -7.2307  -14.9201 N   0  0  0  0  0  0  0  0  0  0  0  0
   22.5686   -5.8741  -14.9471 C   0  0  0  0  0  0  0  0  0  0  0  0
   22.3251   -5.3268  -13.6022 C   0  0  0  0  0  0  0  0  0  0  0  0
   22.0966   -4.1135  -13.4573 O   0  0  0  0  0  0  0  0  0  0  0  0
   22.3504   -6.1567  -12.5085 O   0  0  0  0  0  0  0  0  0  0  0  0
  2  1  1  6
  3  2  1  0
  4  5  1  1
  4  2  1  0
  6  4  1  0
  7  6  2  0
  8  6  1  0
  9 10  1  6
  9  8  1  0
 10 11  1  0
 11 12  1  0
 12 13  1  0
 13 14  1  0
 15  9  1  0
 16 15  2  0
 17 15  1  0
 18 17  1  0
 19 21  1  0
 19 18  1  0
 20 19  2  0
M  END
$$$$
