PVR.pdb
     RDKit          3D

 26 26  0  0  1  0  0  0  0  0999 V2000
    7.1544  -14.5865   19.8728 N   0  0  0  0  0  0  0  0  0  0  0  0
    6.6756  -13.9657   18.6750 C   0  0  0  0  0  0  0  0  0  0  0  0
    7.4878  -12.7095   18.4463 C   0  0  0  0  0  0  0  0  0  0  0  0
    8.2559  -12.5473   19.7153 C   0  0  0  0  0  0  0  0  0  0  0  0
    8.4334  -14.0075   20.1583 C   0  0  1  0  0  0  0  0  0  0  0  0
    8.7835  -14.0454   21.6127 C   0  0  0  0  0  0  0  0  0  0  0  0
    9.8989  -13.6907   22.0601 O   0  0  0  0  0  0  0  0  0  0  0  0
    7.0333  -14.2258   26.1344 C   0  0  0  0  0  0  0  0  0  0  0  0
    6.7681  -14.0645   24.6540 C   0  0  1  0  0  0  0  0  0  0  0  0
    6.6170  -12.5972   24.3610 C   0  0  0  0  0  0  0  0  0  0  0  0
    7.9703  -14.6568   23.9237 C   0  0  2  0  0  0  0  0  0  0  0  0
    7.8163  -14.4997   22.5090 N   0  0  0  0  0  0  0  0  0  0  0  0
    8.2004  -16.0568   24.3331 C   0  0  0  0  0  0  0  0  0  0  0  0
    7.1869  -16.7310   24.6866 O   0  0  0  0  0  0  0  0  0  0  0  0
   11.1068  -13.8430   28.8236 N   0  0  0  0  0  0  0  0  0  0  0  0
   10.7538  -14.7960   29.8292 C   0  0  0  0  0  0  0  0  0  0  0  0
   11.1649  -14.6468   31.0382 N   0  0  0  0  0  0  0  0  0  0  0  0
    9.9468  -15.9190   29.5441 N   0  0  0  0  0  0  0  0  0  0  0  0
   10.4031  -17.1200   28.9068 C   0  0  0  0  0  0  0  0  0  0  0  0
   11.2389  -16.9271   27.6867 C   0  0  0  0  0  0  0  0  0  0  0  0
   10.5699  -16.2928   26.5075 C   0  0  0  0  0  0  0  0  0  0  0  0
   10.0654  -17.2992   25.5395 C   0  0  2  0  0  0  0  0  0  0  0  0
    9.4697  -16.6805   24.3560 N   0  0  0  0  0  0  0  0  0  0  0  0
    9.0829  -18.1993   26.1956 C   0  0  0  0  0  0  0  0  0  0  0  0
    9.3190  -19.5617   26.1643 O   0  0  0  0  0  0  0  0  0  0  0  0
    8.0665  -17.7872   26.7672 O   0  0  0  0  0  0  0  0  0  0  0  0
  1  5  1  0
  1  2  1  0
  2  3  1  0
  4  3  1  0
  5  4  1  0
  6  7  2  0
  5  6  1  1
  9 11  1  0
  9  8  1  1
 10  9  1  0
 11 12  1  6
 12  6  1  0
 13 11  1  0
 14 13  2  0
 16 17  2  0
 16 15  1  0
 18 16  1  0
 19 18  1  0
 20 19  1  0
 20 21  1  0
 22 21  1  1
 22 23  1  0
 23 13  1  0
 24 25  1  0
 24 22  1  0
 26 24  2  0
M  END
$$$$
