PVR.pdb
     RDKit          3D

 26 26  0  0  1  0  0  0  0  0999 V2000
    7.2405  -14.5338   20.9495 N   0  0  0  0  0  0  0  0  0  0  0  0
    6.9687  -13.9376   19.6767 C   0  0  0  0  0  0  0  0  0  0  0  0
    7.9553  -12.8086   19.4724 C   0  0  0  0  0  0  0  0  0  0  0  0
    8.6067  -12.6604   20.8068 C   0  0  0  0  0  0  0  0  0  0  0  0
    8.5486  -14.0995   21.3409 C   0  0  1  0  0  0  0  0  0  0  0  0
    8.7431  -14.0861   22.8245 C   0  0  0  0  0  0  0  0  0  0  0  0
    9.8695  -14.0156   23.3689 O   0  0  0  0  0  0  0  0  0  0  0  0
    6.6348  -13.0451   27.0462 C   0  0  0  0  0  0  0  0  0  0  0  0
    6.5156  -13.1263   25.5405 C   0  0  1  0  0  0  0  0  0  0  0  0
    6.7487  -11.7519   24.9762 C   0  0  0  0  0  0  0  0  0  0  0  0
    7.5813  -14.1106   25.0664 C   0  0  2  0  0  0  0  0  0  0  0  0
    7.6107  -14.1566   23.6357 N   0  0  0  0  0  0  0  0  0  0  0  0
    7.3909  -15.4362   25.6884 C   0  0  0  0  0  0  0  0  0  0  0  0
    6.3469  -16.0807   25.3702 O   0  0  0  0  0  0  0  0  0  0  0  0
    7.1258  -20.7778   22.2360 N   0  0  0  0  0  0  0  0  0  0  0  0
    6.3705  -20.5601   23.4302 C   0  0  0  0  0  0  0  0  0  0  0  0
    5.1248  -20.2492   23.3632 N   0  0  0  0  0  0  0  0  0  0  0  0
    6.9486  -20.6817   24.7127 N   0  0  0  0  0  0  0  0  0  0  0  0
    7.6699  -19.6450   25.3921 C   0  0  0  0  0  0  0  0  0  0  0  0
    8.6318  -18.8713   24.5551 C   0  0  0  0  0  0  0  0  0  0  0  0
    9.3486  -17.7415   25.2262 C   0  0  0  0  0  0  0  0  0  0  0  0
    8.7564  -17.4054   26.5455 C   0  0  2  0  0  0  0  0  0  0  0  0
    8.2926  -16.0200   26.6085 N   0  0  0  0  0  0  0  0  0  0  0  0
    9.7345  -17.6673   27.6321 C   0  0  0  0  0  0  0  0  0  0  0  0
    9.4605  -18.6830   28.5301 O   0  0  0  0  0  0  0  0  0  0  0  0
   10.7797  -17.0208   27.7700 O   0  0  0  0  0  0  0  0  0  0  0  0
  1  5  1  0
  1  2  1  0
  2  3  1  0
  4  3  1  0
  5  4  1  0
  6  7  2  0
  5  6  1  1
  9 11  1  0
  9  8  1  1
 10  9  1  0
 11 12  1  6
 12  6  1  0
 13 11  1  0
 14 13  2  0
 16 17  2  0
 16 15  1  0
 18 16  1  0
 19 18  1  0
 20 19  1  0
 20 21  1  0
 22 21  1  6
 22 23  1  0
 23 13  1  0
 24 25  1  0
 24 22  1  0
 26 24  2  0
M  END
$$$$
