PVR.pdb
     RDKit          3D

 26 26  0  0  1  0  0  0  0  0999 V2000
    7.0954  -17.6687   17.2514 N   0  0  0  0  0  0  0  0  0  0  0  0
    6.5771  -17.9023   15.9377 C   0  0  0  0  0  0  0  0  0  0  0  0
    7.5625  -17.3314   14.9412 C   0  0  0  0  0  0  0  0  0  0  0  0
    8.5129  -16.5526   15.7879 C   0  0  0  0  0  0  0  0  0  0  0  0
    8.4844  -17.3514   17.0998 C   0  0  1  0  0  0  0  0  0  0  0  0
    9.0168  -16.5009   18.2098 C   0  0  0  0  0  0  0  0  0  0  0  0
   10.2365  -16.4131   18.4833 O   0  0  0  0  0  0  0  0  0  0  0  0
    7.6888  -13.0994   21.5258 C   0  0  0  0  0  0  0  0  0  0  0  0
    7.2748  -13.9529   20.3477 C   0  0  1  0  0  0  0  0  0  0  0  0
    7.0744  -13.0506   19.1613 C   0  0  0  0  0  0  0  0  0  0  0  0
    8.4063  -14.9480   20.1051 C   0  0  2  0  0  0  0  0  0  0  0  0
    8.1052  -15.7734   18.9746 N   0  0  0  0  0  0  0  0  0  0  0  0
    8.7024  -15.7204   21.3283 C   0  0  0  0  0  0  0  0  0  0  0  0
    7.7360  -16.3307   21.8762 O   0  0  0  0  0  0  0  0  0  0  0  0
   12.4114  -20.3788   18.8081 N   0  0  0  0  0  0  0  0  0  0  0  0
   13.3335  -19.6168   19.5912 C   0  0  0  0  0  0  0  0  0  0  0  0
   14.4297  -19.1910   19.0718 N   0  0  0  0  0  0  0  0  0  0  0  0
   13.0809  -19.2988   20.9435 N   0  0  0  0  0  0  0  0  0  0  0  0
   11.9330  -19.7268   21.6892 C   0  0  0  0  0  0  0  0  0  0  0  0
   10.9247  -18.6690   21.9876 C   0  0  0  0  0  0  0  0  0  0  0  0
   11.3497  -17.5807   22.9232 C   0  0  0  0  0  0  0  0  0  0  0  0
   10.2809  -16.5720   23.1339 C   0  0  2  0  0  0  0  0  0  0  0  0
    9.9845  -15.8157   21.9180 N   0  0  0  0  0  0  0  0  0  0  0  0
   10.6542  -15.6465   24.2338 C   0  0  0  0  0  0  0  0  0  0  0  0
   10.7354  -16.1533   25.5182 O   0  0  0  0  0  0  0  0  0  0  0  0
   10.8954  -14.4468   24.0542 O   0  0  0  0  0  0  0  0  0  0  0  0
  1  5  1  0
  1  2  1  0
  2  3  1  0
  4  3  1  0
  5  4  1  0
  6  7  2  0
  5  6  1  1
  9 11  1  0
  9  8  1  1
 10  9  1  0
 11 12  1  6
 12  6  1  0
 13 11  1  0
 14 13  2  0
 16 17  2  0
 16 15  1  0
 18 16  1  0
 19 18  1  0
 20 19  1  0
 20 21  1  0
 22 21  1  6
 22 23  1  0
 23 13  1  0
 24 25  1  0
 24 22  1  0
 26 24  2  0
M  END
$$$$
