PVR.pdb
     RDKit          3D

 26 26  0  0  1  0  0  0  0  0999 V2000
    8.4060  -16.3097   15.3550 N   0  0  0  0  0  0  0  0  0  0  0  0
    7.6904  -16.2189   14.1185 C   0  0  0  0  0  0  0  0  0  0  0  0
    7.8538  -14.8105   13.5896 C   0  0  0  0  0  0  0  0  0  0  0  0
    8.4790  -14.0743   14.7272 C   0  0  0  0  0  0  0  0  0  0  0  0
    9.2939  -15.1863   15.4048 C   0  0  1  0  0  0  0  0  0  0  0  0
    9.6360  -14.7699   16.8007 C   0  0  0  0  0  0  0  0  0  0  0  0
   10.7994  -14.4804   17.1654 O   0  0  0  0  0  0  0  0  0  0  0  0
    7.7179  -13.4505   21.1236 C   0  0  0  0  0  0  0  0  0  0  0  0
    7.4560  -13.8037   19.6763 C   0  0  1  0  0  0  0  0  0  0  0  0
    7.1112  -12.5390   18.9392 C   0  0  0  0  0  0  0  0  0  0  0  0
    8.7386  -14.4304   19.1364 C   0  0  2  0  0  0  0  0  0  0  0  0
    8.6048  -14.7037   17.7374 N   0  0  0  0  0  0  0  0  0  0  0  0
    9.1213  -15.6167   19.9281 C   0  0  0  0  0  0  0  0  0  0  0  0
    8.7124  -16.7438   19.5171 O   0  0  0  0  0  0  0  0  0  0  0  0
   16.3392  -14.4560   20.1051 N   0  0  0  0  0  0  0  0  0  0  0  0
   15.6195  -14.6369   18.8831 C   0  0  0  0  0  0  0  0  0  0  0  0
   15.9417  -13.9669   17.8343 N   0  0  0  0  0  0  0  0  0  0  0  0
   14.5467  -15.5487   18.7757 N   0  0  0  0  0  0  0  0  0  0  0  0
   14.4565  -16.7993   19.4717 C   0  0  0  0  0  0  0  0  0  0  0  0
   13.4024  -16.8791   20.5239 C   0  0  0  0  0  0  0  0  0  0  0  0
   12.1335  -16.1298   20.2617 C   0  0  0  0  0  0  0  0  0  0  0  0
   11.1186  -16.3557   21.3215 C   0  0  2  0  0  0  0  0  0  0  0  0
    9.9053  -15.5689   21.1044 N   0  0  0  0  0  0  0  0  0  0  0  0
   11.6919  -16.0536   22.6579 C   0  0  0  0  0  0  0  0  0  0  0  0
   12.4975  -17.0054   23.2563 O   0  0  0  0  0  0  0  0  0  0  0  0
   11.4826  -14.9927   23.2582 O   0  0  0  0  0  0  0  0  0  0  0  0
  1  5  1  0
  1  2  1  0
  2  3  1  0
  4  3  1  0
  5  4  1  0
  6  7  2  0
  5  6  1  1
  9 11  1  0
  9  8  1  1
 10  9  1  0
 11 12  1  6
 12  6  1  0
 13 11  1  0
 14 13  2  0
 16 17  2  0
 16 15  1  0
 18 16  1  0
 19 18  1  0
 20 19  1  0
 20 21  1  0
 22 21  1  6
 22 23  1  0
 23 13  1  0
 24 25  1  0
 24 22  1  0
 26 24  2  0
M  END
$$$$
