PVR.pdb
     RDKit          3D

 26 26  0  0  1  0  0  0  0  0999 V2000
    7.0098  -14.8613   20.7369 N   0  0  0  0  0  0  0  0  0  0  0  0
    6.4210  -14.4482   19.4991 C   0  0  0  0  0  0  0  0  0  0  0  0
    7.1247  -13.1867   19.0481 C   0  0  0  0  0  0  0  0  0  0  0  0
    7.9481  -12.7974   20.2302 C   0  0  0  0  0  0  0  0  0  0  0  0
    8.2568  -14.1658   20.8564 C   0  0  1  0  0  0  0  0  0  0  0  0
    8.6889  -13.9752   22.2762 C   0  0  0  0  0  0  0  0  0  0  0  0
    9.8805  -13.7805   22.6112 O   0  0  0  0  0  0  0  0  0  0  0  0
    6.9988  -13.0961   26.8003 C   0  0  0  0  0  0  0  0  0  0  0  0
    6.6525  -13.3542   25.3507 C   0  0  1  0  0  0  0  0  0  0  0  0
    6.1986  -12.0579   24.7382 C   0  0  0  0  0  0  0  0  0  0  0  0
    7.9217  -13.8723   24.6798 C   0  0  2  0  0  0  0  0  0  0  0  0
    7.7122  -14.0184   23.2711 N   0  0  0  0  0  0  0  0  0  0  0  0
    8.3959  -15.1104   25.3301 C   0  0  0  0  0  0  0  0  0  0  0  0
    7.5201  -15.9701   25.6472 O   0  0  0  0  0  0  0  0  0  0  0  0
   11.8435  -21.5499   27.4175 N   0  0  0  0  0  0  0  0  0  0  0  0
   11.6295  -21.5220   26.0042 C   0  0  0  0  0  0  0  0  0  0  0  0
   10.7870  -22.3254   25.4589 N   0  0  0  0  0  0  0  0  0  0  0  0
   12.3177  -20.6216   25.1619 N   0  0  0  0  0  0  0  0  0  0  0  0
   11.9039  -19.2776   24.8807 C   0  0  0  0  0  0  0  0  0  0  0  0
   12.1459  -18.2857   25.9679 C   0  0  0  0  0  0  0  0  0  0  0  0
   11.6873  -16.8839   25.7126 C   0  0  0  0  0  0  0  0  0  0  0  0
   10.2551  -16.6908   26.0529 C   0  0  2  0  0  0  0  0  0  0  0  0
    9.7525  -15.3882   25.6183 N   0  0  0  0  0  0  0  0  0  0  0  0
   10.0444  -16.8590   27.5135 C   0  0  0  0  0  0  0  0  0  0  0  0
    9.7840  -18.1285   27.9965 O   0  0  0  0  0  0  0  0  0  0  0  0
   10.0915  -15.9184   28.3151 O   0  0  0  0  0  0  0  0  0  0  0  0
  1  5  1  0
  1  2  1  0
  2  3  1  0
  4  3  1  0
  5  4  1  0
  6  7  2  0
  5  6  1  1
  9 11  1  0
  9  8  1  1
 10  9  1  0
 11 12  1  6
 12  6  1  0
 13 11  1  0
 14 13  2  0
 16 17  2  0
 16 15  1  0
 18 16  1  0
 19 18  1  0
 20 19  1  0
 20 21  1  0
 22 21  1  1
 22 23  1  0
 23 13  1  0
 24 25  1  0
 24 22  1  0
 26 24  2  0
M  END
$$$$
