PVR.pdb
     RDKit          3D

 26 26  0  0  1  0  0  0  0  0999 V2000
    7.2839  -14.6217   21.0916 N   0  0  0  0  0  0  0  0  0  0  0  0
    6.8600  -14.1160   19.8212 C   0  0  0  0  0  0  0  0  0  0  0  0
    7.6800  -12.8814   19.5156 C   0  0  0  0  0  0  0  0  0  0  0  0
    8.3884  -12.5992   20.7982 C   0  0  0  0  0  0  0  0  0  0  0  0
    8.5476  -14.0115   21.3810 C   0  0  1  0  0  0  0  0  0  0  0  0
    8.8302  -13.9140   22.8472 C   0  0  0  0  0  0  0  0  0  0  0  0
    9.9887  -13.9109   23.3246 O   0  0  0  0  0  0  0  0  0  0  0  0
    6.8631  -12.7571   27.1723 C   0  0  0  0  0  0  0  0  0  0  0  0
    6.7302  -12.7884   25.6658 C   0  0  1  0  0  0  0  0  0  0  0  0
    6.9387  -11.3923   25.1469 C   0  0  0  0  0  0  0  0  0  0  0  0
    7.8048  -13.7406   25.1482 C   0  0  2  0  0  0  0  0  0  0  0  0
    7.7461  -13.8233   23.7201 N   0  0  0  0  0  0  0  0  0  0  0  0
    7.7101  -15.0560   25.8126 C   0  0  0  0  0  0  0  0  0  0  0  0
    6.6114  -15.6794   25.7091 O   0  0  0  0  0  0  0  0  0  0  0  0
    8.7648  -21.1561   20.8073 N   0  0  0  0  0  0  0  0  0  0  0  0
    9.8200  -20.5723   21.5753 C   0  0  0  0  0  0  0  0  0  0  0  0
   10.9627  -20.3368   21.0354 N   0  0  0  0  0  0  0  0  0  0  0  0
    9.6530  -20.2289   22.9347 N   0  0  0  0  0  0  0  0  0  0  0  0
   10.4993  -19.3323   23.6672 C   0  0  0  0  0  0  0  0  0  0  0  0
    9.9679  -18.8707   24.9821 C   0  0  0  0  0  0  0  0  0  0  0  0
    9.6639  -17.4106   25.1085 C   0  0  0  0  0  0  0  0  0  0  0  0
    9.1420  -17.0599   26.4535 C   0  0  2  0  0  0  0  0  0  0  0  0
    8.7595  -15.6518   26.5504 N   0  0  0  0  0  0  0  0  0  0  0  0
   10.1444  -17.3907   27.4984 C   0  0  0  0  0  0  0  0  0  0  0  0
   10.0519  -18.6173   28.1308 O   0  0  0  0  0  0  0  0  0  0  0  0
   11.0554  -16.6218   27.8276 O   0  0  0  0  0  0  0  0  0  0  0  0
  1  5  1  0
  1  2  1  0
  2  3  1  0
  4  3  1  0
  5  4  1  0
  6  7  2  0
  5  6  1  1
  9 11  1  0
  9  8  1  1
 10  9  1  0
 11 12  1  6
 12  6  1  0
 13 11  1  0
 14 13  2  0
 16 17  2  0
 16 15  1  0
 18 16  1  0
 19 18  1  0
 20 19  1  0
 20 21  1  0
 22 21  1  6
 22 23  1  0
 23 13  1  0
 24 25  1  0
 24 22  1  0
 26 24  2  0
M  END
$$$$
