PVR.pdb
     RDKit          3D

 26 26  0  0  1  0  0  0  0  0999 V2000
    9.1480  -14.3138   19.2201 N   0  0  0  0  0  0  0  0  0  0  0  0
    8.7604  -13.2393   18.3572 C   0  0  0  0  0  0  0  0  0  0  0  0
    7.8643  -12.3099   19.1465 C   0  0  0  0  0  0  0  0  0  0  0  0
    7.5808  -13.0692   20.3995 C   0  0  0  0  0  0  0  0  0  0  0  0
    8.8678  -13.8922   20.5604 C   0  0  1  0  0  0  0  0  0  0  0  0
    8.6130  -15.0337   21.4937 C   0  0  0  0  0  0  0  0  0  0  0  0
    8.2021  -14.8824   22.6678 O   0  0  0  0  0  0  0  0  0  0  0  0
    8.2073  -19.9393   21.6385 C   0  0  0  0  0  0  0  0  0  0  0  0
    8.4733  -18.7135   20.7931 C   0  0  1  0  0  0  0  0  0  0  0  0
    7.2893  -18.4991   19.8910 C   0  0  0  0  0  0  0  0  0  0  0  0
    8.6572  -17.5447   21.7571 C   0  0  2  0  0  0  0  0  0  0  0  0
    8.8474  -16.3274   21.0279 N   0  0  0  0  0  0  0  0  0  0  0  0
    9.7397  -17.8210   22.7227 C   0  0  0  0  0  0  0  0  0  0  0  0
   10.9200  -17.8890   22.2658 O   0  0  0  0  0  0  0  0  0  0  0  0
    9.5594  -14.3031   26.7332 N   0  0  0  0  0  0  0  0  0  0  0  0
   10.0880  -14.1493   28.0527 C   0  0  0  0  0  0  0  0  0  0  0  0
   10.3055  -12.9766   28.5326 N   0  0  0  0  0  0  0  0  0  0  0  0
   10.3825  -15.2596   28.8738 N   0  0  0  0  0  0  0  0  0  0  0  0
   10.3082  -16.6311   28.4613 C   0  0  0  0  0  0  0  0  0  0  0  0
   10.6321  -16.8941   27.0293 C   0  0  0  0  0  0  0  0  0  0  0  0
   10.1719  -18.2022   26.4659 C   0  0  0  0  0  0  0  0  0  0  0  0
   10.5920  -18.3844   25.0536 C   0  0  2  0  0  0  0  0  0  0  0  0
    9.5386  -18.0142   24.1093 N   0  0  0  0  0  0  0  0  0  0  0  0
   11.0194  -19.7874   24.8191 C   0  0  0  0  0  0  0  0  0  0  0  0
   12.3739  -20.0558   24.7401 O   0  0  0  0  0  0  0  0  0  0  0  0
   10.2216  -20.7238   24.6919 O   0  0  0  0  0  0  0  0  0  0  0  0
  1  5  1  0
  1  2  1  0
  2  3  1  0
  4  3  1  0
  5  4  1  0
  6  7  2  0
  5  6  1  1
  9 11  1  0
  9  8  1  1
 10  9  1  0
 11 12  1  6
 12  6  1  0
 13 11  1  0
 14 13  2  0
 16 17  2  0
 16 15  1  0
 18 16  1  0
 19 18  1  0
 20 19  1  0
 20 21  1  0
 22 21  1  1
 22 23  1  0
 23 13  1  0
 24 25  1  0
 24 22  1  0
 26 24  2  0
M  END
$$$$
