PVR.pdb
     RDKit          3D

 26 26  0  0  1  0  0  0  0  0999 V2000
    6.5857  -14.6368   21.2504 N   0  0  0  0  0  0  0  0  0  0  0  0
    6.0378  -14.0925   20.0450 C   0  0  0  0  0  0  0  0  0  0  0  0
    7.0450  -13.1167   19.4762 C   0  0  0  0  0  0  0  0  0  0  0  0
    8.0525  -12.9700   20.5672 C   0  0  0  0  0  0  0  0  0  0  0  0
    7.9899  -14.3523   21.2341 C   0  0  1  0  0  0  0  0  0  0  0  0
    8.5880  -14.2699   22.6032 C   0  0  0  0  0  0  0  0  0  0  0  0
    9.8221  -14.2065   22.8109 O   0  0  0  0  0  0  0  0  0  0  0  0
    7.6514  -12.9316   27.1662 C   0  0  0  0  0  0  0  0  0  0  0  0
    7.1111  -13.1659   25.7729 C   0  0  1  0  0  0  0  0  0  0  0  0
    7.0293  -11.8381   25.0715 C   0  0  0  0  0  0  0  0  0  0  0  0
    8.0890  -14.1056   25.0731 C   0  0  2  0  0  0  0  0  0  0  0  0
    7.7238  -14.2649   23.6979 N   0  0  0  0  0  0  0  0  0  0  0  0
    8.2018  -15.3870   25.7983 C   0  0  0  0  0  0  0  0  0  0  0  0
    7.1227  -15.9438   26.1617 O   0  0  0  0  0  0  0  0  0  0  0  0
   10.2771  -18.4287   20.9162 N   0  0  0  0  0  0  0  0  0  0  0  0
   11.5526  -18.2655   21.5410 C   0  0  0  0  0  0  0  0  0  0  0  0
   12.5415  -17.7768   20.8807 N   0  0  0  0  0  0  0  0  0  0  0  0
   11.7754  -18.6217   22.8890 N   0  0  0  0  0  0  0  0  0  0  0  0
   10.8040  -19.2302   23.7510 C   0  0  0  0  0  0  0  0  0  0  0  0
   10.0227  -18.2925   24.6082 C   0  0  0  0  0  0  0  0  0  0  0  0
   10.3506  -18.2861   26.0687 C   0  0  0  0  0  0  0  0  0  0  0  0
    9.5445  -17.2918   26.8209 C   0  0  2  0  0  0  0  0  0  0  0  0
    9.4280  -16.0196   26.1094 N   0  0  0  0  0  0  0  0  0  0  0  0
   10.1245  -17.0719   28.1704 C   0  0  0  0  0  0  0  0  0  0  0  0
   10.0070  -18.0826   29.1073 O   0  0  0  0  0  0  0  0  0  0  0  0
   10.7063  -16.0295   28.4935 O   0  0  0  0  0  0  0  0  0  0  0  0
  1  5  1  0
  1  2  1  0
  2  3  1  0
  4  3  1  0
  5  4  1  0
  6  7  2  0
  5  6  1  1
  9 11  1  0
  9  8  1  1
 10  9  1  0
 11 12  1  6
 12  6  1  0
 13 11  1  0
 14 13  2  0
 16 17  2  0
 16 15  1  0
 18 16  1  0
 19 18  1  0
 20 19  1  0
 20 21  1  0
 22 21  1  6
 22 23  1  0
 23 13  1  0
 24 25  1  0
 24 22  1  0
 26 24  2  0
M  END
$$$$
