PVR.pdb
     RDKit          3D

 26 26  0  0  1  0  0  0  0  0999 V2000
    8.7946  -18.2949   18.2471 N   0  0  0  0  0  0  0  0  0  0  0  0
    8.1970  -19.4700   17.6891 C   0  0  0  0  0  0  0  0  0  0  0  0
    6.8308  -19.6395   18.3175 C   0  0  0  0  0  0  0  0  0  0  0  0
    6.8249  -18.6432   19.4284 C   0  0  0  0  0  0  0  0  0  0  0  0
    7.7408  -17.5462   18.8650 C   0  0  1  0  0  0  0  0  0  0  0  0
    8.2179  -16.6753   19.9844 C   0  0  0  0  0  0  0  0  0  0  0  0
    9.1818  -16.9767   20.7261 O   0  0  0  0  0  0  0  0  0  0  0  0
    7.7794  -12.1576   21.8738 C   0  0  0  0  0  0  0  0  0  0  0  0
    7.2678  -13.1477   20.8511 C   0  0  1  0  0  0  0  0  0  0  0  0
    7.7409  -12.7071   19.4932 C   0  0  0  0  0  0  0  0  0  0  0  0
    7.8466  -14.5089   21.2274 C   0  0  2  0  0  0  0  0  0  0  0  0
    7.5518  -15.4705   20.2085 N   0  0  0  0  0  0  0  0  0  0  0  0
    7.3921  -14.9239   22.5697 C   0  0  0  0  0  0  0  0  0  0  0  0
    6.1438  -14.9093   22.7887 O   0  0  0  0  0  0  0  0  0  0  0  0
    5.5076  -22.2919   23.8927 N   0  0  0  0  0  0  0  0  0  0  0  0
    6.1522  -21.8563   25.0923 C   0  0  0  0  0  0  0  0  0  0  0  0
    6.1040  -22.5788   26.1546 N   0  0  0  0  0  0  0  0  0  0  0  0
    6.8629  -20.6381   25.1586 N   0  0  0  0  0  0  0  0  0  0  0  0
    6.9147  -19.6573   24.1136 C   0  0  0  0  0  0  0  0  0  0  0  0
    7.7052  -18.4296   24.4176 C   0  0  0  0  0  0  0  0  0  0  0  0
    6.9353  -17.1546   24.5659 C   0  0  0  0  0  0  0  0  0  0  0  0
    7.8191  -15.9934   24.8392 C   0  0  2  0  0  0  0  0  0  0  0  0
    8.2575  -15.3291   23.6125 N   0  0  0  0  0  0  0  0  0  0  0  0
    8.9960  -16.4176   25.6398 C   0  0  0  0  0  0  0  0  0  0  0  0
    8.7910  -16.8076   26.9509 O   0  0  0  0  0  0  0  0  0  0  0  0
   10.1474  -16.4384   25.1888 O   0  0  0  0  0  0  0  0  0  0  0  0
  1  5  1  0
  1  2  1  0
  2  3  1  0
  4  3  1  0
  5  4  1  0
  6  7  2  0
  5  6  1  1
  9 11  1  0
  9  8  1  1
 10  9  1  0
 11 12  1  6
 12  6  1  0
 13 11  1  0
 14 13  2  0
 16 17  2  0
 16 15  1  0
 18 16  1  0
 19 18  1  0
 20 19  1  0
 20 21  1  0
 22 21  1  6
 22 23  1  0
 23 13  1  0
 24 25  1  0
 24 22  1  0
 26 24  2  0
M  END
$$$$
