PVR.pdb
     RDKit          3D

 26 26  0  0  1  0  0  0  0  0999 V2000
    6.9815  -14.1768   21.4529 N   0  0  0  0  0  0  0  0  0  0  0  0
    6.5066  -13.5006   20.2838 C   0  0  0  0  0  0  0  0  0  0  0  0
    7.5518  -12.4841   19.8785 C   0  0  0  0  0  0  0  0  0  0  0  0
    8.4974  -12.4675   21.0328 C   0  0  0  0  0  0  0  0  0  0  0  0
    8.3865  -13.9116   21.5444 C   0  0  1  0  0  0  0  0  0  0  0  0
    8.9072  -13.9827   22.9455 C   0  0  0  0  0  0  0  0  0  0  0  0
   10.1262  -14.0721   23.2214 O   0  0  0  0  0  0  0  0  0  0  0  0
    8.0132  -11.6225   25.6077 C   0  0  0  0  0  0  0  0  0  0  0  0
    7.5311  -12.9477   26.1549 C   0  0  1  0  0  0  0  0  0  0  0  0
    6.0468  -13.0369   25.9297 C   0  0  0  0  0  0  0  0  0  0  0  0
    8.2765  -14.0379   25.3899 C   0  0  2  0  0  0  0  0  0  0  0  0
    7.9848  -13.9482   23.9911 N   0  0  0  0  0  0  0  0  0  0  0  0
    7.9947  -15.3707   25.9598 C   0  0  0  0  0  0  0  0  0  0  0  0
    6.9037  -15.9238   25.6277 O   0  0  0  0  0  0  0  0  0  0  0  0
    9.5299  -21.7660   22.9799 N   0  0  0  0  0  0  0  0  0  0  0  0
   10.8055  -21.8798   23.6156 C   0  0  0  0  0  0  0  0  0  0  0  0
   11.2394  -23.0273   24.0001 N   0  0  0  0  0  0  0  0  0  0  0  0
   11.6321  -20.7570   23.8385 N   0  0  0  0  0  0  0  0  0  0  0  0
   11.1694  -19.4048   23.9570 C   0  0  0  0  0  0  0  0  0  0  0  0
   10.4453  -19.0773   25.2192 C   0  0  0  0  0  0  0  0  0  0  0  0
    9.9895  -17.6612   25.3840 C   0  0  0  0  0  0  0  0  0  0  0  0
    9.2868  -17.4438   26.6737 C   0  0  2  0  0  0  0  0  0  0  0  0
    8.8589  -16.0561   26.8452 N   0  0  0  0  0  0  0  0  0  0  0  0
   10.1513  -17.8566   27.8086 C   0  0  0  0  0  0  0  0  0  0  0  0
    9.9995  -19.1335   28.3180 O   0  0  0  0  0  0  0  0  0  0  0  0
   10.9986  -17.1129   28.3171 O   0  0  0  0  0  0  0  0  0  0  0  0
  1  5  1  0
  1  2  1  0
  2  3  1  0
  4  3  1  0
  5  4  1  0
  6  7  2  0
  5  6  1  1
  9 11  1  0
  9  8  1  6
 10  9  1  0
 11 12  1  6
 12  6  1  0
 13 11  1  0
 14 13  2  0
 16 17  2  0
 16 15  1  0
 18 16  1  0
 19 18  1  0
 20 19  1  0
 20 21  1  0
 22 21  1  6
 22 23  1  0
 23 13  1  0
 24 25  1  0
 24 22  1  0
 26 24  2  0
M  END
$$$$
