PVR.pdb
     RDKit          3D

 26 26  0  0  1  0  0  0  0  0999 V2000
    9.4028  -15.8981   15.1311 N   0  0  0  0  0  0  0  0  0  0  0  0
    9.0307  -16.8455   14.1245 C   0  0  0  0  0  0  0  0  0  0  0  0
    8.1306  -17.8777   14.7681 C   0  0  0  0  0  0  0  0  0  0  0  0
    8.2417  -17.5853   16.2273 C   0  0  0  0  0  0  0  0  0  0  0  0
    8.4887  -16.0692   16.2210 C   0  0  1  0  0  0  0  0  0  0  0  0
    9.0629  -15.6549   17.5393 C   0  0  0  0  0  0  0  0  0  0  0  0
   10.2601  -15.8442   17.8569 O   0  0  0  0  0  0  0  0  0  0  0  0
    8.0111  -13.2143   21.6940 C   0  0  0  0  0  0  0  0  0  0  0  0
    7.5345  -13.6361   20.3217 C   0  0  1  0  0  0  0  0  0  0  0  0
    7.4861  -12.4148   19.4455 C   0  0  0  0  0  0  0  0  0  0  0  0
    8.5425  -14.6561   19.7993 C   0  0  2  0  0  0  0  0  0  0  0  0
    8.2182  -15.0284   18.4554 N   0  0  0  0  0  0  0  0  0  0  0  0
    8.6491  -15.8103   20.7142 C   0  0  0  0  0  0  0  0  0  0  0  0
    8.0300  -16.8671   20.3881 O   0  0  0  0  0  0  0  0  0  0  0  0
   15.8850  -19.4355   19.4293 N   0  0  0  0  0  0  0  0  0  0  0  0
   15.4293  -20.0623   20.6308 C   0  0  0  0  0  0  0  0  0  0  0  0
   16.0281  -21.1045   21.0870 N   0  0  0  0  0  0  0  0  0  0  0  0
   14.3253  -19.5680   21.3590 N   0  0  0  0  0  0  0  0  0  0  0  0
   13.4933  -18.4735   20.9508 C   0  0  0  0  0  0  0  0  0  0  0  0
   12.3243  -18.1865   21.8315 C   0  0  0  0  0  0  0  0  0  0  0  0
   11.4095  -17.0848   21.3956 C   0  0  0  0  0  0  0  0  0  0  0  0
   10.2854  -16.8801   22.3437 C   0  0  2  0  0  0  0  0  0  0  0  0
    9.3903  -15.8046   21.9189 N   0  0  0  0  0  0  0  0  0  0  0  0
   10.8044  -16.6048   23.7078 C   0  0  0  0  0  0  0  0  0  0  0  0
   10.7116  -15.3143   24.1967 O   0  0  0  0  0  0  0  0  0  0  0  0
   11.3139  -17.4745   24.4245 O   0  0  0  0  0  0  0  0  0  0  0  0
  1  5  1  0
  1  2  1  0
  2  3  1  0
  4  3  1  0
  5  4  1  0
  6  7  2  0
  5  6  1  1
  9 11  1  0
  9  8  1  1
 10  9  1  0
 11 12  1  6
 12  6  1  0
 13 11  1  0
 14 13  2  0
 16 17  2  0
 16 15  1  0
 18 16  1  0
 19 18  1  0
 20 19  1  0
 20 21  1  0
 22 21  1  6
 22 23  1  0
 23 13  1  0
 24 25  1  0
 24 22  1  0
 26 24  2  0
M  END
$$$$
