PVR.pdb
     RDKit          3D

 26 26  0  0  1  0  0  0  0  0999 V2000
    6.8875  -14.5345   21.0125 N   0  0  0  0  0  0  0  0  0  0  0  0
    6.2738  -14.0388   19.8180 C   0  0  0  0  0  0  0  0  0  0  0  0
    7.0022  -12.7763   19.4110 C   0  0  0  0  0  0  0  0  0  0  0  0
    7.8736  -12.4752   20.5844 C   0  0  0  0  0  0  0  0  0  0  0  0
    8.1587  -13.8835   21.1276 C   0  0  1  0  0  0  0  0  0  0  0  0
    8.6403  -13.7818   22.5407 C   0  0  0  0  0  0  0  0  0  0  0  0
    9.8281  -13.5230   22.8445 O   0  0  0  0  0  0  0  0  0  0  0  0
    7.0311  -13.4673   27.1824 C   0  0  0  0  0  0  0  0  0  0  0  0
    6.7138  -13.4306   25.7039 C   0  0  1  0  0  0  0  0  0  0  0  0
    6.3590  -12.0166   25.3347 C   0  0  0  0  0  0  0  0  0  0  0  0
    7.9686  -13.8987   24.9720 C   0  0  2  0  0  0  0  0  0  0  0  0
    7.7167  -13.9872   23.5654 N   0  0  0  0  0  0  0  0  0  0  0  0
    8.4813  -15.1559   25.5526 C   0  0  0  0  0  0  0  0  0  0  0  0
    7.6595  -16.1125   25.6801 O   0  0  0  0  0  0  0  0  0  0  0  0
   15.6332  -15.9421   22.7435 N   0  0  0  0  0  0  0  0  0  0  0  0
   15.2979  -17.0837   23.5362 C   0  0  0  0  0  0  0  0  0  0  0  0
   15.7844  -18.2387   23.2498 N   0  0  0  0  0  0  0  0  0  0  0  0
   14.4383  -16.9919   24.6525 N   0  0  0  0  0  0  0  0  0  0  0  0
   13.9312  -18.1091   25.3951 C   0  0  0  0  0  0  0  0  0  0  0  0
   12.5154  -17.9942   25.8499 C   0  0  0  0  0  0  0  0  0  0  0  0
   11.8248  -16.6951   25.5745 C   0  0  0  0  0  0  0  0  0  0  0  0
   10.4500  -16.6602   26.1341 C   0  0  2  0  0  0  0  0  0  0  0  0
    9.8180  -15.3516   25.9715 N   0  0  0  0  0  0  0  0  0  0  0  0
   10.4666  -17.0457   27.5684 C   0  0  0  0  0  0  0  0  0  0  0  0
   10.7707  -18.3556   27.8919 O   0  0  0  0  0  0  0  0  0  0  0  0
   10.2221  -16.2510   28.4839 O   0  0  0  0  0  0  0  0  0  0  0  0
  1  5  1  0
  1  2  1  0
  2  3  1  0
  4  3  1  0
  5  4  1  0
  6  7  2  0
  5  6  1  1
  9 11  1  0
  9  8  1  1
 10  9  1  0
 11 12  1  6
 12  6  1  0
 13 11  1  0
 14 13  2  0
 16 17  2  0
 16 15  1  0
 18 16  1  0
 19 18  1  0
 20 19  1  0
 20 21  1  0
 22 21  1  1
 22 23  1  0
 23 13  1  0
 24 25  1  0
 24 22  1  0
 26 24  2  0
M  END
$$$$
