PVR.pdb
     RDKit          3D

 26 26  0  0  1  0  0  0  0  0999 V2000
    5.3952  -18.0805   22.3804 N   0  0  0  0  0  0  0  0  0  0  0  0
    4.1401  -18.5172   21.8481 C   0  0  0  0  0  0  0  0  0  0  0  0
    3.7068  -17.5161   20.7993 C   0  0  0  0  0  0  0  0  0  0  0  0
    4.6632  -16.3838   20.9726 C   0  0  0  0  0  0  0  0  0  0  0  0
    5.9223  -17.1147   21.4628 C   0  0  1  0  0  0  0  0  0  0  0  0
    6.8454  -16.1316   22.1113 C   0  0  0  0  0  0  0  0  0  0  0  0
    7.4440  -15.2308   21.4785 O   0  0  0  0  0  0  0  0  0  0  0  0
    8.2262  -14.2089   26.3794 C   0  0  0  0  0  0  0  0  0  0  0  0
    7.2598  -15.0917   25.6212 C   0  0  1  0  0  0  0  0  0  0  0  0
    5.9777  -14.3291   25.4304 C   0  0  0  0  0  0  0  0  0  0  0  0
    7.9177  -15.4179   24.2832 C   0  0  2  0  0  0  0  0  0  0  0  0
    7.0459  -16.2289   23.4882 N   0  0  0  0  0  0  0  0  0  0  0  0
    9.2519  -16.0185   24.4825 C   0  0  0  0  0  0  0  0  0  0  0  0
    9.3219  -17.0386   25.2316 O   0  0  0  0  0  0  0  0  0  0  0  0
   16.3588  -14.0360   21.5185 N   0  0  0  0  0  0  0  0  0  0  0  0
   15.6300  -15.1165   20.9308 C   0  0  0  0  0  0  0  0  0  0  0  0
   14.9474  -14.9315   19.8573 N   0  0  0  0  0  0  0  0  0  0  0  0
   15.6342  -16.4126   21.4909 N   0  0  0  0  0  0  0  0  0  0  0  0
   14.6023  -16.9504   22.3292 C   0  0  0  0  0  0  0  0  0  0  0  0
   14.1538  -16.0711   23.4474 C   0  0  0  0  0  0  0  0  0  0  0  0
   12.8121  -15.4249   23.2970 C   0  0  0  0  0  0  0  0  0  0  0  0
   11.7367  -16.2015   23.9640 C   0  0  2  0  0  0  0  0  0  0  0  0
   10.4412  -15.5268   23.8959 N   0  0  0  0  0  0  0  0  0  0  0  0
   12.0981  -16.4735   25.3787 C   0  0  0  0  0  0  0  0  0  0  0  0
   11.7530  -15.5362   26.3355 O   0  0  0  0  0  0  0  0  0  0  0  0
   12.6914  -17.4970   25.7392 O   0  0  0  0  0  0  0  0  0  0  0  0
  1  5  1  0
  1  2  1  0
  2  3  1  0
  4  3  1  0
  5  4  1  0
  6  7  2  0
  5  6  1  1
  9 11  1  0
  9  8  1  1
 10  9  1  0
 11 12  1  1
 12  6  1  0
 13 11  1  0
 14 13  2  0
 16 17  2  0
 16 15  1  0
 18 16  1  0
 19 18  1  0
 20 19  1  0
 20 21  1  0
 22 21  1  1
 22 23  1  0
 23 13  1  0
 24 25  1  0
 24 22  1  0
 26 24  2  0
M  END
$$$$
