PVR.pdb
     RDKit          3D

 26 26  0  0  1  0  0  0  0  0999 V2000
    7.4821  -17.2964   17.0646 N   0  0  0  0  0  0  0  0  0  0  0  0
    6.8128  -17.5286   15.8207 C   0  0  0  0  0  0  0  0  0  0  0  0
    7.4276  -16.6130   14.7845 C   0  0  0  0  0  0  0  0  0  0  0  0
    8.2867  -15.6943   15.5874 C   0  0  0  0  0  0  0  0  0  0  0  0
    8.6959  -16.5988   16.7596 C   0  0  1  0  0  0  0  0  0  0  0  0
    9.1866  -15.7521   17.8916 C   0  0  0  0  0  0  0  0  0  0  0  0
   10.3301  -15.2405   17.9211 O   0  0  0  0  0  0  0  0  0  0  0  0
    7.8418  -13.3869   21.9660 C   0  0  0  0  0  0  0  0  0  0  0  0
    7.4784  -13.9605   20.6144 C   0  0  1  0  0  0  0  0  0  0  0  0
    7.2827  -12.8178   19.6564 C   0  0  0  0  0  0  0  0  0  0  0  0
    8.6410  -14.8521   20.1869 C   0  0  2  0  0  0  0  0  0  0  0  0
    8.3240  -15.5257   18.9640 N   0  0  0  0  0  0  0  0  0  0  0  0
    9.0299  -15.7716   21.2749 C   0  0  0  0  0  0  0  0  0  0  0  0
    8.1056  -16.4423   21.8247 O   0  0  0  0  0  0  0  0  0  0  0  0
   14.8410  -20.8962   22.5043 N   0  0  0  0  0  0  0  0  0  0  0  0
   14.7982  -19.9644   21.4207 C   0  0  0  0  0  0  0  0  0  0  0  0
   15.8844  -19.5852   20.8470 N   0  0  0  0  0  0  0  0  0  0  0  0
   13.5815  -19.4351   20.9380 N   0  0  0  0  0  0  0  0  0  0  0  0
   12.4184  -19.1830   21.7382 C   0  0  0  0  0  0  0  0  0  0  0  0
   12.6485  -18.3940   22.9828 C   0  0  0  0  0  0  0  0  0  0  0  0
   12.2143  -16.9618   22.9601 C   0  0  0  0  0  0  0  0  0  0  0  0
   10.7411  -16.8234   22.8378 C   0  0  2  0  0  0  0  0  0  0  0  0
   10.3563  -15.9433   21.7351 N   0  0  0  0  0  0  0  0  0  0  0  0
   10.1615  -16.3293   24.1128 C   0  0  0  0  0  0  0  0  0  0  0  0
   10.1006  -14.9631   24.3196 O   0  0  0  0  0  0  0  0  0  0  0  0
    9.7317  -17.0816   24.9954 O   0  0  0  0  0  0  0  0  0  0  0  0
  1  5  1  0
  1  2  1  0
  2  3  1  0
  4  3  1  0
  5  4  1  0
  6  7  2  0
  5  6  1  1
  9 11  1  0
  9  8  1  1
 10  9  1  0
 11 12  1  6
 12  6  1  0
 13 11  1  0
 14 13  2  0
 16 17  2  0
 16 15  1  0
 18 16  1  0
 19 18  1  0
 20 19  1  0
 20 21  1  0
 22 21  1  1
 22 23  1  0
 23 13  1  0
 24 25  1  0
 24 22  1  0
 26 24  2  0
M  END
$$$$
