KCR.pdb
     RDKit          3D

 27 26  0  0  1  0  0  0  0  0999 V2000
   32.5028  -11.4881  -18.2025 N   0  0  0  0  0  0  0  0  0  0  0  0
   31.5760  -10.7641  -17.4034 C   0  0  1  0  0  0  0  0  0  0  0  0
   31.7077   -9.2964  -17.4990 C   0  0  0  0  0  0  0  0  0  0  0  0
   32.9701   -8.6728  -17.0018 C   0  0  0  0  0  0  0  0  0  0  0  0
   32.9384   -7.1959  -17.1190 C   0  0  0  0  0  0  0  0  0  0  0  0
   34.1574   -6.5376  -16.4833 C   0  0  0  0  0  0  0  0  0  0  0  0
   34.0839   -6.5033  -15.0547 N   0  0  0  0  0  0  0  0  0  0  0  0
   30.1792  -11.1361  -17.8392 C   0  0  0  0  0  0  0  0  0  0  0  0
   29.8994  -11.3741  -19.0383 O   0  0  0  0  0  0  0  0  0  0  0  0
   29.1337  -11.2265  -16.8932 N   0  0  0  0  0  0  0  0  0  0  0  0
   27.7772  -11.6376  -17.1936 C   0  0  1  0  0  0  0  0  0  0  0  0
   27.1724  -12.2023  -15.9294 C   0  0  0  0  0  0  0  0  0  0  0  0
   27.8314  -13.8835  -15.6819 S   0  0  0  0  0  0  0  0  0  0  0  0
   27.0503  -10.4000  -17.6364 C   0  0  0  0  0  0  0  0  0  0  0  0
   27.2071   -9.2851  -17.0666 O   0  0  0  0  0  0  0  0  0  0  0  0
   26.5890   -6.8955  -25.3127 N   0  0  0  0  0  0  0  0  0  0  0  0
   26.2407   -5.9049  -24.3476 C   0  0  0  0  0  0  0  0  0  0  0  0
   26.2917   -4.6742  -24.6807 N   0  0  0  0  0  0  0  0  0  0  0  0
   25.8398   -6.2674  -23.0281 N   0  0  0  0  0  0  0  0  0  0  0  0
   25.8088   -7.6478  -22.6270 C   0  0  0  0  0  0  0  0  0  0  0  0
   25.2620   -7.8064  -21.2418 C   0  0  0  0  0  0  0  0  0  0  0  0
   25.9201   -8.9542  -20.5605 C   0  0  0  0  0  0  0  0  0  0  0  0
   25.4582   -9.2060  -19.1439 C   0  0  2  0  0  0  0  0  0  0  0  0
   26.1438  -10.4258  -18.7283 N   0  0  0  0  0  0  0  0  0  0  0  0
   24.0014   -9.3909  -19.0805 C   0  0  0  0  0  0  0  0  0  0  0  0
   23.4428  -10.4989  -18.9053 O   0  0  0  0  0  0  0  0  0  0  0  0
   23.1656   -8.2939  -19.2186 O   0  0  0  0  0  0  0  0  0  0  0  0
  2  3  1  0
  2  1  1  6
  4  5  1  0
  4  3  1  0
  5  6  1  0
  6  7  1  0
  8  9  2  0
  8  2  1  0
 10  8  1  0
 11 10  1  0
 11 12  1  1
 13 12  1  0
 14 15  2  0
 14 11  1  0
 17 16  1  0
 18 17  2  0
 19 17  1  0
 20 19  1  0
 21 20  1  0
 21 22  1  0
 23 22  1  6
 23 24  1  0
 24 14  1  0
 25 23  1  0
 26 25  2  0
 27 25  1  0
M  END
$$$$
