KCR.pdb
     RDKit          3D

 27 26  0  0  1  0  0  0  0  0999 V2000
   28.9633  -19.4460  -16.5716 N   0  0  0  0  0  0  0  0  0  0  0  0
   28.1293  -20.5950  -16.6483 C   0  0  1  0  0  0  0  0  0  0  0  0
   28.5311  -21.5698  -17.6823 C   0  0  0  0  0  0  0  0  0  0  0  0
   28.7630  -21.0646  -19.0683 C   0  0  0  0  0  0  0  0  0  0  0  0
   27.6947  -20.1333  -19.5011 C   0  0  0  0  0  0  0  0  0  0  0  0
   27.8681  -19.6839  -20.9472 C   0  0  0  0  0  0  0  0  0  0  0  0
   26.9742  -20.3511  -21.8434 N   0  0  0  0  0  0  0  0  0  0  0  0
   28.1593  -21.2952  -15.3110 C   0  0  0  0  0  0  0  0  0  0  0  0
   27.5593  -22.3790  -15.1157 O   0  0  0  0  0  0  0  0  0  0  0  0
   28.8744  -20.7390  -14.2269 N   0  0  0  0  0  0  0  0  0  0  0  0
   28.7563  -21.1686  -12.8482 C   0  0  1  0  0  0  0  0  0  0  0  0
   29.9214  -20.5897  -12.0799 C   0  0  0  0  0  0  0  0  0  0  0  0
   29.7110  -21.0112  -10.3191 S   0  0  0  0  0  0  0  0  0  0  0  0
   27.4507  -20.6210  -12.3468 C   0  0  0  0  0  0  0  0  0  0  0  0
   27.0574  -19.4543  -12.6235 O   0  0  0  0  0  0  0  0  0  0  0  0
   19.8519  -21.9894  -14.7590 N   0  0  0  0  0  0  0  0  0  0  0  0
   19.6311  -21.1005  -13.6657 C   0  0  0  0  0  0  0  0  0  0  0  0
   18.5090  -20.4995  -13.5763 N   0  0  0  0  0  0  0  0  0  0  0  0
   20.6373  -20.8765  -12.6805 N   0  0  0  0  0  0  0  0  0  0  0  0
   21.9957  -21.2834  -12.9176 C   0  0  0  0  0  0  0  0  0  0  0  0
   22.9047  -20.8368  -11.8143 C   0  0  0  0  0  0  0  0  0  0  0  0
   24.3091  -21.2217  -12.1213 C   0  0  0  0  0  0  0  0  0  0  0  0
   25.3204  -20.8438  -11.0640 C   0  0  2  0  0  0  0  0  0  0  0  0
   26.5877  -21.3978  -11.5304 N   0  0  0  0  0  0  0  0  0  0  0  0
   24.9645  -21.4110   -9.7555 C   0  0  0  0  0  0  0  0  0  0  0  0
   25.4263  -22.4871   -9.3094 O   0  0  0  0  0  0  0  0  0  0  0  0
   24.0670  -20.7400   -8.9399 O   0  0  0  0  0  0  0  0  0  0  0  0
  2  3  1  0
  2  1  1  1
  4  5  1  0
  4  3  1  0
  5  6  1  0
  6  7  1  0
  8  9  2  0
  8  2  1  0
 10  8  1  0
 11 10  1  0
 11 12  1  1
 13 12  1  0
 14 15  2  0
 14 11  1  0
 17 16  1  0
 18 17  2  0
 19 17  1  0
 20 19  1  0
 21 20  1  0
 21 22  1  0
 23 22  1  6
 23 24  1  0
 24 14  1  0
 25 23  1  0
 26 25  2  0
 27 25  1  0
M  END
$$$$
