KCR.pdb
     RDKit          3D

 27 26  0  0  1  0  0  0  0  0999 V2000
   25.8679  -20.5175  -15.4469 N   0  0  0  0  0  0  0  0  0  0  0  0
   26.3744  -20.2043  -14.1558 C   0  0  1  0  0  0  0  0  0  0  0  0
   27.0152  -18.8773  -14.0596 C   0  0  0  0  0  0  0  0  0  0  0  0
   27.9773  -18.4851  -15.1323 C   0  0  0  0  0  0  0  0  0  0  0  0
   27.2842  -17.9220  -16.3149 C   0  0  0  0  0  0  0  0  0  0  0  0
   28.2584  -17.4584  -17.3916 C   0  0  0  0  0  0  0  0  0  0  0  0
   27.5960  -16.9288  -18.5441 N   0  0  0  0  0  0  0  0  0  0  0  0
   25.2286  -20.2408  -13.1732 C   0  0  0  0  0  0  0  0  0  0  0  0
   25.3531  -19.8348  -11.9932 O   0  0  0  0  0  0  0  0  0  0  0  0
   23.9664  -20.7420  -13.5627 N   0  0  0  0  0  0  0  0  0  0  0  0
   22.7777  -20.7289  -12.7343 C   0  0  1  0  0  0  0  0  0  0  0  0
   22.3957  -19.2872  -12.4930 C   0  0  0  0  0  0  0  0  0  0  0  0
   20.9181  -19.2583  -11.4262 S   0  0  0  0  0  0  0  0  0  0  0  0
   21.7139  -21.4485  -13.5131 C   0  0  0  0  0  0  0  0  0  0  0  0
   21.2655  -21.0095  -14.6078 O   0  0  0  0  0  0  0  0  0  0  0  0
   21.5512  -28.8239  -14.0006 N   0  0  0  0  0  0  0  0  0  0  0  0
   20.4132  -28.6981  -13.1502 C   0  0  0  0  0  0  0  0  0  0  0  0
   19.7328  -29.7410  -12.8718 N   0  0  0  0  0  0  0  0  0  0  0  0
   20.0289  -27.4348  -12.6120 N   0  0  0  0  0  0  0  0  0  0  0  0
   18.7762  -26.8336  -12.9812 C   0  0  0  0  0  0  0  0  0  0  0  0
   18.9791  -25.6082  -13.8180 C   0  0  0  0  0  0  0  0  0  0  0  0
   19.9782  -24.7107  -13.1769 C   0  0  0  0  0  0  0  0  0  0  0  0
   20.1492  -23.3657  -13.8442 C   0  0  2  0  0  0  0  0  0  0  0  0
   21.1572  -22.6695  -13.0504 N   0  0  0  0  0  0  0  0  0  0  0  0
   18.8901  -22.6075  -13.8514 C   0  0  0  0  0  0  0  0  0  0  0  0
   18.4912  -21.9027  -12.8951 O   0  0  0  0  0  0  0  0  0  0  0  0
   18.0707  -22.6522  -14.9683 O   0  0  0  0  0  0  0  0  0  0  0  0
  2  3  1  0
  2  1  1  6
  4  5  1  0
  4  3  1  0
  5  6  1  0
  6  7  1  0
  8  9  2  0
  8  2  1  0
 10  8  1  0
 11 10  1  0
 11 12  1  6
 13 12  1  0
 14 15  2  0
 14 11  1  0
 17 16  1  0
 18 17  2  0
 19 17  1  0
 20 19  1  0
 21 20  1  0
 21 22  1  0
 23 22  1  1
 23 24  1  0
 24 14  1  0
 25 23  1  0
 26 25  2  0
 27 25  1  0
M  END
$$$$
