KCR.pdb
     RDKit          3D

 27 26  0  0  1  0  0  0  0  0999 V2000
   19.1565  -20.4962  -11.2981 N   0  0  0  0  0  0  0  0  0  0  0  0
   20.2969  -21.3368  -11.1772 C   0  0  1  0  0  0  0  0  0  0  0  0
   20.1333  -22.6740  -11.7821 C   0  0  0  0  0  0  0  0  0  0  0  0
   19.2134  -23.6389  -11.1094 C   0  0  0  0  0  0  0  0  0  0  0  0
   19.4820  -23.7337   -9.6552 C   0  0  0  0  0  0  0  0  0  0  0  0
   18.5908  -24.7610   -8.9668 C   0  0  0  0  0  0  0  0  0  0  0  0
   18.9415  -24.9644   -7.5945 N   0  0  0  0  0  0  0  0  0  0  0  0
   21.4627  -20.6580  -11.8552 C   0  0  0  0  0  0  0  0  0  0  0  0
   21.2990  -19.7841  -12.7395 O   0  0  0  0  0  0  0  0  0  0  0  0
   22.7897  -20.9953  -11.5066 N   0  0  0  0  0  0  0  0  0  0  0  0
   23.9721  -20.3027  -11.9774 C   0  0  1  0  0  0  0  0  0  0  0  0
   24.9559  -20.2326  -10.8329 C   0  0  0  0  0  0  0  0  0  0  0  0
   25.2196  -21.9220  -10.2015 S   0  0  0  0  0  0  0  0  0  0  0  0
   24.5171  -21.1232  -13.1113 C   0  0  0  0  0  0  0  0  0  0  0  0
   24.5566  -22.3839  -13.0740 O   0  0  0  0  0  0  0  0  0  0  0  0
   26.7583  -18.3377  -21.2187 N   0  0  0  0  0  0  0  0  0  0  0  0
   27.0484  -19.7340  -21.2424 C   0  0  0  0  0  0  0  0  0  0  0  0
   27.5408  -20.2438  -22.3034 N   0  0  0  0  0  0  0  0  0  0  0  0
   26.7981  -20.5601  -20.1074 N   0  0  0  0  0  0  0  0  0  0  0  0
   26.3187  -19.9880  -18.8786 C   0  0  0  0  0  0  0  0  0  0  0  0
   26.1751  -21.0251  -17.8077 C   0  0  0  0  0  0  0  0  0  0  0  0
   25.6201  -20.4103  -16.5714 C   0  0  0  0  0  0  0  0  0  0  0  0
   25.5403  -21.3350  -15.3788 C   0  0  2  0  0  0  0  0  0  0  0  0
   25.0181  -20.5134  -14.2911 N   0  0  0  0  0  0  0  0  0  0  0  0
   26.8633  -21.8698  -15.0265 C   0  0  0  0  0  0  0  0  0  0  0  0
   27.6226  -21.3547  -14.1730 O   0  0  0  0  0  0  0  0  0  0  0  0
   27.3297  -23.0125  -15.6571 O   0  0  0  0  0  0  0  0  0  0  0  0
  2  3  1  0
  2  1  1  6
  4  5  1  0
  4  3  1  0
  5  6  1  0
  6  7  1  0
  8  9  2  0
  8  2  1  0
 10  8  1  0
 11 10  1  0
 11 12  1  1
 13 12  1  0
 14 15  2  0
 14 11  1  0
 17 16  1  0
 18 17  2  0
 19 17  1  0
 20 19  1  0
 21 20  1  0
 21 22  1  0
 23 22  1  6
 23 24  1  0
 24 14  1  0
 25 23  1  0
 26 25  2  0
 27 25  1  0
M  END
$$$$
