KCR.pdb
     RDKit          3D

 27 26  0  0  1  0  0  0  0  0999 V2000
   28.2890  -21.3059  -16.3984 N   0  0  0  0  0  0  0  0  0  0  0  0
   27.8154  -20.3292  -15.4800 C   0  0  1  0  0  0  0  0  0  0  0  0
   27.0646  -19.2214  -16.1041 C   0  0  0  0  0  0  0  0  0  0  0  0
   25.8810  -19.5653  -16.9472 C   0  0  0  0  0  0  0  0  0  0  0  0
   25.3693  -18.3867  -17.6855 C   0  0  0  0  0  0  0  0  0  0  0  0
   24.2061  -18.7390  -18.6053 C   0  0  0  0  0  0  0  0  0  0  0  0
   23.7320  -17.6136  -19.3511 N   0  0  0  0  0  0  0  0  0  0  0  0
   26.9027  -21.0107  -14.4889 C   0  0  0  0  0  0  0  0  0  0  0  0
   26.3331  -22.0971  -14.7494 O   0  0  0  0  0  0  0  0  0  0  0  0
   26.6616  -20.4330  -13.2223 N   0  0  0  0  0  0  0  0  0  0  0  0
   25.8992  -21.0553  -12.1589 C   0  0  1  0  0  0  0  0  0  0  0  0
   26.2726  -20.3770  -10.8615 C   0  0  0  0  0  0  0  0  0  0  0  0
   25.3056  -21.1406   -9.5183 S   0  0  0  0  0  0  0  0  0  0  0  0
   24.4518  -20.8305  -12.4912 C   0  0  0  0  0  0  0  0  0  0  0  0
   24.0451  -19.7795  -13.0589 O   0  0  0  0  0  0  0  0  0  0  0  0
   18.3791  -24.9368   -9.1433 N   0  0  0  0  0  0  0  0  0  0  0  0
   17.5649  -24.8265  -10.3090 C   0  0  0  0  0  0  0  0  0  0  0  0
   16.4829  -25.4998  -10.3717 N   0  0  0  0  0  0  0  0  0  0  0  0
   17.9398  -23.9819  -11.3950 N   0  0  0  0  0  0  0  0  0  0  0  0
   19.2474  -24.0853  -11.9837 C   0  0  0  0  0  0  0  0  0  0  0  0
   19.8446  -22.7358  -12.2387 C   0  0  0  0  0  0  0  0  0  0  0  0
   21.3232  -22.7924  -12.0795 C   0  0  0  0  0  0  0  0  0  0  0  0
   22.0508  -21.5107  -12.4131 C   0  0  2  0  0  0  0  0  0  0  0  0
   23.4625  -21.7997  -12.1800 N   0  0  0  0  0  0  0  0  0  0  0  0
   21.6065  -20.4036  -11.5545 C   0  0  0  0  0  0  0  0  0  0  0  0
   22.1310  -20.1172  -10.4531 O   0  0  0  0  0  0  0  0  0  0  0  0
   20.5460  -19.6077  -11.9580 O   0  0  0  0  0  0  0  0  0  0  0  0
  2  3  1  0
  2  1  1  6
  4  5  1  0
  4  3  1  0
  5  6  1  0
  6  7  1  0
  8  9  2  0
  8  2  1  0
 10  8  1  0
 11 10  1  0
 11 12  1  1
 13 12  1  0
 14 15  2  0
 14 11  1  0
 17 16  1  0
 18 17  2  0
 19 17  1  0
 20 19  1  0
 21 20  1  0
 21 22  1  0
 23 22  1  1
 23 24  1  0
 24 14  1  0
 25 23  1  0
 26 25  2  0
 27 25  1  0
M  END
$$$$
