KCR.pdb
     RDKit          3D

 27 26  0  0  1  0  0  0  0  0999 V2000
   23.5648  -14.9768  -20.9741 N   0  0  0  0  0  0  0  0  0  0  0  0
   24.2485  -14.1738  -21.9276 C   0  0  1  0  0  0  0  0  0  0  0  0
   24.8657  -14.9349  -23.0324 C   0  0  0  0  0  0  0  0  0  0  0  0
   25.2223  -16.3636  -22.7847 C   0  0  0  0  0  0  0  0  0  0  0  0
   25.8332  -16.9939  -23.9787 C   0  0  0  0  0  0  0  0  0  0  0  0
   26.1229  -18.4755  -23.7679 C   0  0  0  0  0  0  0  0  0  0  0  0
   27.4526  -18.7163  -23.2974 N   0  0  0  0  0  0  0  0  0  0  0  0
   23.2612  -13.2010  -22.5264 C   0  0  0  0  0  0  0  0  0  0  0  0
   23.6080  -12.3347  -23.3642 O   0  0  0  0  0  0  0  0  0  0  0  0
   21.8994  -13.2409  -22.1523 N   0  0  0  0  0  0  0  0  0  0  0  0
   20.8640  -12.3878  -22.6996 C   0  0  1  0  0  0  0  0  0  0  0  0
   19.7709  -13.2763  -23.2461 C   0  0  0  0  0  0  0  0  0  0  0  0
   19.9743  -13.3864  -25.0540 S   0  0  0  0  0  0  0  0  0  0  0  0
   20.3618  -11.5501  -21.5585 C   0  0  0  0  0  0  0  0  0  0  0  0
   20.3379  -11.9734  -20.3700 O   0  0  0  0  0  0  0  0  0  0  0  0
   18.9266   -2.8310  -21.3956 N   0  0  0  0  0  0  0  0  0  0  0  0
   18.4046   -3.2811  -20.1470 C   0  0  0  0  0  0  0  0  0  0  0  0
   17.9546   -2.4198  -19.3200 N   0  0  0  0  0  0  0  0  0  0  0  0
   18.3787   -4.6671  -19.8133 N   0  0  0  0  0  0  0  0  0  0  0  0
   18.8752   -5.6507  -20.7370 C   0  0  0  0  0  0  0  0  0  0  0  0
   18.7959   -7.0326  -20.1652 C   0  0  0  0  0  0  0  0  0  0  0  0
   19.3632   -8.0171  -21.1262 C   0  0  0  0  0  0  0  0  0  0  0  0
   19.3717   -9.4489  -20.6430 C   0  0  2  0  0  0  0  0  0  0  0  0
   19.8861  -10.2288  -21.7646 N   0  0  0  0  0  0  0  0  0  0  0  0
   18.0202   -9.9006  -20.2828 C   0  0  0  0  0  0  0  0  0  0  0  0
   17.5177   -9.7674  -19.1426 O   0  0  0  0  0  0  0  0  0  0  0  0
   17.2262  -10.5143  -21.2387 O   0  0  0  0  0  0  0  0  0  0  0  0
  2  3  1  0
  2  1  1  1
  4  5  1  0
  4  3  1  0
  5  6  1  0
  6  7  1  0
  8  9  2  0
  8  2  1  0
 10  8  1  0
 11 10  1  0
 11 12  1  1
 13 12  1  0
 14 15  2  0
 14 11  1  0
 17 16  1  0
 18 17  2  0
 19 17  1  0
 20 19  1  0
 21 20  1  0
 21 22  1  0
 23 22  1  6
 23 24  1  0
 24 14  1  0
 25 23  1  0
 26 25  2  0
 27 25  1  0
M  END
$$$$
