KCR.pdb
     RDKit          3D

 27 26  0  0  1  0  0  0  0  0999 V2000
   21.7939  -15.9595  -18.5667 N   0  0  0  0  0  0  0  0  0  0  0  0
   20.6560  -16.5803  -17.9823 C   0  0  1  0  0  0  0  0  0  0  0  0
   20.3781  -17.9395  -18.4884 C   0  0  0  0  0  0  0  0  0  0  0  0
   21.5134  -18.7156  -19.0704 C   0  0  0  0  0  0  0  0  0  0  0  0
   22.3508  -19.3392  -18.0188 C   0  0  0  0  0  0  0  0  0  0  0  0
   23.4518  -20.2185  -18.6001 C   0  0  0  0  0  0  0  0  0  0  0  0
   24.3133  -20.7611  -17.5946 N   0  0  0  0  0  0  0  0  0  0  0  0
   20.8779  -16.6744  -16.4918 C   0  0  0  0  0  0  0  0  0  0  0  0
   21.3231  -15.7101  -15.8250 O   0  0  0  0  0  0  0  0  0  0  0  0
   20.5864  -17.8701  -15.7981 N   0  0  0  0  0  0  0  0  0  0  0  0
   20.6706  -18.0365  -14.3612 C   0  0  1  0  0  0  0  0  0  0  0  0
   19.4504  -17.3914  -13.7467 C   0  0  0  0  0  0  0  0  0  0  0  0
   19.4157  -17.8082  -11.9726 S   0  0  0  0  0  0  0  0  0  0  0  0
   20.6860  -19.5171  -14.1090 C   0  0  0  0  0  0  0  0  0  0  0  0
   19.7979  -20.2887  -14.5652 O   0  0  0  0  0  0  0  0  0  0  0  0
   26.7593  -22.0347  -14.4178 N   0  0  0  0  0  0  0  0  0  0  0  0
   27.1081  -20.8980  -13.6301 C   0  0  0  0  0  0  0  0  0  0  0  0
   27.9535  -20.0622  -14.0936 N   0  0  0  0  0  0  0  0  0  0  0  0
   26.5304  -20.6848  -12.3440 N   0  0  0  0  0  0  0  0  0  0  0  0
   25.3607  -21.4156  -11.9379 C   0  0  0  0  0  0  0  0  0  0  0  0
   24.2274  -21.2175  -12.8968 C   0  0  0  0  0  0  0  0  0  0  0  0
   22.9913  -21.8540  -12.3661 C   0  0  0  0  0  0  0  0  0  0  0  0
   21.7371  -21.5739  -13.1611 C   0  0  2  0  0  0  0  0  0  0  0  0
   21.7112  -20.1252  -13.3382 N   0  0  0  0  0  0  0  0  0  0  0  0
   20.5361  -22.0231  -12.4426 C   0  0  0  0  0  0  0  0  0  0  0  0
   19.8109  -21.2706  -11.7512 O   0  0  0  0  0  0  0  0  0  0  0  0
   20.1538  -23.3534  -12.5134 O   0  0  0  0  0  0  0  0  0  0  0  0
  2  3  1  0
  2  1  1  6
  4  5  1  0
  4  3  1  0
  5  6  1  0
  6  7  1  0
  8  9  2  0
  8  2  1  0
 10  8  1  0
 11 10  1  0
 11 12  1  1
 13 12  1  0
 14 15  2  0
 14 11  1  0
 17 16  1  0
 18 17  2  0
 19 17  1  0
 20 19  1  0
 21 20  1  0
 21 22  1  0
 23 22  1  1
 23 24  1  0
 24 14  1  0
 25 23  1  0
 26 25  2  0
 27 25  1  0
M  END
$$$$
