KCR.pdb
     RDKit          3D

 27 26  0  0  1  0  0  0  0  0999 V2000
   24.9160  -22.1461  -12.6310 N   0  0  0  0  0  0  0  0  0  0  0  0
   25.2688  -21.8645  -13.9793 C   0  0  1  0  0  0  0  0  0  0  0  0
   24.4834  -22.6119  -14.9819 C   0  0  0  0  0  0  0  0  0  0  0  0
   24.9408  -23.9856  -15.3474 C   0  0  0  0  0  0  0  0  0  0  0  0
   26.3979  -24.0285  -15.6136 C   0  0  0  0  0  0  0  0  0  0  0  0
   26.7165  -24.5359  -17.0151 C   0  0  0  0  0  0  0  0  0  0  0  0
   28.1223  -24.5865  -17.2773 N   0  0  0  0  0  0  0  0  0  0  0  0
   25.0597  -20.3901  -14.2282 C   0  0  0  0  0  0  0  0  0  0  0  0
   24.2566  -19.7094  -13.5468 O   0  0  0  0  0  0  0  0  0  0  0  0
   25.7737  -19.7280  -15.2519 N   0  0  0  0  0  0  0  0  0  0  0  0
   25.6543  -18.3190  -15.5679 C   0  0  1  0  0  0  0  0  0  0  0  0
   26.8926  -17.9073  -16.3295 C   0  0  0  0  0  0  0  0  0  0  0  0
   28.2641  -17.7368  -15.1413 S   0  0  0  0  0  0  0  0  0  0  0  0
   24.4240  -18.1809  -16.4183 C   0  0  0  0  0  0  0  0  0  0  0  0
   24.0156  -19.1086  -17.1700 O   0  0  0  0  0  0  0  0  0  0  0  0
   16.9515  -15.4579  -14.0031 N   0  0  0  0  0  0  0  0  0  0  0  0
   18.0084  -16.3981  -13.8212 C   0  0  0  0  0  0  0  0  0  0  0  0
   18.0588  -17.0673  -12.7359 N   0  0  0  0  0  0  0  0  0  0  0  0
   19.0001  -16.5987  -14.8259 N   0  0  0  0  0  0  0  0  0  0  0  0
   19.0309  -15.7675  -15.9986 C   0  0  0  0  0  0  0  0  0  0  0  0
   20.0342  -16.2595  -16.9958 C   0  0  0  0  0  0  0  0  0  0  0  0
   21.3606  -16.4332  -16.3438 C   0  0  0  0  0  0  0  0  0  0  0  0
   22.4728  -16.8746  -17.2667 C   0  0  2  0  0  0  0  0  0  0  0  0
   23.6538  -16.9887  -16.4164 N   0  0  0  0  0  0  0  0  0  0  0  0
   22.7042  -15.8917  -18.3348 C   0  0  0  0  0  0  0  0  0  0  0  0
   23.7279  -15.1735  -18.4162 O   0  0  0  0  0  0  0  0  0  0  0  0
   21.7528  -15.7242  -19.3286 O   0  0  0  0  0  0  0  0  0  0  0  0
  2  3  1  0
  2  1  1  1
  4  5  1  0
  4  3  1  0
  5  6  1  0
  6  7  1  0
  8  9  2  0
  8  2  1  0
 10  8  1  0
 11 10  1  0
 11 12  1  6
 13 12  1  0
 14 15  2  0
 14 11  1  0
 17 16  1  0
 18 17  2  0
 19 17  1  0
 20 19  1  0
 21 20  1  0
 21 22  1  0
 23 22  1  1
 23 24  1  0
 24 14  1  0
 25 23  1  0
 26 25  2  0
 27 25  1  0
M  END
$$$$
