GEM.pdb
     RDKit          3D

 22 21  0  0  1  0  0  0  0  0999 V2000
   28.1980  -18.5729  -15.7083 N   0  0  0  0  0  0  0  0  0  0  0  0
   28.4822  -19.5810  -14.7068 C   0  0  0  0  0  0  0  0  0  0  0  0
   27.4441  -19.5049  -13.6604 C   0  0  0  0  0  0  0  0  0  0  0  0
   27.2339  -18.4057  -13.0628 O   0  0  0  0  0  0  0  0  0  0  0  0
   26.6336  -20.5828  -13.2503 N   0  0  0  0  0  0  0  0  0  0  0  0
   25.6647  -20.5210  -12.1609 C   0  0  1  0  0  0  0  0  0  0  0  0
   24.3791  -21.0762  -12.6896 C   0  0  0  0  0  0  0  0  0  0  0  0
   23.7097  -20.3422  -13.7937 C   0  0  0  0  0  0  0  0  0  0  0  0
   22.2662  -20.0960  -13.6107 C   0  0  0  0  0  0  0  0  0  0  0  0
   21.6909  -19.2106  -14.3193 O   0  0  0  0  0  0  0  0  0  0  0  0
   26.1517  -20.9496  -10.8725 C   0  0  0  0  0  0  0  0  0  0  0  0
   26.7282  -22.0895  -10.7327 O   0  0  0  0  0  0  0  0  0  0  0  0
   21.4896  -20.7840  -12.6973 O   0  0  0  0  0  0  0  0  0  0  0  0
   29.9627  -19.1438   -5.9695 C   0  0  0  0  0  0  0  0  0  0  0  0
   28.3339  -19.0919   -5.1890 S   0  0  0  0  0  0  0  0  0  0  0  0
   27.2067  -20.1895   -6.0630 C   0  0  0  0  0  0  0  0  0  0  0  0
   27.0385  -19.9145   -7.5078 C   0  0  0  0  0  0  0  0  0  0  0  0
   26.1905  -20.8145   -8.3362 C   0  0  2  0  0  0  0  0  0  0  0  0
   26.0439  -20.1797   -9.6818 N   0  0  0  0  0  0  0  0  0  0  0  0
   24.8753  -21.1315   -7.8045 C   0  0  0  0  0  0  0  0  0  0  0  0
   23.8036  -20.7333   -8.3085 O   0  0  0  0  0  0  0  0  0  0  0  0
   24.7727  -21.9375   -6.6464 O   0  0  0  0  0  0  0  0  0  0  0  0
  1  2  1  0
  3  5  1  0
  3  2  1  0
  4  3  2  0
  6  5  1  0
  6 11  1  0
  6  7  1  6
  8  7  1  0
  9  8  1  0
 10  9  2  0
 11 19  1  0
 11 12  2  0
 13  9  1  0
 14 15  1  0
 15 16  1  0
 16 17  1  0
 18 17  1  1
 19 18  1  0
 20 18  1  0
 20 22  1  0
 21 20  2  0
M  END
$$$$
