GEM.pdb
     RDKit          3D

 22 21  0  0  1  0  0  0  0  0999 V2000
   32.6732  -22.4378   -9.7274 N   0  0  0  0  0  0  0  0  0  0  0  0
   32.0170  -22.3829  -11.0183 C   0  0  0  0  0  0  0  0  0  0  0  0
   30.7390  -21.6615  -10.8618 C   0  0  0  0  0  0  0  0  0  0  0  0
   30.5212  -20.9910   -9.8070 O   0  0  0  0  0  0  0  0  0  0  0  0
   29.6999  -21.6482  -11.8142 N   0  0  0  0  0  0  0  0  0  0  0  0
   28.4073  -20.9999  -11.6185 C   0  0  1  0  0  0  0  0  0  0  0  0
   27.8460  -20.7284  -12.9793 C   0  0  0  0  0  0  0  0  0  0  0  0
   27.1375  -19.4404  -13.1921 C   0  0  0  0  0  0  0  0  0  0  0  0
   26.1817  -19.4182  -14.3163 C   0  0  0  0  0  0  0  0  0  0  0  0
   25.5350  -18.3514  -14.5625 O   0  0  0  0  0  0  0  0  0  0  0  0
   27.5668  -21.5858  -10.6030 C   0  0  0  0  0  0  0  0  0  0  0  0
   27.9819  -22.5743   -9.8948 O   0  0  0  0  0  0  0  0  0  0  0  0
   25.9444  -20.5092  -15.1313 O   0  0  0  0  0  0  0  0  0  0  0  0
   29.1339  -20.0087   -5.7413 C   0  0  0  0  0  0  0  0  0  0  0  0
   27.3427  -20.2172   -5.6291 S   0  0  0  0  0  0  0  0  0  0  0  0
   26.5424  -19.3246   -6.9715 C   0  0  0  0  0  0  0  0  0  0  0  0
   26.7742  -19.8686   -8.3285 C   0  0  0  0  0  0  0  0  0  0  0  0
   25.8300  -20.8715   -8.8925 C   0  0  2  0  0  0  0  0  0  0  0  0
   26.2503  -21.1405  -10.3017 N   0  0  0  0  0  0  0  0  0  0  0  0
   24.4207  -20.5165   -8.8669 C   0  0  0  0  0  0  0  0  0  0  0  0
   23.9016  -19.6633   -9.6177 O   0  0  0  0  0  0  0  0  0  0  0  0
   23.5614  -21.1599   -7.9454 O   0  0  0  0  0  0  0  0  0  0  0  0
  1  2  1  0
  3  5  1  0
  3  2  1  0
  4  3  2  0
  6  5  1  0
  6 11  1  0
  6  7  1  6
  8  7  1  0
  9  8  1  0
 10  9  2  0
 11 19  1  0
 11 12  2  0
 13  9  1  0
 14 15  1  0
 15 16  1  0
 16 17  1  0
 18 17  1  6
 19 18  1  0
 20 18  1  0
 20 22  1  0
 21 20  2  0
M  END
$$$$
