GEM.pdb
     RDKit          3D

 22 21  0  0  1  0  0  0  0  0999 V2000
   27.5155  -10.6195  -16.4072 N   0  0  0  0  0  0  0  0  0  0  0  0
   26.4134  -10.7609  -15.4769 C   0  0  0  0  0  0  0  0  0  0  0  0
   25.3313   -9.8478  -15.8933 C   0  0  0  0  0  0  0  0  0  0  0  0
   25.5106   -9.0693  -16.8789 O   0  0  0  0  0  0  0  0  0  0  0  0
   24.0686   -9.7597  -15.2729 N   0  0  0  0  0  0  0  0  0  0  0  0
   22.9875   -8.8868  -15.7187 C   0  0  1  0  0  0  0  0  0  0  0  0
   21.7031   -9.5750  -15.3763 C   0  0  0  0  0  0  0  0  0  0  0  0
   20.4340   -8.8849  -15.7213 C   0  0  0  0  0  0  0  0  0  0  0  0
   19.1990   -9.5858  -15.3196 C   0  0  0  0  0  0  0  0  0  0  0  0
   18.7062   -9.3680  -14.1678 O   0  0  0  0  0  0  0  0  0  0  0  0
   23.1525   -7.4874  -15.4098 C   0  0  0  0  0  0  0  0  0  0  0  0
   23.5548   -7.1128  -14.2484 O   0  0  0  0  0  0  0  0  0  0  0  0
   18.5354  -10.4814  -16.1372 O   0  0  0  0  0  0  0  0  0  0  0  0
   26.5930   -1.0254  -17.7500 C   0  0  0  0  0  0  0  0  0  0  0  0
   25.9890   -2.6954  -18.0833 S   0  0  0  0  0  0  0  0  0  0  0  0
   24.7930   -3.1707  -16.8251 C   0  0  0  0  0  0  0  0  0  0  0  0
   24.2340   -4.5349  -16.9573 C   0  0  0  0  0  0  0  0  0  0  0  0
   23.2170   -5.0132  -15.9814 C   0  0  2  0  0  0  0  0  0  0  0  0
   22.8957   -6.4317  -16.3273 N   0  0  0  0  0  0  0  0  0  0  0  0
   21.9865   -4.2434  -15.9026 C   0  0  0  0  0  0  0  0  0  0  0  0
   20.9556   -4.5052  -16.5582 O   0  0  0  0  0  0  0  0  0  0  0  0
   21.9244   -3.1242  -15.0395 O   0  0  0  0  0  0  0  0  0  0  0  0
  1  2  1  0
  3  5  1  0
  3  2  1  0
  4  3  2  0
  6  5  1  0
  6 11  1  0
  6  7  1  1
  8  7  1  0
  9  8  1  0
 10  9  2  0
 11 19  1  0
 11 12  2  0
 13  9  1  0
 14 15  1  0
 15 16  1  0
 16 17  1  0
 18 17  1  6
 19 18  1  0
 20 18  1  0
 20 22  1  0
 21 20  2  0
M  END
$$$$
