GEM.pdb
     RDKit          3D

 22 21  0  0  1  0  0  0  0  0999 V2000
   28.2149  -20.4265  -16.4029 N   0  0  0  0  0  0  0  0  0  0  0  0
   28.0155  -21.3730  -15.3238 C   0  0  0  0  0  0  0  0  0  0  0  0
   27.2853  -20.6934  -14.2360 C   0  0  0  0  0  0  0  0  0  0  0  0
   27.5901  -19.5022  -13.9233 O   0  0  0  0  0  0  0  0  0  0  0  0
   26.2399  -21.2688  -13.4857 N   0  0  0  0  0  0  0  0  0  0  0  0
   25.5398  -20.5992  -12.3944 C   0  0  1  0  0  0  0  0  0  0  0  0
   24.1005  -20.5038  -12.7942 C   0  0  0  0  0  0  0  0  0  0  0  0
   23.7610  -19.6514  -13.9623 C   0  0  0  0  0  0  0  0  0  0  0  0
   22.3193  -19.4619  -14.2140 C   0  0  0  0  0  0  0  0  0  0  0  0
   21.4745  -20.0075  -13.4359 O   0  0  0  0  0  0  0  0  0  0  0  0
   25.8844  -21.0488  -11.0678 C   0  0  0  0  0  0  0  0  0  0  0  0
   26.0227  -22.3006  -10.8124 O   0  0  0  0  0  0  0  0  0  0  0  0
   21.8254  -18.7127  -15.2655 O   0  0  0  0  0  0  0  0  0  0  0  0
   28.6000  -19.1959   -3.8235 C   0  0  0  0  0  0  0  0  0  0  0  0
   28.3650  -18.7425   -5.5567 S   0  0  0  0  0  0  0  0  0  0  0  0
   27.2886  -19.9423   -6.3573 C   0  0  0  0  0  0  0  0  0  0  0  0
   27.0757  -19.7420   -7.8085 C   0  0  0  0  0  0  0  0  0  0  0  0
   26.2617  -20.7229   -8.5770 C   0  0  2  0  0  0  0  0  0  0  0  0
   26.0957  -20.1817   -9.9607 N   0  0  0  0  0  0  0  0  0  0  0  0
   24.9574  -21.0513   -8.0258 C   0  0  0  0  0  0  0  0  0  0  0  0
   23.8807  -20.5824   -8.4524 O   0  0  0  0  0  0  0  0  0  0  0  0
   24.8723  -21.9535   -6.9394 O   0  0  0  0  0  0  0  0  0  0  0  0
  1  2  1  0
  3  5  1  0
  3  2  1  0
  4  3  2  0
  6  5  1  0
  6 11  1  0
  6  7  1  6
  8  7  1  0
  9  8  1  0
 10  9  2  0
 11 19  1  0
 11 12  2  0
 13  9  1  0
 14 15  1  0
 15 16  1  0
 16 17  1  0
 18 17  1  1
 19 18  1  0
 20 18  1  0
 20 22  1  0
 21 20  2  0
M  END
$$$$
