GEM.pdb
     RDKit          3D

 22 21  0  0  1  0  0  0  0  0999 V2000
   14.5927  -10.7530  -12.5904 N   0  0  0  0  0  0  0  0  0  0  0  0
   16.0027  -10.8043  -12.2592 C   0  0  0  0  0  0  0  0  0  0  0  0
   16.5146   -9.4222  -12.1832 C   0  0  0  0  0  0  0  0  0  0  0  0
   16.6821   -8.7547  -13.2491 O   0  0  0  0  0  0  0  0  0  0  0  0
   16.8456   -8.7506  -10.9888 N   0  0  0  0  0  0  0  0  0  0  0  0
   17.4675   -7.4320  -10.9268 C   0  0  1  0  0  0  0  0  0  0  0  0
   17.0488   -6.8138   -9.6295 C   0  0  0  0  0  0  0  0  0  0  0  0
   15.5969   -6.6012   -9.4002 C   0  0  0  0  0  0  0  0  0  0  0  0
   15.2431   -5.9476   -8.1252 C   0  0  0  0  0  0  0  0  0  0  0  0
   16.1676   -5.6209   -7.3156 O   0  0  0  0  0  0  0  0  0  0  0  0
   18.8518   -7.3793  -11.3294 C   0  0  0  0  0  0  0  0  0  0  0  0
   19.6786   -8.2925  -10.9639 O   0  0  0  0  0  0  0  0  0  0  0  0
   13.9420   -5.6654   -7.7533 O   0  0  0  0  0  0  0  0  0  0  0  0
   24.3287   -9.9809  -14.8846 C   0  0  0  0  0  0  0  0  0  0  0  0
   22.6302   -9.7407  -14.3170 S   0  0  0  0  0  0  0  0  0  0  0  0
   22.4284   -8.0624  -13.6991 C   0  0  0  0  0  0  0  0  0  0  0  0
   21.1023   -7.7494  -13.1204 C   0  0  0  0  0  0  0  0  0  0  0  0
   20.8424   -6.3943  -12.5621 C   0  0  2  0  0  0  0  0  0  0  0  0
   19.4094   -6.3512  -12.1382 N   0  0  0  0  0  0  0  0  0  0  0  0
   21.1215   -5.2703  -13.4405 C   0  0  0  0  0  0  0  0  0  0  0  0
   20.2844   -4.7692  -14.2211 O   0  0  0  0  0  0  0  0  0  0  0  0
   22.4113   -4.6891  -13.4323 O   0  0  0  0  0  0  0  0  0  0  0  0
  1  2  1  0
  3  5  1  0
  3  2  1  0
  4  3  2  0
  6  5  1  0
  6 11  1  0
  6  7  1  1
  8  7  1  0
  9  8  1  0
 10  9  2  0
 11 19  1  0
 11 12  2  0
 13  9  1  0
 14 15  1  0
 15 16  1  0
 16 17  1  0
 18 17  1  6
 19 18  1  0
 20 18  1  0
 20 22  1  0
 21 20  2  0
M  END
$$$$
