GEM.pdb
     RDKit          3D

 22 21  0  0  1  0  0  0  0  0999 V2000
   21.1644  -21.6994  -12.9987 N   0  0  0  0  0  0  0  0  0  0  0  0
   21.8515  -20.5728  -12.3995 C   0  0  0  0  0  0  0  0  0  0  0  0
   23.0857  -21.0665  -11.7583 C   0  0  0  0  0  0  0  0  0  0  0  0
   23.0224  -22.0219  -10.9259 O   0  0  0  0  0  0  0  0  0  0  0  0
   24.3772  -20.5545  -11.9967 N   0  0  0  0  0  0  0  0  0  0  0  0
   25.5758  -20.9642  -11.2721 C   0  0  1  0  0  0  0  0  0  0  0  0
   26.7169  -20.8839  -12.2375 C   0  0  0  0  0  0  0  0  0  0  0  0
   26.5321  -21.4908  -13.5805 C   0  0  0  0  0  0  0  0  0  0  0  0
   27.7266  -21.4938  -14.4471 C   0  0  0  0  0  0  0  0  0  0  0  0
   28.8253  -21.0412  -13.9945 O   0  0  0  0  0  0  0  0  0  0  0  0
   25.7200  -20.4103   -9.9480 C   0  0  0  0  0  0  0  0  0  0  0  0
   25.0996  -19.3361   -9.6128 O   0  0  0  0  0  0  0  0  0  0  0  0
   27.7200  -21.9683  -15.7454 O   0  0  0  0  0  0  0  0  0  0  0  0
   29.6982  -22.4630   -4.2923 C   0  0  0  0  0  0  0  0  0  0  0  0
   30.0700  -20.9310   -5.1753 S   0  0  0  0  0  0  0  0  0  0  0  0
   28.5455  -20.2024   -5.7952 C   0  0  0  0  0  0  0  0  0  0  0  0
   28.0232  -20.7849   -7.0518 C   0  0  0  0  0  0  0  0  0  0  0  0
   26.7526  -20.2700   -7.6314 C   0  0  2  0  0  0  0  0  0  0  0  0
   26.5311  -20.9800   -8.9283 N   0  0  0  0  0  0  0  0  0  0  0  0
   26.6768  -18.8344   -7.8463 C   0  0  0  0  0  0  0  0  0  0  0  0
   26.9125  -18.2785   -8.9401 O   0  0  0  0  0  0  0  0  0  0  0  0
   26.3172  -17.9913   -6.7687 O   0  0  0  0  0  0  0  0  0  0  0  0
  1  2  1  0
  3  5  1  0
  3  2  1  0
  4  3  2  0
  6  5  1  0
  6 11  1  0
  6  7  1  6
  8  7  1  0
  9  8  1  0
 10  9  2  0
 11 19  1  0
 11 12  2  0
 13  9  1  0
 14 15  1  0
 15 16  1  0
 16 17  1  0
 18 17  1  6
 19 18  1  0
 20 18  1  0
 20 22  1  0
 21 20  2  0
M  END
$$$$
