GEM.pdb
     RDKit          3D

 22 21  0  0  1  0  0  0  0  0999 V2000
   27.6054  -20.9050  -15.6182 N   0  0  0  0  0  0  0  0  0  0  0  0
   26.7216  -20.5304  -14.5326 C   0  0  0  0  0  0  0  0  0  0  0  0
   25.4911  -19.9554  -15.1100 C   0  0  0  0  0  0  0  0  0  0  0  0
   25.5030  -19.5104  -16.2981 O   0  0  0  0  0  0  0  0  0  0  0  0
   24.2570  -19.8532  -14.4365 N   0  0  0  0  0  0  0  0  0  0  0  0
   23.0462  -19.2770  -15.0122 C   0  0  1  0  0  0  0  0  0  0  0  0
   21.8991  -20.1167  -14.5434 C   0  0  0  0  0  0  0  0  0  0  0  0
   20.5325  -19.7247  -14.9734 C   0  0  0  0  0  0  0  0  0  0  0  0
   19.4571  -20.6692  -14.6142 C   0  0  0  0  0  0  0  0  0  0  0  0
   18.2514  -20.3739  -14.8898 O   0  0  0  0  0  0  0  0  0  0  0  0
   22.9521  -17.8390  -14.9476 C   0  0  0  0  0  0  0  0  0  0  0  0
   23.1771  -17.2134  -13.8479 O   0  0  0  0  0  0  0  0  0  0  0  0
   19.6885  -21.8776  -13.9840 O   0  0  0  0  0  0  0  0  0  0  0  0
   27.5409  -12.5029  -15.4712 C   0  0  0  0  0  0  0  0  0  0  0  0
   26.8930  -14.1896  -15.4578 S   0  0  0  0  0  0  0  0  0  0  0  0
   25.1373  -14.1685  -15.8536 C   0  0  0  0  0  0  0  0  0  0  0  0
   24.4575  -15.4829  -15.8151 C   0  0  0  0  0  0  0  0  0  0  0  0
   22.9948  -15.5649  -16.0786 C   0  0  2  0  0  0  0  0  0  0  0  0
   22.6148  -17.0105  -16.0531 N   0  0  0  0  0  0  0  0  0  0  0  0
   22.5276  -14.9632  -17.3165 C   0  0  0  0  0  0  0  0  0  0  0  0
   22.5953  -15.5201  -18.4329 O   0  0  0  0  0  0  0  0  0  0  0  0
   21.9577  -13.6687  -17.2850 O   0  0  0  0  0  0  0  0  0  0  0  0
  1  2  1  0
  3  5  1  0
  3  2  1  0
  4  3  2  0
  6  5  1  0
  6 11  1  0
  6  7  1  1
  8  7  1  0
  9  8  1  0
 10  9  2  0
 11 19  1  0
 11 12  2  0
 13  9  1  0
 14 15  1  0
 15 16  1  0
 16 17  1  0
 18 17  1  6
 19 18  1  0
 20 18  1  0
 20 22  1  0
 21 20  2  0
M  END
$$$$
