GEM.pdb
     RDKit          3D

 22 21  0  0  1  0  0  0  0  0999 V2000
   16.8028  -11.2352  -16.3113 N   0  0  0  0  0  0  0  0  0  0  0  0
   16.7213  -10.5133  -17.5652 C   0  0  0  0  0  0  0  0  0  0  0  0
   17.4497   -9.2381  -17.4176 C   0  0  0  0  0  0  0  0  0  0  0  0
   18.4804   -9.0179  -18.1238 O   0  0  0  0  0  0  0  0  0  0  0  0
   17.0898   -8.2032  -16.5307 N   0  0  0  0  0  0  0  0  0  0  0  0
   17.8786   -6.9965  -16.3047 C   0  0  1  0  0  0  0  0  0  0  0  0
   16.9091   -5.8801  -16.0714 C   0  0  0  0  0  0  0  0  0  0  0  0
   15.9294   -5.5775  -17.1460 C   0  0  0  0  0  0  0  0  0  0  0  0
   14.5118   -5.5879  -16.7359 C   0  0  0  0  0  0  0  0  0  0  0  0
   14.1496   -4.8988  -15.7304 O   0  0  0  0  0  0  0  0  0  0  0  0
   19.0133   -7.1521  -15.4278 C   0  0  0  0  0  0  0  0  0  0  0  0
   19.1775   -8.2308  -14.7491 O   0  0  0  0  0  0  0  0  0  0  0  0
   13.5379   -6.3164  -17.3927 O   0  0  0  0  0  0  0  0  0  0  0  0
   25.2818  -10.1084  -13.9585 C   0  0  0  0  0  0  0  0  0  0  0  0
   23.6966   -9.7489  -14.7475 S   0  0  0  0  0  0  0  0  0  0  0  0
   23.0967   -8.1426  -14.2004 C   0  0  0  0  0  0  0  0  0  0  0  0
   21.8281   -7.6907  -14.8149 C   0  0  0  0  0  0  0  0  0  0  0  0
   21.1987   -6.4212  -14.3590 C   0  0  2  0  0  0  0  0  0  0  0  0
   20.0186   -6.1640  -15.2400 N   0  0  0  0  0  0  0  0  0  0  0  0
   22.0549   -5.2467  -14.3413 C   0  0  0  0  0  0  0  0  0  0  0  0
   22.8619   -4.9843  -13.4243 O   0  0  0  0  0  0  0  0  0  0  0  0
   21.9911   -4.3274  -15.4148 O   0  0  0  0  0  0  0  0  0  0  0  0
  1  2  1  0
  3  5  1  0
  3  2  1  0
  4  3  2  0
  6  5  1  0
  6 11  1  0
  6  7  1  1
  8  7  1  0
  9  8  1  0
 10  9  2  0
 11 19  1  0
 11 12  2  0
 13  9  1  0
 14 15  1  0
 15 16  1  0
 16 17  1  0
 18 17  1  6
 19 18  1  0
 20 18  1  0
 20 22  1  0
 21 20  2  0
M  END
$$$$
