GEM.pdb
     RDKit          3D

 22 21  0  0  1  0  0  0  0  0999 V2000
   17.8935  -11.7033  -14.3764 N   0  0  0  0  0  0  0  0  0  0  0  0
   17.4216  -10.3379  -14.4906 C   0  0  0  0  0  0  0  0  0  0  0  0
   17.8206   -9.6031  -13.2745 C   0  0  0  0  0  0  0  0  0  0  0  0
   17.5886  -10.1050  -12.1326 O   0  0  0  0  0  0  0  0  0  0  0  0
   18.4613   -8.3475  -13.2661 N   0  0  0  0  0  0  0  0  0  0  0  0
   18.6162   -7.5062  -12.0839 C   0  0  1  0  0  0  0  0  0  0  0  0
   19.7126   -6.5321  -12.3834 C   0  0  0  0  0  0  0  0  0  0  0  0
   21.0811   -7.0713  -12.5892 C   0  0  0  0  0  0  0  0  0  0  0  0
   22.1212   -6.0689  -12.8913 C   0  0  0  0  0  0  0  0  0  0  0  0
   22.7263   -5.4916  -11.9334 O   0  0  0  0  0  0  0  0  0  0  0  0
   17.3876   -7.0384  -11.4900 C   0  0  0  0  0  0  0  0  0  0  0  0
   16.3969   -6.6780  -12.2248 O   0  0  0  0  0  0  0  0  0  0  0  0
   22.4817   -5.7146  -14.1779 O   0  0  0  0  0  0  0  0  0  0  0  0
   11.6810   -8.9440   -8.3571 C   0  0  0  0  0  0  0  0  0  0  0  0
   13.1356   -8.5900   -7.3453 S   0  0  0  0  0  0  0  0  0  0  0  0
   13.9929   -7.1484   -7.9981 C   0  0  0  0  0  0  0  0  0  0  0  0
   15.2756   -7.4236   -8.6838 C   0  0  0  0  0  0  0  0  0  0  0  0
   15.8892   -6.3785   -9.5479 C   0  0  2  0  0  0  0  0  0  0  0  0
   17.1661   -6.9369  -10.0890 N   0  0  0  0  0  0  0  0  0  0  0  0
   16.1502   -5.0939   -8.9199 C   0  0  0  0  0  0  0  0  0  0  0  0
   17.2920   -4.6764   -8.6317 O   0  0  0  0  0  0  0  0  0  0  0  0
   15.0639   -4.2443   -8.6043 O   0  0  0  0  0  0  0  0  0  0  0  0
  1  2  1  0
  3  5  1  0
  3  2  1  0
  4  3  2  0
  6  5  1  0
  6 11  1  0
  6  7  1  6
  8  7  1  0
  9  8  1  0
 10  9  2  0
 11 19  1  0
 11 12  2  0
 13  9  1  0
 14 15  1  0
 15 16  1  0
 16 17  1  0
 18 17  1  1
 19 18  1  0
 20 18  1  0
 20 22  1  0
 21 20  2  0
M  END
$$$$
