GEM.pdb
     RDKit          3D

 22 21  0  0  1  0  0  0  0  0999 V2000
   17.5349  -12.5874  -15.7732 N   0  0  0  0  0  0  0  0  0  0  0  0
   17.0190  -11.3363  -15.2549 C   0  0  0  0  0  0  0  0  0  0  0  0
   17.9041  -10.2444  -15.7051 C   0  0  0  0  0  0  0  0  0  0  0  0
   18.9455  -10.5163  -16.3768 O   0  0  0  0  0  0  0  0  0  0  0  0
   17.6886   -8.8752  -15.4480 N   0  0  0  0  0  0  0  0  0  0  0  0
   18.5411   -7.7976  -15.9392 C   0  0  1  0  0  0  0  0  0  0  0  0
   17.6470   -6.6325  -16.2283 C   0  0  0  0  0  0  0  0  0  0  0  0
   16.7330   -6.7334  -17.3947 C   0  0  0  0  0  0  0  0  0  0  0  0
   15.8922   -5.5474  -17.6486 C   0  0  0  0  0  0  0  0  0  0  0  0
   14.9312   -5.6315  -18.4771 O   0  0  0  0  0  0  0  0  0  0  0  0
   19.7667   -7.5929  -15.2064 C   0  0  0  0  0  0  0  0  0  0  0  0
   19.7689   -7.5672  -13.9217 O   0  0  0  0  0  0  0  0  0  0  0  0
   16.0924   -4.3290  -17.0272 O   0  0  0  0  0  0  0  0  0  0  0  0
   26.3324  -10.3714  -14.7379 C   0  0  0  0  0  0  0  0  0  0  0  0
   25.9413   -9.0102  -15.8599 S   0  0  0  0  0  0  0  0  0  0  0  0
   24.7361   -7.9169  -15.0908 C   0  0  0  0  0  0  0  0  0  0  0  0
   23.3486   -8.0418  -15.5914 C   0  0  0  0  0  0  0  0  0  0  0  0
   22.2689   -7.2147  -14.9867 C   0  0  2  0  0  0  0  0  0  0  0  0
   21.0390   -7.4081  -15.8142 N   0  0  0  0  0  0  0  0  0  0  0  0
   22.5436   -5.7936  -14.8524 C   0  0  0  0  0  0  0  0  0  0  0  0
   22.2500   -4.9407  -15.7169 O   0  0  0  0  0  0  0  0  0  0  0  0
   23.1817   -5.3196  -13.6821 O   0  0  0  0  0  0  0  0  0  0  0  0
  1  2  1  0
  3  5  1  0
  3  2  1  0
  4  3  2  0
  6  5  1  0
  6 11  1  0
  6  7  1  1
  8  7  1  0
  9  8  1  0
 10  9  2  0
 11 19  1  0
 11 12  2  0
 13  9  1  0
 14 15  1  0
 15 16  1  0
 16 17  1  0
 18 17  1  6
 19 18  1  0
 20 18  1  0
 20 22  1  0
 21 20  2  0
M  END
$$$$
