GEM.pdb
     RDKit          3D

 22 21  0  0  1  0  0  0  0  0999 V2000
   19.9748  -20.7087  -11.3325 N   0  0  0  0  0  0  0  0  0  0  0  0
   20.9515  -19.7885  -10.7852 C   0  0  0  0  0  0  0  0  0  0  0  0
   22.2636  -20.4635  -10.7563 C   0  0  0  0  0  0  0  0  0  0  0  0
   22.4910  -21.3579   -9.8857 O   0  0  0  0  0  0  0  0  0  0  0  0
   23.3267  -20.1957  -11.6425 N   0  0  0  0  0  0  0  0  0  0  0  0
   24.6458  -20.8146  -11.5623 C   0  0  1  0  0  0  0  0  0  0  0  0
   25.1231  -21.0057  -12.9681 C   0  0  0  0  0  0  0  0  0  0  0  0
   26.2984  -21.8870  -13.1868 C   0  0  0  0  0  0  0  0  0  0  0  0
   26.7277  -22.0384  -14.5906 C   0  0  0  0  0  0  0  0  0  0  0  0
   27.8317  -21.5286  -14.9624 O   0  0  0  0  0  0  0  0  0  0  0  0
   25.5358  -20.2527  -10.5759 C   0  0  0  0  0  0  0  0  0  0  0  0
   25.6756  -18.9802  -10.4645 O   0  0  0  0  0  0  0  0  0  0  0  0
   25.9860  -22.7140  -15.5415 O   0  0  0  0  0  0  0  0  0  0  0  0
   26.9069  -19.2188   -4.7319 C   0  0  0  0  0  0  0  0  0  0  0  0
   28.4460  -20.1063   -5.0611 S   0  0  0  0  0  0  0  0  0  0  0  0
   28.7179  -20.2115   -6.8372 C   0  0  0  0  0  0  0  0  0  0  0  0
   27.5253  -20.5454   -7.6479 C   0  0  0  0  0  0  0  0  0  0  0  0
   27.6105  -20.5131   -9.1336 C   0  0  2  0  0  0  0  0  0  0  0  0
   26.3118  -21.0252   -9.6686 N   0  0  0  0  0  0  0  0  0  0  0  0
   28.7073  -21.2550   -9.7330 C   0  0  0  0  0  0  0  0  0  0  0  0
   29.8170  -20.7550  -10.0150 O   0  0  0  0  0  0  0  0  0  0  0  0
   28.5355  -22.6283  -10.0262 O   0  0  0  0  0  0  0  0  0  0  0  0
  1  2  1  0
  3  5  1  0
  3  2  1  0
  4  3  2  0
  6  5  1  0
  6 11  1  0
  6  7  1  6
  8  7  1  0
  9  8  1  0
 10  9  2  0
 11 19  1  0
 11 12  2  0
 13  9  1  0
 14 15  1  0
 15 16  1  0
 16 17  1  0
 18 17  1  1
 19 18  1  0
 20 18  1  0
 20 22  1  0
 21 20  2  0
M  END
$$$$
