GEM.pdb
     RDKit          3D

 22 21  0  0  1  0  0  0  0  0999 V2000
   12.7542   -9.5110   -8.4054 N   0  0  0  0  0  0  0  0  0  0  0  0
   13.9477   -8.8121   -7.9731 C   0  0  0  0  0  0  0  0  0  0  0  0
   14.4843   -8.0522   -9.1189 C   0  0  0  0  0  0  0  0  0  0  0  0
   13.7209   -7.7528  -10.0870 O   0  0  0  0  0  0  0  0  0  0  0  0
   15.8176   -7.6110   -9.2393 N   0  0  0  0  0  0  0  0  0  0  0  0
   16.2843   -6.6511  -10.2343 C   0  0  1  0  0  0  0  0  0  0  0  0
   15.4506   -5.4183  -10.0745 C   0  0  0  0  0  0  0  0  0  0  0  0
   15.5252   -4.6947   -8.7795 C   0  0  0  0  0  0  0  0  0  0  0  0
   14.7600   -3.4348   -8.7097 C   0  0  0  0  0  0  0  0  0  0  0  0
   15.3838   -2.3267   -8.7105 O   0  0  0  0  0  0  0  0  0  0  0  0
   17.7167   -6.5337  -10.3591 C   0  0  0  0  0  0  0  0  0  0  0  0
   18.4598   -6.4074   -9.3184 O   0  0  0  0  0  0  0  0  0  0  0  0
   13.3801   -3.3886   -8.6418 O   0  0  0  0  0  0  0  0  0  0  0  0
   23.8391  -10.0746  -13.3344 C   0  0  0  0  0  0  0  0  0  0  0  0
   22.0595   -9.7624  -13.3238 S   0  0  0  0  0  0  0  0  0  0  0  0
   21.7223   -8.2001  -12.4962 C   0  0  0  0  0  0  0  0  0  0  0  0
   20.2915   -7.8824  -12.2887 C   0  0  0  0  0  0  0  0  0  0  0  0
   19.9072   -6.5972  -11.6435 C   0  0  2  0  0  0  0  0  0  0  0  0
   18.4138   -6.5468  -11.5985 N   0  0  0  0  0  0  0  0  0  0  0  0
   20.4140   -5.3857  -12.2667 C   0  0  0  0  0  0  0  0  0  0  0  0
   19.7376   -4.6509  -13.0174 O   0  0  0  0  0  0  0  0  0  0  0  0
   21.7512   -4.9910  -12.0264 O   0  0  0  0  0  0  0  0  0  0  0  0
  1  2  1  0
  3  5  1  0
  3  2  1  0
  4  3  2  0
  6  5  1  0
  6 11  1  0
  6  7  1  1
  8  7  1  0
  9  8  1  0
 10  9  2  0
 11 19  1  0
 11 12  2  0
 13  9  1  0
 14 15  1  0
 15 16  1  0
 16 17  1  0
 18 17  1  6
 19 18  1  0
 20 18  1  0
 20 22  1  0
 21 20  2  0
M  END
$$$$
