GEM.pdb
     RDKit          3D

 22 21  0  0  1  0  0  0  0  0999 V2000
   12.6846   -9.8502   -8.2763 N   0  0  0  0  0  0  0  0  0  0  0  0
   13.6979   -8.8507   -8.0038 C   0  0  0  0  0  0  0  0  0  0  0  0
   14.5053   -8.6599   -9.2245 C   0  0  0  0  0  0  0  0  0  0  0  0
   14.6409   -9.6187  -10.0442 O   0  0  0  0  0  0  0  0  0  0  0  0
   15.1631   -7.4638   -9.5761 N   0  0  0  0  0  0  0  0  0  0  0  0
   15.9562   -7.2817  -10.7874 C   0  0  1  0  0  0  0  0  0  0  0  0
   15.1863   -6.3560  -11.6767 C   0  0  0  0  0  0  0  0  0  0  0  0
   13.8725   -6.8216  -12.1898 C   0  0  0  0  0  0  0  0  0  0  0  0
   13.1928   -5.9035  -13.1242 C   0  0  0  0  0  0  0  0  0  0  0  0
   12.4730   -4.9635  -12.6603 O   0  0  0  0  0  0  0  0  0  0  0  0
   17.3666   -7.0629  -10.5784 C   0  0  0  0  0  0  0  0  0  0  0  0
   17.7906   -6.4653   -9.5228 O   0  0  0  0  0  0  0  0  0  0  0  0
   13.2948   -6.0084  -14.4988 O   0  0  0  0  0  0  0  0  0  0  0  0
   22.5312   -9.9444   -8.7090 C   0  0  0  0  0  0  0  0  0  0  0  0
   22.9915   -9.5204  -10.4040 S   0  0  0  0  0  0  0  0  0  0  0  0
   22.1009   -8.0453  -10.9239 C   0  0  0  0  0  0  0  0  0  0  0  0
   20.6337   -8.1955  -11.0498 C   0  0  0  0  0  0  0  0  0  0  0  0
   19.7915   -7.0012  -11.3325 C   0  0  2  0  0  0  0  0  0  0  0  0
   18.3813   -7.4731  -11.4864 N   0  0  0  0  0  0  0  0  0  0  0  0
   20.1657   -6.2077  -12.4915 C   0  0  0  0  0  0  0  0  0  0  0  0
   19.5433   -6.2170  -13.5748 O   0  0  0  0  0  0  0  0  0  0  0  0
   21.2997   -5.3652  -12.4166 O   0  0  0  0  0  0  0  0  0  0  0  0
  1  2  1  0
  3  5  1  0
  3  2  1  0
  4  3  2  0
  6  5  1  0
  6 11  1  0
  6  7  1  1
  8  7  1  0
  9  8  1  0
 10  9  2  0
 11 19  1  0
 11 12  2  0
 13  9  1  0
 14 15  1  0
 15 16  1  0
 16 17  1  0
 18 17  1  6
 19 18  1  0
 20 18  1  0
 20 22  1  0
 21 20  2  0
M  END
$$$$
