GEM.pdb
     RDKit          3D

 22 21  0  0  1  0  0  0  0  0999 V2000
   28.0021  -18.0305  -15.1469 N   0  0  0  0  0  0  0  0  0  0  0  0
   27.4178  -19.3485  -15.0001 C   0  0  0  0  0  0  0  0  0  0  0  0
   26.5447  -19.3419  -13.8102 C   0  0  0  0  0  0  0  0  0  0  0  0
   26.3869  -18.2684  -13.1527 O   0  0  0  0  0  0  0  0  0  0  0  0
   25.8428  -20.4619  -13.3202 N   0  0  0  0  0  0  0  0  0  0  0  0
   25.0376  -20.4655  -12.1032 C   0  0  1  0  0  0  0  0  0  0  0  0
   23.7096  -21.0557  -12.4617 C   0  0  0  0  0  0  0  0  0  0  0  0
   22.8513  -20.3038  -13.4125 C   0  0  0  0  0  0  0  0  0  0  0  0
   21.5295  -19.9007  -12.8945 C   0  0  0  0  0  0  0  0  0  0  0  0
   21.1145  -18.7167  -13.1014 O   0  0  0  0  0  0  0  0  0  0  0  0
   25.7177  -20.9084  -10.9106 C   0  0  0  0  0  0  0  0  0  0  0  0
   26.2378  -22.0816  -10.8469 O   0  0  0  0  0  0  0  0  0  0  0  0
   20.7021  -20.7506  -12.1846 O   0  0  0  0  0  0  0  0  0  0  0  0
   28.9876  -19.1941   -3.8801 C   0  0  0  0  0  0  0  0  0  0  0  0
   28.5132  -18.6840   -5.5472 S   0  0  0  0  0  0  0  0  0  0  0  0
   27.5007  -19.9628   -6.3082 C   0  0  0  0  0  0  0  0  0  0  0  0
   27.0913  -19.7058   -7.7073 C   0  0  0  0  0  0  0  0  0  0  0  0
   26.3029  -20.7302   -8.4452 C   0  0  2  0  0  0  0  0  0  0  0  0
   25.8707  -20.1176   -9.7386 N   0  0  0  0  0  0  0  0  0  0  0  0
   25.1442  -21.2727   -7.7553 C   0  0  0  0  0  0  0  0  0  0  0  0
   25.2128  -22.0560   -6.7843 O   0  0  0  0  0  0  0  0  0  0  0  0
   23.8475  -20.9090   -8.1888 O   0  0  0  0  0  0  0  0  0  0  0  0
  1  2  1  0
  3  5  1  0
  3  2  1  0
  4  3  2  0
  6  5  1  0
  6 11  1  0
  6  7  1  6
  8  7  1  0
  9  8  1  0
 10  9  2  0
 11 19  1  0
 11 12  2  0
 13  9  1  0
 14 15  1  0
 15 16  1  0
 16 17  1  0
 18 17  1  1
 19 18  1  0
 20 18  1  0
 20 22  1  0
 21 20  2  0
M  END
$$$$
