LRK.pdb
     RDKit          3D

 29 28  0  0  1  0  0  0  0  0999 V2000
   17.0441  -23.2182  -11.9726 C   0  0  0  0  0  0  0  0  0  0  0  0
   18.0021  -23.5773  -10.8732 C   0  0  1  0  0  0  0  0  0  0  0  0
   18.8002  -22.3432  -10.4850 C   0  0  0  0  0  0  0  0  0  0  0  0
   17.2828  -24.1258   -9.6681 C   0  0  0  0  0  0  0  0  0  0  0  0
   18.2655  -24.4926   -8.6164 C   0  0  2  0  0  0  0  0  0  0  0  0
   19.3972  -25.2241   -9.1073 N   0  0  0  0  0  0  0  0  0  0  0  0
   17.6409  -25.3223   -7.5270 C   0  0  0  0  0  0  0  0  0  0  0  0
   16.6428  -24.9246   -6.8730 O   0  0  0  0  0  0  0  0  0  0  0  0
   16.9770  -33.3040   -6.0201 N   0  0  0  0  0  0  0  0  0  0  0  0
   17.9264  -32.6194   -6.8165 C   0  0  0  0  0  0  0  0  0  0  0  0
   18.3295  -33.0538   -7.9751 N   0  0  0  0  0  0  0  0  0  0  0  0
   18.4839  -31.3812   -6.3378 N   0  0  0  0  0  0  0  0  0  0  0  0
   18.2575  -30.9701   -4.9743 C   0  0  0  0  0  0  0  0  0  0  0  0
   17.5969  -29.6113   -4.9198 C   0  0  0  0  0  0  0  0  0  0  0  0
   18.1730  -28.7563   -5.9953 C   0  0  0  0  0  0  0  0  0  0  0  0
   17.5851  -27.3909   -6.1242 C   0  0  2  0  0  0  0  0  0  0  0  0
   18.1589  -26.6035   -7.1883 N   0  0  0  0  0  0  0  0  0  0  0  0
   17.5465  -26.7009   -4.8171 C   0  0  0  0  0  0  0  0  0  0  0  0
   18.6066  -26.1797   -4.3989 O   0  0  0  0  0  0  0  0  0  0  0  0
   19.0167  -32.4480   -8.4755 N   0  0  0  0  0  0  0  0  0  0  0  0
   16.3836  -26.5947   -4.0078 C   0  0  2  0  0  0  0  0  0  0  0  0
   16.3274  -25.8310   -2.7760 C   0  0  0  0  0  0  0  0  0  0  0  0
   15.3138  -24.7515   -2.9488 C   0  0  0  0  0  0  0  0  0  0  0  0
   15.0926  -23.9186   -1.7146 C   0  0  0  0  0  0  0  0  0  0  0  0
   14.1461  -22.7729   -1.9483 C   0  0  0  0  0  0  0  0  0  0  0  0
   13.9306  -22.1003   -0.5922 N   0  0  0  0  0  0  0  0  0  0  0  0
   13.2133  -20.8685   -0.7756 C   0  0  0  0  0  0  0  0  0  0  0  0
   16.0585  -26.7515   -1.6644 O   0  0  0  0  0  0  0  0  0  0  0  0
   16.1933  -26.4368   -0.4500 O   0  0  0  0  0  0  0  0  0  0  0  0
  2  1  1  6
  2  3  1  0
  4  2  1  0
  5  4  1  0
  5  6  1  6
  7  8  2  0
  7  5  1  0
  9 10  1  0
 10 12  1  0
 11 10  2  0
 12 13  1  0
 13 14  1  0
 16 15  1  1
 15 14  1  0
 16 17  1  0
 17  7  1  0
 18 16  1  0
 19 18  2  0
 20 18  1  0
 21 27  1  0
 21 20  1  0
 21 22  1  6
 23 22  1  0
 24 23  1  0
 25 24  1  0
 26 25  1  0
 27 29  1  0
 28 27  2  0
M  END
$$$$
