LRK.pdb
     RDKit          3D

 29 28  0  0  1  0  0  0  0  0999 V2000
   29.0201  -21.3241   -8.1716 C   0  0  0  0  0  0  0  0  0  0  0  0
   27.6449  -20.7279   -8.0788 C   0  0  1  0  0  0  0  0  0  0  0  0
   27.7573  -19.2867   -7.6087 C   0  0  0  0  0  0  0  0  0  0  0  0
   26.9258  -20.7837   -9.4018 C   0  0  0  0  0  0  0  0  0  0  0  0
   25.6144  -20.0945   -9.2939 C   0  0  2  0  0  0  0  0  0  0  0  0
   24.9631  -20.2780   -8.0294 N   0  0  0  0  0  0  0  0  0  0  0  0
   24.6510  -20.5477  -10.3578 C   0  0  0  0  0  0  0  0  0  0  0  0
   24.9954  -20.6759  -11.5606 O   0  0  0  0  0  0  0  0  0  0  0  0
   18.4334  -25.1757  -11.5698 N   0  0  0  0  0  0  0  0  0  0  0  0
   18.6264  -24.8247  -10.2119 C   0  0  0  0  0  0  0  0  0  0  0  0
   18.5832  -25.6891   -9.2400 N   0  0  0  0  0  0  0  0  0  0  0  0
   18.8839  -23.4498   -9.8707 N   0  0  0  0  0  0  0  0  0  0  0  0
   18.7311  -22.4203  -10.8688 C   0  0  0  0  0  0  0  0  0  0  0  0
   20.0463  -22.1317  -11.5564 C   0  0  0  0  0  0  0  0  0  0  0  0
   21.0140  -21.6243  -10.5436 C   0  0  0  0  0  0  0  0  0  0  0  0
   22.3489  -21.2142  -11.0693 C   0  0  2  0  0  0  0  0  0  0  0  0
   23.2972  -20.8528  -10.0437 N   0  0  0  0  0  0  0  0  0  0  0  0
   22.2130  -20.2096  -12.1457 C   0  0  0  0  0  0  0  0  0  0  0  0
   21.8864  -19.0442  -11.8207 O   0  0  0  0  0  0  0  0  0  0  0  0
   18.7609  -25.3095   -8.2839 N   0  0  0  0  0  0  0  0  0  0  0  0
   22.4280  -20.4853  -13.5227 C   0  0  2  0  0  0  0  0  0  0  0  0
   22.2690  -19.5001  -14.5751 C   0  0  0  0  0  0  0  0  0  0  0  0
   23.3370  -19.7321  -15.5891 C   0  0  0  0  0  0  0  0  0  0  0  0
   23.2440  -18.8305  -16.7909 C   0  0  0  0  0  0  0  0  0  0  0  0
   24.2247  -19.1982  -17.8707 C   0  0  0  0  0  0  0  0  0  0  0  0
   24.0020  -18.2120  -19.0178 N   0  0  0  0  0  0  0  0  0  0  0  0
   24.9066  -18.5137  -20.0931 C   0  0  0  0  0  0  0  0  0  0  0  0
   20.8995  -19.5871  -15.0971 O   0  0  0  0  0  0  0  0  0  0  0  0
   20.2025  -18.5793  -15.3981 O   0  0  0  0  0  0  0  0  0  0  0  0
  2  1  1  6
  2  3  1  0
  4  2  1  0
  5  4  1  0
  5  6  1  1
  7  8  2  0
  7  5  1  0
  9 10  1  0
 10 12  1  0
 11 10  2  0
 12 13  1  0
 13 14  1  0
 16 15  1  1
 15 14  1  0
 16 17  1  0
 17  7  1  0
 18 16  1  0
 19 18  2  0
 20 18  1  0
 21 27  1  0
 21 20  1  0
 21 22  1  1
 23 22  1  0
 24 23  1  0
 25 24  1  0
 26 25  1  0
 27 29  1  0
 28 27  2  0
M  END
$$$$
