LRK.pdb
     RDKit          3D

 29 28  0  0  1  0  0  0  0  0999 V2000
   28.1470  -18.8218   -6.0127 C   0  0  0  0  0  0  0  0  0  0  0  0
   27.8190  -20.0542   -6.8058 C   0  0  1  0  0  0  0  0  0  0  0  0
   27.4928  -21.1899   -5.8495 C   0  0  0  0  0  0  0  0  0  0  0  0
   26.6612  -19.8198   -7.7413 C   0  0  0  0  0  0  0  0  0  0  0  0
   26.5858  -20.9188   -8.7376 C   0  0  2  0  0  0  0  0  0  0  0  0
   27.8609  -21.4709   -9.0925 N   0  0  0  0  0  0  0  0  0  0  0  0
   25.9241  -20.4764  -10.0151 C   0  0  0  0  0  0  0  0  0  0  0  0
   24.7491  -20.0283  -10.0387 O   0  0  0  0  0  0  0  0  0  0  0  0
   29.1100  -21.7235  -15.0098 N   0  0  0  0  0  0  0  0  0  0  0  0
   28.2370  -22.0967  -16.0600 C   0  0  0  0  0  0  0  0  0  0  0  0
   28.1786  -23.3041  -16.5423 N   0  0  0  0  0  0  0  0  0  0  0  0
   27.3642  -21.1061  -16.6346 N   0  0  0  0  0  0  0  0  0  0  0  0
   27.2869  -19.7901  -16.0504 C   0  0  0  0  0  0  0  0  0  0  0  0
   26.2384  -19.7401  -14.9623 C   0  0  0  0  0  0  0  0  0  0  0  0
   26.8513  -20.2047  -13.6863 C   0  0  0  0  0  0  0  0  0  0  0  0
   25.9420  -20.2385  -12.5037 C   0  0  2  0  0  0  0  0  0  0  0  0
   26.6072  -20.5474  -11.2612 N   0  0  0  0  0  0  0  0  0  0  0  0
   24.7487  -21.0695  -12.7715 C   0  0  0  0  0  0  0  0  0  0  0  0
   24.8715  -22.3138  -12.6880 O   0  0  0  0  0  0  0  0  0  0  0  0
   27.5366  -23.4404  -17.3541 N   0  0  0  0  0  0  0  0  0  0  0  0
   23.4751  -20.5441  -13.1184 C   0  0  1  0  0  0  0  0  0  0  0  0
   22.3045  -21.3655  -13.3605 C   0  0  0  0  0  0  0  0  0  0  0  0
   21.2708  -21.0044  -12.3488 C   0  0  0  0  0  0  0  0  0  0  0  0
   19.9819  -21.7686  -12.4934 C   0  0  0  0  0  0  0  0  0  0  0  0
   18.9743  -21.4147  -11.4340 C   0  0  0  0  0  0  0  0  0  0  0  0
   17.7323  -22.2623  -11.7115 N   0  0  0  0  0  0  0  0  0  0  0  0
   16.7220  -21.9688  -10.7324 C   0  0  0  0  0  0  0  0  0  0  0  0
   21.8849  -21.1858  -14.7559 O   0  0  0  0  0  0  0  0  0  0  0  0
   22.1285  -20.1469  -15.4292 O   0  0  0  0  0  0  0  0  0  0  0  0
  2  1  1  1
  2  3  1  0
  4  2  1  0
  5  4  1  0
  5  6  1  6
  7  8  2  0
  7  5  1  0
  9 10  1  0
 10 12  1  0
 11 10  2  0
 12 13  1  0
 13 14  1  0
 16 15  1  6
 15 14  1  0
 16 17  1  0
 17  7  1  0
 18 16  1  0
 19 18  2  0
 20 18  1  0
 21 27  1  0
 21 20  1  0
 21 22  1  6
 23 22  1  0
 24 23  1  0
 25 24  1  0
 26 25  1  0
 27 29  1  0
 28 27  2  0
M  END
$$$$
