LRK.pdb
     RDKit          3D

 29 28  0  0  1  0  0  0  0  0999 V2000
   27.4931  -10.2384  -15.9985 C   0  0  0  0  0  0  0  0  0  0  0  0
   26.1902  -10.9657  -16.1686 C   0  0  1  0  0  0  0  0  0  0  0  0
   25.8301  -11.6548  -14.8625 C   0  0  0  0  0  0  0  0  0  0  0  0
   25.0827  -10.0305  -16.5802 C   0  0  0  0  0  0  0  0  0  0  0  0
   23.8356  -10.7999  -16.8234 C   0  0  2  0  0  0  0  0  0  0  0  0
   23.9804  -11.8537  -17.7853 N   0  0  0  0  0  0  0  0  0  0  0  0
   22.7133   -9.9172  -17.2994 C   0  0  0  0  0  0  0  0  0  0  0  0
   22.6832   -9.4441  -18.4644 O   0  0  0  0  0  0  0  0  0  0  0  0
   18.5542  -13.4096  -17.2082 N   0  0  0  0  0  0  0  0  0  0  0  0
   17.1884  -13.0832  -17.3877 C   0  0  0  0  0  0  0  0  0  0  0  0
   16.2150  -13.8143  -16.9276 N   0  0  0  0  0  0  0  0  0  0  0  0
   16.8401  -11.8882  -18.1116 N   0  0  0  0  0  0  0  0  0  0  0  0
   17.8771  -10.9974  -18.5704 C   0  0  0  0  0  0  0  0  0  0  0  0
   18.6334  -10.3996  -17.4058 C   0  0  0  0  0  0  0  0  0  0  0  0
   19.6753   -9.4760  -17.9361 C   0  0  0  0  0  0  0  0  0  0  0  0
   20.5160   -8.7892  -16.9124 C   0  0  2  0  0  0  0  0  0  0  0  0
   21.6291   -9.5780  -16.4427 N   0  0  0  0  0  0  0  0  0  0  0  0
   19.6826   -8.2194  -15.8322 C   0  0  0  0  0  0  0  0  0  0  0  0
   19.0045   -9.0111  -15.1367 O   0  0  0  0  0  0  0  0  0  0  0  0
   15.2510  -13.4579  -17.1103 N   0  0  0  0  0  0  0  0  0  0  0  0
   19.6029   -6.8320  -15.5368 C   0  0  1  0  0  0  0  0  0  0  0  0
   18.7586   -6.2781  -14.4958 C   0  0  0  0  0  0  0  0  0  0  0  0
   19.4333   -6.5046  -13.1858 C   0  0  0  0  0  0  0  0  0  0  0  0
   18.7209   -5.8799  -12.0161 C   0  0  0  0  0  0  0  0  0  0  0  0
   17.9675   -6.8860  -11.1895 C   0  0  0  0  0  0  0  0  0  0  0  0
   17.3014   -6.1079  -10.0541 N   0  0  0  0  0  0  0  0  0  0  0  0
   16.6595   -7.0266   -9.1544 C   0  0  0  0  0  0  0  0  0  0  0  0
   18.4882   -4.8696  -14.8099 O   0  0  0  0  0  0  0  0  0  0  0  0
   17.5237   -4.2189  -14.3218 O   0  0  0  0  0  0  0  0  0  0  0  0
  2  1  1  1
  2  3  1  0
  4  2  1  0
  5  4  1  0
  5  6  1  6
  7  8  2  0
  7  5  1  0
  9 10  1  0
 10 12  1  0
 11 10  2  0
 12 13  1  0
 13 14  1  0
 16 15  1  6
 15 14  1  0
 16 17  1  0
 17  7  1  0
 18 16  1  0
 19 18  2  0
 20 18  1  0
 21 27  1  0
 21 20  1  0
 21 22  1  6
 23 22  1  0
 24 23  1  0
 25 24  1  0
 26 25  1  0
 27 29  1  0
 28 27  2  0
M  END
$$$$
