LRK.pdb
     RDKit          3D

 29 28  0  0  1  0  0  0  0  0999 V2000
   28.7085  -19.4125  -18.1731 C   0  0  0  0  0  0  0  0  0  0  0  0
   28.2353  -19.8058  -16.8031 C   0  0  1  0  0  0  0  0  0  0  0  0
   28.5220  -18.6718  -15.8324 C   0  0  0  0  0  0  0  0  0  0  0  0
   26.7637  -20.1299  -16.7966 C   0  0  0  0  0  0  0  0  0  0  0  0
   26.3195  -20.4357  -15.4126 C   0  0  2  0  0  0  0  0  0  0  0  0
   27.0163  -21.5332  -14.8070 N   0  0  0  0  0  0  0  0  0  0  0  0
   24.8502  -20.7561  -15.3507 C   0  0  0  0  0  0  0  0  0  0  0  0
   23.9805  -20.0064  -15.8641 O   0  0  0  0  0  0  0  0  0  0  0  0
   21.4148  -27.5840  -11.6613 N   0  0  0  0  0  0  0  0  0  0  0  0
   20.5192  -26.5154  -11.4155 C   0  0  0  0  0  0  0  0  0  0  0  0
   19.6220  -26.5408  -10.4732 N   0  0  0  0  0  0  0  0  0  0  0  0
   20.5897  -25.3355  -12.2377 N   0  0  0  0  0  0  0  0  0  0  0  0
   21.1329  -25.4192  -13.5708 C   0  0  0  0  0  0  0  0  0  0  0  0
   21.2563  -24.0470  -14.1936 C   0  0  0  0  0  0  0  0  0  0  0  0
   22.6817  -23.6184  -14.1270 C   0  0  0  0  0  0  0  0  0  0  0  0
   22.9736  -22.2511  -14.6485 C   0  0  2  0  0  0  0  0  0  0  0  0
   24.3796  -21.9319  -14.7023 N   0  0  0  0  0  0  0  0  0  0  0  0
   22.1496  -21.2318  -13.9643 C   0  0  0  0  0  0  0  0  0  0  0  0
   22.4268  -20.9584  -12.7731 O   0  0  0  0  0  0  0  0  0  0  0  0
   18.9972  -25.7065  -10.4157 N   0  0  0  0  0  0  0  0  0  0  0  0
   21.0644  -20.5464  -14.5734 C   0  0  2  0  0  0  0  0  0  0  0  0
   20.3338  -19.4681  -13.9354 C   0  0  0  0  0  0  0  0  0  0  0  0
   20.2442  -18.3367  -14.9021 C   0  0  0  0  0  0  0  0  0  0  0  0
   19.4598  -17.1579  -14.3913 C   0  0  0  0  0  0  0  0  0  0  0  0
   19.2743  -16.0879  -15.4323 C   0  0  0  0  0  0  0  0  0  0  0  0
   18.5470  -14.9313  -14.7456 N   0  0  0  0  0  0  0  0  0  0  0  0
   18.2354  -13.9169  -15.7148 C   0  0  0  0  0  0  0  0  0  0  0  0
   19.0387  -19.9854  -13.4761 O   0  0  0  0  0  0  0  0  0  0  0  0
   18.4064  -19.5095  -12.4934 O   0  0  0  0  0  0  0  0  0  0  0  0
  2  1  1  6
  2  3  1  0
  4  2  1  0
  5  4  1  0
  5  6  1  6
  7  8  2  0
  7  5  1  0
  9 10  1  0
 10 12  1  0
 11 10  2  0
 12 13  1  0
 13 14  1  0
 16 15  1  1
 15 14  1  0
 16 17  1  0
 17  7  1  0
 18 16  1  0
 19 18  2  0
 20 18  1  0
 21 27  1  0
 21 20  1  0
 21 22  1  6
 23 22  1  0
 24 23  1  0
 25 24  1  0
 26 25  1  0
 27 29  1  0
 28 27  2  0
M  END
$$$$
