LRK.pdb
     RDKit          3D

 29 28  0  0  1  0  0  0  0  0999 V2000
   29.4095  -12.5714  -18.0255 C   0  0  0  0  0  0  0  0  0  0  0  0
   28.6497  -11.9067  -16.9137 C   0  0  1  0  0  0  0  0  0  0  0  0
   29.4282  -10.6922  -16.4347 C   0  0  0  0  0  0  0  0  0  0  0  0
   27.2697  -11.4929  -17.3552 C   0  0  0  0  0  0  0  0  0  0  0  0
   26.5442  -10.8629  -16.2224 C   0  0  2  0  0  0  0  0  0  0  0  0
   26.3294  -11.7408  -15.1089 N   0  0  0  0  0  0  0  0  0  0  0  0
   25.1962  -10.3386  -16.6390 C   0  0  0  0  0  0  0  0  0  0  0  0
   25.0550   -9.5597  -17.6164 O   0  0  0  0  0  0  0  0  0  0  0  0
   16.9039  -12.4967  -14.2396 N   0  0  0  0  0  0  0  0  0  0  0  0
   16.7032  -11.5124  -15.2372 C   0  0  0  0  0  0  0  0  0  0  0  0
   15.5252  -11.1638  -15.6668 N   0  0  0  0  0  0  0  0  0  0  0  0
   17.8457  -10.8545  -15.8161 N   0  0  0  0  0  0  0  0  0  0  0  0
   19.1746  -11.3332  -15.5261 C   0  0  0  0  0  0  0  0  0  0  0  0
   20.2213  -10.4492  -16.1654 C   0  0  0  0  0  0  0  0  0  0  0  0
   21.5700  -10.9371  -15.7620 C   0  0  0  0  0  0  0  0  0  0  0  0
   22.7274  -10.1571  -16.2901 C   0  0  2  0  0  0  0  0  0  0  0  0
   24.0142  -10.7060  -15.9373 N   0  0  0  0  0  0  0  0  0  0  0  0
   22.5828   -8.7170  -15.9878 C   0  0  0  0  0  0  0  0  0  0  0  0
   22.8496   -8.3334  -14.8250 O   0  0  0  0  0  0  0  0  0  0  0  0
   15.5104  -10.4523  -16.4306 N   0  0  0  0  0  0  0  0  0  0  0  0
   22.1593   -7.7445  -16.9329 C   0  0  2  0  0  0  0  0  0  0  0  0
   21.9563   -6.3448  -16.6114 C   0  0  0  0  0  0  0  0  0  0  0  0
   22.2218   -5.5460  -17.8419 C   0  0  0  0  0  0  0  0  0  0  0  0
   22.0584   -4.0615  -17.6530 C   0  0  0  0  0  0  0  0  0  0  0  0
   22.3688   -3.2792  -18.8999 C   0  0  0  0  0  0  0  0  0  0  0  0
   22.2270   -1.8011  -18.5352 N   0  0  0  0  0  0  0  0  0  0  0  0
   22.3745   -0.9983  -19.7181 C   0  0  0  0  0  0  0  0  0  0  0  0
   20.6078   -6.1816  -16.0544 O   0  0  0  0  0  0  0  0  0  0  0  0
   19.6547   -6.9737  -16.2913 O   0  0  0  0  0  0  0  0  0  0  0  0
  2  1  1  6
  2  3  1  0
  4  2  1  0
  5  4  1  0
  5  6  1  1
  7  8  2  0
  7  5  1  0
  9 10  1  0
 10 12  1  0
 11 10  2  0
 12 13  1  0
 13 14  1  0
 16 15  1  1
 15 14  1  0
 16 17  1  0
 17  7  1  0
 18 16  1  0
 19 18  2  0
 20 18  1  0
 21 27  1  0
 21 20  1  0
 21 22  1  6
 23 22  1  0
 24 23  1  0
 25 24  1  0
 26 25  1  0
 27 29  1  0
 28 27  2  0
M  END
$$$$
