LRK.pdb
     RDKit          3D

 29 28  0  0  1  0  0  0  0  0999 V2000
   26.7330  -16.0474  -22.0061 C   0  0  0  0  0  0  0  0  0  0  0  0
   26.0130  -15.6398  -20.7528 C   0  0  1  0  0  0  0  0  0  0  0  0
   24.6622  -15.0496  -21.1238 C   0  0  0  0  0  0  0  0  0  0  0  0
   25.8263  -16.8055  -19.8164 C   0  0  0  0  0  0  0  0  0  0  0  0
   25.1374  -16.3554  -18.5799 C   0  0  2  0  0  0  0  0  0  0  0  0
   25.8060  -15.2854  -17.8980 N   0  0  0  0  0  0  0  0  0  0  0  0
   24.9703  -17.4757  -17.5888 C   0  0  0  0  0  0  0  0  0  0  0  0
   24.4202  -18.5641  -17.8969 O   0  0  0  0  0  0  0  0  0  0  0  0
   30.0049  -20.9398  -11.5370 N   0  0  0  0  0  0  0  0  0  0  0  0
   28.7446  -21.2630  -10.9788 C   0  0  0  0  0  0  0  0  0  0  0  0
   28.6067  -21.9468   -9.8802 N   0  0  0  0  0  0  0  0  0  0  0  0
   27.5465  -20.8224  -11.6449 N   0  0  0  0  0  0  0  0  0  0  0  0
   27.6345  -19.8878  -12.7394 C   0  0  0  0  0  0  0  0  0  0  0  0
   26.2605  -19.4313  -13.1749 C   0  0  0  0  0  0  0  0  0  0  0  0
   26.4135  -18.4302  -14.2677 C   0  0  0  0  0  0  0  0  0  0  0  0
   25.3534  -18.4479  -15.3176 C   0  0  2  0  0  0  0  0  0  0  0  0
   25.4323  -17.3488  -16.2491 N   0  0  0  0  0  0  0  0  0  0  0  0
   24.0141  -18.6373  -14.7207 C   0  0  0  0  0  0  0  0  0  0  0  0
   23.5506  -17.7098  -14.0168 O   0  0  0  0  0  0  0  0  0  0  0  0
   27.6266  -22.0822   -9.5472 N   0  0  0  0  0  0  0  0  0  0  0  0
   23.2234  -19.8047  -14.8949 C   0  0  2  0  0  0  0  0  0  0  0  0
   21.9116  -19.9840  -14.3028 C   0  0  0  0  0  0  0  0  0  0  0  0
   21.1916  -21.0289  -15.0853 C   0  0  0  0  0  0  0  0  0  0  0  0
   20.6786  -22.1716  -14.2504 C   0  0  0  0  0  0  0  0  0  0  0  0
   20.0820  -23.2757  -15.0799 C   0  0  0  0  0  0  0  0  0  0  0  0
   19.6470  -24.3695  -14.1040 N   0  0  0  0  0  0  0  0  0  0  0  0
   19.0897  -25.4731  -14.8368 C   0  0  0  0  0  0  0  0  0  0  0  0
   22.0779  -20.2924  -12.8770 O   0  0  0  0  0  0  0  0  0  0  0  0
   23.1201  -20.8136  -12.3931 O   0  0  0  0  0  0  0  0  0  0  0  0
  2  1  1  6
  2  3  1  0
  4  2  1  0
  5  4  1  0
  5  6  1  1
  7  8  2  0
  7  5  1  0
  9 10  1  0
 10 12  1  0
 11 10  2  0
 12 13  1  0
 13 14  1  0
 16 15  1  1
 15 14  1  0
 16 17  1  0
 17  7  1  0
 18 16  1  0
 19 18  2  0
 20 18  1  0
 21 27  1  0
 21 20  1  0
 21 22  1  6
 23 22  1  0
 24 23  1  0
 25 24  1  0
 26 25  1  0
 27 29  1  0
 28 27  2  0
M  END
$$$$
