LRK.pdb
     RDKit          3D

 29 28  0  0  1  0  0  0  0  0999 V2000
   17.1542  -22.7193  -13.2598 C   0  0  0  0  0  0  0  0  0  0  0  0
   18.4334  -22.5118  -12.5010 C   0  0  1  0  0  0  0  0  0  0  0  0
   19.2677  -23.7803  -12.5744 C   0  0  0  0  0  0  0  0  0  0  0  0
   19.2184  -21.3466  -13.0456 C   0  0  0  0  0  0  0  0  0  0  0  0
   20.4988  -21.2094  -12.3053 C   0  0  2  0  0  0  0  0  0  0  0  0
   20.3456  -20.7340  -10.9610 N   0  0  0  0  0  0  0  0  0  0  0  0
   21.4531  -20.2748  -12.9992 C   0  0  0  0  0  0  0  0  0  0  0  0
   21.4219  -19.0308  -12.8161 O   0  0  0  0  0  0  0  0  0  0  0  0
   29.1596  -22.3402  -15.7005 N   0  0  0  0  0  0  0  0  0  0  0  0
   27.8952  -22.6164  -16.2744 C   0  0  0  0  0  0  0  0  0  0  0  0
   27.6369  -23.7059  -16.9376 N   0  0  0  0  0  0  0  0  0  0  0  0
   26.8314  -21.6572  -16.1273 N   0  0  0  0  0  0  0  0  0  0  0  0
   27.0748  -20.4132  -15.4399 C   0  0  0  0  0  0  0  0  0  0  0  0
   25.7973  -19.6191  -15.2865 C   0  0  0  0  0  0  0  0  0  0  0  0
   24.7640  -20.4920  -14.6620 C   0  0  0  0  0  0  0  0  0  0  0  0
   23.4098  -19.8853  -14.5057 C   0  0  2  0  0  0  0  0  0  0  0  0
   22.4396  -20.7647  -13.8998 N   0  0  0  0  0  0  0  0  0  0  0  0
   22.9546  -19.2636  -15.7677 C   0  0  0  0  0  0  0  0  0  0  0  0
   22.7060  -20.0192  -16.7360 O   0  0  0  0  0  0  0  0  0  0  0  0
   26.6647  -23.7953  -17.3072 N   0  0  0  0  0  0  0  0  0  0  0  0
   22.7840  -17.8648  -15.9489 C   0  0  2  0  0  0  0  0  0  0  0  0
   22.3029  -17.2655  -17.1790 C   0  0  0  0  0  0  0  0  0  0  0  0
   22.2328  -15.7902  -16.9763 C   0  0  0  0  0  0  0  0  0  0  0  0
   21.7294  -15.0325  -18.1757 C   0  0  0  0  0  0  0  0  0  0  0  0
   21.5209  -13.5696  -17.8936 C   0  0  0  0  0  0  0  0  0  0  0  0
   20.8735  -12.9714  -19.1430 N   0  0  0  0  0  0  0  0  0  0  0  0
   20.7323  -11.5508  -18.9774 C   0  0  0  0  0  0  0  0  0  0  0  0
   23.1740  -17.6917  -18.2813 O   0  0  0  0  0  0  0  0  0  0  0  0
   24.4286  -17.7838  -18.1832 O   0  0  0  0  0  0  0  0  0  0  0  0
  2  1  1  6
  2  3  1  0
  4  2  1  0
  5  4  1  0
  5  6  1  1
  7  8  2  0
  7  5  1  0
  9 10  1  0
 10 12  1  0
 11 10  2  0
 12 13  1  0
 13 14  1  0
 16 15  1  6
 15 14  1  0
 16 17  1  0
 17  7  1  0
 18 16  1  0
 19 18  2  0
 20 18  1  0
 21 27  1  0
 21 20  1  0
 21 22  1  1
 23 22  1  0
 24 23  1  0
 25 24  1  0
 26 25  1  0
 27 29  1  0
 28 27  2  0
M  END
$$$$
