LRK.pdb
     RDKit          3D

 29 28  0  0  1  0  0  0  0  0999 V2000
   20.0304  -27.2578  -10.8685 C   0  0  0  0  0  0  0  0  0  0  0  0
   19.8379  -27.8928  -12.2157 C   0  0  1  0  0  0  0  0  0  0  0  0
   20.1541  -26.8725  -13.2972 C   0  0  0  0  0  0  0  0  0  0  0  0
   20.7101  -29.1099  -12.3848 C   0  0  0  0  0  0  0  0  0  0  0  0
   20.5115  -29.6902  -13.7376 C   0  0  2  0  0  0  0  0  0  0  0  0
   19.1398  -29.9560  -14.0610 N   0  0  0  0  0  0  0  0  0  0  0  0
   21.2656  -30.9809  -13.9128 C   0  0  0  0  0  0  0  0  0  0  0  0
   20.8233  -32.0771  -13.4829 O   0  0  0  0  0  0  0  0  0  0  0  0
   28.5261  -30.4031  -16.2545 N   0  0  0  0  0  0  0  0  0  0  0  0
   28.3439  -31.7914  -16.4639 C   0  0  0  0  0  0  0  0  0  0  0  0
   29.2497  -32.6800  -16.1751 N   0  0  0  0  0  0  0  0  0  0  0  0
   27.1028  -32.2614  -17.0225 N   0  0  0  0  0  0  0  0  0  0  0  0
   26.0038  -31.3459  -17.2048 C   0  0  0  0  0  0  0  0  0  0  0  0
   25.2188  -31.1784  -15.9236 C   0  0  0  0  0  0  0  0  0  0  0  0
   24.2247  -32.2836  -15.8241 C   0  0  0  0  0  0  0  0  0  0  0  0
   23.3043  -32.2254  -14.6510 C   0  0  2  0  0  0  0  0  0  0  0  0
   22.5226  -31.0149  -14.5786 N   0  0  0  0  0  0  0  0  0  0  0  0
   24.0146  -32.5604  -13.3982 C   0  0  0  0  0  0  0  0  0  0  0  0
   24.6354  -31.6419  -12.8140 O   0  0  0  0  0  0  0  0  0  0  0  0
   28.9920  -33.6732  -16.3673 N   0  0  0  0  0  0  0  0  0  0  0  0
   24.0371  -33.8575  -12.8191 C   0  0  1  0  0  0  0  0  0  0  0  0
   24.6586  -34.1586  -11.5436 C   0  0  0  0  0  0  0  0  0  0  0  0
   24.0877  -33.2341  -10.5229 C   0  0  0  0  0  0  0  0  0  0  0  0
   24.5425  -33.5211   -9.1170 C   0  0  0  0  0  0  0  0  0  0  0  0
   25.9106  -32.9681   -8.8242 C   0  0  0  0  0  0  0  0  0  0  0  0
   26.2699  -33.4178   -7.4076 N   0  0  0  0  0  0  0  0  0  0  0  0
   27.5674  -32.9089   -7.0568 C   0  0  0  0  0  0  0  0  0  0  0  0
   24.4675  -35.5850  -11.2531 O   0  0  0  0  0  0  0  0  0  0  0  0
   23.5215  -36.2726  -11.7267 O   0  0  0  0  0  0  0  0  0  0  0  0
  2  1  1  1
  2  3  1  0
  4  2  1  0
  5  4  1  0
  5  6  1  1
  7  8  2  0
  7  5  1  0
  9 10  1  0
 10 12  1  0
 11 10  2  0
 12 13  1  0
 13 14  1  0
 16 15  1  6
 15 14  1  0
 16 17  1  0
 17  7  1  0
 18 16  1  0
 19 18  2  0
 20 18  1  0
 21 27  1  0
 21 20  1  0
 21 22  1  1
 23 22  1  0
 24 23  1  0
 25 24  1  0
 26 25  1  0
 27 29  1  0
 28 27  2  0
M  END
$$$$
