NIS.pdb
     RDKit          3D

 23 22  0  0  1  0  0  0  0  0999 V2000
    8.6063  -16.4552   17.8324 N   0  0  0  0  0  0  0  0  0  0  0  0
    8.0827  -16.7241   19.1284 C   0  0  0  0  0  0  0  0  0  0  0  0
    6.9532  -17.2776   19.1818 O   0  0  0  0  0  0  0  0  0  0  0  0
    8.8355  -16.3680   20.3799 C   0  0  0  0  0  0  0  0  0  0  0  0
    7.8430  -15.8423   21.3589 C   0  0  2  0  0  0  0  0  0  0  0  0
    7.0220  -14.8252   20.7423 N   0  0  0  0  0  0  0  0  0  0  0  0
    8.3964  -15.4413   22.6524 C   0  0  0  0  0  0  0  0  0  0  0  0
    9.6643  -15.4475   22.7554 O   0  0  0  0  0  0  0  0  0  0  0  0
    6.0624  -11.7750   26.1796 C   0  0  0  0  0  0  0  0  0  0  0  0
    7.0308  -12.5590   25.3635 C   0  0  0  0  0  0  0  0  0  0  0  0
    7.4676  -13.8630   25.9584 C   0  0  2  0  0  0  0  0  0  0  0  0
    8.3873  -13.4871   27.1294 C   0  0  0  0  0  0  0  0  0  0  0  0
    8.2817  -14.7215   25.0161 C   0  0  2  0  0  0  0  0  0  0  0  0
    7.6298  -15.0486   23.7931 N   0  0  0  0  0  0  0  0  0  0  0  0
    8.5374  -16.0053   25.7620 C   0  0  0  0  0  0  0  0  0  0  0  0
    7.5719  -16.7600   26.0660 O   0  0  0  0  0  0  0  0  0  0  0  0
   12.1837  -17.7777   25.4604 O   0  0  0  0  0  0  0  0  0  0  0  0
   11.0405  -18.4822   25.8188 C   0  0  0  0  0  0  0  0  0  0  0  0
   10.2088  -17.5994   26.7245 C   0  0  2  0  0  0  0  0  0  0  0  0
    9.8702  -16.3467   26.1129 N   0  0  0  0  0  0  0  0  0  0  0  0
   10.8542  -17.4360   28.0470 C   0  0  0  0  0  0  0  0  0  0  0  0
   11.1427  -16.2729   28.4245 O   0  0  0  0  0  0  0  0  0  0  0  0
   11.1618  -18.4861   28.8985 O   0  0  0  0  0  0  0  0  0  0  0  0
  2  1  1  0
  3  2  2  0
  4  2  1  0
  4  5  1  0
  5  6  1  6
  7 14  1  0
  7  5  1  0
  8  7  2  0
 10  9  1  0
 11 10  1  0
 11 12  1  1
 13 14  1  6
 13 11  1  0
 15 13  1  0
 16 15  2  0
 17 18  1  0
 19 18  1  6
 19 20  1  0
 20 15  1  0
 21 19  1  0
 21 23  1  0
 22 21  2  0
M  END
$$$$
