NIS.pdb
     RDKit          3D

 23 22  0  0  1  0  0  0  0  0999 V2000
    6.3294  -18.6859   20.5160 N   0  0  0  0  0  0  0  0  0  0  0  0
    7.7426  -18.5631   20.6336 C   0  0  0  0  0  0  0  0  0  0  0  0
    8.4294  -18.9271   19.6432 O   0  0  0  0  0  0  0  0  0  0  0  0
    8.3934  -18.0253   21.8773 C   0  0  0  0  0  0  0  0  0  0  0  0
    8.5847  -16.5611   21.6790 C   0  0  2  0  0  0  0  0  0  0  0  0
    9.5044  -16.3194   20.5905 N   0  0  0  0  0  0  0  0  0  0  0  0
    8.9018  -15.8046   22.8903 C   0  0  0  0  0  0  0  0  0  0  0  0
   10.1050  -15.8636   23.2993 O   0  0  0  0  0  0  0  0  0  0  0  0
    6.9612  -11.5725   27.1165 C   0  0  0  0  0  0  0  0  0  0  0  0
    7.8604  -12.6469   26.6112 C   0  0  0  0  0  0  0  0  0  0  0  0
    7.3977  -13.3425   25.3673 C   0  0  2  0  0  0  0  0  0  0  0  0
    6.1606  -14.1486   25.7893 C   0  0  0  0  0  0  0  0  0  0  0  0
    8.3994  -14.3303   24.8118 C   0  0  2  0  0  0  0  0  0  0  0  0
    7.9741  -15.0153   23.6381 N   0  0  0  0  0  0  0  0  0  0  0  0
    8.5988  -15.3543   25.8987 C   0  0  0  0  0  0  0  0  0  0  0  0
    7.6972  -16.2063   26.1343 O   0  0  0  0  0  0  0  0  0  0  0  0
   12.2949  -16.6789   26.8652 O   0  0  0  0  0  0  0  0  0  0  0  0
   11.1164  -17.3496   27.1701 C   0  0  0  0  0  0  0  0  0  0  0  0
   10.1037  -16.3292   27.6440 C   0  0  2  0  0  0  0  0  0  0  0  0
    9.8067  -15.3433   26.6451 N   0  0  0  0  0  0  0  0  0  0  0  0
   10.5145  -15.7318   28.9349 C   0  0  0  0  0  0  0  0  0  0  0  0
   10.7626  -16.5064   29.8926 O   0  0  0  0  0  0  0  0  0  0  0  0
   10.6439  -14.3692   29.1565 O   0  0  0  0  0  0  0  0  0  0  0  0
  2  1  1  0
  3  2  2  0
  4  2  1  0
  4  5  1  0
  5  6  1  6
  7 14  1  0
  7  5  1  0
  8  7  2  0
 10  9  1  0
 11 10  1  0
 11 12  1  1
 13 14  1  6
 13 11  1  0
 15 13  1  0
 16 15  2  0
 17 18  1  0
 19 18  1  6
 19 20  1  0
 20 15  1  0
 21 19  1  0
 21 23  1  0
 22 21  2  0
M  END
$$$$
