NIS.pdb
     RDKit          3D

 23 22  0  0  1  0  0  0  0  0999 V2000
    5.9747  -17.9134   20.0358 N   0  0  0  0  0  0  0  0  0  0  0  0
    7.3735  -17.6520   20.0704 C   0  0  0  0  0  0  0  0  0  0  0  0
    7.9724  -17.6138   18.9637 O   0  0  0  0  0  0  0  0  0  0  0  0
    8.1094  -17.4306   21.3624 C   0  0  0  0  0  0  0  0  0  0  0  0
    8.2426  -15.9585   21.5491 C   0  0  2  0  0  0  0  0  0  0  0  0
    9.0304  -15.3876   20.4803 N   0  0  0  0  0  0  0  0  0  0  0  0
    8.6734  -15.5361   22.8818 C   0  0  0  0  0  0  0  0  0  0  0  0
    9.8969  -15.7289   23.1720 O   0  0  0  0  0  0  0  0  0  0  0  0
    5.9228  -11.7161   25.9053 C   0  0  0  0  0  0  0  0  0  0  0  0
    7.0956  -12.4245   25.3215 C   0  0  0  0  0  0  0  0  0  0  0  0
    7.4687  -13.7126   25.9900 C   0  0  2  0  0  0  0  0  0  0  0  0
    8.2808  -13.3067   27.2286 C   0  0  0  0  0  0  0  0  0  0  0  0
    8.3595  -14.6006   25.1500 C   0  0  2  0  0  0  0  0  0  0  0  0
    7.8343  -14.9315   23.8684 N   0  0  0  0  0  0  0  0  0  0  0  0
    8.5068  -15.8786   25.9340 C   0  0  0  0  0  0  0  0  0  0  0  0
    7.4922  -16.5914   26.1727 O   0  0  0  0  0  0  0  0  0  0  0  0
   12.0192  -17.8669   25.9626 O   0  0  0  0  0  0  0  0  0  0  0  0
   10.8378  -18.4817   26.3599 C   0  0  0  0  0  0  0  0  0  0  0  0
   10.0188  -17.4708   27.1338 C   0  0  2  0  0  0  0  0  0  0  0  0
    9.7940  -16.2623   26.3944 N   0  0  0  0  0  0  0  0  0  0  0  0
   10.6039  -17.2243   28.4713 C   0  0  0  0  0  0  0  0  0  0  0  0
   10.9068  -16.0435   28.7758 O   0  0  0  0  0  0  0  0  0  0  0  0
   10.8401  -18.2146   29.4127 O   0  0  0  0  0  0  0  0  0  0  0  0
  2  1  1  0
  3  2  2  0
  4  2  1  0
  4  5  1  0
  5  6  1  6
  7 14  1  0
  7  5  1  0
  8  7  2  0
 10  9  1  0
 11 10  1  0
 11 12  1  1
 13 14  1  6
 13 11  1  0
 15 13  1  0
 16 15  2  0
 17 18  1  0
 19 18  1  6
 19 20  1  0
 20 15  1  0
 21 19  1  0
 21 23  1  0
 22 21  2  0
M  END
$$$$
