NIS.pdb
     RDKit          3D

 23 22  0  0  1  0  0  0  0  0999 V2000
   11.5321  -17.7981   13.9261 N   0  0  0  0  0  0  0  0  0  0  0  0
   11.9127  -17.4831   15.2610 C   0  0  0  0  0  0  0  0  0  0  0  0
   12.8434  -18.1662   15.7632 O   0  0  0  0  0  0  0  0  0  0  0  0
   11.2412  -16.3882   16.0421 C   0  0  0  0  0  0  0  0  0  0  0  0
   10.7862  -16.9796   17.3316 C   0  0  2  0  0  0  0  0  0  0  0  0
    9.5992  -17.7779   17.1251 N   0  0  0  0  0  0  0  0  0  0  0  0
   10.6688  -16.0354   18.4429 C   0  0  0  0  0  0  0  0  0  0  0  0
   11.7436  -15.4755   18.8297 O   0  0  0  0  0  0  0  0  0  0  0  0
    6.8815  -12.1239   19.5051 C   0  0  0  0  0  0  0  0  0  0  0  0
    8.1318  -12.9300   19.4326 C   0  0  0  0  0  0  0  0  0  0  0  0
    8.2687  -14.0017   20.4708 C   0  0  2  0  0  0  0  0  0  0  0  0
    8.4567  -13.2569   21.8006 C   0  0  0  0  0  0  0  0  0  0  0  0
    9.4841  -14.8821   20.2827 C   0  0  2  0  0  0  0  0  0  0  0  0
    9.4540  -15.6996   19.1170 N   0  0  0  0  0  0  0  0  0  0  0  0
    9.5120  -15.7904   21.4843 C   0  0  0  0  0  0  0  0  0  0  0  0
    8.5045  -16.4994   21.7614 O   0  0  0  0  0  0  0  0  0  0  0  0
   11.5950  -18.4988   22.0635 O   0  0  0  0  0  0  0  0  0  0  0  0
   10.6262  -18.1788   23.0072 C   0  0  0  0  0  0  0  0  0  0  0  0
   10.8153  -16.7299   23.4026 C   0  0  2  0  0  0  0  0  0  0  0  0
   10.6798  -15.8336   22.2907 N   0  0  0  0  0  0  0  0  0  0  0  0
   12.0853  -16.5412   24.1398 C   0  0  0  0  0  0  0  0  0  0  0  0
   12.9513  -15.7799   23.6407 O   0  0  0  0  0  0  0  0  0  0  0  0
   12.3821  -17.1516   25.3489 O   0  0  0  0  0  0  0  0  0  0  0  0
  2  1  1  0
  3  2  2  0
  4  2  1  0
  4  5  1  0
  5  6  1  6
  7 14  1  0
  7  5  1  0
  8  7  2  0
 10  9  1  0
 11 10  1  0
 11 12  1  1
 13 14  1  6
 13 11  1  0
 15 13  1  0
 16 15  2  0
 17 18  1  0
 19 18  1  6
 19 20  1  0
 20 15  1  0
 21 19  1  0
 21 23  1  0
 22 21  2  0
M  END
$$$$
