NIS.pdb
     RDKit          3D

 23 22  0  0  1  0  0  0  0  0999 V2000
    7.2418  -18.2092   19.1602 N   0  0  0  0  0  0  0  0  0  0  0  0
    6.9507  -16.9426   19.7408 C   0  0  0  0  0  0  0  0  0  0  0  0
    6.5072  -16.0519   18.9695 O   0  0  0  0  0  0  0  0  0  0  0  0
    7.1595  -16.6720   21.2047 C   0  0  0  0  0  0  0  0  0  0  0  0
    7.8014  -15.3324   21.3199 C   0  0  2  0  0  0  0  0  0  0  0  0
    8.7532  -15.1396   20.2496 N   0  0  0  0  0  0  0  0  0  0  0  0
    8.3368  -15.0100   22.6426 C   0  0  0  0  0  0  0  0  0  0  0  0
    9.6033  -15.0202   22.7617 O   0  0  0  0  0  0  0  0  0  0  0  0
    5.9706  -11.6034   26.4198 C   0  0  0  0  0  0  0  0  0  0  0  0
    6.9411  -12.3281   25.5531 C   0  0  0  0  0  0  0  0  0  0  0  0
    7.3601  -13.6799   26.0454 C   0  0  2  0  0  0  0  0  0  0  0  0
    8.2592  -13.4087   27.2605 C   0  0  0  0  0  0  0  0  0  0  0  0
    8.1877  -14.4624   25.0502 C   0  0  2  0  0  0  0  0  0  0  0  0
    7.5545  -14.6890   23.7950 N   0  0  0  0  0  0  0  0  0  0  0  0
    8.4301  -15.8023   25.6948 C   0  0  0  0  0  0  0  0  0  0  0  0
    7.4538  -16.4881   26.1084 O   0  0  0  0  0  0  0  0  0  0  0  0
   12.1487  -17.6168   25.2370 O   0  0  0  0  0  0  0  0  0  0  0  0
   10.9883  -18.3595   25.4197 C   0  0  0  0  0  0  0  0  0  0  0  0
   10.0703  -17.5797   26.3365 C   0  0  2  0  0  0  0  0  0  0  0  0
    9.7627  -16.2743   25.8272 N   0  0  0  0  0  0  0  0  0  0  0  0
   10.6017  -17.5457   27.7180 C   0  0  0  0  0  0  0  0  0  0  0  0
   10.8440  -18.6402   28.2855 O   0  0  0  0  0  0  0  0  0  0  0  0
   10.8504  -16.3812   28.4283 O   0  0  0  0  0  0  0  0  0  0  0  0
  2  1  1  0
  3  2  2  0
  4  2  1  0
  4  5  1  0
  5  6  1  6
  7 14  1  0
  7  5  1  0
  8  7  2  0
 10  9  1  0
 11 10  1  0
 11 12  1  1
 13 14  1  6
 13 11  1  0
 15 13  1  0
 16 15  2  0
 17 18  1  0
 19 18  1  6
 19 20  1  0
 20 15  1  0
 21 19  1  0
 21 23  1  0
 22 21  2  0
M  END
$$$$
