NIS.pdb
     RDKit          3D

 23 22  0  0  1  0  0  0  0  0999 V2000
    5.6651  -17.2873   19.3961 N   0  0  0  0  0  0  0  0  0  0  0  0
    7.0816  -17.1672   19.4687 C   0  0  0  0  0  0  0  0  0  0  0  0
    7.7150  -17.2423   18.3832 O   0  0  0  0  0  0  0  0  0  0  0  0
    7.7962  -16.9601   20.7749 C   0  0  0  0  0  0  0  0  0  0  0  0
    7.8412  -15.4924   21.0269 C   0  0  2  0  0  0  0  0  0  0  0  0
    8.5147  -14.8183   19.9403 N   0  0  0  0  0  0  0  0  0  0  0  0
    8.3307  -15.1022   22.3491 C   0  0  0  0  0  0  0  0  0  0  0  0
    9.5920  -15.1129   22.5148 O   0  0  0  0  0  0  0  0  0  0  0  0
    5.6899  -11.6240   25.9894 C   0  0  0  0  0  0  0  0  0  0  0  0
    6.7125  -12.3046   25.1472 C   0  0  0  0  0  0  0  0  0  0  0  0
    7.1843  -13.6334   25.6541 C   0  0  2  0  0  0  0  0  0  0  0  0
    8.0057  -13.3191   26.9131 C   0  0  0  0  0  0  0  0  0  0  0  0
    8.1034  -14.3602   24.6978 C   0  0  2  0  0  0  0  0  0  0  0  0
    7.5095  -14.7153   23.4532 N   0  0  0  0  0  0  0  0  0  0  0  0
    8.4933  -15.6324   25.4042 C   0  0  0  0  0  0  0  0  0  0  0  0
    7.6024  -16.4525   25.7621 O   0  0  0  0  0  0  0  0  0  0  0  0
   12.0904  -18.7146   26.1765 O   0  0  0  0  0  0  0  0  0  0  0  0
   11.6310  -17.5865   25.5073 C   0  0  0  0  0  0  0  0  0  0  0  0
   10.3353  -17.1496   26.1568 C   0  0  2  0  0  0  0  0  0  0  0  0
    9.8667  -15.8891   25.6573 N   0  0  0  0  0  0  0  0  0  0  0  0
   10.4447  -17.1766   27.6330 C   0  0  0  0  0  0  0  0  0  0  0  0
   10.4640  -16.0792   28.2447 O   0  0  0  0  0  0  0  0  0  0  0  0
   10.5275  -18.3374   28.3868 O   0  0  0  0  0  0  0  0  0  0  0  0
  2  1  1  0
  3  2  2  0
  4  2  1  0
  4  5  1  0
  5  6  1  6
  7 14  1  0
  7  5  1  0
  8  7  2  0
 10  9  1  0
 11 10  1  0
 11 12  1  1
 13 14  1  6
 13 11  1  0
 15 13  1  0
 16 15  2  0
 17 18  1  0
 19 18  1  6
 19 20  1  0
 20 15  1  0
 21 19  1  0
 21 23  1  0
 22 21  2  0
M  END
$$$$
