NIS.pdb
     RDKit          3D

 23 22  0  0  1  0  0  0  0  0999 V2000
    7.7136  -21.8647   17.6831 N   0  0  0  0  0  0  0  0  0  0  0  0
    7.4865  -20.4683   17.8405 C   0  0  0  0  0  0  0  0  0  0  0  0
    6.6734  -19.9310   17.0435 O   0  0  0  0  0  0  0  0  0  0  0  0
    8.1800  -19.6649   18.9052 C   0  0  0  0  0  0  0  0  0  0  0  0
    8.6790  -18.4166   18.2630 C   0  0  2  0  0  0  0  0  0  0  0  0
    9.6446  -18.7337   17.2355 N   0  0  0  0  0  0  0  0  0  0  0  0
    9.1309  -17.3777   19.1886 C   0  0  0  0  0  0  0  0  0  0  0  0
   10.3846  -17.3025   19.3913 O   0  0  0  0  0  0  0  0  0  0  0  0
    6.9144  -12.2408   20.0161 C   0  0  0  0  0  0  0  0  0  0  0  0
    7.8201  -13.4094   19.8365 C   0  0  0  0  0  0  0  0  0  0  0  0
    7.9788  -14.2921   21.0369 C   0  0  2  0  0  0  0  0  0  0  0  0
    8.7140  -13.4345   22.0771 C   0  0  0  0  0  0  0  0  0  0  0  0
    8.8353  -15.5135   20.7873 C   0  0  2  0  0  0  0  0  0  0  0  0
    8.2814  -16.4541   19.8728 N   0  0  0  0  0  0  0  0  0  0  0  0
    8.9671  -16.1920   22.1259 C   0  0  0  0  0  0  0  0  0  0  0  0
    7.9408  -16.6429   22.7072 O   0  0  0  0  0  0  0  0  0  0  0  0
   12.0496  -18.4474   22.9272 O   0  0  0  0  0  0  0  0  0  0  0  0
   10.9018  -18.4594   23.7107 C   0  0  0  0  0  0  0  0  0  0  0  0
   10.4746  -17.0255   23.9408 C   0  0  2  0  0  0  0  0  0  0  0  0
   10.2532  -16.3135   22.7153 N   0  0  0  0  0  0  0  0  0  0  0  0
   11.4160  -16.3289   24.8467 C   0  0  0  0  0  0  0  0  0  0  0  0
   11.9929  -15.2973   24.4204 O   0  0  0  0  0  0  0  0  0  0  0  0
   11.7033  -16.7419   26.1388 O   0  0  0  0  0  0  0  0  0  0  0  0
  2  1  1  0
  3  2  2  0
  4  2  1  0
  4  5  1  0
  5  6  1  6
  7 14  1  0
  7  5  1  0
  8  7  2  0
 10  9  1  0
 11 10  1  0
 11 12  1  1
 13 14  1  6
 13 11  1  0
 15 13  1  0
 16 15  2  0
 17 18  1  0
 19 18  1  6
 19 20  1  0
 20 15  1  0
 21 19  1  0
 21 23  1  0
 22 21  2  0
M  END
$$$$
