NIS.pdb
     RDKit          3D

 23 22  0  0  1  0  0  0  0  0999 V2000
    7.2436  -13.6132   18.2432 N   0  0  0  0  0  0  0  0  0  0  0  0
    7.3554  -14.9313   18.7688 C   0  0  0  0  0  0  0  0  0  0  0  0
    7.3434  -15.8775   17.9383 O   0  0  0  0  0  0  0  0  0  0  0  0
    7.4824  -15.1912   20.2439 C   0  0  0  0  0  0  0  0  0  0  0  0
    7.5623  -13.8667   20.9214 C   0  0  2  0  0  0  0  0  0  0  0  0
    8.2247  -12.9069   20.0677 N   0  0  0  0  0  0  0  0  0  0  0  0
    8.0890  -13.8958   22.2859 C   0  0  0  0  0  0  0  0  0  0  0  0
    9.3551  -13.8722   22.4077 O   0  0  0  0  0  0  0  0  0  0  0  0
    5.9250  -11.2546   26.5989 C   0  0  0  0  0  0  0  0  0  0  0  0
    6.8518  -11.8918   25.6226 C   0  0  0  0  0  0  0  0  0  0  0  0
    7.1519  -13.3390   25.8691 C   0  0  2  0  0  0  0  0  0  0  0  0
    8.0515  -13.3607   27.1135 C   0  0  0  0  0  0  0  0  0  0  0  0
    7.9282  -14.0002   24.7520 C   0  0  2  0  0  0  0  0  0  0  0  0
    7.2988  -13.9481   23.4758 N   0  0  0  0  0  0  0  0  0  0  0  0
    8.0494  -15.4483   25.1496 C   0  0  0  0  0  0  0  0  0  0  0  0
    7.0122  -16.1600   25.2599 O   0  0  0  0  0  0  0  0  0  0  0  0
   11.5023  -17.4534   24.4646 O   0  0  0  0  0  0  0  0  0  0  0  0
   10.3148  -18.1338   24.7067 C   0  0  0  0  0  0  0  0  0  0  0  0
    9.5383  -17.3660   25.7550 C   0  0  2  0  0  0  0  0  0  0  0  0
    9.3379  -15.9919   25.3952 N   0  0  0  0  0  0  0  0  0  0  0  0
   10.1512  -17.5249   27.0934 C   0  0  0  0  0  0  0  0  0  0  0  0
   10.5263  -16.4897   27.6986 O   0  0  0  0  0  0  0  0  0  0  0  0
   10.3385  -18.7453   27.7243 O   0  0  0  0  0  0  0  0  0  0  0  0
  2  1  1  0
  3  2  2  0
  4  2  1  0
  4  5  1  0
  5  6  1  6
  7 14  1  0
  7  5  1  0
  8  7  2  0
 10  9  1  0
 11 10  1  0
 11 12  1  1
 13 14  1  6
 13 11  1  0
 15 13  1  0
 16 15  2  0
 17 18  1  0
 19 18  1  6
 19 20  1  0
 20 15  1  0
 21 19  1  0
 21 23  1  0
 22 21  2  0
M  END
$$$$
