NIS.pdb
     RDKit          3D

 23 22  0  0  1  0  0  0  0  0999 V2000
    9.0187  -16.9392   18.8432 N   0  0  0  0  0  0  0  0  0  0  0  0
    7.9365  -16.3304   19.5391 C   0  0  0  0  0  0  0  0  0  0  0  0
    6.7746  -16.6614   19.1848 O   0  0  0  0  0  0  0  0  0  0  0  0
    8.1604  -15.3385   20.6462 C   0  0  0  0  0  0  0  0  0  0  0  0
    7.9116  -16.0474   21.9327 C   0  0  2  0  0  0  0  0  0  0  0  0
    6.5445  -16.5125   21.9917 N   0  0  0  0  0  0  0  0  0  0  0  0
    8.3355  -15.3267   23.1332 C   0  0  0  0  0  0  0  0  0  0  0  0
    9.5274  -14.8821   23.1387 O   0  0  0  0  0  0  0  0  0  0  0  0
    7.4838  -11.6014   24.8633 C   0  0  0  0  0  0  0  0  0  0  0  0
    6.5139  -12.5221   25.5189 C   0  0  0  0  0  0  0  0  0  0  0  0
    7.1201  -13.6684   26.2698 C   0  0  2  0  0  0  0  0  0  0  0  0
    7.9317  -13.0265   27.4045 C   0  0  0  0  0  0  0  0  0  0  0  0
    8.0860  -14.4933   25.4486 C   0  0  2  0  0  0  0  0  0  0  0  0
    7.5223  -15.0882   24.2841 N   0  0  0  0  0  0  0  0  0  0  0  0
    8.5426  -15.6025   26.3602 C   0  0  0  0  0  0  0  0  0  0  0  0
    7.6907  -16.3071   26.9704 O   0  0  0  0  0  0  0  0  0  0  0  0
   12.5100  -16.8792   26.1738 O   0  0  0  0  0  0  0  0  0  0  0  0
   11.4859  -17.7370   26.5570 C   0  0  0  0  0  0  0  0  0  0  0  0
   10.4466  -16.9258   27.3008 C   0  0  2  0  0  0  0  0  0  0  0  0
    9.9338  -15.8381   26.5186 N   0  0  0  0  0  0  0  0  0  0  0  0
   10.9557  -16.4921   28.6217 C   0  0  0  0  0  0  0  0  0  0  0  0
   10.9617  -15.2622   28.8784 O   0  0  0  0  0  0  0  0  0  0  0  0
   11.4275  -17.3575   29.5969 O   0  0  0  0  0  0  0  0  0  0  0  0
  2  1  1  0
  3  2  2  0
  4  2  1  0
  4  5  1  0
  5  6  1  1
  7 14  1  0
  7  5  1  0
  8  7  2  0
 10  9  1  0
 11 10  1  0
 11 12  1  1
 13 14  1  6
 13 11  1  0
 15 13  1  0
 16 15  2  0
 17 18  1  0
 19 18  1  6
 19 20  1  0
 20 15  1  0
 21 19  1  0
 21 23  1  0
 22 21  2  0
M  END
$$$$
