NIS.pdb
     RDKit          3D

 23 22  0  0  1  0  0  0  0  0999 V2000
    7.5862  -12.5858   17.9642 N   0  0  0  0  0  0  0  0  0  0  0  0
    8.0395  -13.6320   18.8163 C   0  0  0  0  0  0  0  0  0  0  0  0
    8.0643  -14.7923   18.3283 O   0  0  0  0  0  0  0  0  0  0  0  0
    8.4704  -13.3735   20.2330 C   0  0  0  0  0  0  0  0  0  0  0  0
    7.9295  -14.4814   21.0694 C   0  0  2  0  0  0  0  0  0  0  0  0
    6.4944  -14.5663   20.9206 N   0  0  0  0  0  0  0  0  0  0  0  0
    8.3731  -14.4833   22.4634 C   0  0  0  0  0  0  0  0  0  0  0  0
    9.6299  -14.4862   22.6606 O   0  0  0  0  0  0  0  0  0  0  0  0
    5.8868  -11.5708   26.3820 C   0  0  0  0  0  0  0  0  0  0  0  0
    6.8862  -12.2664   25.5243 C   0  0  0  0  0  0  0  0  0  0  0  0
    7.2089  -13.6743   25.9230 C   0  0  2  0  0  0  0  0  0  0  0  0
    8.0388  -13.5517   27.2093 C   0  0  0  0  0  0  0  0  0  0  0  0
    8.0620  -14.4135   24.9163 C   0  0  2  0  0  0  0  0  0  0  0  0
    7.5123  -14.4823   23.6045 N   0  0  0  0  0  0  0  0  0  0  0  0
    8.1779  -15.8199   25.4439 C   0  0  0  0  0  0  0  0  0  0  0  0
    7.1361  -16.5025   25.6515 O   0  0  0  0  0  0  0  0  0  0  0  0
   11.5726  -17.9412   24.8868 O   0  0  0  0  0  0  0  0  0  0  0  0
   10.4017  -18.5840   25.2705 C   0  0  0  0  0  0  0  0  0  0  0  0
    9.6597  -17.6771   26.2288 C   0  0  2  0  0  0  0  0  0  0  0  0
    9.4669  -16.3574   25.7004 N   0  0  0  0  0  0  0  0  0  0  0  0
   10.3027  -17.6725   27.5625 C   0  0  0  0  0  0  0  0  0  0  0  0
   10.7418  -16.5810   28.0034 O   0  0  0  0  0  0  0  0  0  0  0  0
   10.4521  -18.7976   28.3589 O   0  0  0  0  0  0  0  0  0  0  0  0
  2  1  1  0
  3  2  2  0
  4  2  1  0
  4  5  1  0
  5  6  1  1
  7 14  1  0
  7  5  1  0
  8  7  2  0
 10  9  1  0
 11 10  1  0
 11 12  1  1
 13 14  1  6
 13 11  1  0
 15 13  1  0
 16 15  2  0
 17 18  1  0
 19 18  1  6
 19 20  1  0
 20 15  1  0
 21 19  1  0
 21 23  1  0
 22 21  2  0
M  END
$$$$
