NIS.pdb
     RDKit          3D

 23 22  0  0  1  0  0  0  0  0999 V2000
    5.4079  -16.9450   19.5469 N   0  0  0  0  0  0  0  0  0  0  0  0
    6.8306  -16.9067   19.5229 C   0  0  0  0  0  0  0  0  0  0  0  0
    7.3811  -16.9299   18.3909 O   0  0  0  0  0  0  0  0  0  0  0  0
    7.6458  -16.8413   20.7843 C   0  0  0  0  0  0  0  0  0  0  0  0
    7.8395  -15.4009   21.1118 C   0  0  2  0  0  0  0  0  0  0  0  0
    8.6209  -14.7541   20.0823 N   0  0  0  0  0  0  0  0  0  0  0  0
    8.3198  -15.1294   22.4668 C   0  0  0  0  0  0  0  0  0  0  0  0
    9.5687  -15.2671   22.6660 O   0  0  0  0  0  0  0  0  0  0  0  0
    5.9480  -11.6131   26.2735 C   0  0  0  0  0  0  0  0  0  0  0  0
    6.8706  -12.3662   25.3791 C   0  0  0  0  0  0  0  0  0  0  0  0
    7.2081  -13.7565   25.8247 C   0  0  2  0  0  0  0  0  0  0  0  0
    8.0213  -13.5827   27.1157 C   0  0  0  0  0  0  0  0  0  0  0  0
    8.0829  -14.5140   24.8508 C   0  0  2  0  0  0  0  0  0  0  0  0
    7.5024  -14.7267   23.5680 N   0  0  0  0  0  0  0  0  0  0  0  0
    8.3144  -15.8617   25.4832 C   0  0  0  0  0  0  0  0  0  0  0  0
    7.3297  -16.5783   25.8168 O   0  0  0  0  0  0  0  0  0  0  0  0
   11.9558  -17.6463   25.0551 O   0  0  0  0  0  0  0  0  0  0  0  0
   10.8556  -18.4201   25.4051 C   0  0  0  0  0  0  0  0  0  0  0  0
    9.9492  -17.5804   26.2797 C   0  0  2  0  0  0  0  0  0  0  0  0
    9.6463  -16.3059   25.6950 N   0  0  0  0  0  0  0  0  0  0  0  0
   10.4909  -17.4671   27.6529 C   0  0  0  0  0  0  0  0  0  0  0  0
   10.7084  -16.3170   28.1098 O   0  0  0  0  0  0  0  0  0  0  0  0
   10.7746  -18.5507   28.4701 O   0  0  0  0  0  0  0  0  0  0  0  0
  2  1  1  0
  3  2  2  0
  4  2  1  0
  4  5  1  0
  5  6  1  6
  7 14  1  0
  7  5  1  0
  8  7  2  0
 10  9  1  0
 11 10  1  0
 11 12  1  1
 13 14  1  6
 13 11  1  0
 15 13  1  0
 16 15  2  0
 17 18  1  0
 19 18  1  6
 19 20  1  0
 20 15  1  0
 21 19  1  0
 21 23  1  0
 22 21  2  0
M  END
$$$$
