NIS.pdb
     RDKit          3D

 23 22  0  0  1  0  0  0  0  0999 V2000
    5.4492  -17.3141   19.6350 N   0  0  0  0  0  0  0  0  0  0  0  0
    6.7554  -16.7483   19.6383 C   0  0  0  0  0  0  0  0  0  0  0  0
    7.2356  -16.4200   18.5217 O   0  0  0  0  0  0  0  0  0  0  0  0
    7.5322  -16.5482   20.9096 C   0  0  0  0  0  0  0  0  0  0  0  0
    7.6398  -15.0796   21.1360 C   0  0  2  0  0  0  0  0  0  0  0  0
    8.3505  -14.4554   20.0432 N   0  0  0  0  0  0  0  0  0  0  0  0
    8.1361  -14.6874   22.4551 C   0  0  0  0  0  0  0  0  0  0  0  0
    9.3956  -14.7369   22.6269 O   0  0  0  0  0  0  0  0  0  0  0  0
    5.6052  -11.1853   26.1137 C   0  0  0  0  0  0  0  0  0  0  0  0
    6.6169  -11.8958   25.2831 C   0  0  0  0  0  0  0  0  0  0  0  0
    7.0326  -13.2442   25.7874 C   0  0  2  0  0  0  0  0  0  0  0  0
    7.8781  -12.9665   27.0389 C   0  0  0  0  0  0  0  0  0  0  0  0
    7.9097  -14.0124   24.8239 C   0  0  2  0  0  0  0  0  0  0  0  0
    7.3233  -14.2589   23.5499 N   0  0  0  0  0  0  0  0  0  0  0  0
    8.1607  -15.3435   25.4833 C   0  0  0  0  0  0  0  0  0  0  0  0
    7.2134  -16.1670   25.6205 O   0  0  0  0  0  0  0  0  0  0  0  0
   11.7579  -17.0727   25.1584 O   0  0  0  0  0  0  0  0  0  0  0  0
   10.6090  -17.7769   25.4984 C   0  0  0  0  0  0  0  0  0  0  0  0
    9.8148  -16.9371   26.4759 C   0  0  2  0  0  0  0  0  0  0  0  0
    9.4686  -15.6512   25.9426 N   0  0  0  0  0  0  0  0  0  0  0  0
   10.5036  -16.8490   27.7836 C   0  0  0  0  0  0  0  0  0  0  0  0
   10.7924  -15.7083   28.2241 O   0  0  0  0  0  0  0  0  0  0  0  0
   10.8516  -17.9466   28.5560 O   0  0  0  0  0  0  0  0  0  0  0  0
  2  1  1  0
  3  2  2  0
  4  2  1  0
  4  5  1  0
  5  6  1  6
  7 14  1  0
  7  5  1  0
  8  7  2  0
 10  9  1  0
 11 10  1  0
 11 12  1  1
 13 14  1  6
 13 11  1  0
 15 13  1  0
 16 15  2  0
 17 18  1  0
 19 18  1  6
 19 20  1  0
 20 15  1  0
 21 19  1  0
 21 23  1  0
 22 21  2  0
M  END
$$$$
