NIS.pdb
     RDKit          3D

 23 22  0  0  1  0  0  0  0  0999 V2000
    7.6375  -12.8032   17.8483 N   0  0  0  0  0  0  0  0  0  0  0  0
    8.1700  -13.7270   18.7913 C   0  0  0  0  0  0  0  0  0  0  0  0
    8.4467  -14.8788   18.3649 O   0  0  0  0  0  0  0  0  0  0  0  0
    8.3951  -13.3541   20.2300 C   0  0  0  0  0  0  0  0  0  0  0  0
    8.1136  -14.5654   21.0505 C   0  0  2  0  0  0  0  0  0  0  0  0
    6.7372  -14.9738   20.8843 N   0  0  0  0  0  0  0  0  0  0  0  0
    8.5329  -14.4814   22.4495 C   0  0  0  0  0  0  0  0  0  0  0  0
    9.7834  -14.3896   22.6641 O   0  0  0  0  0  0  0  0  0  0  0  0
    5.7145  -11.6990   26.1865 C   0  0  0  0  0  0  0  0  0  0  0  0
    6.8368  -12.3038   25.4165 C   0  0  0  0  0  0  0  0  0  0  0  0
    7.2755  -13.6610   25.8755 C   0  0  2  0  0  0  0  0  0  0  0  0
    8.0999  -13.4125   27.1471 C   0  0  0  0  0  0  0  0  0  0  0  0
    8.1805  -14.3738   24.8954 C   0  0  2  0  0  0  0  0  0  0  0  0
    7.6551  -14.4948   23.5774 N   0  0  0  0  0  0  0  0  0  0  0  0
    8.3599  -15.7625   25.4513 C   0  0  0  0  0  0  0  0  0  0  0  0
    7.3483  -16.4634   25.7337 O   0  0  0  0  0  0  0  0  0  0  0  0
   12.0263  -17.6155   25.1364 O   0  0  0  0  0  0  0  0  0  0  0  0
   10.8821  -18.3758   25.3465 C   0  0  0  0  0  0  0  0  0  0  0  0
    9.9279  -17.5645   26.1966 C   0  0  2  0  0  0  0  0  0  0  0  0
    9.6739  -16.2629   25.6496 N   0  0  0  0  0  0  0  0  0  0  0  0
   10.3804  -17.5161   27.6055 C   0  0  0  0  0  0  0  0  0  0  0  0
   10.5582  -18.6047   28.2072 O   0  0  0  0  0  0  0  0  0  0  0  0
   10.6215  -16.3443   28.3063 O   0  0  0  0  0  0  0  0  0  0  0  0
  2  1  1  0
  3  2  2  0
  4  2  1  0
  4  5  1  0
  5  6  1  1
  7 14  1  0
  7  5  1  0
  8  7  2  0
 10  9  1  0
 11 10  1  0
 11 12  1  1
 13 14  1  6
 13 11  1  0
 15 13  1  0
 16 15  2  0
 17 18  1  0
 19 18  1  6
 19 20  1  0
 20 15  1  0
 21 19  1  0
 21 23  1  0
 22 21  2  0
M  END
$$$$
