NIS.pdb
     RDKit          3D

 23 22  0  0  1  0  0  0  0  0999 V2000
    5.7015  -17.4662   19.6801 N   0  0  0  0  0  0  0  0  0  0  0  0
    6.9219  -16.7568   19.4976 C   0  0  0  0  0  0  0  0  0  0  0  0
    7.1748  -16.3506   18.3330 O   0  0  0  0  0  0  0  0  0  0  0  0
    7.8702  -16.4996   20.6353 C   0  0  0  0  0  0  0  0  0  0  0  0
    7.6142  -15.1144   21.1203 C   0  0  2  0  0  0  0  0  0  0  0  0
    7.9384  -14.1550   20.0892 N   0  0  0  0  0  0  0  0  0  0  0  0
    8.1986  -14.7924   22.4223 C   0  0  0  0  0  0  0  0  0  0  0  0
    9.4689  -14.7790   22.4881 O   0  0  0  0  0  0  0  0  0  0  0  0
    5.9005  -11.5262   26.4219 C   0  0  0  0  0  0  0  0  0  0  0  0
    6.8507  -12.1852   25.4833 C   0  0  0  0  0  0  0  0  0  0  0  0
    7.3167  -13.5498   25.8907 C   0  0  2  0  0  0  0  0  0  0  0  0
    8.2366  -13.3207   27.0988 C   0  0  0  0  0  0  0  0  0  0  0  0
    8.1411  -14.2535   24.8357 C   0  0  2  0  0  0  0  0  0  0  0  0
    7.4594  -14.4958   23.6091 N   0  0  0  0  0  0  0  0  0  0  0  0
    8.5054  -15.5873   25.4341 C   0  0  0  0  0  0  0  0  0  0  0  0
    7.5976  -16.3586   25.8530 O   0  0  0  0  0  0  0  0  0  0  0  0
   11.4347  -17.6357   24.0757 O   0  0  0  0  0  0  0  0  0  0  0  0
   11.5728  -17.7247   25.4558 C   0  0  0  0  0  0  0  0  0  0  0  0
   10.3026  -17.1999   26.0903 C   0  0  2  0  0  0  0  0  0  0  0  0
    9.8739  -15.9565   25.5173 N   0  0  0  0  0  0  0  0  0  0  0  0
   10.4303  -17.1383   27.5641 C   0  0  0  0  0  0  0  0  0  0  0  0
   10.2772  -16.0244   28.1249 O   0  0  0  0  0  0  0  0  0  0  0  0
   10.7087  -18.2330   28.3681 O   0  0  0  0  0  0  0  0  0  0  0  0
  2  1  1  0
  3  2  2  0
  4  2  1  0
  4  5  1  0
  5  6  1  6
  7 14  1  0
  7  5  1  0
  8  7  2  0
 10  9  1  0
 11 10  1  0
 11 12  1  1
 13 14  1  6
 13 11  1  0
 15 13  1  0
 16 15  2  0
 17 18  1  0
 19 18  1  6
 19 20  1  0
 20 15  1  0
 21 19  1  0
 21 23  1  0
 22 21  2  0
M  END
$$$$
