NIS.pdb
     RDKit          3D

 23 22  0  0  1  0  0  0  0  0999 V2000
    7.7736  -16.8571   18.9814 N   0  0  0  0  0  0  0  0  0  0  0  0
    8.2629  -15.5213   19.0313 C   0  0  0  0  0  0  0  0  0  0  0  0
    8.4437  -14.9404   17.9290 O   0  0  0  0  0  0  0  0  0  0  0  0
    8.5526  -14.8286   20.3336 C   0  0  0  0  0  0  0  0  0  0  0  0
    8.2830  -15.8066   21.4247 C   0  0  2  0  0  0  0  0  0  0  0  0
    6.9158  -16.2702   21.3547 N   0  0  0  0  0  0  0  0  0  0  0  0
    8.6849  -15.3733   22.7629 C   0  0  0  0  0  0  0  0  0  0  0  0
    9.9205  -15.4770   23.0473 O   0  0  0  0  0  0  0  0  0  0  0  0
    5.8553  -11.7142   25.9863 C   0  0  0  0  0  0  0  0  0  0  0  0
    6.9419  -12.4527   25.2847 C   0  0  0  0  0  0  0  0  0  0  0  0
    7.3660  -13.7383   25.9269 C   0  0  2  0  0  0  0  0  0  0  0  0
    8.1604  -13.3260   27.1748 C   0  0  0  0  0  0  0  0  0  0  0  0
    8.2923  -14.5721   25.0699 C   0  0  2  0  0  0  0  0  0  0  0  0
    7.8057  -14.8496   23.7607 N   0  0  0  0  0  0  0  0  0  0  0  0
    8.4398  -15.8837   25.7965 C   0  0  0  0  0  0  0  0  0  0  0  0
    7.4716  -16.6932   25.8374 O   0  0  0  0  0  0  0  0  0  0  0  0
   11.6260  -18.0927   25.5949 O   0  0  0  0  0  0  0  0  0  0  0  0
   10.4070  -18.5090   26.1166 C   0  0  0  0  0  0  0  0  0  0  0  0
    9.9182  -17.4450   27.0760 C   0  0  2  0  0  0  0  0  0  0  0  0
    9.6746  -16.1888   26.4276 N   0  0  0  0  0  0  0  0  0  0  0  0
   10.8237  -17.3228   28.2411 C   0  0  0  0  0  0  0  0  0  0  0  0
   11.0601  -18.3552   28.9171 O   0  0  0  0  0  0  0  0  0  0  0  0
   11.4297  -16.1398   28.6357 O   0  0  0  0  0  0  0  0  0  0  0  0
  2  1  1  0
  3  2  2  0
  4  2  1  0
  4  5  1  0
  5  6  1  1
  7 14  1  0
  7  5  1  0
  8  7  2  0
 10  9  1  0
 11 10  1  0
 11 12  1  1
 13 14  1  6
 13 11  1  0
 15 13  1  0
 16 15  2  0
 17 18  1  0
 19 18  1  6
 19 20  1  0
 20 15  1  0
 21 19  1  0
 21 23  1  0
 22 21  2  0
M  END
$$$$
