TNQ.pdb
     RDKit          3D

 25 24  0  0  1  0  0  0  0  0999 V2000
    9.2540  -12.7155   19.9245 C   0  0  0  0  0  0  0  0  0  0  0  0
    8.3588  -13.3060   18.8491 C   0  0  1  0  0  0  0  0  0  0  0  0
    8.7144  -12.7251   17.6427 O   0  0  0  0  0  0  0  0  0  0  0  0
    8.5808  -14.7870   18.8465 C   0  0  2  0  0  0  0  0  0  0  0  0
    7.7968  -15.3490   17.7602 N   0  0  0  0  0  0  0  0  0  0  0  0
    8.2229  -15.4542   20.1129 C   0  0  0  0  0  0  0  0  0  0  0  0
    7.0215  -15.5264   20.4994 O   0  0  0  0  0  0  0  0  0  0  0  0
    8.3104  -19.9152   22.3123 N   0  0  0  0  0  0  0  0  0  0  0  0
    9.2073  -19.0996   21.5762 C   0  0  0  0  0  0  0  0  0  0  0  0
    9.4795  -19.3321   20.3563 O   0  0  0  0  0  0  0  0  0  0  0  0
    9.8405  -17.9509   22.2452 C   0  0  0  0  0  0  0  0  0  0  0  0
    8.9896  -16.7082   22.1628 C   0  0  2  0  0  0  0  0  0  0  0  0
    9.2217  -16.0256   20.9176 N   0  0  0  0  0  0  0  0  0  0  0  0
    9.2882  -15.7933   23.2997 C   0  0  0  0  0  0  0  0  0  0  0  0
   10.4625  -15.3280   23.4103 O   0  0  0  0  0  0  0  0  0  0  0  0
    4.8811  -12.6662   26.3226 N   0  0  0  0  0  0  0  0  0  0  0  0
    6.0734  -12.1477   26.8985 C   0  0  0  0  0  0  0  0  0  0  0  0
    5.9951  -11.1840   27.6903 O   0  0  0  0  0  0  0  0  0  0  0  0
    7.4130  -12.7195   26.5860 C   0  0  0  0  0  0  0  0  0  0  0  0
    7.2458  -13.8067   25.5702 C   0  0  0  0  0  0  0  0  0  0  0  0
    8.5433  -14.4891   25.2635 C   0  0  2  0  0  0  0  0  0  0  0  0
    8.2686  -15.4700   24.2161 N   0  0  0  0  0  0  0  0  0  0  0  0
    9.1058  -15.2321   26.3992 C   0  0  0  0  0  0  0  0  0  0  0  0
    9.9067  -14.5924   27.3653 O   0  0  0  0  0  0  0  0  0  0  0  0
    8.9222  -16.4570   26.5915 O   0  0  0  0  0  0  0  0  0  0  0  0
  2  1  1  1
  2  3  1  0
  4  2  1  0
  4  6  1  0
  4  5  1  6
  6  7  2  0
  9  8  1  0
 10  9  2  0
 11  9  1  0
 12 11  1  1
 12 14  1  0
 13 12  1  0
 13  6  1  0
 14 15  2  0
 16 17  1  0
 17 19  1  0
 18 17  2  0
 19 20  1  0
 21 20  1  1
 21 23  1  0
 22 14  1  0
 22 21  1  0
 23 25  2  0
 23 24  1  0
M  END
$$$$
