TNQ.pdb
     RDKit          3D

 25 24  0  0  1  0  0  0  0  0999 V2000
    8.6077  -12.7921   20.1393 C   0  0  0  0  0  0  0  0  0  0  0  0
    7.9427  -13.5544   19.0066 C   0  0  1  0  0  0  0  0  0  0  0  0
    6.9789  -12.7269   18.4540 O   0  0  0  0  0  0  0  0  0  0  0  0
    9.0113  -13.9096   18.0192 C   0  0  2  0  0  0  0  0  0  0  0  0
    8.3637  -14.5038   16.8626 N   0  0  0  0  0  0  0  0  0  0  0  0
   10.0356  -14.8335   18.5431 C   0  0  0  0  0  0  0  0  0  0  0  0
    9.8701  -16.0861   18.5045 O   0  0  0  0  0  0  0  0  0  0  0  0
   14.6830  -15.6505   18.0249 N   0  0  0  0  0  0  0  0  0  0  0  0
   14.2783  -14.3953   18.5464 C   0  0  0  0  0  0  0  0  0  0  0  0
   14.5403  -13.3039   17.9493 O   0  0  0  0  0  0  0  0  0  0  0  0
   13.5333  -14.3564   19.8158 C   0  0  0  0  0  0  0  0  0  0  0  0
   12.2386  -15.1262   19.7362 C   0  0  2  0  0  0  0  0  0  0  0  0
   11.2230  -14.3307   19.0989 N   0  0  0  0  0  0  0  0  0  0  0  0
   11.7827  -15.5256   21.0968 C   0  0  0  0  0  0  0  0  0  0  0  0
   11.6338  -14.6229   21.9748 O   0  0  0  0  0  0  0  0  0  0  0  0
    9.6612  -21.2509   22.3733 N   0  0  0  0  0  0  0  0  0  0  0  0
    8.8181  -20.2190   21.8768 C   0  0  0  0  0  0  0  0  0  0  0  0
    7.7456  -20.5298   21.3154 O   0  0  0  0  0  0  0  0  0  0  0  0
    9.1753  -18.7787   22.0060 C   0  0  0  0  0  0  0  0  0  0  0  0
   10.5512  -18.6757   22.5877 C   0  0  0  0  0  0  0  0  0  0  0  0
   11.0107  -17.2536   22.6874 C   0  0  2  0  0  0  0  0  0  0  0  0
   11.5306  -16.8835   21.3731 N   0  0  0  0  0  0  0  0  0  0  0  0
   12.1052  -17.0497   23.6459 C   0  0  0  0  0  0  0  0  0  0  0  0
   11.8508  -16.8977   25.0229 O   0  0  0  0  0  0  0  0  0  0  0  0
   13.3151  -16.9968   23.3227 O   0  0  0  0  0  0  0  0  0  0  0  0
  2  1  1  1
  2  3  1  0
  4  2  1  0
  4  6  1  0
  4  5  1  6
  6  7  2  0
  9  8  1  0
 10  9  2  0
 11  9  1  0
 12 11  1  1
 12 14  1  0
 13 12  1  0
 13  6  1  0
 14 15  2  0
 16 17  1  0
 17 19  1  0
 18 17  2  0
 19 20  1  0
 21 20  1  6
 21 23  1  0
 22 14  1  0
 22 21  1  0
 23 25  2  0
 23 24  1  0
M  END
$$$$
