TNQ.pdb
     RDKit          3D

 25 24  0  0  1  0  0  0  0  0999 V2000
  -66.5521  -43.0530   51.9903 C   0  0  0  0  0  0  0  0  0  0  0  0
  -67.4426  -42.8433   50.7780 C   0  0  1  0  0  0  0  0  0  0  0  0
  -68.3007  -43.9278   50.6960 O   0  0  0  0  0  0  0  0  0  0  0  0
  -68.1812  -41.5568   50.9833 C   0  0  2  0  0  0  0  0  0  0  0  0
  -68.6702  -41.5421   52.3512 N   0  0  0  0  0  0  0  0  0  0  0  0
  -69.3068  -41.3508   50.0521 C   0  0  0  0  0  0  0  0  0  0  0  0
  -70.4601  -41.8011   50.3075 O   0  0  0  0  0  0  0  0  0  0  0  0
  -68.1714  -39.5765   46.1931 N   0  0  0  0  0  0  0  0  0  0  0  0
  -69.0046  -40.6473   45.7802 C   0  0  0  0  0  0  0  0  0  0  0  0
  -68.8561  -41.2181   44.6539 O   0  0  0  0  0  0  0  0  0  0  0  0
  -70.0716  -41.1105   46.6829 C   0  0  0  0  0  0  0  0  0  0  0  0
  -70.1565  -40.2739   47.9352 C   0  0  2  0  0  0  0  0  0  0  0  0
  -69.1132  -40.6437   48.8544 N   0  0  0  0  0  0  0  0  0  0  0  0
  -71.4842  -40.4435   48.5888 C   0  0  0  0  0  0  0  0  0  0  0  0
  -72.2882  -39.4630   48.5902 O   0  0  0  0  0  0  0  0  0  0  0  0
  -76.2285  -41.9876   45.7766 N   0  0  0  0  0  0  0  0  0  0  0  0
  -75.3584  -42.3911   46.8265 C   0  0  0  0  0  0  0  0  0  0  0  0
  -75.7246  -42.2352   48.0112 O   0  0  0  0  0  0  0  0  0  0  0  0
  -74.0234  -42.9943   46.5560 C   0  0  0  0  0  0  0  0  0  0  0  0
  -72.9695  -42.1164   47.1564 C   0  0  0  0  0  0  0  0  0  0  0  0
  -72.3155  -42.7586   48.3409 C   0  0  2  0  0  0  0  0  0  0  0  0
  -71.8116  -41.6773   49.1843 N   0  0  0  0  0  0  0  0  0  0  0  0
  -71.1599  -43.5983   47.9976 C   0  0  0  0  0  0  0  0  0  0  0  0
  -71.2396  -44.5691   46.9802 O   0  0  0  0  0  0  0  0  0  0  0  0
  -70.0458  -43.5187   48.5664 O   0  0  0  0  0  0  0  0  0  0  0  0
  2  1  1  1
  2  3  1  0
  4  2  1  0
  4  6  1  0
  4  5  1  1
  6  7  2  0
  9  8  1  0
 10  9  2  0
 11  9  1  0
 12 11  1  6
 12 14  1  0
 13 12  1  0
 13  6  1  0
 14 15  2  0
 16 17  1  0
 17 19  1  0
 18 17  2  0
 19 20  1  0
 21 20  1  6
 21 23  1  0
 22 14  1  0
 22 21  1  0
 23 25  2  0
 23 24  1  0
M  END
$$$$
