TNQ.pdb
     RDKit          3D

 25 24  0  0  1  0  0  0  0  0999 V2000
    8.0109  -18.9178   12.5065 C   0  0  0  0  0  0  0  0  0  0  0  0
    7.0365  -17.7564   12.5983 C   0  0  1  0  0  0  0  0  0  0  0  0
    7.0220  -17.1236   11.3660 O   0  0  0  0  0  0  0  0  0  0  0  0
    5.6971  -18.3240   12.9542 C   0  0  2  0  0  0  0  0  0  0  0  0
    4.7128  -17.2681   12.7908 N   0  0  0  0  0  0  0  0  0  0  0  0
    5.6161  -18.8700   14.3225 C   0  0  0  0  0  0  0  0  0  0  0  0
    5.9197  -18.1668   15.3282 O   0  0  0  0  0  0  0  0  0  0  0  0
    4.7856  -22.2561   18.1355 N   0  0  0  0  0  0  0  0  0  0  0  0
    4.2550  -22.8590   16.9665 C   0  0  0  0  0  0  0  0  0  0  0  0
    3.6050  -23.9507   17.0099 O   0  0  0  0  0  0  0  0  0  0  0  0
    4.4635  -22.2005   15.6662 C   0  0  0  0  0  0  0  0  0  0  0  0
    5.0612  -20.8239   15.8181 C   0  0  2  0  0  0  0  0  0  0  0  0
    5.1962  -20.1934   14.5317 N   0  0  0  0  0  0  0  0  0  0  0  0
    6.3930  -20.9019   16.4806 C   0  0  0  0  0  0  0  0  0  0  0  0
    7.4240  -20.6055   15.8046 O   0  0  0  0  0  0  0  0  0  0  0  0
   10.3665  -18.6785   19.6730 N   0  0  0  0  0  0  0  0  0  0  0  0
    9.2429  -18.7374   20.5426 C   0  0  0  0  0  0  0  0  0  0  0  0
    9.3548  -18.3008   21.7083 O   0  0  0  0  0  0  0  0  0  0  0  0
    7.9366  -19.3039   20.1052 C   0  0  0  0  0  0  0  0  0  0  0  0
    8.0580  -19.7454   18.6796 C   0  0  0  0  0  0  0  0  0  0  0  0
    7.7590  -21.2042   18.5189 C   0  0  2  0  0  0  0  0  0  0  0  0
    6.4745  -21.2996   17.8293 N   0  0  0  0  0  0  0  0  0  0  0  0
    7.6082  -21.9224   19.7915 C   0  0  0  0  0  0  0  0  0  0  0  0
    6.3354  -22.2441   20.3019 O   0  0  0  0  0  0  0  0  0  0  0  0
    8.5720  -22.2941   20.5016 O   0  0  0  0  0  0  0  0  0  0  0  0
  2  1  1  6
  2  3  1  0
  4  2  1  0
  4  6  1  0
  4  5  1  1
  6  7  2  0
  9  8  1  0
 10  9  2  0
 11  9  1  0
 12 11  1  6
 12 14  1  0
 13 12  1  0
 13  6  1  0
 14 15  2  0
 16 17  1  0
 17 19  1  0
 18 17  2  0
 19 20  1  0
 21 20  1  1
 21 23  1  0
 22 14  1  0
 22 21  1  0
 23 25  2  0
 23 24  1  0
M  END
$$$$
