TNQ.pdb
     RDKit          3D

 25 24  0  0  1  0  0  0  0  0999 V2000
    7.5876  -14.3007   16.9990 C   0  0  0  0  0  0  0  0  0  0  0  0
    7.6640  -13.6770   18.3817 C   0  0  1  0  0  0  0  0  0  0  0  0
    7.1688  -14.6020   19.2863 O   0  0  0  0  0  0  0  0  0  0  0  0
    9.1012  -13.3480   18.6446 C   0  0  2  0  0  0  0  0  0  0  0  0
    9.5348  -12.4140   17.6199 N   0  0  0  0  0  0  0  0  0  0  0  0
    9.9971  -14.5203   18.6580 C   0  0  0  0  0  0  0  0  0  0  0  0
    9.6776  -15.5965   18.0768 O   0  0  0  0  0  0  0  0  0  0  0  0
   13.9606  -13.5682   17.3919 N   0  0  0  0  0  0  0  0  0  0  0  0
   14.0307  -14.4715   18.4830 C   0  0  0  0  0  0  0  0  0  0  0  0
   14.8246  -14.2861   19.4586 O   0  0  0  0  0  0  0  0  0  0  0  0
   13.1582  -15.6576   18.4850 C   0  0  0  0  0  0  0  0  0  0  0  0
   12.1011  -15.5811   19.5582 C   0  0  2  0  0  0  0  0  0  0  0  0
   11.2319  -14.4587   19.3239 N   0  0  0  0  0  0  0  0  0  0  0  0
   12.7290  -15.4570   20.9032 C   0  0  0  0  0  0  0  0  0  0  0  0
   13.2094  -14.3348   21.2461 O   0  0  0  0  0  0  0  0  0  0  0  0
   11.8468  -19.6848   25.3946 N   0  0  0  0  0  0  0  0  0  0  0  0
   12.7550  -18.7816   26.0121 C   0  0  0  0  0  0  0  0  0  0  0  0
   13.1727  -19.0337   27.1627 O   0  0  0  0  0  0  0  0  0  0  0  0
   13.2234  -17.5440   25.3281 C   0  0  0  0  0  0  0  0  0  0  0  0
   12.7081  -17.5482   23.9223 C   0  0  0  0  0  0  0  0  0  0  0  0
   13.2633  -16.4116   23.1203 C   0  0  2  0  0  0  0  0  0  0  0  0
   12.7739  -16.5788   21.7539 N   0  0  0  0  0  0  0  0  0  0  0  0
   14.7304  -16.4006   23.0437 C   0  0  0  0  0  0  0  0  0  0  0  0
   15.4111  -17.0383   21.9883 O   0  0  0  0  0  0  0  0  0  0  0  0
   15.4690  -15.8395   23.8868 O   0  0  0  0  0  0  0  0  0  0  0  0
  2  1  1  6
  2  3  1  0
  4  2  1  0
  4  6  1  0
  4  5  1  6
  6  7  2  0
  9  8  1  0
 10  9  2  0
 11  9  1  0
 12 11  1  6
 12 14  1  0
 13 12  1  0
 13  6  1  0
 14 15  2  0
 16 17  1  0
 17 19  1  0
 18 17  2  0
 19 20  1  0
 21 20  1  1
 21 23  1  0
 22 14  1  0
 22 21  1  0
 23 25  2  0
 23 24  1  0
M  END
$$$$
