TNQ.pdb
     RDKit          3D

 25 24  0  0  1  0  0  0  0  0999 V2000
    9.2439  -12.4237   20.4752 C   0  0  0  0  0  0  0  0  0  0  0  0
    8.2038  -12.8385   19.4492 C   0  0  1  0  0  0  0  0  0  0  0  0
    8.3009  -11.9654   18.3780 O   0  0  0  0  0  0  0  0  0  0  0  0
    8.5059  -14.2506   19.0523 C   0  0  2  0  0  0  0  0  0  0  0  0
    7.5644  -14.6278   18.0123 N   0  0  0  0  0  0  0  0  0  0  0  0
    8.4328  -15.2195   20.1627 C   0  0  0  0  0  0  0  0  0  0  0  0
    7.3217  -15.5827   20.6439 O   0  0  0  0  0  0  0  0  0  0  0  0
    9.2873  -18.9413   19.0556 N   0  0  0  0  0  0  0  0  0  0  0  0
    9.0341  -18.6985   20.4298 C   0  0  0  0  0  0  0  0  0  0  0  0
    7.9279  -19.0089   20.9740 O   0  0  0  0  0  0  0  0  0  0  0  0
   10.0835  -18.0689   21.2486 C   0  0  0  0  0  0  0  0  0  0  0  0
    9.6575  -16.7218   21.7768 C   0  0  2  0  0  0  0  0  0  0  0  0
    9.6085  -15.7592   20.7085 N   0  0  0  0  0  0  0  0  0  0  0  0
   10.5979  -16.2523   22.8322 C   0  0  0  0  0  0  0  0  0  0  0  0
   11.7344  -15.8142   22.4794 O   0  0  0  0  0  0  0  0  0  0  0  0
    8.8692  -13.8467   28.2000 N   0  0  0  0  0  0  0  0  0  0  0  0
   10.2361  -14.1348   28.4659 C   0  0  0  0  0  0  0  0  0  0  0  0
   10.6983  -13.8879   29.6006 O   0  0  0  0  0  0  0  0  0  0  0  0
   11.1335  -14.7221   27.4321 C   0  0  0  0  0  0  0  0  0  0  0  0
   10.2949  -15.2234   26.2974 C   0  0  0  0  0  0  0  0  0  0  0  0
   11.1297  -15.8235   25.2082 C   0  0  2  0  0  0  0  0  0  0  0  0
   10.2062  -16.3061   24.1841 N   0  0  0  0  0  0  0  0  0  0  0  0
   11.9235  -16.9820   25.6392 C   0  0  0  0  0  0  0  0  0  0  0  0
   13.2123  -16.8218   26.1845 O   0  0  0  0  0  0  0  0  0  0  0  0
   11.5275  -18.1685   25.5578 O   0  0  0  0  0  0  0  0  0  0  0  0
  2  1  1  1
  2  3  1  0
  4  2  1  0
  4  6  1  0
  4  5  1  6
  6  7  2  0
  9  8  1  0
 10  9  2  0
 11  9  1  0
 12 11  1  6
 12 14  1  0
 13 12  1  0
 13  6  1  0
 14 15  2  0
 16 17  1  0
 17 19  1  0
 18 17  2  0
 19 20  1  0
 21 20  1  1
 21 23  1  0
 22 14  1  0
 22 21  1  0
 23 25  2  0
 23 24  1  0
M  END
$$$$
