TNQ.pdb
     RDKit          3D

 25 24  0  0  1  0  0  0  0  0999 V2000
    9.0721  -12.4041   20.3005 C   0  0  0  0  0  0  0  0  0  0  0  0
    8.0059  -12.9464   19.3647 C   0  0  1  0  0  0  0  0  0  0  0  0
    8.0388  -12.1861   18.2070 O   0  0  0  0  0  0  0  0  0  0  0  0
    8.3316  -14.3843   19.1018 C   0  0  2  0  0  0  0  0  0  0  0  0
    7.3488  -14.8947   18.1616 N   0  0  0  0  0  0  0  0  0  0  0  0
    8.3483  -15.2310   20.3100 C   0  0  0  0  0  0  0  0  0  0  0  0
    7.2753  -15.6318   20.8448 O   0  0  0  0  0  0  0  0  0  0  0  0
   10.6791  -19.4970   23.1094 N   0  0  0  0  0  0  0  0  0  0  0  0
   11.1683  -18.1660   23.0863 C   0  0  0  0  0  0  0  0  0  0  0  0
   11.8040  -17.6669   24.0677 O   0  0  0  0  0  0  0  0  0  0  0  0
   10.9327  -17.3396   21.8907 C   0  0  0  0  0  0  0  0  0  0  0  0
    9.7081  -16.4708   22.0353 C   0  0  2  0  0  0  0  0  0  0  0  0
    9.5693  -15.6090   20.8914 N   0  0  0  0  0  0  0  0  0  0  0  0
    9.7928  -15.6492   23.2748 C   0  0  0  0  0  0  0  0  0  0  0  0
   10.5132  -14.6058   23.2619 O   0  0  0  0  0  0  0  0  0  0  0  0
    6.2385  -11.2840   26.6136 N   0  0  0  0  0  0  0  0  0  0  0  0
    6.5029  -12.6623   26.3843 C   0  0  0  0  0  0  0  0  0  0  0  0
    5.5492  -13.4700   26.3795 O   0  0  0  0  0  0  0  0  0  0  0  0
    7.8828  -13.1718   26.1494 C   0  0  0  0  0  0  0  0  0  0  0  0
    7.8093  -14.6376   25.8530 C   0  0  0  0  0  0  0  0  0  0  0  0
    9.1662  -15.2312   25.6296 C   0  0  2  0  0  0  0  0  0  0  0  0
    9.0775  -16.0474   24.4211 N   0  0  0  0  0  0  0  0  0  0  0  0
    9.6081  -16.1240   26.7093 C   0  0  0  0  0  0  0  0  0  0  0  0
   10.2121  -15.6156   27.8757 O   0  0  0  0  0  0  0  0  0  0  0  0
    9.4857  -17.3711   26.6778 O   0  0  0  0  0  0  0  0  0  0  0  0
  2  1  1  1
  2  3  1  0
  4  2  1  0
  4  6  1  0
  4  5  1  6
  6  7  2  0
  9  8  1  0
 10  9  2  0
 11  9  1  0
 12 11  1  6
 12 14  1  0
 13 12  1  0
 13  6  1  0
 14 15  2  0
 16 17  1  0
 17 19  1  0
 18 17  2  0
 19 20  1  0
 21 20  1  1
 21 23  1  0
 22 14  1  0
 22 21  1  0
 23 25  2  0
 23 24  1  0
M  END
$$$$
