TNQ.pdb
     RDKit          3D

 25 24  0  0  1  0  0  0  0  0999 V2000
    9.3722  -19.0949   18.6338 C   0  0  0  0  0  0  0  0  0  0  0  0
    8.8739  -18.2625   19.8023 C   0  0  1  0  0  0  0  0  0  0  0  0
    9.0737  -16.9295   19.4822 O   0  0  0  0  0  0  0  0  0  0  0  0
    7.4235  -18.5832   19.9930 C   0  0  2  0  0  0  0  0  0  0  0  0
    6.7337  -18.2602   18.7560 N   0  0  0  0  0  0  0  0  0  0  0  0
    6.7887  -17.8673   21.1162 C   0  0  0  0  0  0  0  0  0  0  0  0
    5.8885  -17.0023   20.9175 O   0  0  0  0  0  0  0  0  0  0  0  0
    8.1467  -19.5648   24.5678 N   0  0  0  0  0  0  0  0  0  0  0  0
    6.7888  -19.5550   24.9772 C   0  0  0  0  0  0  0  0  0  0  0  0
    6.3242  -20.4211   25.7836 O   0  0  0  0  0  0  0  0  0  0  0  0
    5.8926  -18.5112   24.4525 C   0  0  0  0  0  0  0  0  0  0  0  0
    6.6310  -17.5035   23.6072 C   0  0  2  0  0  0  0  0  0  0  0  0
    7.1785  -18.1382   22.4377 N   0  0  0  0  0  0  0  0  0  0  0  0
    7.7255  -16.8653   24.3904 C   0  0  0  0  0  0  0  0  0  0  0  0
    8.9062  -17.3066   24.2518 O   0  0  0  0  0  0  0  0  0  0  0  0
    5.0262  -11.8994   26.8661 N   0  0  0  0  0  0  0  0  0  0  0  0
    6.3960  -12.1365   27.1653 C   0  0  0  0  0  0  0  0  0  0  0  0
    7.1132  -11.1779   27.5237 O   0  0  0  0  0  0  0  0  0  0  0  0
    7.0013  -13.4939   27.0642 C   0  0  0  0  0  0  0  0  0  0  0  0
    7.8757  -13.5402   25.8496 C   0  0  0  0  0  0  0  0  0  0  0  0
    8.4977  -14.8895   25.6600 C   0  0  2  0  0  0  0  0  0  0  0  0
    7.4257  -15.7973   25.2583 N   0  0  0  0  0  0  0  0  0  0  0  0
    9.0863  -15.4486   26.8844 C   0  0  0  0  0  0  0  0  0  0  0  0
   10.3087  -14.9674   27.3924 O   0  0  0  0  0  0  0  0  0  0  0  0
    8.5622  -16.3703   27.5529 O   0  0  0  0  0  0  0  0  0  0  0  0
  2  1  1  6
  2  3  1  0
  4  2  1  0
  4  6  1  0
  4  5  1  6
  6  7  2  0
  9  8  1  0
 10  9  2  0
 11  9  1  0
 12 11  1  1
 12 14  1  0
 13 12  1  0
 13  6  1  0
 14 15  2  0
 16 17  1  0
 17 19  1  0
 18 17  2  0
 19 20  1  0
 21 20  1  1
 21 23  1  0
 22 14  1  0
 22 21  1  0
 23 25  2  0
 23 24  1  0
M  END
$$$$
