TNQ.pdb
     RDKit          3D

 25 24  0  0  1  0  0  0  0  0999 V2000
    8.0107  -12.1463   19.1809 C   0  0  0  0  0  0  0  0  0  0  0  0
    7.3739  -13.2200   20.0459 C   0  0  1  0  0  0  0  0  0  0  0  0
    6.8903  -14.2059   19.2013 O   0  0  0  0  0  0  0  0  0  0  0  0
    8.4347  -13.7395   20.9666 C   0  0  2  0  0  0  0  0  0  0  0  0
    9.4291  -14.4197   20.1549 N   0  0  0  0  0  0  0  0  0  0  0  0
    7.9345  -14.6559   22.0091 C   0  0  0  0  0  0  0  0  0  0  0  0
    7.0092  -14.3095   22.7978 O   0  0  0  0  0  0  0  0  0  0  0  0
    5.7406  -17.2049   21.8015 N   0  0  0  0  0  0  0  0  0  0  0  0
    6.6416  -18.2977   21.7285 C   0  0  0  0  0  0  0  0  0  0  0  0
    6.4083  -19.3131   20.9998 O   0  0  0  0  0  0  0  0  0  0  0  0
    7.8826  -18.2538   22.5197 C   0  0  0  0  0  0  0  0  0  0  0  0
    8.1064  -16.9005   23.1471 C   0  0  2  0  0  0  0  0  0  0  0  0
    8.4842  -15.9410   22.1436 N   0  0  0  0  0  0  0  0  0  0  0  0
    9.1652  -16.9767   24.1919 C   0  0  0  0  0  0  0  0  0  0  0  0
   10.3760  -17.0524   23.8228 O   0  0  0  0  0  0  0  0  0  0  0  0
    9.5816  -13.3055   28.6012 N   0  0  0  0  0  0  0  0  0  0  0  0
   10.3544  -14.3266   29.2194 C   0  0  0  0  0  0  0  0  0  0  0  0
   11.0076  -14.0533   30.2493 O   0  0  0  0  0  0  0  0  0  0  0  0
   10.4084  -15.7125   28.6758 C   0  0  0  0  0  0  0  0  0  0  0  0
    9.4537  -15.8150   27.5269 C   0  0  0  0  0  0  0  0  0  0  0  0
    9.8492  -16.8940   26.5663 C   0  0  2  0  0  0  0  0  0  0  0  0
    8.7997  -16.9635   25.5522 N   0  0  0  0  0  0  0  0  0  0  0  0
    9.9353  -18.2281   27.1754 C   0  0  0  0  0  0  0  0  0  0  0  0
   11.0940  -18.6450   27.8590 O   0  0  0  0  0  0  0  0  0  0  0  0
    9.0115  -19.0744   27.1354 O   0  0  0  0  0  0  0  0  0  0  0  0
  2  1  1  6
  2  3  1  0
  4  2  1  0
  4  6  1  0
  4  5  1  6
  6  7  2  0
  9  8  1  0
 10  9  2  0
 11  9  1  0
 12 11  1  6
 12 14  1  0
 13 12  1  0
 13  6  1  0
 14 15  2  0
 16 17  1  0
 17 19  1  0
 18 17  2  0
 19 20  1  0
 21 20  1  1
 21 23  1  0
 22 14  1  0
 22 21  1  0
 23 25  2  0
 23 24  1  0
M  END
$$$$
