TNQ.pdb
     RDKit          3D

 25 24  0  0  1  0  0  0  0  0999 V2000
   10.7564  -13.9006   20.3887 C   0  0  0  0  0  0  0  0  0  0  0  0
    9.7436  -13.2903   19.4357 C   0  0  1  0  0  0  0  0  0  0  0  0
   10.4062  -12.9894   18.2568 O   0  0  0  0  0  0  0  0  0  0  0  0
    8.6592  -14.3022   19.2281 C   0  0  2  0  0  0  0  0  0  0  0  0
    7.7136  -13.7467   18.2753 N   0  0  0  0  0  0  0  0  0  0  0  0
    7.9497  -14.6898   20.4623 C   0  0  0  0  0  0  0  0  0  0  0  0
    6.8370  -14.1738   20.7686 O   0  0  0  0  0  0  0  0  0  0  0  0
    5.7999  -17.2520   24.3719 N   0  0  0  0  0  0  0  0  0  0  0  0
    6.9318  -17.9169   23.8353 C   0  0  0  0  0  0  0  0  0  0  0  0
    7.4881  -18.8885   24.4377 O   0  0  0  0  0  0  0  0  0  0  0  0
    7.4773  -17.4681   22.5434 C   0  0  0  0  0  0  0  0  0  0  0  0
    7.9500  -16.0367   22.5950 C   0  0  2  0  0  0  0  0  0  0  0  0
    8.5049  -15.6480   21.3256 N   0  0  0  0  0  0  0  0  0  0  0  0
    8.9723  -15.8614   23.6640 C   0  0  0  0  0  0  0  0  0  0  0  0
    9.7326  -16.8377   23.9409 O   0  0  0  0  0  0  0  0  0  0  0  0
    5.3819  -12.1836   25.9837 N   0  0  0  0  0  0  0  0  0  0  0  0
    6.6411  -12.1800   26.6445 C   0  0  0  0  0  0  0  0  0  0  0  0
    6.7067  -11.7669   27.8221 O   0  0  0  0  0  0  0  0  0  0  0  0
    7.8842  -12.6541   25.9744 C   0  0  0  0  0  0  0  0  0  0  0  0
    8.1979  -14.0334   26.4652 C   0  0  0  0  0  0  0  0  0  0  0  0
    9.3831  -14.6205   25.7625 C   0  0  2  0  0  0  0  0  0  0  0  0
    9.0689  -14.6271   24.3357 N   0  0  0  0  0  0  0  0  0  0  0  0
    9.6658  -16.0124   26.1379 C   0  0  0  0  0  0  0  0  0  0  0  0
   10.8704  -16.3660   26.7767 O   0  0  0  0  0  0  0  0  0  0  0  0
    8.8803  -16.9659   25.9254 O   0  0  0  0  0  0  0  0  0  0  0  0
  2  1  1  1
  2  3  1  0
  4  2  1  0
  4  6  1  0
  4  5  1  6
  6  7  2  0
  9  8  1  0
 10  9  2  0
 11  9  1  0
 12 11  1  6
 12 14  1  0
 13 12  1  0
 13  6  1  0
 14 15  2  0
 16 17  1  0
 17 19  1  0
 18 17  2  0
 19 20  1  0
 21 20  1  1
 21 23  1  0
 22 14  1  0
 22 21  1  0
 23 25  2  0
 23 24  1  0
M  END
$$$$
