TNQ.pdb
     RDKit          3D

 25 24  0  0  1  0  0  0  0  0999 V2000
    9.3488  -12.6131   19.5516 C   0  0  0  0  0  0  0  0  0  0  0  0
    8.2446  -13.2953   18.7631 C   0  0  1  0  0  0  0  0  0  0  0  0
    8.1037  -12.6146   17.5647 O   0  0  0  0  0  0  0  0  0  0  0  0
    8.6586  -14.7194   18.5549 C   0  0  2  0  0  0  0  0  0  0  0  0
    7.6855  -15.3373   17.6707 N   0  0  0  0  0  0  0  0  0  0  0  0
    8.7676  -15.5054   19.7988 C   0  0  0  0  0  0  0  0  0  0  0  0
    7.7382  -15.9044   20.4147 O   0  0  0  0  0  0  0  0  0  0  0  0
   10.9513  -19.8363   21.0077 N   0  0  0  0  0  0  0  0  0  0  0  0
   11.3730  -18.6085   20.4365 C   0  0  0  0  0  0  0  0  0  0  0  0
   11.6084  -18.4922   19.1926 O   0  0  0  0  0  0  0  0  0  0  0  0
   11.5424  -17.4356   21.3104 C   0  0  0  0  0  0  0  0  0  0  0  0
   10.2585  -16.6609   21.4735 C   0  0  2  0  0  0  0  0  0  0  0  0
   10.0297  -15.8260   20.3241 N   0  0  0  0  0  0  0  0  0  0  0  0
   10.3069  -15.8205   22.7023 C   0  0  0  0  0  0  0  0  0  0  0  0
   11.1230  -14.8508   22.7411 O   0  0  0  0  0  0  0  0  0  0  0  0
    5.8584  -12.1662   26.5517 N   0  0  0  0  0  0  0  0  0  0  0  0
    6.3067  -13.4855   26.2677 C   0  0  0  0  0  0  0  0  0  0  0  0
    5.4609  -14.3872   26.0851 O   0  0  0  0  0  0  0  0  0  0  0  0
    7.7547  -13.8244   26.1813 C   0  0  0  0  0  0  0  0  0  0  0  0
    7.9663  -14.7315   25.0090 C   0  0  0  0  0  0  0  0  0  0  0  0
    9.3872  -15.1947   24.9101 C   0  0  2  0  0  0  0  0  0  0  0  0
    9.4533  -16.1204   23.7818 N   0  0  0  0  0  0  0  0  0  0  0  0
    9.8532  -15.9352   26.0902 C   0  0  0  0  0  0  0  0  0  0  0  0
   10.1545  -15.2724   27.2960 O   0  0  0  0  0  0  0  0  0  0  0  0
   10.0143  -17.1780   26.1156 O   0  0  0  0  0  0  0  0  0  0  0  0
  2  1  1  1
  2  3  1  0
  4  2  1  0
  4  6  1  0
  4  5  1  6
  6  7  2  0
  9  8  1  0
 10  9  2  0
 11  9  1  0
 12 11  1  6
 12 14  1  0
 13 12  1  0
 13  6  1  0
 14 15  2  0
 16 17  1  0
 17 19  1  0
 18 17  2  0
 19 20  1  0
 21 20  1  1
 21 23  1  0
 22 14  1  0
 22 21  1  0
 23 25  2  0
 23 24  1  0
M  END
$$$$
