TNQ.pdb
     RDKit          3D

 25 24  0  0  1  0  0  0  0  0999 V2000
    5.7407  -18.3781   19.7146 C   0  0  0  0  0  0  0  0  0  0  0  0
    5.6596  -19.5107   18.7061 C   0  0  1  0  0  0  0  0  0  0  0  0
    4.9751  -19.0370   17.5986 O   0  0  0  0  0  0  0  0  0  0  0  0
    7.0630  -19.9111   18.3701 C   0  0  2  0  0  0  0  0  0  0  0  0
    7.0038  -20.8193   17.2378 N   0  0  0  0  0  0  0  0  0  0  0  0
    7.7916  -20.5516   19.4819 C   0  0  0  0  0  0  0  0  0  0  0  0
    7.2209  -21.3773   20.2504 O   0  0  0  0  0  0  0  0  0  0  0  0
   13.6401  -21.2429   21.3634 N   0  0  0  0  0  0  0  0  0  0  0  0
   12.2493  -21.5191   21.3369 C   0  0  0  0  0  0  0  0  0  0  0  0
   11.7124  -22.3416   22.1441 O   0  0  0  0  0  0  0  0  0  0  0  0
   11.4041  -20.8328   20.3457 C   0  0  0  0  0  0  0  0  0  0  0  0
    9.9527  -20.8128   20.7561 C   0  0  2  0  0  0  0  0  0  0  0  0
    9.1446  -20.2510   19.7065 N   0  0  0  0  0  0  0  0  0  0  0  0
    9.7731  -20.0220   22.0054 C   0  0  0  0  0  0  0  0  0  0  0  0
   10.0521  -18.7852   21.9847 O   0  0  0  0  0  0  0  0  0  0  0  0
    6.2866  -21.8794   26.7964 N   0  0  0  0  0  0  0  0  0  0  0  0
    6.7385  -20.6011   27.2252 C   0  0  0  0  0  0  0  0  0  0  0  0
    6.2670  -20.1116   28.2740 O   0  0  0  0  0  0  0  0  0  0  0  0
    7.7573  -19.8282   26.4612 C   0  0  0  0  0  0  0  0  0  0  0  0
    8.0171  -20.5283   25.1634 C   0  0  0  0  0  0  0  0  0  0  0  0
    9.1134  -19.8704   24.3832 C   0  0  2  0  0  0  0  0  0  0  0  0
    9.3021  -20.6608   23.1690 N   0  0  0  0  0  0  0  0  0  0  0  0
   10.4073  -19.8513   25.0787 C   0  0  0  0  0  0  0  0  0  0  0  0
   11.4165  -20.7837   24.7688 O   0  0  0  0  0  0  0  0  0  0  0  0
   10.7054  -19.0280   25.9757 O   0  0  0  0  0  0  0  0  0  0  0  0
  2  1  1  1
  2  3  1  0
  4  2  1  0
  4  6  1  0
  4  5  1  6
  6  7  2  0
  9  8  1  0
 10  9  2  0
 11  9  1  0
 12 11  1  6
 12 14  1  0
 13 12  1  0
 13  6  1  0
 14 15  2  0
 16 17  1  0
 17 19  1  0
 18 17  2  0
 19 20  1  0
 21 20  1  1
 21 23  1  0
 22 14  1  0
 22 21  1  0
 23 25  2  0
 23 24  1  0
M  END
$$$$
