TNQ.pdb
     RDKit          3D

 25 24  0  0  1  0  0  0  0  0999 V2000
   10.3914  -21.7885   13.5454 C   0  0  0  0  0  0  0  0  0  0  0  0
   10.8486  -20.6704   12.6249 C   0  0  1  0  0  0  0  0  0  0  0  0
   10.7371  -21.1284   11.3222 O   0  0  0  0  0  0  0  0  0  0  0  0
    9.9642  -19.4896   12.8828 C   0  0  2  0  0  0  0  0  0  0  0  0
   10.4010  -18.4123   12.0115 N   0  0  0  0  0  0  0  0  0  0  0  0
    9.9674  -19.0264   14.2837 C   0  0  0  0  0  0  0  0  0  0  0  0
   10.9140  -18.3237   14.7399 O   0  0  0  0  0  0  0  0  0  0  0  0
    8.4282  -18.0833   19.0657 N   0  0  0  0  0  0  0  0  0  0  0  0
    7.2791  -18.5791   18.3985 C   0  0  0  0  0  0  0  0  0  0  0  0
    6.1315  -18.5764   18.9455 O   0  0  0  0  0  0  0  0  0  0  0  0
    7.4208  -19.1119   17.0332 C   0  0  0  0  0  0  0  0  0  0  0  0
    8.8454  -19.0411   16.5428 C   0  0  2  0  0  0  0  0  0  0  0  0
    8.9078  -19.3624   15.1416 N   0  0  0  0  0  0  0  0  0  0  0  0
    9.7107  -19.9788   17.3113 C   0  0  0  0  0  0  0  0  0  0  0  0
    9.5906  -21.2235   17.1016 O   0  0  0  0  0  0  0  0  0  0  0  0
   14.4414  -19.6592   15.1423 N   0  0  0  0  0  0  0  0  0  0  0  0
   15.0352  -19.9128   16.4092 C   0  0  0  0  0  0  0  0  0  0  0  0
   16.2774  -19.8371   16.5228 O   0  0  0  0  0  0  0  0  0  0  0  0
   14.2202  -20.2660   17.6052 C   0  0  0  0  0  0  0  0  0  0  0  0
   12.8782  -19.6136   17.4812 C   0  0  0  0  0  0  0  0  0  0  0  0
   11.8918  -20.1746   18.4587 C   0  0  2  0  0  0  0  0  0  0  0  0
   10.6327  -19.4652   18.2441 N   0  0  0  0  0  0  0  0  0  0  0  0
   12.2618  -19.9600   19.8642 C   0  0  0  0  0  0  0  0  0  0  0  0
   11.6147  -18.9856   20.6488 O   0  0  0  0  0  0  0  0  0  0  0  0
   13.1559  -20.6082   20.4572 O   0  0  0  0  0  0  0  0  0  0  0  0
  2  1  1  1
  2  3  1  0
  4  2  1  0
  4  6  1  0
  4  5  1  6
  6  7  2  0
  9  8  1  0
 10  9  2  0
 11  9  1  0
 12 11  1  1
 12 14  1  0
 13 12  1  0
 13  6  1  0
 14 15  2  0
 16 17  1  0
 17 19  1  0
 18 17  2  0
 19 20  1  0
 21 20  1  6
 21 23  1  0
 22 14  1  0
 22 21  1  0
 23 25  2  0
 23 24  1  0
M  END
$$$$
