VFY.pdb
     RDKit          3D

 31 32  0  0  1  0  0  0  0  0999 V2000
    9.2505  -19.2815   19.0367 C   0  0  0  0  0  0  0  0  0  0  0  0
    9.4936  -18.4723   20.2688 C   0  0  1  0  0  0  0  0  0  0  0  0
   10.8353  -18.8886   20.8413 C   0  0  0  0  0  0  0  0  0  0  0  0
    9.5434  -16.9924   20.0285 C   0  0  2  0  0  0  0  0  0  0  0  0
   10.6380  -16.7122   19.1365 N   0  0  0  0  0  0  0  0  0  0  0  0
    9.6852  -16.1950   21.2453 C   0  0  0  0  0  0  0  0  0  0  0  0
   10.7963  -15.7919   21.7024 O   0  0  0  0  0  0  0  0  0  0  0  0
    8.5386  -15.8233   21.9971 N   0  0  0  0  0  0  0  0  0  0  0  0
    8.6618  -14.9398   23.1399 C   0  0  1  0  0  0  0  0  0  0  0  0
    7.2878  -14.3642   23.4182 C   0  0  0  0  0  0  0  0  0  0  0  0
    7.2505  -13.5029   24.5993 C   0  0  0  0  0  0  0  0  0  0  0  0
    7.9204  -12.3034   24.6072 C   0  0  0  0  0  0  0  0  0  0  0  0
    7.9142  -11.4548   25.7018 C   0  0  0  0  0  0  0  0  0  0  0  0
    7.2161  -11.8125   26.8295 C   0  0  0  0  0  0  0  0  0  0  0  0
    6.5372  -13.0052   26.8507 C   0  0  0  0  0  0  0  0  0  0  0  0
    6.5539  -13.8503   25.7368 C   0  0  0  0  0  0  0  0  0  0  0  0
    9.0144  -15.7975   24.3111 C   0  0  0  0  0  0  0  0  0  0  0  0
    8.4937  -16.9340   24.4909 O   0  0  0  0  0  0  0  0  0  0  0  0
   13.5597  -19.0238   31.1944 O   0  0  0  0  0  0  0  0  0  0  0  0
   13.1010  -18.2794   30.1037 C   0  0  0  0  0  0  0  0  0  0  0  0
   13.2623  -18.7798   28.8320 C   0  0  0  0  0  0  0  0  0  0  0  0
   12.8051  -18.0373   27.7488 C   0  0  0  0  0  0  0  0  0  0  0  0
   12.1981  -16.8219   27.9005 C   0  0  0  0  0  0  0  0  0  0  0  0
   11.7284  -16.0550   26.7325 C   0  0  0  0  0  0  0  0  0  0  0  0
   10.2721  -16.2296   26.4183 C   0  0  2  0  0  0  0  0  0  0  0  0
    9.9632  -15.3685   25.2880 N   0  0  0  0  0  0  0  0  0  0  0  0
    9.4000  -15.8396   27.5517 C   0  0  0  0  0  0  0  0  0  0  0  0
    8.8375  -16.7250   28.2832 O   0  0  0  0  0  0  0  0  0  0  0  0
   12.0391  -16.3262   29.1719 C   0  0  0  0  0  0  0  0  0  0  0  0
   12.4923  -17.0588   30.2707 C   0  0  0  0  0  0  0  0  0  0  0  0
    9.1272  -14.5302   27.9071 O   0  0  0  0  0  0  0  0  0  0  0  0
  2  1  1  6
  2  3  1  0
  4  2  1  0
  4  5  1  6
  6  4  1  0
  6  7  2  0
  8  6  1  0
  9  8  1  0
  9 10  1  1
 10 11  1  0
 11 12  2  0
 12 13  1  0
 14 13  2  0
 15 14  1  0
 16 11  1  0
 16 15  2  0
 17  9  1  0
 18 17  2  0
 20 19  1  0
 20 30  2  0
 21 20  1  0
 22 21  2  0
 22 23  1  0
 23 29  2  0
 24 23  1  0
 25 26  1  0
 25 24  1  1
 26 17  1  0
 27 25  1  0
 28 27  2  0
 29 30  1  0
 31 27  1  0
M  END
$$$$
