VFY.pdb
     RDKit          3D

 31 32  0  0  1  0  0  0  0  0999 V2000
    8.4831  -19.6382   19.8862 C   0  0  0  0  0  0  0  0  0  0  0  0
    8.7584  -18.7166   21.0293 C   0  0  1  0  0  0  0  0  0  0  0  0
   10.0682  -19.1426   21.6650 C   0  0  0  0  0  0  0  0  0  0  0  0
    8.8944  -17.2758   20.6343 C   0  0  2  0  0  0  0  0  0  0  0  0
   10.0125  -17.1534   19.7359 N   0  0  0  0  0  0  0  0  0  0  0  0
    9.0680  -16.3621   21.7618 C   0  0  0  0  0  0  0  0  0  0  0  0
   10.1957  -15.9977   22.2109 O   0  0  0  0  0  0  0  0  0  0  0  0
    7.9359  -15.8222   22.4286 N   0  0  0  0  0  0  0  0  0  0  0  0
    8.1009  -14.9928   23.6062 C   0  0  1  0  0  0  0  0  0  0  0  0
    6.7604  -14.3493   23.8989 C   0  0  0  0  0  0  0  0  0  0  0  0
    6.7469  -13.5832   25.1444 C   0  0  0  0  0  0  0  0  0  0  0  0
    7.6055  -12.5251   25.3198 C   0  0  0  0  0  0  0  0  0  0  0  0
    7.6293  -11.7706   26.4811 C   0  0  0  0  0  0  0  0  0  0  0  0
    6.7675  -12.0801   27.5051 C   0  0  0  0  0  0  0  0  0  0  0  0
    5.8981  -13.1321   27.3583 C   0  0  0  0  0  0  0  0  0  0  0  0
    5.8872  -13.8835   26.1792 C   0  0  0  0  0  0  0  0  0  0  0  0
    8.3932  -15.9150   24.7446 C   0  0  0  0  0  0  0  0  0  0  0  0
    7.6472  -16.8956   25.0219 O   0  0  0  0  0  0  0  0  0  0  0  0
    5.8838  -21.6343   25.3537 O   0  0  0  0  0  0  0  0  0  0  0  0
    6.9386  -20.7278   25.4954 C   0  0  0  0  0  0  0  0  0  0  0  0
    8.0502  -20.8587   24.6950 C   0  0  0  0  0  0  0  0  0  0  0  0
    9.0980  -19.9557   24.8379 C   0  0  0  0  0  0  0  0  0  0  0  0
    9.0651  -18.9371   25.7490 C   0  0  0  0  0  0  0  0  0  0  0  0
   10.1938  -17.9981   25.8814 C   0  0  0  0  0  0  0  0  0  0  0  0
    9.8596  -16.7198   26.5915 C   0  0  2  0  0  0  0  0  0  0  0  0
    9.5379  -15.7285   25.5774 N   0  0  0  0  0  0  0  0  0  0  0  0
   10.9941  -16.2091   27.3973 C   0  0  0  0  0  0  0  0  0  0  0  0
   11.4702  -16.8915   28.3684 O   0  0  0  0  0  0  0  0  0  0  0  0
    7.9532  -18.8102   26.5460 C   0  0  0  0  0  0  0  0  0  0  0  0
    6.8922  -19.7083   26.4154 C   0  0  0  0  0  0  0  0  0  0  0  0
   11.6172  -14.9930   27.1783 O   0  0  0  0  0  0  0  0  0  0  0  0
  2  1  1  6
  2  3  1  0
  4  2  1  0
  4  5  1  6
  6  4  1  0
  6  7  2  0
  8  6  1  0
  9  8  1  0
  9 10  1  1
 10 11  1  0
 11 12  2  0
 12 13  1  0
 14 13  2  0
 15 14  1  0
 16 11  1  0
 16 15  2  0
 17  9  1  0
 18 17  2  0
 20 19  1  0
 20 30  2  0
 21 20  1  0
 22 21  2  0
 22 23  1  0
 23 29  2  0
 24 23  1  0
 25 26  1  0
 25 24  1  6
 26 17  1  0
 27 25  1  0
 28 27  2  0
 29 30  1  0
 31 27  1  0
M  END
$$$$
