VFY.pdb
     RDKit          3D

 31 32  0  0  1  0  0  0  0  0999 V2000
    9.9316  -19.7251   20.4453 C   0  0  0  0  0  0  0  0  0  0  0  0
   10.0703  -18.6707   21.4946 C   0  0  1  0  0  0  0  0  0  0  0  0
   11.5076  -18.6835   21.9796 C   0  0  0  0  0  0  0  0  0  0  0  0
    9.7680  -17.2832   21.0110 C   0  0  2  0  0  0  0  0  0  0  0  0
   10.7130  -16.9444   19.9792 N   0  0  0  0  0  0  0  0  0  0  0  0
    9.8005  -16.2657   22.0598 C   0  0  0  0  0  0  0  0  0  0  0  0
   10.8221  -15.5702   22.3404 O   0  0  0  0  0  0  0  0  0  0  0  0
    8.6430  -16.0026   22.8402 N   0  0  0  0  0  0  0  0  0  0  0  0
    8.6732  -15.0012   23.8881 C   0  0  1  0  0  0  0  0  0  0  0  0
    7.2451  -14.5561   24.1310 C   0  0  0  0  0  0  0  0  0  0  0  0
    7.1216  -13.5709   25.2046 C   0  0  0  0  0  0  0  0  0  0  0  0
    6.4067  -13.8653   26.3403 C   0  0  0  0  0  0  0  0  0  0  0  0
    6.2621  -12.9650   27.3829 C   0  0  0  0  0  0  0  0  0  0  0  0
    6.8500  -11.7269   27.2922 C   0  0  0  0  0  0  0  0  0  0  0  0
    7.5704  -11.4045   26.1692 C   0  0  0  0  0  0  0  0  0  0  0  0
    7.7065  -12.3253   25.1258 C   0  0  0  0  0  0  0  0  0  0  0  0
    9.1256  -15.6935   25.1322 C   0  0  0  0  0  0  0  0  0  0  0  0
    8.7515  -16.8645   25.4220 O   0  0  0  0  0  0  0  0  0  0  0  0
   14.6441  -18.7939   23.3855 O   0  0  0  0  0  0  0  0  0  0  0  0
   13.9781  -18.0404   24.3566 C   0  0  0  0  0  0  0  0  0  0  0  0
   13.7102  -16.7130   24.1114 C   0  0  0  0  0  0  0  0  0  0  0  0
   13.0476  -15.9658   25.0791 C   0  0  0  0  0  0  0  0  0  0  0  0
   12.6502  -16.5031   26.2715 C   0  0  0  0  0  0  0  0  0  0  0  0
   11.9541  -15.6844   27.2805 C   0  0  0  0  0  0  0  0  0  0  0  0
   10.4579  -15.7816   27.2361 C   0  0  2  0  0  0  0  0  0  0  0  0
   10.0084  -15.0583   26.0573 N   0  0  0  0  0  0  0  0  0  0  0  0
    9.8176  -15.1734   28.4266 C   0  0  0  0  0  0  0  0  0  0  0  0
    9.9777  -15.6803   29.5898 O   0  0  0  0  0  0  0  0  0  0  0  0
   12.9196  -17.8287   26.5119 C   0  0  0  0  0  0  0  0  0  0  0  0
   13.5840  -18.5935   25.5511 C   0  0  0  0  0  0  0  0  0  0  0  0
    9.0193  -14.0437   28.3875 O   0  0  0  0  0  0  0  0  0  0  0  0
  2  1  1  6
  2  3  1  0
  4  2  1  0
  4  5  1  6
  6  4  1  0
  6  7  2  0
  8  6  1  0
  9  8  1  0
  9 10  1  1
 10 11  1  0
 11 12  2  0
 12 13  1  0
 14 13  2  0
 15 14  1  0
 16 11  1  0
 16 15  2  0
 17  9  1  0
 18 17  2  0
 20 19  1  0
 20 30  2  0
 21 20  1  0
 22 21  2  0
 22 23  1  0
 23 29  2  0
 24 23  1  0
 25 26  1  0
 25 24  1  1
 26 17  1  0
 27 25  1  0
 28 27  2  0
 29 30  1  0
 31 27  1  0
M  END
$$$$
