VFY.pdb
     RDKit          3D

 31 32  0  0  1  0  0  0  0  0999 V2000
   10.4449  -19.2089   22.7961 C   0  0  0  0  0  0  0  0  0  0  0  0
   10.7869  -18.4950   21.5291 C   0  0  1  0  0  0  0  0  0  0  0  0
   10.7221  -19.5016   20.3961 C   0  0  0  0  0  0  0  0  0  0  0  0
    9.8535  -17.3706   21.1896 C   0  0  2  0  0  0  0  0  0  0  0  0
   10.2359  -16.8315   19.9108 N   0  0  0  0  0  0  0  0  0  0  0  0
    9.8225  -16.3002   22.1844 C   0  0  0  0  0  0  0  0  0  0  0  0
   10.7523  -15.4539   22.3432 O   0  0  0  0  0  0  0  0  0  0  0  0
    8.7051  -16.1571   23.0497 N   0  0  0  0  0  0  0  0  0  0  0  0
    8.6919  -15.1291   24.0718 C   0  0  1  0  0  0  0  0  0  0  0  0
    7.2451  -14.7471   24.3119 C   0  0  0  0  0  0  0  0  0  0  0  0
    7.0744  -13.7850   25.3998 C   0  0  0  0  0  0  0  0  0  0  0  0
    6.4024  -14.1407   26.5442 C   0  0  0  0  0  0  0  0  0  0  0  0
    6.2159  -13.2644   27.6005 C   0  0  0  0  0  0  0  0  0  0  0  0
    6.7160  -11.9879   27.5152 C   0  0  0  0  0  0  0  0  0  0  0  0
    7.3919  -11.6041   26.3838 C   0  0  0  0  0  0  0  0  0  0  0  0
    7.5714  -12.5014   25.3266 C   0  0  0  0  0  0  0  0  0  0  0  0
    9.1830  -15.7670   25.3303 C   0  0  0  0  0  0  0  0  0  0  0  0
    8.7037  -16.8523   25.7633 O   0  0  0  0  0  0  0  0  0  0  0  0
   14.4889  -18.1943   22.5865 O   0  0  0  0  0  0  0  0  0  0  0  0
   13.9397  -17.5893   23.7207 C   0  0  0  0  0  0  0  0  0  0  0  0
   13.3899  -18.3786   24.7048 C   0  0  0  0  0  0  0  0  0  0  0  0
   12.8442  -17.7742   25.8320 C   0  0  0  0  0  0  0  0  0  0  0  0
   12.8331  -16.4177   26.0002 C   0  0  0  0  0  0  0  0  0  0  0  0
   12.2424  -15.8052   27.2040 C   0  0  0  0  0  0  0  0  0  0  0  0
   10.7455  -15.8775   27.2681 C   0  0  2  0  0  0  0  0  0  0  0  0
   10.2245  -15.1744   26.1067 N   0  0  0  0  0  0  0  0  0  0  0  0
   10.2014  -15.2305   28.4857 C   0  0  0  0  0  0  0  0  0  0  0  0
   10.4728  -15.6864   29.6493 O   0  0  0  0  0  0  0  0  0  0  0  0
   13.3832  -15.6335   25.0153 C   0  0  0  0  0  0  0  0  0  0  0  0
   13.9354  -16.2241   23.8770 C   0  0  0  0  0  0  0  0  0  0  0  0
    9.3816  -14.1157   28.4727 O   0  0  0  0  0  0  0  0  0  0  0  0
  2  1  1  1
  2  3  1  0
  4  2  1  0
  4  5  1  6
  6  4  1  0
  6  7  2  0
  8  6  1  0
  9  8  1  0
  9 10  1  1
 10 11  1  0
 11 12  2  0
 12 13  1  0
 14 13  2  0
 15 14  1  0
 16 11  1  0
 16 15  2  0
 17  9  1  0
 18 17  2  0
 20 19  1  0
 20 30  2  0
 21 20  1  0
 22 21  2  0
 22 23  1  0
 23 29  2  0
 24 23  1  0
 25 26  1  0
 25 24  1  1
 26 17  1  0
 27 25  1  0
 28 27  2  0
 29 30  1  0
 31 27  1  0
M  END
$$$$
