VFY.pdb
     RDKit          3D

 31 32  0  0  1  0  0  0  0  0999 V2000
    8.7765  -19.1775   21.2859 C   0  0  0  0  0  0  0  0  0  0  0  0
    9.3780  -18.4395   20.1347 C   0  0  1  0  0  0  0  0  0  0  0  0
    9.0287  -19.1933   18.8654 C   0  0  0  0  0  0  0  0  0  0  0  0
    8.8759  -17.0344   19.9794 C   0  0  2  0  0  0  0  0  0  0  0  0
    9.4857  -16.4594   18.8091 N   0  0  0  0  0  0  0  0  0  0  0  0
    9.1307  -16.1787   21.1367 C   0  0  0  0  0  0  0  0  0  0  0  0
   10.2766  -15.7409   21.4550 O   0  0  0  0  0  0  0  0  0  0  0  0
    8.0632  -15.7859   21.9875 N   0  0  0  0  0  0  0  0  0  0  0  0
    8.3172  -14.9728   23.1606 C   0  0  1  0  0  0  0  0  0  0  0  0
    6.9911  -14.3867   23.6017 C   0  0  0  0  0  0  0  0  0  0  0  0
    7.0795  -13.6338   24.8522 C   0  0  0  0  0  0  0  0  0  0  0  0
    7.7322  -12.4255   24.8922 C   0  0  0  0  0  0  0  0  0  0  0  0
    7.8418  -11.6770   26.0524 C   0  0  0  0  0  0  0  0  0  0  0  0
    7.2815  -12.1476   27.2150 C   0  0  0  0  0  0  0  0  0  0  0  0
    6.6230  -13.3519   27.2054 C   0  0  0  0  0  0  0  0  0  0  0  0
    6.5217  -14.0950   26.0253 C   0  0  0  0  0  0  0  0  0  0  0  0
    8.7573  -15.9040   24.2426 C   0  0  0  0  0  0  0  0  0  0  0  0
    8.1599  -16.9922   24.4751 O   0  0  0  0  0  0  0  0  0  0  0  0
   13.0217  -20.3849   21.7353 O   0  0  0  0  0  0  0  0  0  0  0  0
   12.7125  -19.4865   22.7607 C   0  0  0  0  0  0  0  0  0  0  0  0
   12.3994  -19.9726   24.0094 C   0  0  0  0  0  0  0  0  0  0  0  0
   12.0922  -19.0767   25.0276 C   0  0  0  0  0  0  0  0  0  0  0  0
   12.0893  -17.7236   24.8336 C   0  0  0  0  0  0  0  0  0  0  0  0
   11.7541  -16.7984   25.9313 C   0  0  0  0  0  0  0  0  0  0  0  0
   10.2860  -16.5435   26.1036 C   0  0  2  0  0  0  0  0  0  0  0  0
    9.8819  -15.6041   25.0697 N   0  0  0  0  0  0  0  0  0  0  0  0
    9.9682  -15.9473   27.4230 C   0  0  0  0  0  0  0  0  0  0  0  0
    9.8126  -14.6846   27.5534 O   0  0  0  0  0  0  0  0  0  0  0  0
   12.4025  -17.2427   23.5854 C   0  0  0  0  0  0  0  0  0  0  0  0
   12.7136  -18.1283   22.5518 C   0  0  0  0  0  0  0  0  0  0  0  0
    9.8163  -16.6771   28.5889 O   0  0  0  0  0  0  0  0  0  0  0  0
  2  1  1  1
  2  3  1  0
  4  2  1  0
  4  5  1  6
  6  4  1  0
  6  7  2  0
  8  6  1  0
  9  8  1  0
  9 10  1  1
 10 11  1  0
 11 12  2  0
 12 13  1  0
 14 13  2  0
 15 14  1  0
 16 11  1  0
 16 15  2  0
 17  9  1  0
 18 17  2  0
 20 19  1  0
 20 30  2  0
 21 20  1  0
 22 21  2  0
 22 23  1  0
 23 29  2  0
 24 23  1  0
 25 26  1  0
 25 24  1  1
 26 17  1  0
 27 25  1  0
 28 27  2  0
 29 30  1  0
 31 27  1  0
M  END
$$$$
