VFY.pdb
     RDKit          3D

 31 32  0  0  1  0  0  0  0  0999 V2000
   10.1832  -19.2180   19.8408 C   0  0  0  0  0  0  0  0  0  0  0  0
   10.2415  -18.3867   21.0808 C   0  0  1  0  0  0  0  0  0  0  0  0
   11.5480  -18.6959   21.7870 C   0  0  0  0  0  0  0  0  0  0  0  0
   10.2022  -16.9084   20.8284 C   0  0  2  0  0  0  0  0  0  0  0  0
   11.3828  -16.5405   20.0916 N   0  0  0  0  0  0  0  0  0  0  0  0
   10.1082  -16.0986   22.0415 C   0  0  0  0  0  0  0  0  0  0  0  0
   11.1114  -15.6560   22.6770 O   0  0  0  0  0  0  0  0  0  0  0  0
    8.8387  -15.7596   22.5813 N   0  0  0  0  0  0  0  0  0  0  0  0
    8.7407  -14.9969   23.8103 C   0  0  1  0  0  0  0  0  0  0  0  0
    7.3574  -14.3793   23.8515 C   0  0  0  0  0  0  0  0  0  0  0  0
    7.0738  -13.6801   25.1041 C   0  0  0  0  0  0  0  0  0  0  0  0
    7.6208  -12.4440   25.3502 C   0  0  0  0  0  0  0  0  0  0  0  0
    7.3812  -11.7440   26.5212 C   0  0  0  0  0  0  0  0  0  0  0  0
    6.5680  -12.2938   27.4821 C   0  0  0  0  0  0  0  0  0  0  0  0
    6.0074  -13.5276   27.2639 C   0  0  0  0  0  0  0  0  0  0  0  0
    6.2597  -14.2208   26.0761 C   0  0  0  0  0  0  0  0  0  0  0  0
    8.8069  -15.9797   24.9334 C   0  0  0  0  0  0  0  0  0  0  0  0
    8.5904  -17.2118   24.7599 O   0  0  0  0  0  0  0  0  0  0  0  0
   13.6619  -20.9651   24.3467 O   0  0  0  0  0  0  0  0  0  0  0  0
   13.0991  -19.7600   24.7773 C   0  0  0  0  0  0  0  0  0  0  0  0
   13.9209  -18.6846   25.0258 C   0  0  0  0  0  0  0  0  0  0  0  0
   13.3586  -17.4870   25.4541 C   0  0  0  0  0  0  0  0  0  0  0  0
   12.0125  -17.3371   25.6387 C   0  0  0  0  0  0  0  0  0  0  0  0
   11.4458  -16.0564   26.0988 C   0  0  0  0  0  0  0  0  0  0  0  0
   10.2304  -16.1903   26.9677 C   0  0  2  0  0  0  0  0  0  0  0  0
    9.1202  -15.5680   26.2642 N   0  0  0  0  0  0  0  0  0  0  0  0
   10.3932  -15.5090   28.2740 C   0  0  0  0  0  0  0  0  0  0  0  0
   10.6852  -16.1709   29.3286 O   0  0  0  0  0  0  0  0  0  0  0  0
   11.1958  -18.4133   25.3892 C   0  0  0  0  0  0  0  0  0  0  0  0
   11.7439  -19.6231   24.9586 C   0  0  0  0  0  0  0  0  0  0  0  0
   10.2499  -14.1455   28.4622 O   0  0  0  0  0  0  0  0  0  0  0  0
  2  1  1  6
  2  3  1  0
  4  2  1  0
  4  5  1  1
  6  4  1  0
  6  7  2  0
  8  6  1  0
  9  8  1  0
  9 10  1  6
 10 11  1  0
 11 12  2  0
 12 13  1  0
 14 13  2  0
 15 14  1  0
 16 11  1  0
 16 15  2  0
 17  9  1  0
 18 17  2  0
 20 19  1  0
 20 30  2  0
 21 20  1  0
 22 21  2  0
 22 23  1  0
 23 29  2  0
 24 23  1  0
 25 26  1  0
 25 24  1  6
 26 17  1  0
 27 25  1  0
 28 27  2  0
 29 30  1  0
 31 27  1  0
M  END
$$$$
