VFY.pdb
     RDKit          3D

 31 32  0  0  1  0  0  0  0  0999 V2000
    8.1175  -18.6801   21.0269 C   0  0  0  0  0  0  0  0  0  0  0  0
    8.8064  -17.9832   19.8992 C   0  0  1  0  0  0  0  0  0  0  0  0
    8.3470  -18.6270   18.6047 C   0  0  0  0  0  0  0  0  0  0  0  0
    8.5014  -16.5171   19.8088 C   0  0  2  0  0  0  0  0  0  0  0  0
    9.2129  -15.9725   18.6821 N   0  0  0  0  0  0  0  0  0  0  0  0
    8.8388  -15.7623   21.0141 C   0  0  0  0  0  0  0  0  0  0  0  0
   10.0186  -15.4257   21.3318 O   0  0  0  0  0  0  0  0  0  0  0  0
    7.8189  -15.3579   21.9164 N   0  0  0  0  0  0  0  0  0  0  0  0
    8.1546  -14.6664   23.1455 C   0  0  1  0  0  0  0  0  0  0  0  0
    6.8831  -14.0294   23.6691 C   0  0  0  0  0  0  0  0  0  0  0  0
    7.0403  -13.4294   24.9934 C   0  0  0  0  0  0  0  0  0  0  0  0
    7.7625  -12.2713   25.1513 C   0  0  0  0  0  0  0  0  0  0  0  0
    7.9387  -11.6665   26.3848 C   0  0  0  0  0  0  0  0  0  0  0  0
    7.3759  -12.2345   27.5018 C   0  0  0  0  0  0  0  0  0  0  0  0
    6.6488  -13.3918   27.3747 C   0  0  0  0  0  0  0  0  0  0  0  0
    6.4807  -13.9893   26.1218 C   0  0  0  0  0  0  0  0  0  0  0  0
    8.5499  -15.7139   24.1346 C   0  0  0  0  0  0  0  0  0  0  0  0
    7.8515  -16.7476   24.3320 O   0  0  0  0  0  0  0  0  0  0  0  0
   12.6417  -19.7037   20.7647 O   0  0  0  0  0  0  0  0  0  0  0  0
   12.3641  -19.0426   21.9647 C   0  0  0  0  0  0  0  0  0  0  0  0
   12.8418  -17.7663   22.1558 C   0  0  0  0  0  0  0  0  0  0  0  0
   12.5642  -17.1109   23.3505 C   0  0  0  0  0  0  0  0  0  0  0  0
   11.8305  -17.6901   24.3479 C   0  0  0  0  0  0  0  0  0  0  0  0
   11.5569  -16.9723   25.6060 C   0  0  0  0  0  0  0  0  0  0  0  0
   10.1100  -16.6507   25.8368 C   0  0  2  0  0  0  0  0  0  0  0  0
    9.7444  -15.5936   24.9076 N   0  0  0  0  0  0  0  0  0  0  0  0
    9.8524  -16.1680   27.2145 C   0  0  0  0  0  0  0  0  0  0  0  0
    9.5660  -14.9420   27.4385 O   0  0  0  0  0  0  0  0  0  0  0  0
   11.3555  -18.9644   24.1528 C   0  0  0  0  0  0  0  0  0  0  0  0
   11.6250  -19.6368   22.9591 C   0  0  0  0  0  0  0  0  0  0  0  0
    9.8964  -16.9718   28.3401 O   0  0  0  0  0  0  0  0  0  0  0  0
  2  1  1  1
  2  3  1  0
  4  2  1  0
  4  5  1  6
  6  4  1  0
  6  7  2  0
  8  6  1  0
  9  8  1  0
  9 10  1  1
 10 11  1  0
 11 12  2  0
 12 13  1  0
 14 13  2  0
 15 14  1  0
 16 11  1  0
 16 15  2  0
 17  9  1  0
 18 17  2  0
 20 19  1  0
 20 30  2  0
 21 20  1  0
 22 21  2  0
 22 23  1  0
 23 29  2  0
 24 23  1  0
 25 26  1  0
 25 24  1  1
 26 17  1  0
 27 25  1  0
 28 27  2  0
 29 30  1  0
 31 27  1  0
M  END
$$$$
