VFY.pdb
     RDKit          3D

 31 32  0  0  1  0  0  0  0  0999 V2000
    8.6117  -18.6563   21.2120 C   0  0  0  0  0  0  0  0  0  0  0  0
    9.4172  -17.9449   20.1741 C   0  0  1  0  0  0  0  0  0  0  0  0
    9.1686  -18.6288   18.8430 C   0  0  0  0  0  0  0  0  0  0  0  0
    9.0630  -16.4962   20.0119 C   0  0  2  0  0  0  0  0  0  0  0  0
    9.8568  -15.9501   18.9423 N   0  0  0  0  0  0  0  0  0  0  0  0
    9.2518  -15.6970   21.2210 C   0  0  0  0  0  0  0  0  0  0  0  0
   10.3853  -15.4041   21.7064 O   0  0  0  0  0  0  0  0  0  0  0  0
    8.1291  -15.1947   21.9316 N   0  0  0  0  0  0  0  0  0  0  0  0
    8.3018  -14.5364   23.2116 C   0  0  1  0  0  0  0  0  0  0  0  0
    7.0003  -13.8323   23.5387 C   0  0  0  0  0  0  0  0  0  0  0  0
    7.0032  -13.1945   24.8546 C   0  0  0  0  0  0  0  0  0  0  0  0
    6.2005  -13.6731   25.8616 C   0  0  0  0  0  0  0  0  0  0  0  0
    6.1692  -13.1024   27.1232 C   0  0  0  0  0  0  0  0  0  0  0  0
    6.9655  -12.0160   27.3928 C   0  0  0  0  0  0  0  0  0  0  0  0
    7.7781  -11.5158   26.4060 C   0  0  0  0  0  0  0  0  0  0  0  0
    7.7974  -12.1040   25.1377 C   0  0  0  0  0  0  0  0  0  0  0  0
    8.4754  -15.6151   24.2305 C   0  0  0  0  0  0  0  0  0  0  0  0
    7.7634  -16.6583   24.2306 O   0  0  0  0  0  0  0  0  0  0  0  0
   15.3099  -16.1890   23.1705 O   0  0  0  0  0  0  0  0  0  0  0  0
   14.0946  -16.5705   23.7465 C   0  0  0  0  0  0  0  0  0  0  0  0
   12.9475  -16.5276   22.9875 C   0  0  0  0  0  0  0  0  0  0  0  0
   11.7399  -16.9076   23.5629 C   0  0  0  0  0  0  0  0  0  0  0  0
   11.6489  -17.3244   24.8616 C   0  0  0  0  0  0  0  0  0  0  0  0
   10.3533  -17.7161   25.4458 C   0  0  0  0  0  0  0  0  0  0  0  0
    9.6478  -16.6191   26.1866 C   0  0  2  0  0  0  0  0  0  0  0  0
    9.4614  -15.5154   25.2583 N   0  0  0  0  0  0  0  0  0  0  0  0
   10.4315  -16.1256   27.3440 C   0  0  0  0  0  0  0  0  0  0  0  0
   10.7600  -14.8932   27.4378 O   0  0  0  0  0  0  0  0  0  0  0  0
   12.7966  -17.3657   25.6156 C   0  0  0  0  0  0  0  0  0  0  0  0
   14.0175  -16.9877   25.0534 C   0  0  0  0  0  0  0  0  0  0  0  0
   10.8614  -16.9249   28.3887 O   0  0  0  0  0  0  0  0  0  0  0  0
  2  1  1  1
  2  3  1  0
  4  2  1  0
  4  5  1  6
  6  4  1  0
  6  7  2  0
  8  6  1  0
  9  8  1  0
  9 10  1  1
 10 11  1  0
 11 12  2  0
 12 13  1  0
 14 13  2  0
 15 14  1  0
 16 11  1  0
 16 15  2  0
 17  9  1  0
 18 17  2  0
 20 19  1  0
 20 30  2  0
 21 20  1  0
 22 21  2  0
 22 23  1  0
 23 29  2  0
 24 23  1  0
 25 26  1  0
 25 24  1  6
 26 17  1  0
 27 25  1  0
 28 27  2  0
 29 30  1  0
 31 27  1  0
M  END
$$$$
