VFY.pdb
     RDKit          3D

 31 32  0  0  1  0  0  0  0  0999 V2000
    9.3973  -19.1316   20.7661 C   0  0  0  0  0  0  0  0  0  0  0  0
   10.1134  -18.3299   19.7286 C   0  0  1  0  0  0  0  0  0  0  0  0
   10.0293  -19.0864   18.4164 C   0  0  0  0  0  0  0  0  0  0  0  0
    9.5335  -16.9650   19.5023 C   0  0  2  0  0  0  0  0  0  0  0  0
   10.2421  -16.3437   18.4142 N   0  0  0  0  0  0  0  0  0  0  0  0
    9.5775  -16.0961   20.6767 C   0  0  0  0  0  0  0  0  0  0  0  0
   10.6374  -15.5669   21.1269 O   0  0  0  0  0  0  0  0  0  0  0  0
    8.3874  -15.7957   21.3919 N   0  0  0  0  0  0  0  0  0  0  0  0
    8.4153  -14.8832   22.5181 C   0  0  1  0  0  0  0  0  0  0  0  0
    6.9865  -14.4602   22.7943 C   0  0  0  0  0  0  0  0  0  0  0  0
    6.8661  -13.5285   23.9149 C   0  0  0  0  0  0  0  0  0  0  0  0
    7.3730  -12.2552   23.8186 C   0  0  0  0  0  0  0  0  0  0  0  0
    7.2829  -11.3381   24.8527 C   0  0  0  0  0  0  0  0  0  0  0  0
    6.6661  -11.7011   26.0252 C   0  0  0  0  0  0  0  0  0  0  0  0
    6.1500  -12.9669   26.1503 C   0  0  0  0  0  0  0  0  0  0  0  0
    6.2496  -13.8804   25.0964 C   0  0  0  0  0  0  0  0  0  0  0  0
    8.8665  -15.6744   23.7022 C   0  0  0  0  0  0  0  0  0  0  0  0
    8.4353  -16.8385   23.9347 O   0  0  0  0  0  0  0  0  0  0  0  0
   12.3397  -17.3435   31.6967 O   0  0  0  0  0  0  0  0  0  0  0  0
   11.9543  -16.7469   30.4926 C   0  0  0  0  0  0  0  0  0  0  0  0
   12.3984  -17.2811   29.3047 C   0  0  0  0  0  0  0  0  0  0  0  0
   12.0135  -16.6857   28.1083 C   0  0  0  0  0  0  0  0  0  0  0  0
   11.2062  -15.5834   28.0677 C   0  0  0  0  0  0  0  0  0  0  0  0
   10.8192  -14.9708   26.7839 C   0  0  0  0  0  0  0  0  0  0  0  0
   10.1572  -15.9108   25.8205 C   0  0  2  0  0  0  0  0  0  0  0  0
    9.8128  -15.1467   24.6322 N   0  0  0  0  0  0  0  0  0  0  0  0
    8.9132  -16.4992   26.3714 C   0  0  0  0  0  0  0  0  0  0  0  0
    8.8954  -17.6961   26.8216 O   0  0  0  0  0  0  0  0  0  0  0  0
   10.7651  -15.0535   29.2560 C   0  0  0  0  0  0  0  0  0  0  0  0
   11.1419  -15.6390   30.4663 C   0  0  0  0  0  0  0  0  0  0  0  0
    7.7041  -15.8300   26.4460 O   0  0  0  0  0  0  0  0  0  0  0  0
  2  1  1  1
  2  3  1  0
  4  2  1  0
  4  5  1  6
  6  4  1  0
  6  7  2  0
  8  6  1  0
  9  8  1  0
  9 10  1  1
 10 11  1  0
 11 12  2  0
 12 13  1  0
 14 13  2  0
 15 14  1  0
 16 11  1  0
 16 15  2  0
 17  9  1  0
 18 17  2  0
 20 19  1  0
 20 30  2  0
 21 20  1  0
 22 21  2  0
 22 23  1  0
 23 29  2  0
 24 23  1  0
 25 26  1  0
 25 24  1  1
 26 17  1  0
 27 25  1  0
 28 27  2  0
 29 30  1  0
 31 27  1  0
M  END
$$$$
