VFY.pdb
     RDKit          3D

 31 32  0  0  1  0  0  0  0  0999 V2000
    8.0938  -19.8382   22.2563 C   0  0  0  0  0  0  0  0  0  0  0  0
    8.5597  -19.3653   20.9179 C   0  0  1  0  0  0  0  0  0  0  0  0
    8.1111  -20.3806   19.8839 C   0  0  0  0  0  0  0  0  0  0  0  0
    8.0046  -18.0317   20.5134 C   0  0  2  0  0  0  0  0  0  0  0  0
    8.4357  -17.7474   19.1697 N   0  0  0  0  0  0  0  0  0  0  0  0
    8.3906  -16.9324   21.3959 C   0  0  0  0  0  0  0  0  0  0  0  0
    9.5468  -16.4137   21.4168 O   0  0  0  0  0  0  0  0  0  0  0  0
    7.4497  -16.3765   22.3034 N   0  0  0  0  0  0  0  0  0  0  0  0
    7.8353  -15.3038   23.1990 C   0  0  1  0  0  0  0  0  0  0  0  0
    6.5804  -14.5263   23.5418 C   0  0  0  0  0  0  0  0  0  0  0  0
    6.8039  -13.4777   24.5362 C   0  0  0  0  0  0  0  0  0  0  0  0
    7.5852  -12.3885   24.2352 C   0  0  0  0  0  0  0  0  0  0  0  0
    7.8253  -11.3710   25.1438 C   0  0  0  0  0  0  0  0  0  0  0  0
    7.2677  -11.4396   26.3974 C   0  0  0  0  0  0  0  0  0  0  0  0
    6.4824  -12.5162   26.7266 C   0  0  0  0  0  0  0  0  0  0  0  0
    6.2502  -13.5348   25.7972 C   0  0  0  0  0  0  0  0  0  0  0  0
    8.3025  -15.9462   24.4642 C   0  0  0  0  0  0  0  0  0  0  0  0
    7.5701  -16.7334   25.1268 O   0  0  0  0  0  0  0  0  0  0  0  0
   10.6576  -21.3063   30.3050 O   0  0  0  0  0  0  0  0  0  0  0  0
   10.4619  -20.4661   29.2050 C   0  0  0  0  0  0  0  0  0  0  0  0
   11.5512  -20.0485   28.4752 C   0  0  0  0  0  0  0  0  0  0  0  0
   11.3538  -19.2127   27.3815 C   0  0  0  0  0  0  0  0  0  0  0  0
   10.1112  -18.7878   27.0019 C   0  0  0  0  0  0  0  0  0  0  0  0
    9.9336  -17.8973   25.8406 C   0  0  0  0  0  0  0  0  0  0  0  0
   10.0704  -16.4360   26.1505 C   0  0  2  0  0  0  0  0  0  0  0  0
    9.6081  -15.6978   24.9860 N   0  0  0  0  0  0  0  0  0  0  0  0
   11.4747  -16.0459   26.4207 C   0  0  0  0  0  0  0  0  0  0  0  0
   12.2339  -15.6297   25.4794 O   0  0  0  0  0  0  0  0  0  0  0  0
    9.0265  -19.2073   27.7333 C   0  0  0  0  0  0  0  0  0  0  0  0
    9.2069  -20.0467   28.8344 C   0  0  0  0  0  0  0  0  0  0  0  0
   12.0678  -16.0946   27.6700 O   0  0  0  0  0  0  0  0  0  0  0  0
  2  1  1  1
  2  3  1  0
  4  2  1  0
  4  5  1  6
  6  4  1  0
  6  7  2  0
  8  6  1  0
  9  8  1  0
  9 10  1  1
 10 11  1  0
 11 12  2  0
 12 13  1  0
 14 13  2  0
 15 14  1  0
 16 11  1  0
 16 15  2  0
 17  9  1  0
 18 17  2  0
 20 19  1  0
 20 30  2  0
 21 20  1  0
 22 21  2  0
 22 23  1  0
 23 29  2  0
 24 23  1  0
 25 26  1  0
 25 24  1  6
 26 17  1  0
 27 25  1  0
 28 27  2  0
 29 30  1  0
 31 27  1  0
M  END
$$$$
