VFY.pdb
     RDKit          3D

 31 32  0  0  1  0  0  0  0  0999 V2000
    9.2376  -19.2995   21.1627 C   0  0  0  0  0  0  0  0  0  0  0  0
    9.7234  -18.6734   19.8962 C   0  0  1  0  0  0  0  0  0  0  0  0
    9.4861  -19.6601   18.7687 C   0  0  0  0  0  0  0  0  0  0  0  0
    9.0214  -17.3974   19.5364 C   0  0  2  0  0  0  0  0  0  0  0  0
    9.5237  -16.9437   18.2659 N   0  0  0  0  0  0  0  0  0  0  0  0
    9.1679  -16.3354   20.5299 C   0  0  0  0  0  0  0  0  0  0  0  0
   10.2291  -15.6628   20.6963 O   0  0  0  0  0  0  0  0  0  0  0  0
    8.0848  -15.9985   21.3850 N   0  0  0  0  0  0  0  0  0  0  0  0
    8.2444  -14.9888   22.4129 C   0  0  1  0  0  0  0  0  0  0  0  0
    6.8691  -14.6960   22.9783 C   0  0  0  0  0  0  0  0  0  0  0  0
    6.8839  -13.6966   24.0456 C   0  0  0  0  0  0  0  0  0  0  0  0
    6.3670  -13.9929   25.2836 C   0  0  0  0  0  0  0  0  0  0  0  0
    6.3588  -13.0795   26.3247 C   0  0  0  0  0  0  0  0  0  0  0  0
    6.8839  -11.8256   26.1270 C   0  0  0  0  0  0  0  0  0  0  0  0
    7.4074  -11.5010   24.9004 C   0  0  0  0  0  0  0  0  0  0  0  0
    7.4077  -12.4352   23.8600 C   0  0  0  0  0  0  0  0  0  0  0  0
    9.0373  -15.6158   23.5128 C   0  0  0  0  0  0  0  0  0  0  0  0
    8.7242  -16.7324   24.0129 O   0  0  0  0  0  0  0  0  0  0  0  0
   11.3187  -15.9181   31.6600 O   0  0  0  0  0  0  0  0  0  0  0  0
   10.9221  -15.8735   30.3202 C   0  0  0  0  0  0  0  0  0  0  0  0
   10.5403  -17.0370   29.6925 C   0  0  0  0  0  0  0  0  0  0  0  0
   10.1462  -16.9898   28.3597 C   0  0  0  0  0  0  0  0  0  0  0  0
   10.1239  -15.8244   27.6456 C   0  0  0  0  0  0  0  0  0  0  0  0
    9.7063  -15.8063   26.2319 C   0  0  0  0  0  0  0  0  0  0  0  0
   10.8090  -15.5024   25.2614 C   0  0  2  0  0  0  0  0  0  0  0  0
   10.1941  -14.9765   24.0531 N   0  0  0  0  0  0  0  0  0  0  0  0
   11.5893  -16.7092   24.8984 C   0  0  0  0  0  0  0  0  0  0  0  0
   12.4486  -17.2038   25.7061 O   0  0  0  0  0  0  0  0  0  0  0  0
   10.5057  -14.6651   28.2764 C   0  0  0  0  0  0  0  0  0  0  0  0
   10.9041  -14.6947   29.6142 C   0  0  0  0  0  0  0  0  0  0  0  0
   11.4618  -17.3844   23.6971 O   0  0  0  0  0  0  0  0  0  0  0  0
  2  1  1  1
  2  3  1  0
  4  2  1  0
  4  5  1  6
  6  4  1  0
  6  7  2  0
  8  6  1  0
  9  8  1  0
  9 10  1  1
 10 11  1  0
 11 12  2  0
 12 13  1  0
 14 13  2  0
 15 14  1  0
 16 11  1  0
 16 15  2  0
 17  9  1  0
 18 17  2  0
 20 19  1  0
 20 30  2  0
 21 20  1  0
 22 21  2  0
 22 23  1  0
 23 29  2  0
 24 23  1  0
 25 26  1  0
 25 24  1  1
 26 17  1  0
 27 25  1  0
 28 27  2  0
 29 30  1  0
 31 27  1  0
M  END
$$$$
