VFY.pdb
     RDKit          3D

 31 32  0  0  1  0  0  0  0  0999 V2000
    8.5146  -12.2610   18.5738 C   0  0  0  0  0  0  0  0  0  0  0  0
    7.7505  -13.5443   18.6101 C   0  0  1  0  0  0  0  0  0  0  0  0
    7.5254  -13.9921   17.1783 C   0  0  0  0  0  0  0  0  0  0  0  0
    8.4572  -14.6567   19.3265 C   0  0  2  0  0  0  0  0  0  0  0  0
    7.6321  -15.8347   19.2652 N   0  0  0  0  0  0  0  0  0  0  0  0
    8.7825  -14.3571   20.7196 C   0  0  0  0  0  0  0  0  0  0  0  0
    9.7332  -13.5993   21.0776 O   0  0  0  0  0  0  0  0  0  0  0  0
    8.0172  -14.9247   21.7732 N   0  0  0  0  0  0  0  0  0  0  0  0
    8.3460  -14.6433   23.1568 C   0  0  1  0  0  0  0  0  0  0  0  0
    7.0553  -14.6955   23.9492 C   0  0  0  0  0  0  0  0  0  0  0  0
    7.1939  -14.1879   25.3136 C   0  0  0  0  0  0  0  0  0  0  0  0
    7.0822  -12.8428   25.5701 C   0  0  0  0  0  0  0  0  0  0  0  0
    7.2059  -12.3156   26.8450 C   0  0  0  0  0  0  0  0  0  0  0  0
    7.4497  -13.1572   27.9029 C   0  0  0  0  0  0  0  0  0  0  0  0
    7.5662  -14.5060   27.6769 C   0  0  0  0  0  0  0  0  0  0  0  0
    7.4386  -15.0217   26.3835 C   0  0  0  0  0  0  0  0  0  0  0  0
    9.1921  -15.7769   23.6372 C   0  0  0  0  0  0  0  0  0  0  0  0
    8.8326  -16.9813   23.5138 O   0  0  0  0  0  0  0  0  0  0  0  0
   13.1534  -14.9664   18.6587 O   0  0  0  0  0  0  0  0  0  0  0  0
   13.0348  -15.3188   20.0063 C   0  0  0  0  0  0  0  0  0  0  0  0
   13.3731  -14.4009   20.9741 C   0  0  0  0  0  0  0  0  0  0  0  0
   13.2542  -14.7540   22.3138 C   0  0  0  0  0  0  0  0  0  0  0  0
   12.8114  -15.9857   22.7079 C   0  0  0  0  0  0  0  0  0  0  0  0
   12.7009  -16.3333   24.1362 C   0  0  0  0  0  0  0  0  0  0  0  0
   11.3123  -16.6779   24.5870 C   0  0  2  0  0  0  0  0  0  0  0  0
   10.4553  -15.5488   24.2626 N   0  0  0  0  0  0  0  0  0  0  0  0
   11.2362  -16.9143   26.0483 C   0  0  0  0  0  0  0  0  0  0  0  0
   11.9338  -17.8315   26.6029 O   0  0  0  0  0  0  0  0  0  0  0  0
   12.4746  -16.8990   21.7383 C   0  0  0  0  0  0  0  0  0  0  0  0
   12.5880  -16.5608   20.3884 C   0  0  0  0  0  0  0  0  0  0  0  0
   10.4334  -16.1897   26.9117 O   0  0  0  0  0  0  0  0  0  0  0  0
  2  1  1  6
  2  3  1  0
  4  2  1  0
  4  5  1  1
  6  4  1  0
  6  7  2  0
  8  6  1  0
  9  8  1  0
  9 10  1  1
 10 11  1  0
 11 12  2  0
 12 13  1  0
 14 13  2  0
 15 14  1  0
 16 11  1  0
 16 15  2  0
 17  9  1  0
 18 17  2  0
 20 19  1  0
 20 30  2  0
 21 20  1  0
 22 21  2  0
 22 23  1  0
 23 29  2  0
 24 23  1  0
 25 26  1  0
 25 24  1  1
 26 17  1  0
 27 25  1  0
 28 27  2  0
 29 30  1  0
 31 27  1  0
M  END
$$$$
