VFY.pdb
     RDKit          3D

 31 32  0  0  1  0  0  0  0  0999 V2000
    7.8099  -19.4305   19.1448 C   0  0  0  0  0  0  0  0  0  0  0  0
    8.2784  -18.6075   20.3003 C   0  0  1  0  0  0  0  0  0  0  0  0
    9.5896  -19.1943   20.7878 C   0  0  0  0  0  0  0  0  0  0  0  0
    8.5244  -17.1662   19.9647 C   0  0  2  0  0  0  0  0  0  0  0  0
    9.5689  -17.1005   18.9763 N   0  0  0  0  0  0  0  0  0  0  0  0
    8.8839  -16.3391   21.1148 C   0  0  0  0  0  0  0  0  0  0  0  0
   10.0768  -16.0791   21.4549 O   0  0  0  0  0  0  0  0  0  0  0  0
    7.8721  -15.7687   21.9327 N   0  0  0  0  0  0  0  0  0  0  0  0
    8.2239  -14.9665   23.0878 C   0  0  1  0  0  0  0  0  0  0  0  0
    6.9911  -14.1802   23.4862 C   0  0  0  0  0  0  0  0  0  0  0  0
    7.2066  -13.3164   24.6462 C   0  0  0  0  0  0  0  0  0  0  0  0
    6.5598  -13.5692   25.8317 C   0  0  0  0  0  0  0  0  0  0  0  0
    6.7320  -12.7795   26.9565 C   0  0  0  0  0  0  0  0  0  0  0  0
    7.5785  -11.6992   26.8999 C   0  0  0  0  0  0  0  0  0  0  0  0
    8.2385  -11.4220   25.7287 C   0  0  0  0  0  0  0  0  0  0  0  0
    8.0532  -12.2295   24.6024 C   0  0  0  0  0  0  0  0  0  0  0  0
    8.5060  -15.9190   24.2036 C   0  0  0  0  0  0  0  0  0  0  0  0
    7.7155  -16.8585   24.4994 O   0  0  0  0  0  0  0  0  0  0  0  0
   12.6372  -19.6804   20.8129 O   0  0  0  0  0  0  0  0  0  0  0  0
   12.3358  -19.0856   22.0416 C   0  0  0  0  0  0  0  0  0  0  0  0
   12.7048  -17.7788   22.2650 C   0  0  0  0  0  0  0  0  0  0  0  0
   12.4039  -17.1895   23.4880 C   0  0  0  0  0  0  0  0  0  0  0  0
   11.7517  -17.8634   24.4826 C   0  0  0  0  0  0  0  0  0  0  0  0
   11.4509  -17.2137   25.7712 C   0  0  0  0  0  0  0  0  0  0  0  0
   10.0089  -16.8467   25.9613 C   0  0  2  0  0  0  0  0  0  0  0  0
    9.6911  -15.8099   24.9925 N   0  0  0  0  0  0  0  0  0  0  0  0
    9.7366  -16.3145   27.3177 C   0  0  0  0  0  0  0  0  0  0  0  0
    9.8989  -17.0447   28.3550 O   0  0  0  0  0  0  0  0  0  0  0  0
   11.3850  -19.1678   24.2552 C   0  0  0  0  0  0  0  0  0  0  0  0
   11.6794  -19.7748   23.0327 C   0  0  0  0  0  0  0  0  0  0  0  0
    9.2991  -15.0268   27.5736 O   0  0  0  0  0  0  0  0  0  0  0  0
  2  1  1  6
  2  3  1  0
  4  2  1  0
  4  5  1  6
  6  4  1  0
  6  7  2  0
  8  6  1  0
  9  8  1  0
  9 10  1  1
 10 11  1  0
 11 12  2  0
 12 13  1  0
 14 13  2  0
 15 14  1  0
 16 11  1  0
 16 15  2  0
 17  9  1  0
 18 17  2  0
 20 19  1  0
 20 30  2  0
 21 20  1  0
 22 21  2  0
 22 23  1  0
 23 29  2  0
 24 23  1  0
 25 26  1  0
 25 24  1  1
 26 17  1  0
 27 25  1  0
 28 27  2  0
 29 30  1  0
 31 27  1  0
M  END
$$$$
