VFY.pdb
     RDKit          3D

 31 32  0  0  1  0  0  0  0  0999 V2000
    8.7789  -17.1975   16.4589 C   0  0  0  0  0  0  0  0  0  0  0  0
    8.9792  -16.3165   17.6487 C   0  0  1  0  0  0  0  0  0  0  0  0
    7.7218  -15.4875   17.8304 C   0  0  0  0  0  0  0  0  0  0  0  0
    9.2188  -17.0620   18.9283 C   0  0  2  0  0  0  0  0  0  0  0  0
    8.1302  -17.9821   19.1301 N   0  0  0  0  0  0  0  0  0  0  0  0
    9.3592  -16.2025   20.1020 C   0  0  0  0  0  0  0  0  0  0  0  0
   10.3397  -15.4233   20.2959 O   0  0  0  0  0  0  0  0  0  0  0  0
    8.3637  -16.2036   21.1154 N   0  0  0  0  0  0  0  0  0  0  0  0
    8.5322  -15.4062   22.3143 C   0  0  1  0  0  0  0  0  0  0  0  0
    7.1848  -15.3346   23.0042 C   0  0  0  0  0  0  0  0  0  0  0  0
    7.2042  -14.5350   24.2284 C   0  0  0  0  0  0  0  0  0  0  0  0
    7.4970  -13.1936   24.1787 C   0  0  0  0  0  0  0  0  0  0  0  0
    7.5274  -12.3961   25.3107 C   0  0  0  0  0  0  0  0  0  0  0  0
    7.2565  -12.9533   26.5367 C   0  0  0  0  0  0  0  0  0  0  0  0
    6.9606  -14.2913   26.6172 C   0  0  0  0  0  0  0  0  0  0  0  0
    6.9342  -15.0820   25.4644 C   0  0  0  0  0  0  0  0  0  0  0  0
    9.4386  -16.1753   23.2191 C   0  0  0  0  0  0  0  0  0  0  0  0
    9.6266  -17.4168   23.0827 O   0  0  0  0  0  0  0  0  0  0  0  0
    9.4748  -15.1360   30.9907 O   0  0  0  0  0  0  0  0  0  0  0  0
   10.0664  -15.1459   29.7241 C   0  0  0  0  0  0  0  0  0  0  0  0
   10.6515  -16.3033   29.2639 C   0  0  0  0  0  0  0  0  0  0  0  0
   11.2392  -16.3104   28.0036 C   0  0  0  0  0  0  0  0  0  0  0  0
   11.2580  -15.2046   27.2003 C   0  0  0  0  0  0  0  0  0  0  0  0
   11.8937  -15.2410   25.8707 C   0  0  0  0  0  0  0  0  0  0  0  0
   11.2695  -16.2082   24.9089 C   0  0  2  0  0  0  0  0  0  0  0  0
   10.1389  -15.5374   24.2874 N   0  0  0  0  0  0  0  0  0  0  0  0
   10.7714  -17.4311   25.5826 C   0  0  0  0  0  0  0  0  0  0  0  0
   11.5801  -18.3396   25.9776 O   0  0  0  0  0  0  0  0  0  0  0  0
   10.6727  -14.0513   27.6637 C   0  0  0  0  0  0  0  0  0  0  0  0
   10.0780  -14.0269   28.9268 C   0  0  0  0  0  0  0  0  0  0  0  0
    9.4355  -17.6892   25.8357 O   0  0  0  0  0  0  0  0  0  0  0  0
  2  1  1  6
  2  3  1  0
  4  2  1  0
  4  5  1  1
  6  4  1  0
  6  7  2  0
  8  6  1  0
  9  8  1  0
  9 10  1  1
 10 11  1  0
 11 12  2  0
 12 13  1  0
 14 13  2  0
 15 14  1  0
 16 11  1  0
 16 15  2  0
 17  9  1  0
 18 17  2  0
 20 19  1  0
 20 30  2  0
 21 20  1  0
 22 21  2  0
 22 23  1  0
 23 29  2  0
 24 23  1  0
 25 26  1  0
 25 24  1  1
 26 17  1  0
 27 25  1  0
 28 27  2  0
 29 30  1  0
 31 27  1  0
M  END
$$$$
