VFY.pdb
     RDKit          3D

 31 32  0  0  1  0  0  0  0  0999 V2000
    9.9932  -19.9580   20.2449 C   0  0  0  0  0  0  0  0  0  0  0  0
    9.9940  -18.6999   21.0505 C   0  0  1  0  0  0  0  0  0  0  0  0
   11.4333  -18.2451   21.2012 C   0  0  0  0  0  0  0  0  0  0  0  0
    9.2262  -17.5728   20.4254 C   0  0  2  0  0  0  0  0  0  0  0  0
    9.7984  -17.2928   19.1345 N   0  0  0  0  0  0  0  0  0  0  0  0
    9.2016  -16.3510   21.2271 C   0  0  0  0  0  0  0  0  0  0  0  0
   10.0715  -15.4330   21.1458 O   0  0  0  0  0  0  0  0  0  0  0  0
    8.1609  -16.1316   22.1687 N   0  0  0  0  0  0  0  0  0  0  0  0
    8.1031  -14.8983   22.9286 C   0  0  1  0  0  0  0  0  0  0  0  0
    6.8007  -14.9039   23.7035 C   0  0  0  0  0  0  0  0  0  0  0  0
    6.7113  -13.8292   24.6911 C   0  0  0  0  0  0  0  0  0  0  0  0
    7.1359  -12.5604   24.3791 C   0  0  0  0  0  0  0  0  0  0  0  0
    7.0711  -11.5111   25.2809 C   0  0  0  0  0  0  0  0  0  0  0  0
    6.5654  -11.7323   26.5389 C   0  0  0  0  0  0  0  0  0  0  0  0
    6.1335  -12.9900   26.8791 C   0  0  0  0  0  0  0  0  0  0  0  0
    6.2060  -14.0381   25.9564 C   0  0  0  0  0  0  0  0  0  0  0  0
    9.2038  -14.9619   23.9367 C   0  0  0  0  0  0  0  0  0  0  0  0
    9.5829  -13.9438   24.5808 O   0  0  0  0  0  0  0  0  0  0  0  0
   11.7671  -16.5011   31.8036 O   0  0  0  0  0  0  0  0  0  0  0  0
   11.2266  -16.4403   30.5158 C   0  0  0  0  0  0  0  0  0  0  0  0
   11.2794  -15.2547   29.8193 C   0  0  0  0  0  0  0  0  0  0  0  0
   10.7411  -15.1970   28.5384 C   0  0  0  0  0  0  0  0  0  0  0  0
   10.1580  -16.2798   27.9418 C   0  0  0  0  0  0  0  0  0  0  0  0
    9.5908  -16.1868   26.5843 C   0  0  0  0  0  0  0  0  0  0  0  0
   10.5937  -16.3395   25.4792 C   0  0  2  0  0  0  0  0  0  0  0  0
    9.8825  -16.1857   24.2202 N   0  0  0  0  0  0  0  0  0  0  0  0
   11.2425  -17.6722   25.4867 C   0  0  0  0  0  0  0  0  0  0  0  0
   12.1504  -17.9660   24.6353 O   0  0  0  0  0  0  0  0  0  0  0  0
   10.1076  -17.4615   28.6408 C   0  0  0  0  0  0  0  0  0  0  0  0
   10.6435  -17.5369   29.9279 C   0  0  0  0  0  0  0  0  0  0  0  0
   10.9355  -18.6807   26.3834 O   0  0  0  0  0  0  0  0  0  0  0  0
  2  1  1  6
  2  3  1  0
  4  2  1  0
  4  5  1  6
  6  4  1  0
  6  7  2  0
  8  6  1  0
  9  8  1  0
  9 10  1  1
 10 11  1  0
 11 12  2  0
 12 13  1  0
 14 13  2  0
 15 14  1  0
 16 11  1  0
 16 15  2  0
 17  9  1  0
 18 17  2  0
 20 19  1  0
 20 30  2  0
 21 20  1  0
 22 21  2  0
 22 23  1  0
 23 29  2  0
 24 23  1  0
 25 26  1  0
 25 24  1  1
 26 17  1  0
 27 25  1  0
 28 27  2  0
 29 30  1  0
 31 27  1  0
M  END
$$$$
