DFQ.pdb
     RDKit          3D

 29 29  0  0  1  0  0  0  0  0999 V2000
    9.1517  -17.7971   20.8647 N   0  0  0  0  0  0  0  0  0  0  0  0
   10.4096  -17.1945   21.2621 C   0  0  1  0  0  0  0  0  0  0  0  0
   11.1494  -16.7468   20.0472 C   0  0  0  0  0  0  0  0  0  0  0  0
   11.2074  -17.8709   19.0838 C   0  0  0  0  0  0  0  0  0  0  0  0
   11.6433  -19.0260   19.4049 O   0  0  0  0  0  0  0  0  0  0  0  0
   10.1780  -16.0709   22.2274 C   0  0  0  0  0  0  0  0  0  0  0  0
   11.1051  -15.3099   22.6100 O   0  0  0  0  0  0  0  0  0  0  0  0
   10.7837  -17.7063   17.7780 O   0  0  0  0  0  0  0  0  0  0  0  0
    8.8802  -15.8104   22.7623 N   0  0  0  0  0  0  0  0  0  0  0  0
    8.6458  -14.8353   23.7954 C   0  0  1  0  0  0  0  0  0  0  0  0
    7.2124  -14.3560   23.8176 C   0  0  0  0  0  0  0  0  0  0  0  0
    6.9588  -13.4572   24.9624 C   0  0  0  0  0  0  0  0  0  0  0  0
    7.5526  -12.2166   24.9779 C   0  0  0  0  0  0  0  0  0  0  0  0
    7.3506  -11.3231   26.0327 C   0  0  0  0  0  0  0  0  0  0  0  0
    6.5403  -11.6892   27.0807 C   0  0  0  0  0  0  0  0  0  0  0  0
    5.9401  -12.9264   27.0786 C   0  0  0  0  0  0  0  0  0  0  0  0
    6.1517  -13.8071   26.0182 C   0  0  0  0  0  0  0  0  0  0  0  0
    9.0890  -15.3702   25.0903 C   0  0  0  0  0  0  0  0  0  0  0  0
    9.1055  -14.5501   26.0740 O   0  0  0  0  0  0  0  0  0  0  0  0
    7.8461  -20.5380   28.0010 N   0  0  0  0  0  0  0  0  0  0  0  0
    8.9115  -20.0543   28.7920 C   0  0  0  0  0  0  0  0  0  0  0  0
    9.2119  -20.6430   29.8539 O   0  0  0  0  0  0  0  0  0  0  0  0
    9.6780  -18.8619   28.3842 C   0  0  0  0  0  0  0  0  0  0  0  0
    9.1416  -18.3364   27.0938 C   0  0  0  0  0  0  0  0  0  0  0  0
    9.9037  -17.1219   26.6009 C   0  0  2  0  0  0  0  0  0  0  0  0
    9.4868  -16.7229   25.2811 N   0  0  0  0  0  0  0  0  0  0  0  0
   11.3318  -17.5192   26.5309 C   0  0  0  0  0  0  0  0  0  0  0  0
   11.8375  -17.8414   25.4338 O   0  0  0  0  0  0  0  0  0  0  0  0
   12.1176  -17.5398   27.6626 O   0  0  0  0  0  0  0  0  0  0  0  0
  2  1  1  6
  2  6  1  0
  2  3  1  0
  4  3  1  0
  4  8  1  0
  5  4  2  0
  6  7  2  0
  9 10  1  0
  9  6  1  0
 11 12  1  0
 10 11  1  1
 12 17  2  0
 13 14  2  0
 13 12  1  0
 14 15  1  0
 15 16  2  0
 17 16  1  0
 18 10  1  0
 19 18  2  0
 20 21  1  0
 21 22  2  0
 23 21  1  0
 23 24  1  0
 25 24  1  6
 25 26  1  0
 25 27  1  0
 26 18  1  0
 27 29  1  0
 28 27  2  0
M  END
$$$$
