DFQ.pdb
     RDKit          3D

 29 29  0  0  1  0  0  0  0  0999 V2000
    9.7240  -16.4369   18.9781 N   0  0  0  0  0  0  0  0  0  0  0  0
    8.8615  -16.9135   20.0423 C   0  0  1  0  0  0  0  0  0  0  0  0
    9.1130  -18.3655   20.2701 C   0  0  0  0  0  0  0  0  0  0  0  0
    8.8137  -19.1025   19.0201 C   0  0  0  0  0  0  0  0  0  0  0  0
    7.7928  -18.8436   18.3002 O   0  0  0  0  0  0  0  0  0  0  0  0
    9.0602  -16.1044   21.2887 C   0  0  0  0  0  0  0  0  0  0  0  0
   10.1950  -15.9322   21.8061 O   0  0  0  0  0  0  0  0  0  0  0  0
    9.6447  -20.1162   18.5800 O   0  0  0  0  0  0  0  0  0  0  0  0
    7.9582  -15.4855   21.9528 N   0  0  0  0  0  0  0  0  0  0  0  0
    8.0916  -14.8098   23.2172 C   0  0  1  0  0  0  0  0  0  0  0  0
    6.8890  -13.9527   23.5395 C   0  0  0  0  0  0  0  0  0  0  0  0
    6.9787  -13.3816   24.8991 C   0  0  0  0  0  0  0  0  0  0  0  0
    7.7970  -12.2966   25.1118 C   0  0  0  0  0  0  0  0  0  0  0  0
    7.9230  -11.7131   26.3749 C   0  0  0  0  0  0  0  0  0  0  0  0
    7.2143  -12.2329   27.4315 C   0  0  0  0  0  0  0  0  0  0  0  0
    6.3924  -13.3175   27.2336 C   0  0  0  0  0  0  0  0  0  0  0  0
    6.2774  -13.8887   25.9665 C   0  0  0  0  0  0  0  0  0  0  0  0
    8.3948  -15.7876   24.2712 C   0  0  0  0  0  0  0  0  0  0  0  0
    7.5842  -16.7722   24.3903 O   0  0  0  0  0  0  0  0  0  0  0  0
   14.3134  -17.2905   25.2067 N   0  0  0  0  0  0  0  0  0  0  0  0
   13.4072  -18.0484   25.9807 C   0  0  0  0  0  0  0  0  0  0  0  0
   13.6419  -19.2566   26.2033 O   0  0  0  0  0  0  0  0  0  0  0  0
   12.1843  -17.4355   26.5327 C   0  0  0  0  0  0  0  0  0  0  0  0
   11.0792  -17.5304   25.5332 C   0  0  0  0  0  0  0  0  0  0  0  0
    9.8268  -16.8038   25.9832 C   0  0  2  0  0  0  0  0  0  0  0  0
    9.5207  -15.6809   25.1345 N   0  0  0  0  0  0  0  0  0  0  0  0
   10.1050  -16.2871   27.3461 C   0  0  0  0  0  0  0  0  0  0  0  0
   10.3920  -15.0813   27.5105 O   0  0  0  0  0  0  0  0  0  0  0  0
   10.0524  -17.1189   28.4434 O   0  0  0  0  0  0  0  0  0  0  0  0
  2  1  1  6
  2  6  1  0
  2  3  1  0
  4  3  1  0
  4  8  1  0
  5  4  2  0
  6  7  2  0
  9 10  1  0
  9  6  1  0
 11 12  1  0
 10 11  1  1
 12 17  2  0
 13 14  2  0
 13 12  1  0
 14 15  1  0
 15 16  2  0
 17 16  1  0
 18 10  1  0
 19 18  2  0
 20 21  1  0
 21 22  2  0
 23 21  1  0
 23 24  1  0
 25 24  1  6
 25 26  1  0
 25 27  1  0
 26 18  1  0
 27 29  1  0
 28 27  2  0
M  END
$$$$
