DFQ.pdb
     RDKit          3D

 29 29  0  0  1  0  0  0  0  0999 V2000
    9.9273  -16.2279   19.4489 N   0  0  0  0  0  0  0  0  0  0  0  0
    9.7904  -17.0317   20.6483 C   0  0  1  0  0  0  0  0  0  0  0  0
   10.8822  -18.0464   20.6912 C   0  0  0  0  0  0  0  0  0  0  0  0
   10.2885  -19.3924   20.5151 C   0  0  0  0  0  0  0  0  0  0  0  0
    9.1857  -19.7310   21.0598 O   0  0  0  0  0  0  0  0  0  0  0  0
    9.7792  -16.1634   21.8705 C   0  0  0  0  0  0  0  0  0  0  0  0
   10.8349  -15.7040   22.3800 O   0  0  0  0  0  0  0  0  0  0  0  0
   10.9192  -20.3482   19.7401 O   0  0  0  0  0  0  0  0  0  0  0  0
    8.5562  -15.8145   22.5193 N   0  0  0  0  0  0  0  0  0  0  0  0
    8.5023  -14.9307   23.6547 C   0  0  1  0  0  0  0  0  0  0  0  0
    7.1729  -14.2199   23.7660 C   0  0  0  0  0  0  0  0  0  0  0  0
    7.0785  -13.4392   25.0168 C   0  0  0  0  0  0  0  0  0  0  0  0
    7.7990  -12.2729   25.1285 C   0  0  0  0  0  0  0  0  0  0  0  0
    7.7502  -11.4922   26.2861 C   0  0  0  0  0  0  0  0  0  0  0  0
    6.9651  -11.8962   27.3392 C   0  0  0  0  0  0  0  0  0  0  0  0
    6.2393  -13.0601   27.2416 C   0  0  0  0  0  0  0  0  0  0  0  0
    6.2986  -13.8285   26.0793 C   0  0  0  0  0  0  0  0  0  0  0  0
    8.8586  -15.6694   24.8739 C   0  0  0  0  0  0  0  0  0  0  0  0
    8.2052  -16.7470   25.1030 O   0  0  0  0  0  0  0  0  0  0  0  0
   14.0653  -17.8168   25.7398 N   0  0  0  0  0  0  0  0  0  0  0  0
   13.5447  -18.1643   27.0058 C   0  0  0  0  0  0  0  0  0  0  0  0
   14.1229  -19.0318   27.6968 O   0  0  0  0  0  0  0  0  0  0  0  0
   12.3258  -17.5181   27.5277 C   0  0  0  0  0  0  0  0  0  0  0  0
   11.8161  -16.5284   26.5328 C   0  0  0  0  0  0  0  0  0  0  0  0
   10.3530  -16.1926   26.7466 C   0  0  2  0  0  0  0  0  0  0  0  0
    9.8710  -15.2420   25.7776 N   0  0  0  0  0  0  0  0  0  0  0  0
   10.2547  -15.5693   28.0897 C   0  0  0  0  0  0  0  0  0  0  0  0
    9.9575  -14.3596   28.1968 O   0  0  0  0  0  0  0  0  0  0  0  0
   10.4871  -16.3056   29.2310 O   0  0  0  0  0  0  0  0  0  0  0  0
  2  1  1  6
  2  6  1  0
  2  3  1  0
  4  3  1  0
  4  8  1  0
  5  4  2  0
  6  7  2  0
  9 10  1  0
  9  6  1  0
 11 12  1  0
 10 11  1  1
 12 17  2  0
 13 14  2  0
 13 12  1  0
 14 15  1  0
 15 16  2  0
 17 16  1  0
 18 10  1  0
 19 18  2  0
 20 21  1  0
 21 22  2  0
 23 21  1  0
 23 24  1  0
 25 24  1  6
 25 26  1  0
 25 27  1  0
 26 18  1  0
 27 29  1  0
 28 27  2  0
M  END
$$$$
