DFQ.pdb
     RDKit          3D

 29 29  0  0  1  0  0  0  0  0999 V2000
   10.6417  -16.4299   19.6799 N   0  0  0  0  0  0  0  0  0  0  0  0
    9.4712  -16.7957   20.4541 C   0  0  1  0  0  0  0  0  0  0  0  0
    9.4071  -18.2800   20.5827 C   0  0  0  0  0  0  0  0  0  0  0  0
    9.3846  -18.8750   19.2260 C   0  0  0  0  0  0  0  0  0  0  0  0
    8.3083  -19.0065   18.5538 O   0  0  0  0  0  0  0  0  0  0  0  0
    9.4839  -16.1140   21.7894 C   0  0  0  0  0  0  0  0  0  0  0  0
   10.4865  -16.1421   22.5503 O   0  0  0  0  0  0  0  0  0  0  0  0
   10.5500  -19.3176   18.6280 O   0  0  0  0  0  0  0  0  0  0  0  0
    8.3460  -15.3938   22.2635 N   0  0  0  0  0  0  0  0  0  0  0  0
    8.3007  -14.7797   23.5649 C   0  0  1  0  0  0  0  0  0  0  0  0
    7.1866  -13.7649   23.6822 C   0  0  0  0  0  0  0  0  0  0  0  0
    7.1261  -13.1801   25.0376 C   0  0  0  0  0  0  0  0  0  0  0  0
    6.2134  -13.6797   25.9372 C   0  0  0  0  0  0  0  0  0  0  0  0
    6.1093  -13.1678   27.2329 C   0  0  0  0  0  0  0  0  0  0  0  0
    6.9367  -12.1412   27.6207 C   0  0  0  0  0  0  0  0  0  0  0  0
    7.8540  -11.6317   26.7319 C   0  0  0  0  0  0  0  0  0  0  0  0
    7.9456  -12.1536   25.4418 C   0  0  0  0  0  0  0  0  0  0  0  0
    8.2369  -15.8199   24.6009 C   0  0  0  0  0  0  0  0  0  0  0  0
    7.4577  -16.8103   24.3717 O   0  0  0  0  0  0  0  0  0  0  0  0
   12.1263  -18.9704   23.6045 N   0  0  0  0  0  0  0  0  0  0  0  0
   12.1684  -19.3616   24.9609 C   0  0  0  0  0  0  0  0  0  0  0  0
   13.0314  -20.1824   25.3426 O   0  0  0  0  0  0  0  0  0  0  0  0
   11.2075  -18.8154   25.9377 C   0  0  0  0  0  0  0  0  0  0  0  0
   10.5367  -17.6114   25.3638 C   0  0  0  0  0  0  0  0  0  0  0  0
    9.5317  -16.9973   26.3188 C   0  0  2  0  0  0  0  0  0  0  0  0
    8.9866  -15.7653   25.8089 N   0  0  0  0  0  0  0  0  0  0  0  0
   10.2700  -16.6903   27.5688 C   0  0  0  0  0  0  0  0  0  0  0  0
   10.3921  -17.5656   28.4532 O   0  0  0  0  0  0  0  0  0  0  0  0
   10.8285  -15.4475   27.7747 O   0  0  0  0  0  0  0  0  0  0  0  0
  2  1  1  1
  2  6  1  0
  2  3  1  0
  4  3  1  0
  4  8  1  0
  5  4  2  0
  6  7  2  0
  9 10  1  0
  9  6  1  0
 11 12  1  0
 10 11  1  6
 12 17  2  0
 13 14  2  0
 13 12  1  0
 14 15  1  0
 15 16  2  0
 17 16  1  0
 18 10  1  0
 19 18  2  0
 20 21  1  0
 21 22  2  0
 23 21  1  0
 23 24  1  0
 25 24  1  6
 25 26  1  0
 25 27  1  0
 26 18  1  0
 27 29  1  0
 28 27  2  0
M  END
$$$$
