DFQ.pdb
     RDKit          3D

 29 29  0  0  1  0  0  0  0  0999 V2000
    8.7217  -17.4857   20.1540 N   0  0  0  0  0  0  0  0  0  0  0  0
   10.0542  -17.0149   20.4797 C   0  0  1  0  0  0  0  0  0  0  0  0
   10.6524  -16.3561   19.2831 C   0  0  0  0  0  0  0  0  0  0  0  0
   10.7919  -17.3629   18.2051 C   0  0  0  0  0  0  0  0  0  0  0  0
    9.8092  -17.7283   17.4782 O   0  0  0  0  0  0  0  0  0  0  0  0
   10.0184  -16.1010   21.6677 C   0  0  0  0  0  0  0  0  0  0  0  0
   11.0613  -15.5987   22.1627 O   0  0  0  0  0  0  0  0  0  0  0  0
   12.0139  -17.9541   17.9427 O   0  0  0  0  0  0  0  0  0  0  0  0
    8.7851  -15.7553   22.2985 N   0  0  0  0  0  0  0  0  0  0  0  0
    8.7177  -14.9238   23.4721 C   0  0  1  0  0  0  0  0  0  0  0  0
    7.3677  -14.2624   23.6299 C   0  0  0  0  0  0  0  0  0  0  0  0
    7.3131  -13.4247   24.8457 C   0  0  0  0  0  0  0  0  0  0  0  0
    6.5423  -13.8413   25.9060 C   0  0  0  0  0  0  0  0  0  0  0  0
    6.4511  -13.0922   27.0817 C   0  0  0  0  0  0  0  0  0  0  0  0
    7.1465  -11.9112   27.1843 C   0  0  0  0  0  0  0  0  0  0  0  0
    7.9212  -11.4823   26.1322 C   0  0  0  0  0  0  0  0  0  0  0  0
    8.0019  -12.2415   24.9652 C   0  0  0  0  0  0  0  0  0  0  0  0
    9.1135  -15.7026   24.6535 C   0  0  0  0  0  0  0  0  0  0  0  0
    8.5556  -16.8463   24.7997 O   0  0  0  0  0  0  0  0  0  0  0  0
   14.8354  -18.6751   25.9085 N   0  0  0  0  0  0  0  0  0  0  0  0
   14.4113  -17.3348   26.0443 C   0  0  0  0  0  0  0  0  0  0  0  0
   15.0805  -16.4171   25.5206 O   0  0  0  0  0  0  0  0  0  0  0  0
   13.1877  -16.9992   26.7965 C   0  0  0  0  0  0  0  0  0  0  0  0
   12.3388  -16.0741   25.9887 C   0  0  0  0  0  0  0  0  0  0  0  0
   10.8612  -16.2305   26.2909 C   0  0  2  0  0  0  0  0  0  0  0  0
   10.0639  -15.2442   25.6080 N   0  0  0  0  0  0  0  0  0  0  0  0
   10.7040  -16.0175   27.7510 C   0  0  0  0  0  0  0  0  0  0  0  0
   10.1718  -14.9687   28.1756 O   0  0  0  0  0  0  0  0  0  0  0  0
   11.1375  -16.9623   28.6555 O   0  0  0  0  0  0  0  0  0  0  0  0
  2  1  1  6
  2  6  1  0
  2  3  1  0
  4  3  1  0
  4  8  1  0
  5  4  2  0
  6  7  2  0
  9 10  1  0
  9  6  1  0
 11 12  1  0
 10 11  1  1
 12 17  2  0
 13 14  2  0
 13 12  1  0
 14 15  1  0
 15 16  2  0
 17 16  1  0
 18 10  1  0
 19 18  2  0
 20 21  1  0
 21 22  2  0
 23 21  1  0
 23 24  1  0
 25 24  1  6
 25 26  1  0
 25 27  1  0
 26 18  1  0
 27 29  1  0
 28 27  2  0
M  END
$$$$
