DFQ.pdb
     RDKit          3D

 29 29  0  0  1  0  0  0  0  0999 V2000
   10.4175  -16.8530   19.7353 N   0  0  0  0  0  0  0  0  0  0  0  0
    9.2839  -17.1582   20.5870 C   0  0  1  0  0  0  0  0  0  0  0  0
    9.2436  -18.6254   20.8500 C   0  0  0  0  0  0  0  0  0  0  0  0
    8.9937  -19.3317   19.5718 C   0  0  0  0  0  0  0  0  0  0  0  0
    8.0587  -18.9919   18.7731 O   0  0  0  0  0  0  0  0  0  0  0  0
    9.3422  -16.3594   21.8544 C   0  0  0  0  0  0  0  0  0  0  0  0
   10.3400  -16.3858   22.6217 O   0  0  0  0  0  0  0  0  0  0  0  0
    9.7785  -20.4044   19.1908 O   0  0  0  0  0  0  0  0  0  0  0  0
    8.2559  -15.5231   22.2527 N   0  0  0  0  0  0  0  0  0  0  0  0
    8.2484  -14.7965   23.4957 C   0  0  1  0  0  0  0  0  0  0  0  0
    7.1749  -13.7330   23.5324 C   0  0  0  0  0  0  0  0  0  0  0  0
    7.1297  -13.0530   24.8433 C   0  0  0  0  0  0  0  0  0  0  0  0
    8.1902  -12.2615   25.2185 C   0  0  0  0  0  0  0  0  0  0  0  0
    8.2049  -11.5934   26.4454 C   0  0  0  0  0  0  0  0  0  0  0  0
    7.1365  -11.7280   27.2992 C   0  0  0  0  0  0  0  0  0  0  0  0
    6.0693  -12.5161   26.9373 C   0  0  0  0  0  0  0  0  0  0  0  0
    6.0697  -13.1766   25.7090 C   0  0  0  0  0  0  0  0  0  0  0  0
    8.1569  -15.7391   24.6193 C   0  0  0  0  0  0  0  0  0  0  0  0
    7.1360  -16.5123   24.6372 O   0  0  0  0  0  0  0  0  0  0  0  0
   10.1882  -20.5739   24.9206 N   0  0  0  0  0  0  0  0  0  0  0  0
   11.1661  -19.5587   25.0098 C   0  0  0  0  0  0  0  0  0  0  0  0
   12.3138  -19.7622   24.5560 O   0  0  0  0  0  0  0  0  0  0  0  0
   10.8543  -18.2581   25.6316 C   0  0  0  0  0  0  0  0  0  0  0  0
    9.4161  -18.2238   26.0313 C   0  0  0  0  0  0  0  0  0  0  0  0
    9.0080  -16.8846   26.6136 C   0  0  2  0  0  0  0  0  0  0  0  0
    9.1317  -15.8188   25.6526 N   0  0  0  0  0  0  0  0  0  0  0  0
    9.9445  -16.6069   27.7306 C   0  0  0  0  0  0  0  0  0  0  0  0
   10.7220  -15.6299   27.6657 O   0  0  0  0  0  0  0  0  0  0  0  0
    9.9733  -17.4129   28.8479 O   0  0  0  0  0  0  0  0  0  0  0  0
  2  1  1  6
  2  6  1  0
  2  3  1  0
  4  3  1  0
  4  8  1  0
  5  4  2  0
  6  7  2  0
  9 10  1  0
  9  6  1  0
 11 12  1  0
 10 11  1  6
 12 17  2  0
 13 14  2  0
 13 12  1  0
 14 15  1  0
 15 16  2  0
 17 16  1  0
 18 10  1  0
 19 18  2  0
 20 21  1  0
 21 22  2  0
 23 21  1  0
 23 24  1  0
 25 24  1  6
 25 26  1  0
 25 27  1  0
 26 18  1  0
 27 29  1  0
 28 27  2  0
M  END
$$$$
