DFQ.pdb
     RDKit          3D

 29 29  0  0  1  0  0  0  0  0999 V2000
    9.0425  -18.3739   18.3188 N   0  0  0  0  0  0  0  0  0  0  0  0
   10.4162  -17.9656   18.5417 C   0  0  1  0  0  0  0  0  0  0  0  0
   10.8810  -17.1423   17.3885 C   0  0  0  0  0  0  0  0  0  0  0  0
   11.1391  -18.0383   16.2371 C   0  0  0  0  0  0  0  0  0  0  0  0
   11.5264  -17.6014   15.1028 O   0  0  0  0  0  0  0  0  0  0  0  0
   10.5480  -17.2360   19.8449 C   0  0  0  0  0  0  0  0  0  0  0  0
   11.6275  -16.7018   20.2114 O   0  0  0  0  0  0  0  0  0  0  0  0
   10.9666  -19.4054   16.3517 O   0  0  0  0  0  0  0  0  0  0  0  0
    9.4421  -17.1130   20.7393 N   0  0  0  0  0  0  0  0  0  0  0  0
    9.5094  -16.3523   21.9599 C   0  0  1  0  0  0  0  0  0  0  0  0
    8.1622  -15.8011   22.3677 C   0  0  0  0  0  0  0  0  0  0  0  0
    7.6879  -14.7718   21.4198 C   0  0  0  0  0  0  0  0  0  0  0  0
    8.1625  -13.4866   21.5419 C   0  0  0  0  0  0  0  0  0  0  0  0
    7.7510  -12.4706   20.6757 C   0  0  0  0  0  0  0  0  0  0  0  0
    6.8513  -12.7589   19.6775 C   0  0  0  0  0  0  0  0  0  0  0  0
    6.3684  -14.0394   19.5436 C   0  0  0  0  0  0  0  0  0  0  0  0
    6.7889  -15.0427   20.4164 C   0  0  0  0  0  0  0  0  0  0  0  0
   10.1378  -17.1614   23.0132 C   0  0  0  0  0  0  0  0  0  0  0  0
    9.8227  -18.4025   23.0477 O   0  0  0  0  0  0  0  0  0  0  0  0
   16.0180  -16.4483   23.7732 N   0  0  0  0  0  0  0  0  0  0  0  0
   15.7979  -17.4753   24.7174 C   0  0  0  0  0  0  0  0  0  0  0  0
   16.7743  -18.0397   25.2581 O   0  0  0  0  0  0  0  0  0  0  0  0
   14.4300  -17.8942   25.0771 C   0  0  0  0  0  0  0  0  0  0  0  0
   13.4378  -17.0732   24.3218 C   0  0  0  0  0  0  0  0  0  0  0  0
   12.0110  -17.5315   24.5521 C   0  0  2  0  0  0  0  0  0  0  0  0
   11.0536  -16.6302   23.9637 N   0  0  0  0  0  0  0  0  0  0  0  0
   11.7994  -17.5314   26.0209 C   0  0  0  0  0  0  0  0  0  0  0  0
   12.4647  -18.3007   26.7479 O   0  0  0  0  0  0  0  0  0  0  0  0
   10.8750  -16.6917   26.6033 O   0  0  0  0  0  0  0  0  0  0  0  0
  2  1  1  6
  2  6  1  0
  2  3  1  0
  4  3  1  0
  4  8  1  0
  5  4  2  0
  6  7  2  0
  9 10  1  0
  9  6  1  0
 11 12  1  0
 10 11  1  1
 12 17  2  0
 13 14  2  0
 13 12  1  0
 14 15  1  0
 15 16  2  0
 17 16  1  0
 18 10  1  0
 19 18  2  0
 20 21  1  0
 21 22  2  0
 23 21  1  0
 23 24  1  0
 25 24  1  1
 25 26  1  0
 25 27  1  0
 26 18  1  0
 27 29  1  0
 28 27  2  0
M  END
$$$$
