DFQ.pdb
     RDKit          3D

 29 29  0  0  1  0  0  0  0  0999 V2000
    9.4307  -17.1175   20.1672 N   0  0  0  0  0  0  0  0  0  0  0  0
   10.5600  -17.1941   21.0741 C   0  0  1  0  0  0  0  0  0  0  0  0
   11.8056  -16.8175   20.3459 C   0  0  0  0  0  0  0  0  0  0  0  0
   11.9155  -17.6523   19.1268 C   0  0  0  0  0  0  0  0  0  0  0  0
   12.2738  -18.8761   19.1650 O   0  0  0  0  0  0  0  0  0  0  0  0
   10.3305  -16.3347   22.2809 C   0  0  0  0  0  0  0  0  0  0  0  0
   11.2134  -16.1606   23.1614 O   0  0  0  0  0  0  0  0  0  0  0  0
   11.6285  -17.1263   17.8808 O   0  0  0  0  0  0  0  0  0  0  0  0
    9.0856  -15.6673   22.4883 N   0  0  0  0  0  0  0  0  0  0  0  0
    8.7716  -14.9670   23.7066 C   0  0  1  0  0  0  0  0  0  0  0  0
    7.5978  -14.0288   23.5430 C   0  0  0  0  0  0  0  0  0  0  0  0
    7.2472  -13.3713   24.8188 C   0  0  0  0  0  0  0  0  0  0  0  0
    7.9239  -12.2319   25.1875 C   0  0  0  0  0  0  0  0  0  0  0  0
    7.6370  -11.5660   26.3816 C   0  0  0  0  0  0  0  0  0  0  0  0
    6.6565  -12.0583   27.2094 C   0  0  0  0  0  0  0  0  0  0  0  0
    5.9718  -13.1965   26.8536 C   0  0  0  0  0  0  0  0  0  0  0  0
    6.2699  -13.8499   25.6581 C   0  0  0  0  0  0  0  0  0  0  0  0
    8.5828  -15.9328   24.7978 C   0  0  0  0  0  0  0  0  0  0  0  0
    7.8105  -16.9260   24.5572 O   0  0  0  0  0  0  0  0  0  0  0  0
   12.2541  -19.5158   24.7809 N   0  0  0  0  0  0  0  0  0  0  0  0
   11.9474  -19.8368   26.1216 C   0  0  0  0  0  0  0  0  0  0  0  0
   12.5070  -20.8124   26.6688 O   0  0  0  0  0  0  0  0  0  0  0  0
   10.9744  -19.0370   26.8893 C   0  0  0  0  0  0  0  0  0  0  0  0
   10.5081  -17.8841   26.0631 C   0  0  0  0  0  0  0  0  0  0  0  0
    9.5064  -17.0133   26.7961 C   0  0  2  0  0  0  0  0  0  0  0  0
    9.2083  -15.8059   26.0694 N   0  0  0  0  0  0  0  0  0  0  0  0
   10.1408  -16.6307   28.0819 C   0  0  0  0  0  0  0  0  0  0  0  0
   10.4302  -15.4348   28.3042 O   0  0  0  0  0  0  0  0  0  0  0  0
   10.4195  -17.5773   29.0437 O   0  0  0  0  0  0  0  0  0  0  0  0
  2  1  1  6
  2  6  1  0
  2  3  1  0
  4  3  1  0
  4  8  1  0
  5  4  2  0
  6  7  2  0
  9 10  1  0
  9  6  1  0
 11 12  1  0
 10 11  1  6
 12 17  2  0
 13 14  2  0
 13 12  1  0
 14 15  1  0
 15 16  2  0
 17 16  1  0
 18 10  1  0
 19 18  2  0
 20 21  1  0
 21 22  2  0
 23 21  1  0
 23 24  1  0
 25 24  1  6
 25 26  1  0
 25 27  1  0
 26 18  1  0
 27 29  1  0
 28 27  2  0
M  END
$$$$
