DFQ.pdb
     RDKit          3D

 29 29  0  0  1  0  0  0  0  0999 V2000
   10.4747  -16.6403   19.6138 N   0  0  0  0  0  0  0  0  0  0  0  0
    9.3396  -16.9768   20.4514 C   0  0  1  0  0  0  0  0  0  0  0  0
    9.2886  -18.4544   20.6454 C   0  0  0  0  0  0  0  0  0  0  0  0
    9.0254  -19.0977   19.3369 C   0  0  0  0  0  0  0  0  0  0  0  0
    7.8463  -19.2523   18.8748 O   0  0  0  0  0  0  0  0  0  0  0  0
    9.4047  -16.2389   21.7549 C   0  0  0  0  0  0  0  0  0  0  0  0
   10.4485  -16.2045   22.4579 O   0  0  0  0  0  0  0  0  0  0  0  0
   10.0664  -19.5623   18.5545 O   0  0  0  0  0  0  0  0  0  0  0  0
    8.2722  -15.5338   22.2635 N   0  0  0  0  0  0  0  0  0  0  0  0
    8.2912  -14.8362   23.5229 C   0  0  1  0  0  0  0  0  0  0  0  0
    7.2263  -13.7664   23.6026 C   0  0  0  0  0  0  0  0  0  0  0  0
    7.1995  -13.1259   24.9336 C   0  0  0  0  0  0  0  0  0  0  0  0
    6.2952  -13.5731   25.8686 C   0  0  0  0  0  0  0  0  0  0  0  0
    6.2226  -13.0070   27.1438 C   0  0  0  0  0  0  0  0  0  0  0  0
    7.0731  -11.9795   27.4748 C   0  0  0  0  0  0  0  0  0  0  0  0
    7.9823  -11.5221   26.5501 C   0  0  0  0  0  0  0  0  0  0  0  0
    8.0424  -12.0976   25.2812 C   0  0  0  0  0  0  0  0  0  0  0  0
    8.2120  -15.8039   24.6258 C   0  0  0  0  0  0  0  0  0  0  0  0
    7.2889  -16.6885   24.5472 O   0  0  0  0  0  0  0  0  0  0  0  0
   11.2254  -20.0070   24.1647 N   0  0  0  0  0  0  0  0  0  0  0  0
   12.0410  -19.1231   24.9051 C   0  0  0  0  0  0  0  0  0  0  0  0
   13.2857  -19.2036   24.8122 O   0  0  0  0  0  0  0  0  0  0  0  0
   11.4460  -18.1031   25.7891 C   0  0  0  0  0  0  0  0  0  0  0  0
    9.9647  -18.0801   25.6044 C   0  0  0  0  0  0  0  0  0  0  0  0
    9.2903  -17.0247   26.4590 C   0  0  2  0  0  0  0  0  0  0  0  0
    9.0966  -15.7917   25.7400 N   0  0  0  0  0  0  0  0  0  0  0  0
   10.2046  -16.7546   27.5961 C   0  0  0  0  0  0  0  0  0  0  0  0
   10.4655  -17.6610   28.4169 O   0  0  0  0  0  0  0  0  0  0  0  0
   10.7765  -15.5125   27.7656 O   0  0  0  0  0  0  0  0  0  0  0  0
  2  1  1  6
  2  6  1  0
  2  3  1  0
  4  3  1  0
  4  8  1  0
  5  4  2  0
  6  7  2  0
  9 10  1  0
  9  6  1  0
 11 12  1  0
 10 11  1  6
 12 17  2  0
 13 14  2  0
 13 12  1  0
 14 15  1  0
 15 16  2  0
 17 16  1  0
 18 10  1  0
 19 18  2  0
 20 21  1  0
 21 22  2  0
 23 21  1  0
 23 24  1  0
 25 24  1  6
 25 26  1  0
 25 27  1  0
 26 18  1  0
 27 29  1  0
 28 27  2  0
M  END
$$$$
