DFQ.pdb
     RDKit          3D

 29 29  0  0  1  0  0  0  0  0999 V2000
    9.2463  -16.1619   18.9718 N   0  0  0  0  0  0  0  0  0  0  0  0
    8.5801  -16.7510   20.1175 C   0  0  1  0  0  0  0  0  0  0  0  0
    8.9922  -18.1780   20.2496 C   0  0  0  0  0  0  0  0  0  0  0  0
    8.5397  -18.9176   19.0482 C   0  0  0  0  0  0  0  0  0  0  0  0
    7.3908  -18.7352   18.5243 O   0  0  0  0  0  0  0  0  0  0  0  0
    8.8670  -15.9637   21.3608 C   0  0  0  0  0  0  0  0  0  0  0  0
   10.0339  -15.6215   21.6869 O   0  0  0  0  0  0  0  0  0  0  0  0
    9.3604  -19.8492   18.4398 O   0  0  0  0  0  0  0  0  0  0  0  0
    7.8173  -15.5622   22.2412 N   0  0  0  0  0  0  0  0  0  0  0  0
    8.0599  -14.8394   23.4626 C   0  0  1  0  0  0  0  0  0  0  0  0
    6.8264  -14.1201   23.9584 C   0  0  0  0  0  0  0  0  0  0  0  0
    7.0673  -13.4651   25.2606 C   0  0  0  0  0  0  0  0  0  0  0  0
    7.5268  -12.1687   25.2778 C   0  0  0  0  0  0  0  0  0  0  0  0
    7.7729  -11.4968   26.4777 C   0  0  0  0  0  0  0  0  0  0  0  0
    7.5518  -12.1433   27.6702 C   0  0  0  0  0  0  0  0  0  0  0  0
    7.0924  -13.4394   27.6682 C   0  0  0  0  0  0  0  0  0  0  0  0
    6.8515  -14.0966   26.4619 C   0  0  0  0  0  0  0  0  0  0  0  0
    8.6356  -15.7443   24.4670 C   0  0  0  0  0  0  0  0  0  0  0  0
    8.0496  -16.8722   24.6255 O   0  0  0  0  0  0  0  0  0  0  0  0
   13.9494  -16.5804   23.6660 N   0  0  0  0  0  0  0  0  0  0  0  0
   14.0496  -16.0167   24.9571 C   0  0  0  0  0  0  0  0  0  0  0  0
   15.1017  -15.4328   25.2985 O   0  0  0  0  0  0  0  0  0  0  0  0
   12.9293  -16.1059   25.9124 C   0  0  0  0  0  0  0  0  0  0  0  0
   11.7873  -16.8318   25.2816 C   0  0  0  0  0  0  0  0  0  0  0  0
   10.4577  -16.4935   25.9273 C   0  0  2  0  0  0  0  0  0  0  0  0
    9.7835  -15.4204   25.2427 N   0  0  0  0  0  0  0  0  0  0  0  0
   10.7618  -16.0390   27.3068 C   0  0  0  0  0  0  0  0  0  0  0  0
   10.5033  -14.8645   27.6487 O   0  0  0  0  0  0  0  0  0  0  0  0
   11.3288  -16.8949   28.2258 O   0  0  0  0  0  0  0  0  0  0  0  0
  2  1  1  6
  2  6  1  0
  2  3  1  0
  4  3  1  0
  4  8  1  0
  5  4  2  0
  6  7  2  0
  9 10  1  0
  9  6  1  0
 11 12  1  0
 10 11  1  1
 12 17  2  0
 13 14  2  0
 13 12  1  0
 14 15  1  0
 15 16  2  0
 17 16  1  0
 18 10  1  0
 19 18  2  0
 20 21  1  0
 21 22  2  0
 23 21  1  0
 23 24  1  0
 25 24  1  6
 25 26  1  0
 25 27  1  0
 26 18  1  0
 27 29  1  0
 28 27  2  0
M  END
$$$$
