DFQ.pdb
     RDKit          3D

 29 29  0  0  1  0  0  0  0  0999 V2000
    8.4808  -17.0420   19.7849 N   0  0  0  0  0  0  0  0  0  0  0  0
    9.8006  -16.9630   20.3809 C   0  0  1  0  0  0  0  0  0  0  0  0
   10.7706  -16.4536   19.3694 C   0  0  0  0  0  0  0  0  0  0  0  0
   10.8258  -17.4097   18.2389 C   0  0  0  0  0  0  0  0  0  0  0  0
   10.4063  -18.6106   18.3367 O   0  0  0  0  0  0  0  0  0  0  0  0
    9.7751  -16.1130   21.6158 C   0  0  0  0  0  0  0  0  0  0  0  0
   10.8164  -15.8461   22.2712 O   0  0  0  0  0  0  0  0  0  0  0  0
   11.3432  -17.0289   17.0145 O   0  0  0  0  0  0  0  0  0  0  0  0
    8.5543  -15.5617   22.1097 N   0  0  0  0  0  0  0  0  0  0  0  0
    8.4731  -14.8407   23.3533 C   0  0  1  0  0  0  0  0  0  0  0  0
    7.3052  -13.8815   23.3853 C   0  0  0  0  0  0  0  0  0  0  0  0
    7.1973  -13.2019   24.6927 C   0  0  0  0  0  0  0  0  0  0  0  0
    6.2807  -13.6638   25.6084 C   0  0  0  0  0  0  0  0  0  0  0  0
    6.1326  -13.0627   26.8608 C   0  0  0  0  0  0  0  0  0  0  0  0
    6.9196  -11.9847   27.1885 C   0  0  0  0  0  0  0  0  0  0  0  0
    7.8403  -11.5121   26.2829 C   0  0  0  0  0  0  0  0  0  0  0  0
    7.9760  -12.1232   25.0367 C   0  0  0  0  0  0  0  0  0  0  0  0
    8.4637  -15.7893   24.4755 C   0  0  0  0  0  0  0  0  0  0  0  0
    7.4658  -16.5895   24.5415 O   0  0  0  0  0  0  0  0  0  0  0  0
   10.7782  -20.5609   24.7154 N   0  0  0  0  0  0  0  0  0  0  0  0
   11.6366  -19.4446   24.6078 C   0  0  0  0  0  0  0  0  0  0  0  0
   12.7356  -19.5621   24.0223 O   0  0  0  0  0  0  0  0  0  0  0  0
   11.2562  -18.1380   25.1767 C   0  0  0  0  0  0  0  0  0  0  0  0
    9.9057  -18.2374   25.8056 C   0  0  0  0  0  0  0  0  0  0  0  0
    9.4507  -16.9244   26.4123 C   0  0  2  0  0  0  0  0  0  0  0  0
    9.4916  -15.8465   25.4576 N   0  0  0  0  0  0  0  0  0  0  0  0
   10.4070  -16.6091   27.5022 C   0  0  0  0  0  0  0  0  0  0  0  0
   10.5653  -17.4132   28.4465 O   0  0  0  0  0  0  0  0  0  0  0  0
   11.1300  -15.4361   27.4929 O   0  0  0  0  0  0  0  0  0  0  0  0
  2  1  1  6
  2  6  1  0
  2  3  1  0
  4  3  1  0
  4  8  1  0
  5  4  2  0
  6  7  2  0
  9 10  1  0
  9  6  1  0
 11 12  1  0
 10 11  1  6
 12 17  2  0
 13 14  2  0
 13 12  1  0
 14 15  1  0
 15 16  2  0
 17 16  1  0
 18 10  1  0
 19 18  2  0
 20 21  1  0
 21 22  2  0
 23 21  1  0
 23 24  1  0
 25 24  1  6
 25 26  1  0
 25 27  1  0
 26 18  1  0
 27 29  1  0
 28 27  2  0
M  END
$$$$
