DFQ.pdb
     RDKit          3D

 29 29  0  0  1  0  0  0  0  0999 V2000
    8.1463  -17.2211   19.4922 N   0  0  0  0  0  0  0  0  0  0  0  0
    9.5045  -17.1091   19.9885 C   0  0  1  0  0  0  0  0  0  0  0  0
   10.3946  -16.6327   18.8911 C   0  0  0  0  0  0  0  0  0  0  0  0
   10.1688  -17.4767   17.6945 C   0  0  0  0  0  0  0  0  0  0  0  0
   10.0656  -18.7465   17.7618 O   0  0  0  0  0  0  0  0  0  0  0  0
    9.5586  -16.2116   21.1883 C   0  0  0  0  0  0  0  0  0  0  0  0
   10.6432  -15.7703   21.6508 O   0  0  0  0  0  0  0  0  0  0  0  0
   10.0597  -16.9091   16.4385 O   0  0  0  0  0  0  0  0  0  0  0  0
    8.3683  -15.8126   21.8682 N   0  0  0  0  0  0  0  0  0  0  0  0
    8.3886  -15.0667   23.0996 C   0  0  1  0  0  0  0  0  0  0  0  0
    7.0828  -14.3504   23.3583 C   0  0  0  0  0  0  0  0  0  0  0  0
    7.1047  -13.6321   24.6491 C   0  0  0  0  0  0  0  0  0  0  0  0
    7.7072  -12.3973   24.7127 C   0  0  0  0  0  0  0  0  0  0  0  0
    7.7594  -11.6704   25.9046 C   0  0  0  0  0  0  0  0  0  0  0  0
    7.1964  -12.1986   27.0417 C   0  0  0  0  0  0  0  0  0  0  0  0
    6.5907  -13.4321   26.9930 C   0  0  0  0  0  0  0  0  0  0  0  0
    6.5469  -14.1455   25.7954 C   0  0  0  0  0  0  0  0  0  0  0  0
    8.7848  -15.9488   24.2060 C   0  0  0  0  0  0  0  0  0  0  0  0
    8.1861  -17.0787   24.2809 O   0  0  0  0  0  0  0  0  0  0  0  0
   13.9603  -17.8583   24.2314 N   0  0  0  0  0  0  0  0  0  0  0  0
   13.7205  -18.3210   25.5441 C   0  0  0  0  0  0  0  0  0  0  0  0
   14.4206  -19.2454   26.0129 O   0  0  0  0  0  0  0  0  0  0  0  0
   12.6539  -17.7294   26.3736 C   0  0  0  0  0  0  0  0  0  0  0  0
   11.9390  -16.6744   25.5958 C   0  0  0  0  0  0  0  0  0  0  0  0
   10.4458  -16.6718   25.8589 C   0  0  2  0  0  0  0  0  0  0  0  0
    9.7777  -15.6015   25.1639 N   0  0  0  0  0  0  0  0  0  0  0  0
   10.2742  -16.4508   27.3162 C   0  0  0  0  0  0  0  0  0  0  0  0
   10.0458  -15.3010   27.7510 O   0  0  0  0  0  0  0  0  0  0  0  0
   10.3627  -17.4985   28.2069 O   0  0  0  0  0  0  0  0  0  0  0  0
  2  1  1  6
  2  6  1  0
  2  3  1  0
  4  3  1  0
  4  8  1  0
  5  4  2  0
  6  7  2  0
  9 10  1  0
  9  6  1  0
 11 12  1  0
 10 11  1  1
 12 17  2  0
 13 14  2  0
 13 12  1  0
 14 15  1  0
 15 16  2  0
 17 16  1  0
 18 10  1  0
 19 18  2  0
 20 21  1  0
 21 22  2  0
 23 21  1  0
 23 24  1  0
 25 24  1  1
 25 26  1  0
 25 27  1  0
 26 18  1  0
 27 29  1  0
 28 27  2  0
M  END
$$$$
