DFQ.pdb
     RDKit          3D

 29 29  0  0  1  0  0  0  0  0999 V2000
   10.6816  -16.5158   19.8746 N   0  0  0  0  0  0  0  0  0  0  0  0
    9.9769  -17.0738   21.0129 C   0  0  1  0  0  0  0  0  0  0  0  0
   10.6386  -18.3431   21.4307 C   0  0  0  0  0  0  0  0  0  0  0  0
   10.5720  -19.3070   20.3075 C   0  0  0  0  0  0  0  0  0  0  0  0
    9.5000  -19.5176   19.6487 O   0  0  0  0  0  0  0  0  0  0  0  0
    9.9064  -16.0794   22.1328 C   0  0  0  0  0  0  0  0  0  0  0  0
   10.9353  -15.5502   22.6292 O   0  0  0  0  0  0  0  0  0  0  0  0
   11.6890  -20.0266   19.9252 O   0  0  0  0  0  0  0  0  0  0  0  0
    8.6544  -15.6834   22.6931 N   0  0  0  0  0  0  0  0  0  0  0  0
    8.5540  -14.8202   23.8411 C   0  0  1  0  0  0  0  0  0  0  0  0
    7.2008  -14.1542   23.9417 C   0  0  0  0  0  0  0  0  0  0  0  0
    7.0754  -13.3659   25.1849 C   0  0  0  0  0  0  0  0  0  0  0  0
    6.2213  -13.8072   26.1686 C   0  0  0  0  0  0  0  0  0  0  0  0
    6.0605  -13.1049   27.3655 C   0  0  0  0  0  0  0  0  0  0  0  0
    6.7707  -11.9458   27.5678 C   0  0  0  0  0  0  0  0  0  0  0  0
    7.6283  -11.4926   26.5930 C   0  0  0  0  0  0  0  0  0  0  0  0
    7.7778  -12.2051   25.4035 C   0  0  0  0  0  0  0  0  0  0  0  0
    8.9146  -15.5665   25.0544 C   0  0  0  0  0  0  0  0  0  0  0  0
    8.2354  -16.6243   25.3000 O   0  0  0  0  0  0  0  0  0  0  0  0
   14.2936  -16.5492   24.3659 N   0  0  0  0  0  0  0  0  0  0  0  0
   13.9023  -16.3402   25.7068 C   0  0  0  0  0  0  0  0  0  0  0  0
   14.6493  -16.7178   26.6363 O   0  0  0  0  0  0  0  0  0  0  0  0
   12.6226  -15.6815   26.0294 C   0  0  0  0  0  0  0  0  0  0  0  0
   11.7383  -16.6337   26.7645 C   0  0  0  0  0  0  0  0  0  0  0  0
   10.3432  -16.0805   26.9803 C   0  0  2  0  0  0  0  0  0  0  0  0
    9.9580  -15.1669   25.9353 N   0  0  0  0  0  0  0  0  0  0  0  0
   10.3807  -15.3271   28.2582 C   0  0  0  0  0  0  0  0  0  0  0  0
   10.6706  -15.9161   29.3223 O   0  0  0  0  0  0  0  0  0  0  0  0
   10.0993  -13.9787   28.2941 O   0  0  0  0  0  0  0  0  0  0  0  0
  2  1  1  6
  2  6  1  0
  2  3  1  0
  4  3  1  0
  4  8  1  0
  5  4  2  0
  6  7  2  0
  9 10  1  0
  9  6  1  0
 11 12  1  0
 10 11  1  1
 12 17  2  0
 13 14  2  0
 13 12  1  0
 14 15  1  0
 15 16  2  0
 17 16  1  0
 18 10  1  0
 19 18  2  0
 20 21  1  0
 21 22  2  0
 23 21  1  0
 23 24  1  0
 25 24  1  6
 25 26  1  0
 25 27  1  0
 26 18  1  0
 27 29  1  0
 28 27  2  0
M  END
$$$$
