SQA.pdb
     RDKit          3D

 21 20  0  0  1  0  0  0  0  0999 V2000
    7.7778  -14.0356   17.2776 O   0  0  0  0  0  0  0  0  0  0  0  0
    7.4172  -12.9885   18.1108 C   0  0  0  0  0  0  0  0  0  0  0  0
    8.5122  -12.8382   19.1456 C   0  0  2  0  0  0  0  0  0  0  0  0
    9.8173  -12.7807   18.5675 N   0  0  0  0  0  0  0  0  0  0  0  0
    8.4106  -14.0003   20.0928 C   0  0  0  0  0  0  0  0  0  0  0  0
    7.3313  -14.2430   20.7099 O   0  0  0  0  0  0  0  0  0  0  0  0
   11.7077  -19.6100   19.5760 N   0  0  0  0  0  0  0  0  0  0  0  0
   11.7296  -19.1176   20.9026 C   0  0  0  0  0  0  0  0  0  0  0  0
   12.6888  -19.4288   21.6362 O   0  0  0  0  0  0  0  0  0  0  0  0
   10.6515  -18.2518   21.4334 C   0  0  0  0  0  0  0  0  0  0  0  0
   10.4447  -16.9900   20.6758 C   0  0  0  0  0  0  0  0  0  0  0  0
    9.3388  -16.0859   21.1786 C   0  0  2  0  0  0  0  0  0  0  0  0
    9.4863  -14.8671   20.3429 N   0  0  0  0  0  0  0  0  0  0  0  0
    9.6249  -15.7450   22.5928 C   0  0  0  0  0  0  0  0  0  0  0  0
   10.3745  -14.7505   22.8094 O   0  0  0  0  0  0  0  0  0  0  0  0
    8.4680  -14.9399   25.4578 C   0  0  0  0  0  0  0  0  0  0  0  0
    9.4893  -15.9855   25.0360 C   0  0  2  0  0  0  0  0  0  0  0  0
    9.1146  -16.4526   23.7054 N   0  0  0  0  0  0  0  0  0  0  0  0
    9.5600  -17.0948   25.9998 C   0  0  0  0  0  0  0  0  0  0  0  0
   10.0695  -16.9894   27.2841 O   0  0  0  0  0  0  0  0  0  0  0  0
    9.1294  -18.2152   25.6358 O   0  0  0  0  0  0  0  0  0  0  0  0
  1  2  1  0
  3  2  1  0
  3  4  1  6
  5  3  1  0
  5 13  1  0
  6  5  2  0
  7  8  1  0
  8 10  1  0
  8  9  2  0
 10 11  1  0
 12 11  1  6
 12 13  1  0
 12 14  1  0
 14 15  2  0
 14 18  1  0
 17 16  1  1
 17 19  1  0
 18 17  1  0
 19 20  1  0
 21 19  2  0
M  END
$$$$
