SQA.pdb
     RDKit          3D

 21 20  0  0  1  0  0  0  0  0999 V2000
    8.9195  -11.9269   19.1707 O   0  0  0  0  0  0  0  0  0  0  0  0
    9.2531  -13.2138   19.5620 C   0  0  0  0  0  0  0  0  0  0  0  0
    9.7753  -13.9360   18.3380 C   0  0  2  0  0  0  0  0  0  0  0  0
    8.7649  -14.1608   17.3535 N   0  0  0  0  0  0  0  0  0  0  0  0
   10.3626  -15.2424   18.7923 C   0  0  0  0  0  0  0  0  0  0  0  0
    9.6958  -16.3166   18.7143 O   0  0  0  0  0  0  0  0  0  0  0  0
   16.4202  -16.5781   18.6716 N   0  0  0  0  0  0  0  0  0  0  0  0
   15.5526  -17.5260   18.0787 C   0  0  0  0  0  0  0  0  0  0  0  0
   16.0257  -18.3263   17.2476 O   0  0  0  0  0  0  0  0  0  0  0  0
   14.1123  -17.5878   18.4183 C   0  0  0  0  0  0  0  0  0  0  0  0
   13.6670  -16.5695   19.4050 C   0  0  0  0  0  0  0  0  0  0  0  0
   12.2105  -16.6320   19.8144 C   0  0  2  0  0  0  0  0  0  0  0  0
   11.6599  -15.3447   19.3193 N   0  0  0  0  0  0  0  0  0  0  0  0
   12.1451  -16.6530   21.2954 C   0  0  0  0  0  0  0  0  0  0  0  0
   12.6303  -15.6615   21.9113 O   0  0  0  0  0  0  0  0  0  0  0  0
   10.3065  -18.2058   24.0333 C   0  0  0  0  0  0  0  0  0  0  0  0
   11.5815  -17.5624   23.5092 C   0  0  2  0  0  0  0  0  0  0  0  0
   11.5767  -17.7002   22.0565 N   0  0  0  0  0  0  0  0  0  0  0  0
   12.7810  -18.1691   24.1072 C   0  0  0  0  0  0  0  0  0  0  0  0
   13.2018  -17.9593   25.4106 O   0  0  0  0  0  0  0  0  0  0  0  0
   13.4726  -18.9300   23.3888 O   0  0  0  0  0  0  0  0  0  0  0  0
  1  2  1  0
  3  2  1  0
  3  4  1  6
  5  3  1  0
  5 13  1  0
  6  5  2  0
  7  8  1  0
  8 10  1  0
  8  9  2  0
 10 11  1  0
 12 11  1  1
 12 13  1  0
 12 14  1  0
 14 15  2  0
 14 18  1  0
 17 16  1  1
 17 19  1  0
 18 17  1  0
 19 20  1  0
 21 19  2  0
M  END
$$$$
