SQA.pdb
     RDKit          3D

 21 20  0  0  1  0  0  0  0  0999 V2000
   15.6926  -13.3691   19.0816 O   0  0  0  0  0  0  0  0  0  0  0  0
   15.5609  -14.7108   19.4029 C   0  0  0  0  0  0  0  0  0  0  0  0
   14.6724  -15.3411   18.3513 C   0  0  2  0  0  0  0  0  0  0  0  0
   14.4042  -14.4655   17.2548 N   0  0  0  0  0  0  0  0  0  0  0  0
   13.3902  -15.7500   19.0196 C   0  0  0  0  0  0  0  0  0  0  0  0
   12.2978  -15.1742   18.7371 O   0  0  0  0  0  0  0  0  0  0  0  0
   12.5211  -21.5764   20.8509 N   0  0  0  0  0  0  0  0  0  0  0  0
   11.3760  -20.9640   21.4136 C   0  0  0  0  0  0  0  0  0  0  0  0
   10.5260  -21.6891   21.9675 O   0  0  0  0  0  0  0  0  0  0  0  0
   11.1664  -19.4988   21.3596 C   0  0  0  0  0  0  0  0  0  0  0  0
   12.2675  -18.7419   20.7087 C   0  0  0  0  0  0  0  0  0  0  0  0
   12.0435  -17.2536   20.5414 C   0  0  2  0  0  0  0  0  0  0  0  0
   13.3313  -16.7747   19.9775 N   0  0  0  0  0  0  0  0  0  0  0  0
   11.8489  -16.6596   21.8858 C   0  0  0  0  0  0  0  0  0  0  0  0
   12.8850  -16.4154   22.5674 O   0  0  0  0  0  0  0  0  0  0  0  0
    9.2217  -15.1165   23.9938 C   0  0  0  0  0  0  0  0  0  0  0  0
   10.5680  -15.7976   23.7994 C   0  0  2  0  0  0  0  0  0  0  0  0
   10.5897  -16.3479   22.4482 N   0  0  0  0  0  0  0  0  0  0  0  0
   10.8007  -16.8388   24.8124 C   0  0  0  0  0  0  0  0  0  0  0  0
   11.1471  -16.5898   26.1308 O   0  0  0  0  0  0  0  0  0  0  0  0
   10.6776  -18.0364   24.4603 O   0  0  0  0  0  0  0  0  0  0  0  0
  1  2  1  0
  3  2  1  0
  3  4  1  6
  5  3  1  0
  5 13  1  0
  6  5  2  0
  7  8  1  0
  8 10  1  0
  8  9  2  0
 10 11  1  0
 12 11  1  1
 12 13  1  0
 12 14  1  0
 14 15  2  0
 14 18  1  0
 17 16  1  1
 17 19  1  0
 18 17  1  0
 19 20  1  0
 21 19  2  0
M  END
$$$$
