SQA.pdb
     RDKit          3D

 21 20  0  0  1  0  0  0  0  0999 V2000
    5.2279  -19.8371   23.7382 O   0  0  0  0  0  0  0  0  0  0  0  0
    4.3640  -18.8180   23.3702 C   0  0  0  0  0  0  0  0  0  0  0  0
    4.4295  -18.6939   21.8625 C   0  0  2  0  0  0  0  0  0  0  0  0
    4.0919  -19.9088   21.1911 N   0  0  0  0  0  0  0  0  0  0  0  0
    5.8226  -18.2646   21.4980 C   0  0  0  0  0  0  0  0  0  0  0  0
    6.6951  -19.1153   21.1523 O   0  0  0  0  0  0  0  0  0  0  0  0
    7.0776  -12.4454   19.5963 N   0  0  0  0  0  0  0  0  0  0  0  0
    8.3592  -13.0442   19.5538 C   0  0  0  0  0  0  0  0  0  0  0  0
    9.3038  -12.3924   19.0662 O   0  0  0  0  0  0  0  0  0  0  0  0
    8.6010  -14.4118   20.0686 C   0  0  0  0  0  0  0  0  0  0  0  0
    7.3890  -15.0992   20.5859 C   0  0  0  0  0  0  0  0  0  0  0  0
    7.5950  -16.5036   21.1136 C   0  0  2  0  0  0  0  0  0  0  0  0
    6.2286  -16.9208   21.5194 N   0  0  0  0  0  0  0  0  0  0  0  0
    8.4584  -16.4255   22.3163 C   0  0  0  0  0  0  0  0  0  0  0  0
    8.0063  -15.7958   23.3148 O   0  0  0  0  0  0  0  0  0  0  0  0
   10.6518  -18.2029   24.2955 C   0  0  0  0  0  0  0  0  0  0  0  0
   10.4712  -16.8280   23.6699 C   0  0  2  0  0  0  0  0  0  0  0  0
    9.7425  -17.0082   22.4186 N   0  0  0  0  0  0  0  0  0  0  0  0
   11.7621  -16.1564   23.4534 C   0  0  0  0  0  0  0  0  0  0  0  0
   12.5828  -15.6851   24.4656 O   0  0  0  0  0  0  0  0  0  0  0  0
   12.1490  -15.9984   22.2708 O   0  0  0  0  0  0  0  0  0  0  0  0
  1  2  1  0
  3  2  1  0
  3  4  1  6
  5  3  1  0
  5 13  1  0
  6  5  2  0
  7  8  1  0
  8 10  1  0
  8  9  2  0
 10 11  1  0
 12 11  1  1
 12 13  1  0
 12 14  1  0
 14 15  2  0
 14 18  1  0
 17 16  1  6
 17 19  1  0
 18 17  1  0
 19 20  1  0
 21 19  2  0
M  END
$$$$
