SQA.pdb
     RDKit          3D

 21 20  0  0  1  0  0  0  0  0999 V2000
   16.4106  -17.4478   16.8659 O   0  0  0  0  0  0  0  0  0  0  0  0
   15.2706  -17.6069   16.0942 C   0  0  0  0  0  0  0  0  0  0  0  0
   14.9129  -16.2469   15.5326 C   0  0  2  0  0  0  0  0  0  0  0  0
   15.9833  -15.6517   14.7973 N   0  0  0  0  0  0  0  0  0  0  0  0
   14.5156  -15.3659   16.6832 C   0  0  0  0  0  0  0  0  0  0  0  0
   15.3165  -14.5000   17.1453 O   0  0  0  0  0  0  0  0  0  0  0  0
    8.6332  -13.8574   17.9603 N   0  0  0  0  0  0  0  0  0  0  0  0
    9.2854  -13.3779   19.1211 C   0  0  0  0  0  0  0  0  0  0  0  0
    8.6159  -12.7417   19.9590 O   0  0  0  0  0  0  0  0  0  0  0  0
   10.7284  -13.6111   19.3602 C   0  0  0  0  0  0  0  0  0  0  0  0
   11.3906  -14.4710   18.3449 C   0  0  0  0  0  0  0  0  0  0  0  0
   12.8936  -14.6092   18.4683 C   0  0  2  0  0  0  0  0  0  0  0  0
   13.2573  -15.4509   17.3001 N   0  0  0  0  0  0  0  0  0  0  0  0
   13.1903  -15.3526   19.7162 C   0  0  0  0  0  0  0  0  0  0  0  0
   12.9612  -16.5958   19.7191 O   0  0  0  0  0  0  0  0  0  0  0  0
   15.2355  -15.1087   22.7195 C   0  0  0  0  0  0  0  0  0  0  0  0
   13.9960  -15.6467   22.0206 C   0  0  2  0  0  0  0  0  0  0  0  0
   13.7121  -14.7662   20.8922 N   0  0  0  0  0  0  0  0  0  0  0  0
   12.8507  -15.7363   22.9396 C   0  0  0  0  0  0  0  0  0  0  0  0
   11.6350  -15.1002   22.7455 O   0  0  0  0  0  0  0  0  0  0  0  0
   12.9815  -16.4369   23.9719 O   0  0  0  0  0  0  0  0  0  0  0  0
  1  2  1  0
  3  2  1  0
  3  4  1  1
  5  3  1  0
  5 13  1  0
  6  5  2  0
  7  8  1  0
  8 10  1  0
  8  9  2  0
 10 11  1  0
 12 11  1  6
 12 13  1  0
 12 14  1  0
 14 15  2  0
 14 18  1  0
 17 16  1  1
 17 19  1  0
 18 17  1  0
 19 20  1  0
 21 19  2  0
M  END
$$$$
