SQA.pdb
     RDKit          3D

 21 20  0  0  1  0  0  0  0  0999 V2000
    8.3708  -19.4638   20.0744 O   0  0  0  0  0  0  0  0  0  0  0  0
    8.3813  -18.2500   19.4057 C   0  0  0  0  0  0  0  0  0  0  0  0
    9.2368  -18.4243   18.1686 C   0  0  2  0  0  0  0  0  0  0  0  0
    8.9046  -19.5984   17.4256 N   0  0  0  0  0  0  0  0  0  0  0  0
   10.6731  -18.4722   18.6075 C   0  0  0  0  0  0  0  0  0  0  0  0
   11.2691  -19.5794   18.7605 O   0  0  0  0  0  0  0  0  0  0  0  0
   14.6524  -13.3764   18.2433 N   0  0  0  0  0  0  0  0  0  0  0  0
   15.3659  -14.5963   18.1673 C   0  0  0  0  0  0  0  0  0  0  0  0
   16.4466  -14.6149   17.5454 O   0  0  0  0  0  0  0  0  0  0  0  0
   14.8636  -15.8369   18.8016 C   0  0  0  0  0  0  0  0  0  0  0  0
   13.4071  -16.0741   18.6243 C   0  0  0  0  0  0  0  0  0  0  0  0
   12.8692  -17.3682   19.1980 C   0  0  2  0  0  0  0  0  0  0  0  0
   11.4222  -17.3137   18.8681 N   0  0  0  0  0  0  0  0  0  0  0  0
   13.0354  -17.3275   20.6706 C   0  0  0  0  0  0  0  0  0  0  0  0
   12.3681  -16.4620   21.3059 O   0  0  0  0  0  0  0  0  0  0  0  0
   13.8897  -19.5347   23.3962 C   0  0  0  0  0  0  0  0  0  0  0  0
   13.8318  -18.1120   22.8606 C   0  0  2  0  0  0  0  0  0  0  0  0
   13.8825  -18.1895   21.4044 N   0  0  0  0  0  0  0  0  0  0  0  0
   14.9238  -17.2851   23.3977 C   0  0  0  0  0  0  0  0  0  0  0  0
   15.0312  -16.8872   24.7207 O   0  0  0  0  0  0  0  0  0  0  0  0
   15.8214  -16.9132   22.6044 O   0  0  0  0  0  0  0  0  0  0  0  0
  1  2  1  0
  3  2  1  0
  3  4  1  1
  5  3  1  0
  5 13  1  0
  6  5  2  0
  7  8  1  0
  8 10  1  0
  8  9  2  0
 10 11  1  0
 12 11  1  6
 12 13  1  0
 12 14  1  0
 14 15  2  0
 14 18  1  0
 17 16  1  1
 17 19  1  0
 18 17  1  0
 19 20  1  0
 21 19  2  0
M  END
$$$$
