SQA.pdb
     RDKit          3D

 21 20  0  0  1  0  0  0  0  0999 V2000
    4.4682  -17.4612   19.3339 O   0  0  0  0  0  0  0  0  0  0  0  0
    5.4059  -18.3163   18.7770 C   0  0  0  0  0  0  0  0  0  0  0  0
    4.9579  -19.7317   19.0745 C   0  0  2  0  0  0  0  0  0  0  0  0
    3.5608  -19.9295   18.8516 N   0  0  0  0  0  0  0  0  0  0  0  0
    5.3070  -20.0320   20.5048 C   0  0  0  0  0  0  0  0  0  0  0  0
    4.4385  -19.9279   21.4212 O   0  0  0  0  0  0  0  0  0  0  0  0
   10.2336  -23.6036   21.9787 N   0  0  0  0  0  0  0  0  0  0  0  0
    9.7743  -23.2179   23.2606 C   0  0  0  0  0  0  0  0  0  0  0  0
   10.3226  -23.7168   24.2633 O   0  0  0  0  0  0  0  0  0  0  0  0
    8.6697  -22.2469   23.4361 C   0  0  0  0  0  0  0  0  0  0  0  0
    8.0841  -21.7430   22.1664 C   0  0  0  0  0  0  0  0  0  0  0  0
    6.9071  -20.8003   22.3047 C   0  0  2  0  0  0  0  0  0  0  0  0
    6.5918  -20.4375   20.8996 N   0  0  0  0  0  0  0  0  0  0  0  0
    7.3640  -19.5906   23.0300 C   0  0  0  0  0  0  0  0  0  0  0  0
    8.2443  -18.8768   22.4702 O   0  0  0  0  0  0  0  0  0  0  0  0
    6.2429  -17.2315   25.5412 C   0  0  0  0  0  0  0  0  0  0  0  0
    7.3992  -17.9415   24.8533 C   0  0  2  0  0  0  0  0  0  0  0  0
    6.8799  -19.1856   24.2951 N   0  0  0  0  0  0  0  0  0  0  0  0
    8.5141  -18.1874   25.7812 C   0  0  0  0  0  0  0  0  0  0  0  0
    8.9948  -19.4428   26.1177 O   0  0  0  0  0  0  0  0  0  0  0  0
    9.0699  -17.1927   26.3056 O   0  0  0  0  0  0  0  0  0  0  0  0
  1  2  1  0
  3  2  1  0
  3  4  1  1
  5  3  1  0
  5 13  1  0
  6  5  2  0
  7  8  1  0
  8 10  1  0
  8  9  2  0
 10 11  1  0
 12 11  1  6
 12 13  1  0
 12 14  1  0
 14 15  2  0
 14 18  1  0
 17 16  1  1
 17 19  1  0
 18 17  1  0
 19 20  1  0
 21 19  2  0
M  END
$$$$
