SQA.pdb
     RDKit          3D

 21 20  0  0  1  0  0  0  0  0999 V2000
   14.6667  -18.1189   15.4006 O   0  0  0  0  0  0  0  0  0  0  0  0
   13.7899  -17.8986   16.4509 C   0  0  0  0  0  0  0  0  0  0  0  0
   12.7963  -19.0411   16.4559 C   0  0  2  0  0  0  0  0  0  0  0  0
   11.9804  -19.0716   15.2837 N   0  0  0  0  0  0  0  0  0  0  0  0
   11.9421  -18.9005   17.6841 C   0  0  0  0  0  0  0  0  0  0  0  0
   10.7527  -18.4725   17.6028 O   0  0  0  0  0  0  0  0  0  0  0  0
   11.4373  -24.2191   20.8879 N   0  0  0  0  0  0  0  0  0  0  0  0
   11.8230  -22.9707   20.3441 C   0  0  0  0  0  0  0  0  0  0  0  0
   12.8284  -22.9285   19.6076 O   0  0  0  0  0  0  0  0  0  0  0  0
   11.0689  -21.7278   20.6271 C   0  0  0  0  0  0  0  0  0  0  0  0
   11.9184  -20.5319   20.8660 C   0  0  0  0  0  0  0  0  0  0  0  0
   11.5026  -19.2660   20.1465 C   0  0  2  0  0  0  0  0  0  0  0  0
   12.4054  -19.2295   18.9680 N   0  0  0  0  0  0  0  0  0  0  0  0
   11.8031  -18.1117   21.0270 C   0  0  0  0  0  0  0  0  0  0  0  0
   12.9884  -17.6724   21.0230 O   0  0  0  0  0  0  0  0  0  0  0  0
   10.0476  -15.6150   23.1526 C   0  0  0  0  0  0  0  0  0  0  0  0
   11.2925  -16.2969   22.6054 C   0  0  2  0  0  0  0  0  0  0  0  0
   10.8564  -17.4737   21.8611 N   0  0  0  0  0  0  0  0  0  0  0  0
   12.2328  -16.6526   23.6795 C   0  0  0  0  0  0  0  0  0  0  0  0
   13.1103  -15.7655   24.2823 O   0  0  0  0  0  0  0  0  0  0  0  0
   12.2427  -17.8415   24.0792 O   0  0  0  0  0  0  0  0  0  0  0  0
  1  2  1  0
  3  2  1  0
  3  4  1  6
  5  3  1  0
  5 13  1  0
  6  5  2  0
  7  8  1  0
  8 10  1  0
  8  9  2  0
 10 11  1  0
 12 11  1  1
 12 13  1  0
 12 14  1  0
 14 15  2  0
 14 18  1  0
 17 16  1  1
 17 19  1  0
 18 17  1  0
 19 20  1  0
 21 19  2  0
M  END
$$$$
