SQA.pdb
     RDKit          3D

 21 20  0  0  1  0  0  0  0  0999 V2000
    7.1133  -12.3240   19.1386 O   0  0  0  0  0  0  0  0  0  0  0  0
    8.4755  -12.3810   18.8902 C   0  0  0  0  0  0  0  0  0  0  0  0
    8.7474  -13.6822   18.1651 C   0  0  2  0  0  0  0  0  0  0  0  0
    7.8454  -13.9120   17.0814 N   0  0  0  0  0  0  0  0  0  0  0  0
    8.6522  -14.7955   19.1698 C   0  0  0  0  0  0  0  0  0  0  0  0
    7.5702  -15.4342   19.3312 O   0  0  0  0  0  0  0  0  0  0  0  0
   13.1914  -18.7453   19.9163 N   0  0  0  0  0  0  0  0  0  0  0  0
   12.0190  -18.8948   19.1378 C   0  0  0  0  0  0  0  0  0  0  0  0
   12.0200  -19.7364   18.2177 O   0  0  0  0  0  0  0  0  0  0  0  0
   10.8055  -18.0833   19.3877 C   0  0  0  0  0  0  0  0  0  0  0  0
   10.9190  -17.1400   20.5306 C   0  0  0  0  0  0  0  0  0  0  0  0
    9.6679  -16.3599   20.8761 C   0  0  2  0  0  0  0  0  0  0  0  0
    9.7370  -15.1837   19.9720 N   0  0  0  0  0  0  0  0  0  0  0  0
    9.7799  -15.9018   22.2816 C   0  0  0  0  0  0  0  0  0  0  0  0
   10.7823  -15.1929   22.5824 O   0  0  0  0  0  0  0  0  0  0  0  0
    7.7321  -15.4132   25.2777 C   0  0  0  0  0  0  0  0  0  0  0  0
    9.0865  -15.6510   24.6272 C   0  0  2  0  0  0  0  0  0  0  0  0
    8.8437  -16.2014   23.2979 N   0  0  0  0  0  0  0  0  0  0  0  0
    9.9286  -16.5442   25.4382 C   0  0  0  0  0  0  0  0  0  0  0  0
   10.5281  -16.1873   26.6354 O   0  0  0  0  0  0  0  0  0  0  0  0
   10.1184  -17.7109   25.0184 O   0  0  0  0  0  0  0  0  0  0  0  0
  1  2  1  0
  3  2  1  0
  3  4  1  6
  5  3  1  0
  5 13  1  0
  6  5  2  0
  7  8  1  0
  8 10  1  0
  8  9  2  0
 10 11  1  0
 12 11  1  6
 12 13  1  0
 12 14  1  0
 14 15  2  0
 14 18  1  0
 17 16  1  1
 17 19  1  0
 18 17  1  0
 19 20  1  0
 21 19  2  0
M  END
$$$$
