SQA.pdb
     RDKit          3D

 21 20  0  0  1  0  0  0  0  0999 V2000
   14.9693  -14.1236   19.0361 O   0  0  0  0  0  0  0  0  0  0  0  0
   13.6024  -13.9482   19.1828 C   0  0  0  0  0  0  0  0  0  0  0  0
   12.9195  -14.9456   18.2708 C   0  0  2  0  0  0  0  0  0  0  0  0
   12.2301  -14.3229   17.1855 N   0  0  0  0  0  0  0  0  0  0  0  0
   11.9631  -15.7498   19.1054 C   0  0  0  0  0  0  0  0  0  0  0  0
   10.7557  -15.3905   19.2377 O   0  0  0  0  0  0  0  0  0  0  0  0
   12.6149  -21.8514   20.1179 N   0  0  0  0  0  0  0  0  0  0  0  0
   11.6365  -21.5272   21.0878 C   0  0  0  0  0  0  0  0  0  0  0  0
   11.1390  -22.4509   21.7617 O   0  0  0  0  0  0  0  0  0  0  0  0
   11.1949  -20.1323   21.3172 C   0  0  0  0  0  0  0  0  0  0  0  0
   11.8690  -19.1230   20.4594 C   0  0  0  0  0  0  0  0  0  0  0  0
   11.4011  -17.6921   20.6226 C   0  0  2  0  0  0  0  0  0  0  0  0
   12.3466  -16.9235   19.7735 N   0  0  0  0  0  0  0  0  0  0  0  0
   11.5900  -17.3008   22.0401 C   0  0  0  0  0  0  0  0  0  0  0  0
   12.7774  -17.1505   22.4469 O   0  0  0  0  0  0  0  0  0  0  0  0
    9.6442  -15.8951   24.8466 C   0  0  0  0  0  0  0  0  0  0  0  0
   10.8829  -16.5719   24.2793 C   0  0  2  0  0  0  0  0  0  0  0  0
   10.5364  -17.0833   22.9574 N   0  0  0  0  0  0  0  0  0  0  0  0
   11.3697  -17.6420   25.1639 C   0  0  0  0  0  0  0  0  0  0  0  0
   11.3241  -18.9936   24.8619 O   0  0  0  0  0  0  0  0  0  0  0  0
   11.8609  -17.3099   26.2693 O   0  0  0  0  0  0  0  0  0  0  0  0
  1  2  1  0
  3  2  1  0
  3  4  1  6
  5  3  1  0
  5 13  1  0
  6  5  2  0
  7  8  1  0
  8 10  1  0
  8  9  2  0
 10 11  1  0
 12 11  1  1
 12 13  1  0
 12 14  1  0
 14 15  2  0
 14 18  1  0
 17 16  1  1
 17 19  1  0
 18 17  1  0
 19 20  1  0
 21 19  2  0
M  END
$$$$
