SQA.pdb
     RDKit          3D

 21 20  0  0  1  0  0  0  0  0999 V2000
    8.5103  -14.6091   17.9456 O   0  0  0  0  0  0  0  0  0  0  0  0
    7.4857  -13.6935   18.1253 C   0  0  0  0  0  0  0  0  0  0  0  0
    7.7885  -12.9209   19.3918 C   0  0  2  0  0  0  0  0  0  0  0  0
    9.1207  -12.4060   19.4221 N   0  0  0  0  0  0  0  0  0  0  0  0
    7.5570  -13.8414   20.5568 C   0  0  0  0  0  0  0  0  0  0  0  0
    6.4124  -14.3384   20.7746 O   0  0  0  0  0  0  0  0  0  0  0  0
   11.4482  -18.0350   22.6655 N   0  0  0  0  0  0  0  0  0  0  0  0
   10.5736  -17.9435   23.7745 C   0  0  0  0  0  0  0  0  0  0  0  0
   10.7349  -18.7340   24.7253 O   0  0  0  0  0  0  0  0  0  0  0  0
    9.4835  -16.9424   23.8302 C   0  0  0  0  0  0  0  0  0  0  0  0
    9.4105  -16.0437   22.6488 C   0  0  0  0  0  0  0  0  0  0  0  0
    8.3111  -15.0025   22.6718 C   0  0  2  0  0  0  0  0  0  0  0  0
    8.5774  -14.1962   21.4534 N   0  0  0  0  0  0  0  0  0  0  0  0
    8.5026  -14.1519   23.8709 C   0  0  0  0  0  0  0  0  0  0  0  0
    9.5820  -13.4992   23.9526 O   0  0  0  0  0  0  0  0  0  0  0  0
    6.6599  -12.3611   26.4030 C   0  0  0  0  0  0  0  0  0  0  0  0
    7.9076  -13.1505   26.0363 C   0  0  2  0  0  0  0  0  0  0  0  0
    7.5618  -14.0223   24.9184 N   0  0  0  0  0  0  0  0  0  0  0  0
    8.4213  -13.9167   27.1823 C   0  0  0  0  0  0  0  0  0  0  0  0
    9.0134  -13.3548   28.3021 O   0  0  0  0  0  0  0  0  0  0  0  0
    8.3171  -15.1662   27.1455 O   0  0  0  0  0  0  0  0  0  0  0  0
  1  2  1  0
  3  2  1  0
  3  4  1  6
  5  3  1  0
  5 13  1  0
  6  5  2  0
  7  8  1  0
  8 10  1  0
  8  9  2  0
 10 11  1  0
 12 11  1  1
 12 13  1  0
 12 14  1  0
 14 15  2  0
 14 18  1  0
 17 16  1  1
 17 19  1  0
 18 17  1  0
 19 20  1  0
 21 19  2  0
M  END
$$$$
