SQA.pdb
     RDKit          3D

 21 20  0  0  1  0  0  0  0  0999 V2000
   10.2739  -14.9406   19.5009 O   0  0  0  0  0  0  0  0  0  0  0  0
    9.1332  -14.6540   20.2338 C   0  0  0  0  0  0  0  0  0  0  0  0
    8.3406  -15.9385   20.3550 C   0  0  2  0  0  0  0  0  0  0  0  0
    7.4765  -16.1641   19.2400 N   0  0  0  0  0  0  0  0  0  0  0  0
    7.5447  -15.8677   21.6276 C   0  0  0  0  0  0  0  0  0  0  0  0
    6.3486  -15.4506   21.6235 O   0  0  0  0  0  0  0  0  0  0  0  0
    6.5543  -19.6174   27.6058 N   0  0  0  0  0  0  0  0  0  0  0  0
    7.5135  -18.8226   26.9341 C   0  0  0  0  0  0  0  0  0  0  0  0
    8.7000  -19.2058   26.9230 O   0  0  0  0  0  0  0  0  0  0  0  0
    7.1443  -17.5605   26.2526 C   0  0  0  0  0  0  0  0  0  0  0  0
    7.6835  -17.4232   24.8745 C   0  0  0  0  0  0  0  0  0  0  0  0
    7.2774  -16.1729   24.1227 C   0  0  2  0  0  0  0  0  0  0  0  0
    8.0718  -16.2530   22.8705 N   0  0  0  0  0  0  0  0  0  0  0  0
    7.7206  -14.9953   24.9069 C   0  0  0  0  0  0  0  0  0  0  0  0
    8.9623  -14.7630   24.9527 O   0  0  0  0  0  0  0  0  0  0  0  0
    6.3163  -12.0601   26.7137 C   0  0  0  0  0  0  0  0  0  0  0  0
    7.4464  -12.9955   26.3108 C   0  0  2  0  0  0  0  0  0  0  0  0
    6.8508  -14.1208   25.5981 N   0  0  0  0  0  0  0  0  0  0  0  0
    8.2227  -13.4427   27.4777 C   0  0  0  0  0  0  0  0  0  0  0  0
    9.1289  -12.6541   28.1685 O   0  0  0  0  0  0  0  0  0  0  0  0
    8.0542  -14.6198   27.8771 O   0  0  0  0  0  0  0  0  0  0  0  0
  1  2  1  0
  3  2  1  0
  3  4  1  6
  5  3  1  0
  5 13  1  0
  6  5  2  0
  7  8  1  0
  8 10  1  0
  8  9  2  0
 10 11  1  0
 12 11  1  1
 12 13  1  0
 12 14  1  0
 14 15  2  0
 14 18  1  0
 17 16  1  1
 17 19  1  0
 18 17  1  0
 19 20  1  0
 21 19  2  0
M  END
$$$$
