SQA.pdb
     RDKit          3D

 21 20  0  0  1  0  0  0  0  0999 V2000
   10.0696  -17.3561   16.8973 O   0  0  0  0  0  0  0  0  0  0  0  0
    9.4190  -17.0261   18.0756 C   0  0  0  0  0  0  0  0  0  0  0  0
    8.1065  -17.7810   18.0924 C   0  0  2  0  0  0  0  0  0  0  0  0
    7.2672  -17.4587   16.9823 N   0  0  0  0  0  0  0  0  0  0  0  0
    7.4101  -17.4607   19.3848 C   0  0  0  0  0  0  0  0  0  0  0  0
    6.6250  -16.4705   19.4718 O   0  0  0  0  0  0  0  0  0  0  0  0
    6.5490  -21.7903   23.8170 N   0  0  0  0  0  0  0  0  0  0  0  0
    6.0156  -20.6373   24.4408 C   0  0  0  0  0  0  0  0  0  0  0  0
    5.4350  -20.7694   25.5365 O   0  0  0  0  0  0  0  0  0  0  0  0
    6.1293  -19.2935   23.8286 C   0  0  0  0  0  0  0  0  0  0  0  0
    6.7694  -19.2789   22.4874 C   0  0  0  0  0  0  0  0  0  0  0  0
    6.8569  -17.9291   21.8066 C   0  0  2  0  0  0  0  0  0  0  0  0
    7.5868  -18.2269   20.5480 N   0  0  0  0  0  0  0  0  0  0  0  0
    7.6857  -17.0361   22.6514 C   0  0  0  0  0  0  0  0  0  0  0  0
    8.9369  -17.2150   22.6307 O   0  0  0  0  0  0  0  0  0  0  0  0
    7.3758  -13.9314   24.6694 C   0  0  0  0  0  0  0  0  0  0  0  0
    8.1277  -15.1583   24.1759 C   0  0  2  0  0  0  0  0  0  0  0  0
    7.1713  -16.0036   23.4690 N   0  0  0  0  0  0  0  0  0  0  0  0
    8.7743  -15.8801   25.2829 C   0  0  0  0  0  0  0  0  0  0  0  0
    9.9712  -15.5063   25.8727 O   0  0  0  0  0  0  0  0  0  0  0  0
    8.2040  -16.9060   25.7254 O   0  0  0  0  0  0  0  0  0  0  0  0
  1  2  1  0
  3  2  1  0
  3  4  1  6
  5  3  1  0
  5 13  1  0
  6  5  2  0
  7  8  1  0
  8 10  1  0
  8  9  2  0
 10 11  1  0
 12 11  1  1
 12 13  1  0
 12 14  1  0
 14 15  2  0
 14 18  1  0
 17 16  1  1
 17 19  1  0
 18 17  1  0
 19 20  1  0
 21 19  2  0
M  END
$$$$
