SQA.pdb
     RDKit          3D

 21 20  0  0  1  0  0  0  0  0999 V2000
    7.2339  -12.7892   17.2128 O   0  0  0  0  0  0  0  0  0  0  0  0
    8.3482  -12.9373   18.0233 C   0  0  0  0  0  0  0  0  0  0  0  0
    8.9323  -14.3055   17.7410 C   0  0  2  0  0  0  0  0  0  0  0  0
    8.4331  -14.8831   16.5336 N   0  0  0  0  0  0  0  0  0  0  0  0
    8.6158  -15.1900   18.9138 C   0  0  0  0  0  0  0  0  0  0  0  0
    7.5471  -15.8695   18.9453 O   0  0  0  0  0  0  0  0  0  0  0  0
   12.3275  -19.1191   21.3592 N   0  0  0  0  0  0  0  0  0  0  0  0
   11.3410  -19.1056   22.3739 C   0  0  0  0  0  0  0  0  0  0  0  0
   11.4226  -19.9441   23.2932 O   0  0  0  0  0  0  0  0  0  0  0  0
   10.2266  -18.1300   22.3683 C   0  0  0  0  0  0  0  0  0  0  0  0
   10.2742  -17.1457   21.2557 C   0  0  0  0  0  0  0  0  0  0  0  0
    9.1285  -16.1576   21.1922 C   0  0  2  0  0  0  0  0  0  0  0  0
    9.4707  -15.3112   20.0208 N   0  0  0  0  0  0  0  0  0  0  0  0
    9.1629  -15.3276   22.4202 C   0  0  0  0  0  0  0  0  0  0  0  0
   10.1818  -14.6017   22.6012 O   0  0  0  0  0  0  0  0  0  0  0  0
    6.9084  -13.9401   24.9532 C   0  0  0  0  0  0  0  0  0  0  0  0
    8.2983  -14.3790   24.5173 C   0  0  2  0  0  0  0  0  0  0  0  0
    8.1363  -15.2933   23.3918 N   0  0  0  0  0  0  0  0  0  0  0  0
    9.0409  -15.0056   25.6221 C   0  0  0  0  0  0  0  0  0  0  0  0
    9.5555  -14.3212   26.7116 O   0  0  0  0  0  0  0  0  0  0  0  0
    9.2220  -16.2459   25.5767 O   0  0  0  0  0  0  0  0  0  0  0  0
  1  2  1  0
  3  2  1  0
  3  4  1  6
  5  3  1  0
  5 13  1  0
  6  5  2  0
  7  8  1  0
  8 10  1  0
  8  9  2  0
 10 11  1  0
 12 11  1  1
 12 13  1  0
 12 14  1  0
 14 15  2  0
 14 18  1  0
 17 16  1  1
 17 19  1  0
 18 17  1  0
 19 20  1  0
 21 19  2  0
M  END
$$$$
