VMH.pdb
     RDKit          3D

 26 26  0  0  1  0  0  0  0  0999 V2000
   18.6767  -24.6461   -6.6309 C   0  0  0  0  0  0  0  0  0  0  0  0
   18.3302  -24.5530   -8.0809 C   0  0  1  0  0  0  0  0  0  0  0  0
   19.2915  -23.5973   -8.7552 C   0  0  0  0  0  0  0  0  0  0  0  0
   18.3522  -25.9189   -8.7606 C   0  0  2  0  0  0  0  0  0  0  0  0
   18.0445  -25.7464  -10.1596 N   0  0  0  0  0  0  0  0  0  0  0  0
   17.3194  -26.7868   -8.1384 C   0  0  0  0  0  0  0  0  0  0  0  0
   16.0852  -26.5603   -8.3367 O   0  0  0  0  0  0  0  0  0  0  0  0
   17.0135  -33.1615   -9.7975 C   0  0  0  0  0  0  0  0  0  0  0  0
   17.2473  -32.4434   -8.1506 S   0  0  0  0  0  0  0  0  0  0  0  0
   16.7728  -30.6738   -8.2258 C   0  0  0  0  0  0  0  0  0  0  0  0
   16.9723  -30.1255   -6.8478 C   0  0  0  0  0  0  0  0  0  0  0  0
   16.5739  -28.6812   -6.6887 C   0  0  2  0  0  0  0  0  0  0  0  0
   17.6268  -27.8874   -7.3110 N   0  0  0  0  0  0  0  0  0  0  0  0
   16.4067  -28.2925   -5.2536 C   0  0  0  0  0  0  0  0  0  0  0  0
   17.4025  -28.1717   -4.4970 O   0  0  0  0  0  0  0  0  0  0  0  0
   15.0895  -28.0576   -4.7476 N   0  0  0  0  0  0  0  0  0  0  0  0
   14.7863  -27.7102   -3.3956 C   0  0  1  0  0  0  0  0  0  0  0  0
   15.6568  -26.6370   -2.8423 C   0  0  0  0  0  0  0  0  0  0  0  0
   16.8614  -27.1296   -2.1879 C   0  0  0  0  0  0  0  0  0  0  0  0
   17.2917  -28.4191   -1.9708 C   0  0  0  0  0  0  0  0  0  0  0  0
   18.4631  -28.4130   -1.3112 N   0  0  0  0  0  0  0  0  0  0  0  0
   18.7946  -27.1232   -1.0995 C   0  0  0  0  0  0  0  0  0  0  0  0
   17.8335  -26.3548   -1.6255 N   0  0  0  0  0  0  0  0  0  0  0  0
   13.3245  -27.5005   -3.1634 C   0  0  0  0  0  0  0  0  0  0  0  0
   12.5656  -26.9282   -4.1651 O   0  0  0  0  0  0  0  0  0  0  0  0
   12.7263  -27.8132   -2.1096 O   0  0  0  0  0  0  0  0  0  0  0  0
  2  1  1  1
  2  3  1  0
  4  6  1  0
  4  2  1  0
  4  5  1  6
  6  7  2  0
  9  8  1  0
 10  9  1  0
 11 10  1  0
 12 11  1  1
 13  6  1  0
 13 12  1  0
 14 15  2  0
 14 12  1  0
 16 14  1  0
 17 16  1  0
 18 19  1  0
 17 18  1  6
 19 20  2  0
 21 20  1  0
 22 21  1  0
 23 22  2  0
 23 19  1  0
 24 17  1  0
 24 25  1  0
 26 24  2  0
M  END
$$$$
