VMH.pdb
     RDKit          3D

 26 26  0  0  1  0  0  0  0  0999 V2000
   26.8782  -17.7169  -14.4330 C   0  0  0  0  0  0  0  0  0  0  0  0
   27.4683  -18.8262  -15.2409 C   0  0  1  0  0  0  0  0  0  0  0  0
   28.5704  -18.2652  -16.1143 C   0  0  0  0  0  0  0  0  0  0  0  0
   27.9926  -19.9562  -14.3596 C   0  0  2  0  0  0  0  0  0  0  0  0
   28.4986  -21.0089  -15.2066 N   0  0  0  0  0  0  0  0  0  0  0  0
   26.8754  -20.4878  -13.5372 C   0  0  0  0  0  0  0  0  0  0  0  0
   26.0321  -21.2926  -14.0420 O   0  0  0  0  0  0  0  0  0  0  0  0
   28.8638  -20.6245   -7.0897 C   0  0  0  0  0  0  0  0  0  0  0  0
   27.2008  -20.2666   -7.7135 S   0  0  0  0  0  0  0  0  0  0  0  0
   27.1359  -20.7533   -9.4803 C   0  0  0  0  0  0  0  0  0  0  0  0
   25.7918  -20.3306   -9.9843 C   0  0  0  0  0  0  0  0  0  0  0  0
   25.5383  -20.6594  -11.4327 C   0  0  2  0  0  0  0  0  0  0  0  0
   26.6793  -20.1472  -12.1822 N   0  0  0  0  0  0  0  0  0  0  0  0
   24.2673  -20.0538  -11.9389 C   0  0  0  0  0  0  0  0  0  0  0  0
   24.2247  -18.8520  -12.3032 O   0  0  0  0  0  0  0  0  0  0  0  0
   23.0907  -20.8647  -12.0047 N   0  0  0  0  0  0  0  0  0  0  0  0
   22.0537  -20.7182  -12.9761 C   0  0  1  0  0  0  0  0  0  0  0  0
   22.5385  -20.7638  -14.3827 C   0  0  0  0  0  0  0  0  0  0  0  0
   21.4972  -20.5387  -15.3761 C   0  0  0  0  0  0  0  0  0  0  0  0
   20.1665  -20.2251  -15.2143 C   0  0  0  0  0  0  0  0  0  0  0  0
   19.5649  -20.1209  -16.4120 N   0  0  0  0  0  0  0  0  0  0  0  0
   20.5012  -20.3660  -17.3510 C   0  0  0  0  0  0  0  0  0  0  0  0
   21.6591  -20.6163  -16.7286 N   0  0  0  0  0  0  0  0  0  0  0  0
   20.8725  -21.5923  -12.7015 C   0  0  0  0  0  0  0  0  0  0  0  0
   19.6134  -21.1378  -13.0408 O   0  0  0  0  0  0  0  0  0  0  0  0
   20.9420  -22.7275  -12.1794 O   0  0  0  0  0  0  0  0  0  0  0  0
  2  1  1  1
  2  3  1  0
  4  6  1  0
  4  2  1  0
  4  5  1  6
  6  7  2  0
  9  8  1  0
 10  9  1  0
 11 10  1  0
 12 11  1  1
 13  6  1  0
 13 12  1  0
 14 15  2  0
 14 12  1  0
 16 14  1  0
 17 16  1  0
 18 19  1  0
 17 18  1  6
 19 20  2  0
 21 20  1  0
 22 21  1  0
 23 22  2  0
 23 19  1  0
 24 17  1  0
 24 25  1  0
 26 24  2  0
M  END
$$$$
