VMH.pdb
     RDKit          3D

 26 26  0  0  1  0  0  0  0  0999 V2000
   22.8076  -13.4035  -19.5092 C   0  0  0  0  0  0  0  0  0  0  0  0
   21.8353  -14.2008  -18.7028 C   0  0  1  0  0  0  0  0  0  0  0  0
   20.7615  -14.7419  -19.6228 C   0  0  0  0  0  0  0  0  0  0  0  0
   22.5200  -15.3310  -17.9397 C   0  0  2  0  0  0  0  0  0  0  0  0
   23.2061  -16.1796  -18.8836 N   0  0  0  0  0  0  0  0  0  0  0  0
   21.4891  -16.1292  -17.2274 C   0  0  0  0  0  0  0  0  0  0  0  0
   20.9548  -17.1359  -17.7884 O   0  0  0  0  0  0  0  0  0  0  0  0
   20.6940  -19.9785  -11.9701 C   0  0  0  0  0  0  0  0  0  0  0  0
   20.1550  -18.2837  -11.6236 S   0  0  0  0  0  0  0  0  0  0  0  0
   19.3186  -17.6325  -13.1199 C   0  0  0  0  0  0  0  0  0  0  0  0
   20.3815  -16.9784  -13.9454 C   0  0  0  0  0  0  0  0  0  0  0  0
   19.9315  -16.5583  -15.3205 C   0  0  2  0  0  0  0  0  0  0  0  0
   21.0459  -15.8346  -15.9208 N   0  0  0  0  0  0  0  0  0  0  0  0
   18.7103  -15.6949  -15.2800 C   0  0  0  0  0  0  0  0  0  0  0  0
   18.7653  -14.5185  -14.8422 O   0  0  0  0  0  0  0  0  0  0  0  0
   17.4684  -16.2276  -15.7492 N   0  0  0  0  0  0  0  0  0  0  0  0
   16.2308  -15.5146  -15.7663 C   0  0  1  0  0  0  0  0  0  0  0  0
   15.2262  -16.0790  -16.7087 C   0  0  0  0  0  0  0  0  0  0  0  0
   13.9890  -15.3139  -16.7842 C   0  0  0  0  0  0  0  0  0  0  0  0
   13.3022  -14.6343  -15.8035 C   0  0  0  0  0  0  0  0  0  0  0  0
   12.1921  -14.0755  -16.3161 N   0  0  0  0  0  0  0  0  0  0  0  0
   12.1562  -14.3904  -17.6268 C   0  0  0  0  0  0  0  0  0  0  0  0
   13.2340  -15.1328  -17.9062 N   0  0  0  0  0  0  0  0  0  0  0  0
   15.7027  -15.2342  -14.3962 C   0  0  0  0  0  0  0  0  0  0  0  0
   15.1773  -13.9858  -14.1268 O   0  0  0  0  0  0  0  0  0  0  0  0
   15.6995  -16.0631  -13.4587 O   0  0  0  0  0  0  0  0  0  0  0  0
  2  1  1  6
  2  3  1  0
  4  6  1  0
  4  2  1  0
  4  5  1  6
  6  7  2  0
  9  8  1  0
 10  9  1  0
 11 10  1  0
 12 11  1  1
 13  6  1  0
 13 12  1  0
 14 15  2  0
 14 12  1  0
 16 14  1  0
 17 16  1  0
 18 19  1  0
 17 18  1  6
 19 20  2  0
 21 20  1  0
 22 21  1  0
 23 22  2  0
 23 19  1  0
 24 17  1  0
 24 25  1  0
 26 24  2  0
M  END
$$$$
