VMH.pdb
     RDKit          3D

 26 26  0  0  1  0  0  0  0  0999 V2000
   18.3270  -13.9479  -17.6406 C   0  0  0  0  0  0  0  0  0  0  0  0
   18.5032  -15.2864  -17.0013 C   0  0  1  0  0  0  0  0  0  0  0  0
   17.7182  -16.3140  -17.7886 C   0  0  0  0  0  0  0  0  0  0  0  0
   19.9739  -15.6815  -16.9032 C   0  0  2  0  0  0  0  0  0  0  0  0
   20.0658  -16.9760  -16.2726 N   0  0  0  0  0  0  0  0  0  0  0  0
   20.6898  -14.6820  -16.0693 C   0  0  0  0  0  0  0  0  0  0  0  0
   20.5476  -14.6779  -14.8070 O   0  0  0  0  0  0  0  0  0  0  0  0
   27.2636  -11.0501  -14.6102 C   0  0  0  0  0  0  0  0  0  0  0  0
   26.2231  -12.1358  -15.6209 S   0  0  0  0  0  0  0  0  0  0  0  0
   24.4732  -11.8457  -15.1559 C   0  0  0  0  0  0  0  0  0  0  0  0
   23.6576  -12.8011  -15.9690 C   0  0  0  0  0  0  0  0  0  0  0  0
   22.1709  -12.6945  -15.7489 C   0  0  2  0  0  0  0  0  0  0  0  0
   21.5499  -13.6994  -16.6035 N   0  0  0  0  0  0  0  0  0  0  0  0
   21.6439  -11.3331  -16.0769 C   0  0  0  0  0  0  0  0  0  0  0  0
   21.6018  -10.9258  -17.2648 O   0  0  0  0  0  0  0  0  0  0  0  0
   21.1842  -10.4928  -15.0144 N   0  0  0  0  0  0  0  0  0  0  0  0
   20.7762   -9.1328  -15.1699 C   0  0  1  0  0  0  0  0  0  0  0  0
   19.4464   -8.8333  -14.5718 C   0  0  0  0  0  0  0  0  0  0  0  0
   18.3298   -9.4615  -15.2649 C   0  0  0  0  0  0  0  0  0  0  0  0
   18.3047  -10.1921  -16.4315 C   0  0  0  0  0  0  0  0  0  0  0  0
   17.0467  -10.5729  -16.7141 N   0  0  0  0  0  0  0  0  0  0  0  0
   16.2550  -10.0917  -15.7342 C   0  0  0  0  0  0  0  0  0  0  0  0
   17.0255   -9.4256  -14.8661 N   0  0  0  0  0  0  0  0  0  0  0  0
   21.8502   -8.1586  -14.8063 C   0  0  0  0  0  0  0  0  0  0  0  0
   21.6153   -6.8096  -14.9854 O   0  0  0  0  0  0  0  0  0  0  0  0
   22.9661   -8.4811  -14.3408 O   0  0  0  0  0  0  0  0  0  0  0  0
  2  1  1  6
  2  3  1  0
  4  6  1  0
  4  2  1  0
  4  5  1  1
  6  7  2  0
  9  8  1  0
 10  9  1  0
 11 10  1  0
 12 11  1  6
 13  6  1  0
 13 12  1  0
 14 15  2  0
 14 12  1  0
 16 14  1  0
 17 16  1  0
 18 19  1  0
 17 18  1  1
 19 20  2  0
 21 20  1  0
 22 21  1  0
 23 22  2  0
 23 19  1  0
 24 17  1  0
 24 25  1  0
 26 24  2  0
M  END
$$$$
