VMH.pdb
     RDKit          3D

 26 26  0  0  1  0  0  0  0  0999 V2000
   18.7043  -29.2566  -18.1805 C   0  0  0  0  0  0  0  0  0  0  0  0
   18.3814  -30.6482  -17.7441 C   0  0  1  0  0  0  0  0  0  0  0  0
   19.5110  -31.5673  -18.1579 C   0  0  0  0  0  0  0  0  0  0  0  0
   18.1340  -30.7307  -16.2406 C   0  0  2  0  0  0  0  0  0  0  0  0
   16.9934  -29.9105  -15.9120 N   0  0  0  0  0  0  0  0  0  0  0  0
   19.3281  -30.2137  -15.5237 C   0  0  0  0  0  0  0  0  0  0  0  0
   20.4371  -30.8292  -15.5952 O   0  0  0  0  0  0  0  0  0  0  0  0
   20.1056  -24.3215  -13.6510 C   0  0  0  0  0  0  0  0  0  0  0  0
   19.2823  -25.1206  -12.2487 S   0  0  0  0  0  0  0  0  0  0  0  0
   19.3234  -26.9338  -12.5190 C   0  0  0  0  0  0  0  0  0  0  0  0
   20.2862  -27.1706  -13.6398 C   0  0  0  0  0  0  0  0  0  0  0  0
   20.4917  -28.6221  -13.9878 C   0  0  2  0  0  0  0  0  0  0  0  0
   19.3145  -29.0413  -14.7391 N   0  0  0  0  0  0  0  0  0  0  0  0
   20.6677  -29.4784  -12.7736 C   0  0  0  0  0  0  0  0  0  0  0  0
   19.6750  -29.9682  -12.1793 O   0  0  0  0  0  0  0  0  0  0  0  0
   21.9899  -29.7360  -12.2924 N   0  0  0  0  0  0  0  0  0  0  0  0
   22.3034  -30.5840  -11.1865 C   0  0  1  0  0  0  0  0  0  0  0  0
   23.7621  -30.8187  -11.0051 C   0  0  0  0  0  0  0  0  0  0  0  0
   24.0852  -31.7215   -9.9086 C   0  0  0  0  0  0  0  0  0  0  0  0
   23.2607  -32.3605   -9.0101 C   0  0  0  0  0  0  0  0  0  0  0  0
   23.9896  -33.0938   -8.1510 N   0  0  0  0  0  0  0  0  0  0  0  0
   25.2850  -32.9330   -8.4891 C   0  0  0  0  0  0  0  0  0  0  0  0
   25.3410  -32.1100   -9.5429 N   0  0  0  0  0  0  0  0  0  0  0  0
   21.5797  -30.1999   -9.9361 C   0  0  0  0  0  0  0  0  0  0  0  0
   21.3970  -28.8600   -9.6563 O   0  0  0  0  0  0  0  0  0  0  0  0
   21.1167  -31.0181   -9.1101 O   0  0  0  0  0  0  0  0  0  0  0  0
  2  1  1  1
  2  3  1  0
  4  6  1  0
  4  2  1  0
  4  5  1  6
  6  7  2  0
  9  8  1  0
 10  9  1  0
 11 10  1  0
 12 11  1  1
 13  6  1  0
 13 12  1  0
 14 15  2  0
 14 12  1  0
 16 14  1  0
 17 16  1  0
 18 19  1  0
 17 18  1  1
 19 20  2  0
 21 20  1  0
 22 21  1  0
 23 22  2  0
 23 19  1  0
 24 17  1  0
 24 25  1  0
 26 24  2  0
M  END
$$$$
