VMH.pdb
     RDKit          3D

 26 26  0  0  1  0  0  0  0  0999 V2000
   18.7375  -15.1731  -15.5046 C   0  0  0  0  0  0  0  0  0  0  0  0
   18.8962  -13.7379  -15.8870 C   0  0  1  0  0  0  0  0  0  0  0  0
   20.3176  -13.5086  -16.3552 C   0  0  0  0  0  0  0  0  0  0  0  0
   17.8946  -13.3202  -16.9598 C   0  0  2  0  0  0  0  0  0  0  0  0
   18.1220  -14.1153  -18.1421 N   0  0  0  0  0  0  0  0  0  0  0  0
   18.1060  -11.8870  -17.2889 C   0  0  0  0  0  0  0  0  0  0  0  0
   18.8439  -11.5545  -18.2681 O   0  0  0  0  0  0  0  0  0  0  0  0
   14.6902   -5.2025  -18.5320 C   0  0  0  0  0  0  0  0  0  0  0  0
   14.6969   -6.8697  -17.8226 S   0  0  0  0  0  0  0  0  0  0  0  0
   16.4413   -7.3906  -17.6028 C   0  0  0  0  0  0  0  0  0  0  0  0
   16.4029   -8.8307  -17.1981 C   0  0  0  0  0  0  0  0  0  0  0  0
   17.7552   -9.4386  -16.9305 C   0  0  2  0  0  0  0  0  0  0  0  0
   17.5213  -10.8294  -16.5608 N   0  0  0  0  0  0  0  0  0  0  0  0
   18.4931   -8.7263  -15.8411 C   0  0  0  0  0  0  0  0  0  0  0  0
   18.1417   -8.8422  -14.6404 O   0  0  0  0  0  0  0  0  0  0  0  0
   19.6129   -7.9050  -16.1841 N   0  0  0  0  0  0  0  0  0  0  0  0
   20.4268   -7.2031  -15.2431 C   0  0  1  0  0  0  0  0  0  0  0  0
   21.8875   -7.4087  -15.4426 C   0  0  0  0  0  0  0  0  0  0  0  0
   22.3067   -8.8013  -15.3602 C   0  0  0  0  0  0  0  0  0  0  0  0
   21.5759   -9.9354  -15.0867 C   0  0  0  0  0  0  0  0  0  0  0  0
   22.3744  -11.0168  -15.0994 N   0  0  0  0  0  0  0  0  0  0  0  0
   23.6216  -10.5881  -15.3804 C   0  0  0  0  0  0  0  0  0  0  0  0
   23.5797   -9.2596  -15.5365 N   0  0  0  0  0  0  0  0  0  0  0  0
   20.0215   -5.7739  -15.0764 C   0  0  0  0  0  0  0  0  0  0  0  0
   20.5055   -5.0655  -13.9942 O   0  0  0  0  0  0  0  0  0  0  0  0
   19.2640   -5.1600  -15.8608 O   0  0  0  0  0  0  0  0  0  0  0  0
  2  1  1  6
  2  3  1  0
  4  6  1  0
  4  2  1  0
  4  5  1  6
  6  7  2  0
  9  8  1  0
 10  9  1  0
 11 10  1  0
 12 11  1  1
 13  6  1  0
 13 12  1  0
 14 15  2  0
 14 12  1  0
 16 14  1  0
 17 16  1  0
 18 19  1  0
 17 18  1  6
 19 20  2  0
 21 20  1  0
 22 21  1  0
 23 22  2  0
 23 19  1  0
 24 17  1  0
 24 25  1  0
 26 24  2  0
M  END
$$$$
