VMH.pdb
     RDKit          3D

 26 26  0  0  1  0  0  0  0  0999 V2000
   26.4821  -18.3043  -13.4429 C   0  0  0  0  0  0  0  0  0  0  0  0
   26.8006  -19.5515  -14.2009 C   0  0  1  0  0  0  0  0  0  0  0  0
   27.4744  -19.1760  -15.5036 C   0  0  0  0  0  0  0  0  0  0  0  0
   27.6744  -20.5037  -13.3895 C   0  0  2  0  0  0  0  0  0  0  0  0
   27.8810  -21.7097  -14.1541 N   0  0  0  0  0  0  0  0  0  0  0  0
   26.9751  -20.8437  -12.1236 C   0  0  0  0  0  0  0  0  0  0  0  0
   25.9991  -21.6569  -12.1269 O   0  0  0  0  0  0  0  0  0  0  0  0
   27.5117  -20.4009   -4.2677 C   0  0  0  0  0  0  0  0  0  0  0  0
   28.1888  -20.1095   -5.9228 S   0  0  0  0  0  0  0  0  0  0  0  0
   26.9012  -20.5477   -7.1526 C   0  0  0  0  0  0  0  0  0  0  0  0
   27.5175  -20.3388   -8.5001 C   0  0  0  0  0  0  0  0  0  0  0  0
   26.6105  -20.6674   -9.6574 C   0  0  2  0  0  0  0  0  0  0  0  0
   27.3341  -20.3049  -10.8701 N   0  0  0  0  0  0  0  0  0  0  0  0
   25.3096  -19.9318   -9.5866 C   0  0  0  0  0  0  0  0  0  0  0  0
   25.2375  -18.7160   -9.8952 O   0  0  0  0  0  0  0  0  0  0  0  0
   24.1383  -20.6336   -9.1603 N   0  0  0  0  0  0  0  0  0  0  0  0
   22.8511  -20.5148   -9.7682 C   0  0  1  0  0  0  0  0  0  0  0  0
   22.8649  -20.7052  -11.2445 C   0  0  0  0  0  0  0  0  0  0  0  0
   21.5662  -20.5209  -11.8779 C   0  0  0  0  0  0  0  0  0  0  0  0
   20.9179  -19.3677  -12.2587 C   0  0  0  0  0  0  0  0  0  0  0  0
   19.7224  -19.6633  -12.7978 N   0  0  0  0  0  0  0  0  0  0  0  0
   19.5926  -21.0052  -12.7682 C   0  0  0  0  0  0  0  0  0  0  0  0
   20.6987  -21.5181  -12.2165 N   0  0  0  0  0  0  0  0  0  0  0  0
   21.7969  -21.2984   -9.0546 C   0  0  0  0  0  0  0  0  0  0  0  0
   20.4954  -20.8370   -9.0737 O   0  0  0  0  0  0  0  0  0  0  0  0
   22.0101  -22.3625   -8.4314 O   0  0  0  0  0  0  0  0  0  0  0  0
  2  1  1  1
  2  3  1  0
  4  6  1  0
  4  2  1  0
  4  5  1  6
  6  7  2  0
  9  8  1  0
 10  9  1  0
 11 10  1  0
 12 11  1  1
 13  6  1  0
 13 12  1  0
 14 15  2  0
 14 12  1  0
 16 14  1  0
 17 16  1  0
 18 19  1  0
 17 18  1  6
 19 20  2  0
 21 20  1  0
 22 21  1  0
 23 22  2  0
 23 19  1  0
 24 17  1  0
 24 25  1  0
 26 24  2  0
M  END
$$$$
