VMH.pdb
     RDKit          3D

 26 26  0  0  1  0  0  0  0  0999 V2000
   19.0167  -13.8917  -18.2984 C   0  0  0  0  0  0  0  0  0  0  0  0
   20.2443  -14.2269  -19.0806 C   0  0  1  0  0  0  0  0  0  0  0  0
   20.6569  -13.0159  -19.8901 C   0  0  0  0  0  0  0  0  0  0  0  0
   21.3836  -14.6948  -18.1798 C   0  0  2  0  0  0  0  0  0  0  0  0
   20.9401  -15.8446  -17.4295 N   0  0  0  0  0  0  0  0  0  0  0  0
   21.7346  -13.6030  -17.2353 C   0  0  0  0  0  0  0  0  0  0  0  0
   20.9700  -13.3274  -16.2590 O   0  0  0  0  0  0  0  0  0  0  0  0
   28.0142  -13.8561  -14.9526 C   0  0  0  0  0  0  0  0  0  0  0  0
   27.1561  -12.5378  -15.8518 S   0  0  0  0  0  0  0  0  0  0  0  0
   25.3508  -12.7994  -15.6646 C   0  0  0  0  0  0  0  0  0  0  0  0
   24.6857  -11.6319  -16.3232 C   0  0  0  0  0  0  0  0  0  0  0  0
   23.1858  -11.7406  -16.4159 C   0  0  2  0  0  0  0  0  0  0  0  0
   22.9033  -12.8216  -17.3527 N   0  0  0  0  0  0  0  0  0  0  0  0
   22.5514  -10.4680  -16.8812 C   0  0  0  0  0  0  0  0  0  0  0  0
   22.3605  -10.2510  -18.1040 O   0  0  0  0  0  0  0  0  0  0  0  0
   22.1608   -9.4925  -15.9107 N   0  0  0  0  0  0  0  0  0  0  0  0
   21.5354   -8.2450  -16.2158 C   0  0  1  0  0  0  0  0  0  0  0  0
   20.4099   -8.3589  -17.1834 C   0  0  0  0  0  0  0  0  0  0  0  0
   19.7782   -7.0876  -17.5099 C   0  0  0  0  0  0  0  0  0  0  0  0
   20.0694   -6.1785  -18.5020 C   0  0  0  0  0  0  0  0  0  0  0  0
   19.2339   -5.1279  -18.4289 N   0  0  0  0  0  0  0  0  0  0  0  0
   18.4011   -5.3522  -17.3924 C   0  0  0  0  0  0  0  0  0  0  0  0
   18.7284   -6.5273  -16.8423 N   0  0  0  0  0  0  0  0  0  0  0  0
   21.2222   -7.4384  -14.9967 C   0  0  0  0  0  0  0  0  0  0  0  0
   20.7668   -6.1440  -15.1525 O   0  0  0  0  0  0  0  0  0  0  0  0
   21.3422   -7.8581  -13.8239 O   0  0  0  0  0  0  0  0  0  0  0  0
  2  1  1  1
  2  3  1  0
  4  6  1  0
  4  2  1  0
  4  5  1  1
  6  7  2  0
  9  8  1  0
 10  9  1  0
 11 10  1  0
 12 11  1  6
 13  6  1  0
 13 12  1  0
 14 15  2  0
 14 12  1  0
 16 14  1  0
 17 16  1  0
 18 19  1  0
 17 18  1  1
 19 20  2  0
 21 20  1  0
 22 21  1  0
 23 22  2  0
 23 19  1  0
 24 17  1  0
 24 25  1  0
 26 24  2  0
M  END
$$$$
