VMH.pdb
     RDKit          3D

 26 26  0  0  1  0  0  0  0  0999 V2000
   26.6926  -18.1020  -14.5139 C   0  0  0  0  0  0  0  0  0  0  0  0
   27.4199  -19.2390  -15.1540 C   0  0  1  0  0  0  0  0  0  0  0  0
   28.4874  -18.6840  -16.0730 C   0  0  0  0  0  0  0  0  0  0  0  0
   28.0274  -20.1814  -14.1189 C   0  0  2  0  0  0  0  0  0  0  0  0
   28.6908  -21.2618  -14.8075 N   0  0  0  0  0  0  0  0  0  0  0  0
   26.9403  -20.7380  -13.2730 C   0  0  0  0  0  0  0  0  0  0  0  0
   26.1679  -21.6376  -13.7288 O   0  0  0  0  0  0  0  0  0  0  0  0
   28.4976  -20.5022   -6.6321 C   0  0  0  0  0  0  0  0  0  0  0  0
   26.9211  -20.0988   -7.4289 S   0  0  0  0  0  0  0  0  0  0  0  0
   26.9592  -20.7596   -9.1389 C   0  0  0  0  0  0  0  0  0  0  0  0
   25.6918  -20.3075   -9.7934 C   0  0  0  0  0  0  0  0  0  0  0  0
   25.5229  -20.7775  -11.2149 C   0  0  2  0  0  0  0  0  0  0  0  0
   26.6977  -20.3201  -11.9475 N   0  0  0  0  0  0  0  0  0  0  0  0
   24.2751  -20.2447  -11.8453 C   0  0  0  0  0  0  0  0  0  0  0  0
   24.2947  -19.1866  -12.5228 O   0  0  0  0  0  0  0  0  0  0  0  0
   23.0485  -20.9589  -11.6672 N   0  0  0  0  0  0  0  0  0  0  0  0
   21.9660  -20.9636  -12.5991 C   0  0  1  0  0  0  0  0  0  0  0  0
   22.3136  -21.5567  -13.9194 C   0  0  0  0  0  0  0  0  0  0  0  0
   21.2451  -21.4739  -14.9060 C   0  0  0  0  0  0  0  0  0  0  0  0
   20.3281  -22.4199  -15.3054 C   0  0  0  0  0  0  0  0  0  0  0  0
   19.5265  -21.9159  -16.2597 N   0  0  0  0  0  0  0  0  0  0  0  0
   19.9203  -20.6453  -16.4809 C   0  0  0  0  0  0  0  0  0  0  0  0
   20.9507  -20.3816  -15.6687 N   0  0  0  0  0  0  0  0  0  0  0  0
   20.6925  -21.4768  -12.0079 C   0  0  0  0  0  0  0  0  0  0  0  0
   19.4923  -20.9776  -12.4740 O   0  0  0  0  0  0  0  0  0  0  0  0
   20.6326  -22.3430  -11.1067 O   0  0  0  0  0  0  0  0  0  0  0  0
  2  1  1  1
  2  3  1  0
  4  6  1  0
  4  2  1  0
  4  5  1  6
  6  7  2  0
  9  8  1  0
 10  9  1  0
 11 10  1  0
 12 11  1  1
 13  6  1  0
 13 12  1  0
 14 15  2  0
 14 12  1  0
 16 14  1  0
 17 16  1  0
 18 19  1  0
 17 18  1  6
 19 20  2  0
 21 20  1  0
 22 21  1  0
 23 22  2  0
 23 19  1  0
 24 17  1  0
 24 25  1  0
 26 24  2  0
M  END
$$$$
