VMH.pdb
     RDKit          3D

 26 26  0  0  1  0  0  0  0  0999 V2000
   28.6315  -18.2062  -15.8154 C   0  0  0  0  0  0  0  0  0  0  0  0
   27.5360  -18.8496  -15.0298 C   0  0  1  0  0  0  0  0  0  0  0  0
   26.3065  -18.9659  -15.9056 C   0  0  0  0  0  0  0  0  0  0  0  0
   27.9501  -20.2144  -14.4871 C   0  0  2  0  0  0  0  0  0  0  0  0
   28.1274  -21.1206  -15.5958 N   0  0  0  0  0  0  0  0  0  0  0  0
   26.8739  -20.7315  -13.6031 C   0  0  0  0  0  0  0  0  0  0  0  0
   25.9785  -21.5050  -14.0656 O   0  0  0  0  0  0  0  0  0  0  0  0
   27.0810  -19.5089   -7.5998 C   0  0  0  0  0  0  0  0  0  0  0  0
   25.4777  -20.3237   -7.3794 S   0  0  0  0  0  0  0  0  0  0  0  0
   24.8752  -20.8553   -9.0277 C   0  0  0  0  0  0  0  0  0  0  0  0
   25.9326  -20.4601  -10.0101 C   0  0  0  0  0  0  0  0  0  0  0  0
   25.6389  -20.8557  -11.4339 C   0  0  2  0  0  0  0  0  0  0  0  0
   26.7744  -20.4105  -12.2329 N   0  0  0  0  0  0  0  0  0  0  0  0
   24.3713  -20.2456  -11.9434 C   0  0  0  0  0  0  0  0  0  0  0  0
   24.3947  -19.2254  -12.6764 O   0  0  0  0  0  0  0  0  0  0  0  0
   23.1215  -20.8414  -11.5842 N   0  0  0  0  0  0  0  0  0  0  0  0
   21.9286  -20.7663  -12.3664 C   0  0  1  0  0  0  0  0  0  0  0  0
   22.0680  -21.3462  -13.7303 C   0  0  0  0  0  0  0  0  0  0  0  0
   22.2763  -20.3551  -14.7772 C   0  0  0  0  0  0  0  0  0  0  0  0
   22.2304  -18.9802  -14.7223 C   0  0  0  0  0  0  0  0  0  0  0  0
   22.4731  -18.4585  -15.9372 N   0  0  0  0  0  0  0  0  0  0  0  0
   22.6766  -19.4906  -16.7808 C   0  0  0  0  0  0  0  0  0  0  0  0
   22.5584  -20.6271  -16.0841 N   0  0  0  0  0  0  0  0  0  0  0  0
   20.7158  -21.2239  -11.6220 C   0  0  0  0  0  0  0  0  0  0  0  0
   19.4873  -20.6881  -11.9550 O   0  0  0  0  0  0  0  0  0  0  0  0
   20.7314  -22.0741  -10.7038 O   0  0  0  0  0  0  0  0  0  0  0  0
  2  1  1  6
  2  3  1  0
  4  6  1  0
  4  2  1  0
  4  5  1  6
  6  7  2  0
  9  8  1  0
 10  9  1  0
 11 10  1  0
 12 11  1  1
 13  6  1  0
 13 12  1  0
 14 15  2  0
 14 12  1  0
 16 14  1  0
 17 16  1  0
 18 19  1  0
 17 18  1  6
 19 20  2  0
 21 20  1  0
 22 21  1  0
 23 22  2  0
 23 19  1  0
 24 17  1  0
 24 25  1  0
 26 24  2  0
M  END
$$$$
