VMH.pdb
     RDKit          3D

 26 26  0  0  1  0  0  0  0  0999 V2000
   28.6741  -18.0388  -15.7010 C   0  0  0  0  0  0  0  0  0  0  0  0
   27.5619  -18.7545  -15.0067 C   0  0  1  0  0  0  0  0  0  0  0  0
   26.4281  -18.9686  -15.9870 C   0  0  0  0  0  0  0  0  0  0  0  0
   28.0234  -20.0803  -14.4086 C   0  0  2  0  0  0  0  0  0  0  0  0
   28.4145  -20.9625  -15.4812 N   0  0  0  0  0  0  0  0  0  0  0  0
   26.8957  -20.6935  -13.6608 C   0  0  0  0  0  0  0  0  0  0  0  0
   26.1468  -21.5545  -14.2192 O   0  0  0  0  0  0  0  0  0  0  0  0
   25.2556  -20.4717   -7.1779 C   0  0  0  0  0  0  0  0  0  0  0  0
   26.9309  -20.5786   -7.8596 S   0  0  0  0  0  0  0  0  0  0  0  0
   26.8169  -21.2822   -9.5491 C   0  0  0  0  0  0  0  0  0  0  0  0
   25.6039  -20.6724  -10.1782 C   0  0  0  0  0  0  0  0  0  0  0  0
   25.4446  -20.9751  -11.6455 C   0  0  2  0  0  0  0  0  0  0  0  0
   26.5875  -20.3732  -12.3218 N   0  0  0  0  0  0  0  0  0  0  0  0
   24.1653  -20.4344  -12.2018 C   0  0  0  0  0  0  0  0  0  0  0  0
   23.8608  -19.2234  -12.0615 O   0  0  0  0  0  0  0  0  0  0  0  0
   23.2847  -21.3183  -12.9015 N   0  0  0  0  0  0  0  0  0  0  0  0
   22.0213  -20.9423  -13.4518 C   0  0  1  0  0  0  0  0  0  0  0  0
   21.6092  -21.7629  -14.6234 C   0  0  0  0  0  0  0  0  0  0  0  0
   20.3540  -21.3410  -15.2302 C   0  0  0  0  0  0  0  0  0  0  0  0
   19.9534  -20.1011  -15.6749 C   0  0  0  0  0  0  0  0  0  0  0  0
   18.6996  -20.1629  -16.1557 N   0  0  0  0  0  0  0  0  0  0  0  0
   18.2848  -21.4393  -16.0246 C   0  0  0  0  0  0  0  0  0  0  0  0
   19.2776  -22.1445  -15.4697 N   0  0  0  0  0  0  0  0  0  0  0  0
   20.9609  -20.7751  -12.4115 C   0  0  0  0  0  0  0  0  0  0  0  0
   20.7775  -21.7773  -11.4793 O   0  0  0  0  0  0  0  0  0  0  0  0
   20.2149  -19.7746  -12.3200 O   0  0  0  0  0  0  0  0  0  0  0  0
  2  1  1  6
  2  3  1  0
  4  6  1  0
  4  2  1  0
  4  5  1  6
  6  7  2  0
  9  8  1  0
 10  9  1  0
 11 10  1  0
 12 11  1  1
 13  6  1  0
 13 12  1  0
 14 15  2  0
 14 12  1  0
 16 14  1  0
 17 16  1  0
 18 19  1  0
 17 18  1  6
 19 20  2  0
 21 20  1  0
 22 21  1  0
 23 22  2  0
 23 19  1  0
 24 17  1  0
 24 25  1  0
 26 24  2  0
M  END
$$$$
