VMH.pdb
     RDKit          3D

 26 26  0  0  1  0  0  0  0  0999 V2000
   17.5680  -23.7056  -14.7983 C   0  0  0  0  0  0  0  0  0  0  0  0
   18.3019  -24.0377  -13.5403 C   0  0  1  0  0  0  0  0  0  0  0  0
   19.7336  -23.5618  -13.6666 C   0  0  0  0  0  0  0  0  0  0  0  0
   17.6312  -23.4291  -12.3121 C   0  0  2  0  0  0  0  0  0  0  0  0
   17.5749  -21.9967  -12.4758 N   0  0  0  0  0  0  0  0  0  0  0  0
   18.4409  -23.7500  -11.1086 C   0  0  0  0  0  0  0  0  0  0  0  0
   18.6426  -24.9586  -10.7733 O   0  0  0  0  0  0  0  0  0  0  0  0
   23.6552  -20.8114   -8.7439 C   0  0  0  0  0  0  0  0  0  0  0  0
   22.1287  -19.9071   -9.1113 S   0  0  0  0  0  0  0  0  0  0  0  0
   20.8992  -21.1015   -9.7625 C   0  0  0  0  0  0  0  0  0  0  0  0
   20.5563  -22.0139   -8.6271 C   0  0  0  0  0  0  0  0  0  0  0  0
   19.5881  -23.1125   -8.9817 C   0  0  2  0  0  0  0  0  0  0  0  0
   19.0234  -22.7672  -10.2809 N   0  0  0  0  0  0  0  0  0  0  0  0
   18.5016  -23.2629   -7.9641 C   0  0  0  0  0  0  0  0  0  0  0  0
   17.4359  -22.6036   -8.0549 O   0  0  0  0  0  0  0  0  0  0  0  0
   18.6906  -24.1734   -6.8771 N   0  0  0  0  0  0  0  0  0  0  0  0
   17.6689  -24.5731   -5.9624 C   0  0  1  0  0  0  0  0  0  0  0  0
   16.3934  -24.9658   -6.6217 C   0  0  0  0  0  0  0  0  0  0  0  0
   15.3102  -25.2551   -5.6918 C   0  0  0  0  0  0  0  0  0  0  0  0
   14.8492  -24.5363   -4.6119 C   0  0  0  0  0  0  0  0  0  0  0  0
   13.8312  -25.1864   -4.0216 N   0  0  0  0  0  0  0  0  0  0  0  0
   13.6298  -26.3251   -4.7152 C   0  0  0  0  0  0  0  0  0  0  0  0
   14.5171  -26.3651   -5.7162 N   0  0  0  0  0  0  0  0  0  0  0  0
   18.1563  -25.5425   -4.9341 C   0  0  0  0  0  0  0  0  0  0  0  0
   17.3702  -25.7907   -3.8262 O   0  0  0  0  0  0  0  0  0  0  0  0
   19.2430  -26.1588   -5.0056 O   0  0  0  0  0  0  0  0  0  0  0  0
  2  1  1  6
  2  3  1  0
  4  6  1  0
  4  2  1  0
  4  5  1  6
  6  7  2  0
  9  8  1  0
 10  9  1  0
 11 10  1  0
 12 11  1  1
 13  6  1  0
 13 12  1  0
 14 15  2  0
 14 12  1  0
 16 14  1  0
 17 16  1  0
 18 19  1  0
 17 18  1  6
 19 20  2  0
 21 20  1  0
 22 21  1  0
 23 22  2  0
 23 19  1  0
 24 17  1  0
 24 25  1  0
 26 24  2  0
M  END
$$$$
