VMH.pdb
     RDKit          3D

 26 26  0  0  1  0  0  0  0  0999 V2000
   19.4317   -6.9549  -15.5137 C   0  0  0  0  0  0  0  0  0  0  0  0
   20.6015   -7.5241  -16.2477 C   0  0  1  0  0  0  0  0  0  0  0  0
   20.4630   -7.1992  -17.7199 C   0  0  0  0  0  0  0  0  0  0  0  0
   21.9267   -7.0054  -15.6970 C   0  0  2  0  0  0  0  0  0  0  0  0
   22.0027   -5.5839  -15.9321 N   0  0  0  0  0  0  0  0  0  0  0  0
   23.0440   -7.6770  -16.4095 C   0  0  0  0  0  0  0  0  0  0  0  0
   23.5563   -7.1481  -17.4447 O   0  0  0  0  0  0  0  0  0  0  0  0
   28.8846  -12.8442  -15.5608 C   0  0  0  0  0  0  0  0  0  0  0  0
   27.4231  -11.9828  -14.9246 S   0  0  0  0  0  0  0  0  0  0  0  0
   26.6728  -11.0349  -16.3033 C   0  0  0  0  0  0  0  0  0  0  0  0
   25.4767  -10.3390  -15.7340 C   0  0  0  0  0  0  0  0  0  0  0  0
   24.6967   -9.5238  -16.7325 C   0  0  2  0  0  0  0  0  0  0  0  0
   23.5962   -8.9089  -15.9998 N   0  0  0  0  0  0  0  0  0  0  0  0
   24.1722  -10.3559  -17.8598 C   0  0  0  0  0  0  0  0  0  0  0  0
   23.0364  -10.8893  -17.7948 O   0  0  0  0  0  0  0  0  0  0  0  0
   24.9845  -10.5394  -19.0228 N   0  0  0  0  0  0  0  0  0  0  0  0
   24.5233  -11.0811  -20.2614 C   0  0  1  0  0  0  0  0  0  0  0  0
   23.4697  -10.2610  -20.9196 C   0  0  0  0  0  0  0  0  0  0  0  0
   22.1153  -10.5791  -20.4882 C   0  0  0  0  0  0  0  0  0  0  0  0
   20.9446   -9.8704  -20.6378 C   0  0  0  0  0  0  0  0  0  0  0  0
   19.9233  -10.5355  -20.0704 N   0  0  0  0  0  0  0  0  0  0  0  0
   20.4275  -11.6740  -19.5530 C   0  0  0  0  0  0  0  0  0  0  0  0
   21.7417  -11.6990  -19.8041 N   0  0  0  0  0  0  0  0  0  0  0  0
   25.6390  -11.4945  -21.1664 C   0  0  0  0  0  0  0  0  0  0  0  0
   25.4835  -12.6258  -21.9429 O   0  0  0  0  0  0  0  0  0  0  0  0
   26.7228  -10.8784  -21.2759 O   0  0  0  0  0  0  0  0  0  0  0  0
  2  1  1  1
  2  3  1  0
  4  6  1  0
  4  2  1  0
  4  5  1  6
  6  7  2  0
  9  8  1  0
 10  9  1  0
 11 10  1  0
 12 11  1  1
 13  6  1  0
 13 12  1  0
 14 15  2  0
 14 12  1  0
 16 14  1  0
 17 16  1  0
 18 19  1  0
 17 18  1  6
 19 20  2  0
 21 20  1  0
 22 21  1  0
 23 22  2  0
 23 19  1  0
 24 17  1  0
 24 25  1  0
 26 24  2  0
M  END
$$$$
