IVL.pdb
     RDKit          3D

 24 23  0  0  1  0  0  0  0  0999 V2000
   34.2055  -29.3020  -19.3420 C   0  0  0  0  0  0  0  0  0  0  0  0
   32.7821  -29.4017  -19.7727 C   0  0  0  0  0  0  0  0  0  0  0  0
   31.7812  -29.1540  -18.6455 C   0  0  2  0  0  0  0  0  0  0  0  0
   32.1015  -30.1991  -17.5973 C   0  0  0  0  0  0  0  0  0  0  0  0
   30.3925  -29.4196  -19.2206 C   0  0  2  0  0  0  0  0  0  0  0  0
   30.2428  -28.4096  -20.2833 N   0  0  0  0  0  0  0  0  0  0  0  0
   29.3076  -29.2136  -18.2653 C   0  0  0  0  0  0  0  0  0  0  0  0
   29.3299  -29.8452  -17.1561 O   0  0  0  0  0  0  0  0  0  0  0  0
   28.0743  -25.9887  -16.7066 C   0  0  0  0  0  0  0  0  0  0  0  0
   26.8922  -26.6926  -17.3221 C   0  0  1  0  0  0  0  0  0  0  0  0
   26.5995  -26.0975  -18.6648 C   0  0  0  0  0  0  0  0  0  0  0  0
   27.1507  -28.1997  -17.4220 C   0  0  2  0  0  0  0  0  0  0  0  0
   28.1841  -28.3613  -18.4232 N   0  0  0  0  0  0  0  0  0  0  0  0
   25.8668  -28.8164  -17.8300 C   0  0  0  0  0  0  0  0  0  0  0  0
   25.6113  -29.1825  -19.0008 O   0  0  0  0  0  0  0  0  0  0  0  0
   22.8514  -32.1163  -14.2824 C   0  0  0  0  0  0  0  0  0  0  0  0
   23.4186  -31.5710  -15.5535 C   0  0  1  0  0  0  0  0  0  0  0  0
   23.1926  -32.5670  -16.7104 C   0  0  0  0  0  0  0  0  0  0  0  0
   23.0643  -30.2136  -15.9594 C   0  0  0  0  0  0  0  0  0  0  0  0
   23.5758  -29.6095  -17.2262 C   0  0  2  0  0  0  0  0  0  0  0  0
   24.8854  -28.9946  -16.8299 N   0  0  0  0  0  0  0  0  0  0  0  0
   22.7624  -28.5050  -17.7073 C   0  0  0  0  0  0  0  0  0  0  0  0
   21.6777  -28.5776  -18.5498 O   0  0  0  0  0  0  0  0  0  0  0  0
   23.0582  -27.3122  -17.3357 O   0  0  0  0  0  0  0  0  0  0  0  0
  2  1  1  0
  3  2  1  0
  3  4  1  1
  5  3  1  0
  5  7  1  0
  5  6  1  6
  7  8  2  0
 10 12  1  0
 10 11  1  6
 10  9  1  0
 13  7  1  0
 12 13  1  6
 14 12  1  0
 14 15  2  0
 17 19  1  0
 17 16  1  1
 18 17  1  0
 20 19  1  1
 20 21  1  0
 20 22  1  0
 21 14  1  0
 22 23  1  0
 24 22  2  0
M  END
$$$$
