IVL.pdb
     RDKit          3D

 24 23  0  0  1  0  0  0  0  0999 V2000
   20.1350  -15.5638  -17.8916 C   0  0  0  0  0  0  0  0  0  0  0  0
   21.4155  -15.5869  -17.1292 C   0  0  0  0  0  0  0  0  0  0  0  0
   22.6578  -15.4994  -18.0139 C   0  0  2  0  0  0  0  0  0  0  0  0
   22.6261  -16.7529  -18.8631 C   0  0  0  0  0  0  0  0  0  0  0  0
   23.8673  -15.5457  -17.0840 C   0  0  2  0  0  0  0  0  0  0  0  0
   23.6328  -16.7348  -16.2457 N   0  0  0  0  0  0  0  0  0  0  0  0
   23.9713  -14.3948  -16.1914 C   0  0  0  0  0  0  0  0  0  0  0  0
   23.2368  -14.3509  -15.1482 O   0  0  0  0  0  0  0  0  0  0  0  0
   26.1774  -10.1867  -14.7436 C   0  0  0  0  0  0  0  0  0  0  0  0
   26.1566  -11.4857  -15.5076 C   0  0  1  0  0  0  0  0  0  0  0  0
   27.1459  -12.4354  -14.9061 C   0  0  0  0  0  0  0  0  0  0  0  0
   24.7454  -12.0827  -15.5231 C   0  0  2  0  0  0  0  0  0  0  0  0
   24.8248  -13.2717  -16.3457 N   0  0  0  0  0  0  0  0  0  0  0  0
   23.8617  -11.0478  -16.1089 C   0  0  0  0  0  0  0  0  0  0  0  0
   23.8773  -10.7226  -17.3189 O   0  0  0  0  0  0  0  0  0  0  0  0
   19.4644   -8.6374  -17.6576 C   0  0  0  0  0  0  0  0  0  0  0  0
   19.5304   -9.2743  -16.3067 C   0  0  1  0  0  0  0  0  0  0  0  0
   18.2674  -10.1243  -16.0543 C   0  0  0  0  0  0  0  0  0  0  0  0
   20.7352  -10.0092  -15.9310 C   0  0  0  0  0  0  0  0  0  0  0  0
   22.0644   -9.3380  -15.8118 C   0  0  2  0  0  0  0  0  0  0  0  0
   22.9555  -10.4005  -15.2400 N   0  0  0  0  0  0  0  0  0  0  0  0
   22.0794   -8.2585  -14.8384 C   0  0  0  0  0  0  0  0  0  0  0  0
   22.4328   -8.3412  -13.5118 O   0  0  0  0  0  0  0  0  0  0  0  0
   21.7237   -7.0833  -15.2135 O   0  0  0  0  0  0  0  0  0  0  0  0
  2  1  1  0
  3  2  1  0
  3  4  1  6
  5  3  1  0
  5  7  1  0
  5  6  1  1
  7  8  2  0
 10 12  1  0
 10 11  1  1
 10  9  1  0
 13  7  1  0
 12 13  1  6
 14 12  1  0
 14 15  2  0
 17 19  1  0
 17 16  1  6
 18 17  1  0
 20 19  1  1
 20 21  1  0
 20 22  1  0
 21 14  1  0
 22 23  1  0
 24 22  2  0
M  END
$$$$
