IVL.pdb
     RDKit          3D

 24 23  0  0  1  0  0  0  0  0999 V2000
   29.0485  -17.0823  -17.4586 C   0  0  0  0  0  0  0  0  0  0  0  0
   27.9887  -18.0910  -17.1739 C   0  0  0  0  0  0  0  0  0  0  0  0
   27.2792  -17.8750  -15.8384 C   0  0  2  0  0  0  0  0  0  0  0  0
   28.3672  -17.9882  -14.7911 C   0  0  0  0  0  0  0  0  0  0  0  0
   26.2908  -19.0261  -15.6713 C   0  0  2  0  0  0  0  0  0  0  0  0
   25.2841  -18.7928  -16.7219 N   0  0  0  0  0  0  0  0  0  0  0  0
   25.5928  -19.0247  -14.3887 C   0  0  0  0  0  0  0  0  0  0  0  0
   24.9718  -17.9714  -14.0219 O   0  0  0  0  0  0  0  0  0  0  0  0
   23.7273  -22.1644  -12.8699 C   0  0  0  0  0  0  0  0  0  0  0  0
   23.4847  -20.7512  -12.4055 C   0  0  1  0  0  0  0  0  0  0  0  0
   22.6668  -20.7706  -11.1513 C   0  0  0  0  0  0  0  0  0  0  0  0
   24.8117  -20.0139  -12.1971 C   0  0  2  0  0  0  0  0  0  0  0  0
   25.5152  -20.0949  -13.4601 N   0  0  0  0  0  0  0  0  0  0  0  0
   25.5191  -20.7288  -11.1091 C   0  0  0  0  0  0  0  0  0  0  0  0
   26.1019  -21.8275  -11.2618 O   0  0  0  0  0  0  0  0  0  0  0  0
   28.3159  -18.1927   -7.0091 C   0  0  0  0  0  0  0  0  0  0  0  0
   27.8822  -19.2847   -7.9335 C   0  0  1  0  0  0  0  0  0  0  0  0
   28.9850  -20.3581   -8.0474 C   0  0  0  0  0  0  0  0  0  0  0  0
   26.5743  -19.9023   -7.7316 C   0  0  0  0  0  0  0  0  0  0  0  0
   26.0322  -20.9284   -8.6721 C   0  0  2  0  0  0  0  0  0  0  0  0
   25.5274  -20.1236   -9.8329 N   0  0  0  0  0  0  0  0  0  0  0  0
   24.8679  -21.6274   -8.1535 C   0  0  0  0  0  0  0  0  0  0  0  0
   24.8547  -22.8015   -7.4374 O   0  0  0  0  0  0  0  0  0  0  0  0
   23.7031  -21.1334   -8.3712 O   0  0  0  0  0  0  0  0  0  0  0  0
  2  1  1  0
  3  2  1  0
  3  4  1  1
  5  3  1  0
  5  7  1  0
  5  6  1  6
  7  8  2  0
 10 12  1  0
 10 11  1  1
 10  9  1  0
 13  7  1  0
 12 13  1  6
 14 12  1  0
 14 15  2  0
 17 19  1  0
 17 16  1  1
 18 17  1  0
 20 19  1  1
 20 21  1  0
 20 22  1  0
 21 14  1  0
 22 23  1  0
 24 22  2  0
M  END
$$$$
