IVL.pdb
     RDKit          3D

 24 23  0  0  1  0  0  0  0  0999 V2000
   17.8269  -28.7289  -13.6288 C   0  0  0  0  0  0  0  0  0  0  0  0
   18.9812  -28.8271  -14.5665 C   0  0  0  0  0  0  0  0  0  0  0  0
   20.2319  -28.0984  -14.0783 C   0  0  2  0  0  0  0  0  0  0  0  0
   19.8111  -26.6515  -13.9263 C   0  0  0  0  0  0  0  0  0  0  0  0
   21.2720  -28.2114  -15.1896 C   0  0  2  0  0  0  0  0  0  0  0  0
   21.7117  -29.6167  -15.1309 N   0  0  0  0  0  0  0  0  0  0  0  0
   22.4512  -27.3752  -14.9832 C   0  0  0  0  0  0  0  0  0  0  0  0
   23.3764  -27.7888  -14.2070 O   0  0  0  0  0  0  0  0  0  0  0  0
   23.4413  -24.1429  -17.4257 C   0  0  0  0  0  0  0  0  0  0  0  0
   24.4640  -24.8734  -16.5939 C   0  0  1  0  0  0  0  0  0  0  0  0
   25.6697  -24.0050  -16.4078 C   0  0  0  0  0  0  0  0  0  0  0  0
   23.8659  -25.2967  -15.2482 C   0  0  2  0  0  0  0  0  0  0  0  0
   22.7075  -26.1060  -15.5639 N   0  0  0  0  0  0  0  0  0  0  0  0
   23.5058  -24.0459  -14.5405 C   0  0  0  0  0  0  0  0  0  0  0  0
   22.3993  -23.4706  -14.6626 O   0  0  0  0  0  0  0  0  0  0  0  0
   23.9836  -20.9684   -9.9001 C   0  0  0  0  0  0  0  0  0  0  0  0
   25.1504  -21.1349  -10.8198 C   0  0  1  0  0  0  0  0  0  0  0  0
   26.4667  -21.1576  -10.0146 C   0  0  0  0  0  0  0  0  0  0  0  0
   25.1247  -22.2131  -11.8046 C   0  0  0  0  0  0  0  0  0  0  0  0
   24.0988  -22.2674  -12.8889 C   0  0  2  0  0  0  0  0  0  0  0  0
   24.4766  -23.4827  -13.6829 N   0  0  0  0  0  0  0  0  0  0  0  0
   24.1870  -21.1560  -13.8216 C   0  0  0  0  0  0  0  0  0  0  0  0
   23.3239  -20.0904  -13.9281 O   0  0  0  0  0  0  0  0  0  0  0  0
   25.1576  -21.1299  -14.6616 O   0  0  0  0  0  0  0  0  0  0  0  0
  2  1  1  0
  3  2  1  0
  3  4  1  6
  5  3  1  0
  5  7  1  0
  5  6  1  1
  7  8  2  0
 10 12  1  0
 10 11  1  1
 10  9  1  0
 13  7  1  0
 12 13  1  6
 14 12  1  0
 14 15  2  0
 17 19  1  0
 17 16  1  1
 18 17  1  0
 20 19  1  1
 20 21  1  0
 20 22  1  0
 21 14  1  0
 22 23  1  0
 24 22  2  0
M  END
$$$$
