IVL.pdb
     RDKit          3D

 24 23  0  0  1  0  0  0  0  0999 V2000
   16.1222  -13.2963  -15.0757 C   0  0  0  0  0  0  0  0  0  0  0  0
   16.4039  -12.4656  -16.2808 C   0  0  0  0  0  0  0  0  0  0  0  0
   17.5992  -11.5290  -16.1145 C   0  0  2  0  0  0  0  0  0  0  0  0
   17.2111  -10.5900  -14.9916 C   0  0  0  0  0  0  0  0  0  0  0  0
   17.7278  -10.7406  -17.4152 C   0  0  2  0  0  0  0  0  0  0  0  0
   18.0470  -11.7633  -18.4271 N   0  0  0  0  0  0  0  0  0  0  0  0
   18.8197   -9.7712  -17.4135 C   0  0  0  0  0  0  0  0  0  0  0  0
   20.0242  -10.1939  -17.3983 O   0  0  0  0  0  0  0  0  0  0  0  0
   18.0462   -5.9286  -18.2214 C   0  0  0  0  0  0  0  0  0  0  0  0
   19.5023   -6.3028  -18.3268 C   0  0  1  0  0  0  0  0  0  0  0  0
   20.3492   -5.1000  -18.0463 C   0  0  0  0  0  0  0  0  0  0  0  0
   19.8356   -7.4565  -17.3750 C   0  0  2  0  0  0  0  0  0  0  0  0
   18.7031   -8.3570  -17.4283 N   0  0  0  0  0  0  0  0  0  0  0  0
   20.0146   -6.8518  -16.0342 C   0  0  0  0  0  0  0  0  0  0  0  0
   19.0680   -6.4374  -15.3254 O   0  0  0  0  0  0  0  0  0  0  0  0
   22.7693   -9.7374  -12.6198 C   0  0  0  0  0  0  0  0  0  0  0  0
   21.8329   -8.6636  -13.0727 C   0  0  1  0  0  0  0  0  0  0  0  0
   20.7330   -8.4325  -12.0153 C   0  0  0  0  0  0  0  0  0  0  0  0
   22.3861   -7.3930  -13.5337 C   0  0  0  0  0  0  0  0  0  0  0  0
   21.5235   -6.3210  -14.1150 C   0  0  2  0  0  0  0  0  0  0  0  0
   21.3340   -6.7438  -15.5416 N   0  0  0  0  0  0  0  0  0  0  0  0
   22.1804   -5.0259  -14.1818 C   0  0  0  0  0  0  0  0  0  0  0  0
   22.6854   -4.4074  -15.3016 O   0  0  0  0  0  0  0  0  0  0  0  0
   22.3340   -4.3545  -13.0983 O   0  0  0  0  0  0  0  0  0  0  0  0
  2  1  1  0
  3  2  1  0
  3  4  1  1
  5  3  1  0
  5  7  1  0
  5  6  1  6
  7  8  2  0
 10 12  1  0
 10 11  1  1
 10  9  1  0
 13  7  1  0
 12 13  1  1
 14 12  1  0
 14 15  2  0
 17 19  1  0
 17 16  1  1
 18 17  1  0
 20 19  1  1
 20 21  1  0
 20 22  1  0
 21 14  1  0
 22 23  1  0
 24 22  2  0
M  END
$$$$
