IVL.pdb
     RDKit          3D

 24 23  0  0  1  0  0  0  0  0999 V2000
   19.0125  -19.6602  -17.9190 C   0  0  0  0  0  0  0  0  0  0  0  0
   20.0490  -18.6310  -18.2154 C   0  0  0  0  0  0  0  0  0  0  0  0
   19.9933  -17.4192  -17.2869 C   0  0  2  0  0  0  0  0  0  0  0  0
   18.6078  -16.8388  -17.4788 C   0  0  0  0  0  0  0  0  0  0  0  0
   21.0355  -16.4255  -17.7933 C   0  0  2  0  0  0  0  0  0  0  0  0
   22.2953  -17.1901  -17.7886 N   0  0  0  0  0  0  0  0  0  0  0  0
   21.2224  -15.2690  -16.9216 C   0  0  0  0  0  0  0  0  0  0  0  0
   20.2188  -14.8048  -16.2837 O   0  0  0  0  0  0  0  0  0  0  0  0
   24.6445  -14.0296  -14.9114 C   0  0  0  0  0  0  0  0  0  0  0  0
   23.9979  -13.0039  -15.8066 C   0  0  1  0  0  0  0  0  0  0  0  0
   24.7094  -12.9706  -17.1239 C   0  0  0  0  0  0  0  0  0  0  0  0
   22.5056  -13.3029  -15.9838 C   0  0  2  0  0  0  0  0  0  0  0  0
   22.4331  -14.5677  -16.6850 N   0  0  0  0  0  0  0  0  0  0  0  0
   21.9478  -12.1834  -16.7781 C   0  0  0  0  0  0  0  0  0  0  0  0
   21.8251  -12.2077  -18.0249 O   0  0  0  0  0  0  0  0  0  0  0  0
   17.6941  -10.6713  -18.9740 C   0  0  0  0  0  0  0  0  0  0  0  0
   19.0377  -10.1253  -18.6114 C   0  0  1  0  0  0  0  0  0  0  0  0
   19.0772   -8.6010  -18.8488 C   0  0  0  0  0  0  0  0  0  0  0  0
   19.6096  -10.4639  -17.3109 C   0  0  0  0  0  0  0  0  0  0  0  0
   20.9191   -9.9080  -16.8554 C   0  0  2  0  0  0  0  0  0  0  0  0
   21.5357  -11.0302  -16.0743 N   0  0  0  0  0  0  0  0  0  0  0  0
   20.7822   -8.8116  -15.9108 C   0  0  0  0  0  0  0  0  0  0  0  0
   20.7322   -7.4678  -16.1995 O   0  0  0  0  0  0  0  0  0  0  0  0
   20.7037   -9.0816  -14.6581 O   0  0  0  0  0  0  0  0  0  0  0  0
  2  1  1  0
  3  2  1  0
  3  4  1  6
  5  3  1  0
  5  7  1  0
  5  6  1  1
  7  8  2  0
 10 12  1  0
 10 11  1  6
 10  9  1  0
 13  7  1  0
 12 13  1  6
 14 12  1  0
 14 15  2  0
 17 19  1  0
 17 16  1  1
 18 17  1  0
 20 19  1  1
 20 21  1  0
 20 22  1  0
 21 14  1  0
 22 23  1  0
 24 22  2  0
M  END
$$$$
