IVL.pdb
     RDKit          3D

 24 23  0  0  1  0  0  0  0  0999 V2000
   18.5341  -15.9373  -16.8395 C   0  0  0  0  0  0  0  0  0  0  0  0
   19.4851  -17.0489  -17.1251 C   0  0  0  0  0  0  0  0  0  0  0  0
   19.8378  -17.8854  -15.8965 C   0  0  2  0  0  0  0  0  0  0  0  0
   20.4800  -16.9133  -14.9289 C   0  0  0  0  0  0  0  0  0  0  0  0
   20.8717  -18.9150  -16.3442 C   0  0  2  0  0  0  0  0  0  0  0  0
   20.1323  -19.7890  -17.2722 N   0  0  0  0  0  0  0  0  0  0  0  0
   21.3773  -19.7546  -15.2617 C   0  0  0  0  0  0  0  0  0  0  0  0
   20.5652  -20.1711  -14.3690 O   0  0  0  0  0  0  0  0  0  0  0  0
   22.4782  -23.0079  -15.3952 C   0  0  0  0  0  0  0  0  0  0  0  0
   23.6082  -22.3496  -14.6460 C   0  0  1  0  0  0  0  0  0  0  0  0
   24.7531  -22.1070  -15.5804 C   0  0  0  0  0  0  0  0  0  0  0  0
   23.1369  -21.0483  -13.9884 C   0  0  2  0  0  0  0  0  0  0  0  0
   22.7162  -20.1841  -15.0713 N   0  0  0  0  0  0  0  0  0  0  0  0
   24.3038  -20.5067  -13.2535 C   0  0  0  0  0  0  0  0  0  0  0  0
   24.9560  -19.5033  -13.6249 O   0  0  0  0  0  0  0  0  0  0  0  0
   25.4847  -20.8034   -7.3944 C   0  0  0  0  0  0  0  0  0  0  0  0
   25.7291  -20.2392   -8.7571 C   0  0  1  0  0  0  0  0  0  0  0  0
   27.0460  -19.4349   -8.7743 C   0  0  0  0  0  0  0  0  0  0  0  0
   25.6470  -21.1271   -9.9137 C   0  0  0  0  0  0  0  0  0  0  0  0
   25.8640  -20.6318  -11.3061 C   0  0  2  0  0  0  0  0  0  0  0  0
   24.6901  -21.1710  -12.0683 N   0  0  0  0  0  0  0  0  0  0  0  0
   27.0354  -21.2072  -11.9463 C   0  0  0  0  0  0  0  0  0  0  0  0
   28.3042  -20.6780  -11.9867 O   0  0  0  0  0  0  0  0  0  0  0  0
   26.9158  -22.3288  -12.5597 O   0  0  0  0  0  0  0  0  0  0  0  0
  2  1  1  0
  3  2  1  0
  3  4  1  1
  5  3  1  0
  5  7  1  0
  5  6  1  6
  7  8  2  0
 10 12  1  0
 10 11  1  6
 10  9  1  0
 13  7  1  0
 12 13  1  6
 14 12  1  0
 14 15  2  0
 17 19  1  0
 17 16  1  1
 18 17  1  0
 20 19  1  1
 20 21  1  0
 20 22  1  0
 21 14  1  0
 22 23  1  0
 24 22  2  0
M  END
$$$$
