IVL.pdb
     RDKit          3D

 24 23  0  0  1  0  0  0  0  0999 V2000
   19.1788  -17.9120  -13.5728 C   0  0  0  0  0  0  0  0  0  0  0  0
   20.4481  -18.6491  -13.8320 C   0  0  0  0  0  0  0  0  0  0  0  0
   21.0215  -19.3373  -12.5946 C   0  0  2  0  0  0  0  0  0  0  0  0
   21.2730  -18.2203  -11.6032 C   0  0  0  0  0  0  0  0  0  0  0  0
   22.3528  -19.9575  -13.0102 C   0  0  2  0  0  0  0  0  0  0  0  0
   21.9731  -21.0438  -13.9308 N   0  0  0  0  0  0  0  0  0  0  0  0
   23.0951  -20.5593  -11.9061 C   0  0  0  0  0  0  0  0  0  0  0  0
   22.5214  -21.4383  -11.1795 O   0  0  0  0  0  0  0  0  0  0  0  0
   25.4400  -22.8198  -12.0836 C   0  0  0  0  0  0  0  0  0  0  0  0
   26.1320  -21.8928  -11.1175 C   0  0  1  0  0  0  0  0  0  0  0  0
   27.1969  -21.1246  -11.8375 C   0  0  0  0  0  0  0  0  0  0  0  0
   25.1217  -20.9557  -10.4475 C   0  0  2  0  0  0  0  0  0  0  0  0
   24.4325  -20.2769  -11.5249 N   0  0  0  0  0  0  0  0  0  0  0  0
   25.9105  -20.0256   -9.6062 C   0  0  0  0  0  0  0  0  0  0  0  0
   26.1495  -18.8361   -9.9193 O   0  0  0  0  0  0  0  0  0  0  0  0
   27.5391  -20.1069   -3.6578 C   0  0  0  0  0  0  0  0  0  0  0  0
   27.7481  -19.5141   -5.0143 C   0  0  1  0  0  0  0  0  0  0  0  0
   29.2562  -19.3984   -5.3204 C   0  0  0  0  0  0  0  0  0  0  0  0
   27.0289  -20.0823   -6.1512 C   0  0  0  0  0  0  0  0  0  0  0  0
   27.2699  -19.6173   -7.5501 C   0  0  2  0  0  0  0  0  0  0  0  0
   26.4147  -20.5241   -8.3845 N   0  0  0  0  0  0  0  0  0  0  0  0
   28.6311  -19.8450   -8.0064 C   0  0  0  0  0  0  0  0  0  0  0  0
   29.6722  -18.9462   -7.9956 O   0  0  0  0  0  0  0  0  0  0  0  0
   28.9373  -20.9955   -8.4870 O   0  0  0  0  0  0  0  0  0  0  0  0
  2  1  1  0
  3  2  1  0
  3  4  1  1
  5  3  1  0
  5  7  1  0
  5  6  1  6
  7  8  2  0
 10 12  1  0
 10 11  1  6
 10  9  1  0
 13  7  1  0
 12 13  1  6
 14 12  1  0
 14 15  2  0
 17 19  1  0
 17 16  1  1
 18 17  1  0
 20 19  1  1
 20 21  1  0
 20 22  1  0
 21 14  1  0
 22 23  1  0
 24 22  2  0
M  END
$$$$
