IVL.pdb
     RDKit          3D

 24 23  0  0  1  0  0  0  0  0999 V2000
   35.3193  -25.0789  -17.9301 C   0  0  0  0  0  0  0  0  0  0  0  0
   34.2994  -26.0875  -17.5252 C   0  0  0  0  0  0  0  0  0  0  0  0
   32.8969  -25.7869  -18.0510 C   0  0  2  0  0  0  0  0  0  0  0  0
   32.4769  -24.5130  -17.3480 C   0  0  0  0  0  0  0  0  0  0  0  0
   31.9995  -26.9362  -17.5999 C   0  0  2  0  0  0  0  0  0  0  0  0
   32.5127  -28.1052  -18.3360 N   0  0  0  0  0  0  0  0  0  0  0  0
   30.5960  -26.7697  -17.9670 C   0  0  0  0  0  0  0  0  0  0  0  0
   30.2827  -26.6970  -19.2025 O   0  0  0  0  0  0  0  0  0  0  0  0
   27.8296  -28.7300  -18.2975 C   0  0  0  0  0  0  0  0  0  0  0  0
   27.3439  -27.6733  -17.3389 C   0  0  1  0  0  0  0  0  0  0  0  0
   27.4391  -28.1891  -15.9362 C   0  0  0  0  0  0  0  0  0  0  0  0
   28.1403  -26.3759  -17.5136 C   0  0  2  0  0  0  0  0  0  0  0  0
   29.4899  -26.6757  -17.0832 N   0  0  0  0  0  0  0  0  0  0  0  0
   27.4836  -25.3649  -16.6523 C   0  0  0  0  0  0  0  0  0  0  0  0
   27.6125  -25.3220  -15.4066 O   0  0  0  0  0  0  0  0  0  0  0  0
   27.6059  -20.1941  -18.0711 C   0  0  0  0  0  0  0  0  0  0  0  0
   27.4857  -21.4641  -17.2916 C   0  0  1  0  0  0  0  0  0  0  0  0
   28.1461  -21.3052  -15.9059 C   0  0  0  0  0  0  0  0  0  0  0  0
   26.1756  -22.0985  -17.1735 C   0  0  0  0  0  0  0  0  0  0  0  0
   25.9831  -23.3797  -16.4299 C   0  0  2  0  0  0  0  0  0  0  0  0
   26.6690  -24.4015  -17.2874 N   0  0  0  0  0  0  0  0  0  0  0  0
   24.5942  -23.8037  -16.3629 C   0  0  0  0  0  0  0  0  0  0  0  0
   23.6426  -23.3914  -15.4596 O   0  0  0  0  0  0  0  0  0  0  0  0
   24.1685  -24.6623  -17.2172 O   0  0  0  0  0  0  0  0  0  0  0  0
  2  1  1  0
  3  2  1  0
  3  4  1  1
  5  3  1  0
  5  7  1  0
  5  6  1  6
  7  8  2  0
 10 12  1  0
 10 11  1  1
 10  9  1  0
 13  7  1  0
 12 13  1  1
 14 12  1  0
 14 15  2  0
 17 19  1  0
 17 16  1  1
 18 17  1  0
 20 19  1  6
 20 21  1  0
 20 22  1  0
 21 14  1  0
 22 23  1  0
 24 22  2  0
M  END
$$$$
