IVL.pdb
     RDKit          3D

 24 23  0  0  1  0  0  0  0  0999 V2000
   29.3499  -18.1429  -17.1457 C   0  0  0  0  0  0  0  0  0  0  0  0
   28.4162  -19.1296  -16.5326 C   0  0  0  0  0  0  0  0  0  0  0  0
   27.7826  -18.6467  -15.2291 C   0  0  2  0  0  0  0  0  0  0  0  0
   28.9455  -18.4186  -14.2863 C   0  0  0  0  0  0  0  0  0  0  0  0
   26.9204  -19.7921  -14.7053 C   0  0  2  0  0  0  0  0  0  0  0  0
   25.8853  -19.9669  -15.7395 N   0  0  0  0  0  0  0  0  0  0  0  0
   26.2380  -19.4922  -13.4497 C   0  0  0  0  0  0  0  0  0  0  0  0
   25.3419  -18.5831  -13.4328 O   0  0  0  0  0  0  0  0  0  0  0  0
   23.7207  -19.3091  -12.4204 C   0  0  0  0  0  0  0  0  0  0  0  0
   24.2573  -20.1367  -11.2808 C   0  0  1  0  0  0  0  0  0  0  0  0
   24.1041  -21.5910  -11.6037 C   0  0  0  0  0  0  0  0  0  0  0  0
   25.7188  -19.7783  -10.9920 C   0  0  2  0  0  0  0  0  0  0  0  0
   26.4560  -20.1131  -12.1925 N   0  0  0  0  0  0  0  0  0  0  0  0
   26.1276  -20.6010   -9.8296 C   0  0  0  0  0  0  0  0  0  0  0  0
   26.4745  -21.8021   -9.9142 O   0  0  0  0  0  0  0  0  0  0  0  0
   28.6014  -18.1826   -5.4404 C   0  0  0  0  0  0  0  0  0  0  0  0
   28.2006  -19.1926   -6.4672 C   0  0  1  0  0  0  0  0  0  0  0  0
   29.3266  -20.2291   -6.6654 C   0  0  0  0  0  0  0  0  0  0  0  0
   26.9036  -19.8517   -6.3403 C   0  0  0  0  0  0  0  0  0  0  0  0
   26.4114  -20.8283   -7.3578 C   0  0  2  0  0  0  0  0  0  0  0  0
   26.1203  -19.9807   -8.5606 N   0  0  0  0  0  0  0  0  0  0  0  0
   25.1417  -21.4402   -7.0020 C   0  0  0  0  0  0  0  0  0  0  0  0
   24.9446  -22.5327   -6.1902 O   0  0  0  0  0  0  0  0  0  0  0  0
   24.0600  -20.9426   -7.4824 O   0  0  0  0  0  0  0  0  0  0  0  0
  2  1  1  0
  3  2  1  0
  3  4  1  1
  5  3  1  0
  5  7  1  0
  5  6  1  6
  7  8  2  0
 10 12  1  0
 10 11  1  6
 10  9  1  0
 13  7  1  0
 12 13  1  6
 14 12  1  0
 14 15  2  0
 17 19  1  0
 17 16  1  1
 18 17  1  0
 20 19  1  1
 20 21  1  0
 20 22  1  0
 21 14  1  0
 22 23  1  0
 24 22  2  0
M  END
$$$$
