IVL.pdb
     RDKit          3D

 24 23  0  0  1  0  0  0  0  0999 V2000
   15.5489  -25.8117    0.8245 C   0  0  0  0  0  0  0  0  0  0  0  0
   14.7935  -24.5269    0.8229 C   0  0  0  0  0  0  0  0  0  0  0  0
   15.5457  -23.3721    1.4820 C   0  0  2  0  0  0  0  0  0  0  0  0
   15.6107  -23.7317    2.9516 C   0  0  0  0  0  0  0  0  0  0  0  0
   14.6861  -22.1238    1.3015 C   0  0  2  0  0  0  0  0  0  0  0  0
   14.5941  -21.9571   -0.1599 N   0  0  0  0  0  0  0  0  0  0  0  0
   15.2872  -20.9085    1.8434 C   0  0  0  0  0  0  0  0  0  0  0  0
   16.2934  -20.3958    1.2480 O   0  0  0  0  0  0  0  0  0  0  0  0
   13.9091  -17.4841    2.3578 C   0  0  0  0  0  0  0  0  0  0  0  0
   14.4367  -17.9594    3.6872 C   0  0  1  0  0  0  0  0  0  0  0  0
   13.3075  -18.5006    4.5086 C   0  0  0  0  0  0  0  0  0  0  0  0
   15.5378  -19.0067    3.4902 C   0  0  2  0  0  0  0  0  0  0  0  0
   14.8735  -20.1956    2.9985 N   0  0  0  0  0  0  0  0  0  0  0  0
   16.1578  -19.2144    4.8197 C   0  0  0  0  0  0  0  0  0  0  0  0
   15.9307  -20.2098    5.5460 O   0  0  0  0  0  0  0  0  0  0  0  0
   21.3677  -19.4637    5.7893 C   0  0  0  0  0  0  0  0  0  0  0  0
   19.9067  -19.5820    6.0831 C   0  0  1  0  0  0  0  0  0  0  0  0
   19.6651  -20.6480    7.1725 C   0  0  0  0  0  0  0  0  0  0  0  0
   19.1428  -18.3693    6.3639 C   0  0  0  0  0  0  0  0  0  0  0  0
   17.6740  -18.4062    6.6335 C   0  0  2  0  0  0  0  0  0  0  0  0
   17.0538  -18.2242    5.2799 N   0  0  0  0  0  0  0  0  0  0  0  0
   17.2053  -17.2812    7.4257 C   0  0  0  0  0  0  0  0  0  0  0  0
   17.1051  -17.2144    8.7958 O   0  0  0  0  0  0  0  0  0  0  0  0
   16.8260  -16.2145    6.8201 O   0  0  0  0  0  0  0  0  0  0  0  0
  2  1  1  0
  3  2  1  0
  3  4  1  1
  5  3  1  0
  5  7  1  0
  5  6  1  6
  7  8  2  0
 10 12  1  0
 10 11  1  1
 10  9  1  0
 13  7  1  0
 12 13  1  1
 14 12  1  0
 14 15  2  0
 17 19  1  0
 17 16  1  1
 18 17  1  0
 20 19  1  6
 20 21  1  0
 20 22  1  0
 21 14  1  0
 22 23  1  0
 24 22  2  0
M  END
$$$$
