IVL.pdb
     RDKit          3D

 24 23  0  0  1  0  0  0  0  0999 V2000
   19.7242  -20.7774  -13.8505 C   0  0  0  0  0  0  0  0  0  0  0  0
   21.0293  -20.1015  -13.6026 C   0  0  0  0  0  0  0  0  0  0  0  0
   21.9034  -20.8146  -12.5724 C   0  0  2  0  0  0  0  0  0  0  0  0
   21.9487  -19.8815  -11.3804 C   0  0  0  0  0  0  0  0  0  0  0  0
   23.2986  -20.9308  -13.1805 C   0  0  2  0  0  0  0  0  0  0  0  0
   23.1389  -21.9166  -14.2642 N   0  0  0  0  0  0  0  0  0  0  0  0
   24.3037  -21.4528  -12.2589 C   0  0  0  0  0  0  0  0  0  0  0  0
   24.1249  -22.6019  -11.7324 O   0  0  0  0  0  0  0  0  0  0  0  0
   28.1932  -19.8081  -11.6497 C   0  0  0  0  0  0  0  0  0  0  0  0
   27.8026  -21.2423  -11.4008 C   0  0  1  0  0  0  0  0  0  0  0  0
   28.8010  -21.8807  -10.4853 C   0  0  0  0  0  0  0  0  0  0  0  0
   26.3839  -21.3260  -10.8278 C   0  0  2  0  0  0  0  0  0  0  0  0
   25.5065  -20.8143  -11.8597 N   0  0  0  0  0  0  0  0  0  0  0  0
   26.3763  -20.4824   -9.6097 C   0  0  0  0  0  0  0  0  0  0  0  0
   25.9165  -19.3174   -9.5725 O   0  0  0  0  0  0  0  0  0  0  0  0
   28.2728  -21.6288   -3.7797 C   0  0  0  0  0  0  0  0  0  0  0  0
   27.7136  -20.6620   -4.7734 C   0  0  1  0  0  0  0  0  0  0  0  0
   28.5397  -19.3586   -4.7743 C   0  0  0  0  0  0  0  0  0  0  0  0
   27.4613  -21.1186   -6.1375 C   0  0  0  0  0  0  0  0  0  0  0  0
   26.8823  -20.2163   -7.1776 C   0  0  2  0  0  0  0  0  0  0  0  0
   26.9221  -21.0384   -8.4316 N   0  0  0  0  0  0  0  0  0  0  0  0
   27.7078  -19.0522   -7.4546 C   0  0  0  0  0  0  0  0  0  0  0  0
   27.4879  -17.7600   -7.0384 O   0  0  0  0  0  0  0  0  0  0  0  0
   28.7641  -19.1998   -8.1692 O   0  0  0  0  0  0  0  0  0  0  0  0
  2  1  1  0
  3  2  1  0
  3  4  1  1
  5  3  1  0
  5  7  1  0
  5  6  1  6
  7  8  2  0
 10 12  1  0
 10 11  1  1
 10  9  1  0
 13  7  1  0
 12 13  1  6
 14 12  1  0
 14 15  2  0
 17 19  1  0
 17 16  1  1
 18 17  1  0
 20 19  1  1
 20 21  1  0
 20 22  1  0
 21 14  1  0
 22 23  1  0
 24 22  2  0
M  END
$$$$
