ITH.pdb
     RDKit          3D

 26 26  0  0  1  0  0  0  0  0999 V2000
    7.5953  -11.7059   19.1591 C   0  0  0  0  0  0  0  0  0  0  0  0
    8.1557  -12.6807   18.1149 C   0  0  0  0  0  0  0  0  0  0  0  0
    8.8673  -13.7879   18.8046 C   0  0  2  0  0  0  0  0  0  0  0  0
    9.8920  -13.1681   19.7329 C   0  0  0  0  0  0  0  0  0  0  0  0
    9.4572  -14.8457   17.9297 C   0  0  2  0  0  0  0  0  0  0  0  0
    8.3971  -15.2324   16.9765 N   0  0  0  0  0  0  0  0  0  0  0  0
    9.9332  -16.0553   18.6239 C   0  0  0  0  0  0  0  0  0  0  0  0
    9.0854  -16.8882   19.0649 O   0  0  0  0  0  0  0  0  0  0  0  0
   11.9770  -18.8119   17.4456 C   0  0  0  0  0  0  0  0  0  0  0  0
   12.7799  -18.1344   18.5690 C   0  0  1  0  0  0  0  0  0  0  0  0
   13.8857  -17.4860   18.0434 O   0  0  0  0  0  0  0  0  0  0  0  0
   11.9362  -17.3696   19.4966 C   0  0  2  0  0  0  0  0  0  0  0  0
   11.2960  -16.2885   18.7933 N   0  0  0  0  0  0  0  0  0  0  0  0
   12.5170  -16.9910   20.8009 C   0  0  0  0  0  0  0  0  0  0  0  0
   13.1222  -15.8952   20.8792 O   0  0  0  0  0  0  0  0  0  0  0  0
   12.4367  -17.7793   21.9693 N   0  0  0  0  0  0  0  0  0  0  0  0
   13.0880  -17.4075   23.2161 C   0  0  1  0  0  0  0  0  0  0  0  0
   12.1813  -17.6634   24.3906 C   0  0  0  0  0  0  0  0  0  0  0  0
   11.0051  -16.7497   24.3694 C   0  0  0  0  0  0  0  0  0  0  0  0
   10.7620  -15.7148   23.4728 C   0  0  0  0  0  0  0  0  0  0  0  0
    9.6014  -15.1326   23.7887 N   0  0  0  0  0  0  0  0  0  0  0  0
    9.0962  -15.7625   24.8576 C   0  0  0  0  0  0  0  0  0  0  0  0
    9.9511  -16.7327   25.1959 N   0  0  0  0  0  0  0  0  0  0  0  0
   14.3439  -18.2038   23.4078 C   0  0  0  0  0  0  0  0  0  0  0  0
   15.2357  -17.9528   24.4255 O   0  0  0  0  0  0  0  0  0  0  0  0
   14.5922  -19.1379   22.6070 O   0  0  0  0  0  0  0  0  0  0  0  0
  2  3  1  0
  2  1  1  0
  3  5  1  0
  3  4  1  6
  5  7  1  0
  5  6  1  6
  7  8  2  0
 10  9  1  6
 10 12  1  0
 11 10  1  0
 12 13  1  6
 13  7  1  0
 14 15  2  0
 14 12  1  0
 16 14  1  0
 17 24  1  0
 17 16  1  0
 17 18  1  1
 19 18  1  0
 20 19  2  0
 21 20  1  0
 22 21  1  0
 22 23  2  0
 23 19  1  0
 24 25  1  0
 26 24  2  0
M  END
$$$$
