ITH.pdb
     RDKit          3D

 26 26  0  0  1  0  0  0  0  0999 V2000
    1.6559  -19.5198   22.0568 C   0  0  0  0  0  0  0  0  0  0  0  0
    2.3714  -19.0781   20.7732 C   0  0  0  0  0  0  0  0  0  0  0  0
    3.7890  -18.7585   21.0831 C   0  0  2  0  0  0  0  0  0  0  0  0
    3.7953  -17.6521   22.1183 C   0  0  0  0  0  0  0  0  0  0  0  0
    4.6716  -18.4527   19.9169 C   0  0  2  0  0  0  0  0  0  0  0  0
    4.4997  -19.5687   18.9646 N   0  0  0  0  0  0  0  0  0  0  0  0
    6.1059  -18.3089   20.2229 C   0  0  0  0  0  0  0  0  0  0  0  0
    6.7830  -19.3418   20.5090 O   0  0  0  0  0  0  0  0  0  0  0  0
    8.4312  -16.6575   17.8859 C   0  0  0  0  0  0  0  0  0  0  0  0
    8.5836  -15.9375   19.2365 C   0  0  1  0  0  0  0  0  0  0  0  0
    8.1099  -14.6389   19.1431 O   0  0  0  0  0  0  0  0  0  0  0  0
    8.1106  -16.7404   20.3717 C   0  0  2  0  0  0  0  0  0  0  0  0
    6.7171  -17.0575   20.1962 N   0  0  0  0  0  0  0  0  0  0  0  0
    8.4675  -16.2859   21.7310 C   0  0  0  0  0  0  0  0  0  0  0  0
    7.7753  -15.3764   22.2475 O   0  0  0  0  0  0  0  0  0  0  0  0
    9.5364  -16.8071   22.4919 N   0  0  0  0  0  0  0  0  0  0  0  0
    9.9335  -16.2503   23.7762 C   0  0  1  0  0  0  0  0  0  0  0  0
    9.7440  -17.2587   24.8782 C   0  0  0  0  0  0  0  0  0  0  0  0
    8.3023  -17.5813   25.0682 C   0  0  0  0  0  0  0  0  0  0  0  0
    7.2190  -16.9982   24.4196 C   0  0  0  0  0  0  0  0  0  0  0  0
    6.0928  -17.5619   24.8667 N   0  0  0  0  0  0  0  0  0  0  0  0
    6.4225  -18.4854   25.7794 C   0  0  0  0  0  0  0  0  0  0  0  0
    7.7545  -18.4860   25.8902 N   0  0  0  0  0  0  0  0  0  0  0  0
   11.3776  -15.8484   23.7481 C   0  0  0  0  0  0  0  0  0  0  0  0
   11.9965  -15.2232   24.8064 O   0  0  0  0  0  0  0  0  0  0  0  0
   12.0500  -16.0923   22.7166 O   0  0  0  0  0  0  0  0  0  0  0  0
  2  3  1  0
  2  1  1  0
  3  5  1  0
  3  4  1  1
  5  7  1  0
  5  6  1  6
  7  8  2  0
 10  9  1  6
 10 12  1  0
 11 10  1  0
 12 13  1  1
 13  7  1  0
 14 15  2  0
 14 12  1  0
 16 14  1  0
 17 24  1  0
 17 16  1  0
 17 18  1  1
 19 18  1  0
 20 19  2  0
 21 20  1  0
 22 21  1  0
 22 23  2  0
 23 19  1  0
 24 25  1  0
 26 24  2  0
M  END
$$$$
