ITH.pdb
     RDKit          3D

 26 26  0  0  1  0  0  0  0  0999 V2000
    6.0616  -11.5401   26.9374 C   0  0  0  0  0  0  0  0  0  0  0  0
    5.6522  -12.7601   26.1015 C   0  0  0  0  0  0  0  0  0  0  0  0
    6.8499  -13.5959   25.8282 C   0  0  2  0  0  0  0  0  0  0  0  0
    7.8898  -12.7092   25.1739 C   0  0  0  0  0  0  0  0  0  0  0  0
    6.6183  -14.8601   25.0662 C   0  0  2  0  0  0  0  0  0  0  0  0
    5.4723  -15.5295   25.7147 N   0  0  0  0  0  0  0  0  0  0  0  0
    7.7538  -15.7985   25.0272 C   0  0  0  0  0  0  0  0  0  0  0  0
    7.9837  -16.5321   26.0352 O   0  0  0  0  0  0  0  0  0  0  0  0
    8.8140  -16.9768   21.2997 C   0  0  0  0  0  0  0  0  0  0  0  0
   10.0194  -16.7589   22.2300 C   0  0  1  0  0  0  0  0  0  0  0  0
   10.7713  -15.6797   21.7948 O   0  0  0  0  0  0  0  0  0  0  0  0
    9.6590  -16.7906   23.6534 C   0  0  2  0  0  0  0  0  0  0  0  0
    8.5659  -15.8860   23.8988 N   0  0  0  0  0  0  0  0  0  0  0  0
   10.7538  -16.7083   24.6415 C   0  0  0  0  0  0  0  0  0  0  0  0
   11.0856  -15.5727   25.0583 O   0  0  0  0  0  0  0  0  0  0  0  0
   11.4539  -17.8230   25.1518 N   0  0  0  0  0  0  0  0  0  0  0  0
   12.4733  -17.7076   26.1835 C   0  0  1  0  0  0  0  0  0  0  0  0
   11.8533  -17.7453   27.5551 C   0  0  0  0  0  0  0  0  0  0  0  0
   11.4087  -16.3888   27.9804 C   0  0  0  0  0  0  0  0  0  0  0  0
   11.4373  -15.2210   27.2258 C   0  0  0  0  0  0  0  0  0  0  0  0
   10.9530  -14.2175   27.9635 N   0  0  0  0  0  0  0  0  0  0  0  0
   10.6165  -14.7071   29.1642 C   0  0  0  0  0  0  0  0  0  0  0  0
   10.8961  -16.0142   29.1599 N   0  0  0  0  0  0  0  0  0  0  0  0
   13.4542  -18.8366   26.0783 C   0  0  0  0  0  0  0  0  0  0  0  0
   13.3168  -19.8589   25.1673 O   0  0  0  0  0  0  0  0  0  0  0  0
   14.4416  -18.8500   26.8532 O   0  0  0  0  0  0  0  0  0  0  0  0
  2  3  1  0
  2  1  1  0
  3  5  1  0
  3  4  1  6
  5  7  1  0
  5  6  1  1
  7  8  2  0
 10  9  1  6
 10 12  1  0
 11 10  1  0
 12 13  1  1
 13  7  1  0
 14 15  2  0
 14 12  1  0
 16 14  1  0
 17 24  1  0
 17 16  1  0
 17 18  1  1
 19 18  1  0
 20 19  2  0
 21 20  1  0
 22 21  1  0
 22 23  2  0
 23 19  1  0
 24 25  1  0
 26 24  2  0
M  END
$$$$
