ITH.pdb
     RDKit          3D

 26 26  0  0  1  0  0  0  0  0999 V2000
    6.1373  -11.3125   27.4053 C   0  0  0  0  0  0  0  0  0  0  0  0
    5.5740  -12.3664   26.4425 C   0  0  0  0  0  0  0  0  0  0  0  0
    6.6795  -13.2319   25.9562 C   0  0  2  0  0  0  0  0  0  0  0  0
    7.7389  -12.3306   25.3554 C   0  0  0  0  0  0  0  0  0  0  0  0
    6.2957  -14.3488   25.0409 C   0  0  2  0  0  0  0  0  0  0  0  0
    5.1964  -15.0731   25.7109 N   0  0  0  0  0  0  0  0  0  0  0  0
    7.3676  -15.3077   24.7203 C   0  0  0  0  0  0  0  0  0  0  0  0
    7.7043  -16.1700   25.5865 O   0  0  0  0  0  0  0  0  0  0  0  0
    7.6851  -16.4943   20.9959 C   0  0  0  0  0  0  0  0  0  0  0  0
    9.0796  -16.1662   21.5558 C   0  0  1  0  0  0  0  0  0  0  0  0
    9.6406  -15.1107   20.8554 O   0  0  0  0  0  0  0  0  0  0  0  0
    9.1044  -16.0825   23.0219 C   0  0  2  0  0  0  0  0  0  0  0  0
    8.0043  -15.2752   23.4819 N   0  0  0  0  0  0  0  0  0  0  0  0
   10.3965  -15.7817   23.6713 C   0  0  0  0  0  0  0  0  0  0  0  0
   10.8238  -14.6039   23.6130 O   0  0  0  0  0  0  0  0  0  0  0  0
   11.1856  -16.7310   24.3563 N   0  0  0  0  0  0  0  0  0  0  0  0
   12.5286  -16.4403   24.8347 C   0  0  1  0  0  0  0  0  0  0  0  0
   12.6829  -16.8471   26.2762 C   0  0  0  0  0  0  0  0  0  0  0  0
   11.7863  -16.0487   27.1579 C   0  0  0  0  0  0  0  0  0  0  0  0
   11.9878  -14.7462   27.6016 C   0  0  0  0  0  0  0  0  0  0  0  0
   10.9570  -14.3879   28.3730 N   0  0  0  0  0  0  0  0  0  0  0  0
   10.1046  -15.4194   28.4357 C   0  0  0  0  0  0  0  0  0  0  0  0
   10.6163  -16.4113   27.7002 N   0  0  0  0  0  0  0  0  0  0  0  0
   13.5456  -17.1852   24.0232 C   0  0  0  0  0  0  0  0  0  0  0  0
   14.8991  -17.0799   24.2486 O   0  0  0  0  0  0  0  0  0  0  0  0
   13.1460  -17.9360   23.1000 O   0  0  0  0  0  0  0  0  0  0  0  0
  2  3  1  0
  2  1  1  0
  3  5  1  0
  3  4  1  6
  5  7  1  0
  5  6  1  1
  7  8  2  0
 10  9  1  6
 10 12  1  0
 11 10  1  0
 12 13  1  6
 13  7  1  0
 14 15  2  0
 14 12  1  0
 16 14  1  0
 17 24  1  0
 17 16  1  0
 17 18  1  1
 19 18  1  0
 20 19  2  0
 21 20  1  0
 22 21  1  0
 22 23  2  0
 23 19  1  0
 24 25  1  0
 26 24  2  0
M  END
$$$$
