ITH.pdb
     RDKit          3D

 26 26  0  0  1  0  0  0  0  0999 V2000
    6.5452  -11.5306   27.4065 C   0  0  0  0  0  0  0  0  0  0  0  0
    5.8266  -12.6117   26.5883 C   0  0  0  0  0  0  0  0  0  0  0  0
    6.8285  -13.4041   25.8292 C   0  0  2  0  0  0  0  0  0  0  0  0
    7.6605  -12.4342   25.0150 C   0  0  0  0  0  0  0  0  0  0  0  0
    6.2979  -14.5314   25.0046 C   0  0  2  0  0  0  0  0  0  0  0  0
    5.4042  -15.3059   25.8896 N   0  0  0  0  0  0  0  0  0  0  0  0
    7.3107  -15.4416   24.4414 C   0  0  0  0  0  0  0  0  0  0  0  0
    7.7948  -16.3560   25.1740 O   0  0  0  0  0  0  0  0  0  0  0  0
    6.9962  -16.0822   20.5565 C   0  0  0  0  0  0  0  0  0  0  0  0
    8.4761  -15.9628   20.9582 C   0  0  1  0  0  0  0  0  0  0  0  0
    9.0526  -14.8641   20.3417 O   0  0  0  0  0  0  0  0  0  0  0  0
    8.6919  -16.1064   22.4039 C   0  0  2  0  0  0  0  0  0  0  0  0
    7.7325  -15.3070   23.1208 N   0  0  0  0  0  0  0  0  0  0  0  0
   10.0764  -15.9960   22.9064 C   0  0  0  0  0  0  0  0  0  0  0  0
   10.4675  -14.8750   23.3110 O   0  0  0  0  0  0  0  0  0  0  0  0
   10.9924  -17.0687   22.9642 N   0  0  0  0  0  0  0  0  0  0  0  0
   12.3625  -16.9100   23.4276 C   0  0  1  0  0  0  0  0  0  0  0  0
   12.8419  -18.1592   24.1180 C   0  0  0  0  0  0  0  0  0  0  0  0
   12.0991  -18.3890   25.3884 C   0  0  0  0  0  0  0  0  0  0  0  0
   11.4788  -17.4310   26.1832 C   0  0  0  0  0  0  0  0  0  0  0  0
   10.9220  -18.0373   27.2360 N   0  0  0  0  0  0  0  0  0  0  0  0
   11.1669  -19.3507   27.1385 C   0  0  0  0  0  0  0  0  0  0  0  0
   11.8757  -19.5476   26.0225 N   0  0  0  0  0  0  0  0  0  0  0  0
   13.2762  -16.6294   22.2725 C   0  0  0  0  0  0  0  0  0  0  0  0
   12.8364  -16.5879   20.9692 O   0  0  0  0  0  0  0  0  0  0  0  0
   14.4927  -16.4236   22.5039 O   0  0  0  0  0  0  0  0  0  0  0  0
  2  3  1  0
  2  1  1  0
  3  5  1  0
  3  4  1  6
  5  7  1  0
  5  6  1  1
  7  8  2  0
 10  9  1  1
 10 12  1  0
 11 10  1  0
 12 13  1  1
 13  7  1  0
 14 15  2  0
 14 12  1  0
 16 14  1  0
 17 24  1  0
 17 16  1  0
 17 18  1  6
 19 18  1  0
 20 19  2  0
 21 20  1  0
 22 21  1  0
 22 23  2  0
 23 19  1  0
 24 25  1  0
 26 24  2  0
M  END
$$$$
