ITH.pdb
     RDKit          3D

 26 26  0  0  1  0  0  0  0  0999 V2000
    7.4946  -11.8439   19.6699 C   0  0  0  0  0  0  0  0  0  0  0  0
    8.2866  -12.9696   18.9915 C   0  0  0  0  0  0  0  0  0  0  0  0
    8.6143  -14.0163   19.9939 C   0  0  2  0  0  0  0  0  0  0  0  0
    9.3789  -13.3510   21.1202 C   0  0  0  0  0  0  0  0  0  0  0  0
    9.3057  -15.2366   19.4788 C   0  0  2  0  0  0  0  0  0  0  0  0
    8.5089  -15.7084   18.3280 N   0  0  0  0  0  0  0  0  0  0  0  0
    9.4477  -16.3434   20.4413 C   0  0  0  0  0  0  0  0  0  0  0  0
    8.4512  -17.0920   20.6729 O   0  0  0  0  0  0  0  0  0  0  0  0
   10.7832  -19.3985   20.4323 C   0  0  0  0  0  0  0  0  0  0  0  0
   11.6304  -18.7025   21.5110 C   0  0  1  0  0  0  0  0  0  0  0  0
   12.9247  -18.5127   21.0548 O   0  0  0  0  0  0  0  0  0  0  0  0
   10.9571  -17.5427   22.1100 C   0  0  2  0  0  0  0  0  0  0  0  0
   10.6595  -16.5720   21.0889 N   0  0  0  0  0  0  0  0  0  0  0  0
   11.5359  -16.9737   23.3440 C   0  0  0  0  0  0  0  0  0  0  0  0
   12.1747  -15.8982   23.2522 O   0  0  0  0  0  0  0  0  0  0  0  0
   11.4184  -17.5580   24.6239 N   0  0  0  0  0  0  0  0  0  0  0  0
   11.3067  -16.7699   25.8418 C   0  0  1  0  0  0  0  0  0  0  0  0
   10.0618  -15.9234   25.8192 C   0  0  0  0  0  0  0  0  0  0  0  0
   10.0233  -14.9944   26.9828 C   0  0  0  0  0  0  0  0  0  0  0  0
   10.9484  -14.9062   28.0175 C   0  0  0  0  0  0  0  0  0  0  0  0
   10.5583  -13.9502   28.8660 N   0  0  0  0  0  0  0  0  0  0  0  0
    9.4145  -13.4258   28.4062 C   0  0  0  0  0  0  0  0  0  0  0  0
    9.1048  -14.0635   27.2730 N   0  0  0  0  0  0  0  0  0  0  0  0
   11.2451  -17.6671   27.0415 C   0  0  0  0  0  0  0  0  0  0  0  0
   11.0142  -19.0204   26.9472 O   0  0  0  0  0  0  0  0  0  0  0  0
   11.4110  -17.1628   28.1790 O   0  0  0  0  0  0  0  0  0  0  0  0
  2  3  1  0
  2  1  1  0
  3  5  1  0
  3  4  1  1
  5  7  1  0
  5  6  1  6
  7  8  2  0
 10  9  1  6
 10 12  1  0
 11 10  1  0
 12 13  1  6
 13  7  1  0
 14 15  2  0
 14 12  1  0
 16 14  1  0
 17 24  1  0
 17 16  1  0
 17 18  1  6
 19 18  1  0
 20 19  2  0
 21 20  1  0
 22 21  1  0
 22 23  2  0
 23 19  1  0
 24 25  1  0
 26 24  2  0
M  END
$$$$
