ITH.pdb
     RDKit          3D

 26 26  0  0  1  0  0  0  0  0999 V2000
    7.9529  -11.7080   19.0762 C   0  0  0  0  0  0  0  0  0  0  0  0
    8.4975  -13.1237   18.8439 C   0  0  0  0  0  0  0  0  0  0  0  0
    8.2265  -13.9597   20.0420 C   0  0  2  0  0  0  0  0  0  0  0  0
    8.7882  -13.2326   21.2468 C   0  0  0  0  0  0  0  0  0  0  0  0
    8.6763  -15.3830   19.9748 C   0  0  2  0  0  0  0  0  0  0  0  0
    7.9604  -15.9893   18.8338 N   0  0  0  0  0  0  0  0  0  0  0  0
    8.4170  -16.1914   21.1793 C   0  0  0  0  0  0  0  0  0  0  0  0
    7.3045  -16.7881   21.2949 O   0  0  0  0  0  0  0  0  0  0  0  0
    8.9584  -19.1877   21.9773 C   0  0  0  0  0  0  0  0  0  0  0  0
    9.8257  -18.4813   23.0329 C   0  0  1  0  0  0  0  0  0  0  0  0
   11.1680  -18.6141   22.7167 O   0  0  0  0  0  0  0  0  0  0  0  0
    9.3472  -17.1316   23.3591 C   0  0  2  0  0  0  0  0  0  0  0  0
    9.3791  -16.3058   22.1799 N   0  0  0  0  0  0  0  0  0  0  0  0
    9.8876  -16.4854   24.5725 C   0  0  0  0  0  0  0  0  0  0  0  0
   10.9082  -15.7664   24.4508 O   0  0  0  0  0  0  0  0  0  0  0  0
    9.3324  -16.6206   25.8634 N   0  0  0  0  0  0  0  0  0  0  0  0
    9.9024  -15.9766   27.0370 C   0  0  1  0  0  0  0  0  0  0  0  0
    8.8174  -15.4529   27.9401 C   0  0  0  0  0  0  0  0  0  0  0  0
    7.9840  -14.4343   27.2427 C   0  0  0  0  0  0  0  0  0  0  0  0
    8.2116  -13.8796   25.9879 C   0  0  0  0  0  0  0  0  0  0  0  0
    7.2382  -13.0043   25.7190 N   0  0  0  0  0  0  0  0  0  0  0  0
    6.3972  -12.9826   26.7615 C   0  0  0  0  0  0  0  0  0  0  0  0
    6.8583  -13.8475   27.6703 N   0  0  0  0  0  0  0  0  0  0  0  0
   10.7348  -16.9506   27.8157 C   0  0  0  0  0  0  0  0  0  0  0  0
   10.8847  -18.2665   27.4417 O   0  0  0  0  0  0  0  0  0  0  0  0
   11.3191  -16.5492   28.8515 O   0  0  0  0  0  0  0  0  0  0  0  0
  2  3  1  0
  2  1  1  0
  3  5  1  0
  3  4  1  1
  5  7  1  0
  5  6  1  6
  7  8  2  0
 10  9  1  6
 10 12  1  0
 11 10  1  0
 12 13  1  6
 13  7  1  0
 14 15  2  0
 14 12  1  0
 16 14  1  0
 17 24  1  0
 17 16  1  0
 17 18  1  1
 19 18  1  0
 20 19  2  0
 21 20  1  0
 22 21  1  0
 22 23  2  0
 23 19  1  0
 24 25  1  0
 26 24  2  0
M  END
$$$$
