ITH.pdb
     RDKit          3D

 26 26  0  0  1  0  0  0  0  0999 V2000
    7.4153  -11.6003   19.5559 C   0  0  0  0  0  0  0  0  0  0  0  0
    7.7704  -13.0550   19.2206 C   0  0  0  0  0  0  0  0  0  0  0  0
    7.9000  -13.8344   20.4790 C   0  0  2  0  0  0  0  0  0  0  0  0
    8.9071  -13.1224   21.3592 C   0  0  0  0  0  0  0  0  0  0  0  0
    8.2014  -15.2903   20.3310 C   0  0  2  0  0  0  0  0  0  0  0  0
    7.1863  -15.8304   19.4037 N   0  0  0  0  0  0  0  0  0  0  0  0
    8.1711  -16.0777   21.5762 C   0  0  0  0  0  0  0  0  0  0  0  0
    7.0517  -16.3755   22.0915 O   0  0  0  0  0  0  0  0  0  0  0  0
    9.8516  -19.3473   22.1338 C   0  0  0  0  0  0  0  0  0  0  0  0
   10.3905  -18.3794   23.2007 C   0  0  1  0  0  0  0  0  0  0  0  0
   11.7341  -18.1231   22.9800 O   0  0  0  0  0  0  0  0  0  0  0  0
    9.5166  -17.2189   23.4169 C   0  0  2  0  0  0  0  0  0  0  0  0
    9.3533  -16.4960   22.1824 N   0  0  0  0  0  0  0  0  0  0  0  0
    9.7842  -16.3667   24.5933 C   0  0  0  0  0  0  0  0  0  0  0  0
    9.8150  -15.1242   24.4244 O   0  0  0  0  0  0  0  0  0  0  0  0
   10.0072  -16.8555   25.8989 N   0  0  0  0  0  0  0  0  0  0  0  0
    9.5182  -16.1752   27.0884 C   0  0  1  0  0  0  0  0  0  0  0  0
    8.0209  -16.0240   27.0409 C   0  0  0  0  0  0  0  0  0  0  0  0
    7.6326  -14.6136   26.7605 C   0  0  0  0  0  0  0  0  0  0  0  0
    8.4819  -13.5219   26.6162 C   0  0  0  0  0  0  0  0  0  0  0  0
    7.7479  -12.4323   26.3720 N   0  0  0  0  0  0  0  0  0  0  0  0
    6.4579  -12.7934   26.3559 C   0  0  0  0  0  0  0  0  0  0  0  0
    6.4038  -14.1081   26.5909 N   0  0  0  0  0  0  0  0  0  0  0  0
    9.8748  -16.9529   28.3196 C   0  0  0  0  0  0  0  0  0  0  0  0
    9.7830  -18.3245   28.3856 O   0  0  0  0  0  0  0  0  0  0  0  0
   10.2736  -16.3272   29.3320 O   0  0  0  0  0  0  0  0  0  0  0  0
  2  3  1  0
  2  1  1  0
  3  5  1  0
  3  4  1  1
  5  7  1  0
  5  6  1  6
  7  8  2  0
 10  9  1  6
 10 12  1  0
 11 10  1  0
 12 13  1  6
 13  7  1  0
 14 15  2  0
 14 12  1  0
 16 14  1  0
 17 24  1  0
 17 16  1  0
 17 18  1  6
 19 18  1  0
 20 19  2  0
 21 20  1  0
 22 21  1  0
 22 23  2  0
 23 19  1  0
 24 25  1  0
 26 24  2  0
M  END
$$$$
