ITH.pdb
     RDKit          3D

 26 26  0  0  1  0  0  0  0  0999 V2000
    0.1348  -20.4338   22.4700 C   0  0  0  0  0  0  0  0  0  0  0  0
    1.0541  -19.7242   21.4670 C   0  0  0  0  0  0  0  0  0  0  0  0
    2.4435  -19.7119   21.9937 C   0  0  2  0  0  0  0  0  0  0  0  0
    2.4137  -19.0454   23.3540 C   0  0  0  0  0  0  0  0  0  0  0  0
    3.4888  -19.1317   21.0976 C   0  0  2  0  0  0  0  0  0  0  0  0
    3.3654  -19.8386   19.8065 N   0  0  0  0  0  0  0  0  0  0  0  0
    4.8778  -19.2560   21.5739 C   0  0  0  0  0  0  0  0  0  0  0  0
    5.4586  -20.3802   21.4974 O   0  0  0  0  0  0  0  0  0  0  0  0
    7.5321  -16.8545   20.5172 C   0  0  0  0  0  0  0  0  0  0  0  0
    7.5784  -16.9116   22.0535 C   0  0  1  0  0  0  0  0  0  0  0  0
    7.2379  -15.6800   22.5891 O   0  0  0  0  0  0  0  0  0  0  0  0
    6.8976  -18.0904   22.6049 C   0  0  2  0  0  0  0  0  0  0  0  0
    5.5510  -18.1554   22.0991 N   0  0  0  0  0  0  0  0  0  0  0  0
    7.0178  -18.3372   24.0562 C   0  0  0  0  0  0  0  0  0  0  0  0
    6.1814  -17.7932   24.8164 O   0  0  0  0  0  0  0  0  0  0  0  0
    8.0112  -19.1467   24.6486 N   0  0  0  0  0  0  0  0  0  0  0  0
    8.1180  -19.3359   26.0873 C   0  0  1  0  0  0  0  0  0  0  0  0
    8.1223  -20.8007   26.4355 C   0  0  0  0  0  0  0  0  0  0  0  0
    6.8329  -21.4452   26.0603 C   0  0  0  0  0  0  0  0  0  0  0  0
    5.6713  -21.5053   26.8226 C   0  0  0  0  0  0  0  0  0  0  0  0
    4.7369  -22.1689   26.1353 N   0  0  0  0  0  0  0  0  0  0  0  0
    5.2646  -22.5340   24.9594 C   0  0  0  0  0  0  0  0  0  0  0  0
    6.5257  -22.0921   24.9282 N   0  0  0  0  0  0  0  0  0  0  0  0
    9.3866  -18.7251   26.6025 C   0  0  0  0  0  0  0  0  0  0  0  0
    9.7457  -18.7651   27.9304 O   0  0  0  0  0  0  0  0  0  0  0  0
   10.1529  -18.1536   25.7889 O   0  0  0  0  0  0  0  0  0  0  0  0
  2  3  1  0
  2  1  1  0
  3  5  1  0
  3  4  1  1
  5  7  1  0
  5  6  1  6
  7  8  2  0
 10  9  1  6
 10 12  1  0
 11 10  1  0
 12 13  1  1
 13  7  1  0
 14 15  2  0
 14 12  1  0
 16 14  1  0
 17 24  1  0
 17 16  1  0
 17 18  1  6
 19 18  1  0
 20 19  2  0
 21 20  1  0
 22 21  1  0
 22 23  2  0
 23 19  1  0
 24 25  1  0
 26 24  2  0
M  END
$$$$
