ITH.pdb
     RDKit          3D

 26 26  0  0  1  0  0  0  0  0999 V2000
    6.1564  -10.9981   26.5213 C   0  0  0  0  0  0  0  0  0  0  0  0
    5.6184  -12.3085   25.9312 C   0  0  0  0  0  0  0  0  0  0  0  0
    6.7514  -13.1194   25.4150 C   0  0  2  0  0  0  0  0  0  0  0  0
    7.5519  -12.2438   24.4726 C   0  0  0  0  0  0  0  0  0  0  0  0
    6.4018  -14.4391   24.8079 C   0  0  2  0  0  0  0  0  0  0  0  0
    5.5719  -15.1459   25.8048 N   0  0  0  0  0  0  0  0  0  0  0  0
    7.5437  -15.2985   24.4486 C   0  0  0  0  0  0  0  0  0  0  0  0
    8.0875  -16.0100   25.3458 O   0  0  0  0  0  0  0  0  0  0  0  0
    7.4148  -16.5223   20.7047 C   0  0  0  0  0  0  0  0  0  0  0  0
    8.8729  -16.2800   21.1298 C   0  0  1  0  0  0  0  0  0  0  0  0
    9.4311  -15.2651   20.3696 O   0  0  0  0  0  0  0  0  0  0  0  0
    9.0390  -16.1914   22.5864 C   0  0  2  0  0  0  0  0  0  0  0  0
    8.0220  -15.3361   23.1409 N   0  0  0  0  0  0  0  0  0  0  0  0
   10.3980  -15.9431   23.1093 C   0  0  0  0  0  0  0  0  0  0  0  0
   10.9395  -14.8440   22.8411 O   0  0  0  0  0  0  0  0  0  0  0  0
   11.1312  -16.8599   23.8935 N   0  0  0  0  0  0  0  0  0  0  0  0
   11.4743  -16.6077   25.2848 C   0  0  1  0  0  0  0  0  0  0  0  0
   10.2658  -16.1553   26.0605 C   0  0  0  0  0  0  0  0  0  0  0  0
   10.6469  -15.6849   27.4215 C   0  0  0  0  0  0  0  0  0  0  0  0
   11.9330  -15.5444   27.9315 C   0  0  0  0  0  0  0  0  0  0  0  0
   11.8533  -15.0966   29.1881 N   0  0  0  0  0  0  0  0  0  0  0  0
   10.5582  -14.9469   29.4961 C   0  0  0  0  0  0  0  0  0  0  0  0
    9.8443  -15.3044   28.4241 N   0  0  0  0  0  0  0  0  0  0  0  0
   12.0071  -17.8536   25.9263 C   0  0  0  0  0  0  0  0  0  0  0  0
   13.1415  -17.8625   26.7054 O   0  0  0  0  0  0  0  0  0  0  0  0
   11.3931  -18.9334   25.7453 O   0  0  0  0  0  0  0  0  0  0  0  0
  2  3  1  0
  2  1  1  0
  3  5  1  0
  3  4  1  6
  5  7  1  0
  5  6  1  1
  7  8  2  0
 10  9  1  1
 10 12  1  0
 11 10  1  0
 12 13  1  6
 13  7  1  0
 14 15  2  0
 14 12  1  0
 16 14  1  0
 17 24  1  0
 17 16  1  0
 17 18  1  1
 19 18  1  0
 20 19  2  0
 21 20  1  0
 22 21  1  0
 22 23  2  0
 23 19  1  0
 24 25  1  0
 26 24  2  0
M  END
$$$$
