ITH.pdb
     RDKit          3D

 26 26  0  0  1  0  0  0  0  0999 V2000
    7.8618  -11.5204   19.2328 C   0  0  0  0  0  0  0  0  0  0  0  0
    8.6728  -12.7474   18.7952 C   0  0  0  0  0  0  0  0  0  0  0  0
    8.4023  -13.8751   19.7241 C   0  0  2  0  0  0  0  0  0  0  0  0
    8.7175  -13.4001   21.1280 C   0  0  0  0  0  0  0  0  0  0  0  0
    9.0630  -15.1756   19.4008 C   0  0  2  0  0  0  0  0  0  0  0  0
    8.6385  -15.5254   18.0299 N   0  0  0  0  0  0  0  0  0  0  0  0
    8.7355  -16.2978   20.2980 C   0  0  0  0  0  0  0  0  0  0  0  0
    8.0262  -17.2525   19.8593 O   0  0  0  0  0  0  0  0  0  0  0  0
    9.0272  -18.9626   20.5859 C   0  0  0  0  0  0  0  0  0  0  0  0
    9.7211  -18.6186   21.9147 C   0  0  1  0  0  0  0  0  0  0  0  0
   11.0971  -18.6905   21.7691 O   0  0  0  0  0  0  0  0  0  0  0  0
    9.1794  -17.4098   22.5491 C   0  0  2  0  0  0  0  0  0  0  0  0
    9.1995  -16.3174   21.6113 N   0  0  0  0  0  0  0  0  0  0  0  0
    9.6678  -17.0647   23.8997 C   0  0  0  0  0  0  0  0  0  0  0  0
   10.7017  -16.3601   23.9888 O   0  0  0  0  0  0  0  0  0  0  0  0
    9.0488  -17.4734   25.1009 N   0  0  0  0  0  0  0  0  0  0  0  0
    9.5086  -17.0388   26.4111 C   0  0  1  0  0  0  0  0  0  0  0  0
    8.3568  -16.5456   27.2460 C   0  0  0  0  0  0  0  0  0  0  0  0
    7.6842  -15.3842   26.5999 C   0  0  0  0  0  0  0  0  0  0  0  0
    8.2669  -14.1781   26.2262 C   0  0  0  0  0  0  0  0  0  0  0  0
    7.3308  -13.3968   25.6792 N   0  0  0  0  0  0  0  0  0  0  0  0
    6.1700  -14.0654   25.6918 C   0  0  0  0  0  0  0  0  0  0  0  0
    6.3977  -15.2591   26.2484 N   0  0  0  0  0  0  0  0  0  0  0  0
   10.1659  -18.1736   27.1378 C   0  0  0  0  0  0  0  0  0  0  0  0
   10.3333  -19.4189   26.5764 O   0  0  0  0  0  0  0  0  0  0  0  0
   10.5805  -17.9798   28.3066 O   0  0  0  0  0  0  0  0  0  0  0  0
  2  3  1  0
  2  1  1  0
  3  5  1  0
  3  4  1  1
  5  7  1  0
  5  6  1  6
  7  8  2  0
 10  9  1  6
 10 12  1  0
 11 10  1  0
 12 13  1  6
 13  7  1  0
 14 15  2  0
 14 12  1  0
 16 14  1  0
 17 24  1  0
 17 16  1  0
 17 18  1  1
 19 18  1  0
 20 19  2  0
 21 20  1  0
 22 21  1  0
 22 23  2  0
 23 19  1  0
 24 25  1  0
 26 24  2  0
M  END
$$$$
