ITH.pdb
     RDKit          3D

 26 26  0  0  1  0  0  0  0  0999 V2000
    6.9462  -11.3068   26.9520 C   0  0  0  0  0  0  0  0  0  0  0  0
    6.2905  -12.6748   26.7206 C   0  0  0  0  0  0  0  0  0  0  0  0
    7.1455  -13.4854   25.8153 C   0  0  2  0  0  0  0  0  0  0  0  0
    7.3804  -12.6750   24.5568 C   0  0  0  0  0  0  0  0  0  0  0  0
    6.6735  -14.8720   25.5202 C   0  0  2  0  0  0  0  0  0  0  0  0
    6.3474  -15.4839   26.8245 N   0  0  0  0  0  0  0  0  0  0  0  0
    7.6376  -15.7383   24.8193 C   0  0  0  0  0  0  0  0  0  0  0  0
    8.6838  -16.1165   25.4273 O   0  0  0  0  0  0  0  0  0  0  0  0
    6.9408  -19.0225   23.2639 C   0  0  0  0  0  0  0  0  0  0  0  0
    7.4624  -18.0976   22.1511 C   0  0  1  0  0  0  0  0  0  0  0  0
    6.4477  -17.8100   21.2526 O   0  0  0  0  0  0  0  0  0  0  0  0
    8.2399  -16.9627   22.6654 C   0  0  2  0  0  0  0  0  0  0  0  0
    7.4067  -16.1434   23.5067 N   0  0  0  0  0  0  0  0  0  0  0  0
    9.0697  -16.2068   21.7053 C   0  0  0  0  0  0  0  0  0  0  0  0
    8.4851  -15.4691   20.8762 O   0  0  0  0  0  0  0  0  0  0  0  0
   10.4798  -16.2564   21.6571 N   0  0  0  0  0  0  0  0  0  0  0  0
   11.2600  -15.5250   20.6705 C   0  0  1  0  0  0  0  0  0  0  0  0
   11.0836  -14.0397   20.8428 C   0  0  0  0  0  0  0  0  0  0  0  0
    9.8585  -13.5602   20.1444 C   0  0  0  0  0  0  0  0  0  0  0  0
    8.8166  -12.8187   20.6909 C   0  0  0  0  0  0  0  0  0  0  0  0
    7.9054  -12.5881   19.7409 N   0  0  0  0  0  0  0  0  0  0  0  0
    8.3321  -13.1584   18.6064 C   0  0  0  0  0  0  0  0  0  0  0  0
    9.5080  -13.7394   18.8641 N   0  0  0  0  0  0  0  0  0  0  0  0
   12.7175  -15.8465   20.8133 C   0  0  0  0  0  0  0  0  0  0  0  0
   13.6908  -15.2414   20.0515 O   0  0  0  0  0  0  0  0  0  0  0  0
   13.0642  -16.7029   21.6629 O   0  0  0  0  0  0  0  0  0  0  0  0
  2  3  1  0
  2  1  1  0
  3  5  1  0
  3  4  1  6
  5  7  1  0
  5  6  1  1
  7  8  2  0
 10  9  1  1
 10 12  1  0
 11 10  1  0
 12 13  1  6
 13  7  1  0
 14 15  2  0
 14 12  1  0
 16 14  1  0
 17 24  1  0
 17 16  1  0
 17 18  1  1
 19 18  1  0
 20 19  2  0
 21 20  1  0
 22 21  1  0
 22 23  2  0
 23 19  1  0
 24 25  1  0
 26 24  2  0
M  END
$$$$
