ITH.pdb
     RDKit          3D

 26 26  0  0  1  0  0  0  0  0999 V2000
    7.2663  -11.6278   19.4335 C   0  0  0  0  0  0  0  0  0  0  0  0
    8.1323  -12.8043   18.9638 C   0  0  0  0  0  0  0  0  0  0  0  0
    8.1667  -13.8459   20.0229 C   0  0  2  0  0  0  0  0  0  0  0  0
    8.5869  -13.1746   21.3146 C   0  0  0  0  0  0  0  0  0  0  0  0
    8.9738  -15.0680   19.7271 C   0  0  2  0  0  0  0  0  0  0  0  0
    8.4954  -15.5741   18.4245 N   0  0  0  0  0  0  0  0  0  0  0  0
    8.8767  -16.1523   20.7203 C   0  0  0  0  0  0  0  0  0  0  0  0
    7.8057  -16.8264   20.7959 O   0  0  0  0  0  0  0  0  0  0  0  0
   10.6779  -19.1673   20.9156 C   0  0  0  0  0  0  0  0  0  0  0  0
   11.0061  -18.4601   22.2414 C   0  0  1  0  0  0  0  0  0  0  0  0
   12.3402  -18.0872   22.2679 O   0  0  0  0  0  0  0  0  0  0  0  0
   10.0193  -17.4348   22.6047 C   0  0  2  0  0  0  0  0  0  0  0  0
    9.9456  -16.4406   21.5656 N   0  0  0  0  0  0  0  0  0  0  0  0
   10.0725  -16.8844   23.9744 C   0  0  0  0  0  0  0  0  0  0  0  0
   10.6627  -15.7910   24.1462 O   0  0  0  0  0  0  0  0  0  0  0  0
    9.5020  -17.5052   25.1067 N   0  0  0  0  0  0  0  0  0  0  0  0
    9.6223  -16.9574   26.4492 C   0  0  1  0  0  0  0  0  0  0  0  0
    8.2654  -16.6536   27.0268 C   0  0  0  0  0  0  0  0  0  0  0  0
    7.7527  -15.3453   26.5328 C   0  0  0  0  0  0  0  0  0  0  0  0
    8.4447  -14.4025   25.7803 C   0  0  0  0  0  0  0  0  0  0  0  0
    7.6374  -13.3653   25.5382 N   0  0  0  0  0  0  0  0  0  0  0  0
    6.4530  -13.6159   26.1119 C   0  0  0  0  0  0  0  0  0  0  0  0
    6.5370  -14.8101   26.7063 N   0  0  0  0  0  0  0  0  0  0  0  0
   10.3115  -17.9349   27.3533 C   0  0  0  0  0  0  0  0  0  0  0  0
   10.7152  -19.1811   26.9316 O   0  0  0  0  0  0  0  0  0  0  0  0
   10.5292  -17.6030   28.5441 O   0  0  0  0  0  0  0  0  0  0  0  0
  2  3  1  0
  2  1  1  0
  3  5  1  0
  3  4  1  1
  5  7  1  0
  5  6  1  6
  7  8  2  0
 10  9  1  6
 10 12  1  0
 11 10  1  0
 12 13  1  6
 13  7  1  0
 14 15  2  0
 14 12  1  0
 16 14  1  0
 17 24  1  0
 17 16  1  0
 17 18  1  1
 19 18  1  0
 20 19  2  0
 21 20  1  0
 22 21  1  0
 22 23  2  0
 23 19  1  0
 24 25  1  0
 26 24  2  0
M  END
$$$$
