ITH.pdb
     RDKit          3D

 26 26  0  0  1  0  0  0  0  0999 V2000
    7.5007  -11.7511   19.1782 C   0  0  0  0  0  0  0  0  0  0  0  0
    8.3713  -12.8972   18.6458 C   0  0  0  0  0  0  0  0  0  0  0  0
    8.2420  -14.0739   19.5439 C   0  0  2  0  0  0  0  0  0  0  0  0
    8.6270  -13.6308   20.9407 C   0  0  0  0  0  0  0  0  0  0  0  0
    8.9596  -15.3144   19.1215 C   0  0  2  0  0  0  0  0  0  0  0  0
    8.4566  -15.6439   17.7723 N   0  0  0  0  0  0  0  0  0  0  0  0
    8.7745  -16.4870   19.9946 C   0  0  0  0  0  0  0  0  0  0  0  0
    8.2235  -17.5269   19.5234 O   0  0  0  0  0  0  0  0  0  0  0  0
    9.2524  -19.1228   20.2781 C   0  0  0  0  0  0  0  0  0  0  0  0
    9.9726  -18.6976   21.5689 C   0  0  1  0  0  0  0  0  0  0  0  0
   11.3371  -18.6041   21.3474 O   0  0  0  0  0  0  0  0  0  0  0  0
    9.3261  -17.5623   22.2397 C   0  0  2  0  0  0  0  0  0  0  0  0
    9.2008  -16.4611   21.3204 N   0  0  0  0  0  0  0  0  0  0  0  0
    9.8175  -17.1858   23.5808 C   0  0  0  0  0  0  0  0  0  0  0  0
   10.8231  -16.4392   23.6504 O   0  0  0  0  0  0  0  0  0  0  0  0
    9.2310  -17.6085   24.7935 N   0  0  0  0  0  0  0  0  0  0  0  0
    9.6383  -17.0863   26.0890 C   0  0  1  0  0  0  0  0  0  0  0  0
    8.4485  -16.5779   26.8591 C   0  0  0  0  0  0  0  0  0  0  0  0
    7.8528  -15.3829   26.1989 C   0  0  0  0  0  0  0  0  0  0  0  0
    8.3108  -14.7412   25.0533 C   0  0  0  0  0  0  0  0  0  0  0  0
    7.5036  -13.7111   24.7828 N   0  0  0  0  0  0  0  0  0  0  0  0
    6.5457  -13.6748   25.7186 C   0  0  0  0  0  0  0  0  0  0  0  0
    6.7685  -14.6862   26.5637 N   0  0  0  0  0  0  0  0  0  0  0  0
   10.3017  -18.1587   26.9001 C   0  0  0  0  0  0  0  0  0  0  0  0
   10.4618  -19.4464   26.4417 O   0  0  0  0  0  0  0  0  0  0  0  0
   10.7288  -17.8700   28.0446 O   0  0  0  0  0  0  0  0  0  0  0  0
  2  3  1  0
  2  1  1  0
  3  5  1  0
  3  4  1  1
  5  7  1  0
  5  6  1  6
  7  8  2  0
 10  9  1  6
 10 12  1  0
 11 10  1  0
 12 13  1  6
 13  7  1  0
 14 15  2  0
 14 12  1  0
 16 14  1  0
 17 24  1  0
 17 16  1  0
 17 18  1  1
 19 18  1  0
 20 19  2  0
 21 20  1  0
 22 21  1  0
 22 23  2  0
 23 19  1  0
 24 25  1  0
 26 24  2  0
M  END
$$$$
