EMI.pdb
     RDKit          3D

 26 25  0  0  1  0  0  0  0  0999 V2000
    9.7954  -17.1426   20.1695 N   0  0  0  0  0  0  0  0  0  0  0  0
   10.9393  -16.4562   20.7395 C   0  0  1  0  0  0  0  0  0  0  0  0
   11.5084  -15.5611   19.6980 C   0  0  0  0  0  0  0  0  0  0  0  0
   12.9136  -15.8492   19.2876 C   0  0  0  0  0  0  0  0  0  0  0  0
   13.5564  -14.5996   18.8187 C   0  0  0  0  0  0  0  0  0  0  0  0
   14.5407  -14.1289   19.4309 O   0  0  0  0  0  0  0  0  0  0  0  0
   10.6502  -15.8477   22.0354 C   0  0  0  0  0  0  0  0  0  0  0  0
   11.5516  -15.3257   22.7371 O   0  0  0  0  0  0  0  0  0  0  0  0
   13.0860  -13.9317   17.7032 O   0  0  0  0  0  0  0  0  0  0  0  0
    5.6048  -11.8249   25.5508 C   0  0  0  0  0  0  0  0  0  0  0  0
    5.6561  -13.6467   25.6014 S   0  0  0  0  0  0  0  0  0  0  0  0
    7.3662  -14.2077   25.4246 C   0  0  0  0  0  0  0  0  0  0  0  0
    7.5891  -14.8425   24.0493 C   0  0  0  0  0  0  0  0  0  0  0  0
    9.0559  -15.1563   23.8594 C   0  0  2  0  0  0  0  0  0  0  0  0
    9.3237  -15.7985   22.6048 N   0  0  0  0  0  0  0  0  0  0  0  0
    9.4485  -16.0638   24.9600 C   0  0  0  0  0  0  0  0  0  0  0  0
    9.6040  -17.3016   24.8144 O   0  0  0  0  0  0  0  0  0  0  0  0
   11.1655  -12.9667   29.2122 C   0  0  0  0  0  0  0  0  0  0  0  0
   11.0777  -13.9421   28.1014 C   0  0  0  0  0  0  0  0  0  0  0  0
   10.5880  -15.2998   28.3902 C   0  0  2  0  0  0  0  0  0  0  0  0
   11.4819  -15.8783   29.5058 C   0  0  0  0  0  0  0  0  0  0  0  0
   10.3796  -16.2779   27.3055 C   0  0  2  0  0  0  0  0  0  0  0  0
    9.6632  -15.5214   26.2493 N   0  0  0  0  0  0  0  0  0  0  0  0
    9.6116  -17.4767   27.5346 C   0  0  0  0  0  0  0  0  0  0  0  0
    8.3617  -17.4979   27.5241 O   0  0  0  0  0  0  0  0  0  0  0  0
   10.2096  -18.7287   27.7904 O   0  0  0  0  0  0  0  0  0  0  0  0
  2  7  1  0
  2  1  1  6
  3  2  1  0
  4  3  1  0
  5  9  1  0
  5  4  1  0
  6  5  2  0
  7  8  2  0
 10 11  1  0
 11 12  1  0
 13 12  1  0
 14 13  1  1
 15 14  1  0
 15  7  1  0
 16 17  2  0
 16 14  1  0
 19 18  1  0
 19 20  1  0
 20 22  1  0
 20 21  1  1
 22 24  1  0
 22 23  1  6
 23 16  1  0
 24 26  1  0
 25 24  2  0
M  END
$$$$
