EMI.pdb
     RDKit          3D

 26 25  0  0  1  0  0  0  0  0999 V2000
    8.7962  -18.4590   20.6278 N   0  0  0  0  0  0  0  0  0  0  0  0
   10.0557  -17.7825   20.8743 C   0  0  1  0  0  0  0  0  0  0  0  0
   10.5643  -17.2639   19.5773 C   0  0  0  0  0  0  0  0  0  0  0  0
   11.9353  -17.7075   19.1903 C   0  0  0  0  0  0  0  0  0  0  0  0
   12.3406  -17.0230   17.9408 C   0  0  0  0  0  0  0  0  0  0  0  0
   11.8214  -17.3445   16.8489 O   0  0  0  0  0  0  0  0  0  0  0  0
    9.9817  -16.8256   21.9753 C   0  0  0  0  0  0  0  0  0  0  0  0
   11.0078  -16.2673   22.4368 O   0  0  0  0  0  0  0  0  0  0  0  0
   13.2941  -16.0218   17.9541 O   0  0  0  0  0  0  0  0  0  0  0  0
    5.7891  -11.7442   25.0209 C   0  0  0  0  0  0  0  0  0  0  0  0
    5.7277  -13.4642   25.6229 S   0  0  0  0  0  0  0  0  0  0  0  0
    7.3308  -14.2562   25.3520 C   0  0  0  0  0  0  0  0  0  0  0  0
    7.3125  -15.0924   24.0696 C   0  0  0  0  0  0  0  0  0  0  0  0
    8.7028  -15.6059   23.7707 C   0  0  2  0  0  0  0  0  0  0  0  0
    8.7405  -16.4506   22.6119 N   0  0  0  0  0  0  0  0  0  0  0  0
    9.1374  -16.3852   24.9509 C   0  0  0  0  0  0  0  0  0  0  0  0
    9.2956  -17.6311   24.9376 O   0  0  0  0  0  0  0  0  0  0  0  0
   10.5782  -12.8854   29.0435 C   0  0  0  0  0  0  0  0  0  0  0  0
   10.6799  -13.9282   27.9970 C   0  0  0  0  0  0  0  0  0  0  0  0
   10.2291  -15.2932   28.3135 C   0  0  2  0  0  0  0  0  0  0  0  0
   11.0483  -15.7727   29.5289 C   0  0  0  0  0  0  0  0  0  0  0  0
   10.1599  -16.3312   27.2673 C   0  0  2  0  0  0  0  0  0  0  0  0
    9.3916  -15.7030   26.1645 N   0  0  0  0  0  0  0  0  0  0  0  0
    9.5250  -17.5988   27.5306 C   0  0  0  0  0  0  0  0  0  0  0  0
    8.2868  -17.7641   27.4818 O   0  0  0  0  0  0  0  0  0  0  0  0
   10.2513  -18.7609   27.8661 O   0  0  0  0  0  0  0  0  0  0  0  0
  2  7  1  0
  2  1  1  6
  3  2  1  0
  4  3  1  0
  5  9  1  0
  5  4  1  0
  6  5  2  0
  7  8  2  0
 10 11  1  0
 11 12  1  0
 13 12  1  0
 14 13  1  1
 15 14  1  0
 15  7  1  0
 16 17  2  0
 16 14  1  0
 19 18  1  0
 19 20  1  0
 20 22  1  0
 20 21  1  1
 22 24  1  0
 22 23  1  6
 23 16  1  0
 24 26  1  0
 25 24  2  0
M  END
$$$$
