EMI.pdb
     RDKit          3D

 26 25  0  0  1  0  0  0  0  0999 V2000
   10.3188  -15.8980   19.3950 N   0  0  0  0  0  0  0  0  0  0  0  0
    9.7601  -16.6994   20.4674 C   0  0  1  0  0  0  0  0  0  0  0  0
   10.4111  -18.0354   20.4346 C   0  0  0  0  0  0  0  0  0  0  0  0
   11.7593  -18.1194   21.0682 C   0  0  0  0  0  0  0  0  0  0  0  0
   12.2567  -19.5123   20.9859 C   0  0  0  0  0  0  0  0  0  0  0  0
   11.5585  -20.4004   20.4484 O   0  0  0  0  0  0  0  0  0  0  0  0
    9.7572  -16.0067   21.7533 C   0  0  0  0  0  0  0  0  0  0  0  0
   10.7485  -15.3460   22.1512 O   0  0  0  0  0  0  0  0  0  0  0  0
   13.4938  -19.8583   21.4974 O   0  0  0  0  0  0  0  0  0  0  0  0
    5.5540  -11.8448   25.9609 C   0  0  0  0  0  0  0  0  0  0  0  0
    5.6720  -13.6477   26.2058 S   0  0  0  0  0  0  0  0  0  0  0  0
    7.3144  -14.2183   25.7087 C   0  0  0  0  0  0  0  0  0  0  0  0
    7.2392  -15.0167   24.4044 C   0  0  0  0  0  0  0  0  0  0  0  0
    8.6339  -15.3030   23.8956 C   0  0  2  0  0  0  0  0  0  0  0  0
    8.6304  -16.0262   22.6567 N   0  0  0  0  0  0  0  0  0  0  0  0
    9.3107  -16.1178   24.9287 C   0  0  0  0  0  0  0  0  0  0  0  0
    9.5351  -17.3472   24.8033 O   0  0  0  0  0  0  0  0  0  0  0  0
   11.0522  -12.9543   29.2226 C   0  0  0  0  0  0  0  0  0  0  0  0
   11.1140  -13.8989   28.0838 C   0  0  0  0  0  0  0  0  0  0  0  0
   10.6276  -15.2743   28.2793 C   0  0  2  0  0  0  0  0  0  0  0  0
   11.4338  -15.8806   29.4458 C   0  0  0  0  0  0  0  0  0  0  0  0
   10.5315  -16.2135   27.1455 C   0  0  2  0  0  0  0  0  0  0  0  0
    9.7324  -15.4911   26.1254 N   0  0  0  0  0  0  0  0  0  0  0  0
    9.9060  -17.5023   27.3100 C   0  0  0  0  0  0  0  0  0  0  0  0
   10.5475  -18.5753   27.3181 O   0  0  0  0  0  0  0  0  0  0  0  0
    8.5136  -17.6591   27.4759 O   0  0  0  0  0  0  0  0  0  0  0  0
  2  7  1  0
  2  1  1  6
  3  2  1  0
  4  3  1  0
  5  9  1  0
  5  4  1  0
  6  5  2  0
  7  8  2  0
 10 11  1  0
 11 12  1  0
 13 12  1  0
 14 13  1  1
 15 14  1  0
 15  7  1  0
 16 17  2  0
 16 14  1  0
 19 18  1  0
 19 20  1  0
 20 22  1  0
 20 21  1  1
 22 24  1  0
 22 23  1  6
 23 16  1  0
 24 26  1  0
 25 24  2  0
M  END
$$$$
