EMI.pdb
     RDKit          3D

 26 25  0  0  1  0  0  0  0  0999 V2000
    9.2009  -18.5253   20.7148 N   0  0  0  0  0  0  0  0  0  0  0  0
   10.3469  -17.6500   20.8730 C   0  0  1  0  0  0  0  0  0  0  0  0
   10.6684  -17.0635   19.5454 C   0  0  0  0  0  0  0  0  0  0  0  0
    9.6804  -17.3282   18.4592 C   0  0  0  0  0  0  0  0  0  0  0  0
   10.3901  -17.4416   17.1640 C   0  0  0  0  0  0  0  0  0  0  0  0
   11.2279  -18.3527   16.9818 O   0  0  0  0  0  0  0  0  0  0  0  0
   10.1970  -16.7110   21.9817 C   0  0  0  0  0  0  0  0  0  0  0  0
   11.1245  -15.9354   22.3219 O   0  0  0  0  0  0  0  0  0  0  0  0
   10.1441  -16.5498   16.1364 O   0  0  0  0  0  0  0  0  0  0  0  0
    5.8651  -12.1052   24.8643 C   0  0  0  0  0  0  0  0  0  0  0  0
    5.8641  -13.7068   25.7357 S   0  0  0  0  0  0  0  0  0  0  0  0
    7.4717  -14.5084   25.5274 C   0  0  0  0  0  0  0  0  0  0  0  0
    7.4880  -15.3698   24.2617 C   0  0  0  0  0  0  0  0  0  0  0  0
    8.9076  -15.7721   23.9317 C   0  0  2  0  0  0  0  0  0  0  0  0
    8.9876  -16.6013   22.7639 N   0  0  0  0  0  0  0  0  0  0  0  0
    9.4236  -16.5259   25.0956 C   0  0  0  0  0  0  0  0  0  0  0  0
    9.7473  -17.7384   25.0467 O   0  0  0  0  0  0  0  0  0  0  0  0
   10.5704  -12.8850   29.1407 C   0  0  0  0  0  0  0  0  0  0  0  0
   10.7413  -13.9227   28.0982 C   0  0  0  0  0  0  0  0  0  0  0  0
   10.4436  -15.3231   28.4396 C   0  0  2  0  0  0  0  0  0  0  0  0
   11.3424  -15.7013   29.6344 C   0  0  0  0  0  0  0  0  0  0  0  0
   10.4525  -16.3748   27.4049 C   0  0  2  0  0  0  0  0  0  0  0  0
    9.5647  -15.8572   26.3349 N   0  0  0  0  0  0  0  0  0  0  0  0
    9.9876  -17.7061   27.7062 C   0  0  0  0  0  0  0  0  0  0  0  0
    8.7776  -18.0204   27.7125 O   0  0  0  0  0  0  0  0  0  0  0  0
   10.8630  -18.7673   28.0197 O   0  0  0  0  0  0  0  0  0  0  0  0
  2  7  1  0
  2  1  1  6
  3  2  1  0
  4  3  1  0
  5  9  1  0
  5  4  1  0
  6  5  2  0
  7  8  2  0
 10 11  1  0
 11 12  1  0
 13 12  1  0
 14 13  1  1
 15 14  1  0
 15  7  1  0
 16 17  2  0
 16 14  1  0
 19 18  1  0
 19 20  1  0
 20 22  1  0
 20 21  1  1
 22 24  1  0
 22 23  1  6
 23 16  1  0
 24 26  1  0
 25 24  2  0
M  END
$$$$
