EMI.pdb
     RDKit          3D

 26 25  0  0  1  0  0  0  0  0999 V2000
    7.1846  -19.6663   23.1263 N   0  0  0  0  0  0  0  0  0  0  0  0
    8.2867  -19.7755   22.1893 C   0  0  1  0  0  0  0  0  0  0  0  0
    7.8674  -20.6768   21.0841 C   0  0  0  0  0  0  0  0  0  0  0  0
    6.5709  -21.3889   21.2798 C   0  0  0  0  0  0  0  0  0  0  0  0
    6.2841  -22.2262   20.0920 C   0  0  0  0  0  0  0  0  0  0  0  0
    6.8855  -23.3104   19.9249 O   0  0  0  0  0  0  0  0  0  0  0  0
    8.8340  -18.4782   21.8008 C   0  0  0  0  0  0  0  0  0  0  0  0
    9.7448  -18.3746   20.9422 O   0  0  0  0  0  0  0  0  0  0  0  0
    5.3528  -21.8306   19.1497 O   0  0  0  0  0  0  0  0  0  0  0  0
    7.4971  -10.8973   20.5245 C   0  0  0  0  0  0  0  0  0  0  0  0
    7.1691  -12.6673   20.2347 S   0  0  0  0  0  0  0  0  0  0  0  0
    8.2999  -13.6626   21.2352 C   0  0  0  0  0  0  0  0  0  0  0  0
    7.9370  -15.1475   21.1480 C   0  0  0  0  0  0  0  0  0  0  0  0
    8.9191  -15.9652   21.9561 C   0  0  2  0  0  0  0  0  0  0  0  0
    8.3779  -17.2292   22.3651 N   0  0  0  0  0  0  0  0  0  0  0  0
    9.2539  -15.1712   23.1589 C   0  0  0  0  0  0  0  0  0  0  0  0
   10.0042  -14.1643   23.1368 O   0  0  0  0  0  0  0  0  0  0  0  0
    6.0858  -12.6595   25.9462 C   0  0  0  0  0  0  0  0  0  0  0  0
    7.2899  -13.3097   25.3801 C   0  0  0  0  0  0  0  0  0  0  0  0
    8.0584  -14.2348   26.2287 C   0  0  2  0  0  0  0  0  0  0  0  0
    8.4492  -13.4632   27.5055 C   0  0  0  0  0  0  0  0  0  0  0  0
    9.2028  -14.9906   25.6846 C   0  0  2  0  0  0  0  0  0  0  0  0
    8.7063  -15.5559   24.4059 N   0  0  0  0  0  0  0  0  0  0  0  0
    9.7715  -16.0931   26.4195 C   0  0  0  0  0  0  0  0  0  0  0  0
    9.3368  -17.2625   26.3389 O   0  0  0  0  0  0  0  0  0  0  0  0
   10.8691  -15.9425   27.2932 O   0  0  0  0  0  0  0  0  0  0  0  0
  2  7  1  0
  2  1  1  1
  3  2  1  0
  4  3  1  0
  5  9  1  0
  5  4  1  0
  6  5  2  0
  7  8  2  0
 10 11  1  0
 11 12  1  0
 13 12  1  0
 14 13  1  6
 15 14  1  0
 15  7  1  0
 16 17  2  0
 16 14  1  0
 19 18  1  0
 19 20  1  0
 20 22  1  0
 20 21  1  1
 22 24  1  0
 22 23  1  6
 23 16  1  0
 24 26  1  0
 25 24  2  0
M  END
$$$$
