EMI.pdb
     RDKit          3D

 26 25  0  0  1  0  0  0  0  0999 V2000
    8.6357  -16.0431   19.2176 N   0  0  0  0  0  0  0  0  0  0  0  0
    8.8260  -16.8419   20.4135 C   0  0  1  0  0  0  0  0  0  0  0  0
    9.8241  -17.9006   20.1093 C   0  0  0  0  0  0  0  0  0  0  0  0
   11.2183  -17.4305   19.8615 C   0  0  0  0  0  0  0  0  0  0  0  0
   12.1764  -18.4199   20.4067 C   0  0  0  0  0  0  0  0  0  0  0  0
   12.2480  -18.6146   21.6405 O   0  0  0  0  0  0  0  0  0  0  0  0
    9.0752  -16.0334   21.6042 C   0  0  0  0  0  0  0  0  0  0  0  0
    9.8229  -15.0247   21.5744 O   0  0  0  0  0  0  0  0  0  0  0  0
   13.0060  -19.1439   19.5704 O   0  0  0  0  0  0  0  0  0  0  0  0
    6.5714  -11.8743   26.2446 C   0  0  0  0  0  0  0  0  0  0  0  0
    5.6271  -13.1046   25.2860 S   0  0  0  0  0  0  0  0  0  0  0  0
    6.7258  -13.9227   24.1053 C   0  0  0  0  0  0  0  0  0  0  0  0
    7.3808  -15.1537   24.7375 C   0  0  0  0  0  0  0  0  0  0  0  0
    8.6778  -15.4681   24.0268 C   0  0  2  0  0  0  0  0  0  0  0  0
    8.4901  -16.3255   22.8921 N   0  0  0  0  0  0  0  0  0  0  0  0
    9.5523  -16.1488   25.0071 C   0  0  0  0  0  0  0  0  0  0  0  0
   10.2774  -17.1336   24.7211 O   0  0  0  0  0  0  0  0  0  0  0  0
   10.2527  -12.9746   29.3991 C   0  0  0  0  0  0  0  0  0  0  0  0
   10.6527  -13.9065   28.3201 C   0  0  0  0  0  0  0  0  0  0  0  0
   10.4137  -15.3470   28.5058 C   0  0  2  0  0  0  0  0  0  0  0  0
   11.3237  -15.8143   29.6599 C   0  0  0  0  0  0  0  0  0  0  0  0
   10.4710  -16.2791   27.3636 C   0  0  2  0  0  0  0  0  0  0  0  0
    9.5828  -15.6750   26.3403 N   0  0  0  0  0  0  0  0  0  0  0  0
   10.0443  -17.6486   27.5107 C   0  0  0  0  0  0  0  0  0  0  0  0
   10.8356  -18.5876   27.7456 O   0  0  0  0  0  0  0  0  0  0  0  0
    8.6941  -18.0431   27.4012 O   0  0  0  0  0  0  0  0  0  0  0  0
  2  7  1  0
  2  1  1  6
  3  2  1  0
  4  3  1  0
  5  9  1  0
  5  4  1  0
  6  5  2  0
  7  8  2  0
 10 11  1  0
 11 12  1  0
 13 12  1  0
 14 13  1  1
 15 14  1  0
 15  7  1  0
 16 17  2  0
 16 14  1  0
 19 18  1  0
 19 20  1  0
 20 22  1  0
 20 21  1  1
 22 24  1  0
 22 23  1  6
 23 16  1  0
 24 26  1  0
 25 24  2  0
M  END
$$$$
