EMI.pdb
     RDKit          3D

 26 25  0  0  1  0  0  0  0  0999 V2000
   10.7155  -16.4455   19.4502 N   0  0  0  0  0  0  0  0  0  0  0  0
   10.1845  -17.1792   20.5834 C   0  0  1  0  0  0  0  0  0  0  0  0
   10.9048  -18.4765   20.6737 C   0  0  0  0  0  0  0  0  0  0  0  0
   12.2339  -18.5327   19.9982 C   0  0  0  0  0  0  0  0  0  0  0  0
   13.0602  -19.5916   20.6229 C   0  0  0  0  0  0  0  0  0  0  0  0
   12.6188  -20.2447   21.5944 O   0  0  0  0  0  0  0  0  0  0  0  0
   10.1277  -16.3786   21.8037 C   0  0  0  0  0  0  0  0  0  0  0  0
   11.0837  -15.6459   22.1595 O   0  0  0  0  0  0  0  0  0  0  0  0
   14.3272  -19.8787   20.1497 O   0  0  0  0  0  0  0  0  0  0  0  0
    5.8688  -11.8637   26.4183 C   0  0  0  0  0  0  0  0  0  0  0  0
    5.7824  -13.4970   25.6126 S   0  0  0  0  0  0  0  0  0  0  0  0
    7.4564  -14.1115   25.3124 C   0  0  0  0  0  0  0  0  0  0  0  0
    7.4745  -15.0776   24.1247 C   0  0  0  0  0  0  0  0  0  0  0  0
    8.8978  -15.4788   23.8098 C   0  0  2  0  0  0  0  0  0  0  0  0
    8.9839  -16.3659   22.6857 N   0  0  0  0  0  0  0  0  0  0  0  0
    9.4273  -16.1655   25.0087 C   0  0  0  0  0  0  0  0  0  0  0  0
    9.4704  -17.4150   25.1282 O   0  0  0  0  0  0  0  0  0  0  0  0
   10.2704  -12.6500   29.2385 C   0  0  0  0  0  0  0  0  0  0  0  0
   10.6413  -13.6024   28.1669 C   0  0  0  0  0  0  0  0  0  0  0  0
   10.3474  -15.0318   28.3590 C   0  0  2  0  0  0  0  0  0  0  0  0
   11.0616  -15.4735   29.6526 C   0  0  0  0  0  0  0  0  0  0  0  0
   10.5585  -16.0032   27.2688 C   0  0  2  0  0  0  0  0  0  0  0  0
    9.9138  -15.3849   26.0842 N   0  0  0  0  0  0  0  0  0  0  0  0
   10.0294  -17.3411   27.3639 C   0  0  0  0  0  0  0  0  0  0  0  0
   10.7459  -18.3444   27.5714 O   0  0  0  0  0  0  0  0  0  0  0  0
    8.6547  -17.6293   27.2304 O   0  0  0  0  0  0  0  0  0  0  0  0
  2  7  1  0
  2  1  1  6
  3  2  1  0
  4  3  1  0
  5  9  1  0
  5  4  1  0
  6  5  2  0
  7  8  2  0
 10 11  1  0
 11 12  1  0
 13 12  1  0
 14 13  1  1
 15 14  1  0
 15  7  1  0
 16 17  2  0
 16 14  1  0
 19 18  1  0
 19 20  1  0
 20 22  1  0
 20 21  1  1
 22 24  1  0
 22 23  1  6
 23 16  1  0
 24 26  1  0
 25 24  2  0
M  END
$$$$
