EMI.pdb
     RDKit          3D

 26 25  0  0  1  0  0  0  0  0999 V2000
    9.8609  -16.0619   19.4426 N   0  0  0  0  0  0  0  0  0  0  0  0
    9.6871  -16.8713   20.6339 C   0  0  1  0  0  0  0  0  0  0  0  0
   10.5193  -18.0945   20.4880 C   0  0  0  0  0  0  0  0  0  0  0  0
   10.0275  -19.1043   19.5058 C   0  0  0  0  0  0  0  0  0  0  0  0
   10.5558  -20.4405   19.8661 C   0  0  0  0  0  0  0  0  0  0  0  0
   11.7893  -20.6256   19.9625 O   0  0  0  0  0  0  0  0  0  0  0  0
    9.8573  -16.1103   21.8689 C   0  0  0  0  0  0  0  0  0  0  0  0
   10.9670  -15.6227   22.1980 O   0  0  0  0  0  0  0  0  0  0  0  0
    9.7037  -21.5036   20.1017 O   0  0  0  0  0  0  0  0  0  0  0  0
    5.0905  -13.1331   25.1259 C   0  0  0  0  0  0  0  0  0  0  0  0
    6.4786  -12.6996   26.2258 S   0  0  0  0  0  0  0  0  0  0  0  0
    7.9476  -13.6368   25.7421 C   0  0  0  0  0  0  0  0  0  0  0  0
    7.6823  -14.4401   24.4659 C   0  0  0  0  0  0  0  0  0  0  0  0
    8.9630  -15.0882   23.9906 C   0  0  2  0  0  0  0  0  0  0  0  0
    8.7786  -15.8616   22.7966 N   0  0  0  0  0  0  0  0  0  0  0  0
    9.4237  -15.9801   25.0775 C   0  0  0  0  0  0  0  0  0  0  0  0
    9.3865  -17.2335   25.0069 O   0  0  0  0  0  0  0  0  0  0  0  0
   10.4742  -13.9404   30.4151 C   0  0  0  0  0  0  0  0  0  0  0  0
   10.0606  -14.5142   29.1141 C   0  0  0  0  0  0  0  0  0  0  0  0
   11.0583  -15.2427   28.3139 C   0  0  2  0  0  0  0  0  0  0  0  0
   12.0322  -14.1951   27.7374 C   0  0  0  0  0  0  0  0  0  0  0  0
   10.6425  -16.2151   27.2851 C   0  0  2  0  0  0  0  0  0  0  0  0
    9.9355  -15.4034   26.2642 N   0  0  0  0  0  0  0  0  0  0  0  0
    9.7581  -17.3042   27.6181 C   0  0  0  0  0  0  0  0  0  0  0  0
    8.5317  -17.2846   27.3764 O   0  0  0  0  0  0  0  0  0  0  0  0
   10.2055  -18.4857   28.2463 O   0  0  0  0  0  0  0  0  0  0  0  0
  2  7  1  0
  2  1  1  6
  3  2  1  0
  4  3  1  0
  5  9  1  0
  5  4  1  0
  6  5  2  0
  7  8  2  0
 10 11  1  0
 11 12  1  0
 13 12  1  0
 14 13  1  1
 15 14  1  0
 15  7  1  0
 16 17  2  0
 16 14  1  0
 19 18  1  0
 19 20  1  0
 20 22  1  0
 20 21  1  6
 22 24  1  0
 22 23  1  6
 23 16  1  0
 24 26  1  0
 25 24  2  0
M  END
$$$$
