EMI.pdb
     RDKit          3D

 26 25  0  0  1  0  0  0  0  0999 V2000
    7.9778  -17.4243   20.4659 N   0  0  0  0  0  0  0  0  0  0  0  0
    9.1779  -16.6119   20.5325 C   0  0  1  0  0  0  0  0  0  0  0  0
    9.2494  -15.7893   19.2964 C   0  0  0  0  0  0  0  0  0  0  0  0
    8.5860  -16.3654   18.0905 C   0  0  0  0  0  0  0  0  0  0  0  0
    9.5896  -17.0839   17.2716 C   0  0  0  0  0  0  0  0  0  0  0  0
   10.5094  -16.4530   16.7049 O   0  0  0  0  0  0  0  0  0  0  0  0
    9.3122  -15.8980   21.7996 C   0  0  0  0  0  0  0  0  0  0  0  0
   10.2001  -15.0278   21.9779 O   0  0  0  0  0  0  0  0  0  0  0  0
    9.5320  -18.4567   17.1168 O   0  0  0  0  0  0  0  0  0  0  0  0
    6.5792  -11.8806   25.9912 C   0  0  0  0  0  0  0  0  0  0  0  0
    5.4806  -13.1464   25.2735 S   0  0  0  0  0  0  0  0  0  0  0  0
    6.4171  -14.1723   24.1155 C   0  0  0  0  0  0  0  0  0  0  0  0
    7.2611  -15.2055   24.8669 C   0  0  0  0  0  0  0  0  0  0  0  0
    8.5828  -15.4023   24.1595 C   0  0  2  0  0  0  0  0  0  0  0  0
    8.4471  -16.1327   22.9323 N   0  0  0  0  0  0  0  0  0  0  0  0
    9.4555  -16.1632   25.0806 C   0  0  0  0  0  0  0  0  0  0  0  0
   10.0642  -17.2109   24.7501 O   0  0  0  0  0  0  0  0  0  0  0  0
   10.4002  -13.1810   29.5783 C   0  0  0  0  0  0  0  0  0  0  0  0
   10.6247  -14.0366   28.3906 C   0  0  0  0  0  0  0  0  0  0  0  0
   10.5493  -15.4981   28.5481 C   0  0  2  0  0  0  0  0  0  0  0  0
   11.6669  -15.9084   29.5285 C   0  0  0  0  0  0  0  0  0  0  0  0
   10.5121  -16.3872   27.3713 C   0  0  2  0  0  0  0  0  0  0  0  0
    9.6216  -15.6967   26.4063 N   0  0  0  0  0  0  0  0  0  0  0  0
   10.0155  -17.7362   27.4850 C   0  0  0  0  0  0  0  0  0  0  0  0
    8.7970  -18.0159   27.4880 O   0  0  0  0  0  0  0  0  0  0  0  0
   10.8666  -18.8553   27.6024 O   0  0  0  0  0  0  0  0  0  0  0  0
  2  7  1  0
  2  1  1  1
  3  2  1  0
  4  3  1  0
  5  9  1  0
  5  4  1  0
  6  5  2  0
  7  8  2  0
 10 11  1  0
 11 12  1  0
 13 12  1  0
 14 13  1  1
 15 14  1  0
 15  7  1  0
 16 17  2  0
 16 14  1  0
 19 18  1  0
 19 20  1  0
 20 22  1  0
 20 21  1  1
 22 24  1  0
 22 23  1  6
 23 16  1  0
 24 26  1  0
 25 24  2  0
M  END
$$$$
