EMI.pdb
     RDKit          3D

 26 25  0  0  1  0  0  0  0  0999 V2000
    8.9865  -18.4656   20.5855 N   0  0  0  0  0  0  0  0  0  0  0  0
   10.1659  -17.6261   20.6794 C   0  0  1  0  0  0  0  0  0  0  0  0
   10.4546  -17.0804   19.3271 C   0  0  0  0  0  0  0  0  0  0  0  0
   11.7275  -16.3137   19.1916 C   0  0  0  0  0  0  0  0  0  0  0  0
   12.8517  -17.2566   18.9885 C   0  0  0  0  0  0  0  0  0  0  0  0
   12.7250  -18.2312   18.2143 O   0  0  0  0  0  0  0  0  0  0  0  0
   10.0901  -16.6583   21.7707 C   0  0  0  0  0  0  0  0  0  0  0  0
   11.0241  -15.8523   22.0064 O   0  0  0  0  0  0  0  0  0  0  0  0
   14.0559  -17.0814   19.6449 O   0  0  0  0  0  0  0  0  0  0  0  0
    5.9323  -12.9367   26.2463 C   0  0  0  0  0  0  0  0  0  0  0  0
    7.2903  -12.7077   25.0513 S   0  0  0  0  0  0  0  0  0  0  0  0
    7.1438  -13.9325   23.7290 C   0  0  0  0  0  0  0  0  0  0  0  0
    7.5359  -15.3241   24.2330 C   0  0  0  0  0  0  0  0  0  0  0  0
    8.9375  -15.6604   23.7763 C   0  0  2  0  0  0  0  0  0  0  0  0
    8.9514  -16.5525   22.6530 N   0  0  0  0  0  0  0  0  0  0  0  0
    9.6184  -16.3103   24.9178 C   0  0  0  0  0  0  0  0  0  0  0  0
   10.1690  -17.4368   24.8451 O   0  0  0  0  0  0  0  0  0  0  0  0
   10.7692  -12.5677   28.7202 C   0  0  0  0  0  0  0  0  0  0  0  0
   10.9805  -13.7309   27.8285 C   0  0  0  0  0  0  0  0  0  0  0  0
   10.5050  -15.0531   28.2669 C   0  0  2  0  0  0  0  0  0  0  0  0
   11.3178  -15.4365   29.5202 C   0  0  0  0  0  0  0  0  0  0  0  0
   10.4141  -16.1797   27.3186 C   0  0  2  0  0  0  0  0  0  0  0  0
    9.6586  -15.6379   26.1624 N   0  0  0  0  0  0  0  0  0  0  0  0
    9.7532  -17.4049   27.6943 C   0  0  0  0  0  0  0  0  0  0  0  0
    8.5099  -17.5361   27.6955 O   0  0  0  0  0  0  0  0  0  0  0  0
   10.4575  -18.5607   28.0928 O   0  0  0  0  0  0  0  0  0  0  0  0
  2  7  1  0
  2  1  1  6
  3  2  1  0
  4  3  1  0
  5  9  1  0
  5  4  1  0
  6  5  2  0
  7  8  2  0
 10 11  1  0
 11 12  1  0
 13 12  1  0
 14 13  1  1
 15 14  1  0
 15  7  1  0
 16 17  2  0
 16 14  1  0
 19 18  1  0
 19 20  1  0
 20 22  1  0
 20 21  1  1
 22 24  1  0
 22 23  1  6
 23 16  1  0
 24 26  1  0
 25 24  2  0
M  END
$$$$
