EMI.pdb
     RDKit          3D

 26 25  0  0  1  0  0  0  0  0999 V2000
    7.6575  -19.1856   22.7243 N   0  0  0  0  0  0  0  0  0  0  0  0
    8.7494  -18.6108   21.9615 C   0  0  1  0  0  0  0  0  0  0  0  0
    8.5039  -18.8868   20.5216 C   0  0  0  0  0  0  0  0  0  0  0  0
    9.5712  -18.4379   19.5805 C   0  0  0  0  0  0  0  0  0  0  0  0
    9.1325  -18.6790   18.1864 C   0  0  0  0  0  0  0  0  0  0  0  0
    8.0159  -19.1944   17.9570 O   0  0  0  0  0  0  0  0  0  0  0  0
    9.0262  -17.2226   22.3215 C   0  0  0  0  0  0  0  0  0  0  0  0
    9.9937  -16.5915   21.8283 O   0  0  0  0  0  0  0  0  0  0  0  0
    9.9414  -18.3422   17.1167 O   0  0  0  0  0  0  0  0  0  0  0  0
    5.3986  -13.0982   26.4733 C   0  0  0  0  0  0  0  0  0  0  0  0
    6.2751  -12.0766   25.2436 S   0  0  0  0  0  0  0  0  0  0  0  0
    7.7086  -12.9835   24.6168 C   0  0  0  0  0  0  0  0  0  0  0  0
    7.3073  -14.3935   24.1749 C   0  0  0  0  0  0  0  0  0  0  0  0
    8.5029  -15.1078   23.5865 C   0  0  2  0  0  0  0  0  0  0  0  0
    8.2211  -16.4759   23.2598 N   0  0  0  0  0  0  0  0  0  0  0  0
    9.5747  -15.0655   24.6056 C   0  0  0  0  0  0  0  0  0  0  0  0
   10.4757  -14.1907   24.6266 O   0  0  0  0  0  0  0  0  0  0  0  0
    9.8281  -13.0724   28.8098 C   0  0  0  0  0  0  0  0  0  0  0  0
   10.3035  -13.8562   27.6468 C   0  0  0  0  0  0  0  0  0  0  0  0
   10.2879  -15.3256   27.7310 C   0  0  2  0  0  0  0  0  0  0  0  0
   11.0391  -15.7157   29.0202 C   0  0  0  0  0  0  0  0  0  0  0  0
   10.7132  -16.1558   26.5878 C   0  0  2  0  0  0  0  0  0  0  0  0
    9.5971  -16.0567   25.6154 N   0  0  0  0  0  0  0  0  0  0  0  0
   10.9755  -17.5633   26.7592 C   0  0  0  0  0  0  0  0  0  0  0  0
   12.1199  -18.0234   26.9631 O   0  0  0  0  0  0  0  0  0  0  0  0
    9.9589  -18.5404   26.7107 O   0  0  0  0  0  0  0  0  0  0  0  0
  2  7  1  0
  2  1  1  1
  3  2  1  0
  4  3  1  0
  5  9  1  0
  5  4  1  0
  6  5  2  0
  7  8  2  0
 10 11  1  0
 11 12  1  0
 13 12  1  0
 14 13  1  1
 15 14  1  0
 15  7  1  0
 16 17  2  0
 16 14  1  0
 19 18  1  0
 19 20  1  0
 20 22  1  0
 20 21  1  1
 22 24  1  0
 22 23  1  6
 23 16  1  0
 24 26  1  0
 25 24  2  0
M  END
$$$$
