SDC.pdb
     RDKit          3D

 21 20  0  0  1  0  0  0  0  0999 V2000
    9.5091  -12.1179   18.4481 O   0  0  0  0  0  0  0  0  0  0  0  0
    8.8619  -12.5824   19.6169 C   0  0  0  0  0  0  0  0  0  0  0  0
    8.5113  -14.0515   19.4231 C   0  0  2  0  0  0  0  0  0  0  0  0
    7.4221  -14.2021   18.4827 N   0  0  0  0  0  0  0  0  0  0  0  0
    8.1632  -14.6440   20.7380 C   0  0  0  0  0  0  0  0  0  0  0  0
    6.9732  -14.6585   21.1382 O   0  0  0  0  0  0  0  0  0  0  0  0
    9.1565  -15.1991   21.5583 N   0  0  0  0  0  0  0  0  0  0  0  0
    8.7564  -15.9379   22.8118 C   0  0  1  0  0  0  0  0  0  0  0  0
    9.8789  -16.9143   23.0211 C   0  0  0  0  0  0  0  0  0  0  0  0
    9.8628  -17.7623   24.1803 C   0  0  0  0  0  0  0  0  0  0  0  0
   10.8026  -18.4306   24.5977 O   0  0  0  0  0  0  0  0  0  0  0  0
    8.6248  -14.9132   23.8725 C   0  0  0  0  0  0  0  0  0  0  0  0
    9.5869  -14.0781   23.9978 O   0  0  0  0  0  0  0  0  0  0  0  0
    8.6643  -17.8452   24.9174 O   0  0  0  0  0  0  0  0  0  0  0  0
    7.5809  -14.7147   24.7744 N   0  0  0  0  0  0  0  0  0  0  0  0
    7.5460  -13.6951   25.7906 C   0  0  1  0  0  0  0  0  0  0  0  0
    6.2166  -13.0786   26.0245 C   0  0  0  0  0  0  0  0  0  0  0  0
    6.2103  -11.8178   27.3005 S   0  0  0  0  0  0  0  0  0  0  0  0
    8.0996  -14.1849   27.0730 C   0  0  0  0  0  0  0  0  0  0  0  0
    8.3535  -15.5434   27.1950 O   0  0  0  0  0  0  0  0  0  0  0  0
    8.3445  -13.4319   28.0392 O   0  0  0  0  0  0  0  0  0  0  0  0
  2  1  1  0
  3  5  1  0
  3  2  1  0
  3  4  1  6
  5  6  2  0
  7  5  1  0
  7  8  1  0
  8  9  1  1
  9 10  1  0
 10 14  1  0
 11 10  2  0
 12 15  1  0
 12  8  1  0
 13 12  2  0
 16 17  1  1
 16 19  1  0
 16 15  1  0
 18 17  1  0
 19 20  1  0
 21 19  2  0
M  END
$$$$
