SDC.pdb
     RDKit          3D

 21 20  0  0  1  0  0  0  0  0999 V2000
    8.0299  -17.7373   18.3959 O   0  0  0  0  0  0  0  0  0  0  0  0
    8.1065  -17.9793   19.7873 C   0  0  0  0  0  0  0  0  0  0  0  0
    8.6722  -16.7375   20.4630 C   0  0  2  0  0  0  0  0  0  0  0  0
    9.7974  -16.2132   19.7196 N   0  0  0  0  0  0  0  0  0  0  0  0
    9.0662  -17.0788   21.8520 C   0  0  0  0  0  0  0  0  0  0  0  0
    8.2148  -17.5000   22.6731 O   0  0  0  0  0  0  0  0  0  0  0  0
   10.3965  -16.9376   22.2738 N   0  0  0  0  0  0  0  0  0  0  0  0
   10.7711  -17.3140   23.6863 C   0  0  1  0  0  0  0  0  0  0  0  0
   12.1957  -17.7752   23.5641 C   0  0  0  0  0  0  0  0  0  0  0  0
   12.4822  -18.9800   22.8366 C   0  0  0  0  0  0  0  0  0  0  0  0
   11.9205  -20.0605   22.9816 O   0  0  0  0  0  0  0  0  0  0  0  0
   10.5863  -16.0931   24.5032 C   0  0  0  0  0  0  0  0  0  0  0  0
   10.9776  -14.9863   23.9927 O   0  0  0  0  0  0  0  0  0  0  0  0
   13.4997  -18.9333   21.8623 O   0  0  0  0  0  0  0  0  0  0  0  0
   10.0313  -15.9657   25.7755 N   0  0  0  0  0  0  0  0  0  0  0  0
    9.9669  -14.7428   26.5330 C   0  0  1  0  0  0  0  0  0  0  0  0
    8.7274  -13.9479   26.3492 C   0  0  0  0  0  0  0  0  0  0  0  0
    8.6529  -12.4669   27.3585 S   0  0  0  0  0  0  0  0  0  0  0  0
   10.1941  -14.9832   27.9758 C   0  0  0  0  0  0  0  0  0  0  0  0
   10.4225  -13.8834   28.7901 O   0  0  0  0  0  0  0  0  0  0  0  0
   10.1884  -16.1245   28.4837 O   0  0  0  0  0  0  0  0  0  0  0  0
  2  1  1  0
  3  5  1  0
  3  2  1  0
  3  4  1  6
  5  6  2  0
  7  5  1  0
  7  8  1  0
  8  9  1  6
  9 10  1  0
 10 14  1  0
 11 10  2  0
 12 15  1  0
 12  8  1  0
 13 12  2  0
 16 17  1  1
 16 19  1  0
 16 15  1  0
 18 17  1  0
 19 20  1  0
 21 19  2  0
M  END
$$$$
