SDC.pdb
     RDKit          3D

 21 20  0  0  1  0  0  0  0  0999 V2000
   10.4502  -12.5119   20.4255 O   0  0  0  0  0  0  0  0  0  0  0  0
   10.4785  -13.7486   19.7395 C   0  0  0  0  0  0  0  0  0  0  0  0
    9.0488  -14.1412   19.3926 C   0  0  2  0  0  0  0  0  0  0  0  0
    8.4008  -13.1016   18.6226 N   0  0  0  0  0  0  0  0  0  0  0  0
    8.3042  -14.4159   20.6461 C   0  0  0  0  0  0  0  0  0  0  0  0
    7.3164  -13.7120   20.9706 O   0  0  0  0  0  0  0  0  0  0  0  0
    8.6893  -15.4668   21.4916 N   0  0  0  0  0  0  0  0  0  0  0  0
    7.8147  -15.8335   22.6654 C   0  0  1  0  0  0  0  0  0  0  0  0
    8.0312  -17.3121   22.8203 C   0  0  0  0  0  0  0  0  0  0  0  0
    7.4358  -18.2105   21.8709 C   0  0  0  0  0  0  0  0  0  0  0  0
    6.3786  -18.0330   21.2752 O   0  0  0  0  0  0  0  0  0  0  0  0
    8.2895  -15.0180   23.8064 C   0  0  0  0  0  0  0  0  0  0  0  0
    9.5556  -14.8826   23.9383 O   0  0  0  0  0  0  0  0  0  0  0  0
    8.1166  -19.4114   21.5861 O   0  0  0  0  0  0  0  0  0  0  0  0
    7.5441  -14.3555   24.7802 N   0  0  0  0  0  0  0  0  0  0  0  0
    8.0928  -13.5341   25.8278 C   0  0  1  0  0  0  0  0  0  0  0  0
    7.2160  -12.4313   26.2936 C   0  0  0  0  0  0  0  0  0  0  0  0
    5.5519  -12.9501   26.7172 S   0  0  0  0  0  0  0  0  0  0  0  0
    8.5275  -14.3468   26.9861 C   0  0  0  0  0  0  0  0  0  0  0  0
    9.2953  -13.7287   27.9624 O   0  0  0  0  0  0  0  0  0  0  0  0
    8.2337  -15.5538   27.1179 O   0  0  0  0  0  0  0  0  0  0  0  0
  2  1  1  0
  3  5  1  0
  3  2  1  0
  3  4  1  1
  5  6  2  0
  7  5  1  0
  7  8  1  0
  8  9  1  1
  9 10  1  0
 10 14  1  0
 11 10  2  0
 12 15  1  0
 12  8  1  0
 13 12  2  0
 16 17  1  1
 16 19  1  0
 16 15  1  0
 18 17  1  0
 19 20  1  0
 21 19  2  0
M  END
$$$$
