SDC.pdb
     RDKit          3D

 21 20  0  0  1  0  0  0  0  0999 V2000
    7.2836  -13.7535   18.7667 O   0  0  0  0  0  0  0  0  0  0  0  0
    8.0713  -12.8249   18.0472 C   0  0  0  0  0  0  0  0  0  0  0  0
    8.9227  -13.5898   17.0428 C   0  0  2  0  0  0  0  0  0  0  0  0
    8.0906  -14.3314   16.1203 N   0  0  0  0  0  0  0  0  0  0  0  0
    9.8403  -14.4960   17.7764 C   0  0  0  0  0  0  0  0  0  0  0  0
    9.5941  -15.7243   17.8605 O   0  0  0  0  0  0  0  0  0  0  0  0
   10.9996  -13.9978   18.3891 N   0  0  0  0  0  0  0  0  0  0  0  0
   11.8685  -14.9277   19.2001 C   0  0  1  0  0  0  0  0  0  0  0  0
   13.2628  -14.4422   18.9221 C   0  0  0  0  0  0  0  0  0  0  0  0
   14.3748  -15.1221   19.5257 C   0  0  0  0  0  0  0  0  0  0  0  0
   15.4368  -14.6094   19.8622 O   0  0  0  0  0  0  0  0  0  0  0  0
   11.4331  -14.7793   20.6074 C   0  0  0  0  0  0  0  0  0  0  0  0
   11.9218  -13.7974   21.2676 O   0  0  0  0  0  0  0  0  0  0  0  0
   14.2501  -16.5064   19.7599 O   0  0  0  0  0  0  0  0  0  0  0  0
   10.5444  -15.5668   21.3374 N   0  0  0  0  0  0  0  0  0  0  0  0
   10.2650  -15.4166   22.7419 C   0  0  1  0  0  0  0  0  0  0  0  0
    8.8300  -15.4840   23.1135 C   0  0  0  0  0  0  0  0  0  0  0  0
    7.7700  -14.4225   22.1300 S   0  0  0  0  0  0  0  0  0  0  0  0
   11.0356  -16.3826   23.5569 C   0  0  0  0  0  0  0  0  0  0  0  0
   10.8920  -16.3301   24.9358 O   0  0  0  0  0  0  0  0  0  0  0  0
   11.8017  -17.2339   23.0578 O   0  0  0  0  0  0  0  0  0  0  0  0
  2  1  1  0
  3  5  1  0
  3  2  1  0
  3  4  1  6
  5  6  2  0
  7  5  1  0
  7  8  1  0
  8  9  1  1
  9 10  1  0
 10 14  1  0
 11 10  2  0
 12 15  1  0
 12  8  1  0
 13 12  2  0
 16 17  1  6
 16 19  1  0
 16 15  1  0
 18 17  1  0
 19 20  1  0
 21 19  2  0
M  END
$$$$
