SDC.pdb
     RDKit          3D

 21 20  0  0  1  0  0  0  0  0999 V2000
   -0.1131  -25.6578   28.2549 O   0  0  0  0  0  0  0  0  0  0  0  0
   -0.9221  -25.4406   29.3946 C   0  0  0  0  0  0  0  0  0  0  0  0
   -2.2093  -26.2377   29.2320 C   0  0  2  0  0  0  0  0  0  0  0  0
   -2.5567  -26.3768   27.8344 N   0  0  0  0  0  0  0  0  0  0  0  0
   -3.2953  -25.5627   29.9844 C   0  0  0  0  0  0  0  0  0  0  0  0
   -3.2212  -25.4264   31.2304 O   0  0  0  0  0  0  0  0  0  0  0  0
   -4.4246  -25.0641   29.3183 N   0  0  0  0  0  0  0  0  0  0  0  0
   -5.4583  -24.2835   30.0925 C   0  0  1  0  0  0  0  0  0  0  0  0
   -5.4009  -22.9136   29.4784 C   0  0  0  0  0  0  0  0  0  0  0  0
   -6.2117  -21.8640   30.0299 C   0  0  0  0  0  0  0  0  0  0  0  0
   -6.2565  -20.7041   29.6342 O   0  0  0  0  0  0  0  0  0  0  0  0
   -6.7436  -24.9926   29.8987 C   0  0  0  0  0  0  0  0  0  0  0  0
   -6.9876  -25.4456   28.7265 O   0  0  0  0  0  0  0  0  0  0  0  0
   -7.0379  -22.1795   31.1275 O   0  0  0  0  0  0  0  0  0  0  0  0
   -7.7505  -25.2508   30.8272 N   0  0  0  0  0  0  0  0  0  0  0  0
   -8.9872  -25.9307   30.5412 C   0  0  1  0  0  0  0  0  0  0  0  0
   -9.0643  -27.3337   31.0183 C   0  0  0  0  0  0  0  0  0  0  0  0
  -10.6752  -28.0920   30.8004 S   0  0  0  0  0  0  0  0  0  0  0  0
  -10.1549  -25.1706   31.0411 C   0  0  0  0  0  0  0  0  0  0  0  0
  -11.2221  -24.9752   30.1764 O   0  0  0  0  0  0  0  0  0  0  0  0
  -10.2169  -24.7034   32.1980 O   0  0  0  0  0  0  0  0  0  0  0  0
  2  1  1  0
  3  5  1  0
  3  2  1  0
  3  4  1  6
  5  6  2  0
  7  5  1  0
  7  8  1  0
  8  9  1  6
  9 10  1  0
 10 14  1  0
 11 10  2  0
 12 15  1  0
 12  8  1  0
 13 12  2  0
 16 17  1  1
 16 19  1  0
 16 15  1  0
 18 17  1  0
 19 20  1  0
 21 19  2  0
M  END
$$$$
