SDC.pdb
     RDKit          3D

 21 20  0  0  1  0  0  0  0  0999 V2000
    7.3152  -13.5451   19.2403 O   0  0  0  0  0  0  0  0  0  0  0  0
    7.7681  -14.0667   20.4746 C   0  0  0  0  0  0  0  0  0  0  0  0
    8.0347  -15.5559   20.3007 C   0  0  2  0  0  0  0  0  0  0  0  0
    6.8159  -16.2630   19.9719 N   0  0  0  0  0  0  0  0  0  0  0  0
    8.6379  -16.0887   21.5470 C   0  0  0  0  0  0  0  0  0  0  0  0
    7.9360  -16.7090   22.3830 O   0  0  0  0  0  0  0  0  0  0  0  0
   10.0033  -15.9100   21.8144 N   0  0  0  0  0  0  0  0  0  0  0  0
   10.5980  -16.5041   23.0677 C   0  0  1  0  0  0  0  0  0  0  0  0
   12.0421  -16.7132   22.7098 C   0  0  0  0  0  0  0  0  0  0  0  0
   12.9450  -17.2175   23.7066 C   0  0  0  0  0  0  0  0  0  0  0  0
   12.6266  -17.7509   24.7640 O   0  0  0  0  0  0  0  0  0  0  0  0
   10.3668  -15.5152   24.1450 C   0  0  0  0  0  0  0  0  0  0  0  0
   10.5986  -14.2871   23.8676 O   0  0  0  0  0  0  0  0  0  0  0  0
   14.3279  -17.0962   23.4624 O   0  0  0  0  0  0  0  0  0  0  0  0
    9.9186  -15.7272   25.4477 N   0  0  0  0  0  0  0  0  0  0  0  0
    9.7913  -14.7078   26.4567 C   0  0  1  0  0  0  0  0  0  0  0  0
    8.4843  -14.0058   26.4871 C   0  0  0  0  0  0  0  0  0  0  0  0
    8.3283  -12.8093   27.8144 S   0  0  0  0  0  0  0  0  0  0  0  0
   10.1050  -15.2332   27.8045 C   0  0  0  0  0  0  0  0  0  0  0  0
   10.3669  -16.5900   27.9287 O   0  0  0  0  0  0  0  0  0  0  0  0
   10.1427  -14.5114   28.8234 O   0  0  0  0  0  0  0  0  0  0  0  0
  2  1  1  0
  3  5  1  0
  3  2  1  0
  3  4  1  1
  5  6  2  0
  7  5  1  0
  7  8  1  0
  8  9  1  6
  9 10  1  0
 10 14  1  0
 11 10  2  0
 12 15  1  0
 12  8  1  0
 13 12  2  0
 16 17  1  1
 16 19  1  0
 16 15  1  0
 18 17  1  0
 19 20  1  0
 21 19  2  0
M  END
$$$$
