SDC.pdb
     RDKit          3D

 21 20  0  0  1  0  0  0  0  0999 V2000
    8.7059  -13.4128   19.1092 O   0  0  0  0  0  0  0  0  0  0  0  0
    8.5163  -13.8120   20.4528 C   0  0  0  0  0  0  0  0  0  0  0  0
    8.3571  -15.3260   20.4888 C   0  0  2  0  0  0  0  0  0  0  0  0
    7.1306  -15.7312   19.8370 N   0  0  0  0  0  0  0  0  0  0  0  0
    8.3842  -15.7824   21.9002 C   0  0  0  0  0  0  0  0  0  0  0  0
    7.3200  -15.8938   22.5570 O   0  0  0  0  0  0  0  0  0  0  0  0
    9.5987  -16.0983   22.5270 N   0  0  0  0  0  0  0  0  0  0  0  0
    9.5886  -16.6323   23.9384 C   0  0  1  0  0  0  0  0  0  0  0  0
   10.5992  -17.7433   23.9041 C   0  0  0  0  0  0  0  0  0  0  0  0
   11.0151  -18.3505   25.1376 C   0  0  0  0  0  0  0  0  0  0  0  0
   12.1733  -18.5164   25.5049 O   0  0  0  0  0  0  0  0  0  0  0  0
    9.9520  -15.4951   24.8142 C   0  0  0  0  0  0  0  0  0  0  0  0
   11.0324  -14.8677   24.5353 O   0  0  0  0  0  0  0  0  0  0  0  0
   10.0119  -18.8026   26.0185 O   0  0  0  0  0  0  0  0  0  0  0  0
    9.2732  -14.9905   25.9220 N   0  0  0  0  0  0  0  0  0  0  0  0
    9.7663  -13.9587   26.7970 C   0  0  1  0  0  0  0  0  0  0  0  0
    8.9118  -12.7495   26.8957 C   0  0  0  0  0  0  0  0  0  0  0  0
    7.1748  -13.1028   27.1709 S   0  0  0  0  0  0  0  0  0  0  0  0
   10.0461  -14.4820   28.1531 C   0  0  0  0  0  0  0  0  0  0  0  0
   10.7085  -13.6524   29.0463 O   0  0  0  0  0  0  0  0  0  0  0  0
    9.7130  -15.6284   28.5211 O   0  0  0  0  0  0  0  0  0  0  0  0
  2  1  1  0
  3  5  1  0
  3  2  1  0
  3  4  1  1
  5  6  2  0
  7  5  1  0
  7  8  1  0
  8  9  1  6
  9 10  1  0
 10 14  1  0
 11 10  2  0
 12 15  1  0
 12  8  1  0
 13 12  2  0
 16 17  1  1
 16 19  1  0
 16 15  1  0
 18 17  1  0
 19 20  1  0
 21 19  2  0
M  END
$$$$
