SDC.pdb
     RDKit          3D

 21 20  0  0  1  0  0  0  0  0999 V2000
   13.7170  -16.1201   20.1751 O   0  0  0  0  0  0  0  0  0  0  0  0
   13.4363  -16.9560   21.2810 C   0  0  0  0  0  0  0  0  0  0  0  0
   12.0936  -17.6344   21.0449 C   0  0  2  0  0  0  0  0  0  0  0  0
   11.3821  -17.0042   19.9539 N   0  0  0  0  0  0  0  0  0  0  0  0
   11.2987  -17.5841   22.2966 C   0  0  0  0  0  0  0  0  0  0  0  0
   10.1398  -17.1010   22.2993 O   0  0  0  0  0  0  0  0  0  0  0  0
   11.8265  -18.0754   23.4998 N   0  0  0  0  0  0  0  0  0  0  0  0
   10.9607  -18.0976   24.7356 C   0  0  1  0  0  0  0  0  0  0  0  0
   11.4444  -19.3065   25.4852 C   0  0  0  0  0  0  0  0  0  0  0  0
   10.9548  -19.5494   26.8135 C   0  0  0  0  0  0  0  0  0  0  0  0
    9.7808  -19.5155   27.1666 O   0  0  0  0  0  0  0  0  0  0  0  0
   11.1932  -16.8094   25.4275 C   0  0  0  0  0  0  0  0  0  0  0  0
   12.3927  -16.3624   25.4379 O   0  0  0  0  0  0  0  0  0  0  0  0
   11.8974  -19.8566   27.8155 O   0  0  0  0  0  0  0  0  0  0  0  0
   10.2765  -15.9881   26.0814 N   0  0  0  0  0  0  0  0  0  0  0  0
   10.6035  -14.7710   26.7780 C   0  0  1  0  0  0  0  0  0  0  0  0
    9.6564  -13.6477   26.5703 C   0  0  0  0  0  0  0  0  0  0  0  0
    8.0776  -13.8613   27.3946 S   0  0  0  0  0  0  0  0  0  0  0  0
   10.7865  -15.0056   28.2281 C   0  0  0  0  0  0  0  0  0  0  0  0
   11.3511  -13.9891   28.9849 O   0  0  0  0  0  0  0  0  0  0  0  0
   10.4564  -16.0707   28.7911 O   0  0  0  0  0  0  0  0  0  0  0  0
  2  1  1  0
  3  5  1  0
  3  2  1  0
  3  4  1  6
  5  6  2  0
  7  5  1  0
  7  8  1  0
  8  9  1  1
  9 10  1  0
 10 14  1  0
 11 10  2  0
 12 15  1  0
 12  8  1  0
 13 12  2  0
 16 17  1  1
 16 19  1  0
 16 15  1  0
 18 17  1  0
 19 20  1  0
 21 19  2  0
M  END
$$$$
