SDC.pdb
     RDKit          3D

 21 20  0  0  1  0  0  0  0  0999 V2000
    9.3408  -16.7037   19.7246 O   0  0  0  0  0  0  0  0  0  0  0  0
    9.1395  -17.9144   19.0215 C   0  0  0  0  0  0  0  0  0  0  0  0
   10.4581  -18.3252   18.3801 C   0  0  2  0  0  0  0  0  0  0  0  0
   10.3186  -19.5795   17.6723 N   0  0  0  0  0  0  0  0  0  0  0  0
   11.4992  -18.4224   19.4325 C   0  0  0  0  0  0  0  0  0  0  0  0
   11.5064  -19.3854   20.2381 O   0  0  0  0  0  0  0  0  0  0  0  0
   12.4948  -17.4408   19.5471 N   0  0  0  0  0  0  0  0  0  0  0  0
   13.4481  -17.4837   20.7161 C   0  0  1  0  0  0  0  0  0  0  0  0
   14.6646  -16.7633   20.2078 C   0  0  0  0  0  0  0  0  0  0  0  0
   15.8110  -16.6343   21.0635 C   0  0  0  0  0  0  0  0  0  0  0  0
   15.8654  -16.9476   22.2479 O   0  0  0  0  0  0  0  0  0  0  0  0
   12.7571  -16.8102   21.8391 C   0  0  0  0  0  0  0  0  0  0  0  0
   12.4914  -15.5660   21.6970 O   0  0  0  0  0  0  0  0  0  0  0  0
   16.9904  -16.1004   20.5061 O   0  0  0  0  0  0  0  0  0  0  0  0
   12.3380  -17.3438   23.0566 N   0  0  0  0  0  0  0  0  0  0  0  0
   11.7226  -16.5953   24.1217 C   0  0  1  0  0  0  0  0  0  0  0  0
   10.2399  -16.5467   24.0878 C   0  0  0  0  0  0  0  0  0  0  0  0
    9.4525  -18.1505   24.2474 S   0  0  0  0  0  0  0  0  0  0  0  0
   12.1745  -17.0664   25.4503 C   0  0  0  0  0  0  0  0  0  0  0  0
   11.9116  -16.2616   26.5494 O   0  0  0  0  0  0  0  0  0  0  0  0
   12.7764  -18.1479   25.6192 O   0  0  0  0  0  0  0  0  0  0  0  0
  2  1  1  0
  3  5  1  0
  3  2  1  0
  3  4  1  1
  5  6  2  0
  7  5  1  0
  7  8  1  0
  8  9  1  6
  9 10  1  0
 10 14  1  0
 11 10  2  0
 12 15  1  0
 12  8  1  0
 13 12  2  0
 16 17  1  1
 16 19  1  0
 16 15  1  0
 18 17  1  0
 19 20  1  0
 21 19  2  0
M  END
$$$$
