SDC.pdb
     RDKit          3D

 21 20  0  0  1  0  0  0  0  0999 V2000
   12.3833  -15.0531   21.1347 O   0  0  0  0  0  0  0  0  0  0  0  0
   12.5133  -16.2959   21.7974 C   0  0  0  0  0  0  0  0  0  0  0  0
   11.2449  -17.1045   21.5605 C   0  0  2  0  0  0  0  0  0  0  0  0
   10.4439  -16.5118   20.5113 N   0  0  0  0  0  0  0  0  0  0  0  0
   10.4802  -17.1887   22.8290 C   0  0  0  0  0  0  0  0  0  0  0  0
    9.2892  -16.7951   22.8852 O   0  0  0  0  0  0  0  0  0  0  0  0
   11.0729  -17.7097   23.9887 N   0  0  0  0  0  0  0  0  0  0  0  0
   10.2642  -17.7984   25.2597 C   0  0  1  0  0  0  0  0  0  0  0  0
   10.7208  -19.0880   25.8808 C   0  0  0  0  0  0  0  0  0  0  0  0
   10.1610  -19.4965   27.1389 C   0  0  0  0  0  0  0  0  0  0  0  0
    9.2780  -18.9131   27.7585 O   0  0  0  0  0  0  0  0  0  0  0  0
   10.5916  -16.5863   26.0445 C   0  0  0  0  0  0  0  0  0  0  0  0
   11.8223  -16.2367   26.0895 O   0  0  0  0  0  0  0  0  0  0  0  0
   10.6614  -20.6745   27.7293 O   0  0  0  0  0  0  0  0  0  0  0  0
    9.7371  -15.7455   26.7556 N   0  0  0  0  0  0  0  0  0  0  0  0
   10.1529  -14.6099   27.5372 C   0  0  1  0  0  0  0  0  0  0  0  0
    9.1206  -13.5617   27.7311 C   0  0  0  0  0  0  0  0  0  0  0  0
    8.2233  -13.1348   26.2377 S   0  0  0  0  0  0  0  0  0  0  0  0
   10.6959  -15.0222   28.8511 C   0  0  0  0  0  0  0  0  0  0  0  0
   10.6696  -16.3719   29.1709 O   0  0  0  0  0  0  0  0  0  0  0  0
   11.1717  -14.2119   29.6743 O   0  0  0  0  0  0  0  0  0  0  0  0
  2  1  1  0
  3  5  1  0
  3  2  1  0
  3  4  1  6
  5  6  2  0
  7  5  1  0
  7  8  1  0
  8  9  1  1
  9 10  1  0
 10 14  1  0
 11 10  2  0
 12 15  1  0
 12  8  1  0
 13 12  2  0
 16 17  1  1
 16 19  1  0
 16 15  1  0
 18 17  1  0
 19 20  1  0
 21 19  2  0
M  END
$$$$
