SDC.pdb
     RDKit          3D

 21 20  0  0  1  0  0  0  0  0999 V2000
    7.9466  -19.0877   16.3807 O   0  0  0  0  0  0  0  0  0  0  0  0
    7.2369  -18.2358   17.2589 C   0  0  0  0  0  0  0  0  0  0  0  0
    8.2018  -17.1907   17.8025 C   0  0  2  0  0  0  0  0  0  0  0  0
    9.1246  -16.7572   16.7758 N   0  0  0  0  0  0  0  0  0  0  0  0
    8.9287  -17.7600   18.9638 C   0  0  0  0  0  0  0  0  0  0  0  0
    8.3002  -18.2398   19.9391 O   0  0  0  0  0  0  0  0  0  0  0  0
   10.3311  -17.7733   18.9938 N   0  0  0  0  0  0  0  0  0  0  0  0
   11.0422  -18.3386   20.1987 C   0  0  1  0  0  0  0  0  0  0  0  0
   12.3479  -18.8299   19.6413 C   0  0  0  0  0  0  0  0  0  0  0  0
   13.1818  -19.6743   20.4505 C   0  0  0  0  0  0  0  0  0  0  0  0
   13.6228  -19.4004   21.5615 O   0  0  0  0  0  0  0  0  0  0  0  0
   11.1653  -17.2253   21.1671 C   0  0  0  0  0  0  0  0  0  0  0  0
   12.0104  -16.3043   20.8911 O   0  0  0  0  0  0  0  0  0  0  0  0
   13.5348  -20.9377   19.9348 O   0  0  0  0  0  0  0  0  0  0  0  0
   10.4772  -17.0235   22.3624 N   0  0  0  0  0  0  0  0  0  0  0  0
   10.7887  -16.0107   23.3373 C   0  0  1  0  0  0  0  0  0  0  0  0
    9.6917  -15.0559   23.6321 C   0  0  0  0  0  0  0  0  0  0  0  0
    8.1350  -15.8398   24.0563 S   0  0  0  0  0  0  0  0  0  0  0  0
   11.2843  -16.6039   24.5998 C   0  0  0  0  0  0  0  0  0  0  0  0
   12.0077  -15.7909   25.4601 O   0  0  0  0  0  0  0  0  0  0  0  0
   11.0791  -17.7945   24.9176 O   0  0  0  0  0  0  0  0  0  0  0  0
  2  1  1  0
  3  5  1  0
  3  2  1  0
  3  4  1  6
  5  6  2  0
  7  5  1  0
  7  8  1  0
  8  9  1  6
  9 10  1  0
 10 14  1  0
 11 10  2  0
 12 15  1  0
 12  8  1  0
 13 12  2  0
 16 17  1  1
 16 19  1  0
 16 15  1  0
 18 17  1  0
 19 20  1  0
 21 19  2  0
M  END
$$$$
