SDC.pdb
     RDKit          3D

 21 20  0  0  1  0  0  0  0  0999 V2000
    7.3726  -15.1216   18.2209 O   0  0  0  0  0  0  0  0  0  0  0  0
    6.6571  -14.0789   18.8546 C   0  0  0  0  0  0  0  0  0  0  0  0
    7.5843  -13.3910   19.8474 C   0  0  2  0  0  0  0  0  0  0  0  0
    8.8357  -13.0280   19.2182 N   0  0  0  0  0  0  0  0  0  0  0  0
    7.8129  -14.2937   21.0023 C   0  0  0  0  0  0  0  0  0  0  0  0
    6.8478  -14.7128   21.6875 O   0  0  0  0  0  0  0  0  0  0  0  0
    9.1109  -14.6962   21.3502 N   0  0  0  0  0  0  0  0  0  0  0  0
    9.3039  -15.7032   22.4574 C   0  0  1  0  0  0  0  0  0  0  0  0
   10.5477  -16.4417   22.0517 C   0  0  0  0  0  0  0  0  0  0  0  0
   11.1739  -17.3288   22.9919 C   0  0  0  0  0  0  0  0  0  0  0  0
   12.0530  -17.0275   23.7921 O   0  0  0  0  0  0  0  0  0  0  0  0
    9.4309  -14.9230   23.7094 C   0  0  0  0  0  0  0  0  0  0  0  0
    9.6676  -13.6704   23.5933 O   0  0  0  0  0  0  0  0  0  0  0  0
   10.7504  -18.6731   23.0096 O   0  0  0  0  0  0  0  0  0  0  0  0
    9.3237  -15.3598   25.0287 N   0  0  0  0  0  0  0  0  0  0  0  0
    9.2333  -14.5014   26.1812 C   0  0  1  0  0  0  0  0  0  0  0  0
    8.0483  -13.6089   26.2155 C   0  0  0  0  0  0  0  0  0  0  0  0
    7.9226  -12.6181   27.7055 S   0  0  0  0  0  0  0  0  0  0  0  0
    9.3116  -15.2726   27.4423 C   0  0  0  0  0  0  0  0  0  0  0  0
    9.1365  -16.6472   27.3758 O   0  0  0  0  0  0  0  0  0  0  0  0
    9.5268  -14.7405   28.5519 O   0  0  0  0  0  0  0  0  0  0  0  0
  2  1  1  0
  3  5  1  0
  3  2  1  0
  3  4  1  6
  5  6  2  0
  7  5  1  0
  7  8  1  0
  8  9  1  6
  9 10  1  0
 10 14  1  0
 11 10  2  0
 12 15  1  0
 12  8  1  0
 13 12  2  0
 16 17  1  6
 16 19  1  0
 16 15  1  0
 18 17  1  0
 19 20  1  0
 21 19  2  0
M  END
$$$$
