SDC.pdb
     RDKit          3D

 21 20  0  0  1  0  0  0  0  0999 V2000
    7.6713  -12.7481   18.5736 O   0  0  0  0  0  0  0  0  0  0  0  0
    7.6953  -13.3202   19.8670 C   0  0  0  0  0  0  0  0  0  0  0  0
    7.8695  -14.8264   19.7255 C   0  0  2  0  0  0  0  0  0  0  0  0
    6.7212  -15.4195   19.0751 N   0  0  0  0  0  0  0  0  0  0  0  0
    8.0829  -15.4177   21.0693 C   0  0  0  0  0  0  0  0  0  0  0  0
    7.1150  -15.8654   21.7321 O   0  0  0  0  0  0  0  0  0  0  0  0
    9.3692  -15.4879   21.6243 N   0  0  0  0  0  0  0  0  0  0  0  0
    9.5633  -16.1502   22.9663 C   0  0  1  0  0  0  0  0  0  0  0  0
   11.0014  -16.5844   22.9424 C   0  0  0  0  0  0  0  0  0  0  0  0
   11.5226  -17.3431   24.0450 C   0  0  0  0  0  0  0  0  0  0  0  0
   12.6750  -17.7461   24.1621 O   0  0  0  0  0  0  0  0  0  0  0  0
    9.2462  -15.1234   23.9848 C   0  0  0  0  0  0  0  0  0  0  0  0
    9.8516  -13.9997   23.8867 O   0  0  0  0  0  0  0  0  0  0  0  0
   10.6417  -17.6621   25.0981 O   0  0  0  0  0  0  0  0  0  0  0  0
    8.3608  -15.1985   25.0586 N   0  0  0  0  0  0  0  0  0  0  0  0
    8.1792  -14.1761   26.0562 C   0  0  1  0  0  0  0  0  0  0  0  0
    6.8054  -13.6239   26.1550 C   0  0  0  0  0  0  0  0  0  0  0  0
    6.7478  -11.8725   26.5385 S   0  0  0  0  0  0  0  0  0  0  0  0
    8.6295  -14.6311   27.3909 C   0  0  0  0  0  0  0  0  0  0  0  0
    8.7548  -13.6807   28.3937 O   0  0  0  0  0  0  0  0  0  0  0  0
    8.8981  -15.8239   27.6472 O   0  0  0  0  0  0  0  0  0  0  0  0
  2  1  1  0
  3  5  1  0
  3  2  1  0
  3  4  1  1
  5  6  2  0
  7  5  1  0
  7  8  1  0
  8  9  1  1
  9 10  1  0
 10 14  1  0
 11 10  2  0
 12 15  1  0
 12  8  1  0
 13 12  2  0
 16 17  1  1
 16 19  1  0
 16 15  1  0
 18 17  1  0
 19 20  1  0
 21 19  2  0
M  END
$$$$
