SDC.pdb
     RDKit          3D

 21 20  0  0  1  0  0  0  0  0999 V2000
    7.6806  -13.4628   20.1026 O   0  0  0  0  0  0  0  0  0  0  0  0
    8.3227  -12.4693   19.3271 C   0  0  0  0  0  0  0  0  0  0  0  0
    8.8249  -13.1108   18.0406 C   0  0  2  0  0  0  0  0  0  0  0  0
    7.7301  -13.6862   17.2897 N   0  0  0  0  0  0  0  0  0  0  0  0
    9.8379  -14.1413   18.3765 C   0  0  0  0  0  0  0  0  0  0  0  0
    9.5809  -15.3618   18.2322 O   0  0  0  0  0  0  0  0  0  0  0  0
   11.1013  -13.7717   18.8611 N   0  0  0  0  0  0  0  0  0  0  0  0
   12.1239  -14.8409   19.1587 C   0  0  1  0  0  0  0  0  0  0  0  0
   13.4092  -14.2537   18.6485 C   0  0  0  0  0  0  0  0  0  0  0  0
   14.5984  -15.0591   18.6545 C   0  0  0  0  0  0  0  0  0  0  0  0
   15.7178  -14.6944   18.3110 O   0  0  0  0  0  0  0  0  0  0  0  0
   12.0832  -15.0570   20.6229 C   0  0  0  0  0  0  0  0  0  0  0  0
   12.3456  -14.0493   21.3676 O   0  0  0  0  0  0  0  0  0  0  0  0
   14.4860  -16.3940   19.0929 O   0  0  0  0  0  0  0  0  0  0  0  0
   11.7897  -16.2224   21.3289 N   0  0  0  0  0  0  0  0  0  0  0  0
   11.7206  -16.3274   22.7633 C   0  0  1  0  0  0  0  0  0  0  0  0
   10.3515  -16.3055   23.3352 C   0  0  0  0  0  0  0  0  0  0  0  0
   10.3054  -16.4190   25.1249 S   0  0  0  0  0  0  0  0  0  0  0  0
   12.4471  -17.5185   23.2579 C   0  0  0  0  0  0  0  0  0  0  0  0
   12.7729  -17.5681   24.6056 O   0  0  0  0  0  0  0  0  0  0  0  0
   12.7750  -18.4703   22.5182 O   0  0  0  0  0  0  0  0  0  0  0  0
  2  1  1  0
  3  5  1  0
  3  2  1  0
  3  4  1  1
  5  6  2  0
  7  5  1  0
  7  8  1  0
  8  9  1  1
  9 10  1  0
 10 14  1  0
 11 10  2  0
 12 15  1  0
 12  8  1  0
 13 12  2  0
 16 17  1  6
 16 19  1  0
 16 15  1  0
 18 17  1  0
 19 20  1  0
 21 19  2  0
M  END
$$$$
