SDC.pdb
     RDKit          3D

 21 20  0  0  1  0  0  0  0  0999 V2000
    9.4352  -17.3622   20.3594 O   0  0  0  0  0  0  0  0  0  0  0  0
   10.1869  -16.5559   19.4732 C   0  0  0  0  0  0  0  0  0  0  0  0
   11.3696  -17.3696   18.9654 C   0  0  2  0  0  0  0  0  0  0  0  0
   10.9218  -18.5941   18.3379 N   0  0  0  0  0  0  0  0  0  0  0  0
   12.2823  -17.6570   20.0992 C   0  0  0  0  0  0  0  0  0  0  0  0
   12.2352  -18.7617   20.6941 O   0  0  0  0  0  0  0  0  0  0  0  0
   13.2148  -16.7006   20.5274 N   0  0  0  0  0  0  0  0  0  0  0  0
   14.0826  -16.9951   21.7264 C   0  0  1  0  0  0  0  0  0  0  0  0
   15.3432  -16.2264   21.4487 C   0  0  0  0  0  0  0  0  0  0  0  0
   16.3685  -16.1756   22.4533 C   0  0  0  0  0  0  0  0  0  0  0  0
   17.2701  -15.3471   22.5220 O   0  0  0  0  0  0  0  0  0  0  0  0
   13.3250  -16.5297   22.9103 C   0  0  0  0  0  0  0  0  0  0  0  0
   12.9761  -15.2982   22.9311 O   0  0  0  0  0  0  0  0  0  0  0  0
   16.3510  -17.1613   23.4606 O   0  0  0  0  0  0  0  0  0  0  0  0
   12.9209  -17.2524   24.0316 N   0  0  0  0  0  0  0  0  0  0  0  0
   12.1994  -16.7083   25.1526 C   0  0  1  0  0  0  0  0  0  0  0  0
   10.8236  -16.2394   24.8538 C   0  0  0  0  0  0  0  0  0  0  0  0
    9.6460  -17.5628   24.5713 S   0  0  0  0  0  0  0  0  0  0  0  0
   12.1661  -17.6547   26.2903 C   0  0  0  0  0  0  0  0  0  0  0  0
   11.7619  -17.1715   27.5264 O   0  0  0  0  0  0  0  0  0  0  0  0
   12.4841  -18.8580   26.1828 O   0  0  0  0  0  0  0  0  0  0  0  0
  2  1  1  0
  3  5  1  0
  3  2  1  0
  3  4  1  1
  5  6  2  0
  7  5  1  0
  7  8  1  0
  8  9  1  6
  9 10  1  0
 10 14  1  0
 11 10  2  0
 12 15  1  0
 12  8  1  0
 13 12  2  0
 16 17  1  6
 16 19  1  0
 16 15  1  0
 18 17  1  0
 19 20  1  0
 21 19  2  0
M  END
$$$$
