GKY.pdb
     RDKit          3D

 26 26  0  0  1  0  0  0  0  0999 V2000
   29.2744  -22.2528  -17.6350 N   0  0  0  0  0  0  0  0  0  0  0  0
   28.4184  -22.9361  -16.6945 C   0  0  0  0  0  0  0  0  0  0  0  0
   27.5326  -21.9823  -15.9681 C   0  0  0  0  0  0  0  0  0  0  0  0
   27.9408  -20.8205  -15.7989 O   0  0  0  0  0  0  0  0  0  0  0  0
   26.2605  -22.3843  -15.4826 N   0  0  0  0  0  0  0  0  0  0  0  0
   25.4131  -21.5181  -14.6985 C   0  0  1  0  0  0  0  0  0  0  0  0
   23.9542  -21.9526  -14.8589 C   0  0  0  0  0  0  0  0  0  0  0  0
   23.0197  -21.0882  -14.0477 C   0  0  0  0  0  0  0  0  0  0  0  0
   21.6203  -21.5597  -14.3195 C   0  0  0  0  0  0  0  0  0  0  0  0
   20.5735  -20.7416  -13.5971 C   0  0  0  0  0  0  0  0  0  0  0  0
   19.2260  -21.1487  -13.8678 N   0  0  0  0  0  0  0  0  0  0  0  0
   25.7102  -21.6508  -13.2521 C   0  0  0  0  0  0  0  0  0  0  0  0
   25.8273  -22.8013  -12.7737 O   0  0  0  0  0  0  0  0  0  0  0  0
   28.6042  -20.2280   -5.0786 O   0  0  0  0  0  0  0  0  0  0  0  0
   28.2921  -20.1137   -6.4488 C   0  0  0  0  0  0  0  0  0  0  0  0
   28.9857  -20.8225   -7.3998 C   0  0  0  0  0  0  0  0  0  0  0  0
   28.6710  -20.7021   -8.7334 C   0  0  0  0  0  0  0  0  0  0  0  0
   27.6438  -19.8639   -9.1815 C   0  0  0  0  0  0  0  0  0  0  0  0
   27.3375  -19.7398  -10.6236 C   0  0  0  0  0  0  0  0  0  0  0  0
   26.2772  -20.7030  -11.0279 C   0  0  2  0  0  0  0  0  0  0  0  0
   25.8648  -20.5424  -12.4009 N   0  0  0  0  0  0  0  0  0  0  0  0
   25.0970  -20.7664  -10.1558 C   0  0  0  0  0  0  0  0  0  0  0  0
   25.1249  -21.5891   -9.0416 O   0  0  0  0  0  0  0  0  0  0  0  0
   26.9595  -19.1599   -8.2019 C   0  0  0  0  0  0  0  0  0  0  0  0
   27.2755  -19.2815   -6.8686 C   0  0  0  0  0  0  0  0  0  0  0  0
   24.0875  -20.1001  -10.4022 O   0  0  0  0  0  0  0  0  0  0  0  0
  1  2  1  0
  3  4  2  0
  3  2  1  0
  5  3  1  0
  6  7  1  1
  6  5  1  0
  8  7  1  0
  8  9  1  0
  9 10  1  0
 11 10  1  0
 12  6  1  0
 12 21  1  0
 13 12  2  0
 15 14  1  0
 15 16  2  0
 17 16  1  0
 18 17  2  0
 19 18  1  0
 20 21  1  0
 20 19  1  1
 22 20  1  0
 23 22  1  0
 24 25  2  0
 24 18  1  0
 25 15  1  0
 26 22  2  0
M  END
$$$$
