GKY.pdb
     RDKit          3D

 26 26  0  0  1  0  0  0  0  0999 V2000
   23.8562  -11.1555  -19.7446 N   0  0  0  0  0  0  0  0  0  0  0  0
   24.1827   -9.7917  -19.4019 C   0  0  0  0  0  0  0  0  0  0  0  0
   23.0710   -9.1333  -18.6583 C   0  0  0  0  0  0  0  0  0  0  0  0
   23.2061   -7.9379  -18.3456 O   0  0  0  0  0  0  0  0  0  0  0  0
   21.8920   -9.8461  -18.3157 N   0  0  0  0  0  0  0  0  0  0  0  0
   20.7477   -9.2160  -17.7019 C   0  0  1  0  0  0  0  0  0  0  0  0
   19.5189  -10.1117  -17.8775 C   0  0  0  0  0  0  0  0  0  0  0  0
   18.2600   -9.4384  -17.3870 C   0  0  0  0  0  0  0  0  0  0  0  0
   17.1126  -10.3619  -17.6784 C   0  0  0  0  0  0  0  0  0  0  0  0
   15.7682   -9.7491  -17.3563 C   0  0  0  0  0  0  0  0  0  0  0  0
   14.6510  -10.5088  -17.8354 N   0  0  0  0  0  0  0  0  0  0  0  0
   20.9359   -9.0829  -16.2374 C   0  0  0  0  0  0  0  0  0  0  0  0
   21.1223  -10.1227  -15.5663 O   0  0  0  0  0  0  0  0  0  0  0  0
   22.7155   -1.6884  -15.6086 O   0  0  0  0  0  0  0  0  0  0  0  0
   22.6627   -3.0307  -15.1804 C   0  0  0  0  0  0  0  0  0  0  0  0
   22.1229   -3.3703  -13.9633 C   0  0  0  0  0  0  0  0  0  0  0  0
   22.0773   -4.6838  -13.5575 C   0  0  0  0  0  0  0  0  0  0  0  0
   22.5712   -5.7244  -14.3523 C   0  0  0  0  0  0  0  0  0  0  0  0
   22.5254   -7.1271  -13.8840 C   0  0  0  0  0  0  0  0  0  0  0  0
   21.1983   -7.7396  -14.1652 C   0  0  2  0  0  0  0  0  0  0  0  0
   20.9135   -7.8425  -15.5757 N   0  0  0  0  0  0  0  0  0  0  0  0
   20.0521   -7.1442  -13.4661 C   0  0  0  0  0  0  0  0  0  0  0  0
   20.0166   -7.1739  -12.0815 O   0  0  0  0  0  0  0  0  0  0  0  0
   23.1105   -5.3550  -15.5754 C   0  0  0  0  0  0  0  0  0  0  0  0
   23.1554   -4.0409  -15.9798 C   0  0  0  0  0  0  0  0  0  0  0  0
   19.1262   -6.6213  -14.0931 O   0  0  0  0  0  0  0  0  0  0  0  0
  1  2  1  0
  3  4  2  0
  3  2  1  0
  5  3  1  0
  6  7  1  1
  6  5  1  0
  8  7  1  0
  8  9  1  0
  9 10  1  0
 11 10  1  0
 12  6  1  0
 12 21  1  0
 13 12  2  0
 15 14  1  0
 15 16  2  0
 17 16  1  0
 18 17  2  0
 19 18  1  0
 20 21  1  0
 20 19  1  6
 22 20  1  0
 23 22  1  0
 24 25  2  0
 24 18  1  0
 25 15  1  0
 26 22  2  0
M  END
$$$$
