GKY.pdb
     RDKit          3D

 26 26  0  0  1  0  0  0  0  0999 V2000
   32.4288  -24.2618  -21.5377 N   0  0  0  0  0  0  0  0  0  0  0  0
   31.8839  -24.9638  -20.3999 C   0  0  0  0  0  0  0  0  0  0  0  0
   31.8157  -26.4327  -20.6447 C   0  0  0  0  0  0  0  0  0  0  0  0
   32.4165  -26.8877  -21.6332 O   0  0  0  0  0  0  0  0  0  0  0  0
   31.0879  -27.2896  -19.7778 N   0  0  0  0  0  0  0  0  0  0  0  0
   31.3716  -28.6991  -19.6521 C   0  0  1  0  0  0  0  0  0  0  0  0
   32.7273  -28.8859  -18.9665 C   0  0  0  0  0  0  0  0  0  0  0  0
   33.8638  -28.8753  -19.9599 C   0  0  0  0  0  0  0  0  0  0  0  0
   35.1444  -28.9540  -19.1800 C   0  0  0  0  0  0  0  0  0  0  0  0
   36.3723  -28.9351  -20.0624 C   0  0  0  0  0  0  0  0  0  0  0  0
   37.6102  -28.9378  -19.3395 N   0  0  0  0  0  0  0  0  0  0  0  0
   30.3844  -29.3633  -18.7675 C   0  0  0  0  0  0  0  0  0  0  0  0
   29.9256  -28.7162  -17.7994 O   0  0  0  0  0  0  0  0  0  0  0  0
   25.7409  -33.8231  -13.2016 O   0  0  0  0  0  0  0  0  0  0  0  0
   26.5635  -33.0658  -14.0607 C   0  0  0  0  0  0  0  0  0  0  0  0
   26.0394  -32.0866  -14.8698 C   0  0  0  0  0  0  0  0  0  0  0  0
   26.8529  -31.3548  -15.7033 C   0  0  0  0  0  0  0  0  0  0  0  0
   28.2346  -31.5680  -15.7677 C   0  0  0  0  0  0  0  0  0  0  0  0
   29.0843  -30.7782  -16.6860 C   0  0  0  0  0  0  0  0  0  0  0  0
   29.0022  -31.3067  -18.0750 C   0  0  2  0  0  0  0  0  0  0  0  0
   29.9454  -30.6834  -18.9710 N   0  0  0  0  0  0  0  0  0  0  0  0
   27.6655  -31.3155  -18.6837 C   0  0  0  0  0  0  0  0  0  0  0  0
   26.7676  -32.3078  -18.3256 O   0  0  0  0  0  0  0  0  0  0  0  0
   28.7381  -32.5615  -14.9414 C   0  0  0  0  0  0  0  0  0  0  0  0
   27.9231  -33.2925  -14.1084 C   0  0  0  0  0  0  0  0  0  0  0  0
   27.3349  -30.4553  -19.5050 O   0  0  0  0  0  0  0  0  0  0  0  0
  1  2  1  0
  3  4  2  0
  3  2  1  0
  5  3  1  0
  6  7  1  1
  6  5  1  0
  8  7  1  0
  8  9  1  0
  9 10  1  0
 11 10  1  0
 12  6  1  0
 12 21  1  0
 13 12  2  0
 15 14  1  0
 15 16  2  0
 17 16  1  0
 18 17  2  0
 19 18  1  0
 20 21  1  0
 20 19  1  1
 22 20  1  0
 23 22  1  0
 24 25  2  0
 24 18  1  0
 25 15  1  0
 26 22  2  0
M  END
$$$$
