GKY.pdb
     RDKit          3D

 26 26  0  0  1  0  0  0  0  0999 V2000
   23.5441  -13.0309  -17.6483 N   0  0  0  0  0  0  0  0  0  0  0  0
   24.5005  -13.8842  -16.9839 C   0  0  0  0  0  0  0  0  0  0  0  0
   24.0835  -15.3146  -17.0319 C   0  0  0  0  0  0  0  0  0  0  0  0
   22.9270  -15.5726  -17.4075 O   0  0  0  0  0  0  0  0  0  0  0  0
   24.9767  -16.3538  -16.6608 N   0  0  0  0  0  0  0  0  0  0  0  0
   24.5950  -17.7457  -16.6475 C   0  0  1  0  0  0  0  0  0  0  0  0
   25.8525  -18.6176  -16.6132 C   0  0  0  0  0  0  0  0  0  0  0  0
   25.5181  -20.0870  -16.7001 C   0  0  0  0  0  0  0  0  0  0  0  0
   26.8141  -20.8452  -16.6905 C   0  0  0  0  0  0  0  0  0  0  0  0
   26.6435  -22.3055  -17.0440 C   0  0  0  0  0  0  0  0  0  0  0  0
   27.8769  -23.0292  -17.1445 N   0  0  0  0  0  0  0  0  0  0  0  0
   23.8463  -18.0799  -15.4123 C   0  0  0  0  0  0  0  0  0  0  0  0
   24.3299  -17.7295  -14.3124 O   0  0  0  0  0  0  0  0  0  0  0  0
   17.5220  -19.3168   -9.5562 O   0  0  0  0  0  0  0  0  0  0  0  0
   18.3740  -18.9550  -10.6197 C   0  0  0  0  0  0  0  0  0  0  0  0
   18.0051  -19.1541  -11.9283 C   0  0  0  0  0  0  0  0  0  0  0  0
   18.8456  -18.7965  -12.9568 C   0  0  0  0  0  0  0  0  0  0  0  0
   20.0998  -18.2206  -12.7250 C   0  0  0  0  0  0  0  0  0  0  0  0
   20.9916  -17.8612  -13.8496 C   0  0  0  0  0  0  0  0  0  0  0  0
   21.8766  -19.0014  -14.2131 C   0  0  2  0  0  0  0  0  0  0  0  0
   22.6218  -18.7707  -15.4265 N   0  0  0  0  0  0  0  0  0  0  0  0
   21.2381  -20.3231  -14.2624 C   0  0  0  0  0  0  0  0  0  0  0  0
   20.6287  -20.7347  -15.4364 O   0  0  0  0  0  0  0  0  0  0  0  0
   20.4480  -18.0305  -11.3961 C   0  0  0  0  0  0  0  0  0  0  0  0
   19.6062  -18.3887  -10.3687 C   0  0  0  0  0  0  0  0  0  0  0  0
   21.2379  -21.0666  -13.2770 O   0  0  0  0  0  0  0  0  0  0  0  0
  1  2  1  0
  3  4  2  0
  3  2  1  0
  5  3  1  0
  6  7  1  1
  6  5  1  0
  8  7  1  0
  8  9  1  0
  9 10  1  0
 11 10  1  0
 12  6  1  0
 12 21  1  0
 13 12  2  0
 15 14  1  0
 15 16  2  0
 17 16  1  0
 18 17  2  0
 19 18  1  0
 20 21  1  0
 20 19  1  6
 22 20  1  0
 23 22  1  0
 24 25  2  0
 24 18  1  0
 25 15  1  0
 26 22  2  0
M  END
$$$$
