GKY.pdb
     RDKit          3D

 26 26  0  0  1  0  0  0  0  0999 V2000
   24.1373  -14.4462  -16.8051 N   0  0  0  0  0  0  0  0  0  0  0  0
   25.2952  -15.0048  -16.1483 C   0  0  0  0  0  0  0  0  0  0  0  0
   25.2561  -16.4950  -16.1442 C   0  0  0  0  0  0  0  0  0  0  0  0
   24.1569  -17.0491  -15.9715 O   0  0  0  0  0  0  0  0  0  0  0  0
   26.4359  -17.2620  -16.3316 N   0  0  0  0  0  0  0  0  0  0  0  0
   26.4593  -18.7009  -16.2205 C   0  0  1  0  0  0  0  0  0  0  0  0
   27.7171  -19.2433  -16.9035 C   0  0  0  0  0  0  0  0  0  0  0  0
   27.7484  -20.7526  -16.9029 C   0  0  0  0  0  0  0  0  0  0  0  0
   28.9641  -21.1781  -17.6746 C   0  0  0  0  0  0  0  0  0  0  0  0
   29.0333  -22.6740  -17.8846 C   0  0  0  0  0  0  0  0  0  0  0  0
   30.1275  -23.0974  -18.7083 N   0  0  0  0  0  0  0  0  0  0  0  0
   26.5637  -19.1230  -14.8031 C   0  0  0  0  0  0  0  0  0  0  0  0
   27.3250  -18.4788  -14.0469 O   0  0  0  0  0  0  0  0  0  0  0  0
   25.7336  -21.0104   -6.5128 O   0  0  0  0  0  0  0  0  0  0  0  0
   25.6620  -20.6188   -7.8654 C   0  0  0  0  0  0  0  0  0  0  0  0
   24.5757  -20.9382   -8.6437 C   0  0  0  0  0  0  0  0  0  0  0  0
   24.5182  -20.5500   -9.9621 C   0  0  0  0  0  0  0  0  0  0  0  0
   25.5482  -19.8211  -10.5674 C   0  0  0  0  0  0  0  0  0  0  0  0
   25.4687  -19.4311  -11.9924 C   0  0  0  0  0  0  0  0  0  0  0  0
   25.9102  -20.5452  -12.8751 C   0  0  2  0  0  0  0  0  0  0  0  0
   25.8462  -20.2117  -14.2772 N   0  0  0  0  0  0  0  0  0  0  0  0
   25.2696  -21.8461  -12.6412 C   0  0  0  0  0  0  0  0  0  0  0  0
   25.9412  -22.8056  -11.9013 O   0  0  0  0  0  0  0  0  0  0  0  0
   26.6328  -19.5118   -9.7604 C   0  0  0  0  0  0  0  0  0  0  0  0
   26.6887  -19.9008   -8.4421 C   0  0  0  0  0  0  0  0  0  0  0  0
   24.1476  -22.0930  -13.0929 O   0  0  0  0  0  0  0  0  0  0  0  0
  1  2  1  0
  3  4  2  0
  3  2  1  0
  5  3  1  0
  6  7  1  6
  6  5  1  0
  8  7  1  0
  8  9  1  0
  9 10  1  0
 11 10  1  0
 12  6  1  0
 12 21  1  0
 13 12  2  0
 15 14  1  0
 15 16  2  0
 17 16  1  0
 18 17  2  0
 19 18  1  0
 20 21  1  0
 20 19  1  1
 22 20  1  0
 23 22  1  0
 24 25  2  0
 24 18  1  0
 25 15  1  0
 26 22  2  0
M  END
$$$$
