GKY.pdb
     RDKit          3D

 26 26  0  0  1  0  0  0  0  0999 V2000
   20.8040  -15.1373  -18.0484 N   0  0  0  0  0  0  0  0  0  0  0  0
   21.1168  -14.2064  -16.9902 C   0  0  0  0  0  0  0  0  0  0  0  0
   20.4681  -12.8834  -17.2160 C   0  0  0  0  0  0  0  0  0  0  0  0
   20.7476  -12.2671  -18.2586 O   0  0  0  0  0  0  0  0  0  0  0  0
   19.5581  -12.3400  -16.2715 N   0  0  0  0  0  0  0  0  0  0  0  0
   18.9254  -11.0544  -16.4451 C   0  0  1  0  0  0  0  0  0  0  0  0
   17.7567  -10.9262  -15.4650 C   0  0  0  0  0  0  0  0  0  0  0  0
   17.1079   -9.5654  -15.5416 C   0  0  0  0  0  0  0  0  0  0  0  0
   15.6476   -9.7777  -15.8190 C   0  0  0  0  0  0  0  0  0  0  0  0
   14.8764   -8.4820  -15.9331 C   0  0  0  0  0  0  0  0  0  0  0  0
   13.4848   -8.6557  -16.2302 N   0  0  0  0  0  0  0  0  0  0  0  0
   19.8558   -9.9529  -16.0998 C   0  0  0  0  0  0  0  0  0  0  0  0
   20.3672   -9.9447  -14.9575 O   0  0  0  0  0  0  0  0  0  0  0  0
   24.9612   -2.7772  -16.2081 O   0  0  0  0  0  0  0  0  0  0  0  0
   24.1588   -3.8691  -16.5978 C   0  0  0  0  0  0  0  0  0  0  0  0
   24.6874   -5.1302  -16.7325 C   0  0  0  0  0  0  0  0  0  0  0  0
   23.8936   -6.1872  -17.1133 C   0  0  0  0  0  0  0  0  0  0  0  0
   22.5282   -6.0329  -17.3784 C   0  0  0  0  0  0  0  0  0  0  0  0
   21.7008   -7.1835  -17.8033 C   0  0  0  0  0  0  0  0  0  0  0  0
   21.0941   -7.8662  -16.6280 C   0  0  2  0  0  0  0  0  0  0  0  0
   20.1848   -8.9231  -16.9986 N   0  0  0  0  0  0  0  0  0  0  0  0
   20.4646   -6.9929  -15.6289 C   0  0  0  0  0  0  0  0  0  0  0  0
   21.1955   -6.6003  -14.5196 O   0  0  0  0  0  0  0  0  0  0  0  0
   22.0197   -4.7506  -17.2352 C   0  0  0  0  0  0  0  0  0  0  0  0
   22.8150   -3.6947  -16.8543 C   0  0  0  0  0  0  0  0  0  0  0  0
   19.2999   -6.6071  -15.7649 O   0  0  0  0  0  0  0  0  0  0  0  0
  1  2  1  0
  3  4  2  0
  3  2  1  0
  5  3  1  0
  6  7  1  1
  6  5  1  0
  8  7  1  0
  8  9  1  0
  9 10  1  0
 11 10  1  0
 12  6  1  0
 12 21  1  0
 13 12  2  0
 15 14  1  0
 15 16  2  0
 17 16  1  0
 18 17  2  0
 19 18  1  0
 20 21  1  0
 20 19  1  6
 22 20  1  0
 23 22  1  0
 24 25  2  0
 24 18  1  0
 25 15  1  0
 26 22  2  0
M  END
$$$$
