GKY.pdb
     RDKit          3D

 26 26  0  0  1  0  0  0  0  0999 V2000
   11.5056  -11.9533  -10.8056 N   0  0  0  0  0  0  0  0  0  0  0  0
   11.9610  -10.9124  -11.6964 C   0  0  0  0  0  0  0  0  0  0  0  0
   13.3463  -10.4743  -11.3630 C   0  0  0  0  0  0  0  0  0  0  0  0
   13.8508  -10.8898  -10.3056 O   0  0  0  0  0  0  0  0  0  0  0  0
   14.0711   -9.6090  -12.2240 N   0  0  0  0  0  0  0  0  0  0  0  0
   15.4008   -9.1370  -11.9199 C   0  0  1  0  0  0  0  0  0  0  0  0
   16.1954   -8.9832  -13.2191 C   0  0  0  0  0  0  0  0  0  0  0  0
   17.0119  -10.2153  -13.5257 C   0  0  0  0  0  0  0  0  0  0  0  0
   17.7881   -9.9402  -14.7812 C   0  0  0  0  0  0  0  0  0  0  0  0
   18.5634  -11.1435  -15.2686 C   0  0  0  0  0  0  0  0  0  0  0  0
   19.3022  -10.9119  -16.4750 N   0  0  0  0  0  0  0  0  0  0  0  0
   15.3594   -7.7831  -11.3171 C   0  0  0  0  0  0  0  0  0  0  0  0
   14.5209   -6.9640  -11.7556 O   0  0  0  0  0  0  0  0  0  0  0  0
   16.4519   -0.5717   -6.4777 O   0  0  0  0  0  0  0  0  0  0  0  0
   16.4105   -1.9104   -6.9182 C   0  0  0  0  0  0  0  0  0  0  0  0
   17.5497   -2.5636   -7.3227 C   0  0  0  0  0  0  0  0  0  0  0  0
   17.4956   -3.8699   -7.7502 C   0  0  0  0  0  0  0  0  0  0  0  0
   16.2953   -4.5881   -7.7938 C   0  0  0  0  0  0  0  0  0  0  0  0
   16.2627   -5.9870   -8.2745 C   0  0  0  0  0  0  0  0  0  0  0  0
   16.1959   -6.0384   -9.7605 C   0  0  2  0  0  0  0  0  0  0  0  0
   16.2194   -7.3845  -10.2787 N   0  0  0  0  0  0  0  0  0  0  0  0
   17.1723   -5.2092  -10.4790 C   0  0  0  0  0  0  0  0  0  0  0  0
   16.8725   -3.8807  -10.7326 O   0  0  0  0  0  0  0  0  0  0  0  0
   15.1607   -3.9062   -7.3805 C   0  0  0  0  0  0  0  0  0  0  0  0
   15.2164   -2.5998   -6.9532 C   0  0  0  0  0  0  0  0  0  0  0  0
   18.2496   -5.6787  -10.8571 O   0  0  0  0  0  0  0  0  0  0  0  0
  1  2  1  0
  3  4  2  0
  3  2  1  0
  5  3  1  0
  6  7  1  6
  6  5  1  0
  8  7  1  0
  8  9  1  0
  9 10  1  0
 11 10  1  0
 12  6  1  0
 12 21  1  0
 13 12  2  0
 15 14  1  0
 15 16  2  0
 17 16  1  0
 18 17  2  0
 19 18  1  0
 20 21  1  0
 20 19  1  1
 22 20  1  0
 23 22  1  0
 24 25  2  0
 24 18  1  0
 25 15  1  0
 26 22  2  0
M  END
$$$$
