GKY.pdb
     RDKit          3D

 26 26  0  0  1  0  0  0  0  0999 V2000
   24.6242  -29.8738  -17.1495 N   0  0  0  0  0  0  0  0  0  0  0  0
   26.0135  -30.0537  -16.8006 C   0  0  0  0  0  0  0  0  0  0  0  0
   26.2727  -31.4247  -16.2758 C   0  0  0  0  0  0  0  0  0  0  0  0
   25.2933  -32.1478  -16.0248 O   0  0  0  0  0  0  0  0  0  0  0  0
   27.5961  -31.8943  -16.0676 N   0  0  0  0  0  0  0  0  0  0  0  0
   27.8880  -33.1392  -15.3981 C   0  0  1  0  0  0  0  0  0  0  0  0
   29.1054  -33.7959  -16.0535 C   0  0  0  0  0  0  0  0  0  0  0  0
   29.3963  -35.1536  -15.4613 C   0  0  0  0  0  0  0  0  0  0  0  0
   30.6778  -35.6452  -16.0702 C   0  0  0  0  0  0  0  0  0  0  0  0
   30.6282  -37.1103  -16.4416 C   0  0  0  0  0  0  0  0  0  0  0  0
   31.8326  -37.6001  -17.0451 N   0  0  0  0  0  0  0  0  0  0  0  0
   28.2750  -32.9055  -13.9861 C   0  0  0  0  0  0  0  0  0  0  0  0
   29.2607  -32.1697  -13.7552 O   0  0  0  0  0  0  0  0  0  0  0  0
   22.3799  -33.3560   -8.4308 O   0  0  0  0  0  0  0  0  0  0  0  0
   23.5862  -33.0070   -9.0718 C   0  0  0  0  0  0  0  0  0  0  0  0
   23.6637  -32.9070  -10.4400 C   0  0  0  0  0  0  0  0  0  0  0  0
   24.8467  -32.5654  -11.0530 C   0  0  0  0  0  0  0  0  0  0  0  0
   26.0132  -32.3066  -10.3244 C   0  0  0  0  0  0  0  0  0  0  0  0
   27.2771  -31.9580  -11.0101 C   0  0  0  0  0  0  0  0  0  0  0  0
   27.9497  -33.1759  -11.5390 C   0  0  2  0  0  0  0  0  0  0  0  0
   27.5833  -33.4741  -12.9021 N   0  0  0  0  0  0  0  0  0  0  0  0
   27.8343  -34.3858  -10.7144 C   0  0  0  0  0  0  0  0  0  0  0  0
   27.3061  -35.5370  -11.2756 O   0  0  0  0  0  0  0  0  0  0  0  0
   25.9082  -32.4143   -8.9458 C   0  0  0  0  0  0  0  0  0  0  0  0
   24.7243  -32.7560   -8.3342 C   0  0  0  0  0  0  0  0  0  0  0  0
   28.2000  -34.3893   -9.5354 O   0  0  0  0  0  0  0  0  0  0  0  0
  1  2  1  0
  3  4  2  0
  3  2  1  0
  5  3  1  0
  6  7  1  6
  6  5  1  0
  8  7  1  0
  8  9  1  0
  9 10  1  0
 11 10  1  0
 12  6  1  0
 12 21  1  0
 13 12  2  0
 15 14  1  0
 15 16  2  0
 17 16  1  0
 18 17  2  0
 19 18  1  0
 20 21  1  0
 20 19  1  1
 22 20  1  0
 23 22  1  0
 24 25  2  0
 24 18  1  0
 25 15  1  0
 26 22  2  0
M  END
$$$$
