GKY.pdb
     RDKit          3D

 26 26  0  0  1  0  0  0  0  0999 V2000
   22.6353  -19.1650  -14.5584 N   0  0  0  0  0  0  0  0  0  0  0  0
   22.1101  -20.5092  -14.5956 C   0  0  0  0  0  0  0  0  0  0  0  0
   20.7506  -20.5824  -13.9886 C   0  0  0  0  0  0  0  0  0  0  0  0
   20.3646  -19.6189  -13.3048 O   0  0  0  0  0  0  0  0  0  0  0  0
   19.9186  -21.7162  -14.1830 N   0  0  0  0  0  0  0  0  0  0  0  0
   18.5997  -21.8265  -13.6071 C   0  0  1  0  0  0  0  0  0  0  0  0
   17.6586  -22.4907  -14.6151 C   0  0  0  0  0  0  0  0  0  0  0  0
   16.9117  -21.4711  -15.4405 C   0  0  0  0  0  0  0  0  0  0  0  0
   17.6760  -21.2793  -16.7186 C   0  0  0  0  0  0  0  0  0  0  0  0
   17.0596  -20.2341  -17.6210 C   0  0  0  0  0  0  0  0  0  0  0  0
   17.7650  -20.0383  -18.8535 N   0  0  0  0  0  0  0  0  0  0  0  0
   18.6091  -22.7200  -12.4241 C   0  0  0  0  0  0  0  0  0  0  0  0
   19.3867  -23.7006  -12.4276 O   0  0  0  0  0  0  0  0  0  0  0  0
   17.1758  -25.8512   -4.3031 O   0  0  0  0  0  0  0  0  0  0  0  0
   17.3897  -25.0314   -5.4301 C   0  0  0  0  0  0  0  0  0  0  0  0
   16.3635  -24.3123   -5.9938 C   0  0  0  0  0  0  0  0  0  0  0  0
   16.5855  -23.5160   -7.0932 C   0  0  0  0  0  0  0  0  0  0  0  0
   17.8490  -23.4003   -7.6837 C   0  0  0  0  0  0  0  0  0  0  0  0
   18.0565  -22.5500   -8.8765 C   0  0  0  0  0  0  0  0  0  0  0  0
   17.8933  -23.3388  -10.1281 C   0  0  2  0  0  0  0  0  0  0  0  0
   17.7843  -22.5114  -11.3048 N   0  0  0  0  0  0  0  0  0  0  0  0
   16.8215  -24.3430  -10.1223 C   0  0  0  0  0  0  0  0  0  0  0  0
   17.0596  -25.5807   -9.5475 O   0  0  0  0  0  0  0  0  0  0  0  0
   18.8670  -24.1360   -7.0958 C   0  0  0  0  0  0  0  0  0  0  0  0
   18.6433  -24.9319   -5.9963 C   0  0  0  0  0  0  0  0  0  0  0  0
   15.7186  -24.0991  -10.6203 O   0  0  0  0  0  0  0  0  0  0  0  0
  1  2  1  0
  3  4  2  0
  3  2  1  0
  5  3  1  0
  6  7  1  6
  6  5  1  0
  8  7  1  0
  8  9  1  0
  9 10  1  0
 11 10  1  0
 12  6  1  0
 12 21  1  0
 13 12  2  0
 15 14  1  0
 15 16  2  0
 17 16  1  0
 18 17  2  0
 19 18  1  0
 20 21  1  0
 20 19  1  1
 22 20  1  0
 23 22  1  0
 24 25  2  0
 24 18  1  0
 25 15  1  0
 26 22  2  0
M  END
$$$$
