GKY.pdb
     RDKit          3D

 26 26  0  0  1  0  0  0  0  0999 V2000
   21.6331  -16.6669  -15.5849 N   0  0  0  0  0  0  0  0  0  0  0  0
   22.7652  -16.6218  -14.6901 C   0  0  0  0  0  0  0  0  0  0  0  0
   22.9436  -17.9136  -13.9679 C   0  0  0  0  0  0  0  0  0  0  0  0
   22.1708  -18.1678  -13.0280 O   0  0  0  0  0  0  0  0  0  0  0  0
   23.9636  -18.8287  -14.3388 N   0  0  0  0  0  0  0  0  0  0  0  0
   24.2000  -20.0650  -13.6323 C   0  0  1  0  0  0  0  0  0  0  0  0
   24.8805  -21.0647  -14.5705 C   0  0  0  0  0  0  0  0  0  0  0  0
   25.0660  -22.4117  -13.9148 C   0  0  0  0  0  0  0  0  0  0  0  0
   25.6829  -23.3270  -14.9327 C   0  0  0  0  0  0  0  0  0  0  0  0
   25.7938  -24.7552  -14.4485 C   0  0  0  0  0  0  0  0  0  0  0  0
   26.3967  -25.6470  -15.3952 N   0  0  0  0  0  0  0  0  0  0  0  0
   25.1487  -19.8635  -12.5110 C   0  0  0  0  0  0  0  0  0  0  0  0
   26.0696  -19.0284  -12.6559 O   0  0  0  0  0  0  0  0  0  0  0  0
   29.0970  -19.3171   -4.7137 O   0  0  0  0  0  0  0  0  0  0  0  0
   28.1856  -19.4064   -5.7858 C   0  0  0  0  0  0  0  0  0  0  0  0
   27.7961  -18.2898   -6.4855 C   0  0  0  0  0  0  0  0  0  0  0  0
   26.9063  -18.3906   -7.5296 C   0  0  0  0  0  0  0  0  0  0  0  0
   26.3614  -19.6173   -7.9254 C   0  0  0  0  0  0  0  0  0  0  0  0
   25.3928  -19.6951   -9.0411 C   0  0  0  0  0  0  0  0  0  0  0  0
   26.0014  -20.3514  -10.2303 C   0  0  2  0  0  0  0  0  0  0  0  0
   25.0564  -20.5689  -11.2983 N   0  0  0  0  0  0  0  0  0  0  0  0
   26.7549  -21.5852   -9.9709 C   0  0  0  0  0  0  0  0  0  0  0  0
   28.1053  -21.5011   -9.6734 O   0  0  0  0  0  0  0  0  0  0  0  0
   26.7706  -20.7283   -7.2033 C   0  0  0  0  0  0  0  0  0  0  0  0
   27.6606  -20.6258   -6.1593 C   0  0  0  0  0  0  0  0  0  0  0  0
   26.2031  -22.6886  -10.0145 O   0  0  0  0  0  0  0  0  0  0  0  0
  1  2  1  0
  3  4  2  0
  3  2  1  0
  5  3  1  0
  6  7  1  6
  6  5  1  0
  8  7  1  0
  8  9  1  0
  9 10  1  0
 11 10  1  0
 12  6  1  0
 12 21  1  0
 13 12  2  0
 15 14  1  0
 15 16  2  0
 17 16  1  0
 18 17  2  0
 19 18  1  0
 20 21  1  0
 20 19  1  1
 22 20  1  0
 23 22  1  0
 24 25  2  0
 24 18  1  0
 25 15  1  0
 26 22  2  0
M  END
$$$$
