SKN.pdb
     RDKit          3D

 24 23  0  0  1  0  0  0  0  0999 V2000
   29.1733  -36.8357   -5.3372 O   0  0  0  0  0  0  0  0  0  0  0  0
   29.4392  -35.7311   -4.5264 C   0  0  0  0  0  0  0  0  0  0  0  0
   28.1778  -34.9775   -4.2613 C   0  0  2  0  0  0  0  0  0  0  0  0
   28.0506  -33.9040   -5.2341 N   0  0  0  0  0  0  0  0  0  0  0  0
   28.1410  -34.4274   -2.8756 C   0  0  0  0  0  0  0  0  0  0  0  0
   28.8693  -33.4868   -2.5015 O   0  0  0  0  0  0  0  0  0  0  0  0
   27.2461  -34.9857   -1.9305 N   0  0  0  0  0  0  0  0  0  0  0  0
   27.1049  -34.3860   -0.5618 C   0  0  1  0  0  0  0  0  0  0  0  0
   25.6777  -34.6583   -0.2100 C   0  0  0  0  0  0  0  0  0  0  0  0
   25.2472  -34.2684    1.1683 C   0  0  0  0  0  0  0  0  0  0  0  0
   23.8700  -33.5824    1.0062 C   0  0  0  0  0  0  0  0  0  0  0  0
   23.3983  -33.1395    2.3925 C   0  0  0  0  0  0  0  0  0  0  0  0
   22.1736  -32.4148    2.2407 N   0  0  0  0  0  0  0  0  0  0  0  0
   28.0566  -35.0501    0.3152 C   0  0  0  0  0  0  0  0  0  0  0  0
   28.2869  -36.3048    0.1932 O   0  0  0  0  0  0  0  0  0  0  0  0
   31.7301  -36.1430    3.8581 N   0  0  0  0  0  0  0  0  0  0  0  0
   32.1092  -35.4210    2.7132 C   0  0  0  0  0  0  0  0  0  0  0  0
   33.3516  -35.2150    2.4834 O   0  0  0  0  0  0  0  0  0  0  0  0
   31.1281  -34.8955    1.7668 C   0  0  0  0  0  0  0  0  0  0  0  0
   29.7003  -35.1195    2.1907 C   0  0  2  0  0  0  0  0  0  0  0  0
   28.7845  -34.3894    1.3301 N   0  0  0  0  0  0  0  0  0  0  0  0
   29.5111  -34.7052    3.5855 C   0  0  0  0  0  0  0  0  0  0  0  0
   30.1619  -35.1992    4.5695 O   0  0  0  0  0  0  0  0  0  0  0  0
   28.5578  -33.7041    3.8564 O   0  0  0  0  0  0  0  0  0  0  0  0
  1  2  1  0
  2  3  1  0
  3  5  1  0
  3  4  1  6
  5  6  2  0
  7  8  1  0
  7  5  1  0
  8 14  1  0
  8  9  1  1
 10  9  1  0
 10 11  1  0
 11 12  1  0
 13 12  1  0
 14 21  1  0
 14 15  2  0
 16 17  1  0
 17 19  1  0
 18 17  2  0
 20 19  1  6
 20 22  1  0
 21 20  1  0
 22 23  2  0
 22 24  1  0
M  END
$$$$
