SKN.pdb
     RDKit          3D

 24 23  0  0  1  0  0  0  0  0999 V2000
   15.9628  -12.3340  -16.4306 O   0  0  0  0  0  0  0  0  0  0  0  0
   17.0545  -12.3702  -17.2998 C   0  0  0  0  0  0  0  0  0  0  0  0
   18.2866  -11.9144  -16.5904 C   0  0  2  0  0  0  0  0  0  0  0  0
   18.5522  -12.8082  -15.4744 N   0  0  0  0  0  0  0  0  0  0  0  0
   18.1616  -10.5083  -16.1091 C   0  0  0  0  0  0  0  0  0  0  0  0
   18.0601   -9.5351  -16.8823 O   0  0  0  0  0  0  0  0  0  0  0  0
   18.1564  -10.2489  -14.7168 N   0  0  0  0  0  0  0  0  0  0  0  0
   17.8729   -8.8702  -14.1955 C   0  0  1  0  0  0  0  0  0  0  0  0
   17.2088   -9.1270  -12.8810 C   0  0  0  0  0  0  0  0  0  0  0  0
   16.9805   -7.9343  -12.0079 C   0  0  0  0  0  0  0  0  0  0  0  0
   16.2557   -8.4619  -10.7471 C   0  0  0  0  0  0  0  0  0  0  0  0
   15.9347   -7.2634   -9.8520 C   0  0  0  0  0  0  0  0  0  0  0  0
   15.1084   -7.7152   -8.7744 N   0  0  0  0  0  0  0  0  0  0  0  0
   19.1422   -8.1694  -14.0783 C   0  0  0  0  0  0  0  0  0  0  0  0
   20.0934   -8.6608  -13.3740 O   0  0  0  0  0  0  0  0  0  0  0  0
   23.0562   -4.7228  -14.4986 N   0  0  0  0  0  0  0  0  0  0  0  0
   22.5397   -5.1234  -15.7430 C   0  0  0  0  0  0  0  0  0  0  0  0
   23.1731   -4.8198  -16.8131 O   0  0  0  0  0  0  0  0  0  0  0  0
   21.2969   -5.8826  -15.8595 C   0  0  0  0  0  0  0  0  0  0  0  0
   20.7044   -6.2780  -14.5324 C   0  0  2  0  0  0  0  0  0  0  0  0
   19.4230   -6.9394  -14.7144 N   0  0  0  0  0  0  0  0  0  0  0  0
   20.5393   -5.0984  -13.6756 C   0  0  0  0  0  0  0  0  0  0  0  0
   19.4461   -4.4431  -13.5690 O   0  0  0  0  0  0  0  0  0  0  0  0
   21.6494   -4.6629  -12.9256 O   0  0  0  0  0  0  0  0  0  0  0  0
  1  2  1  0
  2  3  1  0
  3  5  1  0
  3  4  1  1
  5  6  2  0
  7  8  1  0
  7  5  1  0
  8 14  1  0
  8  9  1  1
 10  9  1  0
 10 11  1  0
 11 12  1  0
 13 12  1  0
 14 21  1  0
 14 15  2  0
 16 17  1  0
 17 19  1  0
 18 17  2  0
 20 19  1  6
 20 22  1  0
 21 20  1  0
 22 23  2  0
 22 24  1  0
M  END
$$$$
