SKN.pdb
     RDKit          3D

 24 23  0  0  1  0  0  0  0  0999 V2000
   17.4002  -14.0970  -15.1091 O   0  0  0  0  0  0  0  0  0  0  0  0
   16.9938  -12.7660  -15.2169 C   0  0  0  0  0  0  0  0  0  0  0  0
   15.8295  -12.5138  -14.3168 C   0  0  2  0  0  0  0  0  0  0  0  0
   14.6523  -13.1677  -14.8659 N   0  0  0  0  0  0  0  0  0  0  0  0
   15.5744  -11.0556  -14.1353 C   0  0  0  0  0  0  0  0  0  0  0  0
   14.9768  -10.3627  -14.9826 O   0  0  0  0  0  0  0  0  0  0  0  0
   16.0235  -10.4138  -12.9554 N   0  0  0  0  0  0  0  0  0  0  0  0
   15.7793   -8.9486  -12.7398 C   0  0  1  0  0  0  0  0  0  0  0  0
   15.1602   -8.8972  -11.3801 C   0  0  0  0  0  0  0  0  0  0  0  0
   13.6868   -9.1452  -11.3113 C   0  0  0  0  0  0  0  0  0  0  0  0
   13.3150   -9.0886   -9.8107 C   0  0  0  0  0  0  0  0  0  0  0  0
   11.8361   -9.4569   -9.6775 C   0  0  0  0  0  0  0  0  0  0  0  0
   11.4847   -9.4135   -8.2910 N   0  0  0  0  0  0  0  0  0  0  0  0
   17.0620   -8.2673  -12.8206 C   0  0  0  0  0  0  0  0  0  0  0  0
   18.0054   -8.5588  -12.0036 O   0  0  0  0  0  0  0  0  0  0  0  0
   21.9178   -7.3180  -15.2032 N   0  0  0  0  0  0  0  0  0  0  0  0
   21.0991   -7.0879  -14.0841 C   0  0  0  0  0  0  0  0  0  0  0  0
   21.5297   -6.3480  -13.1323 O   0  0  0  0  0  0  0  0  0  0  0  0
   19.7621   -7.6655  -13.9685 C   0  0  0  0  0  0  0  0  0  0  0  0
   18.6725   -6.6380  -13.8082 C   0  0  2  0  0  0  0  0  0  0  0  0
   17.3648   -7.2714  -13.7759 N   0  0  0  0  0  0  0  0  0  0  0  0
   18.7267   -5.6618  -14.9023 C   0  0  0  0  0  0  0  0  0  0  0  0
   17.8985   -5.6375  -15.8766 O   0  0  0  0  0  0  0  0  0  0  0  0
   19.7502   -4.6941  -14.8775 O   0  0  0  0  0  0  0  0  0  0  0  0
  1  2  1  0
  2  3  1  0
  3  5  1  0
  3  4  1  6
  5  6  2  0
  7  8  1  0
  7  5  1  0
  8 14  1  0
  8  9  1  1
 10  9  1  0
 10 11  1  0
 11 12  1  0
 13 12  1  0
 14 21  1  0
 14 15  2  0
 16 17  1  0
 17 19  1  0
 18 17  2  0
 20 19  1  6
 20 22  1  0
 21 20  1  0
 22 23  2  0
 22 24  1  0
M  END
$$$$
