SKN.pdb
     RDKit          3D

 24 23  0  0  1  0  0  0  0  0999 V2000
   13.5408  -10.3563  -12.0650 O   0  0  0  0  0  0  0  0  0  0  0  0
   14.8764  -10.4131  -12.4666 C   0  0  0  0  0  0  0  0  0  0  0  0
   15.3028   -9.0889  -13.0087 C   0  0  2  0  0  0  0  0  0  0  0  0
   14.7430   -8.9162  -14.3398 N   0  0  0  0  0  0  0  0  0  0  0  0
   16.7880   -8.9589  -13.0508 C   0  0  0  0  0  0  0  0  0  0  0  0
   17.5070   -9.0842  -12.0397 O   0  0  0  0  0  0  0  0  0  0  0  0
   17.4259   -8.6810  -14.2844 N   0  0  0  0  0  0  0  0  0  0  0  0
   18.9230   -8.6898  -14.3917 C   0  0  1  0  0  0  0  0  0  0  0  0
   19.1799   -9.5652  -15.5760 C   0  0  0  0  0  0  0  0  0  0  0  0
   19.1048  -11.0403  -15.3404 C   0  0  0  0  0  0  0  0  0  0  0  0
   19.5243  -11.7062  -16.6723 C   0  0  0  0  0  0  0  0  0  0  0  0
   19.4080  -13.2218  -16.4984 C   0  0  0  0  0  0  0  0  0  0  0  0
   19.8046  -13.8469  -17.7231 N   0  0  0  0  0  0  0  0  0  0  0  0
   19.3636   -7.3161  -14.5779 C   0  0  0  0  0  0  0  0  0  0  0  0
   18.6419   -6.4853  -15.2346 O   0  0  0  0  0  0  0  0  0  0  0  0
   21.5778   -2.6679  -14.2530 N   0  0  0  0  0  0  0  0  0  0  0  0
   20.3551   -3.0813  -13.6961 C   0  0  0  0  0  0  0  0  0  0  0  0
   19.5846   -2.2125  -13.1575 O   0  0  0  0  0  0  0  0  0  0  0  0
   19.9275   -4.4782  -13.7127 C   0  0  0  0  0  0  0  0  0  0  0  0
   20.9555   -5.4174  -14.2869 C   0  0  2  0  0  0  0  0  0  0  0  0
   20.5743   -6.8018  -14.0621 N   0  0  0  0  0  0  0  0  0  0  0  0
   22.2714   -5.1596  -13.6911 C   0  0  0  0  0  0  0  0  0  0  0  0
   23.1808   -4.4556  -14.2507 O   0  0  0  0  0  0  0  0  0  0  0  0
   22.5489   -5.7194  -12.4285 O   0  0  0  0  0  0  0  0  0  0  0  0
  1  2  1  0
  2  3  1  0
  3  5  1  0
  3  4  1  6
  5  6  2  0
  7  8  1  0
  7  5  1  0
  8 14  1  0
  8  9  1  6
 10  9  1  0
 10 11  1  0
 11 12  1  0
 13 12  1  0
 14 21  1  0
 14 15  2  0
 16 17  1  0
 17 19  1  0
 18 17  2  0
 20 19  1  1
 20 22  1  0
 21 20  1  0
 22 23  2  0
 22 24  1  0
M  END
$$$$
