SKN.pdb
     RDKit          3D

 24 23  0  0  1  0  0  0  0  0999 V2000
   17.4086  -13.0002  -12.5918 O   0  0  0  0  0  0  0  0  0  0  0  0
   17.2872  -11.6114  -12.5219 C   0  0  0  0  0  0  0  0  0  0  0  0
   16.0370  -11.2448  -11.7926 C   0  0  2  0  0  0  0  0  0  0  0  0
   14.8900  -11.7559  -12.5262 N   0  0  0  0  0  0  0  0  0  0  0  0
   15.9163   -9.7701  -11.6051 C   0  0  0  0  0  0  0  0  0  0  0  0
   15.5851   -8.9960  -12.5250 O   0  0  0  0  0  0  0  0  0  0  0  0
   16.1860   -9.2075  -10.3336 N   0  0  0  0  0  0  0  0  0  0  0  0
   15.9512   -7.7475  -10.0765 C   0  0  1  0  0  0  0  0  0  0  0  0
   15.2354   -7.7379   -8.7642 C   0  0  0  0  0  0  0  0  0  0  0  0
   13.7443   -7.6361   -8.8216 C   0  0  0  0  0  0  0  0  0  0  0  0
   13.2595   -7.6512   -7.3525 C   0  0  0  0  0  0  0  0  0  0  0  0
   11.7317   -7.5708   -7.3598 C   0  0  0  0  0  0  0  0  0  0  0  0
   11.2728   -7.6071   -6.0047 N   0  0  0  0  0  0  0  0  0  0  0  0
   17.2476   -7.0889  -10.0363 C   0  0  0  0  0  0  0  0  0  0  0  0
   18.1427   -7.4663   -9.2006 O   0  0  0  0  0  0  0  0  0  0  0  0
   21.6941   -5.1160  -11.7082 N   0  0  0  0  0  0  0  0  0  0  0  0
   21.2571   -6.4515  -11.6731 C   0  0  0  0  0  0  0  0  0  0  0  0
   22.0929   -7.3923  -11.9075 O   0  0  0  0  0  0  0  0  0  0  0  0
   19.8721   -6.8073  -11.3734 C   0  0  0  0  0  0  0  0  0  0  0  0
   19.0057   -5.6241  -11.0299 C   0  0  2  0  0  0  0  0  0  0  0  0
   17.6156   -6.0243  -10.8892 N   0  0  0  0  0  0  0  0  0  0  0  0
   19.1243   -4.5880  -12.0621 C   0  0  0  0  0  0  0  0  0  0  0  0
   18.2618   -4.4039  -12.9884 O   0  0  0  0  0  0  0  0  0  0  0  0
   20.2534   -3.7463  -12.0302 O   0  0  0  0  0  0  0  0  0  0  0  0
  1  2  1  0
  2  3  1  0
  3  5  1  0
  3  4  1  6
  5  6  2  0
  7  8  1  0
  7  5  1  0
  8 14  1  0
  8  9  1  1
 10  9  1  0
 10 11  1  0
 11 12  1  0
 13 12  1  0
 14 21  1  0
 14 15  2  0
 16 17  1  0
 17 19  1  0
 18 17  2  0
 20 19  1  6
 20 22  1  0
 21 20  1  0
 22 23  2  0
 22 24  1  0
M  END
$$$$
