SKN.pdb
     RDKit          3D

 24 23  0  0  1  0  0  0  0  0999 V2000
   19.2247  -12.9474  -17.6166 O   0  0  0  0  0  0  0  0  0  0  0  0
   20.5244  -12.4593  -17.7612 C   0  0  0  0  0  0  0  0  0  0  0  0
   20.8531  -11.5411  -16.6307 C   0  0  2  0  0  0  0  0  0  0  0  0
   20.6299  -12.2354  -15.3724 N   0  0  0  0  0  0  0  0  0  0  0  0
   20.0457  -10.2881  -16.6808 C   0  0  0  0  0  0  0  0  0  0  0  0
   20.2316   -9.3972  -17.5334 O   0  0  0  0  0  0  0  0  0  0  0  0
   19.0193  -10.0849  -15.7263 N   0  0  0  0  0  0  0  0  0  0  0  0
   18.2006   -8.8269  -15.7379 C   0  0  1  0  0  0  0  0  0  0  0  0
   16.8790   -9.2691  -15.1969 C   0  0  0  0  0  0  0  0  0  0  0  0
   15.8196   -9.5823  -16.2052 C   0  0  0  0  0  0  0  0  0  0  0  0
   14.6194  -10.1387  -15.4031 C   0  0  0  0  0  0  0  0  0  0  0  0
   13.5590  -10.6030  -16.4033 C   0  0  0  0  0  0  0  0  0  0  0  0
   12.4270  -11.0807  -15.6696 N   0  0  0  0  0  0  0  0  0  0  0  0
   18.8750   -7.8496  -14.8977 C   0  0  0  0  0  0  0  0  0  0  0  0
   19.5578   -8.2272  -13.8811 O   0  0  0  0  0  0  0  0  0  0  0  0
   21.6159   -3.8097  -13.2765 N   0  0  0  0  0  0  0  0  0  0  0  0
   22.0540   -5.0254  -13.8297 C   0  0  0  0  0  0  0  0  0  0  0  0
   23.2979   -5.3242  -13.7839 O   0  0  0  0  0  0  0  0  0  0  0  0
   21.1324   -5.9692  -14.4577 C   0  0  0  0  0  0  0  0  0  0  0  0
   19.6882   -5.5504  -14.3719 C   0  0  2  0  0  0  0  0  0  0  0  0
   18.8410   -6.4563  -15.1297 N   0  0  0  0  0  0  0  0  0  0  0  0
   19.5238   -4.1801  -14.8701 C   0  0  0  0  0  0  0  0  0  0  0  0
   19.5248   -3.8685  -16.1106 O   0  0  0  0  0  0  0  0  0  0  0  0
   19.3538   -3.1476  -13.9270 O   0  0  0  0  0  0  0  0  0  0  0  0
  1  2  1  0
  2  3  1  0
  3  5  1  0
  3  4  1  1
  5  6  2  0
  7  8  1  0
  7  5  1  0
  8 14  1  0
  8  9  1  1
 10  9  1  0
 10 11  1  0
 11 12  1  0
 13 12  1  0
 14 21  1  0
 14 15  2  0
 16 17  1  0
 17 19  1  0
 18 17  2  0
 20 19  1  6
 20 22  1  0
 21 20  1  0
 22 23  2  0
 22 24  1  0
M  END
$$$$
