SKN.pdb
     RDKit          3D

 24 23  0  0  1  0  0  0  0  0999 V2000
   17.0648  -18.1065   12.0269 O   0  0  0  0  0  0  0  0  0  0  0  0
   17.8201  -17.7966   10.8947 C   0  0  0  0  0  0  0  0  0  0  0  0
   17.6596  -18.8666    9.8658 C   0  0  2  0  0  0  0  0  0  0  0  0
   18.5027  -19.9977   10.2190 N   0  0  0  0  0  0  0  0  0  0  0  0
   17.9971  -18.3764    8.4983 C   0  0  0  0  0  0  0  0  0  0  0  0
   19.1694  -18.2825    8.0835 O   0  0  0  0  0  0  0  0  0  0  0  0
   16.9534  -17.9967    7.6196 N   0  0  0  0  0  0  0  0  0  0  0  0
   17.2595  -17.4876    6.2411 C   0  0  1  0  0  0  0  0  0  0  0  0
   16.1080  -17.9818    5.4259 C   0  0  0  0  0  0  0  0  0  0  0  0
   16.0589  -17.5277    4.0017 C   0  0  0  0  0  0  0  0  0  0  0  0
   17.0470  -18.4350    3.2311 C   0  0  0  0  0  0  0  0  0  0  0  0
   17.1443  -17.9135    1.7961 C   0  0  0  0  0  0  0  0  0  0  0  0
   18.0797  -18.7290    1.0835 N   0  0  0  0  0  0  0  0  0  0  0  0
   17.3422  -16.0370    6.3109 C   0  0  0  0  0  0  0  0  0  0  0  0
   16.5178  -15.3730    7.0332 O   0  0  0  0  0  0  0  0  0  0  0  0
   18.9265  -11.0974    6.2438 N   0  0  0  0  0  0  0  0  0  0  0  0
   19.9375  -11.8913    5.6749 C   0  0  0  0  0  0  0  0  0  0  0  0
   21.0444  -11.3478    5.3316 O   0  0  0  0  0  0  0  0  0  0  0  0
   19.7697  -13.3270    5.4624 C   0  0  0  0  0  0  0  0  0  0  0  0
   18.3926  -13.8312    5.8061 C   0  0  2  0  0  0  0  0  0  0  0  0
   18.3073  -15.2702    5.6204 N   0  0  0  0  0  0  0  0  0  0  0  0
   17.3827  -13.1611    4.9791 C   0  0  0  0  0  0  0  0  0  0  0  0
   16.7760  -13.7216    4.0026 O   0  0  0  0  0  0  0  0  0  0  0  0
   17.0619  -11.8226    5.2789 O   0  0  0  0  0  0  0  0  0  0  0  0
  1  2  1  0
  2  3  1  0
  3  5  1  0
  3  4  1  1
  5  6  2  0
  7  8  1  0
  7  5  1  0
  8 14  1  0
  8  9  1  6
 10  9  1  0
 10 11  1  0
 11 12  1  0
 13 12  1  0
 14 21  1  0
 14 15  2  0
 16 17  1  0
 17 19  1  0
 18 17  2  0
 20 19  1  6
 20 22  1  0
 21 20  1  0
 22 23  2  0
 22 24  1  0
M  END
$$$$
