SKN.pdb
     RDKit          3D

 24 23  0  0  1  0  0  0  0  0999 V2000
   23.1582  -23.2114  -15.7836 O   0  0  0  0  0  0  0  0  0  0  0  0
   21.8271  -23.4538  -15.4402 C   0  0  0  0  0  0  0  0  0  0  0  0
   21.7258  -24.7177  -14.6518 C   0  0  2  0  0  0  0  0  0  0  0  0
   22.0505  -25.8438  -15.5129 N   0  0  0  0  0  0  0  0  0  0  0  0
   20.3690  -24.8942  -14.0584 C   0  0  0  0  0  0  0  0  0  0  0  0
   19.3640  -25.1778  -14.7402 O   0  0  0  0  0  0  0  0  0  0  0  0
   20.1961  -24.7362  -12.6617 N   0  0  0  0  0  0  0  0  0  0  0  0
   18.8539  -24.9543  -12.0263 C   0  0  1  0  0  0  0  0  0  0  0  0
   19.1818  -25.1397  -10.5796 C   0  0  0  0  0  0  0  0  0  0  0  0
   18.0212  -25.3163   -9.6528 C   0  0  0  0  0  0  0  0  0  0  0  0
   18.6052  -25.9038   -8.3461 C   0  0  0  0  0  0  0  0  0  0  0  0
   17.4427  -26.1659   -7.3867 C   0  0  0  0  0  0  0  0  0  0  0  0
   17.9617  -26.8010   -6.2140 N   0  0  0  0  0  0  0  0  0  0  0  0
   18.0398  -23.7784  -12.2917 C   0  0  0  0  0  0  0  0  0  0  0  0
   18.4871  -22.6060  -12.0317 O   0  0  0  0  0  0  0  0  0  0  0  0
   16.7311  -23.2530  -16.6517 N   0  0  0  0  0  0  0  0  0  0  0  0
   16.6521  -22.4499  -15.5009 C   0  0  0  0  0  0  0  0  0  0  0  0
   17.5712  -21.5888  -15.2715 O   0  0  0  0  0  0  0  0  0  0  0  0
   15.5480  -22.5616  -14.5506 C   0  0  0  0  0  0  0  0  0  0  0  0
   15.9924  -22.6129  -13.1123 C   0  0  2  0  0  0  0  0  0  0  0  0
   16.7408  -23.8298  -12.8451 N   0  0  0  0  0  0  0  0  0  0  0  0
   14.8327  -22.5341  -12.2169 C   0  0  0  0  0  0  0  0  0  0  0  0
   14.5433  -23.4254  -11.3465 O   0  0  0  0  0  0  0  0  0  0  0  0
   13.9894  -21.4105  -12.3213 O   0  0  0  0  0  0  0  0  0  0  0  0
  1  2  1  0
  2  3  1  0
  3  5  1  0
  3  4  1  6
  5  6  2  0
  7  8  1  0
  7  5  1  0
  8 14  1  0
  8  9  1  1
 10  9  1  0
 10 11  1  0
 11 12  1  0
 13 12  1  0
 14 21  1  0
 14 15  2  0
 16 17  1  0
 17 19  1  0
 18 17  2  0
 20 19  1  6
 20 22  1  0
 21 20  1  0
 22 23  2  0
 22 24  1  0
M  END
$$$$
