SKN.pdb
     RDKit          3D

 24 23  0  0  1  0  0  0  0  0999 V2000
   12.8142   -7.2726  -11.2408 O   0  0  0  0  0  0  0  0  0  0  0  0
   14.1907   -7.4984  -11.2943 C   0  0  0  0  0  0  0  0  0  0  0  0
   14.4607   -8.9420  -11.5632 C   0  0  2  0  0  0  0  0  0  0  0  0
   14.0933   -9.7218  -10.3919 N   0  0  0  0  0  0  0  0  0  0  0  0
   15.8892   -9.1825  -11.9180 C   0  0  0  0  0  0  0  0  0  0  0  0
   16.7969   -9.2449  -11.0651 O   0  0  0  0  0  0  0  0  0  0  0  0
   16.2483   -9.3493  -13.2778 N   0  0  0  0  0  0  0  0  0  0  0  0
   17.6745   -9.6083  -13.6673 C   0  0  1  0  0  0  0  0  0  0  0  0
   17.5528  -10.5587  -14.8148 C   0  0  0  0  0  0  0  0  0  0  0  0
   17.4055  -12.0057  -14.4662 C   0  0  0  0  0  0  0  0  0  0  0  0
   17.1708  -12.7446  -15.8050 C   0  0  0  0  0  0  0  0  0  0  0  0
   17.0267  -14.2369  -15.5004 C   0  0  0  0  0  0  0  0  0  0  0  0
   16.8578  -14.9345  -16.7385 N   0  0  0  0  0  0  0  0  0  0  0  0
   18.2752   -8.3339  -14.0292 C   0  0  0  0  0  0  0  0  0  0  0  0
   17.5795   -7.4301  -14.6136 O   0  0  0  0  0  0  0  0  0  0  0  0
   22.9076   -4.6467  -13.7985 N   0  0  0  0  0  0  0  0  0  0  0  0
   21.5213   -4.7654  -13.5985 C   0  0  0  0  0  0  0  0  0  0  0  0
   20.7677   -3.7516  -13.8063 O   0  0  0  0  0  0  0  0  0  0  0  0
   20.9044   -6.0154  -13.1612 C   0  0  0  0  0  0  0  0  0  0  0  0
   20.1927   -6.7553  -14.2634 C   0  0  2  0  0  0  0  0  0  0  0  0
   19.6223   -7.9971  -13.7685 N   0  0  0  0  0  0  0  0  0  0  0  0
   21.1163   -7.0364  -15.3683 C   0  0  0  0  0  0  0  0  0  0  0  0
   21.8206   -8.1005  -15.4544 O   0  0  0  0  0  0  0  0  0  0  0  0
   21.2334   -6.0788  -16.3948 O   0  0  0  0  0  0  0  0  0  0  0  0
  1  2  1  0
  2  3  1  0
  3  5  1  0
  3  4  1  1
  5  6  2  0
  7  8  1  0
  7  5  1  0
  8 14  1  0
  8  9  1  6
 10  9  1  0
 10 11  1  0
 11 12  1  0
 13 12  1  0
 14 21  1  0
 14 15  2  0
 16 17  1  0
 17 19  1  0
 18 17  2  0
 20 19  1  1
 20 22  1  0
 21 20  1  0
 22 23  2  0
 22 24  1  0
M  END
$$$$
