SKN.pdb
     RDKit          3D

 24 23  0  0  1  0  0  0  0  0999 V2000
   34.8978  -30.7794  -17.4038 O   0  0  0  0  0  0  0  0  0  0  0  0
   34.3108  -29.5141  -17.4590 C   0  0  0  0  0  0  0  0  0  0  0  0
   35.2494  -28.5437  -18.0965 C   0  0  2  0  0  0  0  0  0  0  0  0
   36.3876  -28.3329  -17.2161 N   0  0  0  0  0  0  0  0  0  0  0  0
   34.5825  -27.2448  -18.4005 C   0  0  0  0  0  0  0  0  0  0  0  0
   34.6387  -26.2604  -17.6370 O   0  0  0  0  0  0  0  0  0  0  0  0
   33.8492  -27.1059  -19.6042 N   0  0  0  0  0  0  0  0  0  0  0  0
   33.1959  -25.8014  -19.9570 C   0  0  1  0  0  0  0  0  0  0  0  0
   33.1221  -25.8437  -21.4495 C   0  0  0  0  0  0  0  0  0  0  0  0
   32.3384  -24.7526  -22.1070 C   0  0  0  0  0  0  0  0  0  0  0  0
   32.5678  -24.9206  -23.6278 C   0  0  0  0  0  0  0  0  0  0  0  0
   31.7780  -23.8253  -24.3471 C   0  0  0  0  0  0  0  0  0  0  0  0
   31.9467  -24.0014  -25.7572 N   0  0  0  0  0  0  0  0  0  0  0  0
   31.8928  -25.7676  -19.3114 C   0  0  0  0  0  0  0  0  0  0  0  0
   31.1515  -26.8127  -19.2883 O   0  0  0  0  0  0  0  0  0  0  0  0
   27.9781  -22.4371  -15.9305 N   0  0  0  0  0  0  0  0  0  0  0  0
   28.7115  -23.6001  -16.2226 C   0  0  0  0  0  0  0  0  0  0  0  0
   28.2837  -24.7332  -15.8081 O   0  0  0  0  0  0  0  0  0  0  0  0
   29.9535  -23.5620  -16.9910 C   0  0  0  0  0  0  0  0  0  0  0  0
   30.0743  -24.6751  -17.9986 C   0  0  2  0  0  0  0  0  0  0  0  0
   31.3608  -24.6248  -18.6732 N   0  0  0  0  0  0  0  0  0  0  0  0
   28.9908  -24.5909  -18.9843 C   0  0  0  0  0  0  0  0  0  0  0  0
   27.8998  -25.2531  -18.9015 O   0  0  0  0  0  0  0  0  0  0  0  0
   29.1618  -23.7295  -20.0858 O   0  0  0  0  0  0  0  0  0  0  0  0
  1  2  1  0
  2  3  1  0
  3  5  1  0
  3  4  1  1
  5  6  2  0
  7  8  1  0
  7  5  1  0
  8 14  1  0
  8  9  1  6
 10  9  1  0
 10 11  1  0
 11 12  1  0
 13 12  1  0
 14 21  1  0
 14 15  2  0
 16 17  1  0
 17 19  1  0
 18 17  2  0
 20 19  1  1
 20 22  1  0
 21 20  1  0
 22 23  2  0
 22 24  1  0
M  END
$$$$
