SKN.pdb
     RDKit          3D

 24 23  0  0  1  0  0  0  0  0999 V2000
   17.4240  -12.1772  -13.7696 O   0  0  0  0  0  0  0  0  0  0  0  0
   17.1554  -10.8507  -13.4280 C   0  0  0  0  0  0  0  0  0  0  0  0
   16.0079  -10.7918  -12.4746 C   0  0  2  0  0  0  0  0  0  0  0  0
   14.8368  -11.3841  -13.1012 N   0  0  0  0  0  0  0  0  0  0  0  0
   15.7142   -9.3939  -12.0457 C   0  0  0  0  0  0  0  0  0  0  0  0
   15.0189   -8.6105  -12.7224 O   0  0  0  0  0  0  0  0  0  0  0  0
   16.2400   -8.9190  -10.8194 N   0  0  0  0  0  0  0  0  0  0  0  0
   15.9510   -7.5223  -10.3516 C   0  0  1  0  0  0  0  0  0  0  0  0
   15.8607   -7.6664   -8.8664 C   0  0  0  0  0  0  0  0  0  0  0  0
   15.6738   -6.4038   -8.0867 C   0  0  0  0  0  0  0  0  0  0  0  0
   14.1475   -6.2477   -7.8884 C   0  0  0  0  0  0  0  0  0  0  0  0
   13.8927   -4.8804   -7.2509 C   0  0  0  0  0  0  0  0  0  0  0  0
   12.4827   -4.7300   -7.0576 N   0  0  0  0  0  0  0  0  0  0  0  0
   17.0475   -6.6715  -10.7875 C   0  0  0  0  0  0  0  0  0  0  0  0
   16.9934   -5.4027  -10.6160 O   0  0  0  0  0  0  0  0  0  0  0  0
   21.5264   -4.7501  -12.6142 N   0  0  0  0  0  0  0  0  0  0  0  0
   21.6003   -6.1518  -12.6889 C   0  0  0  0  0  0  0  0  0  0  0  0
   22.6814   -6.7029  -13.0964 O   0  0  0  0  0  0  0  0  0  0  0  0
   20.4791   -7.0094  -12.3122 C   0  0  0  0  0  0  0  0  0  0  0  0
   19.2664   -6.2474  -11.8460 C   0  0  2  0  0  0  0  0  0  0  0  0
   18.2219   -7.1569  -11.4050 N   0  0  0  0  0  0  0  0  0  0  0  0
   18.7583   -5.3890  -12.9221 C   0  0  0  0  0  0  0  0  0  0  0  0
   18.2156   -5.8337  -13.9915 O   0  0  0  0  0  0  0  0  0  0  0  0
   18.8740   -3.9936  -12.7678 O   0  0  0  0  0  0  0  0  0  0  0  0
  1  2  1  0
  2  3  1  0
  3  5  1  0
  3  4  1  6
  5  6  2  0
  7  8  1  0
  7  5  1  0
  8 14  1  0
  8  9  1  1
 10  9  1  0
 10 11  1  0
 11 12  1  0
 13 12  1  0
 14 21  1  0
 14 15  2  0
 16 17  1  0
 17 19  1  0
 18 17  2  0
 20 19  1  6
 20 22  1  0
 21 20  1  0
 22 23  2  0
 22 24  1  0
M  END
$$$$
