SKN.pdb
     RDKit          3D

 24 23  0  0  1  0  0  0  0  0999 V2000
   27.4835  -12.5496  -20.0876 O   0  0  0  0  0  0  0  0  0  0  0  0
   28.4709  -13.1373  -19.2950 C   0  0  0  0  0  0  0  0  0  0  0  0
   28.3163  -12.6963  -17.8770 C   0  0  2  0  0  0  0  0  0  0  0  0
   26.9888  -13.0595  -17.4070 N   0  0  0  0  0  0  0  0  0  0  0  0
   28.5356  -11.2290  -17.7253 C   0  0  0  0  0  0  0  0  0  0  0  0
   27.6066  -10.4243  -17.5138 O   0  0  0  0  0  0  0  0  0  0  0  0
   29.8496  -10.7096  -17.8231 N   0  0  0  0  0  0  0  0  0  0  0  0
   30.1047   -9.2379  -17.6748 C   0  0  1  0  0  0  0  0  0  0  0  0
   31.4939   -9.1811  -17.1256 C   0  0  0  0  0  0  0  0  0  0  0  0
   32.0462   -7.8175  -16.8557 C   0  0  0  0  0  0  0  0  0  0  0  0
   33.3934   -8.0400  -16.1283 C   0  0  0  0  0  0  0  0  0  0  0  0
   33.9825   -6.6673  -15.7976 C   0  0  0  0  0  0  0  0  0  0  0  0
   35.2489   -6.8629  -15.1606 N   0  0  0  0  0  0  0  0  0  0  0  0
   29.9741   -8.6292  -18.9895 C   0  0  0  0  0  0  0  0  0  0  0  0
   30.6077   -9.1101  -19.9943 O   0  0  0  0  0  0  0  0  0  0  0  0
   28.2263   -9.3862  -21.6974 N   0  0  0  0  0  0  0  0  0  0  0  0
   27.3267   -8.3062  -21.6932 C   0  0  0  0  0  0  0  0  0  0  0  0
   26.1604   -8.4582  -22.1983 O   0  0  0  0  0  0  0  0  0  0  0  0
   27.6772   -7.0063  -21.1257 C   0  0  0  0  0  0  0  0  0  0  0  0
   29.0852   -6.9392  -20.5949 C   0  0  2  0  0  0  0  0  0  0  0  0
   29.1617   -7.5049  -19.2583 N   0  0  0  0  0  0  0  0  0  0  0  0
   29.5577   -5.5502  -20.5762 C   0  0  0  0  0  0  0  0  0  0  0  0
   29.7646   -4.8542  -21.6291 O   0  0  0  0  0  0  0  0  0  0  0  0
   29.7964   -4.9477  -19.3254 O   0  0  0  0  0  0  0  0  0  0  0  0
  1  2  1  0
  2  3  1  0
  3  5  1  0
  3  4  1  6
  5  6  2  0
  7  8  1  0
  7  5  1  0
  8 14  1  0
  8  9  1  6
 10  9  1  0
 10 11  1  0
 11 12  1  0
 13 12  1  0
 14 21  1  0
 14 15  2  0
 16 17  1  0
 17 19  1  0
 18 17  2  0
 20 19  1  1
 20 22  1  0
 21 20  1  0
 22 23  2  0
 22 24  1  0
M  END
$$$$
