YSA.pdb
     RDKit          3D

 24 24  0  0  1  0  0  0  0  0999 V2000
   20.0643  -23.0003   -7.6266 O   0  0  0  0  0  0  0  0  0  0  0  0
   20.9514  -22.3067   -8.4558 C   0  0  0  0  0  0  0  0  0  0  0  0
   21.9008  -21.4882   -7.8729 C   0  0  0  0  0  0  0  0  0  0  0  0
   22.7986  -20.7830   -8.6504 C   0  0  0  0  0  0  0  0  0  0  0  0
   22.7697  -20.8782  -10.0264 C   0  0  0  0  0  0  0  0  0  0  0  0
   23.7445  -20.1112  -10.8441 C   0  0  0  0  0  0  0  0  0  0  0  0
   24.7532  -21.0789  -11.4216 C   0  0  2  0  0  0  0  0  0  0  0  0
   25.6533  -21.4714  -10.3763 N   0  0  0  0  0  0  0  0  0  0  0  0
   25.4488  -20.5170  -12.6017 C   0  0  0  0  0  0  0  0  0  0  0  0
   26.3329  -19.6401  -12.4277 O   0  0  0  0  0  0  0  0  0  0  0  0
   21.8182  -21.6979  -10.6001 C   0  0  0  0  0  0  0  0  0  0  0  0
   20.9109  -22.4113   -9.8295 C   0  0  0  0  0  0  0  0  0  0  0  0
   25.9392  -22.6053  -16.0416 O   0  0  0  0  0  0  0  0  0  0  0  0
   26.7182  -21.5150  -15.7123 C   0  0  0  0  0  0  0  0  0  0  0  0
   25.9206  -20.3912  -15.0809 C   0  0  2  0  0  0  0  0  0  0  0  0
   25.1806  -20.9082  -13.9403 N   0  0  0  0  0  0  0  0  0  0  0  0
   25.0214  -19.7434  -16.0641 C   0  0  0  0  0  0  0  0  0  0  0  0
   23.8448  -20.2077  -16.1972 O   0  0  0  0  0  0  0  0  0  0  0  0
   25.1467  -16.9289  -18.6163 C   0  0  0  0  0  0  0  0  0  0  0  0
   24.4823  -18.0433  -17.8557 C   0  0  2  0  0  0  0  0  0  0  0  0
   25.3640  -18.6430  -16.8735 N   0  0  0  0  0  0  0  0  0  0  0  0
   24.1177  -19.1085  -18.8270 C   0  0  0  0  0  0  0  0  0  0  0  0
   23.0101  -19.1164  -19.4452 O   0  0  0  0  0  0  0  0  0  0  0  0
   25.0102  -20.1460  -19.0832 O   0  0  0  0  0  0  0  0  0  0  0  0
  1  2  1  0
  2  3  2  0
  2 12  1  0
  3  4  1  0
  4  5  2  0
  5  6  1  0
  7  6  1  0
  7  8  1  1
  9 16  1  0
  9  7  1  0
 10  9  2  0
 11  5  1  0
 12 11  2  0
 13 14  1  0
 15 14  1  6
 15 17  1  0
 15 16  1  0
 17 21  1  0
 18 17  2  0
 20 19  1  6
 20 22  1  0
 21 20  1  0
 22 23  2  0
 22 24  1  0
M  END
$$$$
