YSA.pdb
     RDKit          3D

 24 24  0  0  1  0  0  0  0  0999 V2000
   13.3886  -22.0174   -9.2379 O   0  0  0  0  0  0  0  0  0  0  0  0
   13.2121  -22.2009   -7.8629 C   0  0  0  0  0  0  0  0  0  0  0  0
   13.9137  -21.3897   -6.9907 C   0  0  0  0  0  0  0  0  0  0  0  0
   13.7724  -21.5331   -5.6243 C   0  0  0  0  0  0  0  0  0  0  0  0
   12.9284  -22.4886   -5.0970 C   0  0  0  0  0  0  0  0  0  0  0  0
   12.7910  -22.6261   -3.6241 C   0  0  0  0  0  0  0  0  0  0  0  0
   14.0647  -23.2313   -3.0775 C   0  0  2  0  0  0  0  0  0  0  0  0
   14.2470  -24.5207   -3.6785 N   0  0  0  0  0  0  0  0  0  0  0  0
   14.0662  -23.2787   -1.5976 C   0  0  0  0  0  0  0  0  0  0  0  0
   13.4824  -24.2295   -1.0177 O   0  0  0  0  0  0  0  0  0  0  0  0
   12.2316  -23.2944   -5.9753 C   0  0  0  0  0  0  0  0  0  0  0  0
   12.3653  -23.1598   -7.3501 C   0  0  0  0  0  0  0  0  0  0  0  0
   15.9416  -20.3199    0.5044 O   0  0  0  0  0  0  0  0  0  0  0  0
   15.7794  -21.4828    1.2294 C   0  0  0  0  0  0  0  0  0  0  0  0
   14.6813  -22.3710    0.6789 C   0  0  2  0  0  0  0  0  0  0  0  0
   14.6933  -22.3063   -0.7743 N   0  0  0  0  0  0  0  0  0  0  0  0
   13.3561  -22.0016    1.2287 C   0  0  0  0  0  0  0  0  0  0  0  0
   12.6869  -21.1028    0.6271 O   0  0  0  0  0  0  0  0  0  0  0  0
   11.0311  -23.0768    4.0336 C   0  0  0  0  0  0  0  0  0  0  0  0
   11.4778  -22.1809    2.9112 C   0  0  2  0  0  0  0  0  0  0  0  0
   12.7677  -22.5693    2.3754 N   0  0  0  0  0  0  0  0  0  0  0  0
   11.6239  -20.8040    3.4530 C   0  0  0  0  0  0  0  0  0  0  0  0
   12.7488  -20.2259    3.5497 O   0  0  0  0  0  0  0  0  0  0  0  0
   10.4972  -20.1040    3.8761 O   0  0  0  0  0  0  0  0  0  0  0  0
  1  2  1  0
  2  3  2  0
  2 12  1  0
  3  4  1  0
  4  5  2  0
  5  6  1  0
  7  6  1  0
  7  8  1  6
  9 16  1  0
  9  7  1  0
 10  9  2  0
 11  5  1  0
 12 11  2  0
 13 14  1  0
 15 14  1  1
 15 17  1  0
 15 16  1  0
 17 21  1  0
 18 17  2  0
 20 19  1  1
 20 22  1  0
 21 20  1  0
 22 23  2  0
 22 24  1  0
M  END
$$$$
