YSA.pdb
     RDKit          3D

 24 24  0  0  1  0  0  0  0  0999 V2000
   16.0877  -15.8021  -15.4120 O   0  0  0  0  0  0  0  0  0  0  0  0
   16.8490  -14.6314  -15.4876 C   0  0  0  0  0  0  0  0  0  0  0  0
   18.2167  -14.7403  -15.6563 C   0  0  0  0  0  0  0  0  0  0  0  0
   19.0104  -13.6128  -15.7365 C   0  0  0  0  0  0  0  0  0  0  0  0
   18.4580  -12.3515  -15.6501 C   0  0  0  0  0  0  0  0  0  0  0  0
   19.3297  -11.1517  -15.7387 C   0  0  0  0  0  0  0  0  0  0  0  0
   19.0706  -10.4668  -17.0620 C   0  0  2  0  0  0  0  0  0  0  0  0
   19.5700  -11.3069  -18.1116 N   0  0  0  0  0  0  0  0  0  0  0  0
   19.6360   -9.0988  -17.0990 C   0  0  0  0  0  0  0  0  0  0  0  0
   20.8545   -8.9502  -17.3716 O   0  0  0  0  0  0  0  0  0  0  0  0
   17.0912  -12.2521  -15.4815 C   0  0  0  0  0  0  0  0  0  0  0  0
   16.2835  -13.3776  -15.3997 C   0  0  0  0  0  0  0  0  0  0  0  0
   17.4410   -5.7264  -15.8440 O   0  0  0  0  0  0  0  0  0  0  0  0
   18.3678   -5.5547  -16.8518 C   0  0  0  0  0  0  0  0  0  0  0  0
   19.4717   -6.5929  -16.8192 C   0  0  2  0  0  0  0  0  0  0  0  0
   18.8825   -7.9227  -16.8431 N   0  0  0  0  0  0  0  0  0  0  0  0
   20.3551   -6.4108  -15.6439 C   0  0  0  0  0  0  0  0  0  0  0  0
   19.9805   -6.8994  -14.5310 O   0  0  0  0  0  0  0  0  0  0  0  0
   23.7662   -4.9431  -14.8420 C   0  0  0  0  0  0  0  0  0  0  0  0
   22.4406   -5.5624  -14.4941 C   0  0  2  0  0  0  0  0  0  0  0  0
   21.5900   -5.7340  -15.6556 N   0  0  0  0  0  0  0  0  0  0  0  0
   21.7338   -4.6422  -13.5643 C   0  0  0  0  0  0  0  0  0  0  0  0
   20.7390   -3.9421  -13.9242 O   0  0  0  0  0  0  0  0  0  0  0  0
   22.1625   -4.5287  -12.2445 O   0  0  0  0  0  0  0  0  0  0  0  0
  1  2  1  0
  2  3  2  0
  2 12  1  0
  3  4  1  0
  4  5  2  0
  5  6  1  0
  7  6  1  0
  7  8  1  6
  9 16  1  0
  9  7  1  0
 10  9  2  0
 11  5  1  0
 12 11  2  0
 13 14  1  0
 15 14  1  1
 15 17  1  0
 15 16  1  0
 17 21  1  0
 18 17  2  0
 20 19  1  6
 20 22  1  0
 21 20  1  0
 22 23  2  0
 22 24  1  0
M  END
$$$$
