YSA.pdb
     RDKit          3D

 24 24  0  0  1  0  0  0  0  0999 V2000
   23.5923    1.6986   -5.0830 O   0  0  0  0  0  0  0  0  0  0  0  0
   24.4104    1.4729   -6.1945 C   0  0  0  0  0  0  0  0  0  0  0  0
   25.6704    0.9414   -5.9927 C   0  0  0  0  0  0  0  0  0  0  0  0
   26.5146    0.7008   -7.0591 C   0  0  0  0  0  0  0  0  0  0  0  0
   26.1211    0.9850   -8.3506 C   0  0  0  0  0  0  0  0  0  0  0  0
   27.0446    0.7185   -9.4835 C   0  0  0  0  0  0  0  0  0  0  0  0
   27.7535    2.0065   -9.8381 C   0  0  2  0  0  0  0  0  0  0  0  0
   28.5450    2.4118   -8.7129 N   0  0  0  0  0  0  0  0  0  0  0  0
   26.8089    3.0546  -10.2871 C   0  0  0  0  0  0  0  0  0  0  0  0
   26.4453    3.9380   -9.4695 O   0  0  0  0  0  0  0  0  0  0  0  0
   24.8611    1.5156   -8.5429 C   0  0  0  0  0  0  0  0  0  0  0  0
   24.0041    1.7617   -7.4795 C   0  0  0  0  0  0  0  0  0  0  0  0
   27.1335    5.4738  -13.1121 O   0  0  0  0  0  0  0  0  0  0  0  0
   25.9354    4.8177  -13.3077 C   0  0  0  0  0  0  0  0  0  0  0  0
   25.3892    4.1987  -12.0364 C   0  0  2  0  0  0  0  0  0  0  0  0
   26.2763    3.1312  -11.6012 N   0  0  0  0  0  0  0  0  0  0  0  0
   24.0022    3.7119  -12.2209 C   0  0  0  0  0  0  0  0  0  0  0  0
   23.8319    2.4890  -12.5266 O   0  0  0  0  0  0  0  0  0  0  0  0
   20.4587    5.0116  -11.8042 C   0  0  0  0  0  0  0  0  0  0  0  0
   21.4896    3.9893  -12.1968 C   0  0  2  0  0  0  0  0  0  0  0  0
   22.8423    4.4987  -12.0843 N   0  0  0  0  0  0  0  0  0  0  0  0
   21.2692    3.6401  -13.6252 C   0  0  0  0  0  0  0  0  0  0  0  0
   22.0351    4.0456  -14.5515 O   0  0  0  0  0  0  0  0  0  0  0  0
   20.1878    2.8392  -13.9827 O   0  0  0  0  0  0  0  0  0  0  0  0
  1  2  1  0
  2  3  2  0
  2 12  1  0
  3  4  1  0
  4  5  2  0
  5  6  1  0
  7  6  1  0
  7  8  1  1
  9 16  1  0
  9  7  1  0
 10  9  2  0
 11  5  1  0
 12 11  2  0
 13 14  1  0
 15 14  1  6
 15 17  1  0
 15 16  1  0
 17 21  1  0
 18 17  2  0
 20 19  1  6
 20 22  1  0
 21 20  1  0
 22 23  2  0
 22 24  1  0
M  END
$$$$
