YSA.pdb
     RDKit          3D

 24 24  0  0  1  0  0  0  0  0999 V2000
   22.9783  -17.8118  -15.5867 O   0  0  0  0  0  0  0  0  0  0  0  0
   23.1555  -16.4297  -15.4688 C   0  0  0  0  0  0  0  0  0  0  0  0
   22.2595  -15.5902  -16.1040 C   0  0  0  0  0  0  0  0  0  0  0  0
   22.3932  -14.2183  -16.0166 C   0  0  0  0  0  0  0  0  0  0  0  0
   23.4234  -13.6528  -15.2939 C   0  0  0  0  0  0  0  0  0  0  0  0
   23.5490  -12.1747  -15.2126 C   0  0  0  0  0  0  0  0  0  0  0  0
   23.9710  -11.6535  -16.5682 C   0  0  2  0  0  0  0  0  0  0  0  0
   25.3396  -12.0215  -16.7883 N   0  0  0  0  0  0  0  0  0  0  0  0
   23.7362  -10.1976  -16.7009 C   0  0  0  0  0  0  0  0  0  0  0  0
   24.6398   -9.3995  -16.3436 O   0  0  0  0  0  0  0  0  0  0  0  0
   24.3136  -14.4986  -14.6627 C   0  0  0  0  0  0  0  0  0  0  0  0
   24.1896  -15.8785  -14.7432 C   0  0  0  0  0  0  0  0  0  0  0  0
   20.0848   -8.5987  -18.1328 O   0  0  0  0  0  0  0  0  0  0  0  0
   21.2646   -7.9213  -18.3637 C   0  0  0  0  0  0  0  0  0  0  0  0
   22.3175   -8.1969  -17.3088 C   0  0  2  0  0  0  0  0  0  0  0  0
   22.5388   -9.6315  -17.2131 N   0  0  0  0  0  0  0  0  0  0  0  0
   21.9401   -7.6165  -15.9990 C   0  0  0  0  0  0  0  0  0  0  0  0
   21.2629   -8.3353  -15.1975 O   0  0  0  0  0  0  0  0  0  0  0  0
   22.5149   -4.4166  -14.0310 C   0  0  0  0  0  0  0  0  0  0  0  0
   21.9227   -5.7796  -14.2622 C   0  0  2  0  0  0  0  0  0  0  0  0
   22.2726   -6.3199  -15.5613 N   0  0  0  0  0  0  0  0  0  0  0  0
   20.4420   -5.6493  -14.2251 C   0  0  0  0  0  0  0  0  0  0  0  0
   19.7352   -5.6097  -15.2777 O   0  0  0  0  0  0  0  0  0  0  0  0
   19.7854   -5.5660  -13.0002 O   0  0  0  0  0  0  0  0  0  0  0  0
  1  2  1  0
  2  3  2  0
  2 12  1  0
  3  4  1  0
  4  5  2  0
  5  6  1  0
  7  6  1  0
  7  8  1  1
  9 16  1  0
  9  7  1  0
 10  9  2  0
 11  5  1  0
 12 11  2  0
 13 14  1  0
 15 14  1  6
 15 17  1  0
 15 16  1  0
 17 21  1  0
 18 17  2  0
 20 19  1  6
 20 22  1  0
 21 20  1  0
 22 23  2  0
 22 24  1  0
M  END
$$$$
