YSA.pdb
     RDKit          3D

 24 24  0  0  1  0  0  0  0  0999 V2000
   18.9099  -13.4618  -20.1198 O   0  0  0  0  0  0  0  0  0  0  0  0
   18.8617  -12.3210  -19.3124 C   0  0  0  0  0  0  0  0  0  0  0  0
   17.7241  -12.0877  -18.5624 C   0  0  0  0  0  0  0  0  0  0  0  0
   17.6297  -10.9747  -17.7500 C   0  0  0  0  0  0  0  0  0  0  0  0
   18.6675  -10.0694  -17.6674 C   0  0  0  0  0  0  0  0  0  0  0  0
   18.5455   -8.8787  -16.7873 C   0  0  0  0  0  0  0  0  0  0  0  0
   19.3230   -9.1392  -15.5165 C   0  0  2  0  0  0  0  0  0  0  0  0
   18.6548  -10.1737  -14.7815 N   0  0  0  0  0  0  0  0  0  0  0  0
   19.5215   -7.9042  -14.7242 C   0  0  0  0  0  0  0  0  0  0  0  0
   18.6441   -7.5687  -13.8885 O   0  0  0  0  0  0  0  0  0  0  0  0
   19.7999  -10.3102  -18.4198 C   0  0  0  0  0  0  0  0  0  0  0  0
   19.9064  -11.4249  -19.2396 C   0  0  0  0  0  0  0  0  0  0  0  0
   22.4263   -4.4070  -13.0468 O   0  0  0  0  0  0  0  0  0  0  0  0
   22.2103   -5.6195  -13.6692 C   0  0  0  0  0  0  0  0  0  0  0  0
   20.7800   -5.7923  -14.1406 C   0  0  2  0  0  0  0  0  0  0  0  0
   20.6555   -7.0582  -14.8463 N   0  0  0  0  0  0  0  0  0  0  0  0
   20.3440   -4.6547  -14.9835 C   0  0  0  0  0  0  0  0  0  0  0  0
   20.7960   -4.5800  -16.1700 O   0  0  0  0  0  0  0  0  0  0  0  0
   17.7520   -1.9296  -15.0143 C   0  0  0  0  0  0  0  0  0  0  0  0
   19.0921   -2.4971  -15.3938 C   0  0  2  0  0  0  0  0  0  0  0  0
   19.4601   -3.6366  -14.5767 N   0  0  0  0  0  0  0  0  0  0  0  0
   20.1174   -1.4444  -15.1668 C   0  0  0  0  0  0  0  0  0  0  0  0
   20.1109   -0.3411  -15.7926 O   0  0  0  0  0  0  0  0  0  0  0  0
   21.1321   -1.6561  -14.2372 O   0  0  0  0  0  0  0  0  0  0  0  0
  1  2  1  0
  2  3  2  0
  2 12  1  0
  3  4  1  0
  4  5  2  0
  5  6  1  0
  7  6  1  0
  7  8  1  1
  9 16  1  0
  9  7  1  0
 10  9  2  0
 11  5  1  0
 12 11  2  0
 13 14  1  0
 15 14  1  6
 15 17  1  0
 15 16  1  0
 17 21  1  0
 18 17  2  0
 20 19  1  1
 20 22  1  0
 21 20  1  0
 22 23  2  0
 22 24  1  0
M  END
$$$$
