YSA.pdb
     RDKit          3D

 24 24  0  0  1  0  0  0  0  0999 V2000
   29.1697  -19.1041   -3.6488 O   0  0  0  0  0  0  0  0  0  0  0  0
   28.5711  -19.6056   -4.8089 C   0  0  0  0  0  0  0  0  0  0  0  0
   27.2314  -19.9444   -4.7698 C   0  0  0  0  0  0  0  0  0  0  0  0
   26.5962  -20.4436   -5.8901 C   0  0  0  0  0  0  0  0  0  0  0  0
   27.2827  -20.6162   -7.0744 C   0  0  0  0  0  0  0  0  0  0  0  0
   26.5804  -21.1546   -8.2677 C   0  0  0  0  0  0  0  0  0  0  0  0
   26.1055  -19.9920   -9.1105 C   0  0  2  0  0  0  0  0  0  0  0  0
   25.0829  -19.2955   -8.3852 N   0  0  0  0  0  0  0  0  0  0  0  0
   25.6657  -20.4252  -10.4563 C   0  0  0  0  0  0  0  0  0  0  0  0
   24.4553  -20.2979  -10.7721 O   0  0  0  0  0  0  0  0  0  0  0  0
   28.6203  -20.2752   -7.1044 C   0  0  0  0  0  0  0  0  0  0  0  0
   29.2694  -19.7728   -5.9854 C   0  0  0  0  0  0  0  0  0  0  0  0
   27.5864  -20.9756  -14.9357 O   0  0  0  0  0  0  0  0  0  0  0  0
   27.6878  -21.0455  -13.5613 C   0  0  0  0  0  0  0  0  0  0  0  0
   26.3774  -20.7506  -12.8589 C   0  0  2  0  0  0  0  0  0  0  0  0
   26.5331  -20.9845  -11.4316 N   0  0  0  0  0  0  0  0  0  0  0  0
   25.2657  -21.5512  -13.4229 C   0  0  0  0  0  0  0  0  0  0  0  0
   25.2893  -22.8117  -13.2546 O   0  0  0  0  0  0  0  0  0  0  0  0
   21.9626  -20.9710  -15.2062 C   0  0  0  0  0  0  0  0  0  0  0  0
   23.0683  -21.8210  -14.6433 C   0  0  2  0  0  0  0  0  0  0  0  0
   24.1715  -21.0275  -14.1382 N   0  0  0  0  0  0  0  0  0  0  0  0
   23.6029  -22.6665  -15.7434 C   0  0  0  0  0  0  0  0  0  0  0  0
   23.0620  -23.7618  -16.0850 O   0  0  0  0  0  0  0  0  0  0  0  0
   24.7389  -22.2604  -16.4384 O   0  0  0  0  0  0  0  0  0  0  0  0
  1  2  1  0
  2  3  2  0
  2 12  1  0
  3  4  1  0
  4  5  2  0
  5  6  1  0
  7  6  1  0
  7  8  1  1
  9 16  1  0
  9  7  1  0
 10  9  2  0
 11  5  1  0
 12 11  2  0
 13 14  1  0
 15 14  1  6
 15 17  1  0
 15 16  1  0
 17 21  1  0
 18 17  2  0
 20 19  1  6
 20 22  1  0
 21 20  1  0
 22 23  2  0
 22 24  1  0
M  END
$$$$
