YSA.pdb
     RDKit          3D

 24 24  0  0  1  0  0  0  0  0999 V2000
   17.6911  -14.7011  -22.8480 O   0  0  0  0  0  0  0  0  0  0  0  0
   17.3584  -13.7223  -21.9062 C   0  0  0  0  0  0  0  0  0  0  0  0
   16.1298  -13.7986  -21.2772 C   0  0  0  0  0  0  0  0  0  0  0  0
   15.7564  -12.8552  -20.3400 C   0  0  0  0  0  0  0  0  0  0  0  0
   16.5998  -11.8147  -20.0092 C   0  0  0  0  0  0  0  0  0  0  0  0
   16.1786  -10.8106  -18.9984 C   0  0  0  0  0  0  0  0  0  0  0  0
   16.8867  -11.1136  -17.6968 C   0  0  2  0  0  0  0  0  0  0  0  0
   16.3455  -12.3283  -17.1596 N   0  0  0  0  0  0  0  0  0  0  0  0
   16.8130   -9.9795  -16.7477 C   0  0  0  0  0  0  0  0  0  0  0  0
   15.7901   -9.8529  -16.0277 O   0  0  0  0  0  0  0  0  0  0  0  0
   17.8248  -11.7462  -20.6423 C   0  0  0  0  0  0  0  0  0  0  0  0
   18.2111  -12.6881  -21.5856 C   0  0  0  0  0  0  0  0  0  0  0  0
   18.2827   -8.8879  -13.6096 O   0  0  0  0  0  0  0  0  0  0  0  0
   18.6949   -7.9865  -14.5696 C   0  0  0  0  0  0  0  0  0  0  0  0
   17.7104   -7.8553  -15.7148 C   0  0  2  0  0  0  0  0  0  0  0  0
   17.8372   -9.0081  -16.5928 N   0  0  0  0  0  0  0  0  0  0  0  0
   17.9017   -6.5855  -16.4536 C   0  0  0  0  0  0  0  0  0  0  0  0
   18.8786   -6.5048  -17.2641 O   0  0  0  0  0  0  0  0  0  0  0  0
   16.1670   -3.2240  -16.8288 C   0  0  0  0  0  0  0  0  0  0  0  0
   17.2376   -4.2392  -17.1205 C   0  0  2  0  0  0  0  0  0  0  0  0
   17.0826   -5.4464  -16.3328 N   0  0  0  0  0  0  0  0  0  0  0  0
   18.5490   -3.6415  -16.7547 C   0  0  0  0  0  0  0  0  0  0  0  0
   19.1567   -3.9375  -15.6812 O   0  0  0  0  0  0  0  0  0  0  0  0
   19.1513   -2.7202  -17.6073 O   0  0  0  0  0  0  0  0  0  0  0  0
  1  2  1  0
  2  3  2  0
  2 12  1  0
  3  4  1  0
  4  5  2  0
  5  6  1  0
  7  6  1  0
  7  8  1  1
  9 16  1  0
  9  7  1  0
 10  9  2  0
 11  5  1  0
 12 11  2  0
 13 14  1  0
 15 14  1  1
 15 17  1  0
 15 16  1  0
 17 21  1  0
 18 17  2  0
 20 19  1  1
 20 22  1  0
 21 20  1  0
 22 23  2  0
 22 24  1  0
M  END
$$$$
