YSA.pdb
     RDKit          3D

 24 24  0  0  1  0  0  0  0  0999 V2000
   31.1203    1.6140   11.4254 O   0  0  0  0  0  0  0  0  0  0  0  0
   30.4011    0.9598   10.4202 C   0  0  0  0  0  0  0  0  0  0  0  0
   29.7663    1.7215    9.4570 C   0  0  0  0  0  0  0  0  0  0  0  0
   29.0441    1.1208    8.4443 C   0  0  0  0  0  0  0  0  0  0  0  0
   28.9389   -0.2528    8.3696 C   0  0  0  0  0  0  0  0  0  0  0  0
   28.1573   -0.8786    7.2721 C   0  0  0  0  0  0  0  0  0  0  0  0
   26.6870   -0.7782    7.6120 C   0  0  2  0  0  0  0  0  0  0  0  0
   26.3841   -1.7663    8.6064 N   0  0  0  0  0  0  0  0  0  0  0  0
   25.8305   -0.8881    6.4092 C   0  0  0  0  0  0  0  0  0  0  0  0
   25.4678   -2.0278    6.0215 O   0  0  0  0  0  0  0  0  0  0  0  0
   29.5761   -1.0057    9.3357 C   0  0  0  0  0  0  0  0  0  0  0  0
   30.3045   -0.4136   10.3579 C   0  0  0  0  0  0  0  0  0  0  0  0
   22.6385    1.1215    3.3991 O   0  0  0  0  0  0  0  0  0  0  0  0
   23.5173    1.2120    4.4591 C   0  0  0  0  0  0  0  0  0  0  0  0
   24.5424    0.0955    4.4705 C   0  0  2  0  0  0  0  0  0  0  0  0
   25.3829    0.2259    5.6507 N   0  0  0  0  0  0  0  0  0  0  0  0
   25.3484    0.0844    3.2275 C   0  0  0  0  0  0  0  0  0  0  0  0
   26.3077    0.9136    3.1277 O   0  0  0  0  0  0  0  0  0  0  0  0
   25.4680   -1.7952   -0.0752 C   0  0  0  0  0  0  0  0  0  0  0  0
   25.9221   -0.7571    0.9137 C   0  0  2  0  0  0  0  0  0  0  0  0
   25.1394   -0.7779    2.1339 N   0  0  0  0  0  0  0  0  0  0  0  0
   25.7335    0.5812    0.2938 C   0  0  0  0  0  0  0  0  0  0  0  0
   24.6775    1.2648    0.4572 O   0  0  0  0  0  0  0  0  0  0  0  0
   26.7406    1.1241   -0.4997 O   0  0  0  0  0  0  0  0  0  0  0  0
  1  2  1  0
  2  3  2  0
  2 12  1  0
  3  4  1  0
  4  5  2  0
  5  6  1  0
  7  6  1  0
  7  8  1  1
  9 16  1  0
  9  7  1  0
 10  9  2  0
 11  5  1  0
 12 11  2  0
 13 14  1  0
 15 14  1  6
 15 17  1  0
 15 16  1  0
 17 21  1  0
 18 17  2  0
 20 19  1  6
 20 22  1  0
 21 20  1  0
 22 23  2  0
 22 24  1  0
M  END
$$$$
