YSA.pdb
     RDKit          3D

 24 24  0  0  1  0  0  0  0  0999 V2000
   19.5582  -10.4391  -23.5003 O   0  0  0  0  0  0  0  0  0  0  0  0
   19.1792   -9.8844  -22.2738 C   0  0  0  0  0  0  0  0  0  0  0  0
   19.9857   -8.9147  -21.7078 C   0  0  0  0  0  0  0  0  0  0  0  0
   19.6530   -8.3375  -20.4978 C   0  0  0  0  0  0  0  0  0  0  0  0
   18.5088   -8.7144  -19.8253 C   0  0  0  0  0  0  0  0  0  0  0  0
   18.1695   -8.0808  -18.5251 C   0  0  0  0  0  0  0  0  0  0  0  0
   19.1581   -8.5592  -17.4854 C   0  0  2  0  0  0  0  0  0  0  0  0
   18.8216   -9.9067  -17.1276 N   0  0  0  0  0  0  0  0  0  0  0  0
   19.2195   -7.6503  -16.3181 C   0  0  0  0  0  0  0  0  0  0  0  0
   18.2240   -7.5713  -15.5541 O   0  0  0  0  0  0  0  0  0  0  0  0
   17.7093   -9.6835  -20.3979 C   0  0  0  0  0  0  0  0  0  0  0  0
   18.0331  -10.2707  -21.6130 C   0  0  0  0  0  0  0  0  0  0  0  0
   22.7319   -6.7584  -14.8605 O   0  0  0  0  0  0  0  0  0  0  0  0
   21.6888   -6.4051  -14.0291 C   0  0  0  0  0  0  0  0  0  0  0  0
   20.4280   -6.0427  -14.7884 C   0  0  2  0  0  0  0  0  0  0  0  0
   20.3462   -6.8476  -15.9973 N   0  0  0  0  0  0  0  0  0  0  0  0
   20.3751   -4.5942  -15.0950 C   0  0  0  0  0  0  0  0  0  0  0  0
   21.1274   -4.1493  -16.0191 O   0  0  0  0  0  0  0  0  0  0  0  0
   18.4166   -1.5229  -14.0178 C   0  0  0  0  0  0  0  0  0  0  0  0
   19.5103   -2.2428  -14.7576 C   0  0  2  0  0  0  0  0  0  0  0  0
   19.5517   -3.6571  -14.4416 N   0  0  0  0  0  0  0  0  0  0  0  0
   20.8113   -1.6601  -14.3347 C   0  0  0  0  0  0  0  0  0  0  0  0
   21.6031   -2.2617  -13.5472 O   0  0  0  0  0  0  0  0  0  0  0  0
   21.1953   -0.4085  -14.8084 O   0  0  0  0  0  0  0  0  0  0  0  0
  1  2  1  0
  2  3  2  0
  2 12  1  0
  3  4  1  0
  4  5  2  0
  5  6  1  0
  7  6  1  0
  7  8  1  1
  9 16  1  0
  9  7  1  0
 10  9  2  0
 11  5  1  0
 12 11  2  0
 13 14  1  0
 15 14  1  6
 15 17  1  0
 15 16  1  0
 17 21  1  0
 18 17  2  0
 20 19  1  1
 20 22  1  0
 21 20  1  0
 22 23  2  0
 22 24  1  0
M  END
$$$$
