WKK.pdb
     RDKit          3D

 33 34  0  0  1  0  0  0  0  0999 V2000
    6.6638  -17.6142   25.1195 N   0  0  0  0  0  0  0  0  0  0  0  0
    6.9819  -16.3177   24.5574 C   0  0  1  0  0  0  0  0  0  0  0  0
    8.0495  -15.6670   25.4049 C   0  0  0  0  0  0  0  0  0  0  0  0
    7.3690  -14.8051   26.4030 C   0  0  0  0  0  0  0  0  0  0  0  0
    6.7222  -15.1938   27.5696 C   0  0  0  0  0  0  0  0  0  0  0  0
    6.2379  -14.1106   28.1941 N   0  0  0  0  0  0  0  0  0  0  0  0
    6.5525  -13.0328   27.4656 C   0  0  0  0  0  0  0  0  0  0  0  0
    6.2977  -11.6895   27.6550 C   0  0  0  0  0  0  0  0  0  0  0  0
    6.7508  -10.7906   26.7253 C   0  0  0  0  0  0  0  0  0  0  0  0
    7.4582  -11.1541   25.5921 C   0  0  0  0  0  0  0  0  0  0  0  0
    7.7151  -12.4941   25.3985 C   0  0  0  0  0  0  0  0  0  0  0  0
    7.2674  -13.4132   26.3229 C   0  0  0  0  0  0  0  0  0  0  0  0
    7.3678  -16.4688   23.1558 C   0  0  0  0  0  0  0  0  0  0  0  0
    7.7821  -17.5803   22.7499 O   0  0  0  0  0  0  0  0  0  0  0  0
    7.3062  -15.4187   22.1931 N   0  0  0  0  0  0  0  0  0  0  0  0
    7.8987  -15.4341   20.8964 C   0  0  1  0  0  0  0  0  0  0  0  0
    7.6855  -14.2101   20.0847 C   0  0  0  0  0  0  0  0  0  0  0  0
    8.2671  -14.3280   18.6992 C   0  0  0  0  0  0  0  0  0  0  0  0
    7.8787  -13.1570   17.8256 C   0  0  0  0  0  0  0  0  0  0  0  0
    8.3945  -13.4235   16.4209 C   0  0  0  0  0  0  0  0  0  0  0  0
    7.8550  -14.6717   15.8979 N   0  0  0  0  0  0  0  0  0  0  0  0
    9.3807  -15.6612   21.0818 C   0  0  0  0  0  0  0  0  0  0  0  0
   10.0428  -15.0136   21.9322 O   0  0  0  0  0  0  0  0  0  0  0  0
   10.0917  -16.6186   20.3013 N   0  0  0  0  0  0  0  0  0  0  0  0
   11.4815  -16.9499   20.5424 C   0  0  1  0  0  0  0  0  0  0  0  0
   11.6137  -18.4670   20.7996 C   0  0  0  0  0  0  0  0  0  0  0  0
   13.0656  -18.7826   20.9495 C   0  0  0  0  0  0  0  0  0  0  0  0
   13.4121  -20.2184   21.1624 C   0  0  0  0  0  0  0  0  0  0  0  0
   14.8520  -20.4723   21.4092 C   0  0  0  0  0  0  0  0  0  0  0  0
   15.2458  -21.8401   21.5385 N   0  0  0  0  0  0  0  0  0  0  0  0
   12.3238  -16.5487   19.3884 C   0  0  0  0  0  0  0  0  0  0  0  0
   13.6000  -15.9994   19.5614 O   0  0  0  0  0  0  0  0  0  0  0  0
   11.9257  -16.6856   18.2054 O   0  0  0  0  0  0  0  0  0  0  0  0
  2  1  1  1
  3  2  1  0
  3  4  1  0
  4  5  2  0
  5  6  1  0
  7  8  2  0
  7  6  1  0
  9  8  1  0
 10  9  2  0
 11 10  1  0
 11 12  2  0
 12  4  1  0
 12  7  1  0
 13  2  1  0
 14 13  2  0
 15 13  1  0
 16 17  1  1
 16 15  1  0
 18 17  1  0
 18 19  1  0
 20 19  1  0
 21 20  1  0
 22 16  1  0
 23 22  2  0
 24 22  1  0
 25 31  1  0
 25 24  1  0
 25 26  1  6
 27 26  1  0
 28 27  1  0
 29 28  1  0
 30 29  1  0
 31 32  1  0
 33 31  2  0
M  END
$$$$
