WKK.pdb
     RDKit          3D

 33 34  0  0  1  0  0  0  0  0999 V2000
    6.7042  -18.2559   24.7375 N   0  0  0  0  0  0  0  0  0  0  0  0
    6.8316  -16.8387   24.4665 C   0  0  1  0  0  0  0  0  0  0  0  0
    7.7028  -16.2147   25.5311 C   0  0  0  0  0  0  0  0  0  0  0  0
    6.9441  -15.0893   26.1312 C   0  0  0  0  0  0  0  0  0  0  0  0
    5.6487  -15.1024   26.6336 C   0  0  0  0  0  0  0  0  0  0  0  0
    5.3328  -13.8804   27.0862 N   0  0  0  0  0  0  0  0  0  0  0  0
    6.3858  -13.0775   26.8912 C   0  0  0  0  0  0  0  0  0  0  0  0
    6.5870  -11.7414   27.1733 C   0  0  0  0  0  0  0  0  0  0  0  0
    7.7919  -11.1706   26.8570 C   0  0  0  0  0  0  0  0  0  0  0  0
    8.8334  -11.8632   26.2635 C   0  0  0  0  0  0  0  0  0  0  0  0
    8.6374  -13.1974   25.9800 C   0  0  0  0  0  0  0  0  0  0  0  0
    7.4320  -13.7891   26.2909 C   0  0  0  0  0  0  0  0  0  0  0  0
    7.3415  -16.6394   23.1113 C   0  0  0  0  0  0  0  0  0  0  0  0
    8.0270  -17.5417   22.5748 O   0  0  0  0  0  0  0  0  0  0  0  0
    7.1109  -15.4649   22.3362 N   0  0  0  0  0  0  0  0  0  0  0  0
    7.7651  -15.1234   21.1164 C   0  0  1  0  0  0  0  0  0  0  0  0
    7.5001  -13.7522   20.6143 C   0  0  0  0  0  0  0  0  0  0  0  0
    8.2923  -13.4290   19.3734 C   0  0  0  0  0  0  0  0  0  0  0  0
    7.7055  -14.0870   18.1454 C   0  0  0  0  0  0  0  0  0  0  0  0
    8.5405  -13.6754   16.9439 C   0  0  0  0  0  0  0  0  0  0  0  0
    8.0240  -14.2776   15.7219 N   0  0  0  0  0  0  0  0  0  0  0  0
    9.2493  -15.2981   21.3380 C   0  0  0  0  0  0  0  0  0  0  0  0
    9.9147  -14.4697   22.0102 O   0  0  0  0  0  0  0  0  0  0  0  0
    9.9586  -16.4088   20.7952 N   0  0  0  0  0  0  0  0  0  0  0  0
   11.3783  -16.6098   21.0034 C   0  0  1  0  0  0  0  0  0  0  0  0
   11.6575  -18.1093   21.2462 C   0  0  0  0  0  0  0  0  0  0  0  0
   11.4599  -18.3836   22.7007 C   0  0  0  0  0  0  0  0  0  0  0  0
   11.7665  -19.7698   23.1604 C   0  0  0  0  0  0  0  0  0  0  0  0
   11.6264  -19.9770   24.6219 C   0  0  0  0  0  0  0  0  0  0  0  0
   11.9495  -21.2787   25.1158 N   0  0  0  0  0  0  0  0  0  0  0  0
   12.1534  -16.1251   19.8345 C   0  0  0  0  0  0  0  0  0  0  0  0
   13.2956  -15.3293   19.9845 O   0  0  0  0  0  0  0  0  0  0  0  0
   11.8160  -16.4093   18.6588 O   0  0  0  0  0  0  0  0  0  0  0  0
  2  1  1  1
  3  2  1  0
  3  4  1  0
  4  5  2  0
  5  6  1  0
  7  8  2  0
  7  6  1  0
  9  8  1  0
 10  9  2  0
 11 10  1  0
 11 12  2  0
 12  4  1  0
 12  7  1  0
 13  2  1  0
 14 13  2  0
 15 13  1  0
 16 17  1  1
 16 15  1  0
 18 17  1  0
 18 19  1  0
 20 19  1  0
 21 20  1  0
 22 16  1  0
 23 22  2  0
 24 22  1  0
 25 31  1  0
 25 24  1  0
 25 26  1  6
 27 26  1  0
 28 27  1  0
 29 28  1  0
 30 29  1  0
 31 32  1  0
 33 31  2  0
M  END
$$$$
