WKK.pdb
     RDKit          3D

 33 34  0  0  1  0  0  0  0  0999 V2000
    7.1371  -17.6665   25.4188 N   0  0  0  0  0  0  0  0  0  0  0  0
    7.4492  -16.3900   24.8095 C   0  0  1  0  0  0  0  0  0  0  0  0
    8.6137  -15.7698   25.5451 C   0  0  0  0  0  0  0  0  0  0  0  0
    8.0603  -14.8691   26.5865 C   0  0  0  0  0  0  0  0  0  0  0  0
    8.0802  -15.0414   27.9651 C   0  0  0  0  0  0  0  0  0  0  0  0
    7.4736  -14.0007   28.5541 N   0  0  0  0  0  0  0  0  0  0  0  0
    7.0619  -13.1606   27.5970 C   0  0  0  0  0  0  0  0  0  0  0  0
    6.3934  -11.9546   27.6584 C   0  0  0  0  0  0  0  0  0  0  0  0
    6.0963  -11.3003   26.4917 C   0  0  0  0  0  0  0  0  0  0  0  0
    6.4311  -11.7832   25.2381 C   0  0  0  0  0  0  0  0  0  0  0  0
    7.0987  -12.9869   25.1715 C   0  0  0  0  0  0  0  0  0  0  0  0
    7.4062  -13.6596   26.3345 C   0  0  0  0  0  0  0  0  0  0  0  0
    7.6983  -16.5728   23.3810 C   0  0  0  0  0  0  0  0  0  0  0  0
    7.8447  -17.7323   22.9272 O   0  0  0  0  0  0  0  0  0  0  0  0
    7.7894  -15.5026   22.4430 N   0  0  0  0  0  0  0  0  0  0  0  0
    7.8943  -15.6350   21.0273 C   0  0  1  0  0  0  0  0  0  0  0  0
    7.5489  -14.4206   20.2472 C   0  0  0  0  0  0  0  0  0  0  0  0
    7.5687  -14.6652   18.7601 C   0  0  0  0  0  0  0  0  0  0  0  0
    7.3157  -13.3958   17.9789 C   0  0  0  0  0  0  0  0  0  0  0  0
    7.1396  -13.7684   16.5159 C   0  0  0  0  0  0  0  0  0  0  0  0
    6.7936  -12.5979   15.7202 N   0  0  0  0  0  0  0  0  0  0  0  0
    9.3158  -16.0423   20.7179 C   0  0  0  0  0  0  0  0  0  0  0  0
    9.6506  -16.4391   19.5727 O   0  0  0  0  0  0  0  0  0  0  0  0
   10.3379  -15.9943   21.7101 N   0  0  0  0  0  0  0  0  0  0  0  0
   11.6830  -16.4786   21.4739 C   0  0  1  0  0  0  0  0  0  0  0  0
   12.4828  -15.4182   20.6859 C   0  0  0  0  0  0  0  0  0  0  0  0
   13.8260  -15.9926   20.3761 C   0  0  0  0  0  0  0  0  0  0  0  0
   14.7006  -15.1835   19.4776 C   0  0  0  0  0  0  0  0  0  0  0  0
   15.9734  -15.8447   19.1015 C   0  0  0  0  0  0  0  0  0  0  0  0
   16.7514  -15.2023   18.0891 N   0  0  0  0  0  0  0  0  0  0  0  0
   12.3621  -16.7863   22.7569 C   0  0  0  0  0  0  0  0  0  0  0  0
   13.5093  -17.5871   22.8116 O   0  0  0  0  0  0  0  0  0  0  0  0
   11.9349  -16.3400   23.8501 O   0  0  0  0  0  0  0  0  0  0  0  0
  2  1  1  1
  3  2  1  0
  3  4  1  0
  4  5  2  0
  5  6  1  0
  7  8  2  0
  7  6  1  0
  9  8  1  0
 10  9  2  0
 11 10  1  0
 11 12  2  0
 12  4  1  0
 12  7  1  0
 13  2  1  0
 14 13  2  0
 15 13  1  0
 16 17  1  6
 16 15  1  0
 18 17  1  0
 18 19  1  0
 20 19  1  0
 21 20  1  0
 22 16  1  0
 23 22  2  0
 24 22  1  0
 25 31  1  0
 25 24  1  0
 25 26  1  1
 27 26  1  0
 28 27  1  0
 29 28  1  0
 30 29  1  0
 31 32  1  0
 33 31  2  0
M  END
$$$$
