WKK.pdb
     RDKit          3D

 33 34  0  0  1  0  0  0  0  0999 V2000
    6.7049  -17.0894   25.2075 N   0  0  0  0  0  0  0  0  0  0  0  0
    7.4808  -16.2106   24.3567 C   0  0  1  0  0  0  0  0  0  0  0  0
    8.6077  -15.6159   25.1679 C   0  0  0  0  0  0  0  0  0  0  0  0
    8.0077  -14.6938   26.1639 C   0  0  0  0  0  0  0  0  0  0  0  0
    7.6924  -14.9561   27.4914 C   0  0  0  0  0  0  0  0  0  0  0  0
    7.1659  -13.8572   28.0510 N   0  0  0  0  0  0  0  0  0  0  0  0
    7.1314  -12.8920   27.1245 C   0  0  0  0  0  0  0  0  0  0  0  0
    6.6913  -11.5848   27.1754 C   0  0  0  0  0  0  0  0  0  0  0  0
    6.7799  -10.8103   26.0486 C   0  0  0  0  0  0  0  0  0  0  0  0
    7.2913  -11.2668   24.8457 C   0  0  0  0  0  0  0  0  0  0  0  0
    7.7321  -12.5713   24.7897 C   0  0  0  0  0  0  0  0  0  0  0  0
    7.6511  -13.3656   25.9132 C   0  0  0  0  0  0  0  0  0  0  0  0
    7.9400  -16.9434   23.1785 C   0  0  0  0  0  0  0  0  0  0  0  0
    8.0175  -18.1939   23.2253 O   0  0  0  0  0  0  0  0  0  0  0  0
    8.3157  -16.3248   21.9498 N   0  0  0  0  0  0  0  0  0  0  0  0
    8.8334  -16.9901   20.8000 C   0  0  1  0  0  0  0  0  0  0  0  0
    8.7599  -16.2211   19.5328 C   0  0  0  0  0  0  0  0  0  0  0  0
    7.8017  -15.0608   19.6168 C   0  0  0  0  0  0  0  0  0  0  0  0
    7.7754  -14.2603   18.3346 C   0  0  0  0  0  0  0  0  0  0  0  0
    6.7593  -13.1416   18.4965 C   0  0  0  0  0  0  0  0  0  0  0  0
    6.7549  -12.2711   17.3282 N   0  0  0  0  0  0  0  0  0  0  0  0
   10.2741  -17.3382   21.0926 C   0  0  0  0  0  0  0  0  0  0  0  0
   10.8859  -18.2133   20.4286 O   0  0  0  0  0  0  0  0  0  0  0  0
   11.0013  -16.6900   22.1329 N   0  0  0  0  0  0  0  0  0  0  0  0
   12.3678  -17.0366   22.4676 C   0  0  1  0  0  0  0  0  0  0  0  0
   13.3016  -15.8599   22.1088 C   0  0  0  0  0  0  0  0  0  0  0  0
   13.5134  -15.8759   20.6307 C   0  0  0  0  0  0  0  0  0  0  0  0
   14.4581  -14.8569   20.0864 C   0  0  0  0  0  0  0  0  0  0  0  0
   14.5683  -14.8498   18.6078 C   0  0  0  0  0  0  0  0  0  0  0  0
   15.4604  -13.8890   18.0390 N   0  0  0  0  0  0  0  0  0  0  0  0
   12.4868  -17.3664   23.9095 C   0  0  0  0  0  0  0  0  0  0  0  0
   13.6511  -17.9315   24.4439 O   0  0  0  0  0  0  0  0  0  0  0  0
   11.5456  -17.1519   24.7125 O   0  0  0  0  0  0  0  0  0  0  0  0
  2  1  1  1
  3  2  1  0
  3  4  1  0
  4  5  2  0
  5  6  1  0
  7  8  2  0
  7  6  1  0
  9  8  1  0
 10  9  2  0
 11 10  1  0
 11 12  2  0
 12  4  1  0
 12  7  1  0
 13  2  1  0
 14 13  2  0
 15 13  1  0
 16 17  1  6
 16 15  1  0
 18 17  1  0
 18 19  1  0
 20 19  1  0
 21 20  1  0
 22 16  1  0
 23 22  2  0
 24 22  1  0
 25 31  1  0
 25 24  1  0
 25 26  1  1
 27 26  1  0
 28 27  1  0
 29 28  1  0
 30 29  1  0
 31 32  1  0
 33 31  2  0
M  END
$$$$
