WKK.pdb
     RDKit          3D

 33 34  0  0  1  0  0  0  0  0999 V2000
    6.6085  -17.7901   24.1272 N   0  0  0  0  0  0  0  0  0  0  0  0
    7.5593  -16.7552   23.7765 C   0  0  1  0  0  0  0  0  0  0  0  0
    8.1340  -16.1703   25.0451 C   0  0  0  0  0  0  0  0  0  0  0  0
    7.1664  -15.1688   25.5579 C   0  0  0  0  0  0  0  0  0  0  0  0
    5.8916  -15.3917   26.0636 C   0  0  0  0  0  0  0  0  0  0  0  0
    5.3418  -14.2219   26.4204 N   0  0  0  0  0  0  0  0  0  0  0  0
    6.2235  -13.2492   26.1602 C   0  0  0  0  0  0  0  0  0  0  0  0
    6.1614  -11.8816   26.3365 C   0  0  0  0  0  0  0  0  0  0  0  0
    7.2381  -11.1161   25.9731 C   0  0  0  0  0  0  0  0  0  0  0  0
    8.4002  -11.6393   25.4323 C   0  0  0  0  0  0  0  0  0  0  0  0
    8.4672  -13.0042   25.2544 C   0  0  0  0  0  0  0  0  0  0  0  0
    7.3940  -13.7907   25.6141 C   0  0  0  0  0  0  0  0  0  0  0  0
    8.5753  -17.3021   22.8794 C   0  0  0  0  0  0  0  0  0  0  0  0
    9.0527  -18.4377   23.1126 O   0  0  0  0  0  0  0  0  0  0  0  0
    9.0755  -16.6216   21.7304 N   0  0  0  0  0  0  0  0  0  0  0  0
   10.2440  -16.9705   20.9917 C   0  0  1  0  0  0  0  0  0  0  0  0
   10.6087  -16.0355   19.8985 C   0  0  0  0  0  0  0  0  0  0  0  0
   11.8292  -16.4857   19.1373 C   0  0  0  0  0  0  0  0  0  0  0  0
   11.4861  -17.5137   18.0833 C   0  0  0  0  0  0  0  0  0  0  0  0
   12.7838  -18.0103   17.4673 C   0  0  0  0  0  0  0  0  0  0  0  0
   12.5191  -18.9593   16.3939 N   0  0  0  0  0  0  0  0  0  0  0  0
   11.3870  -17.0623   21.9754 C   0  0  0  0  0  0  0  0  0  0  0  0
   11.6008  -16.1555   22.8198 O   0  0  0  0  0  0  0  0  0  0  0  0
   12.2714  -18.1798   21.9886 N   0  0  0  0  0  0  0  0  0  0  0  0
   13.2754  -18.3728   23.0153 C   0  0  1  0  0  0  0  0  0  0  0  0
   13.2445  -19.8393   23.4988 C   0  0  0  0  0  0  0  0  0  0  0  0
   14.3260  -20.0109   24.5142 C   0  0  0  0  0  0  0  0  0  0  0  0
   14.5548  -21.4001   25.0089 C   0  0  0  0  0  0  0  0  0  0  0  0
   15.5594  -21.5077   26.0942 C   0  0  0  0  0  0  0  0  0  0  0  0
   16.8666  -21.0072   25.8057 N   0  0  0  0  0  0  0  0  0  0  0  0
   14.6242  -18.0293   22.5007 C   0  0  0  0  0  0  0  0  0  0  0  0
   14.9560  -18.1699   21.1477 O   0  0  0  0  0  0  0  0  0  0  0  0
   15.5266  -17.5971   23.2594 O   0  0  0  0  0  0  0  0  0  0  0  0
  2  1  1  1
  3  2  1  0
  3  4  1  0
  4  5  2  0
  5  6  1  0
  7  8  2  0
  7  6  1  0
  9  8  1  0
 10  9  2  0
 11 10  1  0
 11 12  2  0
 12  4  1  0
 12  7  1  0
 13  2  1  0
 14 13  2  0
 15 13  1  0
 16 17  1  6
 16 15  1  0
 18 17  1  0
 18 19  1  0
 20 19  1  0
 21 20  1  0
 22 16  1  0
 23 22  2  0
 24 22  1  0
 25 31  1  0
 25 24  1  0
 25 26  1  6
 27 26  1  0
 28 27  1  0
 29 28  1  0
 30 29  1  0
 31 32  1  0
 33 31  2  0
M  END
$$$$
