WKK.pdb
     RDKit          3D

 33 34  0  0  1  0  0  0  0  0999 V2000
    6.7873  -17.4120   25.3447 N   0  0  0  0  0  0  0  0  0  0  0  0
    7.1742  -16.1853   24.6787 C   0  0  1  0  0  0  0  0  0  0  0  0
    8.4055  -15.6303   25.3550 C   0  0  0  0  0  0  0  0  0  0  0  0
    7.9537  -14.7485   26.4597 C   0  0  0  0  0  0  0  0  0  0  0  0
    7.8591  -15.0519   27.8123 C   0  0  0  0  0  0  0  0  0  0  0  0
    7.4068  -13.9805   28.4798 N   0  0  0  0  0  0  0  0  0  0  0  0
    7.2061  -12.9933   27.5987 C   0  0  0  0  0  0  0  0  0  0  0  0
    6.7540  -11.6987   27.7565 C   0  0  0  0  0  0  0  0  0  0  0  0
    6.6466  -10.8941   26.6526 C   0  0  0  0  0  0  0  0  0  0  0  0
    6.9689  -11.3075   25.3712 C   0  0  0  0  0  0  0  0  0  0  0  0
    7.4209  -12.5991   25.2084 C   0  0  0  0  0  0  0  0  0  0  0  0
    7.5355  -13.4233   26.3072 C   0  0  0  0  0  0  0  0  0  0  0  0
    7.3617  -16.4369   23.2512 C   0  0  0  0  0  0  0  0  0  0  0  0
    7.3697  -17.6185   22.8322 O   0  0  0  0  0  0  0  0  0  0  0  0
    7.5410  -15.4115   22.2766 N   0  0  0  0  0  0  0  0  0  0  0  0
    7.6747  -15.6052   20.8704 C   0  0  1  0  0  0  0  0  0  0  0  0
    7.5501  -14.3787   20.0443 C   0  0  0  0  0  0  0  0  0  0  0  0
    7.8149  -14.6377   18.5833 C   0  0  0  0  0  0  0  0  0  0  0  0
    7.8636  -13.3546   17.7854 C   0  0  0  0  0  0  0  0  0  0  0  0
    8.0708  -13.7148   16.3233 C   0  0  0  0  0  0  0  0  0  0  0  0
    8.0515  -12.5218   15.4870 N   0  0  0  0  0  0  0  0  0  0  0  0
    9.0260  -16.2367   20.6301 C   0  0  0  0  0  0  0  0  0  0  0  0
    9.3027  -16.8007   19.5409 O   0  0  0  0  0  0  0  0  0  0  0  0
   10.0446  -16.2201   21.6268 N   0  0  0  0  0  0  0  0  0  0  0  0
   11.3796  -16.7321   21.3918 C   0  0  1  0  0  0  0  0  0  0  0  0
   12.3479  -15.5548   21.1437 C   0  0  0  0  0  0  0  0  0  0  0  0
   13.7093  -16.1218   20.9085 C   0  0  0  0  0  0  0  0  0  0  0  0
   14.7903  -15.1407   20.5990 C   0  0  0  0  0  0  0  0  0  0  0  0
   16.1258  -15.7471   20.3811 C   0  0  0  0  0  0  0  0  0  0  0  0
   17.2086  -14.8419   20.1559 N   0  0  0  0  0  0  0  0  0  0  0  0
   11.8407  -17.5427   22.5460 C   0  0  0  0  0  0  0  0  0  0  0  0
   12.7677  -18.5812   22.3955 O   0  0  0  0  0  0  0  0  0  0  0  0
   11.4174  -17.3305   23.7090 O   0  0  0  0  0  0  0  0  0  0  0  0
  2  1  1  1
  3  2  1  0
  3  4  1  0
  4  5  2  0
  5  6  1  0
  7  8  2  0
  7  6  1  0
  9  8  1  0
 10  9  2  0
 11 10  1  0
 11 12  2  0
 12  4  1  0
 12  7  1  0
 13  2  1  0
 14 13  2  0
 15 13  1  0
 16 17  1  6
 16 15  1  0
 18 17  1  0
 18 19  1  0
 20 19  1  0
 21 20  1  0
 22 16  1  0
 23 22  2  0
 24 22  1  0
 25 31  1  0
 25 24  1  0
 25 26  1  1
 27 26  1  0
 28 27  1  0
 29 28  1  0
 30 29  1  0
 31 32  1  0
 33 31  2  0
M  END
$$$$
