WKK.pdb
     RDKit          3D

 33 34  0  0  1  0  0  0  0  0999 V2000
    6.9604  -17.1740   25.5244 N   0  0  0  0  0  0  0  0  0  0  0  0
    7.3559  -15.9642   24.8332 C   0  0  1  0  0  0  0  0  0  0  0  0
    8.6533  -15.4660   25.4251 C   0  0  0  0  0  0  0  0  0  0  0  0
    8.3168  -14.5940   26.5778 C   0  0  0  0  0  0  0  0  0  0  0  0
    8.6726  -14.7623   27.9103 C   0  0  0  0  0  0  0  0  0  0  0  0
    8.1697  -13.7543   28.6376 N   0  0  0  0  0  0  0  0  0  0  0  0
    7.4992  -12.9392   27.8146 C   0  0  0  0  0  0  0  0  0  0  0  0
    6.8024  -11.7704   28.0459 C   0  0  0  0  0  0  0  0  0  0  0  0
    6.2030  -11.1351   26.9901 C   0  0  0  0  0  0  0  0  0  0  0  0
    6.2552  -11.6019   25.6877 C   0  0  0  0  0  0  0  0  0  0  0  0
    6.9498  -12.7684   25.4517 C   0  0  0  0  0  0  0  0  0  0  0  0
    7.5594  -13.4216   26.5012 C   0  0  0  0  0  0  0  0  0  0  0  0
    7.4361  -16.2205   23.3965 C   0  0  0  0  0  0  0  0  0  0  0  0
    7.4600  -17.4045   22.9849 O   0  0  0  0  0  0  0  0  0  0  0  0
    7.4906  -15.1973   22.4047 N   0  0  0  0  0  0  0  0  0  0  0  0
    7.4553  -15.3950   20.9932 C   0  0  1  0  0  0  0  0  0  0  0  0
    7.2411  -14.1694   20.1841 C   0  0  0  0  0  0  0  0  0  0  0  0
    7.1406  -14.4621   18.7090 C   0  0  0  0  0  0  0  0  0  0  0  0
    7.6183  -13.2976   17.8717 C   0  0  0  0  0  0  0  0  0  0  0  0
    7.4732  -13.6774   16.4072 C   0  0  0  0  0  0  0  0  0  0  0  0
    8.0252  -12.6409   15.5448 N   0  0  0  0  0  0  0  0  0  0  0  0
    8.7646  -16.0356   20.5960 C   0  0  0  0  0  0  0  0  0  0  0  0
    8.8732  -16.7058   19.5377 O   0  0  0  0  0  0  0  0  0  0  0  0
    9.9323  -15.9079   21.4032 N   0  0  0  0  0  0  0  0  0  0  0  0
   11.2452  -16.3249   20.9540 C   0  0  1  0  0  0  0  0  0  0  0  0
   12.0293  -15.0974   20.4404 C   0  0  0  0  0  0  0  0  0  0  0  0
   13.3400  -15.5785   19.9106 C   0  0  0  0  0  0  0  0  0  0  0  0
   14.1438  -14.5889   19.1352 C   0  0  0  0  0  0  0  0  0  0  0  0
   15.5346  -15.0165   18.8496 C   0  0  0  0  0  0  0  0  0  0  0  0
   16.3260  -14.1272   18.0587 N   0  0  0  0  0  0  0  0  0  0  0  0
   11.9895  -16.9873   22.0536 C   0  0  0  0  0  0  0  0  0  0  0  0
   12.9295  -17.9953   21.8065 O   0  0  0  0  0  0  0  0  0  0  0  0
   11.8068  -16.6706   23.2548 O   0  0  0  0  0  0  0  0  0  0  0  0
  2  1  1  1
  3  2  1  0
  3  4  1  0
  4  5  2  0
  5  6  1  0
  7  8  2  0
  7  6  1  0
  9  8  1  0
 10  9  2  0
 11 10  1  0
 11 12  2  0
 12  4  1  0
 12  7  1  0
 13  2  1  0
 14 13  2  0
 15 13  1  0
 16 17  1  6
 16 15  1  0
 18 17  1  0
 18 19  1  0
 20 19  1  0
 21 20  1  0
 22 16  1  0
 23 22  2  0
 24 22  1  0
 25 31  1  0
 25 24  1  0
 25 26  1  1
 27 26  1  0
 28 27  1  0
 29 28  1  0
 30 29  1  0
 31 32  1  0
 33 31  2  0
M  END
$$$$
