WKK.pdb
     RDKit          3D

 33 34  0  0  1  0  0  0  0  0999 V2000
    6.6246  -18.5185   25.2798 N   0  0  0  0  0  0  0  0  0  0  0  0
    6.7935  -17.1100   24.9872 C   0  0  1  0  0  0  0  0  0  0  0  0
    7.3807  -16.4267   26.1996 C   0  0  0  0  0  0  0  0  0  0  0  0
    6.5530  -15.2289   26.4865 C   0  0  0  0  0  0  0  0  0  0  0  0
    5.1903  -15.1743   26.7522 C   0  0  0  0  0  0  0  0  0  0  0  0
    4.8260  -13.9004   26.9583 N   0  0  0  0  0  0  0  0  0  0  0  0
    5.9130  -13.1296   26.8336 C   0  0  0  0  0  0  0  0  0  0  0  0
    6.0899  -11.7654   26.9467 C   0  0  0  0  0  0  0  0  0  0  0  0
    7.3427  -11.2413   26.7644 C   0  0  0  0  0  0  0  0  0  0  0  0
    8.4567  -12.0085   26.4696 C   0  0  0  0  0  0  0  0  0  0  0  0
    8.2854  -13.3711   26.3556 C   0  0  0  0  0  0  0  0  0  0  0  0
    7.0325  -13.9167   26.5356 C   0  0  0  0  0  0  0  0  0  0  0  0
    7.6058  -16.9502   23.7827 C   0  0  0  0  0  0  0  0  0  0  0  0
    8.4997  -17.7920   23.5294 O   0  0  0  0  0  0  0  0  0  0  0  0
    7.4523  -15.8806   22.8523 N   0  0  0  0  0  0  0  0  0  0  0  0
    8.1973  -15.7016   21.6499 C   0  0  1  0  0  0  0  0  0  0  0  0
    7.8094  -14.5272   20.8296 C   0  0  0  0  0  0  0  0  0  0  0  0
    8.4455  -14.5423   19.4633 C   0  0  0  0  0  0  0  0  0  0  0  0
    7.8010  -13.5402   18.5328 C   0  0  0  0  0  0  0  0  0  0  0  0
    8.3489  -13.7733   17.1344 C   0  0  0  0  0  0  0  0  0  0  0  0
    7.6544  -12.9425   16.1595 N   0  0  0  0  0  0  0  0  0  0  0  0
    9.6531  -15.5846   22.0363 C   0  0  0  0  0  0  0  0  0  0  0  0
   10.0788  -14.6076   22.7035 O   0  0  0  0  0  0  0  0  0  0  0  0
   10.6060  -16.5760   21.6615 N   0  0  0  0  0  0  0  0  0  0  0  0
   12.0009  -16.5081   22.0474 C   0  0  1  0  0  0  0  0  0  0  0  0
   12.5244  -17.9304   22.3447 C   0  0  0  0  0  0  0  0  0  0  0  0
   12.1249  -18.2846   23.7393 C   0  0  0  0  0  0  0  0  0  0  0  0
   12.5424  -19.6324   24.2252 C   0  0  0  0  0  0  0  0  0  0  0  0
   13.5460  -19.6079   25.3164 C   0  0  0  0  0  0  0  0  0  0  0  0
   13.9470  -20.8745   25.8432 N   0  0  0  0  0  0  0  0  0  0  0  0
   12.8108  -15.8753   20.9770 C   0  0  0  0  0  0  0  0  0  0  0  0
   12.4019  -15.8859   19.6379 O   0  0  0  0  0  0  0  0  0  0  0  0
   13.8995  -15.3025   21.2284 O   0  0  0  0  0  0  0  0  0  0  0  0
  2  1  1  1
  3  2  1  0
  3  4  1  0
  4  5  2  0
  5  6  1  0
  7  8  2  0
  7  6  1  0
  9  8  1  0
 10  9  2  0
 11 10  1  0
 11 12  2  0
 12  4  1  0
 12  7  1  0
 13  2  1  0
 14 13  2  0
 15 13  1  0
 16 17  1  1
 16 15  1  0
 18 17  1  0
 18 19  1  0
 20 19  1  0
 21 20  1  0
 22 16  1  0
 23 22  2  0
 24 22  1  0
 25 31  1  0
 25 24  1  0
 25 26  1  6
 27 26  1  0
 28 27  1  0
 29 28  1  0
 30 29  1  0
 31 32  1  0
 33 31  2  0
M  END
$$$$
