WKK.pdb
     RDKit          3D

 33 34  0  0  1  0  0  0  0  0999 V2000
    6.7941  -18.1125   24.3358 N   0  0  0  0  0  0  0  0  0  0  0  0
    7.1369  -16.7273   24.0871 C   0  0  1  0  0  0  0  0  0  0  0  0
    7.9152  -16.1976   25.2684 C   0  0  0  0  0  0  0  0  0  0  0  0
    7.0509  -15.2203   25.9756 C   0  0  0  0  0  0  0  0  0  0  0  0
    5.8791  -15.4675   26.6801 C   0  0  0  0  0  0  0  0  0  0  0  0
    5.4008  -14.3145   27.1698 N   0  0  0  0  0  0  0  0  0  0  0  0
    6.2287  -13.3291   26.8026 C   0  0  0  0  0  0  0  0  0  0  0  0
    6.2011  -11.9697   27.0399 C   0  0  0  0  0  0  0  0  0  0  0  0
    7.2033  -11.1866   26.5300 C   0  0  0  0  0  0  0  0  0  0  0  0
    8.2560  -11.6841   25.7810 C   0  0  0  0  0  0  0  0  0  0  0  0
    8.2880  -13.0408   25.5414 C   0  0  0  0  0  0  0  0  0  0  0  0
    7.2887  -13.8446   26.0462 C   0  0  0  0  0  0  0  0  0  0  0  0
    7.8596  -16.6173   22.8216 C   0  0  0  0  0  0  0  0  0  0  0  0
    8.3892  -17.6402   22.3265 O   0  0  0  0  0  0  0  0  0  0  0  0
    8.0103  -15.4019   22.0912 N   0  0  0  0  0  0  0  0  0  0  0  0
    8.6041  -15.2663   20.8021 C   0  0  1  0  0  0  0  0  0  0  0  0
    8.0744  -14.1568   19.9709 C   0  0  0  0  0  0  0  0  0  0  0  0
    8.8882  -13.9318   18.7224 C   0  0  0  0  0  0  0  0  0  0  0  0
    8.0129  -13.8096   17.4960 C   0  0  0  0  0  0  0  0  0  0  0  0
    8.9142  -13.5916   16.2917 C   0  0  0  0  0  0  0  0  0  0  0  0
    8.1261  -13.3512   15.0901 N   0  0  0  0  0  0  0  0  0  0  0  0
   10.0882  -15.0738   21.0087 C   0  0  0  0  0  0  0  0  0  0  0  0
   10.8879  -15.0461   20.0388 O   0  0  0  0  0  0  0  0  0  0  0  0
   10.6454  -14.9154   22.3109 N   0  0  0  0  0  0  0  0  0  0  0  0
   11.7405  -15.7288   22.7993 C   0  0  1  0  0  0  0  0  0  0  0  0
   11.2465  -16.6141   23.9644 C   0  0  0  0  0  0  0  0  0  0  0  0
   12.3779  -17.4938   24.3844 C   0  0  0  0  0  0  0  0  0  0  0  0
   12.0883  -18.4682   25.4769 C   0  0  0  0  0  0  0  0  0  0  0  0
   13.2487  -19.2964   25.8844 C   0  0  0  0  0  0  0  0  0  0  0  0
   13.0160  -20.7005   26.0151 N   0  0  0  0  0  0  0  0  0  0  0  0
   12.2928  -16.5725   21.7107 C   0  0  0  0  0  0  0  0  0  0  0  0
   13.6609  -16.5920   21.4135 O   0  0  0  0  0  0  0  0  0  0  0  0
   11.5540  -17.3062   21.0088 O   0  0  0  0  0  0  0  0  0  0  0  0
  2  1  1  1
  3  2  1  0
  3  4  1  0
  4  5  2  0
  5  6  1  0
  7  8  2  0
  7  6  1  0
  9  8  1  0
 10  9  2  0
 11 10  1  0
 11 12  2  0
 12  4  1  0
 12  7  1  0
 13  2  1  0
 14 13  2  0
 15 13  1  0
 16 17  1  1
 16 15  1  0
 18 17  1  0
 18 19  1  0
 20 19  1  0
 21 20  1  0
 22 16  1  0
 23 22  2  0
 24 22  1  0
 25 31  1  0
 25 24  1  0
 25 26  1  1
 27 26  1  0
 28 27  1  0
 29 28  1  0
 30 29  1  0
 31 32  1  0
 33 31  2  0
M  END
$$$$
