WKK.pdb
     RDKit          3D

 33 34  0  0  1  0  0  0  0  0999 V2000
    6.6586  -18.2941   25.0125 N   0  0  0  0  0  0  0  0  0  0  0  0
    7.0558  -16.9591   24.6151 C   0  0  1  0  0  0  0  0  0  0  0  0
    7.6739  -16.2600   25.8029 C   0  0  0  0  0  0  0  0  0  0  0  0
    6.8341  -15.0773   26.1165 C   0  0  0  0  0  0  0  0  0  0  0  0
    5.4508  -15.0170   26.2327 C   0  0  0  0  0  0  0  0  0  0  0  0
    5.0816  -13.7617   26.5259 N   0  0  0  0  0  0  0  0  0  0  0  0
    6.1853  -13.0086   26.6026 C   0  0  0  0  0  0  0  0  0  0  0  0
    6.3653  -11.6672   26.8735 C   0  0  0  0  0  0  0  0  0  0  0  0
    7.6372  -11.1577   26.8867 C   0  0  0  0  0  0  0  0  0  0  0  0
    8.7678  -11.9181   26.6411 C   0  0  0  0  0  0  0  0  0  0  0  0
    8.5933  -13.2580   26.3702 C   0  0  0  0  0  0  0  0  0  0  0  0
    7.3214  -13.7886   26.3526 C   0  0  0  0  0  0  0  0  0  0  0  0
    7.9470  -17.0330   23.4590 C   0  0  0  0  0  0  0  0  0  0  0  0
    8.5950  -18.0858   23.2501 O   0  0  0  0  0  0  0  0  0  0  0  0
    8.1380  -15.9692   22.5289 N   0  0  0  0  0  0  0  0  0  0  0  0
    9.2683  -15.7920   21.6782 C   0  0  1  0  0  0  0  0  0  0  0  0
    9.2508  -14.5647   20.8439 C   0  0  0  0  0  0  0  0  0  0  0  0
    8.1917  -14.6104   19.7726 C   0  0  0  0  0  0  0  0  0  0  0  0
    8.4591  -13.6052   18.6755 C   0  0  0  0  0  0  0  0  0  0  0  0
    7.3063  -13.6668   17.6868 C   0  0  0  0  0  0  0  0  0  0  0  0
    7.4725  -12.6744   16.6331 N   0  0  0  0  0  0  0  0  0  0  0  0
   10.4963  -15.7828   22.5581 C   0  0  0  0  0  0  0  0  0  0  0  0
   10.7616  -14.8066   23.3049 O   0  0  0  0  0  0  0  0  0  0  0  0
   11.4063  -16.8795   22.5797 N   0  0  0  0  0  0  0  0  0  0  0  0
   12.6949  -16.8161   23.2393 C   0  0  1  0  0  0  0  0  0  0  0  0
   12.7922  -17.9419   24.2919 C   0  0  0  0  0  0  0  0  0  0  0  0
   11.7949  -18.9938   23.9329 C   0  0  0  0  0  0  0  0  0  0  0  0
   11.7185  -20.1723   24.8452 C   0  0  0  0  0  0  0  0  0  0  0  0
   10.6506  -21.1433   24.5057 C   0  0  0  0  0  0  0  0  0  0  0  0
   10.5648  -22.3104   25.3262 N   0  0  0  0  0  0  0  0  0  0  0  0
   13.7957  -16.9387   22.2518 C   0  0  0  0  0  0  0  0  0  0  0  0
   13.5490  -17.2149   20.9015 O   0  0  0  0  0  0  0  0  0  0  0  0
   14.9978  -16.7995   22.5871 O   0  0  0  0  0  0  0  0  0  0  0  0
  2  1  1  1
  3  2  1  0
  3  4  1  0
  4  5  2  0
  5  6  1  0
  7  8  2  0
  7  6  1  0
  9  8  1  0
 10  9  2  0
 11 10  1  0
 11 12  2  0
 12  4  1  0
 12  7  1  0
 13  2  1  0
 14 13  2  0
 15 13  1  0
 16 17  1  1
 16 15  1  0
 18 17  1  0
 18 19  1  0
 20 19  1  0
 21 20  1  0
 22 16  1  0
 23 22  2  0
 24 22  1  0
 25 31  1  0
 25 24  1  0
 25 26  1  1
 27 26  1  0
 28 27  1  0
 29 28  1  0
 30 29  1  0
 31 32  1  0
 33 31  2  0
M  END
$$$$
