WKK.pdb
     RDKit          3D

 33 34  0  0  1  0  0  0  0  0999 V2000
    6.2390  -17.3513   24.9742 N   0  0  0  0  0  0  0  0  0  0  0  0
    7.1139  -16.4340   24.2734 C   0  0  1  0  0  0  0  0  0  0  0  0
    8.0077  -15.7475   25.2791 C   0  0  0  0  0  0  0  0  0  0  0  0
    7.1802  -14.7615   26.0177 C   0  0  0  0  0  0  0  0  0  0  0  0
    6.1938  -15.0106   26.9640 C   0  0  0  0  0  0  0  0  0  0  0  0
    5.6830  -13.8475   27.3934 N   0  0  0  0  0  0  0  0  0  0  0  0
    6.3101  -12.8538   26.7527 C   0  0  0  0  0  0  0  0  0  0  0  0
    6.1694  -11.4825   26.8227 C   0  0  0  0  0  0  0  0  0  0  0  0
    6.9638  -10.6927   26.0336 C   0  0  0  0  0  0  0  0  0  0  0  0
    7.9120  -11.1948   25.1586 C   0  0  0  0  0  0  0  0  0  0  0  0
    8.0564  -12.5633   25.0851 C   0  0  0  0  0  0  0  0  0  0  0  0
    7.2661  -13.3739   25.8713 C   0  0  0  0  0  0  0  0  0  0  0  0
    7.8534  -17.1519   23.2371 C   0  0  0  0  0  0  0  0  0  0  0  0
    8.5356  -18.1552   23.5535 O   0  0  0  0  0  0  0  0  0  0  0  0
    7.8560  -16.7855   21.8590 N   0  0  0  0  0  0  0  0  0  0  0  0
    8.8888  -17.0689   20.9179 C   0  0  1  0  0  0  0  0  0  0  0  0
    8.6253  -16.6180   19.5287 C   0  0  0  0  0  0  0  0  0  0  0  0
    8.5987  -15.1161   19.4049 C   0  0  0  0  0  0  0  0  0  0  0  0
    8.1412  -14.6738   18.0336 C   0  0  0  0  0  0  0  0  0  0  0  0
    8.1274  -13.1542   18.0072 C   0  0  0  0  0  0  0  0  0  0  0  0
    7.5773  -12.6617   16.7512 N   0  0  0  0  0  0  0  0  0  0  0  0
   10.1523  -16.4149   21.4263 C   0  0  0  0  0  0  0  0  0  0  0  0
   10.1164  -15.4934   22.2809 O   0  0  0  0  0  0  0  0  0  0  0  0
   11.4383  -16.8142   20.9595 N   0  0  0  0  0  0  0  0  0  0  0  0
   12.5356  -17.1235   21.8538 C   0  0  1  0  0  0  0  0  0  0  0  0
   12.1670  -18.3485   22.7191 C   0  0  0  0  0  0  0  0  0  0  0  0
   13.3068  -18.6156   23.6463 C   0  0  0  0  0  0  0  0  0  0  0  0
   13.1804  -19.8178   24.5213 C   0  0  0  0  0  0  0  0  0  0  0  0
   14.3290  -20.0370   25.4330 C   0  0  0  0  0  0  0  0  0  0  0  0
   14.2152  -21.1253   26.3525 N   0  0  0  0  0  0  0  0  0  0  0  0
   13.7775  -17.3907   21.0868 C   0  0  0  0  0  0  0  0  0  0  0  0
   13.7605  -18.0916   19.8749 O   0  0  0  0  0  0  0  0  0  0  0  0
   14.8986  -16.9980   21.4941 O   0  0  0  0  0  0  0  0  0  0  0  0
  2  1  1  1
  3  2  1  0
  3  4  1  0
  4  5  2  0
  5  6  1  0
  7  8  2  0
  7  6  1  0
  9  8  1  0
 10  9  2  0
 11 10  1  0
 11 12  2  0
 12  4  1  0
 12  7  1  0
 13  2  1  0
 14 13  2  0
 15 13  1  0
 16 17  1  6
 16 15  1  0
 18 17  1  0
 18 19  1  0
 20 19  1  0
 21 20  1  0
 22 16  1  0
 23 22  2  0
 24 22  1  0
 25 31  1  0
 25 24  1  0
 25 26  1  6
 27 26  1  0
 28 27  1  0
 29 28  1  0
 30 29  1  0
 31 32  1  0
 33 31  2  0
M  END
$$$$
