WKK.pdb
     RDKit          3D

 33 34  0  0  1  0  0  0  0  0999 V2000
    6.0397  -17.8458   24.7423 N   0  0  0  0  0  0  0  0  0  0  0  0
    6.6604  -16.5616   24.4903 C   0  0  1  0  0  0  0  0  0  0  0  0
    7.7223  -16.3191   25.5368 C   0  0  0  0  0  0  0  0  0  0  0  0
    7.2398  -15.2323   26.4246 C   0  0  0  0  0  0  0  0  0  0  0  0
    6.4944  -15.3483   27.5915 C   0  0  0  0  0  0  0  0  0  0  0  0
    6.2625  -14.1280   28.0965 N   0  0  0  0  0  0  0  0  0  0  0  0
    6.8360  -13.2263   27.2906 C   0  0  0  0  0  0  0  0  0  0  0  0
    6.8976  -11.8487   27.3499 C   0  0  0  0  0  0  0  0  0  0  0  0
    7.5684  -11.1714   26.3656 C   0  0  0  0  0  0  0  0  0  0  0  0
    8.1964  -11.7947   25.3008 C   0  0  0  0  0  0  0  0  0  0  0  0
    8.1378  -13.1700   25.2371 C   0  0  0  0  0  0  0  0  0  0  0  0
    7.4676  -13.8686   26.2182 C   0  0  0  0  0  0  0  0  0  0  0  0
    7.1756  -16.5223   23.1231 C   0  0  0  0  0  0  0  0  0  0  0  0
    7.7172  -17.5455   22.6419 O   0  0  0  0  0  0  0  0  0  0  0  0
    7.1058  -15.3772   22.2762 N   0  0  0  0  0  0  0  0  0  0  0  0
    7.7882  -15.2087   21.0358 C   0  0  1  0  0  0  0  0  0  0  0  0
    7.5669  -13.9064   20.3593 C   0  0  0  0  0  0  0  0  0  0  0  0
    8.3703  -13.7711   19.0913 C   0  0  0  0  0  0  0  0  0  0  0  0
    7.5256  -14.0189   17.8623 C   0  0  0  0  0  0  0  0  0  0  0  0
    8.4194  -13.8870   16.6400 C   0  0  0  0  0  0  0  0  0  0  0  0
    7.6787  -14.1833   15.4208 N   0  0  0  0  0  0  0  0  0  0  0  0
    9.2636  -15.3891   21.3062 C   0  0  0  0  0  0  0  0  0  0  0  0
    9.8609  -14.7020   22.1734 O   0  0  0  0  0  0  0  0  0  0  0  0
   10.0413  -16.3453   20.5906 N   0  0  0  0  0  0  0  0  0  0  0  0
   11.4639  -16.5173   20.8052 C   0  0  1  0  0  0  0  0  0  0  0  0
   11.7514  -17.9780   21.2161 C   0  0  0  0  0  0  0  0  0  0  0  0
   11.3361  -18.1445   22.6409 C   0  0  0  0  0  0  0  0  0  0  0  0
   11.5238  -19.5024   23.2306 C   0  0  0  0  0  0  0  0  0  0  0  0
   10.9647  -19.6620   24.5946 C   0  0  0  0  0  0  0  0  0  0  0  0
   10.9723  -20.9844   25.1368 N   0  0  0  0  0  0  0  0  0  0  0  0
   12.2249  -16.1685   19.5799 C   0  0  0  0  0  0  0  0  0  0  0  0
   13.5417  -15.6961   19.6380 O   0  0  0  0  0  0  0  0  0  0  0  0
   11.7180  -16.2829   18.4368 O   0  0  0  0  0  0  0  0  0  0  0  0
  2  1  1  1
  3  2  1  0
  3  4  1  0
  4  5  2  0
  5  6  1  0
  7  8  2  0
  7  6  1  0
  9  8  1  0
 10  9  2  0
 11 10  1  0
 11 12  2  0
 12  4  1  0
 12  7  1  0
 13  2  1  0
 14 13  2  0
 15 13  1  0
 16 17  1  1
 16 15  1  0
 18 17  1  0
 18 19  1  0
 20 19  1  0
 21 20  1  0
 22 16  1  0
 23 22  2  0
 24 22  1  0
 25 31  1  0
 25 24  1  0
 25 26  1  6
 27 26  1  0
 28 27  1  0
 29 28  1  0
 30 29  1  0
 31 32  1  0
 33 31  2  0
M  END
$$$$
