WKK.pdb
     RDKit          3D

 33 34  0  0  1  0  0  0  0  0999 V2000
    6.7085  -17.5394   25.2202 N   0  0  0  0  0  0  0  0  0  0  0  0
    7.1160  -16.3470   24.5060 C   0  0  1  0  0  0  0  0  0  0  0  0
    8.2840  -15.7198   25.2299 C   0  0  0  0  0  0  0  0  0  0  0  0
    7.7432  -14.9624   26.3858 C   0  0  0  0  0  0  0  0  0  0  0  0
    7.5603  -15.4066   27.6896 C   0  0  0  0  0  0  0  0  0  0  0  0
    7.0463  -14.4149   28.4314 N   0  0  0  0  0  0  0  0  0  0  0  0
    6.8914  -13.3425   27.6457 C   0  0  0  0  0  0  0  0  0  0  0  0
    6.4092  -12.0755   27.9051 C   0  0  0  0  0  0  0  0  0  0  0  0
    6.3657  -11.1605   26.8861 C   0  0  0  0  0  0  0  0  0  0  0  0
    6.7820  -11.4346   25.5945 C   0  0  0  0  0  0  0  0  0  0  0  0
    7.2643  -12.6982   25.3304 C   0  0  0  0  0  0  0  0  0  0  0  0
    7.3158  -13.6321   26.3428 C   0  0  0  0  0  0  0  0  0  0  0  0
    7.4101  -16.6819   23.1140 C   0  0  0  0  0  0  0  0  0  0  0  0
    7.9628  -17.7758   22.8498 O   0  0  0  0  0  0  0  0  0  0  0  0
    7.1073  -15.8345   22.0078 N   0  0  0  0  0  0  0  0  0  0  0  0
    7.8957  -15.6790   20.8302 C   0  0  1  0  0  0  0  0  0  0  0  0
    7.4834  -14.5737   19.9296 C   0  0  0  0  0  0  0  0  0  0  0  0
    8.2095  -14.6040   18.6092 C   0  0  0  0  0  0  0  0  0  0  0  0
    7.7232  -13.5187   17.6760 C   0  0  0  0  0  0  0  0  0  0  0  0
    8.3216  -13.7734   16.3022 C   0  0  0  0  0  0  0  0  0  0  0  0
    7.9473  -12.7187   15.3692 N   0  0  0  0  0  0  0  0  0  0  0  0
    9.3241  -15.4603   21.2711 C   0  0  0  0  0  0  0  0  0  0  0  0
    9.5983  -14.7969   22.3034 O   0  0  0  0  0  0  0  0  0  0  0  0
   10.4215  -15.9964   20.5365 N   0  0  0  0  0  0  0  0  0  0  0  0
   11.5719  -16.6020   21.1762 C   0  0  1  0  0  0  0  0  0  0  0  0
   11.1077  -17.7661   22.0788 C   0  0  0  0  0  0  0  0  0  0  0  0
   12.3184  -18.3627   22.7177 C   0  0  0  0  0  0  0  0  0  0  0  0
   12.0762  -19.4650   23.6940 C   0  0  0  0  0  0  0  0  0  0  0  0
   13.3016  -19.9920   24.3415 C   0  0  0  0  0  0  0  0  0  0  0  0
   13.1107  -20.9509   25.3839 N   0  0  0  0  0  0  0  0  0  0  0  0
   12.5384  -17.0914   20.1621 C   0  0  0  0  0  0  0  0  0  0  0  0
   12.1198  -17.5773   18.9174 O   0  0  0  0  0  0  0  0  0  0  0  0
   13.7752  -17.0902   20.3786 O   0  0  0  0  0  0  0  0  0  0  0  0
  2  1  1  1
  3  2  1  0
  3  4  1  0
  4  5  2  0
  5  6  1  0
  7  8  2  0
  7  6  1  0
  9  8  1  0
 10  9  2  0
 11 10  1  0
 11 12  2  0
 12  4  1  0
 12  7  1  0
 13  2  1  0
 14 13  2  0
 15 13  1  0
 16 17  1  1
 16 15  1  0
 18 17  1  0
 18 19  1  0
 20 19  1  0
 21 20  1  0
 22 16  1  0
 23 22  2  0
 24 22  1  0
 25 31  1  0
 25 24  1  0
 25 26  1  6
 27 26  1  0
 28 27  1  0
 29 28  1  0
 30 29  1  0
 31 32  1  0
 33 31  2  0
M  END
$$$$
