WKK.pdb
     RDKit          3D

 33 34  0  0  1  0  0  0  0  0999 V2000
    6.2020  -18.2649   24.8414 N   0  0  0  0  0  0  0  0  0  0  0  0
    6.6220  -16.8960   24.6223 C   0  0  1  0  0  0  0  0  0  0  0  0
    7.3683  -16.4131   25.8435 C   0  0  0  0  0  0  0  0  0  0  0  0
    6.6662  -15.2092   26.3535 C   0  0  0  0  0  0  0  0  0  0  0  0
    5.5119  -15.1547   27.1250 C   0  0  0  0  0  0  0  0  0  0  0  0
    5.2021  -13.8743   27.3753 N   0  0  0  0  0  0  0  0  0  0  0  0
    6.1220  -13.0994   26.7883 C   0  0  0  0  0  0  0  0  0  0  0  0
    6.2706  -11.7281   26.7368 C   0  0  0  0  0  0  0  0  0  0  0  0
    7.3313  -11.2009   26.0480 C   0  0  0  0  0  0  0  0  0  0  0  0
    8.2756  -11.9720   25.3918 C   0  0  0  0  0  0  0  0  0  0  0  0
    8.1317  -13.3416   25.4404 C   0  0  0  0  0  0  0  0  0  0  0  0
    7.0710  -13.8903   26.1285 C   0  0  0  0  0  0  0  0  0  0  0  0
    7.4080  -16.8119   23.3929 C   0  0  0  0  0  0  0  0  0  0  0  0
    8.2696  -17.6908   23.1541 O   0  0  0  0  0  0  0  0  0  0  0  0
    7.2631  -15.7777   22.4218 N   0  0  0  0  0  0  0  0  0  0  0  0
    8.0326  -15.6323   21.2305 C   0  0  1  0  0  0  0  0  0  0  0  0
    7.7009  -14.4486   20.3991 C   0  0  0  0  0  0  0  0  0  0  0  0
    8.4998  -14.3984   19.1220 C   0  0  0  0  0  0  0  0  0  0  0  0
    7.8654  -13.4843   18.0985 C   0  0  0  0  0  0  0  0  0  0  0  0
    8.6456  -13.6145   16.8005 C   0  0  0  0  0  0  0  0  0  0  0  0
    8.0377  -12.8127   15.7468 N   0  0  0  0  0  0  0  0  0  0  0  0
    9.4856  -15.5671   21.6389 C   0  0  0  0  0  0  0  0  0  0  0  0
    9.9236  -14.6352   22.3604 O   0  0  0  0  0  0  0  0  0  0  0  0
   10.4218  -16.5586   21.2244 N   0  0  0  0  0  0  0  0  0  0  0  0
   11.8025  -16.5654   21.6638 C   0  0  1  0  0  0  0  0  0  0  0  0
   12.1944  -17.9900   22.1133 C   0  0  0  0  0  0  0  0  0  0  0  0
   12.3359  -17.9798   23.5999 C   0  0  0  0  0  0  0  0  0  0  0  0
   12.6002  -19.2975   24.2486 C   0  0  0  0  0  0  0  0  0  0  0  0
   12.6088  -19.2613   25.7309 C   0  0  0  0  0  0  0  0  0  0  0  0
   12.8128  -20.5085   26.3985 N   0  0  0  0  0  0  0  0  0  0  0  0
   12.7009  -16.1038   20.5766 C   0  0  0  0  0  0  0  0  0  0  0  0
   12.3619  -16.2513   19.2261 O   0  0  0  0  0  0  0  0  0  0  0  0
   13.8056  -15.5603   20.8233 O   0  0  0  0  0  0  0  0  0  0  0  0
  2  1  1  1
  3  2  1  0
  3  4  1  0
  4  5  2  0
  5  6  1  0
  7  8  2  0
  7  6  1  0
  9  8  1  0
 10  9  2  0
 11 10  1  0
 11 12  2  0
 12  4  1  0
 12  7  1  0
 13  2  1  0
 14 13  2  0
 15 13  1  0
 16 17  1  1
 16 15  1  0
 18 17  1  0
 18 19  1  0
 20 19  1  0
 21 20  1  0
 22 16  1  0
 23 22  2  0
 24 22  1  0
 25 31  1  0
 25 24  1  0
 25 26  1  6
 27 26  1  0
 28 27  1  0
 29 28  1  0
 30 29  1  0
 31 32  1  0
 33 31  2  0
M  END
$$$$
