WKK.pdb
     RDKit          3D

 33 34  0  0  1  0  0  0  0  0999 V2000
    5.9881  -17.3025   23.8486 N   0  0  0  0  0  0  0  0  0  0  0  0
    7.0184  -16.3090   23.6258 C   0  0  1  0  0  0  0  0  0  0  0  0
    7.8432  -16.1708   24.8837 C   0  0  0  0  0  0  0  0  0  0  0  0
    7.1894  -15.1514   25.7413 C   0  0  0  0  0  0  0  0  0  0  0  0
    6.1279  -15.3265   26.6205 C   0  0  0  0  0  0  0  0  0  0  0  0
    5.8340  -14.1559   27.2047 N   0  0  0  0  0  0  0  0  0  0  0  0
    6.6743  -13.2290   26.7292 C   0  0  0  0  0  0  0  0  0  0  0  0
    6.8013  -11.8807   26.9960 C   0  0  0  0  0  0  0  0  0  0  0  0
    7.7729  -11.1646   26.3473 C   0  0  0  0  0  0  0  0  0  0  0  0
    8.6465  -11.7200   25.4280 C   0  0  0  0  0  0  0  0  0  0  0  0
    8.5237  -13.0659   25.1583 C   0  0  0  0  0  0  0  0  0  0  0  0
    7.5523  -13.8027   25.8010 C   0  0  0  0  0  0  0  0  0  0  0  0
    7.8095  -16.6731   22.4521 C   0  0  0  0  0  0  0  0  0  0  0  0
    8.0923  -17.8782   22.2526 O   0  0  0  0  0  0  0  0  0  0  0  0
    8.2953  -15.7351   21.4943 N   0  0  0  0  0  0  0  0  0  0  0  0
    9.1640  -16.0258   20.4017 C   0  0  1  0  0  0  0  0  0  0  0  0
    9.3769  -14.9121   19.4442 C   0  0  0  0  0  0  0  0  0  0  0  0
    8.3569  -14.9023   18.3346 C   0  0  0  0  0  0  0  0  0  0  0  0
    8.6969  -13.8859   17.2684 C   0  0  0  0  0  0  0  0  0  0  0  0
    7.6486  -13.9823   16.1720 C   0  0  0  0  0  0  0  0  0  0  0  0
    7.8949  -12.9943   15.1299 N   0  0  0  0  0  0  0  0  0  0  0  0
   10.4927  -16.4477   20.9838 C   0  0  0  0  0  0  0  0  0  0  0  0
   11.0157  -15.8270   21.9440 O   0  0  0  0  0  0  0  0  0  0  0  0
   11.2101  -17.5668   20.4698 N   0  0  0  0  0  0  0  0  0  0  0  0
   12.4786  -18.0035   21.0174 C   0  0  1  0  0  0  0  0  0  0  0  0
   12.6849  -19.5029   20.7104 C   0  0  0  0  0  0  0  0  0  0  0  0
   14.0341  -19.8940   21.2171 C   0  0  0  0  0  0  0  0  0  0  0  0
   14.4174  -21.3256   21.0420 C   0  0  0  0  0  0  0  0  0  0  0  0
   15.7617  -21.6696   21.5647 C   0  0  0  0  0  0  0  0  0  0  0  0
   15.9217  -22.9863   22.0968 N   0  0  0  0  0  0  0  0  0  0  0  0
   13.5953  -17.2048   20.4543 C   0  0  0  0  0  0  0  0  0  0  0  0
   14.6897  -16.8129   21.2348 O   0  0  0  0  0  0  0  0  0  0  0  0
   13.6053  -16.8463   19.2510 O   0  0  0  0  0  0  0  0  0  0  0  0
  2  1  1  1
  3  2  1  0
  3  4  1  0
  4  5  2  0
  5  6  1  0
  7  8  2  0
  7  6  1  0
  9  8  1  0
 10  9  2  0
 11 10  1  0
 11 12  2  0
 12  4  1  0
 12  7  1  0
 13  2  1  0
 14 13  2  0
 15 13  1  0
 16 17  1  6
 16 15  1  0
 18 17  1  0
 18 19  1  0
 20 19  1  0
 21 20  1  0
 22 16  1  0
 23 22  2  0
 24 22  1  0
 25 31  1  0
 25 24  1  0
 25 26  1  6
 27 26  1  0
 28 27  1  0
 29 28  1  0
 30 29  1  0
 31 32  1  0
 33 31  2  0
M  END
$$$$
