WKK.pdb
     RDKit          3D

 33 34  0  0  1  0  0  0  0  0999 V2000
    6.5783  -18.2374   25.1043 N   0  0  0  0  0  0  0  0  0  0  0  0
    6.9140  -16.8758   24.7418 C   0  0  1  0  0  0  0  0  0  0  0  0
    7.7414  -16.2660   25.8487 C   0  0  0  0  0  0  0  0  0  0  0  0
    6.9511  -15.1603   26.4448 C   0  0  0  0  0  0  0  0  0  0  0  0
    5.8978  -15.2510   27.3464 C   0  0  0  0  0  0  0  0  0  0  0  0
    5.4533  -14.0204   27.6392 N   0  0  0  0  0  0  0  0  0  0  0  0
    6.1881  -13.1365   26.9535 C   0  0  0  0  0  0  0  0  0  0  0  0
    6.1476  -11.7581   26.8935 C   0  0  0  0  0  0  0  0  0  0  0  0
    7.0419  -11.1024   26.0887 C   0  0  0  0  0  0  0  0  0  0  0  0
    7.9965  -11.7484   25.3218 C   0  0  0  0  0  0  0  0  0  0  0  0
    8.0410  -13.1246   25.3783 C   0  0  0  0  0  0  0  0  0  0  0  0
    7.1495  -13.8017   26.1823 C   0  0  0  0  0  0  0  0  0  0  0  0
    7.5847  -16.8620   23.4433 C   0  0  0  0  0  0  0  0  0  0  0  0
    8.2454  -17.8648   23.0833 O   0  0  0  0  0  0  0  0  0  0  0  0
    7.5415  -15.7644   22.5340 N   0  0  0  0  0  0  0  0  0  0  0  0
    8.1102  -15.7353   21.2269 C   0  0  1  0  0  0  0  0  0  0  0  0
    7.7713  -14.5424   20.4117 C   0  0  0  0  0  0  0  0  0  0  0  0
    8.3218  -14.6254   19.0111 C   0  0  0  0  0  0  0  0  0  0  0  0
    7.8799  -13.4540   18.1637 C   0  0  0  0  0  0  0  0  0  0  0  0
    8.2995  -13.7242   16.7281 C   0  0  0  0  0  0  0  0  0  0  0  0
    8.1466  -12.5290   15.9089 N   0  0  0  0  0  0  0  0  0  0  0  0
    9.6099  -15.8238   21.3871 C   0  0  0  0  0  0  0  0  0  0  0  0
   10.2525  -14.9614   22.0385 O   0  0  0  0  0  0  0  0  0  0  0  0
   10.3602  -16.8878   20.8072 N   0  0  0  0  0  0  0  0  0  0  0  0
   11.7905  -17.0291   20.9906 C   0  0  1  0  0  0  0  0  0  0  0  0
   12.1643  -18.5276   21.0007 C   0  0  0  0  0  0  0  0  0  0  0  0
   12.4165  -18.9285   22.4169 C   0  0  0  0  0  0  0  0  0  0  0  0
   12.8012  -20.3524   22.6431 C   0  0  0  0  0  0  0  0  0  0  0  0
   13.1298  -20.6835   24.0507 C   0  0  0  0  0  0  0  0  0  0  0  0
   12.0890  -21.2837   24.8247 N   0  0  0  0  0  0  0  0  0  0  0  0
   12.5293  -16.3220   19.9153 C   0  0  0  0  0  0  0  0  0  0  0  0
   13.5703  -15.4296   20.1985 O   0  0  0  0  0  0  0  0  0  0  0  0
   12.2506  -16.4952   18.7033 O   0  0  0  0  0  0  0  0  0  0  0  0
  2  1  1  1
  3  2  1  0
  3  4  1  0
  4  5  2  0
  5  6  1  0
  7  8  2  0
  7  6  1  0
  9  8  1  0
 10  9  2  0
 11 10  1  0
 11 12  2  0
 12  4  1  0
 12  7  1  0
 13  2  1  0
 14 13  2  0
 15 13  1  0
 16 17  1  1
 16 15  1  0
 18 17  1  0
 18 19  1  0
 20 19  1  0
 21 20  1  0
 22 16  1  0
 23 22  2  0
 24 22  1  0
 25 31  1  0
 25 24  1  0
 25 26  1  6
 27 26  1  0
 28 27  1  0
 29 28  1  0
 30 29  1  0
 31 32  1  0
 33 31  2  0
M  END
$$$$
