WKK.pdb
     RDKit          3D

 33 34  0  0  1  0  0  0  0  0999 V2000
    6.3566  -17.4558   24.1269 N   0  0  0  0  0  0  0  0  0  0  0  0
    7.1880  -16.4222   23.5450 C   0  0  1  0  0  0  0  0  0  0  0  0
    8.0791  -15.8489   24.6217 C   0  0  0  0  0  0  0  0  0  0  0  0
    7.2310  -15.0204   25.5142 C   0  0  0  0  0  0  0  0  0  0  0  0
    6.3063  -15.4510   26.4576 C   0  0  0  0  0  0  0  0  0  0  0  0
    5.7491  -14.3875   27.0547 N   0  0  0  0  0  0  0  0  0  0  0  0
    6.2863  -13.2820   26.5251 C   0  0  0  0  0  0  0  0  0  0  0  0
    6.0691  -11.9427   26.7788 C   0  0  0  0  0  0  0  0  0  0  0  0
    6.7781  -11.0093   26.0691 C   0  0  0  0  0  0  0  0  0  0  0  0
    7.7119  -11.3337   25.0998 C   0  0  0  0  0  0  0  0  0  0  0  0
    7.9324  -12.6695   24.8429 C   0  0  0  0  0  0  0  0  0  0  0  0
    7.2286  -13.6229   25.5468 C   0  0  0  0  0  0  0  0  0  0  0  0
    7.9295  -16.9665   22.4093 C   0  0  0  0  0  0  0  0  0  0  0  0
    7.4274  -17.8996   21.7391 O   0  0  0  0  0  0  0  0  0  0  0  0
    9.2137  -16.5027   21.9979 N   0  0  0  0  0  0  0  0  0  0  0  0
    9.8908  -16.8647   20.7966 C   0  0  1  0  0  0  0  0  0  0  0  0
    9.1773  -16.5314   19.5387 C   0  0  0  0  0  0  0  0  0  0  0  0
    9.0720  -15.0452   19.3115 C   0  0  0  0  0  0  0  0  0  0  0  0
    8.2921  -14.7227   18.0573 C   0  0  0  0  0  0  0  0  0  0  0  0
    8.2676  -13.2121   17.8911 C   0  0  0  0  0  0  0  0  0  0  0  0
    7.5378  -12.8339   16.6881 N   0  0  0  0  0  0  0  0  0  0  0  0
   11.2331  -16.1715   20.8107 C   0  0  0  0  0  0  0  0  0  0  0  0
   11.9403  -16.0890   19.7743 O   0  0  0  0  0  0  0  0  0  0  0  0
   11.7552  -15.5815   21.9984 N   0  0  0  0  0  0  0  0  0  0  0  0
   12.6160  -16.2989   22.9170 C   0  0  1  0  0  0  0  0  0  0  0  0
   11.7525  -17.1182   23.9010 C   0  0  0  0  0  0  0  0  0  0  0  0
   12.6709  -17.7922   24.8665 C   0  0  0  0  0  0  0  0  0  0  0  0
   12.0269  -18.6510   25.9032 C   0  0  0  0  0  0  0  0  0  0  0  0
   12.9730  -19.2667   26.8647 C   0  0  0  0  0  0  0  0  0  0  0  0
   12.3956  -19.9620   27.9718 N   0  0  0  0  0  0  0  0  0  0  0  0
   13.5419  -17.1927   22.1781 C   0  0  0  0  0  0  0  0  0  0  0  0
   14.9023  -16.8929   22.0374 O   0  0  0  0  0  0  0  0  0  0  0  0
   13.1426  -18.2581   21.6469 O   0  0  0  0  0  0  0  0  0  0  0  0
  2  1  1  1
  3  2  1  0
  3  4  1  0
  4  5  2  0
  5  6  1  0
  7  8  2  0
  7  6  1  0
  9  8  1  0
 10  9  2  0
 11 10  1  0
 11 12  2  0
 12  4  1  0
 12  7  1  0
 13  2  1  0
 14 13  2  0
 15 13  1  0
 16 17  1  6
 16 15  1  0
 18 17  1  0
 18 19  1  0
 20 19  1  0
 21 20  1  0
 22 16  1  0
 23 22  2  0
 24 22  1  0
 25 31  1  0
 25 24  1  0
 25 26  1  1
 27 26  1  0
 28 27  1  0
 29 28  1  0
 30 29  1  0
 31 32  1  0
 33 31  2  0
M  END
$$$$
