WKK.pdb
     RDKit          3D

 33 34  0  0  1  0  0  0  0  0999 V2000
    6.4964  -18.4051   24.6224 N   0  0  0  0  0  0  0  0  0  0  0  0
    6.8387  -17.0229   24.3569 C   0  0  1  0  0  0  0  0  0  0  0  0
    7.5123  -16.4436   25.5785 C   0  0  0  0  0  0  0  0  0  0  0  0
    6.8088  -15.1840   25.9260 C   0  0  0  0  0  0  0  0  0  0  0  0
    5.4455  -14.9881   26.1090 C   0  0  0  0  0  0  0  0  0  0  0  0
    5.2158  -13.7024   26.4128 N   0  0  0  0  0  0  0  0  0  0  0  0
    6.3905  -13.0612   26.4315 C   0  0  0  0  0  0  0  0  0  0  0  0
    6.7141  -11.7437   26.6858 C   0  0  0  0  0  0  0  0  0  0  0  0
    8.0289  -11.3615   26.6341 C   0  0  0  0  0  0  0  0  0  0  0  0
    9.0661  -12.2294   26.3381 C   0  0  0  0  0  0  0  0  0  0  0  0
    8.7482  -13.5459   26.0835 C   0  0  0  0  0  0  0  0  0  0  0  0
    7.4310  -13.9491   26.1309 C   0  0  0  0  0  0  0  0  0  0  0  0
    7.6590  -16.9408   23.1501 C   0  0  0  0  0  0  0  0  0  0  0  0
    8.2311  -17.9725   22.7256 O   0  0  0  0  0  0  0  0  0  0  0  0
    7.8613  -15.7436   22.4021 N   0  0  0  0  0  0  0  0  0  0  0  0
    8.4909  -15.6481   21.1265 C   0  0  1  0  0  0  0  0  0  0  0  0
    7.9547  -14.5945   20.2294 C   0  0  0  0  0  0  0  0  0  0  0  0
    8.7535  -14.4574   18.9586 C   0  0  0  0  0  0  0  0  0  0  0  0
    8.1686  -13.4106   18.0380 C   0  0  0  0  0  0  0  0  0  0  0  0
    8.8793  -13.5093   16.6980 C   0  0  0  0  0  0  0  0  0  0  0  0
    8.4571  -12.4373   15.8062 N   0  0  0  0  0  0  0  0  0  0  0  0
    9.9615  -15.4003   21.3684 C   0  0  0  0  0  0  0  0  0  0  0  0
   10.7696  -15.2631   20.4149 O   0  0  0  0  0  0  0  0  0  0  0  0
   10.4957  -15.3113   22.6867 N   0  0  0  0  0  0  0  0  0  0  0  0
   11.5626  -16.1699   23.1598 C   0  0  1  0  0  0  0  0  0  0  0  0
   10.9762  -17.5312   23.5935 C   0  0  0  0  0  0  0  0  0  0  0  0
   12.1122  -18.4140   23.9938 C   0  0  0  0  0  0  0  0  0  0  0  0
   12.2026  -18.7602   25.4426 C   0  0  0  0  0  0  0  0  0  0  0  0
   13.3216  -19.6697   25.7878 C   0  0  0  0  0  0  0  0  0  0  0  0
   13.5384  -19.9153   27.1790 N   0  0  0  0  0  0  0  0  0  0  0  0
   12.5866  -16.3641   22.1035 C   0  0  0  0  0  0  0  0  0  0  0  0
   12.4697  -17.3716   21.1382 O   0  0  0  0  0  0  0  0  0  0  0  0
   13.6033  -15.6308   22.0312 O   0  0  0  0  0  0  0  0  0  0  0  0
  2  1  1  1
  3  2  1  0
  3  4  1  0
  4  5  2  0
  5  6  1  0
  7  8  2  0
  7  6  1  0
  9  8  1  0
 10  9  2  0
 11 10  1  0
 11 12  2  0
 12  4  1  0
 12  7  1  0
 13  2  1  0
 14 13  2  0
 15 13  1  0
 16 17  1  6
 16 15  1  0
 18 17  1  0
 18 19  1  0
 20 19  1  0
 21 20  1  0
 22 16  1  0
 23 22  2  0
 24 22  1  0
 25 31  1  0
 25 24  1  0
 25 26  1  6
 27 26  1  0
 28 27  1  0
 29 28  1  0
 30 29  1  0
 31 32  1  0
 33 31  2  0
M  END
$$$$
