CDE.pdb
     RDKit          3D

 24 23  0  0  1  0  0  0  0  0999 V2000
    6.4317  -15.9676   19.0666 N   0  0  0  0  0  0  0  0  0  0  0  0
    7.6692  -15.2150   19.2277 C   0  0  1  0  0  0  0  0  0  0  0  0
    7.3373  -14.0644   20.1769 C   0  0  0  0  0  0  0  0  0  0  0  0
    8.3575  -12.6199   19.8356 S   0  0  0  0  0  0  0  0  0  0  0  0
    8.6506  -16.1060   19.8972 C   0  0  0  0  0  0  0  0  0  0  0  0
    8.3252  -16.8215   20.9029 O   0  0  0  0  0  0  0  0  0  0  0  0
   10.0047  -16.2351   19.4848 N   0  0  0  0  0  0  0  0  0  0  0  0
   10.9672  -17.0970   20.1519 C   0  0  1  0  0  0  0  0  0  0  0  0
   11.9884  -17.6299   19.1737 C   0  0  0  0  0  0  0  0  0  0  0  0
   11.4210  -18.5367   18.1833 C   0  0  0  0  0  0  0  0  0  0  0  0
   10.6715  -19.4701   18.5306 O   0  0  0  0  0  0  0  0  0  0  0  0
   11.6511  -16.3813   21.2608 C   0  0  0  0  0  0  0  0  0  0  0  0
   12.1381  -15.2318   21.1378 O   0  0  0  0  0  0  0  0  0  0  0  0
   11.7364  -18.3361   16.8338 O   0  0  0  0  0  0  0  0  0  0  0  0
   11.7985  -16.9705   22.5612 N   0  0  0  0  0  0  0  0  0  0  0  0
   12.3980  -16.2722   23.6898 C   0  0  1  0  0  0  0  0  0  0  0  0
   11.7399  -16.5303   24.9948 C   0  0  0  0  0  0  0  0  0  0  0  0
   12.1109  -17.7737   25.7127 C   0  0  0  0  0  0  0  0  0  0  0  0
   11.5046  -17.9498   27.0377 C   0  0  0  0  0  0  0  0  0  0  0  0
   11.8011  -18.9350   27.7390 O   0  0  0  0  0  0  0  0  0  0  0  0
   13.8717  -16.4536   23.6843 C   0  0  0  0  0  0  0  0  0  0  0  0
   14.4169  -17.4071   23.0628 O   0  0  0  0  0  0  0  0  0  0  0  0
   10.6025  -17.0239   27.5133 O   0  0  0  0  0  0  0  0  0  0  0  0
   14.7131  -15.5837   24.3614 O   0  0  0  0  0  0  0  0  0  0  0  0
  2  1  1  1
  3  2  1  0
  4  3  1  0
  5  7  1  0
  5  2  1  0
  6  5  2  0
  8  7  1  0
  8 12  1  0
  8  9  1  6
 10  9  1  0
 11 10  2  0
 12 15  1  0
 13 12  2  0
 14 10  1  0
 15 16  1  0
 16 21  1  0
 16 17  1  1
 18 17  1  0
 19 18  1  0
 20 19  2  0
 21 24  1  0
 22 21  2  0
 23 19  1  0
M  END
$$$$
