CDE.pdb
     RDKit          3D

 24 23  0  0  1  0  0  0  0  0999 V2000
    5.4510  -14.0664   26.6660 N   0  0  0  0  0  0  0  0  0  0  0  0
    6.3657  -13.3938   25.7523 C   0  0  1  0  0  0  0  0  0  0  0  0
    7.4391  -12.7545   26.6321 C   0  0  0  0  0  0  0  0  0  0  0  0
    6.8203  -11.2709   27.4447 S   0  0  0  0  0  0  0  0  0  0  0  0
    7.0081  -14.4376   24.9138 C   0  0  0  0  0  0  0  0  0  0  0  0
    7.2873  -15.5918   25.3821 O   0  0  0  0  0  0  0  0  0  0  0  0
    7.3589  -14.2450   23.5499 N   0  0  0  0  0  0  0  0  0  0  0  0
    8.0550  -15.2420   22.7527 C   0  0  1  0  0  0  0  0  0  0  0  0
    7.9531  -14.9262   21.2784 C   0  0  0  0  0  0  0  0  0  0  0  0
    8.6426  -15.8922   20.4319 C   0  0  0  0  0  0  0  0  0  0  0  0
    9.0290  -16.9828   20.8953 O   0  0  0  0  0  0  0  0  0  0  0  0
    9.4829  -15.3478   23.1521 C   0  0  0  0  0  0  0  0  0  0  0  0
   10.1153  -14.4088   23.6924 O   0  0  0  0  0  0  0  0  0  0  0  0
    8.8611  -15.5680   19.0873 O   0  0  0  0  0  0  0  0  0  0  0  0
   10.2381  -16.5499   22.9407 N   0  0  0  0  0  0  0  0  0  0  0  0
   11.1961  -17.0700   23.9064 C   0  0  1  0  0  0  0  0  0  0  0  0
   10.6908  -17.1396   25.3001 C   0  0  0  0  0  0  0  0  0  0  0  0
   10.6379  -18.4757   25.9414 C   0  0  0  0  0  0  0  0  0  0  0  0
   11.2332  -18.5641   27.2801 C   0  0  0  0  0  0  0  0  0  0  0  0
   10.6437  -18.0791   28.2638 O   0  0  0  0  0  0  0  0  0  0  0  0
   11.8106  -18.3228   23.3991 C   0  0  0  0  0  0  0  0  0  0  0  0
   11.1225  -19.2079   22.8196 O   0  0  0  0  0  0  0  0  0  0  0  0
   12.4498  -19.1858   27.4555 O   0  0  0  0  0  0  0  0  0  0  0  0
   13.1670  -18.5753   23.5399 O   0  0  0  0  0  0  0  0  0  0  0  0
  2  1  1  1
  3  2  1  0
  4  3  1  0
  5  7  1  0
  5  2  1  0
  6  5  2  0
  8  7  1  0
  8 12  1  0
  8  9  1  6
 10  9  1  0
 11 10  2  0
 12 15  1  0
 13 12  2  0
 14 10  1  0
 15 16  1  0
 16 21  1  0
 16 17  1  1
 18 17  1  0
 19 18  1  0
 20 19  2  0
 21 24  1  0
 22 21  2  0
 23 19  1  0
M  END
$$$$
