CDE.pdb
     RDKit          3D

 24 23  0  0  1  0  0  0  0  0999 V2000
    7.8735  -16.6784   19.8993 N   0  0  0  0  0  0  0  0  0  0  0  0
    8.2388  -15.6955   20.9114 C   0  0  1  0  0  0  0  0  0  0  0  0
    6.9579  -15.4053   21.6925 C   0  0  0  0  0  0  0  0  0  0  0  0
    7.2152  -14.1030   22.9099 S   0  0  0  0  0  0  0  0  0  0  0  0
    9.2116  -16.3397   21.8300 C   0  0  0  0  0  0  0  0  0  0  0  0
    9.0453  -17.5344   22.2475 O   0  0  0  0  0  0  0  0  0  0  0  0
   10.3838  -15.6959   22.3115 N   0  0  0  0  0  0  0  0  0  0  0  0
   11.2558  -16.2704   23.3233 C   0  0  1  0  0  0  0  0  0  0  0  0
   12.5577  -15.5086   23.4142 C   0  0  0  0  0  0  0  0  0  0  0  0
   13.4977  -15.8427   22.3512 C   0  0  0  0  0  0  0  0  0  0  0  0
   13.4490  -16.9515   21.7840 O   0  0  0  0  0  0  0  0  0  0  0  0
   10.5904  -16.2997   24.6522 C   0  0  0  0  0  0  0  0  0  0  0  0
    9.5960  -15.5901   24.9370 O   0  0  0  0  0  0  0  0  0  0  0  0
   14.4562  -14.8910   21.9818 O   0  0  0  0  0  0  0  0  0  0  0  0
   11.0520  -17.1554   25.7081 N   0  0  0  0  0  0  0  0  0  0  0  0
   10.1751  -17.6955   26.7377 C   0  0  1  0  0  0  0  0  0  0  0  0
    8.9583  -18.3693   26.2201 C   0  0  0  0  0  0  0  0  0  0  0  0
    7.8070  -18.5047   27.1448 C   0  0  0  0  0  0  0  0  0  0  0  0
    6.9529  -19.6792   26.9317 C   0  0  0  0  0  0  0  0  0  0  0  0
    7.2312  -20.7656   27.4726 O   0  0  0  0  0  0  0  0  0  0  0  0
   10.9594  -18.4857   27.7200 C   0  0  0  0  0  0  0  0  0  0  0  0
   10.5434  -18.6766   28.8961 O   0  0  0  0  0  0  0  0  0  0  0  0
    5.8364  -19.5853   26.1305 O   0  0  0  0  0  0  0  0  0  0  0  0
   12.1828  -19.0484   27.3884 O   0  0  0  0  0  0  0  0  0  0  0  0
  2  1  1  6
  3  2  1  0
  4  3  1  0
  5  7  1  0
  5  2  1  0
  6  5  2  0
  8  7  1  0
  8 12  1  0
  8  9  1  1
 10  9  1  0
 11 10  2  0
 12 15  1  0
 13 12  2  0
 14 10  1  0
 15 16  1  0
 16 21  1  0
 16 17  1  6
 18 17  1  0
 19 18  1  0
 20 19  2  0
 21 24  1  0
 22 21  2  0
 23 19  1  0
M  END
$$$$
