CDE.pdb
     RDKit          3D

 24 23  0  0  1  0  0  0  0  0999 V2000
    6.7807  -14.7467   18.6689 N   0  0  0  0  0  0  0  0  0  0  0  0
    8.0435  -14.3385   19.2711 C   0  0  1  0  0  0  0  0  0  0  0  0
    7.6861  -13.2770   20.3106 C   0  0  0  0  0  0  0  0  0  0  0  0
    7.6617  -11.6301   19.5818 S   0  0  0  0  0  0  0  0  0  0  0  0
    8.6031  -15.5176   19.9793 C   0  0  0  0  0  0  0  0  0  0  0  0
    7.8478  -16.4215   20.4711 O   0  0  0  0  0  0  0  0  0  0  0  0
    9.9953  -15.7354   20.1656 N   0  0  0  0  0  0  0  0  0  0  0  0
   10.5399  -16.8895   20.8626 C   0  0  1  0  0  0  0  0  0  0  0  0
   11.1746  -17.8596   19.8932 C   0  0  0  0  0  0  0  0  0  0  0  0
   11.7352  -19.0393   20.5406 C   0  0  0  0  0  0  0  0  0  0  0  0
   11.1708  -19.5531   21.5260 O   0  0  0  0  0  0  0  0  0  0  0  0
   11.5309  -16.4775   21.8911 C   0  0  0  0  0  0  0  0  0  0  0  0
   12.5378  -15.7759   21.6311 O   0  0  0  0  0  0  0  0  0  0  0  0
   12.9213  -19.5822   20.0314 O   0  0  0  0  0  0  0  0  0  0  0  0
   11.3946  -16.8630   23.2669 N   0  0  0  0  0  0  0  0  0  0  0  0
   12.2677  -16.3706   24.3233 C   0  0  1  0  0  0  0  0  0  0  0  0
   11.7884  -16.6503   25.6998 C   0  0  0  0  0  0  0  0  0  0  0  0
   11.7760  -18.0650   26.1444 C   0  0  0  0  0  0  0  0  0  0  0  0
   11.2859  -18.3005   27.5076 C   0  0  0  0  0  0  0  0  0  0  0  0
   10.8904  -17.3491   28.2068 O   0  0  0  0  0  0  0  0  0  0  0  0
   13.6736  -16.7666   24.0565 C   0  0  0  0  0  0  0  0  0  0  0  0
   14.6443  -16.0831   24.4844 O   0  0  0  0  0  0  0  0  0  0  0  0
   11.2608  -19.5781   28.0217 O   0  0  0  0  0  0  0  0  0  0  0  0
   13.9815  -17.9044   23.3257 O   0  0  0  0  0  0  0  0  0  0  0  0
  2  1  1  1
  3  2  1  0
  4  3  1  0
  5  7  1  0
  5  2  1  0
  6  5  2  0
  8  7  1  0
  8 12  1  0
  8  9  1  6
 10  9  1  0
 11 10  2  0
 12 15  1  0
 13 12  2  0
 14 10  1  0
 15 16  1  0
 16 21  1  0
 16 17  1  1
 18 17  1  0
 19 18  1  0
 20 19  2  0
 21 24  1  0
 22 21  2  0
 23 19  1  0
M  END
$$$$
