CDE.pdb
     RDKit          3D

 24 23  0  0  1  0  0  0  0  0999 V2000
    6.2128  -15.1897   19.8550 N   0  0  0  0  0  0  0  0  0  0  0  0
    7.5615  -14.6375   19.8654 C   0  0  1  0  0  0  0  0  0  0  0  0
    7.5465  -13.5195   20.9071 C   0  0  0  0  0  0  0  0  0  0  0  0
    6.9084  -14.1056   22.4861 S   0  0  0  0  0  0  0  0  0  0  0  0
    8.4785  -15.7056   20.3381 C   0  0  0  0  0  0  0  0  0  0  0  0
    8.0359  -16.7795   20.8674 O   0  0  0  0  0  0  0  0  0  0  0  0
    9.8944  -15.6252   20.2437 N   0  0  0  0  0  0  0  0  0  0  0  0
   10.7866  -16.7045   20.6353 C   0  0  1  0  0  0  0  0  0  0  0  0
   11.4725  -17.3061   19.4306 C   0  0  0  0  0  0  0  0  0  0  0  0
   12.2057  -18.5290   19.7343 C   0  0  0  0  0  0  0  0  0  0  0  0
   12.6741  -18.7240   20.8728 O   0  0  0  0  0  0  0  0  0  0  0  0
   11.8006  -16.2345   21.6152 C   0  0  0  0  0  0  0  0  0  0  0  0
   12.6895  -15.3954   21.3333 O   0  0  0  0  0  0  0  0  0  0  0  0
   12.3721  -19.4792   18.7194 O   0  0  0  0  0  0  0  0  0  0  0  0
   11.8257  -16.7195   22.9659 N   0  0  0  0  0  0  0  0  0  0  0  0
   12.7344  -16.2053   23.9811 C   0  0  1  0  0  0  0  0  0  0  0  0
   12.2616  -16.3795   25.3771 C   0  0  0  0  0  0  0  0  0  0  0  0
   11.7858  -17.7267   25.7739 C   0  0  0  0  0  0  0  0  0  0  0  0
   11.4706  -17.8979   27.1971 C   0  0  0  0  0  0  0  0  0  0  0  0
   11.6614  -16.9655   28.0000 O   0  0  0  0  0  0  0  0  0  0  0  0
   14.1171  -16.6810   23.7236 C   0  0  0  0  0  0  0  0  0  0  0  0
   15.1084  -16.1866   24.3282 O   0  0  0  0  0  0  0  0  0  0  0  0
   10.9608  -19.0936   27.6530 O   0  0  0  0  0  0  0  0  0  0  0  0
   14.3798  -17.6890   22.8081 O   0  0  0  0  0  0  0  0  0  0  0  0
  2  1  1  1
  3  2  1  0
  4  3  1  0
  5  7  1  0
  5  2  1  0
  6  5  2  0
  8  7  1  0
  8 12  1  0
  8  9  1  6
 10  9  1  0
 11 10  2  0
 12 15  1  0
 13 12  2  0
 14 10  1  0
 15 16  1  0
 16 21  1  0
 16 17  1  1
 18 17  1  0
 19 18  1  0
 20 19  2  0
 21 24  1  0
 22 21  2  0
 23 19  1  0
M  END
$$$$
