CDE.pdb
     RDKit          3D

 24 23  0  0  1  0  0  0  0  0999 V2000
    8.9118  -17.1270   17.1295 N   0  0  0  0  0  0  0  0  0  0  0  0
    8.4014  -17.8636   18.2788 C   0  0  1  0  0  0  0  0  0  0  0  0
    7.6625  -19.0719   17.7051 C   0  0  0  0  0  0  0  0  0  0  0  0
    6.3345  -18.5622   16.6002 S   0  0  0  0  0  0  0  0  0  0  0  0
    9.5711  -18.3536   19.0513 C   0  0  0  0  0  0  0  0  0  0  0  0
    9.4302  -19.1227   20.0603 O   0  0  0  0  0  0  0  0  0  0  0  0
   10.9163  -18.0158   18.7405 N   0  0  0  0  0  0  0  0  0  0  0  0
   12.0655  -18.6006   19.4125 C   0  0  1  0  0  0  0  0  0  0  0  0
   13.2299  -18.7551   18.4618 C   0  0  0  0  0  0  0  0  0  0  0  0
   12.9897  -19.7344   17.4089 C   0  0  0  0  0  0  0  0  0  0  0  0
   13.3091  -19.4914   16.2289 O   0  0  0  0  0  0  0  0  0  0  0  0
   12.4732  -17.7856   20.5869 C   0  0  0  0  0  0  0  0  0  0  0  0
   12.7303  -16.5599   20.5151 O   0  0  0  0  0  0  0  0  0  0  0  0
   12.3925  -20.9535   17.7524 O   0  0  0  0  0  0  0  0  0  0  0  0
   12.5998  -18.3599   21.8962 N   0  0  0  0  0  0  0  0  0  0  0  0
   12.9793  -17.5890   23.0719 C   0  0  1  0  0  0  0  0  0  0  0  0
   12.4626  -18.1267   24.3551 C   0  0  0  0  0  0  0  0  0  0  0  0
   12.7767  -17.3675   25.5896 C   0  0  0  0  0  0  0  0  0  0  0  0
   12.2897  -17.9575   26.8421 C   0  0  0  0  0  0  0  0  0  0  0  0
   11.6100  -19.0006   26.8233 O   0  0  0  0  0  0  0  0  0  0  0  0
   14.4364  -17.3042   23.0530 C   0  0  0  0  0  0  0  0  0  0  0  0
   14.9091  -16.2487   23.5581 O   0  0  0  0  0  0  0  0  0  0  0  0
   12.5829  -17.3591   28.0476 O   0  0  0  0  0  0  0  0  0  0  0  0
   15.3413  -18.1850   22.4798 O   0  0  0  0  0  0  0  0  0  0  0  0
  2  1  1  6
  3  2  1  0
  4  3  1  0
  5  7  1  0
  5  2  1  0
  6  5  2  0
  8  7  1  0
  8 12  1  0
  8  9  1  6
 10  9  1  0
 11 10  2  0
 12 15  1  0
 13 12  2  0
 14 10  1  0
 15 16  1  0
 16 21  1  0
 16 17  1  1
 18 17  1  0
 19 18  1  0
 20 19  2  0
 21 24  1  0
 22 21  2  0
 23 19  1  0
M  END
$$$$
