CDE.pdb
     RDKit          3D

 24 23  0  0  1  0  0  0  0  0999 V2000
    8.2541  -14.6246   17.5297 N   0  0  0  0  0  0  0  0  0  0  0  0
    9.2178  -13.7637   18.2036 C   0  0  1  0  0  0  0  0  0  0  0  0
    8.6025  -13.4327   19.5626 C   0  0  0  0  0  0  0  0  0  0  0  0
    7.3352  -12.1614   19.4145 S   0  0  0  0  0  0  0  0  0  0  0  0
   10.4495  -14.5619   18.4293 C   0  0  0  0  0  0  0  0  0  0  0  0
   10.4151  -15.8356   18.5052 O   0  0  0  0  0  0  0  0  0  0  0  0
   11.7419  -13.9890   18.5765 N   0  0  0  0  0  0  0  0  0  0  0  0
   12.9549  -14.7759   18.7303 C   0  0  1  0  0  0  0  0  0  0  0  0
   14.0168  -14.3341   17.7502 C   0  0  0  0  0  0  0  0  0  0  0  0
   15.2424  -15.1191   17.8337 C   0  0  0  0  0  0  0  0  0  0  0  0
   15.2125  -16.3078   18.2075 O   0  0  0  0  0  0  0  0  0  0  0  0
   13.4782  -14.6905   20.1190 C   0  0  0  0  0  0  0  0  0  0  0  0
   14.0233  -13.6610   20.5844 O   0  0  0  0  0  0  0  0  0  0  0  0
   16.4533  -14.5085   17.4850 O   0  0  0  0  0  0  0  0  0  0  0  0
   13.3905  -15.7982   21.0275 N   0  0  0  0  0  0  0  0  0  0  0  0
   13.8140  -15.7239   22.4188 C   0  0  1  0  0  0  0  0  0  0  0  0
   13.0506  -16.5987   23.3433 C   0  0  0  0  0  0  0  0  0  0  0  0
   11.5835  -16.3965   23.4196 C   0  0  0  0  0  0  0  0  0  0  0  0
   10.8673  -17.2711   24.3556 C   0  0  0  0  0  0  0  0  0  0  0  0
   11.4941  -18.0775   25.0679 O   0  0  0  0  0  0  0  0  0  0  0  0
   15.2905  -15.8469   22.5154 C   0  0  0  0  0  0  0  0  0  0  0  0
   15.9835  -16.2567   21.5436 O   0  0  0  0  0  0  0  0  0  0  0  0
    9.4948  -17.2042   24.4514 O   0  0  0  0  0  0  0  0  0  0  0  0
   15.9724  -15.5172   23.6771 O   0  0  0  0  0  0  0  0  0  0  0  0
  2  1  1  6
  3  2  1  0
  4  3  1  0
  5  7  1  0
  5  2  1  0
  6  5  2  0
  8  7  1  0
  8 12  1  0
  8  9  1  6
 10  9  1  0
 11 10  2  0
 12 15  1  0
 13 12  2  0
 14 10  1  0
 15 16  1  0
 16 21  1  0
 16 17  1  1
 18 17  1  0
 19 18  1  0
 20 19  2  0
 21 24  1  0
 22 21  2  0
 23 19  1  0
M  END
$$$$
