CDE.pdb
     RDKit          3D

 24 23  0  0  1  0  0  0  0  0999 V2000
    6.5739  -13.2392   18.9412 N   0  0  0  0  0  0  0  0  0  0  0  0
    8.0190  -13.1977   19.1258 C   0  0  1  0  0  0  0  0  0  0  0  0
    8.2458  -12.5769   20.5036 C   0  0  0  0  0  0  0  0  0  0  0  0
    7.3415  -13.4697   21.7800 S   0  0  0  0  0  0  0  0  0  0  0  0
    8.5061  -14.6002   19.1583 C   0  0  0  0  0  0  0  0  0  0  0  0
    7.6987  -15.5883   19.1272 O   0  0  0  0  0  0  0  0  0  0  0  0
    9.8812  -14.9537   19.2254 N   0  0  0  0  0  0  0  0  0  0  0  0
   10.3537  -16.3275   19.2869 C   0  0  1  0  0  0  0  0  0  0  0  0
   11.6693  -16.4823   18.5597 C   0  0  0  0  0  0  0  0  0  0  0  0
   12.1395  -17.8610   18.5039 C   0  0  0  0  0  0  0  0  0  0  0  0
   11.3672  -18.7842   18.1804 O   0  0  0  0  0  0  0  0  0  0  0  0
   10.4943  -16.7847   20.6943 C   0  0  0  0  0  0  0  0  0  0  0  0
    9.6951  -17.5837   21.2388 O   0  0  0  0  0  0  0  0  0  0  0  0
   13.4775  -18.1252   18.8217 O   0  0  0  0  0  0  0  0  0  0  0  0
   11.5700  -16.3330   21.5302 N   0  0  0  0  0  0  0  0  0  0  0  0
   11.7624  -16.7907   22.8992 C   0  0  1  0  0  0  0  0  0  0  0  0
   10.5359  -17.3100   23.5539 C   0  0  0  0  0  0  0  0  0  0  0  0
   10.6864  -17.9294   24.8928 C   0  0  0  0  0  0  0  0  0  0  0  0
   10.7180  -16.9975   26.0263 C   0  0  0  0  0  0  0  0  0  0  0  0
   10.1677  -15.8838   25.9404 O   0  0  0  0  0  0  0  0  0  0  0  0
   12.9441  -17.6859   22.9821 C   0  0  0  0  0  0  0  0  0  0  0  0
   14.0522  -17.2766   23.4263 O   0  0  0  0  0  0  0  0  0  0  0  0
   11.3578  -17.3510   27.1938 O   0  0  0  0  0  0  0  0  0  0  0  0
   12.8820  -19.0102   22.5753 O   0  0  0  0  0  0  0  0  0  0  0  0
  2  1  1  1
  3  2  1  0
  4  3  1  0
  5  7  1  0
  5  2  1  0
  6  5  2  0
  8  7  1  0
  8 12  1  0
  8  9  1  1
 10  9  1  0
 11 10  2  0
 12 15  1  0
 13 12  2  0
 14 10  1  0
 15 16  1  0
 16 21  1  0
 16 17  1  6
 18 17  1  0
 19 18  1  0
 20 19  2  0
 21 24  1  0
 22 21  2  0
 23 19  1  0
M  END
$$$$
