CDE.pdb
     RDKit          3D

 24 23  0  0  1  0  0  0  0  0999 V2000
    7.7768  -14.5941   17.2160 N   0  0  0  0  0  0  0  0  0  0  0  0
    8.5807  -13.7425   18.0835 C   0  0  1  0  0  0  0  0  0  0  0  0
    7.7916  -13.6099   19.3853 C   0  0  0  0  0  0  0  0  0  0  0  0
    8.7173  -12.6800   20.6193 S   0  0  0  0  0  0  0  0  0  0  0  0
    9.8446  -14.4660   18.3738 C   0  0  0  0  0  0  0  0  0  0  0  0
    9.8619  -15.7270   18.5712 O   0  0  0  0  0  0  0  0  0  0  0  0
   11.1136  -13.8308   18.4546 N   0  0  0  0  0  0  0  0  0  0  0  0
   12.3583  -14.5510   18.6696 C   0  0  1  0  0  0  0  0  0  0  0  0
   13.4725  -13.9728   17.8283 C   0  0  0  0  0  0  0  0  0  0  0  0
   14.7182  -14.7238   17.9246 C   0  0  0  0  0  0  0  0  0  0  0  0
   15.8178  -14.1522   17.7915 O   0  0  0  0  0  0  0  0  0  0  0  0
   12.7458  -14.5376   20.1046 C   0  0  0  0  0  0  0  0  0  0  0  0
   13.0717  -13.4926   20.7172 O   0  0  0  0  0  0  0  0  0  0  0  0
   14.6523  -16.1009   18.1699 O   0  0  0  0  0  0  0  0  0  0  0  0
   12.7713  -15.7385   20.8903 N   0  0  0  0  0  0  0  0  0  0  0  0
   13.1161  -15.7588   22.3050 C   0  0  1  0  0  0  0  0  0  0  0  0
   12.3187  -16.7083   23.1205 C   0  0  0  0  0  0  0  0  0  0  0  0
   12.5948  -16.7569   24.5767 C   0  0  0  0  0  0  0  0  0  0  0  0
   11.8335  -17.7553   25.3368 C   0  0  0  0  0  0  0  0  0  0  0  0
   11.1578  -17.4123   26.3249 O   0  0  0  0  0  0  0  0  0  0  0  0
   14.5871  -15.8681   22.4754 C   0  0  0  0  0  0  0  0  0  0  0  0
   15.3165  -16.3958   21.5910 O   0  0  0  0  0  0  0  0  0  0  0  0
   11.8625  -19.0799   24.9601 O   0  0  0  0  0  0  0  0  0  0  0  0
   15.2236  -15.3954   23.6132 O   0  0  0  0  0  0  0  0  0  0  0  0
  2  1  1  6
  3  2  1  0
  4  3  1  0
  5  7  1  0
  5  2  1  0
  6  5  2  0
  8  7  1  0
  8 12  1  0
  8  9  1  6
 10  9  1  0
 11 10  2  0
 12 15  1  0
 13 12  2  0
 14 10  1  0
 15 16  1  0
 16 21  1  0
 16 17  1  1
 18 17  1  0
 19 18  1  0
 20 19  2  0
 21 24  1  0
 22 21  2  0
 23 19  1  0
M  END
$$$$
