CDE.pdb
     RDKit          3D

 24 23  0  0  1  0  0  0  0  0999 V2000
    7.6024  -13.7217   17.1676 N   0  0  0  0  0  0  0  0  0  0  0  0
    8.3480  -13.4873   18.3977 C   0  0  1  0  0  0  0  0  0  0  0  0
    7.3550  -12.8580   19.3739 C   0  0  0  0  0  0  0  0  0  0  0  0
    8.0375  -12.7754   21.0386 S   0  0  0  0  0  0  0  0  0  0  0  0
    8.7557  -14.8111   18.9329 C   0  0  0  0  0  0  0  0  0  0  0  0
    8.2472  -15.8953   18.4908 O   0  0  0  0  0  0  0  0  0  0  0  0
    9.7243  -14.9801   19.9593 N   0  0  0  0  0  0  0  0  0  0  0  0
   10.3622  -16.2521   20.2580 C   0  0  1  0  0  0  0  0  0  0  0  0
   10.8230  -16.9388   18.9932 C   0  0  0  0  0  0  0  0  0  0  0  0
   11.4422  -18.2365   19.2333 C   0  0  0  0  0  0  0  0  0  0  0  0
   10.8137  -19.1441   19.8120 O   0  0  0  0  0  0  0  0  0  0  0  0
   11.5097  -16.0729   21.1857 C   0  0  0  0  0  0  0  0  0  0  0  0
   12.4933  -15.3389   20.9261 O   0  0  0  0  0  0  0  0  0  0  0  0
   12.7579  -18.4408   18.7997 O   0  0  0  0  0  0  0  0  0  0  0  0
   11.5639  -16.7391   22.4559 N   0  0  0  0  0  0  0  0  0  0  0  0
   12.3689  -16.2632   23.5722 C   0  0  1  0  0  0  0  0  0  0  0  0
   11.8883  -16.6966   24.9079 C   0  0  0  0  0  0  0  0  0  0  0  0
   12.1922  -18.0869   25.3250 C   0  0  0  0  0  0  0  0  0  0  0  0
   11.6625  -18.4902   26.6330 C   0  0  0  0  0  0  0  0  0  0  0  0
   11.0315  -17.6771   27.3338 O   0  0  0  0  0  0  0  0  0  0  0  0
   13.8092  -16.5137   23.3127 C   0  0  0  0  0  0  0  0  0  0  0  0
   14.1887  -17.4027   22.5015 O   0  0  0  0  0  0  0  0  0  0  0  0
   11.8609  -19.7733   27.0931 O   0  0  0  0  0  0  0  0  0  0  0  0
   14.8000  -15.7820   23.9501 O   0  0  0  0  0  0  0  0  0  0  0  0
  2  1  1  6
  3  2  1  0
  4  3  1  0
  5  7  1  0
  5  2  1  0
  6  5  2  0
  8  7  1  0
  8 12  1  0
  8  9  1  6
 10  9  1  0
 11 10  2  0
 12 15  1  0
 13 12  2  0
 14 10  1  0
 15 16  1  0
 16 21  1  0
 16 17  1  1
 18 17  1  0
 19 18  1  0
 20 19  2  0
 21 24  1  0
 22 21  2  0
 23 19  1  0
M  END
$$$$
