CDE.pdb
     RDKit          3D

 24 23  0  0  1  0  0  0  0  0999 V2000
    7.1961  -13.3755   17.9832 N   0  0  0  0  0  0  0  0  0  0  0  0
    8.5210  -13.4105   18.5892 C   0  0  1  0  0  0  0  0  0  0  0  0
    8.4126  -12.5947   19.8767 C   0  0  0  0  0  0  0  0  0  0  0  0
    7.4111  -13.4462   21.1080 S   0  0  0  0  0  0  0  0  0  0  0  0
    8.8099  -14.8213   18.9518 C   0  0  0  0  0  0  0  0  0  0  0  0
    8.2599  -15.7949   18.3361 O   0  0  0  0  0  0  0  0  0  0  0  0
    9.7026  -15.1992   19.9913 N   0  0  0  0  0  0  0  0  0  0  0  0
   10.3656  -16.4920   20.0481 C   0  0  1  0  0  0  0  0  0  0  0  0
   11.0971  -16.7843   18.7584 C   0  0  0  0  0  0  0  0  0  0  0  0
   11.7384  -18.0933   18.7422 C   0  0  0  0  0  0  0  0  0  0  0  0
   11.4304  -18.9633   19.5799 O   0  0  0  0  0  0  0  0  0  0  0  0
   11.3092  -16.5620   21.1945 C   0  0  0  0  0  0  0  0  0  0  0  0
   12.3031  -15.8057   21.3118 O   0  0  0  0  0  0  0  0  0  0  0  0
   12.7078  -18.3516   17.7652 O   0  0  0  0  0  0  0  0  0  0  0  0
   11.1386  -17.5143   22.2547 N   0  0  0  0  0  0  0  0  0  0  0  0
   11.2016  -17.1572   23.6651 C   0  0  1  0  0  0  0  0  0  0  0  0
   10.0161  -16.4192   24.1679 C   0  0  0  0  0  0  0  0  0  0  0  0
   10.0748  -15.8960   25.5542 C   0  0  0  0  0  0  0  0  0  0  0  0
    8.9086  -15.1202   25.9926 C   0  0  0  0  0  0  0  0  0  0  0  0
    7.8969  -15.6988   26.4308 O   0  0  0  0  0  0  0  0  0  0  0  0
   11.5977  -18.3350   24.4777 C   0  0  0  0  0  0  0  0  0  0  0  0
   11.2327  -19.5029   24.1687 O   0  0  0  0  0  0  0  0  0  0  0  0
    8.9274  -13.7447   25.9215 O   0  0  0  0  0  0  0  0  0  0  0  0
   12.3857  -18.2036   25.6113 O   0  0  0  0  0  0  0  0  0  0  0  0
  2  1  1  1
  3  2  1  0
  4  3  1  0
  5  7  1  0
  5  2  1  0
  6  5  2  0
  8  7  1  0
  8 12  1  0
  8  9  1  6
 10  9  1  0
 11 10  2  0
 12 15  1  0
 13 12  2  0
 14 10  1  0
 15 16  1  0
 16 21  1  0
 16 17  1  1
 18 17  1  0
 19 18  1  0
 20 19  2  0
 21 24  1  0
 22 21  2  0
 23 19  1  0
M  END
$$$$
