CDE.pdb
     RDKit          3D

 24 23  0  0  1  0  0  0  0  0999 V2000
    6.4171  -16.0033   19.8171 N   0  0  0  0  0  0  0  0  0  0  0  0
    7.4439  -15.1289   20.3694 C   0  0  1  0  0  0  0  0  0  0  0  0
    6.8724  -14.5905   21.6804 C   0  0  0  0  0  0  0  0  0  0  0  0
    8.0906  -13.6058   22.5693 S   0  0  0  0  0  0  0  0  0  0  0  0
    8.6260  -15.9706   20.6847 C   0  0  0  0  0  0  0  0  0  0  0  0
    8.5105  -17.0745   21.3151 O   0  0  0  0  0  0  0  0  0  0  0  0
    9.9560  -15.6269   20.3197 N   0  0  0  0  0  0  0  0  0  0  0  0
   11.0971  -16.5031   20.5308 C   0  0  1  0  0  0  0  0  0  0  0  0
   12.1525  -16.2848   19.4716 C   0  0  0  0  0  0  0  0  0  0  0  0
   13.2313  -17.2641   19.5208 C   0  0  0  0  0  0  0  0  0  0  0  0
   14.2686  -17.1026   18.8489 O   0  0  0  0  0  0  0  0  0  0  0  0
   11.6843  -16.3044   21.8818 C   0  0  0  0  0  0  0  0  0  0  0  0
   12.1533  -15.2080   22.2712 O   0  0  0  0  0  0  0  0  0  0  0  0
   13.0765  -18.3898   20.3392 O   0  0  0  0  0  0  0  0  0  0  0  0
   11.7521  -17.3716   22.8391 N   0  0  0  0  0  0  0  0  0  0  0  0
   12.2896  -17.2050   24.1823 C   0  0  1  0  0  0  0  0  0  0  0  0
   11.6466  -18.0566   25.2138 C   0  0  0  0  0  0  0  0  0  0  0  0
   12.1343  -17.9262   26.6081 C   0  0  0  0  0  0  0  0  0  0  0  0
   11.5046  -18.8173   27.5897 C   0  0  0  0  0  0  0  0  0  0  0  0
   11.7861  -20.0301   27.6097 O   0  0  0  0  0  0  0  0  0  0  0  0
   13.7729  -17.2658   24.1550 C   0  0  0  0  0  0  0  0  0  0  0  0
   14.4791  -16.4416   24.7989 O   0  0  0  0  0  0  0  0  0  0  0  0
   10.5968  -18.3155   28.4960 O   0  0  0  0  0  0  0  0  0  0  0  0
   14.4470  -18.2302   23.4210 O   0  0  0  0  0  0  0  0  0  0  0  0
  2  1  1  1
  3  2  1  0
  4  3  1  0
  5  7  1  0
  5  2  1  0
  6  5  2  0
  8  7  1  0
  8 12  1  0
  8  9  1  6
 10  9  1  0
 11 10  2  0
 12 15  1  0
 13 12  2  0
 14 10  1  0
 15 16  1  0
 16 21  1  0
 16 17  1  1
 18 17  1  0
 19 18  1  0
 20 19  2  0
 21 24  1  0
 22 21  2  0
 23 19  1  0
M  END
$$$$
