CDE.pdb
     RDKit          3D

 24 23  0  0  1  0  0  0  0  0999 V2000
    5.4868  -13.0644   26.7666 N   0  0  0  0  0  0  0  0  0  0  0  0
    6.3363  -12.8571   25.6007 C   0  0  1  0  0  0  0  0  0  0  0  0
    7.5479  -12.0721   26.1017 C   0  0  0  0  0  0  0  0  0  0  0  0
    8.3175  -12.8868   27.5117 S   0  0  0  0  0  0  0  0  0  0  0  0
    6.7998  -14.1912   25.1421 C   0  0  0  0  0  0  0  0  0  0  0  0
    6.5895  -15.2445   25.8318 O   0  0  0  0  0  0  0  0  0  0  0  0
    7.5010  -14.4043   23.9242 N   0  0  0  0  0  0  0  0  0  0  0  0
    7.9310  -15.7154   23.4655 C   0  0  1  0  0  0  0  0  0  0  0  0
    7.9088  -15.7970   21.9567 C   0  0  0  0  0  0  0  0  0  0  0  0
    8.2136  -17.1279   21.4459 C   0  0  0  0  0  0  0  0  0  0  0  0
    8.0826  -18.1333   22.1709 O   0  0  0  0  0  0  0  0  0  0  0  0
    9.2895  -16.0428   23.9722 C   0  0  0  0  0  0  0  0  0  0  0  0
   10.2727  -15.2744   23.8445 O   0  0  0  0  0  0  0  0  0  0  0  0
    8.6566  -17.2519   20.1233 O   0  0  0  0  0  0  0  0  0  0  0  0
    9.5645  -17.2781   24.6494 N   0  0  0  0  0  0  0  0  0  0  0  0
   10.8626  -17.5998   25.2257 C   0  0  1  0  0  0  0  0  0  0  0  0
   11.9812  -16.7569   24.7348 C   0  0  0  0  0  0  0  0  0  0  0  0
   12.6911  -17.2080   23.5134 C   0  0  0  0  0  0  0  0  0  0  0  0
   13.7518  -16.3177   23.0273 C   0  0  0  0  0  0  0  0  0  0  0  0
   13.6952  -15.8408   21.8784 O   0  0  0  0  0  0  0  0  0  0  0  0
   10.7587  -17.7051   26.7031 C   0  0  0  0  0  0  0  0  0  0  0  0
   11.7573  -18.0021   27.4153 O   0  0  0  0  0  0  0  0  0  0  0  0
   14.8179  -16.0042   23.8413 O   0  0  0  0  0  0  0  0  0  0  0  0
    9.5606  -17.4820   27.3648 O   0  0  0  0  0  0  0  0  0  0  0  0
  2  1  1  1
  3  2  1  0
  4  3  1  0
  5  7  1  0
  5  2  1  0
  6  5  2  0
  8  7  1  0
  8 12  1  0
  8  9  1  6
 10  9  1  0
 11 10  2  0
 12 15  1  0
 13 12  2  0
 14 10  1  0
 15 16  1  0
 16 21  1  0
 16 17  1  1
 18 17  1  0
 19 18  1  0
 20 19  2  0
 21 24  1  0
 22 21  2  0
 23 19  1  0
M  END
$$$$
