CDE.pdb
     RDKit          3D

 24 23  0  0  1  0  0  0  0  0999 V2000
    7.3365  -13.6569   17.6300 N   0  0  0  0  0  0  0  0  0  0  0  0
    8.3001  -13.1626   18.6052 C   0  0  1  0  0  0  0  0  0  0  0  0
    7.5912  -13.2193   19.9577 C   0  0  0  0  0  0  0  0  0  0  0  0
    8.7382  -12.9068   21.3108 S   0  0  0  0  0  0  0  0  0  0  0  0
    9.4380  -14.1164   18.6327 C   0  0  0  0  0  0  0  0  0  0  0  0
    9.2855  -15.3465   18.3278 O   0  0  0  0  0  0  0  0  0  0  0  0
   10.7632  -13.7495   18.9925 N   0  0  0  0  0  0  0  0  0  0  0  0
   11.8731  -14.6881   19.0284 C   0  0  1  0  0  0  0  0  0  0  0  0
   12.9687  -14.2702   18.0752 C   0  0  0  0  0  0  0  0  0  0  0  0
   14.0846  -15.2073   18.0314 C   0  0  0  0  0  0  0  0  0  0  0  0
   15.2280  -14.8520   18.3778 O   0  0  0  0  0  0  0  0  0  0  0  0
   12.4200  -14.8210   20.4042 C   0  0  0  0  0  0  0  0  0  0  0  0
   13.1213  -13.9367   20.9518 O   0  0  0  0  0  0  0  0  0  0  0  0
   13.8437  -16.5148   17.5918 O   0  0  0  0  0  0  0  0  0  0  0  0
   12.1755  -15.9877   21.2037 N   0  0  0  0  0  0  0  0  0  0  0  0
   12.5978  -16.1057   22.5923 C   0  0  1  0  0  0  0  0  0  0  0  0
   11.7477  -16.9956   23.4219 C   0  0  0  0  0  0  0  0  0  0  0  0
   12.2036  -17.2821   24.8036 C   0  0  0  0  0  0  0  0  0  0  0  0
   11.2894  -18.0869   25.6225 C   0  0  0  0  0  0  0  0  0  0  0  0
   10.0822  -18.1630   25.3272 O   0  0  0  0  0  0  0  0  0  0  0  0
   14.0546  -16.3831   22.6662 C   0  0  0  0  0  0  0  0  0  0  0  0
   14.6178  -17.1728   21.8589 O   0  0  0  0  0  0  0  0  0  0  0  0
   11.7634  -18.7641   26.7244 O   0  0  0  0  0  0  0  0  0  0  0  0
   14.8598  -15.7870   23.6252 O   0  0  0  0  0  0  0  0  0  0  0  0
  2  1  1  6
  3  2  1  0
  4  3  1  0
  5  7  1  0
  5  2  1  0
  6  5  2  0
  8  7  1  0
  8 12  1  0
  8  9  1  6
 10  9  1  0
 11 10  2  0
 12 15  1  0
 13 12  2  0
 14 10  1  0
 15 16  1  0
 16 21  1  0
 16 17  1  6
 18 17  1  0
 19 18  1  0
 20 19  2  0
 21 24  1  0
 22 21  2  0
 23 19  1  0
M  END
$$$$
