CDE.pdb
     RDKit          3D

 24 23  0  0  1  0  0  0  0  0999 V2000
    6.6911  -14.0833   19.1480 N   0  0  0  0  0  0  0  0  0  0  0  0
    8.0432  -13.5427   19.0872 C   0  0  1  0  0  0  0  0  0  0  0  0
    8.1080  -12.4595   20.1632 C   0  0  0  0  0  0  0  0  0  0  0  0
    7.7012  -13.1251   21.7866 S   0  0  0  0  0  0  0  0  0  0  0  0
    8.9782  -14.6332   19.4637 C   0  0  0  0  0  0  0  0  0  0  0  0
    8.5970  -15.6251   20.1710 O   0  0  0  0  0  0  0  0  0  0  0  0
   10.3458  -14.6648   19.0776 N   0  0  0  0  0  0  0  0  0  0  0  0
   11.2816  -15.6839   19.5247 C   0  0  1  0  0  0  0  0  0  0  0  0
   12.3875  -15.8861   18.5148 C   0  0  0  0  0  0  0  0  0  0  0  0
   12.1646  -17.0268   17.6350 C   0  0  0  0  0  0  0  0  0  0  0  0
   11.4888  -18.0022   18.0164 O   0  0  0  0  0  0  0  0  0  0  0  0
   11.8603  -15.3379   20.8494 C   0  0  0  0  0  0  0  0  0  0  0  0
   11.2419  -14.6738   21.7156 O   0  0  0  0  0  0  0  0  0  0  0  0
   12.7262  -17.0026   16.3525 O   0  0  0  0  0  0  0  0  0  0  0  0
   13.1831  -15.7489   21.2252 N   0  0  0  0  0  0  0  0  0  0  0  0
   13.7523  -15.4978   22.5419 C   0  0  1  0  0  0  0  0  0  0  0  0
   12.8185  -15.7298   23.6719 C   0  0  0  0  0  0  0  0  0  0  0  0
   12.4972  -17.1363   24.0146 C   0  0  0  0  0  0  0  0  0  0  0  0
   11.6911  -17.3291   25.2258 C   0  0  0  0  0  0  0  0  0  0  0  0
   10.4482  -17.2814   25.1683 O   0  0  0  0  0  0  0  0  0  0  0  0
   15.0704  -16.1692   22.6701 C   0  0  0  0  0  0  0  0  0  0  0  0
   15.4560  -17.0315   21.8332 O   0  0  0  0  0  0  0  0  0  0  0  0
   12.3068  -17.5645   26.4353 O   0  0  0  0  0  0  0  0  0  0  0  0
   15.9351  -15.8783   23.7146 O   0  0  0  0  0  0  0  0  0  0  0  0
  2  1  1  1
  3  2  1  0
  4  3  1  0
  5  7  1  0
  5  2  1  0
  6  5  2  0
  8  7  1  0
  8 12  1  0
  8  9  1  6
 10  9  1  0
 11 10  2  0
 12 15  1  0
 13 12  2  0
 14 10  1  0
 15 16  1  0
 16 21  1  0
 16 17  1  1
 18 17  1  0
 19 18  1  0
 20 19  2  0
 21 24  1  0
 22 21  2  0
 23 19  1  0
M  END
$$$$
