MLI.pdb
     RDKit          3D

 25 24  0  0  1  0  0  0  0  0999 V2000
    5.5965  -20.7022   23.1384 C   0  0  0  0  0  0  0  0  0  0  0  0
    5.0378  -20.0662   21.5438 S   0  0  0  0  0  0  0  0  0  0  0  0
    5.5379  -18.3585   21.2783 C   0  0  0  0  0  0  0  0  0  0  0  0
    6.6081  -17.9300   22.2885 C   0  0  0  0  0  0  0  0  0  0  0  0
    6.8350  -16.4404   22.1307 C   0  0  2  0  0  0  0  0  0  0  0  0
    7.4929  -16.2437   20.8526 N   0  0  0  0  0  0  0  0  0  0  0  0
    7.7060  -15.8951   23.1875 C   0  0  0  0  0  0  0  0  0  0  0  0
    8.9585  -15.9048   23.0645 O   0  0  0  0  0  0  0  0  0  0  0  0
    7.9830  -11.7323   25.0772 C   0  0  0  0  0  0  0  0  0  0  0  0
    6.9233  -12.6574   25.6189 C   0  0  2  0  0  0  0  0  0  0  0  0
    6.1204  -11.8252   26.6369 C   0  0  0  0  0  0  0  0  0  0  0  0
    7.3972  -13.8745   26.3051 C   0  0  0  0  0  0  0  0  0  0  0  0
    8.0361  -14.9502   25.5023 C   0  0  2  0  0  0  0  0  0  0  0  0
    7.1982  -15.3301   24.3978 N   0  0  0  0  0  0  0  0  0  0  0  0
    8.4834  -16.1052   26.3048 C   0  0  0  0  0  0  0  0  0  0  0  0
    7.6459  -16.9440   26.7243 O   0  0  0  0  0  0  0  0  0  0  0  0
   13.9472  -18.1842   26.3694 C   0  0  0  0  0  0  0  0  0  0  0  0
   12.7360  -17.4859   26.9109 C   0  0  0  0  0  0  0  0  0  0  0  0
   11.4447  -18.1877   26.7272 C   0  0  2  0  0  0  0  0  0  0  0  0
   11.2910  -18.4505   25.2239 C   0  0  0  0  0  0  0  0  0  0  0  0
   10.2326  -17.5722   27.3127 C   0  0  2  0  0  0  0  0  0  0  0  0
    9.8409  -16.3378   26.6450 N   0  0  0  0  0  0  0  0  0  0  0  0
   10.2728  -17.3131   28.7624 C   0  0  0  0  0  0  0  0  0  0  0  0
   10.1908  -16.1319   29.1763 O   0  0  0  0  0  0  0  0  0  0  0  0
   10.3968  -18.3057   29.7224 O   0  0  0  0  0  0  0  0  0  0  0  0
  2  1  1  0
  2  3  1  0
  4  3  1  0
  4  5  1  0
  5  7  1  0
  5  6  1  6
  7  8  2  0
 10  9  1  1
 10 12  1  0
 11 10  1  0
 13 12  1  1
 13 14  1  0
 14  7  1  0
 15 13  1  0
 16 15  2  0
 18 17  1  0
 18 19  1  0
 19 21  1  0
 19 20  1  6
 21 23  1  0
 21 22  1  6
 22 15  1  0
 23 25  1  0
 24 23  2  0
M  END
$$$$
