MLI.pdb
     RDKit          3D

 25 24  0  0  1  0  0  0  0  0999 V2000
    7.6926  -11.9042   18.5059 C   0  0  0  0  0  0  0  0  0  0  0  0
    7.8305  -13.4646   17.6083 S   0  0  0  0  0  0  0  0  0  0  0  0
    8.0534  -14.8679   18.7120 C   0  0  0  0  0  0  0  0  0  0  0  0
    8.6459  -14.4288   20.0557 C   0  0  0  0  0  0  0  0  0  0  0  0
    8.8381  -15.6640   20.9116 C   0  0  2  0  0  0  0  0  0  0  0  0
    7.5878  -16.3996   20.8834 N   0  0  0  0  0  0  0  0  0  0  0  0
    9.1445  -15.3274   22.3136 C   0  0  0  0  0  0  0  0  0  0  0  0
   10.2606  -14.8425   22.6349 O   0  0  0  0  0  0  0  0  0  0  0  0
    7.4009  -12.1175   25.3826 C   0  0  0  0  0  0  0  0  0  0  0  0
    6.5397  -13.3098   25.0529 C   0  0  2  0  0  0  0  0  0  0  0  0
    5.2685  -13.1592   25.9102 C   0  0  0  0  0  0  0  0  0  0  0  0
    7.1169  -14.6387   25.3316 C   0  0  0  0  0  0  0  0  0  0  0  0
    8.4146  -15.0048   24.7060 C   0  0  2  0  0  0  0  0  0  0  0  0
    8.2148  -15.5244   23.3807 N   0  0  0  0  0  0  0  0  0  0  0  0
    9.2522  -15.8840   25.5449 C   0  0  0  0  0  0  0  0  0  0  0  0
    9.7380  -16.9392   25.0637 O   0  0  0  0  0  0  0  0  0  0  0  0
   10.4365  -13.5468   29.8882 C   0  0  0  0  0  0  0  0  0  0  0  0
   11.2610  -14.3939   28.9660 C   0  0  0  0  0  0  0  0  0  0  0  0
   10.9179  -15.8342   28.9254 C   0  0  2  0  0  0  0  0  0  0  0  0
   12.0874  -16.5886   29.5704 C   0  0  0  0  0  0  0  0  0  0  0  0
   10.5292  -16.4170   27.6216 C   0  0  2  0  0  0  0  0  0  0  0  0
    9.5543  -15.6070   26.9030 N   0  0  0  0  0  0  0  0  0  0  0  0
   10.0342  -17.8042   27.6533 C   0  0  0  0  0  0  0  0  0  0  0  0
   10.8317  -18.7449   27.4242 O   0  0  0  0  0  0  0  0  0  0  0  0
    8.7196  -18.1502   27.9259 O   0  0  0  0  0  0  0  0  0  0  0  0
  2  1  1  0
  2  3  1  0
  4  3  1  0
  4  5  1  0
  5  7  1  0
  5  6  1  1
  7  8  2  0
 10  9  1  1
 10 12  1  0
 11 10  1  0
 13 12  1  1
 13 14  1  0
 14  7  1  0
 15 13  1  0
 16 15  2  0
 18 17  1  0
 18 19  1  0
 19 21  1  0
 19 20  1  6
 21 23  1  0
 21 22  1  1
 22 15  1  0
 23 25  1  0
 24 23  2  0
M  END
$$$$
