MLI.pdb
     RDKit          3D

 25 24  0  0  1  0  0  0  0  0999 V2000
    6.2537  -12.1754   27.1664 C   0  0  0  0  0  0  0  0  0  0  0  0
    4.6138  -12.8305   26.7910 S   0  0  0  0  0  0  0  0  0  0  0  0
    4.6756  -14.5354   26.2196 C   0  0  0  0  0  0  0  0  0  0  0  0
    6.0698  -14.8943   25.6935 C   0  0  0  0  0  0  0  0  0  0  0  0
    5.9359  -16.1055   24.7933 C   0  0  2  0  0  0  0  0  0  0  0  0
    5.6732  -17.2458   25.6512 N   0  0  0  0  0  0  0  0  0  0  0  0
    7.1703  -16.3735   24.0336 C   0  0  0  0  0  0  0  0  0  0  0  0
    7.7584  -17.4827   24.1226 O   0  0  0  0  0  0  0  0  0  0  0  0
    7.3520  -14.0581   20.1445 C   0  0  0  0  0  0  0  0  0  0  0  0
    8.2852  -13.5771   21.2261 C   0  0  2  0  0  0  0  0  0  0  0  0
    8.9302  -12.2884   20.6814 C   0  0  0  0  0  0  0  0  0  0  0  0
    9.3721  -14.4951   21.6171 C   0  0  0  0  0  0  0  0  0  0  0  0
    9.0872  -15.5666   22.6072 C   0  0  2  0  0  0  0  0  0  0  0  0
    7.7704  -15.4126   23.1627 N   0  0  0  0  0  0  0  0  0  0  0  0
   10.1305  -15.7139   23.6407 C   0  0  0  0  0  0  0  0  0  0  0  0
   11.3457  -15.6780   23.3198 O   0  0  0  0  0  0  0  0  0  0  0  0
    9.6556  -13.1146   28.3498 C   0  0  0  0  0  0  0  0  0  0  0  0
   10.2394  -13.7520   27.1247 C   0  0  0  0  0  0  0  0  0  0  0  0
   10.5842  -15.1878   27.2405 C   0  0  2  0  0  0  0  0  0  0  0  0
   11.6956  -15.2950   28.2923 C   0  0  0  0  0  0  0  0  0  0  0  0
   10.9179  -15.9222   25.9995 C   0  0  2  0  0  0  0  0  0  0  0  0
    9.8420  -15.8997   25.0172 N   0  0  0  0  0  0  0  0  0  0  0  0
   11.3501  -17.3202   26.1699 C   0  0  0  0  0  0  0  0  0  0  0  0
   10.5691  -18.2468   25.8465 O   0  0  0  0  0  0  0  0  0  0  0  0
   12.5877  -17.6913   26.6730 O   0  0  0  0  0  0  0  0  0  0  0  0
  2  1  1  0
  2  3  1  0
  4  3  1  0
  4  5  1  0
  5  7  1  0
  5  6  1  1
  7  8  2  0
 10  9  1  6
 10 12  1  0
 11 10  1  0
 13 12  1  1
 13 14  1  0
 14  7  1  0
 15 13  1  0
 16 15  2  0
 18 17  1  0
 18 19  1  0
 19 21  1  0
 19 20  1  1
 21 23  1  0
 21 22  1  6
 22 15  1  0
 23 25  1  0
 24 23  2  0
M  END
$$$$
