MLI.pdb
     RDKit          3D

 25 24  0  0  1  0  0  0  0  0999 V2000
    6.2793  -20.2980   27.3085 C   0  0  0  0  0  0  0  0  0  0  0  0
    8.0070  -20.7811   27.1060 S   0  0  0  0  0  0  0  0  0  0  0  0
    8.7393  -20.0842   25.6178 C   0  0  0  0  0  0  0  0  0  0  0  0
    7.7705  -20.1638   24.4327 C   0  0  0  0  0  0  0  0  0  0  0  0
    8.4508  -19.5494   23.2264 C   0  0  2  0  0  0  0  0  0  0  0  0
    9.7793  -20.1275   23.1472 N   0  0  0  0  0  0  0  0  0  0  0  0
    8.5898  -18.0872   23.3504 C   0  0  0  0  0  0  0  0  0  0  0  0
    9.5336  -17.5793   24.0102 O   0  0  0  0  0  0  0  0  0  0  0  0
    7.7453  -12.6438   22.1660 C   0  0  0  0  0  0  0  0  0  0  0  0
    7.8402  -13.7854   21.1862 C   0  0  2  0  0  0  0  0  0  0  0  0
    7.0685  -13.3285   19.9336 C   0  0  0  0  0  0  0  0  0  0  0  0
    7.2728  -15.0766   21.6196 C   0  0  0  0  0  0  0  0  0  0  0  0
    7.8327  -15.7393   22.8266 C   0  0  2  0  0  0  0  0  0  0  0  0
    7.6817  -17.1664   22.7428 N   0  0  0  0  0  0  0  0  0  0  0  0
    7.3281  -15.1843   24.0977 C   0  0  0  0  0  0  0  0  0  0  0  0
    6.2389  -15.5919   24.5756 O   0  0  0  0  0  0  0  0  0  0  0  0
   10.6434  -14.1836   28.4079 C   0  0  0  0  0  0  0  0  0  0  0  0
    9.4807  -14.5668   27.5423 C   0  0  0  0  0  0  0  0  0  0  0  0
    8.6051  -13.4567   27.1011 C   0  0  2  0  0  0  0  0  0  0  0  0
    8.0783  -12.7743   28.3698 C   0  0  0  0  0  0  0  0  0  0  0  0
    7.5201  -13.7689   26.1440 C   0  0  2  0  0  0  0  0  0  0  0  0
    8.0143  -14.1883   24.8390 N   0  0  0  0  0  0  0  0  0  0  0  0
    6.5174  -12.7104   25.9328 C   0  0  0  0  0  0  0  0  0  0  0  0
    6.6871  -11.8816   25.0068 O   0  0  0  0  0  0  0  0  0  0  0  0
    5.3736  -12.5639   26.7025 O   0  0  0  0  0  0  0  0  0  0  0  0
  2  1  1  0
  2  3  1  0
  4  3  1  0
  4  5  1  0
  5  7  1  0
  5  6  1  1
  7  8  2  0
 10  9  1  1
 10 12  1  0
 11 10  1  0
 13 12  1  6
 13 14  1  0
 14  7  1  0
 15 13  1  0
 16 15  2  0
 18 17  1  0
 18 19  1  0
 19 21  1  0
 19 20  1  1
 21 23  1  0
 21 22  1  6
 22 15  1  0
 23 25  1  0
 24 23  2  0
M  END
$$$$
