MLI.pdb
     RDKit          3D

 25 24  0  0  1  0  0  0  0  0999 V2000
    8.5988  -20.8018   27.0139 C   0  0  0  0  0  0  0  0  0  0  0  0
    6.8105  -20.7873   26.7671 S   0  0  0  0  0  0  0  0  0  0  0  0
    6.2850  -19.4631   25.6684 C   0  0  0  0  0  0  0  0  0  0  0  0
    6.7528  -19.7160   24.2308 C   0  0  0  0  0  0  0  0  0  0  0  0
    6.4164  -18.4919   23.4040 C   0  0  2  0  0  0  0  0  0  0  0  0
    6.8398  -18.7681   22.0440 N   0  0  0  0  0  0  0  0  0  0  0  0
    7.1281  -17.2898   23.8743 C   0  0  0  0  0  0  0  0  0  0  0  0
    8.3428  -17.1069   23.6006 O   0  0  0  0  0  0  0  0  0  0  0  0
    5.7230  -11.8355   26.6025 C   0  0  0  0  0  0  0  0  0  0  0  0
    6.7519  -12.7385   25.9715 C   0  0  2  0  0  0  0  0  0  0  0  0
    7.4230  -11.9017   24.8657 C   0  0  0  0  0  0  0  0  0  0  0  0
    6.2503  -13.9816   25.3550 C   0  0  0  0  0  0  0  0  0  0  0  0
    7.1943  -15.1096   25.1403 C   0  0  2  0  0  0  0  0  0  0  0  0
    6.5005  -16.2719   24.6565 N   0  0  0  0  0  0  0  0  0  0  0  0
    8.0505  -15.3988   26.3071 C   0  0  0  0  0  0  0  0  0  0  0  0
    7.6100  -16.0980   27.2548 O   0  0  0  0  0  0  0  0  0  0  0  0
   14.0630  -16.5870   26.2207 C   0  0  0  0  0  0  0  0  0  0  0  0
   12.7900  -16.5329   27.0110 C   0  0  0  0  0  0  0  0  0  0  0  0
   11.6991  -15.7160   26.4310 C   0  0  2  0  0  0  0  0  0  0  0  0
   12.2517  -14.2959   26.2553 C   0  0  0  0  0  0  0  0  0  0  0  0
   10.3881  -15.7234   27.1180 C   0  0  2  0  0  0  0  0  0  0  0  0
    9.3811  -14.9235   26.4331 N   0  0  0  0  0  0  0  0  0  0  0  0
   10.3975  -15.3267   28.5368 C   0  0  0  0  0  0  0  0  0  0  0  0
   10.9211  -16.0902   29.3831 O   0  0  0  0  0  0  0  0  0  0  0  0
    9.8569  -14.1418   29.0122 O   0  0  0  0  0  0  0  0  0  0  0  0
  2  1  1  0
  2  3  1  0
  4  3  1  0
  4  5  1  0
  5  7  1  0
  5  6  1  6
  7  8  2  0
 10  9  1  6
 10 12  1  0
 11 10  1  0
 13 12  1  1
 13 14  1  0
 14  7  1  0
 15 13  1  0
 16 15  2  0
 18 17  1  0
 18 19  1  0
 19 21  1  0
 19 20  1  1
 21 23  1  0
 21 22  1  6
 22 15  1  0
 23 25  1  0
 24 23  2  0
M  END
$$$$
