MLI.pdb
     RDKit          3D

 25 24  0  0  1  0  0  0  0  0999 V2000
    7.9308  -19.0534   25.8544 C   0  0  0  0  0  0  0  0  0  0  0  0
    6.2558  -18.5294   25.4312 S   0  0  0  0  0  0  0  0  0  0  0  0
    5.7388  -19.1369   23.8186 C   0  0  0  0  0  0  0  0  0  0  0  0
    6.9462  -19.4040   22.9128 C   0  0  0  0  0  0  0  0  0  0  0  0
    6.8573  -18.4710   21.7225 C   0  0  2  0  0  0  0  0  0  0  0  0
    7.0135  -19.2851   20.5317 N   0  0  0  0  0  0  0  0  0  0  0  0
    7.9251  -17.4549   21.7309 C   0  0  0  0  0  0  0  0  0  0  0  0
    9.1337  -17.7834   21.6079 O   0  0  0  0  0  0  0  0  0  0  0  0
    8.3471  -14.2910   18.7706 C   0  0  0  0  0  0  0  0  0  0  0  0
    7.5731  -13.9391   20.0152 C   0  0  2  0  0  0  0  0  0  0  0  0
    6.9325  -12.5660   19.7369 C   0  0  0  0  0  0  0  0  0  0  0  0
    8.3479  -13.8303   21.2661 C   0  0  0  0  0  0  0  0  0  0  0  0
    8.7051  -15.0719   22.0012 C   0  0  2  0  0  0  0  0  0  0  0  0
    7.6659  -16.0571   21.8761 N   0  0  0  0  0  0  0  0  0  0  0  0
    9.1068  -14.8387   23.4021 C   0  0  0  0  0  0  0  0  0  0  0  0
   10.1944  -14.2623   23.6588 O   0  0  0  0  0  0  0  0  0  0  0  0
    5.7163  -12.3395   26.3102 C   0  0  0  0  0  0  0  0  0  0  0  0
    6.9367  -12.9600   25.6990 C   0  0  0  0  0  0  0  0  0  0  0  0
    7.6103  -14.0022   26.5078 C   0  0  2  0  0  0  0  0  0  0  0  0
    8.1008  -13.3212   27.7917 C   0  0  0  0  0  0  0  0  0  0  0  0
    8.6734  -14.8023   25.8594 C   0  0  2  0  0  0  0  0  0  0  0  0
    8.3202  -15.2358   24.5139 N   0  0  0  0  0  0  0  0  0  0  0  0
    9.1462  -15.9798   26.6080 C   0  0  0  0  0  0  0  0  0  0  0  0
    8.6305  -17.0998   26.3781 O   0  0  0  0  0  0  0  0  0  0  0  0
   10.1441  -15.9355   27.5695 O   0  0  0  0  0  0  0  0  0  0  0  0
  2  1  1  0
  2  3  1  0
  4  3  1  0
  4  5  1  0
  5  7  1  0
  5  6  1  6
  7  8  2  0
 10  9  1  6
 10 12  1  0
 11 10  1  0
 13 12  1  1
 13 14  1  0
 14  7  1  0
 15 13  1  0
 16 15  2  0
 18 17  1  0
 18 19  1  0
 19 21  1  0
 19 20  1  1
 21 23  1  0
 21 22  1  6
 22 15  1  0
 23 25  1  0
 24 23  2  0
M  END
$$$$
