MLI.pdb
     RDKit          3D

 25 24  0  0  1  0  0  0  0  0999 V2000
   11.0011  -21.7535   22.7496 C   0  0  0  0  0  0  0  0  0  0  0  0
   12.5698  -21.3072   21.9754 S   0  0  0  0  0  0  0  0  0  0  0  0
   12.4465  -19.7947   21.0089 C   0  0  0  0  0  0  0  0  0  0  0  0
   11.7735  -18.6760   21.8120 C   0  0  0  0  0  0  0  0  0  0  0  0
   11.5765  -17.4888   20.8916 C   0  0  2  0  0  0  0  0  0  0  0  0
   12.8963  -17.0327   20.4976 N   0  0  0  0  0  0  0  0  0  0  0  0
   10.8834  -16.3739   21.5620 C   0  0  0  0  0  0  0  0  0  0  0  0
   11.5263  -15.5037   22.2050 O   0  0  0  0  0  0  0  0  0  0  0  0
    8.3330  -12.9351   19.7756 C   0  0  0  0  0  0  0  0  0  0  0  0
    7.6607  -14.2710   19.9646 C   0  0  2  0  0  0  0  0  0  0  0  0
    6.2347  -14.1061   19.4054 C   0  0  0  0  0  0  0  0  0  0  0  0
    7.5475  -14.7630   21.3510 C   0  0  0  0  0  0  0  0  0  0  0  0
    8.7886  -15.0792   22.1056 C   0  0  2  0  0  0  0  0  0  0  0  0
    9.4645  -16.2087   21.5281 N   0  0  0  0  0  0  0  0  0  0  0  0
    8.5808  -15.2190   23.5601 C   0  0  0  0  0  0  0  0  0  0  0  0
    8.9706  -16.2553   24.1561 O   0  0  0  0  0  0  0  0  0  0  0  0
    6.1189  -10.9948   26.1997 C   0  0  0  0  0  0  0  0  0  0  0  0
    7.2515  -11.9576   26.0036 C   0  0  0  0  0  0  0  0  0  0  0  0
    7.0019  -13.3517   26.4372 C   0  0  2  0  0  0  0  0  0  0  0  0
    7.1428  -13.3747   27.9644 C   0  0  0  0  0  0  0  0  0  0  0  0
    7.7827  -14.4289   25.7886 C   0  0  2  0  0  0  0  0  0  0  0  0
    7.9491  -14.2283   24.3550 N   0  0  0  0  0  0  0  0  0  0  0  0
    7.2948  -15.8024   26.0029 C   0  0  0  0  0  0  0  0  0  0  0  0
    6.3950  -16.2565   25.2563 O   0  0  0  0  0  0  0  0  0  0  0  0
    7.7720  -16.6470   26.9934 O   0  0  0  0  0  0  0  0  0  0  0  0
  2  1  1  0
  2  3  1  0
  4  3  1  0
  4  5  1  0
  5  7  1  0
  5  6  1  1
  7  8  2  0
 10  9  1  1
 10 12  1  0
 11 10  1  0
 13 12  1  6
 13 14  1  0
 14  7  1  0
 15 13  1  0
 16 15  2  0
 18 17  1  0
 18 19  1  0
 19 21  1  0
 19 20  1  1
 21 23  1  0
 21 22  1  6
 22 15  1  0
 23 25  1  0
 24 23  2  0
M  END
$$$$
