MLI.pdb
     RDKit          3D

 25 24  0  0  1  0  0  0  0  0999 V2000
    6.0403  -19.9523   20.9839 C   0  0  0  0  0  0  0  0  0  0  0  0
    7.7253  -20.1294   20.3602 S   0  0  0  0  0  0  0  0  0  0  0  0
    8.4107  -18.5648   19.7953 C   0  0  0  0  0  0  0  0  0  0  0  0
    9.1569  -17.8456   20.9245 C   0  0  0  0  0  0  0  0  0  0  0  0
    8.6897  -16.4047   20.9547 C   0  0  2  0  0  0  0  0  0  0  0  0
    9.4116  -15.7018   19.9107 N   0  0  0  0  0  0  0  0  0  0  0  0
    8.9857  -15.7505   22.2419 C   0  0  0  0  0  0  0  0  0  0  0  0
   10.1097  -15.2280   22.4603 O   0  0  0  0  0  0  0  0  0  0  0  0
    7.6142  -12.0638   24.9906 C   0  0  0  0  0  0  0  0  0  0  0  0
    6.6063  -13.1778   24.8656 C   0  0  2  0  0  0  0  0  0  0  0  0
    5.4639  -12.8208   25.8356 C   0  0  0  0  0  0  0  0  0  0  0  0
    7.0768  -14.5349   25.2027 C   0  0  0  0  0  0  0  0  0  0  0  0
    8.3224  -15.0422   24.5698 C   0  0  2  0  0  0  0  0  0  0  0  0
    8.0367  -15.6667   23.3070 N   0  0  0  0  0  0  0  0  0  0  0  0
    9.1364  -15.8945   25.4583 C   0  0  0  0  0  0  0  0  0  0  0  0
    9.3790  -17.0866   25.1403 O   0  0  0  0  0  0  0  0  0  0  0  0
   10.7690  -13.5648   30.0970 C   0  0  0  0  0  0  0  0  0  0  0  0
   11.1545  -14.2539   28.8225 C   0  0  0  0  0  0  0  0  0  0  0  0
   10.9253  -15.7166   28.7794 C   0  0  2  0  0  0  0  0  0  0  0  0
   12.1781  -16.3807   29.3643 C   0  0  0  0  0  0  0  0  0  0  0  0
   10.5274  -16.3174   27.4865 C   0  0  2  0  0  0  0  0  0  0  0  0
    9.6802  -15.4415   26.6877 N   0  0  0  0  0  0  0  0  0  0  0  0
    9.8784  -17.6380   27.5578 C   0  0  0  0  0  0  0  0  0  0  0  0
    8.6275  -17.7034   27.6228 O   0  0  0  0  0  0  0  0  0  0  0  0
   10.5691  -18.8402   27.5570 O   0  0  0  0  0  0  0  0  0  0  0  0
  2  1  1  0
  2  3  1  0
  4  3  1  0
  4  5  1  0
  5  7  1  0
  5  6  1  6
  7  8  2  0
 10  9  1  1
 10 12  1  0
 11 10  1  0
 13 12  1  1
 13 14  1  0
 14  7  1  0
 15 13  1  0
 16 15  2  0
 18 17  1  0
 18 19  1  0
 19 21  1  0
 19 20  1  6
 21 23  1  0
 21 22  1  1
 22 15  1  0
 23 25  1  0
 24 23  2  0
M  END
$$$$
