MLI.pdb
     RDKit          3D

 25 24  0  0  1  0  0  0  0  0999 V2000
    7.4170  -11.6297   18.8569 C   0  0  0  0  0  0  0  0  0  0  0  0
    7.4580  -13.1419   17.8716 S   0  0  0  0  0  0  0  0  0  0  0  0
    7.8617  -14.5892   18.8612 C   0  0  0  0  0  0  0  0  0  0  0  0
    8.4378  -14.1871   20.2235 C   0  0  0  0  0  0  0  0  0  0  0  0
    8.7829  -15.4529   20.9809 C   0  0  2  0  0  0  0  0  0  0  0  0
    7.5999  -16.2928   20.9668 N   0  0  0  0  0  0  0  0  0  0  0  0
    9.1401  -15.1815   22.3850 C   0  0  0  0  0  0  0  0  0  0  0  0
   10.2752  -14.7314   22.6900 O   0  0  0  0  0  0  0  0  0  0  0  0
    7.5031  -12.0612   25.4560 C   0  0  0  0  0  0  0  0  0  0  0  0
    6.6258  -13.2645   25.2221 C   0  0  2  0  0  0  0  0  0  0  0  0
    5.4185  -13.0930   26.1637 C   0  0  0  0  0  0  0  0  0  0  0  0
    7.2274  -14.5836   25.4957 C   0  0  0  0  0  0  0  0  0  0  0  0
    8.4952  -14.9516   24.8123 C   0  0  2  0  0  0  0  0  0  0  0  0
    8.2407  -15.4060   23.4725 N   0  0  0  0  0  0  0  0  0  0  0  0
    9.3366  -15.8871   25.5836 C   0  0  0  0  0  0  0  0  0  0  0  0
    9.5933  -17.0294   25.1250 O   0  0  0  0  0  0  0  0  0  0  0  0
   11.5088  -14.7871   30.9135 C   0  0  0  0  0  0  0  0  0  0  0  0
   10.7822  -15.5976   29.8824 C   0  0  0  0  0  0  0  0  0  0  0  0
   11.5331  -15.8931   28.6404 C   0  0  2  0  0  0  0  0  0  0  0  0
   12.2436  -14.5969   28.2309 C   0  0  0  0  0  0  0  0  0  0  0  0
   10.7939  -16.5043   27.5131 C   0  0  2  0  0  0  0  0  0  0  0  0
    9.8924  -15.5712   26.8500 N   0  0  0  0  0  0  0  0  0  0  0  0
   10.0352  -17.7285   27.8232 C   0  0  0  0  0  0  0  0  0  0  0  0
    8.7816  -17.6876   27.8285 O   0  0  0  0  0  0  0  0  0  0  0  0
   10.6232  -18.9497   28.1150 O   0  0  0  0  0  0  0  0  0  0  0  0
  2  1  1  0
  2  3  1  0
  4  3  1  0
  4  5  1  0
  5  7  1  0
  5  6  1  1
  7  8  2  0
 10  9  1  1
 10 12  1  0
 11 10  1  0
 13 12  1  1
 13 14  1  0
 14  7  1  0
 15 13  1  0
 16 15  2  0
 18 17  1  0
 18 19  1  0
 19 21  1  0
 19 20  1  6
 21 23  1  0
 21 22  1  1
 22 15  1  0
 23 25  1  0
 24 23  2  0
M  END
$$$$
