MLI.pdb
     RDKit          3D

 25 24  0  0  1  0  0  0  0  0999 V2000
    3.3754  -16.8807   19.7820 C   0  0  0  0  0  0  0  0  0  0  0  0
    4.5544  -18.0944   19.1525 S   0  0  0  0  0  0  0  0  0  0  0  0
    5.8401  -18.4803   20.3504 C   0  0  0  0  0  0  0  0  0  0  0  0
    6.5058  -17.2054   20.8804 C   0  0  0  0  0  0  0  0  0  0  0  0
    7.5437  -17.6083   21.9079 C   0  0  2  0  0  0  0  0  0  0  0  0
    6.8418  -18.3019   22.9716 N   0  0  0  0  0  0  0  0  0  0  0  0
    8.2311  -16.4423   22.4915 C   0  0  0  0  0  0  0  0  0  0  0  0
    9.2847  -15.9859   21.9762 O   0  0  0  0  0  0  0  0  0  0  0  0
    7.1335  -11.9545   23.8199 C   0  0  0  0  0  0  0  0  0  0  0  0
    6.6586  -13.1436   24.6154 C   0  0  2  0  0  0  0  0  0  0  0  0
    5.7580  -12.5722   25.7271 C   0  0  0  0  0  0  0  0  0  0  0  0
    7.7006  -13.9673   25.2577 C   0  0  0  0  0  0  0  0  0  0  0  0
    8.5571  -14.8351   24.4075 C   0  0  2  0  0  0  0  0  0  0  0  0
    7.7578  -15.7650   23.6574 N   0  0  0  0  0  0  0  0  0  0  0  0
    9.6566  -15.4893   25.1432 C   0  0  0  0  0  0  0  0  0  0  0  0
   10.8331  -15.4298   24.7033 O   0  0  0  0  0  0  0  0  0  0  0  0
    9.5801  -13.6849   29.9039 C   0  0  0  0  0  0  0  0  0  0  0  0
    9.9962  -14.2699   28.5876 C   0  0  0  0  0  0  0  0  0  0  0  0
   10.3280  -15.7134   28.5935 C   0  0  2  0  0  0  0  0  0  0  0  0
   11.5049  -15.8954   29.5603 C   0  0  0  0  0  0  0  0  0  0  0  0
   10.5687  -16.3740   27.2910 C   0  0  2  0  0  0  0  0  0  0  0  0
    9.4662  -16.2043   26.3536 N   0  0  0  0  0  0  0  0  0  0  0  0
   10.9056  -17.8071   27.3436 C   0  0  0  0  0  0  0  0  0  0  0  0
    9.9866  -18.6563   27.2566 O   0  0  0  0  0  0  0  0  0  0  0  0
   12.1963  -18.2936   27.4845 O   0  0  0  0  0  0  0  0  0  0  0  0
  2  1  1  0
  2  3  1  0
  4  3  1  0
  4  5  1  0
  5  7  1  0
  5  6  1  1
  7  8  2  0
 10  9  1  1
 10 12  1  0
 11 10  1  0
 13 12  1  1
 13 14  1  0
 14  7  1  0
 15 13  1  0
 16 15  2  0
 18 17  1  0
 18 19  1  0
 19 21  1  0
 19 20  1  1
 21 23  1  0
 21 22  1  6
 22 15  1  0
 23 25  1  0
 24 23  2  0
M  END
$$$$
