MLI.pdb
     RDKit          3D

 25 24  0  0  1  0  0  0  0  0999 V2000
    7.0004  -19.8247   27.3539 C   0  0  0  0  0  0  0  0  0  0  0  0
    5.9569  -20.8630   26.3087 S   0  0  0  0  0  0  0  0  0  0  0  0
    5.9582  -20.3216   24.5929 C   0  0  0  0  0  0  0  0  0  0  0  0
    6.9061  -19.1350   24.3859 C   0  0  0  0  0  0  0  0  0  0  0  0
    6.7788  -18.6761   22.9477 C   0  0  2  0  0  0  0  0  0  0  0  0
    7.1786  -19.7904   22.1089 N   0  0  0  0  0  0  0  0  0  0  0  0
    7.6599  -17.5329   22.6482 C   0  0  0  0  0  0  0  0  0  0  0  0
    8.8884  -17.7004   22.4319 O   0  0  0  0  0  0  0  0  0  0  0  0
    8.3238  -14.3053   19.3287 C   0  0  0  0  0  0  0  0  0  0  0  0
    7.1209  -14.1712   20.2271 C   0  0  2  0  0  0  0  0  0  0  0  0
    6.3495  -12.9400   19.7145 C   0  0  0  0  0  0  0  0  0  0  0  0
    7.3888  -13.9696   21.6639 C   0  0  0  0  0  0  0  0  0  0  0  0
    8.0605  -15.0526   22.4291 C   0  0  2  0  0  0  0  0  0  0  0  0
    7.1891  -16.1853   22.5844 N   0  0  0  0  0  0  0  0  0  0  0  0
    8.6469  -14.6025   23.7065 C   0  0  0  0  0  0  0  0  0  0  0  0
    9.2214  -13.4863   23.7782 O   0  0  0  0  0  0  0  0  0  0  0  0
    6.4423  -11.9053   26.2945 C   0  0  0  0  0  0  0  0  0  0  0  0
    7.5546  -12.7643   25.7720 C   0  0  0  0  0  0  0  0  0  0  0  0
    8.0648  -13.8014   26.6982 C   0  0  2  0  0  0  0  0  0  0  0  0
    8.6130  -13.0681   27.9289 C   0  0  0  0  0  0  0  0  0  0  0  0
    9.0259  -14.7931   26.1657 C   0  0  2  0  0  0  0  0  0  0  0  0
    8.6032  -15.3723   24.8973 N   0  0  0  0  0  0  0  0  0  0  0  0
    9.3880  -15.8965   27.0722 C   0  0  0  0  0  0  0  0  0  0  0  0
   10.1128  -15.6587   28.0679 O   0  0  0  0  0  0  0  0  0  0  0  0
    8.9736  -17.2081   26.8983 O   0  0  0  0  0  0  0  0  0  0  0  0
  2  1  1  0
  2  3  1  0
  4  3  1  0
  4  5  1  0
  5  7  1  0
  5  6  1  6
  7  8  2  0
 10  9  1  6
 10 12  1  0
 11 10  1  0
 13 12  1  1
 13 14  1  0
 14  7  1  0
 15 13  1  0
 16 15  2  0
 18 17  1  0
 18 19  1  0
 19 21  1  0
 19 20  1  1
 21 23  1  0
 21 22  1  6
 22 15  1  0
 23 25  1  0
 24 23  2  0
M  END
$$$$
