CLN.pdb
     RDKit          3D

 23 22  0  0  1  0  0  0  0  0999 V2000
   16.5669  -10.1653  -10.3480 N   0  0  0  0  0  0  0  0  0  0  0  0
   16.6782  -10.0689  -11.7878 C   0  0  1  0  0  0  0  0  0  0  0  0
   15.3404   -9.6781  -12.3770 C   0  0  0  0  0  0  0  0  0  0  0  0
   14.1387  -10.9939  -12.0674 S   0  0  0  0  0  0  0  0  0  0  0  0
   17.7417   -9.1279  -12.1747 C   0  0  0  0  0  0  0  0  0  0  0  0
   17.9112   -8.0854  -11.4907 O   0  0  0  0  0  0  0  0  0  0  0  0
   22.4069   -8.4334  -12.5671 C   0  0  0  0  0  0  0  0  0  0  0  0
   21.7384   -9.6938  -13.1623 C   0  0  2  0  0  0  0  0  0  0  0  0
   22.8550  -10.5088  -13.7335 C   0  0  0  0  0  0  0  0  0  0  0  0
   20.7540   -9.1886  -14.1378 C   0  0  0  0  0  0  0  0  0  0  0  0
   19.6263   -8.3504  -13.6309 C   0  0  2  0  0  0  0  0  0  0  0  0
   18.5794   -9.3397  -13.2761 N   0  0  0  0  0  0  0  0  0  0  0  0
   19.0204   -7.4256  -14.5966 C   0  0  0  0  0  0  0  0  0  0  0  0
   18.4293   -7.8753  -15.6036 O   0  0  0  0  0  0  0  0  0  0  0  0
   15.8433   -2.4006  -15.0906 N   0  0  0  0  0  0  0  0  0  0  0  0
   16.8158   -3.2813  -15.6256 C   0  0  0  0  0  0  0  0  0  0  0  0
   17.0828   -3.2088  -16.8457 O   0  0  0  0  0  0  0  0  0  0  0  0
   17.4786   -4.2472  -14.7423 C   0  0  0  0  0  0  0  0  0  0  0  0
   18.5332   -5.0847  -15.3988 C   0  0  2  0  0  0  0  0  0  0  0  0
   19.0788   -6.0212  -14.4276 N   0  0  0  0  0  0  0  0  0  0  0  0
   19.5578   -4.1794  -15.9368 C   0  0  0  0  0  0  0  0  0  0  0  0
   19.2663   -3.3835  -16.8468 O   0  0  0  0  0  0  0  0  0  0  0  0
   20.8363   -4.2117  -15.4354 O   0  0  0  0  0  0  0  0  0  0  0  0
  2  1  1  1
  2  3  1  0
  4  3  1  0
  5  2  1  0
  6  5  2  0
  8  7  1  6
  8 10  1  0
  9  8  1  0
 11 10  1  6
 11 12  1  0
 12  5  1  0
 13 11  1  0
 13 20  1  0
 14 13  2  0
 15 16  1  0
 16 17  2  0
 19 18  1  1
 18 16  1  0
 19 20  1  0
 19 21  1  0
 21 23  1  0
 22 21  2  0
M  END
$$$$
