CLN.pdb
     RDKit          3D

 23 22  0  0  1  0  0  0  0  0999 V2000
   27.6677  -18.9474  -15.7430 N   0  0  0  0  0  0  0  0  0  0  0  0
   26.4343  -18.6274  -15.0568 C   0  0  1  0  0  0  0  0  0  0  0  0
   25.5091  -17.8815  -15.9936 C   0  0  0  0  0  0  0  0  0  0  0  0
   26.1344  -16.2034  -16.2475 S   0  0  0  0  0  0  0  0  0  0  0  0
   25.8007  -19.8397  -14.5136 C   0  0  0  0  0  0  0  0  0  0  0  0
   26.0285  -20.9464  -15.0673 O   0  0  0  0  0  0  0  0  0  0  0  0
   26.7239  -21.9638  -10.9911 C   0  0  0  0  0  0  0  0  0  0  0  0
   25.9666  -20.6281  -10.8127 C   0  0  2  0  0  0  0  0  0  0  0  0
   26.0472  -20.3127   -9.3527 C   0  0  0  0  0  0  0  0  0  0  0  0
   24.6105  -20.8762  -11.3375 C   0  0  0  0  0  0  0  0  0  0  0  0
   24.4515  -21.0837  -12.8081 C   0  0  2  0  0  0  0  0  0  0  0  0
   24.9503  -19.8191  -13.4017 N   0  0  0  0  0  0  0  0  0  0  0  0
   23.0774  -21.2621  -13.2932 C   0  0  0  0  0  0  0  0  0  0  0  0
   22.4239  -22.2742  -12.9556 O   0  0  0  0  0  0  0  0  0  0  0  0
   20.0787  -18.8837  -11.7520 N   0  0  0  0  0  0  0  0  0  0  0  0
   19.7800  -19.8350  -12.7587 C   0  0  0  0  0  0  0  0  0  0  0  0
   19.1923  -20.8895  -12.4307 O   0  0  0  0  0  0  0  0  0  0  0  0
   20.1646  -19.5607  -14.1478 C   0  0  0  0  0  0  0  0  0  0  0  0
   21.1428  -20.5308  -14.7365 C   0  0  2  0  0  0  0  0  0  0  0  0
   22.4530  -20.3155  -14.1408 N   0  0  0  0  0  0  0  0  0  0  0  0
   21.1530  -20.3332  -16.1924 C   0  0  0  0  0  0  0  0  0  0  0  0
   20.1239  -20.5520  -16.8555 O   0  0  0  0  0  0  0  0  0  0  0  0
   22.2979  -19.9071  -16.8209 O   0  0  0  0  0  0  0  0  0  0  0  0
  2  1  1  6
  2  3  1  0
  4  3  1  0
  5  2  1  0
  6  5  2  0
  8  7  1  1
  8 10  1  0
  9  8  1  0
 11 10  1  1
 11 12  1  0
 12  5  1  0
 13 11  1  0
 13 20  1  0
 14 13  2  0
 15 16  1  0
 16 17  2  0
 19 18  1  1
 18 16  1  0
 19 20  1  0
 19 21  1  0
 21 23  1  0
 22 21  2  0
M  END
$$$$
