CLN.pdb
     RDKit          3D

 23 22  0  0  1  0  0  0  0  0999 V2000
   21.0763  -12.7263  -17.9178 N   0  0  0  0  0  0  0  0  0  0  0  0
   21.8863  -11.6615  -18.4700 C   0  0  1  0  0  0  0  0  0  0  0  0
   21.1293  -10.9709  -19.5834 C   0  0  0  0  0  0  0  0  0  0  0  0
   20.7875  -12.1572  -20.9052 S   0  0  0  0  0  0  0  0  0  0  0  0
   22.3019  -10.7148  -17.4226 C   0  0  0  0  0  0  0  0  0  0  0  0
   21.5536  -10.5421  -16.4258 O   0  0  0  0  0  0  0  0  0  0  0  0
   25.8074  -10.7229  -14.6758 C   0  0  0  0  0  0  0  0  0  0  0  0
   26.0770  -10.3996  -16.1632 C   0  0  2  0  0  0  0  0  0  0  0  0
   27.5658  -10.3760  -16.3055 C   0  0  0  0  0  0  0  0  0  0  0  0
   25.3921   -9.1173  -16.4133 C   0  0  0  0  0  0  0  0  0  0  0  0
   23.8992   -9.0962  -16.3711 C   0  0  2  0  0  0  0  0  0  0  0  0
   23.4993   -9.9921  -17.4837 N   0  0  0  0  0  0  0  0  0  0  0  0
   23.2613   -7.7989  -16.6264 C   0  0  0  0  0  0  0  0  0  0  0  0
   23.3081   -7.2960  -17.7711 O   0  0  0  0  0  0  0  0  0  0  0  0
   19.1621   -4.2029  -17.0259 N   0  0  0  0  0  0  0  0  0  0  0  0
   19.8376   -4.5398  -15.8268 C   0  0  0  0  0  0  0  0  0  0  0  0
   19.8254   -3.7198  -14.8820 O   0  0  0  0  0  0  0  0  0  0  0  0
   20.5280   -5.8304  -15.7254 C   0  0  0  0  0  0  0  0  0  0  0  0
   22.0217   -5.7575  -15.8158 C   0  0  2  0  0  0  0  0  0  0  0  0
   22.5823   -7.0847  -15.6099 N   0  0  0  0  0  0  0  0  0  0  0  0
   22.4878   -4.7932  -14.8100 C   0  0  0  0  0  0  0  0  0  0  0  0
   22.2935   -3.5767  -14.9800 O   0  0  0  0  0  0  0  0  0  0  0  0
   23.1375   -5.2345  -13.6828 O   0  0  0  0  0  0  0  0  0  0  0  0
  2  1  1  1
  2  3  1  0
  4  3  1  0
  5  2  1  0
  6  5  2  0
  8  7  1  1
  8 10  1  0
  9  8  1  0
 11 10  1  6
 11 12  1  0
 12  5  1  0
 13 11  1  0
 13 20  1  0
 14 13  2  0
 15 16  1  0
 16 17  2  0
 19 18  1  1
 18 16  1  0
 19 20  1  0
 19 21  1  0
 21 23  1  0
 22 21  2  0
M  END
$$$$
