CLN.pdb
     RDKit          3D

 23 22  0  0  1  0  0  0  0  0999 V2000
   28.4577  -20.9724  -15.6328 N   0  0  0  0  0  0  0  0  0  0  0  0
   27.7882  -20.1789  -14.6244 C   0  0  1  0  0  0  0  0  0  0  0  0
   27.2706  -18.8992  -15.2441 C   0  0  0  0  0  0  0  0  0  0  0  0
   28.6191  -17.6998  -15.3640 S   0  0  0  0  0  0  0  0  0  0  0  0
   26.7127  -20.9457  -13.9752 C   0  0  0  0  0  0  0  0  0  0  0  0
   26.1842  -21.9020  -14.5993 O   0  0  0  0  0  0  0  0  0  0  0  0
   26.6981  -21.1759   -8.7252 C   0  0  0  0  0  0  0  0  0  0  0  0
   26.2122  -20.5156  -10.0357 C   0  0  2  0  0  0  0  0  0  0  0  0
   25.5062  -19.2649   -9.6175 C   0  0  0  0  0  0  0  0  0  0  0  0
   25.3712  -21.5322  -10.6955 C   0  0  0  0  0  0  0  0  0  0  0  0
   25.0523  -21.3506  -12.1434 C   0  0  2  0  0  0  0  0  0  0  0  0
   26.2468  -20.6589  -12.6866 N   0  0  0  0  0  0  0  0  0  0  0  0
   23.8972  -20.4986  -12.4513 C   0  0  0  0  0  0  0  0  0  0  0  0
   24.0764  -19.3393  -12.8864 O   0  0  0  0  0  0  0  0  0  0  0  0
   19.8312  -20.8368  -15.5187 N   0  0  0  0  0  0  0  0  0  0  0  0
   21.0698  -21.5089  -15.6660 C   0  0  0  0  0  0  0  0  0  0  0  0
   21.3368  -22.0380  -16.7678 O   0  0  0  0  0  0  0  0  0  0  0  0
   21.9991  -21.5664  -14.5321 C   0  0  0  0  0  0  0  0  0  0  0  0
   21.5482  -20.8315  -13.3068 C   0  0  2  0  0  0  0  0  0  0  0  0
   22.5663  -20.9474  -12.2734 N   0  0  0  0  0  0  0  0  0  0  0  0
   20.2606  -21.4016  -12.8875 C   0  0  0  0  0  0  0  0  0  0  0  0
   20.2051  -22.5748  -12.4788 O   0  0  0  0  0  0  0  0  0  0  0  0
   19.1189  -20.6398  -12.9466 O   0  0  0  0  0  0  0  0  0  0  0  0
  2  1  1  6
  2  3  1  0
  4  3  1  0
  5  2  1  0
  6  5  2  0
  8  7  1  1
  8 10  1  0
  9  8  1  0
 11 10  1  1
 11 12  1  0
 12  5  1  0
 13 11  1  0
 13 20  1  0
 14 13  2  0
 15 16  1  0
 16 17  2  0
 19 18  1  6
 18 16  1  0
 19 20  1  0
 19 21  1  0
 21 23  1  0
 22 21  2  0
M  END
$$$$
