CLN.pdb
     RDKit          3D

 23 22  0  0  1  0  0  0  0  0999 V2000
   26.9250  -23.0866  -16.8528 N   0  0  0  0  0  0  0  0  0  0  0  0
   26.8834  -21.8816  -16.0521 C   0  0  1  0  0  0  0  0  0  0  0  0
   26.6340  -20.6854  -16.9447 C   0  0  0  0  0  0  0  0  0  0  0  0
   28.0341  -20.4713  -18.0696 S   0  0  0  0  0  0  0  0  0  0  0  0
   25.8735  -21.9885  -14.9868 C   0  0  0  0  0  0  0  0  0  0  0  0
   24.9135  -22.7882  -15.1355 O   0  0  0  0  0  0  0  0  0  0  0  0
   25.4851  -19.8126   -9.3578 C   0  0  0  0  0  0  0  0  0  0  0  0
   24.6169  -20.5959  -10.3689 C   0  0  2  0  0  0  0  0  0  0  0  0
   24.2015  -21.8450   -9.6585 C   0  0  0  0  0  0  0  0  0  0  0  0
   25.4767  -20.7910  -11.5515 C   0  0  0  0  0  0  0  0  0  0  0  0
   24.8521  -21.3351  -12.7944 C   0  0  2  0  0  0  0  0  0  0  0  0
   25.9315  -21.2367  -13.8073 N   0  0  0  0  0  0  0  0  0  0  0  0
   23.7072  -20.5860  -13.3265 C   0  0  0  0  0  0  0  0  0  0  0  0
   23.9000  -19.5959  -14.0668 O   0  0  0  0  0  0  0  0  0  0  0  0
   20.3855  -19.2792  -16.9562 N   0  0  0  0  0  0  0  0  0  0  0  0
   20.1771  -20.3066  -16.0029 C   0  0  0  0  0  0  0  0  0  0  0  0
   19.0303  -20.7933  -15.8881 O   0  0  0  0  0  0  0  0  0  0  0  0
   21.3020  -20.7689  -15.1824 C   0  0  0  0  0  0  0  0  0  0  0  0
   21.2259  -20.3915  -13.7344 C   0  0  2  0  0  0  0  0  0  0  0  0
   22.3712  -20.9489  -13.0303 N   0  0  0  0  0  0  0  0  0  0  0  0
   19.9492  -20.8901  -13.2051 C   0  0  0  0  0  0  0  0  0  0  0  0
   19.8751  -22.0448  -12.7495 O   0  0  0  0  0  0  0  0  0  0  0  0
   18.8384  -20.0818  -13.2133 O   0  0  0  0  0  0  0  0  0  0  0  0
  2  1  1  6
  2  3  1  0
  4  3  1  0
  5  2  1  0
  6  5  2  0
  8  7  1  1
  8 10  1  0
  9  8  1  0
 11 10  1  1
 11 12  1  0
 12  5  1  0
 13 11  1  0
 13 20  1  0
 14 13  2  0
 15 16  1  0
 16 17  2  0
 19 18  1  6
 18 16  1  0
 19 20  1  0
 19 21  1  0
 21 23  1  0
 22 21  2  0
M  END
$$$$
