CLN.pdb
     RDKit          3D

 23 22  0  0  1  0  0  0  0  0999 V2000
   27.9158  -21.4678  -15.6899 N   0  0  0  0  0  0  0  0  0  0  0  0
   27.0431  -20.4471  -15.1503 C   0  0  1  0  0  0  0  0  0  0  0  0
   26.4561  -19.6295  -16.2803 C   0  0  0  0  0  0  0  0  0  0  0  0
   27.7491  -18.5978  -17.0118 S   0  0  0  0  0  0  0  0  0  0  0  0
   25.9956  -21.0399  -14.3033 C   0  0  0  0  0  0  0  0  0  0  0  0
   25.5757  -22.1950  -14.5724 O   0  0  0  0  0  0  0  0  0  0  0  0
   26.0149  -22.2290  -10.0437 C   0  0  0  0  0  0  0  0  0  0  0  0
   25.9919  -20.7158  -10.3589 C   0  0  2  0  0  0  0  0  0  0  0  0
   26.2196  -20.0294   -9.0496 C   0  0  0  0  0  0  0  0  0  0  0  0
   24.6810  -20.4691  -10.9887 C   0  0  0  0  0  0  0  0  0  0  0  0
   24.4324  -21.0423  -12.3455 C   0  0  2  0  0  0  0  0  0  0  0  0
   25.4405  -20.3738  -13.2041 N   0  0  0  0  0  0  0  0  0  0  0  0
   23.1201  -20.7582  -12.9392 C   0  0  0  0  0  0  0  0  0  0  0  0
   22.0778  -21.1207  -12.3496 O   0  0  0  0  0  0  0  0  0  0  0  0
   20.1571  -17.1138  -16.5640 N   0  0  0  0  0  0  0  0  0  0  0  0
   20.6570  -18.4387  -16.6117 C   0  0  0  0  0  0  0  0  0  0  0  0
   20.0372  -19.2886  -17.2891 O   0  0  0  0  0  0  0  0  0  0  0  0
   21.8779  -18.7767  -15.8717 C   0  0  0  0  0  0  0  0  0  0  0  0
   21.6978  -19.7904  -14.7833 C   0  0  2  0  0  0  0  0  0  0  0  0
   22.9875  -20.0764  -14.1728 N   0  0  0  0  0  0  0  0  0  0  0  0
   21.0849  -20.9861  -15.3778 C   0  0  0  0  0  0  0  0  0  0  0  0
   19.8473  -21.0702  -15.4660 O   0  0  0  0  0  0  0  0  0  0  0  0
   21.8777  -22.0102  -15.8358 O   0  0  0  0  0  0  0  0  0  0  0  0
  2  1  1  6
  2  3  1  0
  4  3  1  0
  5  2  1  0
  6  5  2  0
  8  7  1  1
  8 10  1  0
  9  8  1  0
 11 10  1  1
 11 12  1  0
 12  5  1  0
 13 11  1  0
 13 20  1  0
 14 13  2  0
 15 16  1  0
 16 17  2  0
 19 18  1  6
 18 16  1  0
 19 20  1  0
 19 21  1  0
 21 23  1  0
 22 21  2  0
M  END
$$$$
