CLN.pdb
     RDKit          3D

 23 22  0  0  1  0  0  0  0  0999 V2000
   20.4447  -21.6046  -12.1314 N   0  0  0  0  0  0  0  0  0  0  0  0
   20.4676  -20.1962  -12.4642 C   0  0  1  0  0  0  0  0  0  0  0  0
   19.9036  -19.3917  -11.3134 C   0  0  0  0  0  0  0  0  0  0  0  0
   18.5452  -20.3076  -10.5472 S   0  0  0  0  0  0  0  0  0  0  0  0
   21.8265  -19.7590  -12.8225 C   0  0  0  0  0  0  0  0  0  0  0  0
   22.0017  -18.5776  -13.2187 O   0  0  0  0  0  0  0  0  0  0  0  0
   26.9378  -21.7475  -10.9088 C   0  0  0  0  0  0  0  0  0  0  0  0
   26.4712  -21.1041  -12.2347 C   0  0  2  0  0  0  0  0  0  0  0  0
   27.5354  -20.1180  -12.5988 C   0  0  0  0  0  0  0  0  0  0  0  0
   25.1436  -20.5309  -11.9433 C   0  0  0  0  0  0  0  0  0  0  0  0
   24.2932  -20.1028  -13.0942 C   0  0  2  0  0  0  0  0  0  0  0  0
   22.9413  -20.6020  -12.7426 N   0  0  0  0  0  0  0  0  0  0  0  0
   24.6289  -20.6835  -14.4001 C   0  0  0  0  0  0  0  0  0  0  0  0
   25.6718  -20.3258  -14.9915 O   0  0  0  0  0  0  0  0  0  0  0  0
   24.9913  -25.2410  -14.6111 N   0  0  0  0  0  0  0  0  0  0  0  0
   25.2378  -24.2060  -15.5468 C   0  0  0  0  0  0  0  0  0  0  0  0
   26.4094  -23.7892  -15.6840 O   0  0  0  0  0  0  0  0  0  0  0  0
   24.1221  -23.6547  -16.3239 C   0  0  0  0  0  0  0  0  0  0  0  0
   24.0580  -22.1584  -16.3646 C   0  0  2  0  0  0  0  0  0  0  0  0
   23.8046  -21.6503  -15.0245 N   0  0  0  0  0  0  0  0  0  0  0  0
   23.0030  -21.7780  -17.3139 C   0  0  0  0  0  0  0  0  0  0  0  0
   22.0687  -21.0462  -16.9425 O   0  0  0  0  0  0  0  0  0  0  0  0
   23.0484  -22.2300  -18.6104 O   0  0  0  0  0  0  0  0  0  0  0  0
  2  1  1  1
  2  3  1  0
  4  3  1  0
  5  2  1  0
  6  5  2  0
  8  7  1  1
  8 10  1  0
  9  8  1  0
 11 10  1  1
 11 12  1  0
 12  5  1  0
 13 11  1  0
 13 20  1  0
 14 13  2  0
 15 16  1  0
 16 17  2  0
 19 18  1  1
 18 16  1  0
 19 20  1  0
 19 21  1  0
 21 23  1  0
 22 21  2  0
M  END
$$$$
