CLN.pdb
     RDKit          3D

 23 22  0  0  1  0  0  0  0  0999 V2000
   19.3241  -14.9022  -16.9923 N   0  0  0  0  0  0  0  0  0  0  0  0
   19.5256  -13.5212  -17.3753 C   0  0  1  0  0  0  0  0  0  0  0  0
   18.1994  -12.8994  -17.7551 C   0  0  0  0  0  0  0  0  0  0  0  0
   17.5234  -13.7566  -19.1972 S   0  0  0  0  0  0  0  0  0  0  0  0
   20.1959  -12.7670  -16.3039 C   0  0  0  0  0  0  0  0  0  0  0  0
   19.8363  -12.9513  -15.1123 O   0  0  0  0  0  0  0  0  0  0  0  0
   25.4056   -9.8809  -15.7305 C   0  0  0  0  0  0  0  0  0  0  0  0
   24.0611   -9.9950  -14.9762 C   0  0  2  0  0  0  0  0  0  0  0  0
   24.4065  -10.5119  -13.6157 C   0  0  0  0  0  0  0  0  0  0  0  0
   23.2250  -10.8855  -15.8033 C   0  0  0  0  0  0  0  0  0  0  0  0
   21.7806  -11.0249  -15.4491 C   0  0  2  0  0  0  0  0  0  0  0  0
   21.2223  -11.8474  -16.5502 N   0  0  0  0  0  0  0  0  0  0  0  0
   20.9985   -9.7830  -15.4142 C   0  0  0  0  0  0  0  0  0  0  0  0
   20.6244   -9.2520  -16.4835 O   0  0  0  0  0  0  0  0  0  0  0  0
   17.7061   -9.4387  -11.4378 N   0  0  0  0  0  0  0  0  0  0  0  0
   18.0006   -8.8776  -12.7051 C   0  0  0  0  0  0  0  0  0  0  0  0
   17.3109   -9.2257  -13.6891 O   0  0  0  0  0  0  0  0  0  0  0  0
   19.0974   -7.9111  -12.8293 C   0  0  0  0  0  0  0  0  0  0  0  0
   19.8298   -7.9499  -14.1357 C   0  0  2  0  0  0  0  0  0  0  0  0
   20.6441   -9.1546  -14.1961 N   0  0  0  0  0  0  0  0  0  0  0  0
   20.6365   -6.7260  -14.2369 C   0  0  0  0  0  0  0  0  0  0  0  0
   21.8755   -6.8038  -14.3094 O   0  0  0  0  0  0  0  0  0  0  0  0
   20.0230   -5.4969  -14.2514 O   0  0  0  0  0  0  0  0  0  0  0  0
  2  1  1  1
  2  3  1  0
  4  3  1  0
  5  2  1  0
  6  5  2  0
  8  7  1  6
  8 10  1  0
  9  8  1  0
 11 10  1  6
 11 12  1  0
 12  5  1  0
 13 11  1  0
 13 20  1  0
 14 13  2  0
 15 16  1  0
 16 17  2  0
 19 18  1  1
 18 16  1  0
 19 20  1  0
 19 21  1  0
 21 23  1  0
 22 21  2  0
M  END
$$$$
