CLN.pdb
     RDKit          3D

 23 22  0  0  1  0  0  0  0  0999 V2000
   15.2765  -21.7612    2.3625 N   0  0  0  0  0  0  0  0  0  0  0  0
   14.9175  -20.5442    3.0588 C   0  0  1  0  0  0  0  0  0  0  0  0
   14.1824  -20.8863    4.3364 C   0  0  0  0  0  0  0  0  0  0  0  0
   12.6356  -21.7324    3.9329 S   0  0  0  0  0  0  0  0  0  0  0  0
   16.1038  -19.7122    3.3169 C   0  0  0  0  0  0  0  0  0  0  0  0
   17.2429  -20.2451    3.2727 O   0  0  0  0  0  0  0  0  0  0  0  0
   17.2282  -13.9626    2.3938 C   0  0  0  0  0  0  0  0  0  0  0  0
   17.9391  -15.1908    3.0068 C   0  0  2  0  0  0  0  0  0  0  0  0
   19.1096  -15.4631    2.1162 C   0  0  0  0  0  0  0  0  0  0  0  0
   16.9140  -16.2505    3.0544 C   0  0  0  0  0  0  0  0  0  0  0  0
   17.2542  -17.5288    3.7480 C   0  0  2  0  0  0  0  0  0  0  0  0
   16.0238  -18.3460    3.6113 N   0  0  0  0  0  0  0  0  0  0  0  0
   17.5366  -17.4317    5.1854 C   0  0  0  0  0  0  0  0  0  0  0  0
   18.6612  -17.0459    5.5748 O   0  0  0  0  0  0  0  0  0  0  0  0
   14.8477  -14.4570    6.9736 N   0  0  0  0  0  0  0  0  0  0  0  0
   15.9125  -15.1455    7.6059 C   0  0  0  0  0  0  0  0  0  0  0  0
   16.9995  -14.5478    7.7680 O   0  0  0  0  0  0  0  0  0  0  0  0
   15.7141  -16.5296    8.0503 C   0  0  0  0  0  0  0  0  0  0  0  0
   16.7557  -17.4996    7.5825 C   0  0  2  0  0  0  0  0  0  0  0  0
   16.5675  -17.7616    6.1634 N   0  0  0  0  0  0  0  0  0  0  0  0
   16.6348  -18.7176    8.3952 C   0  0  0  0  0  0  0  0  0  0  0  0
   16.4712  -19.8191    7.8417 O   0  0  0  0  0  0  0  0  0  0  0  0
   16.7025  -18.6402    9.7652 O   0  0  0  0  0  0  0  0  0  0  0  0
  2  1  1  1
  2  3  1  0
  4  3  1  0
  5  2  1  0
  6  5  2  0
  8  7  1  6
  8 10  1  0
  9  8  1  0
 11 10  1  1
 11 12  1  0
 12  5  1  0
 13 11  1  0
 13 20  1  0
 14 13  2  0
 15 16  1  0
 16 17  2  0
 19 18  1  1
 18 16  1  0
 19 20  1  0
 19 21  1  0
 21 23  1  0
 22 21  2  0
M  END
$$$$
