CLN.pdb
     RDKit          3D

 23 22  0  0  1  0  0  0  0  0999 V2000
   16.8843  -12.3437  -17.3153 N   0  0  0  0  0  0  0  0  0  0  0  0
   17.5674  -11.1603  -17.7925 C   0  0  1  0  0  0  0  0  0  0  0  0
   16.5606  -10.1886  -18.3687 C   0  0  0  0  0  0  0  0  0  0  0  0
   15.8433  -10.8874  -19.8748 S   0  0  0  0  0  0  0  0  0  0  0  0
   18.3705  -10.5453  -16.7235 C   0  0  0  0  0  0  0  0  0  0  0  0
   17.8743  -10.4412  -15.5718 O   0  0  0  0  0  0  0  0  0  0  0  0
   23.8301  -10.7678  -14.8452 C   0  0  0  0  0  0  0  0  0  0  0  0
   22.6254   -9.8188  -14.6505 C   0  0  2  0  0  0  0  0  0  0  0  0
   22.2010   -9.9955  -13.2271 C   0  0  0  0  0  0  0  0  0  0  0  0
   21.6377  -10.2300  -15.6661 C   0  0  0  0  0  0  0  0  0  0  0  0
   20.4106   -9.3950  -15.8336 C   0  0  2  0  0  0  0  0  0  0  0  0
   19.6701  -10.0671  -16.9293 N   0  0  0  0  0  0  0  0  0  0  0  0
   20.6239   -8.0067  -16.2606 C   0  0  0  0  0  0  0  0  0  0  0  0
   21.0569   -7.7678  -17.4099 O   0  0  0  0  0  0  0  0  0  0  0  0
   19.1494   -4.9350  -18.1176 N   0  0  0  0  0  0  0  0  0  0  0  0
   18.6043   -4.4845  -16.8898 C   0  0  0  0  0  0  0  0  0  0  0  0
   17.5108   -3.8769  -16.9071 O   0  0  0  0  0  0  0  0  0  0  0  0
   19.3304   -4.7400  -15.6408 C   0  0  0  0  0  0  0  0  0  0  0  0
   20.5951   -5.5284  -15.7943 C   0  0  2  0  0  0  0  0  0  0  0  0
   20.3516   -6.9101  -15.4076 N   0  0  0  0  0  0  0  0  0  0  0  0
   21.6271   -4.8909  -14.9651 C   0  0  0  0  0  0  0  0  0  0  0  0
   21.7595   -5.2241  -13.7744 O   0  0  0  0  0  0  0  0  0  0  0  0
   22.4451   -3.9279  -15.5044 O   0  0  0  0  0  0  0  0  0  0  0  0
  2  1  1  1
  2  3  1  0
  4  3  1  0
  5  2  1  0
  6  5  2  0
  8  7  1  1
  8 10  1  0
  9  8  1  0
 11 10  1  6
 11 12  1  0
 12  5  1  0
 13 11  1  0
 13 20  1  0
 14 13  2  0
 15 16  1  0
 16 17  2  0
 19 18  1  1
 18 16  1  0
 19 20  1  0
 19 21  1  0
 21 23  1  0
 22 21  2  0
M  END
$$$$
