CLN.pdb
     RDKit          3D

 23 22  0  0  1  0  0  0  0  0999 V2000
   18.5948  -11.7110  -17.6396 N   0  0  0  0  0  0  0  0  0  0  0  0
   19.2906  -10.4425  -17.6012 C   0  0  1  0  0  0  0  0  0  0  0  0
   18.2923   -9.3105  -17.7085 C   0  0  0  0  0  0  0  0  0  0  0  0
   17.4873   -9.3691  -19.3271 S   0  0  0  0  0  0  0  0  0  0  0  0
   20.1175  -10.3288  -16.3889 C   0  0  0  0  0  0  0  0  0  0  0  0
   19.6571  -10.7489  -15.2958 O   0  0  0  0  0  0  0  0  0  0  0  0
   23.6528  -12.2807  -14.7205 C   0  0  0  0  0  0  0  0  0  0  0  0
   23.8902  -11.4473  -16.0006 C   0  0  2  0  0  0  0  0  0  0  0  0
   25.3048  -11.7218  -16.4019 C   0  0  0  0  0  0  0  0  0  0  0  0
   23.5949  -10.0536  -15.6183 C   0  0  0  0  0  0  0  0  0  0  0  0
   22.2130   -9.7282  -15.1541 C   0  0  2  0  0  0  0  0  0  0  0  0
   21.4016   -9.7712  -16.3951 N   0  0  0  0  0  0  0  0  0  0  0  0
   22.0213   -8.3938  -14.5728 C   0  0  0  0  0  0  0  0  0  0  0  0
   22.5565   -8.1081  -13.4786 O   0  0  0  0  0  0  0  0  0  0  0  0
   22.4119   -3.3431  -13.3525 N   0  0  0  0  0  0  0  0  0  0  0  0
   21.8444   -3.7550  -14.5837 C   0  0  0  0  0  0  0  0  0  0  0  0
   21.1868   -2.9235  -15.2480 O   0  0  0  0  0  0  0  0  0  0  0  0
   22.0410   -5.1343  -15.0436 C   0  0  0  0  0  0  0  0  0  0  0  0
   20.9753   -6.0995  -14.6224 C   0  0  2  0  0  0  0  0  0  0  0  0
   21.2426   -7.4014  -15.2154 N   0  0  0  0  0  0  0  0  0  0  0  0
   19.6786   -5.5509  -15.0426 C   0  0  0  0  0  0  0  0  0  0  0  0
   19.2517   -4.5031  -14.5267 O   0  0  0  0  0  0  0  0  0  0  0  0
   18.9384   -6.1946  -16.0044 O   0  0  0  0  0  0  0  0  0  0  0  0
  2  1  1  1
  2  3  1  0
  4  3  1  0
  5  2  1  0
  6  5  2  0
  8  7  1  1
  8 10  1  0
  9  8  1  0
 11 10  1  6
 11 12  1  0
 12  5  1  0
 13 11  1  0
 13 20  1  0
 14 13  2  0
 15 16  1  0
 16 17  2  0
 19 18  1  6
 18 16  1  0
 19 20  1  0
 19 21  1  0
 21 23  1  0
 22 21  2  0
M  END
$$$$
