CLN.pdb
     RDKit          3D

 23 22  0  0  1  0  0  0  0  0999 V2000
   17.9021  -13.0703  -18.7887 N   0  0  0  0  0  0  0  0  0  0  0  0
   19.0355  -12.2079  -19.0461 C   0  0  1  0  0  0  0  0  0  0  0  0
   18.8677  -11.5339  -20.3904 C   0  0  0  0  0  0  0  0  0  0  0  0
   18.9511  -12.7769  -21.7017 S   0  0  0  0  0  0  0  0  0  0  0  0
   19.2124  -11.2283  -17.9620 C   0  0  0  0  0  0  0  0  0  0  0  0
   18.1992  -10.6449  -17.4968 O   0  0  0  0  0  0  0  0  0  0  0  0
   23.7159  -10.0947  -14.1228 C   0  0  0  0  0  0  0  0  0  0  0  0
   22.3097   -9.5522  -14.4660 C   0  0  2  0  0  0  0  0  0  0  0  0
   21.5054   -9.7003  -13.2136 C   0  0  0  0  0  0  0  0  0  0  0  0
   21.8526  -10.3550  -15.6161 C   0  0  0  0  0  0  0  0  0  0  0  0
   20.5800   -9.9587  -16.2903 C   0  0  2  0  0  0  0  0  0  0  0  0
   20.4641  -10.9130  -17.4201 N   0  0  0  0  0  0  0  0  0  0  0  0
   20.5468   -8.6117  -16.8730 C   0  0  0  0  0  0  0  0  0  0  0  0
   21.2499   -8.3483  -17.8738 O   0  0  0  0  0  0  0  0  0  0  0  0
   19.1654   -3.6637  -17.8617 N   0  0  0  0  0  0  0  0  0  0  0  0
   18.1175   -4.6126  -17.9566 C   0  0  0  0  0  0  0  0  0  0  0  0
   17.0450   -4.2679  -18.5007 O   0  0  0  0  0  0  0  0  0  0  0  0
   18.3158   -5.9632  -17.4190 C   0  0  0  0  0  0  0  0  0  0  0  0
   19.6915   -6.2392  -16.8938 C   0  0  2  0  0  0  0  0  0  0  0  0
   19.7343   -7.5834  -16.3375 N   0  0  0  0  0  0  0  0  0  0  0  0
   20.0065   -5.2111  -15.8925 C   0  0  0  0  0  0  0  0  0  0  0  0
   19.5063   -5.2781  -14.7559 O   0  0  0  0  0  0  0  0  0  0  0  0
   20.8527   -4.1768  -16.2110 O   0  0  0  0  0  0  0  0  0  0  0  0
  2  1  1  1
  2  3  1  0
  4  3  1  0
  5  2  1  0
  6  5  2  0
  8  7  1  1
  8 10  1  0
  9  8  1  0
 11 10  1  6
 11 12  1  0
 12  5  1  0
 13 11  1  0
 13 20  1  0
 14 13  2  0
 15 16  1  0
 16 17  2  0
 19 18  1  1
 18 16  1  0
 19 20  1  0
 19 21  1  0
 21 23  1  0
 22 21  2  0
M  END
$$$$
