CLN.pdb
     RDKit          3D

 23 22  0  0  1  0  0  0  0  0999 V2000
   26.0830  -17.2620  -14.6334 N   0  0  0  0  0  0  0  0  0  0  0  0
   26.4282  -18.5220  -15.2561 C   0  0  1  0  0  0  0  0  0  0  0  0
   27.9316  -18.6938  -15.2588 C   0  0  0  0  0  0  0  0  0  0  0  0
   28.7185  -17.1052  -15.6174 S   0  0  0  0  0  0  0  0  0  0  0  0
   25.7510  -19.6455  -14.5888 C   0  0  0  0  0  0  0  0  0  0  0  0
   25.8981  -20.8066  -15.0508 O   0  0  0  0  0  0  0  0  0  0  0  0
   26.5299  -21.8755  -11.2838 C   0  0  0  0  0  0  0  0  0  0  0  0
   25.9584  -20.4704  -10.9859 C   0  0  2  0  0  0  0  0  0  0  0  0
   26.1975  -20.2406   -9.5273 C   0  0  0  0  0  0  0  0  0  0  0  0
   24.5434  -20.5300  -11.3984 C   0  0  0  0  0  0  0  0  0  0  0  0
   24.2389  -20.6403  -12.8566 C   0  0  2  0  0  0  0  0  0  0  0  0
   24.9450  -19.4815  -13.4559 N   0  0  0  0  0  0  0  0  0  0  0  0
   22.8263  -20.5133  -13.2357 C   0  0  0  0  0  0  0  0  0  0  0  0
   21.9746  -21.2783  -12.7309 O   0  0  0  0  0  0  0  0  0  0  0  0
   18.8336  -16.6133  -15.5327 N   0  0  0  0  0  0  0  0  0  0  0  0
   19.4270  -17.8790  -15.7637 C   0  0  0  0  0  0  0  0  0  0  0  0
   18.7596  -18.7536  -16.3593 O   0  0  0  0  0  0  0  0  0  0  0  0
   20.7972  -18.1288  -15.3024 C   0  0  0  0  0  0  0  0  0  0  0  0
   21.0005  -19.4384  -14.6037 C   0  0  2  0  0  0  0  0  0  0  0  0
   22.3842  -19.5406  -14.1644 N   0  0  0  0  0  0  0  0  0  0  0  0
   20.6316  -20.5102  -15.5385 C   0  0  0  0  0  0  0  0  0  0  0  0
   21.4274  -20.8583  -16.4285 O   0  0  0  0  0  0  0  0  0  0  0  0
   19.4091  -21.1274  -15.4299 O   0  0  0  0  0  0  0  0  0  0  0  0
  2  1  1  1
  2  3  1  0
  4  3  1  0
  5  2  1  0
  6  5  2  0
  8  7  1  1
  8 10  1  0
  9  8  1  0
 11 10  1  1
 11 12  1  0
 12  5  1  0
 13 11  1  0
 13 20  1  0
 14 13  2  0
 15 16  1  0
 16 17  2  0
 19 18  1  6
 18 16  1  0
 19 20  1  0
 19 21  1  0
 21 23  1  0
 22 21  2  0
M  END
$$$$
