CLN.pdb
     RDKit          3D

 23 22  0  0  1  0  0  0  0  0999 V2000
   33.6522  -25.5281  -16.9399 N   0  0  0  0  0  0  0  0  0  0  0  0
   32.8367  -26.6436  -16.5093 C   0  0  1  0  0  0  0  0  0  0  0  0
   31.4214  -26.1719  -16.2561 C   0  0  0  0  0  0  0  0  0  0  0  0
   31.4092  -25.0293  -14.8541 S   0  0  0  0  0  0  0  0  0  0  0  0
   32.8800  -27.7406  -17.4896 C   0  0  0  0  0  0  0  0  0  0  0  0
   32.8813  -27.4615  -18.7165 O   0  0  0  0  0  0  0  0  0  0  0  0
   35.6690  -32.8124  -17.6125 C   0  0  0  0  0  0  0  0  0  0  0  0
   34.9907  -31.6963  -18.4395 C   0  0  2  0  0  0  0  0  0  0  0  0
   36.0839  -30.7393  -18.7952 C   0  0  0  0  0  0  0  0  0  0  0  0
   33.9293  -31.1568  -17.5687 C   0  0  0  0  0  0  0  0  0  0  0  0
   32.9842  -30.1556  -18.1479 C   0  0  2  0  0  0  0  0  0  0  0  0
   32.9202  -29.0897  -17.1182 N   0  0  0  0  0  0  0  0  0  0  0  0
   31.6064  -30.6138  -18.3644 C   0  0  0  0  0  0  0  0  0  0  0  0
   31.3719  -31.5051  -19.2105 O   0  0  0  0  0  0  0  0  0  0  0  0
   26.7080  -31.8977  -17.6422 N   0  0  0  0  0  0  0  0  0  0  0  0
   27.1817  -31.2688  -16.4641 C   0  0  0  0  0  0  0  0  0  0  0  0
   26.5175  -31.3919  -15.4111 O   0  0  0  0  0  0  0  0  0  0  0  0
   28.4282  -30.4963  -16.5095 C   0  0  0  0  0  0  0  0  0  0  0  0
   29.1442  -30.5277  -17.8252 C   0  0  2  0  0  0  0  0  0  0  0  0
   30.5156  -30.0778  -17.6384 N   0  0  0  0  0  0  0  0  0  0  0  0
   28.4008  -29.6757  -18.7634 C   0  0  0  0  0  0  0  0  0  0  0  0
   28.6384  -28.4562  -18.8159 O   0  0  0  0  0  0  0  0  0  0  0  0
   27.4442  -30.2254  -19.5821 O   0  0  0  0  0  0  0  0  0  0  0  0
  2  1  1  6
  2  3  1  0
  4  3  1  0
  5  2  1  0
  6  5  2  0
  8  7  1  1
  8 10  1  0
  9  8  1  0
 11 10  1  1
 11 12  1  0
 12  5  1  0
 13 11  1  0
 13 20  1  0
 14 13  2  0
 15 16  1  0
 16 17  2  0
 19 18  1  1
 18 16  1  0
 19 20  1  0
 19 21  1  0
 21 23  1  0
 22 21  2  0
M  END
$$$$
