CLN.pdb
     RDKit          3D

 23 22  0  0  1  0  0  0  0  0999 V2000
   16.4169   -9.4057  -10.8405 N   0  0  0  0  0  0  0  0  0  0  0  0
   16.8740   -9.4789  -12.2118 C   0  0  1  0  0  0  0  0  0  0  0  0
   15.9703   -8.6464  -13.0950 C   0  0  0  0  0  0  0  0  0  0  0  0
   16.0557   -6.9143  -12.5812 S   0  0  0  0  0  0  0  0  0  0  0  0
   18.2814   -9.0632  -12.3237 C   0  0  0  0  0  0  0  0  0  0  0  0
   18.8015   -8.4132  -11.3802 O   0  0  0  0  0  0  0  0  0  0  0  0
   22.9617   -8.9828  -15.2209 C   0  0  0  0  0  0  0  0  0  0  0  0
   22.6937  -10.0199  -14.1064 C   0  0  2  0  0  0  0  0  0  0  0  0
   23.3827  -11.2718  -14.5486 C   0  0  0  0  0  0  0  0  0  0  0  0
   21.2250  -10.1046  -13.9983 C   0  0  0  0  0  0  0  0  0  0  0  0
   20.4847   -8.9045  -13.5056 C   0  0  2  0  0  0  0  0  0  0  0  0
   19.0743   -9.3593  -13.4388 N   0  0  0  0  0  0  0  0  0  0  0  0
   20.5049   -7.7256  -14.3803 C   0  0  0  0  0  0  0  0  0  0  0  0
   21.5462   -7.0387  -14.4762 O   0  0  0  0  0  0  0  0  0  0  0  0
   19.2269   -4.3243  -18.1291 N   0  0  0  0  0  0  0  0  0  0  0  0
   18.6339   -5.5884  -18.3698 C   0  0  0  0  0  0  0  0  0  0  0  0
   18.0281   -5.7699  -19.4492 O   0  0  0  0  0  0  0  0  0  0  0  0
   18.7448   -6.6426  -17.3554 C   0  0  0  0  0  0  0  0  0  0  0  0
   19.3960   -6.2211  -16.0737 C   0  0  2  0  0  0  0  0  0  0  0  0
   19.3726   -7.3316  -15.1333 N   0  0  0  0  0  0  0  0  0  0  0  0
   18.6744   -5.0459  -15.5666 C   0  0  0  0  0  0  0  0  0  0  0  0
   18.6280   -4.0055  -16.2463 O   0  0  0  0  0  0  0  0  0  0  0  0
   18.0516   -5.0959  -14.3432 O   0  0  0  0  0  0  0  0  0  0  0  0
  2  1  1  1
  2  3  1  0
  4  3  1  0
  5  2  1  0
  6  5  2  0
  8  7  1  6
  8 10  1  0
  9  8  1  0
 11 10  1  6
 11 12  1  0
 12  5  1  0
 13 11  1  0
 13 20  1  0
 14 13  2  0
 15 16  1  0
 16 17  2  0
 19 18  1  6
 18 16  1  0
 19 20  1  0
 19 21  1  0
 21 23  1  0
 22 21  2  0
M  END
$$$$
