TAG.pdb
     RDKit          3D

 17 16  0  0  1  0  0  0  0  0999 V2000
    9.8428  -13.6533   17.3546 C   0  0  0  0  0  0  0  0  0  0  0  0
    9.5690  -14.1361   18.7377 C   0  0  1  0  0  0  0  0  0  0  0  0
   10.5274  -13.5691   19.5973 O   0  0  0  0  0  0  0  0  0  0  0  0
    8.2201  -13.7255   19.2726 C   0  0  2  0  0  0  0  0  0  0  0  0
    8.1829  -12.2619   19.2250 N   0  0  0  0  0  0  0  0  0  0  0  0
    8.0134  -14.1738   20.6726 C   0  0  0  0  0  0  0  0  0  0  0  0
    8.0378  -13.3211   21.5960 O   0  0  0  0  0  0  0  0  0  0  0  0
    6.8375  -17.2834   22.3939 C   0  0  0  0  0  0  0  0  0  0  0  0
    7.4425  -15.8948   22.3927 C   0  0  2  0  0  0  0  0  0  0  0  0
    7.7858  -15.5259   21.0467 N   0  0  0  0  0  0  0  0  0  0  0  0
    8.5740  -15.8249   23.3321 C   0  0  0  0  0  0  0  0  0  0  0  0
    8.4723  -16.0897   24.5622 O   0  0  0  0  0  0  0  0  0  0  0  0
    9.8344  -15.4360   22.7968 N   0  0  0  0  0  0  0  0  0  0  0  0
   11.0071  -15.3534   23.6427 C   0  0  0  0  0  0  0  0  0  0  0  0
   11.8752  -16.5493   23.4221 C   0  0  0  0  0  0  0  0  0  0  0  0
   11.3654  -17.6875   23.5024 O   0  0  0  0  0  0  0  0  0  0  0  0
   13.2195  -16.4126   23.1337 O   0  0  0  0  0  0  0  0  0  0  0  0
  2  3  1  0
  2  1  1  6
  4  2  1  0
  4  5  1  1
  6 10  1  0
  6  4  1  0
  7  6  2  0
  9  8  1  6
  9 10  1  0
  9 11  1  0
 11 12  2  0
 13 11  1  0
 13 14  1  0
 14 15  1  0
 15 17  1  0
 16 15  2  0
M  END
$$$$
