TAG.pdb
     RDKit          3D

 17 16  0  0  1  0  0  0  0  0999 V2000
    6.5283  -16.9643   21.8563 C   0  0  0  0  0  0  0  0  0  0  0  0
    7.0420  -16.0702   22.9322 C   0  0  1  0  0  0  0  0  0  0  0  0
    8.4083  -16.3489   23.1181 O   0  0  0  0  0  0  0  0  0  0  0  0
    6.9472  -14.6014   22.6035 C   0  0  2  0  0  0  0  0  0  0  0  0
    7.7178  -14.4008   21.3740 N   0  0  0  0  0  0  0  0  0  0  0  0
    7.5137  -13.7498   23.6793 C   0  0  0  0  0  0  0  0  0  0  0  0
    8.7339  -13.4496   23.6407 O   0  0  0  0  0  0  0  0  0  0  0  0
    6.3483  -11.6704   26.5495 C   0  0  0  0  0  0  0  0  0  0  0  0
    7.3752  -12.5510   25.8679 C   0  0  2  0  0  0  0  0  0  0  0  0
    6.7568  -13.2415   24.7696 N   0  0  0  0  0  0  0  0  0  0  0  0
    8.0151  -13.4472   26.8452 C   0  0  0  0  0  0  0  0  0  0  0  0
    8.6036  -13.0353   27.8833 O   0  0  0  0  0  0  0  0  0  0  0  0
    7.9506  -14.8441   26.5789 N   0  0  0  0  0  0  0  0  0  0  0  0
    8.4056  -15.8088   27.5587 C   0  0  0  0  0  0  0  0  0  0  0  0
    9.8096  -16.2175   27.2519 C   0  0  0  0  0  0  0  0  0  0  0  0
   10.3883  -15.6993   26.2729 O   0  0  0  0  0  0  0  0  0  0  0  0
   10.4677  -17.1511   28.0294 O   0  0  0  0  0  0  0  0  0  0  0  0
  2  3  1  0
  2  1  1  6
  4  2  1  0
  4  5  1  6
  6 10  1  0
  6  4  1  0
  7  6  2  0
  9  8  1  1
  9 10  1  0
  9 11  1  0
 11 12  2  0
 13 11  1  0
 13 14  1  0
 14 15  1  0
 15 17  1  0
 16 15  2  0
M  END
$$$$
