TAG.pdb
     RDKit          3D

 17 16  0  0  1  0  0  0  0  0999 V2000
    5.9882  -16.9484   19.2386 C   0  0  0  0  0  0  0  0  0  0  0  0
    6.5223  -16.6341   20.5939 C   0  0  1  0  0  0  0  0  0  0  0  0
    7.2458  -17.7512   21.0495 O   0  0  0  0  0  0  0  0  0  0  0  0
    7.4780  -15.4678   20.6189 C   0  0  2  0  0  0  0  0  0  0  0  0
    8.5943  -15.8273   19.7413 N   0  0  0  0  0  0  0  0  0  0  0  0
    7.9967  -15.1988   21.9835 C   0  0  0  0  0  0  0  0  0  0  0  0
    9.0446  -15.7803   22.3632 O   0  0  0  0  0  0  0  0  0  0  0  0
    7.0869  -13.0594   24.9431 C   0  0  0  0  0  0  0  0  0  0  0  0
    7.8357  -14.1869   24.2631 C   0  0  2  0  0  0  0  0  0  0  0  0
    7.3781  -14.3126   22.9065 N   0  0  0  0  0  0  0  0  0  0  0  0
    7.7176  -15.4290   25.0447 C   0  0  0  0  0  0  0  0  0  0  0  0
    6.6417  -16.0802   25.1547 O   0  0  0  0  0  0  0  0  0  0  0  0
    8.8932  -15.8946   25.6985 N   0  0  0  0  0  0  0  0  0  0  0  0
    8.8832  -17.1306   26.4534 C   0  0  0  0  0  0  0  0  0  0  0  0
   10.2149  -17.3404   27.0976 C   0  0  0  0  0  0  0  0  0  0  0  0
   11.1219  -16.5052   26.8934 O   0  0  0  0  0  0  0  0  0  0  0  0
   10.4521  -18.4348   27.9071 O   0  0  0  0  0  0  0  0  0  0  0  0
  2  3  1  0
  2  1  1  6
  4  2  1  0
  4  5  1  6
  6 10  1  0
  6  4  1  0
  7  6  2  0
  9  8  1  1
  9 10  1  0
  9 11  1  0
 11 12  2  0
 13 11  1  0
 13 14  1  0
 14 15  1  0
 15 17  1  0
 16 15  2  0
M  END
$$$$
