TAG.pdb
     RDKit          3D

 17 16  0  0  1  0  0  0  0  0999 V2000
   11.5625  -13.9516   18.4915 C   0  0  0  0  0  0  0  0  0  0  0  0
   10.1271  -14.1805   18.1626 C   0  0  1  0  0  0  0  0  0  0  0  0
    9.9767  -14.0843   16.7672 O   0  0  0  0  0  0  0  0  0  0  0  0
    9.6209  -15.5464   18.5531 C   0  0  2  0  0  0  0  0  0  0  0  0
    8.2282  -15.6165   18.1045 N   0  0  0  0  0  0  0  0  0  0  0  0
    9.6727  -15.7636   20.0206 C   0  0  0  0  0  0  0  0  0  0  0  0
    8.8312  -15.1841   20.7531 O   0  0  0  0  0  0  0  0  0  0  0  0
   10.6289  -18.2487   22.4194 C   0  0  0  0  0  0  0  0  0  0  0  0
   10.6434  -16.7698   22.0923 C   0  0  2  0  0  0  0  0  0  0  0  0
   10.6262  -16.5972   20.6656 N   0  0  0  0  0  0  0  0  0  0  0  0
   11.7789  -16.1067   22.7546 C   0  0  0  0  0  0  0  0  0  0  0  0
   11.9660  -16.1328   24.0028 O   0  0  0  0  0  0  0  0  0  0  0  0
   12.6958  -15.4086   21.9190 N   0  0  0  0  0  0  0  0  0  0  0  0
   13.8906  -14.8035   22.4702 C   0  0  0  0  0  0  0  0  0  0  0  0
   15.0506  -15.0576   21.5634 C   0  0  0  0  0  0  0  0  0  0  0  0
   14.9677  -15.9774   20.7214 O   0  0  0  0  0  0  0  0  0  0  0  0
   16.2007  -14.2960   21.6444 O   0  0  0  0  0  0  0  0  0  0  0  0
  2  3  1  0
  2  1  1  6
  4  2  1  0
  4  5  1  1
  6 10  1  0
  6  4  1  0
  7  6  2  0
  9  8  1  6
  9 10  1  0
  9 11  1  0
 11 12  2  0
 13 11  1  0
 13 14  1  0
 14 15  1  0
 15 17  1  0
 16 15  2  0
M  END
$$$$
