TAG.pdb
     RDKit          3D

 17 16  0  0  1  0  0  0  0  0999 V2000
    7.6678  -15.0222   16.7673 C   0  0  0  0  0  0  0  0  0  0  0  0
    8.0621  -15.0413   18.2044 C   0  0  1  0  0  0  0  0  0  0  0  0
    9.4206  -15.3985   18.2811 O   0  0  0  0  0  0  0  0  0  0  0  0
    7.9328  -13.7052   18.8915 C   0  0  2  0  0  0  0  0  0  0  0  0
    8.7128  -12.7530   18.0973 N   0  0  0  0  0  0  0  0  0  0  0  0
    8.4638  -13.7353   20.2775 C   0  0  0  0  0  0  0  0  0  0  0  0
    9.6544  -13.3874   20.4822 O   0  0  0  0  0  0  0  0  0  0  0  0
    7.0562  -13.9714   23.7234 C   0  0  0  0  0  0  0  0  0  0  0  0
    8.2138  -14.0212   22.7477 C   0  0  2  0  0  0  0  0  0  0  0  0
    7.7039  -14.1378   21.4091 N   0  0  0  0  0  0  0  0  0  0  0  0
    9.1540  -15.0921   23.1180 C   0  0  0  0  0  0  0  0  0  0  0  0
    9.6714  -15.1956   24.2648 O   0  0  0  0  0  0  0  0  0  0  0  0
    9.4768  -16.0445   22.1106 N   0  0  0  0  0  0  0  0  0  0  0  0
   10.3335  -17.1748   22.4041 C   0  0  0  0  0  0  0  0  0  0  0  0
   11.7385  -16.7067   22.6020 C   0  0  0  0  0  0  0  0  0  0  0  0
   12.1989  -16.6542   23.7626 O   0  0  0  0  0  0  0  0  0  0  0  0
   12.5254  -16.3354   21.5286 O   0  0  0  0  0  0  0  0  0  0  0  0
  2  3  1  0
  2  1  1  6
  4  2  1  0
  4  5  1  6
  6 10  1  0
  6  4  1  0
  7  6  2  0
  9  8  1  1
  9 10  1  0
  9 11  1  0
 11 12  2  0
 13 11  1  0
 13 14  1  0
 14 15  1  0
 15 17  1  0
 16 15  2  0
M  END
$$$$
