TAG.pdb
     RDKit          3D

 17 16  0  0  1  0  0  0  0  0999 V2000
    7.2436    4.9067   17.9109 C   0  0  0  0  0  0  0  0  0  0  0  0
    6.3687    5.8751   18.6304 C   0  0  1  0  0  0  0  0  0  0  0  0
    5.0337    5.4606   18.4722 O   0  0  0  0  0  0  0  0  0  0  0  0
    6.6219    5.9410   20.1156 C   0  0  2  0  0  0  0  0  0  0  0  0
    5.5361    6.7416   20.6864 N   0  0  0  0  0  0  0  0  0  0  0  0
    7.9217    6.5837   20.4335 C   0  0  0  0  0  0  0  0  0  0  0  0
    7.9966    7.8386   20.4384 O   0  0  0  0  0  0  0  0  0  0  0  0
   11.1111    5.6421   22.0589 C   0  0  0  0  0  0  0  0  0  0  0  0
   10.3256    6.5290   21.1151 C   0  0  2  0  0  0  0  0  0  0  0  0
    9.1087    5.8638   20.7381 N   0  0  0  0  0  0  0  0  0  0  0  0
   11.1601    6.9295   19.9701 C   0  0  0  0  0  0  0  0  0  0  0  0
   12.2618    7.5336   20.0917 O   0  0  0  0  0  0  0  0  0  0  0  0
   10.6737    6.6052   18.6722 N   0  0  0  0  0  0  0  0  0  0  0  0
   11.4680    6.8768   17.4920 C   0  0  0  0  0  0  0  0  0  0  0  0
   11.0303    8.1643   16.8730 C   0  0  0  0  0  0  0  0  0  0  0  0
   11.4718    8.4719   15.7450 O   0  0  0  0  0  0  0  0  0  0  0  0
   10.1532    9.0089   17.5261 O   0  0  0  0  0  0  0  0  0  0  0  0
  2  3  1  0
  2  1  1  6
  4  2  1  0
  4  5  1  1
  6 10  1  0
  6  4  1  0
  7  6  2  0
  9  8  1  1
  9 10  1  0
  9 11  1  0
 11 12  2  0
 13 11  1  0
 13 14  1  0
 14 15  1  0
 15 17  1  0
 16 15  2  0
M  END
$$$$
