TAG.pdb
     RDKit          3D

 17 16  0  0  1  0  0  0  0  0999 V2000
    7.2312  -16.2648   18.6912 C   0  0  0  0  0  0  0  0  0  0  0  0
    7.9175  -15.0437   18.1823 C   0  0  1  0  0  0  0  0  0  0  0  0
    7.4550  -14.7928   16.8777 O   0  0  0  0  0  0  0  0  0  0  0  0
    7.6269  -13.8002   18.9845 C   0  0  2  0  0  0  0  0  0  0  0  0
    8.1625  -12.6751   18.2144 N   0  0  0  0  0  0  0  0  0  0  0  0
    8.2758  -13.8312   20.3192 C   0  0  0  0  0  0  0  0  0  0  0  0
    9.5289  -13.7580   20.3900 O   0  0  0  0  0  0  0  0  0  0  0  0
    7.3003  -13.8053   23.9353 C   0  0  0  0  0  0  0  0  0  0  0  0
    8.2350  -14.1580   22.7967 C   0  0  2  0  0  0  0  0  0  0  0  0
    7.5640  -13.9399   21.5446 N   0  0  0  0  0  0  0  0  0  0  0  0
    8.7525  -15.5267   22.9600 C   0  0  0  0  0  0  0  0  0  0  0  0
    8.0491  -16.5602   22.7848 O   0  0  0  0  0  0  0  0  0  0  0  0
   10.1192  -15.6596   23.3350 N   0  0  0  0  0  0  0  0  0  0  0  0
   10.7151  -16.9667   23.5195 C   0  0  0  0  0  0  0  0  0  0  0  0
   12.1020  -16.8192   24.0554 C   0  0  0  0  0  0  0  0  0  0  0  0
   12.9113  -16.0908   23.4419 O   0  0  0  0  0  0  0  0  0  0  0  0
   12.4953  -17.4715   25.2082 O   0  0  0  0  0  0  0  0  0  0  0  0
  2  3  1  0
  2  1  1  1
  4  2  1  0
  4  5  1  6
  6 10  1  0
  6  4  1  0
  7  6  2  0
  9  8  1  1
  9 10  1  0
  9 11  1  0
 11 12  2  0
 13 11  1  0
 13 14  1  0
 14 15  1  0
 15 17  1  0
 16 15  2  0
M  END
$$$$
