TAG.pdb
     RDKit          3D

 17 16  0  0  1  0  0  0  0  0999 V2000
    7.1478  -14.6504   16.8209 C   0  0  0  0  0  0  0  0  0  0  0  0
    7.6969  -14.8015   18.1981 C   0  0  1  0  0  0  0  0  0  0  0  0
    9.0241  -15.2563   18.0930 O   0  0  0  0  0  0  0  0  0  0  0  0
    7.7481  -13.5133   18.9804 C   0  0  2  0  0  0  0  0  0  0  0  0
    8.5462  -12.5767   18.1856 N   0  0  0  0  0  0  0  0  0  0  0  0
    8.3844  -13.6911   20.3097 C   0  0  0  0  0  0  0  0  0  0  0  0
    9.6386  -13.6699   20.3933 O   0  0  0  0  0  0  0  0  0  0  0  0
    7.3578  -14.0270   23.9021 C   0  0  0  0  0  0  0  0  0  0  0  0
    8.3112  -14.2458   22.7456 C   0  0  2  0  0  0  0  0  0  0  0  0
    7.6590  -13.8871   21.5161 N   0  0  0  0  0  0  0  0  0  0  0  0
    8.8308  -15.6233   22.7596 C   0  0  0  0  0  0  0  0  0  0  0  0
    8.1624  -16.6212   22.3710 O   0  0  0  0  0  0  0  0  0  0  0  0
   10.1575  -15.8080   23.2414 N   0  0  0  0  0  0  0  0  0  0  0  0
   10.7340  -17.1329   23.3405 C   0  0  0  0  0  0  0  0  0  0  0  0
   12.1364  -17.0376   23.8473 C   0  0  0  0  0  0  0  0  0  0  0  0
   12.7887  -15.9953   23.6240 O   0  0  0  0  0  0  0  0  0  0  0  0
   12.7134  -18.0768   24.5518 O   0  0  0  0  0  0  0  0  0  0  0  0
  2  3  1  0
  2  1  1  6
  4  2  1  0
  4  5  1  6
  6 10  1  0
  6  4  1  0
  7  6  2  0
  9  8  1  1
  9 10  1  0
  9 11  1  0
 11 12  2  0
 13 11  1  0
 13 14  1  0
 14 15  1  0
 15 17  1  0
 16 15  2  0
M  END
$$$$
