TAG.pdb
     RDKit          3D

 17 16  0  0  1  0  0  0  0  0999 V2000
    7.5782  -17.8297   20.5206 C   0  0  0  0  0  0  0  0  0  0  0  0
    7.7753  -18.0408   19.0586 C   0  0  1  0  0  0  0  0  0  0  0  0
    6.9686  -19.1219   18.6594 O   0  0  0  0  0  0  0  0  0  0  0  0
    7.3626  -16.8644   18.2101 C   0  0  2  0  0  0  0  0  0  0  0  0
    7.5525  -17.2716   16.8158 N   0  0  0  0  0  0  0  0  0  0  0  0
    8.1870  -15.6607   18.4838 C   0  0  0  0  0  0  0  0  0  0  0  0
    9.3967  -15.6592   18.1416 O   0  0  0  0  0  0  0  0  0  0  0  0
    7.6900  -12.1438   19.6704 C   0  0  0  0  0  0  0  0  0  0  0  0
    8.5435  -13.3689   19.4151 C   0  0  2  0  0  0  0  0  0  0  0  0
    7.6928  -14.4886   19.1178 N   0  0  0  0  0  0  0  0  0  0  0  0
    9.4580  -13.6043   20.5447 C   0  0  0  0  0  0  0  0  0  0  0  0
   10.3880  -12.8116   20.8617 O   0  0  0  0  0  0  0  0  0  0  0  0
    9.2589  -14.7947   21.2993 N   0  0  0  0  0  0  0  0  0  0  0  0
   10.0197  -15.0454   22.5059 C   0  0  0  0  0  0  0  0  0  0  0  0
   11.2285  -15.8615   22.1813 C   0  0  0  0  0  0  0  0  0  0  0  0
   11.4237  -16.2046   20.9955 O   0  0  0  0  0  0  0  0  0  0  0  0
   12.1223  -16.2368   23.1658 O   0  0  0  0  0  0  0  0  0  0  0  0
  2  3  1  0
  2  1  1  1
  4  2  1  0
  4  5  1  6
  6 10  1  0
  6  4  1  0
  7  6  2  0
  9  8  1  1
  9 10  1  0
  9 11  1  0
 11 12  2  0
 13 11  1  0
 13 14  1  0
 14 15  1  0
 15 17  1  0
 16 15  2  0
M  END
$$$$
