TAG.pdb
     RDKit          3D

 17 16  0  0  1  0  0  0  0  0999 V2000
    6.9828  -16.6730   15.0205 C   0  0  0  0  0  0  0  0  0  0  0  0
    7.6141  -16.2811   16.3123 C   0  0  1  0  0  0  0  0  0  0  0  0
    8.8997  -16.8502   16.3620 O   0  0  0  0  0  0  0  0  0  0  0  0
    7.7995  -14.7934   16.4755 C   0  0  2  0  0  0  0  0  0  0  0  0
    8.6955  -14.3663   15.3982 N   0  0  0  0  0  0  0  0  0  0  0  0
    8.4086  -14.4458   17.7838 C   0  0  0  0  0  0  0  0  0  0  0  0
    9.6554  -14.5341   17.9188 O   0  0  0  0  0  0  0  0  0  0  0  0
    7.3406  -13.0864   21.1148 C   0  0  0  0  0  0  0  0  0  0  0  0
    8.2647  -13.8792   20.2138 C   0  0  2  0  0  0  0  0  0  0  0  0
    7.6648  -14.0121   18.9145 N   0  0  0  0  0  0  0  0  0  0  0  0
    8.6142  -15.1659   20.8383 C   0  0  0  0  0  0  0  0  0  0  0  0
    7.8310  -16.1552   20.8748 O   0  0  0  0  0  0  0  0  0  0  0  0
    9.9082  -15.2696   21.4225 N   0  0  0  0  0  0  0  0  0  0  0  0
   10.3065  -16.4639   22.1384 C   0  0  0  0  0  0  0  0  0  0  0  0
   11.6527  -16.2596   22.7535 C   0  0  0  0  0  0  0  0  0  0  0  0
   12.1040  -17.1360   23.5217 O   0  0  0  0  0  0  0  0  0  0  0  0
   12.3957  -15.1259   22.4855 O   0  0  0  0  0  0  0  0  0  0  0  0
  2  3  1  0
  2  1  1  6
  4  2  1  0
  4  5  1  6
  6 10  1  0
  6  4  1  0
  7  6  2  0
  9  8  1  1
  9 10  1  0
  9 11  1  0
 11 12  2  0
 13 11  1  0
 13 14  1  0
 14 15  1  0
 15 17  1  0
 16 15  2  0
M  END
$$$$
