TAG.pdb
     RDKit          3D

 17 16  0  0  1  0  0  0  0  0999 V2000
    6.9204  -18.3465   18.3033 C   0  0  0  0  0  0  0  0  0  0  0  0
    7.7875  -17.8176   17.2127 C   0  0  1  0  0  0  0  0  0  0  0  0
    7.3843  -18.4143   16.0042 O   0  0  0  0  0  0  0  0  0  0  0  0
    7.6751  -16.3274   17.0109 C   0  0  2  0  0  0  0  0  0  0  0  0
    8.3878  -16.0220   15.7681 N   0  0  0  0  0  0  0  0  0  0  0  0
    8.2894  -15.5640   18.1261 C   0  0  0  0  0  0  0  0  0  0  0  0
    9.5158  -15.7090   18.3617 O   0  0  0  0  0  0  0  0  0  0  0  0
    7.2557  -12.9950   20.6684 C   0  0  0  0  0  0  0  0  0  0  0  0
    8.1592  -14.0902   20.1404 C   0  0  2  0  0  0  0  0  0  0  0  0
    7.5725  -14.6643   18.9606 N   0  0  0  0  0  0  0  0  0  0  0  0
    8.4473  -15.0745   21.1967 C   0  0  0  0  0  0  0  0  0  0  0  0
    7.6884  -16.0469   21.4650 O   0  0  0  0  0  0  0  0  0  0  0  0
    9.6501  -14.8943   21.9363 N   0  0  0  0  0  0  0  0  0  0  0  0
    9.9970  -15.7902   23.0201 C   0  0  0  0  0  0  0  0  0  0  0  0
   11.4640  -16.0724   22.9931 C   0  0  0  0  0  0  0  0  0  0  0  0
   11.9940  -16.4064   21.9117 O   0  0  0  0  0  0  0  0  0  0  0  0
   12.2323  -15.9696   24.1369 O   0  0  0  0  0  0  0  0  0  0  0  0
  2  3  1  0
  2  1  1  1
  4  2  1  0
  4  5  1  6
  6 10  1  0
  6  4  1  0
  7  6  2  0
  9  8  1  1
  9 10  1  0
  9 11  1  0
 11 12  2  0
 13 11  1  0
 13 14  1  0
 14 15  1  0
 15 17  1  0
 16 15  2  0
M  END
$$$$
