TAG.pdb
     RDKit          3D

 17 16  0  0  1  0  0  0  0  0999 V2000
    9.4415  -13.1527   18.5813 C   0  0  0  0  0  0  0  0  0  0  0  0
    8.0616  -13.0734   19.1386 C   0  0  1  0  0  0  0  0  0  0  0  0
    7.2122  -12.5721   18.1355 O   0  0  0  0  0  0  0  0  0  0  0  0
    7.4920  -14.4069   19.5527 C   0  0  2  0  0  0  0  0  0  0  0  0
    6.1749  -14.1336   20.1325 N   0  0  0  0  0  0  0  0  0  0  0  0
    8.3391  -15.0872   20.5643 C   0  0  0  0  0  0  0  0  0  0  0  0
    8.3456  -14.6546   21.7447 O   0  0  0  0  0  0  0  0  0  0  0  0
   10.3844  -18.2194   20.8130 C   0  0  0  0  0  0  0  0  0  0  0  0
    9.9436  -16.8554   21.3027 C   0  0  2  0  0  0  0  0  0  0  0  0
    9.1580  -16.2145   20.2841 N   0  0  0  0  0  0  0  0  0  0  0  0
   11.1062  -16.0640   21.7386 C   0  0  0  0  0  0  0  0  0  0  0  0
   11.6834  -15.2156   21.0033 O   0  0  0  0  0  0  0  0  0  0  0  0
   11.5808  -16.2890   23.0617 N   0  0  0  0  0  0  0  0  0  0  0  0
   12.6809  -15.5145   23.5979 C   0  0  0  0  0  0  0  0  0  0  0  0
   13.7779  -16.4298   24.0354 C   0  0  0  0  0  0  0  0  0  0  0  0
   13.5996  -17.6644   23.9590 O   0  0  0  0  0  0  0  0  0  0  0  0
   14.9733  -15.9324   24.5179 O   0  0  0  0  0  0  0  0  0  0  0  0
  2  3  1  0
  2  1  1  6
  4  2  1  0
  4  5  1  1
  6 10  1  0
  6  4  1  0
  7  6  2  0
  9  8  1  6
  9 10  1  0
  9 11  1  0
 11 12  2  0
 13 11  1  0
 13 14  1  0
 14 15  1  0
 15 17  1  0
 16 15  2  0
M  END
$$$$
