CAK.pdb
     RDKit          3D

 21 20  0  0  1  0  0  0  0  0999 V2000
    8.0216  -15.7793   16.4890 N   0  0  0  0  0  0  0  0  0  0  0  0
    8.8209  -15.2349   17.5611 C   0  0  1  0  0  0  0  0  0  0  0  0
    8.3542  -13.7891   17.7540 C   0  0  0  0  0  0  0  0  0  0  0  0
    8.8771  -12.7500   16.3856 S   0  0  0  0  0  0  0  0  0  0  0  0
    8.5638  -15.9315   18.8487 C   0  0  0  0  0  0  0  0  0  0  0  0
    7.3666  -16.1803   19.1435 O   0  0  0  0  0  0  0  0  0  0  0  0
   10.2949  -18.1728   21.0803 C   0  0  0  0  0  0  0  0  0  0  0  0
    9.3085  -17.0146   20.9979 C   0  0  2  0  0  0  0  0  0  0  0  0
    9.5627  -16.3282   19.7532 N   0  0  0  0  0  0  0  0  0  0  0  0
    9.4775  -16.1160   22.1717 C   0  0  0  0  0  0  0  0  0  0  0  0
   10.5752  -15.4918   22.2399 O   0  0  0  0  0  0  0  0  0  0  0  0
    8.5061  -15.9356   23.1736 N   0  0  0  0  0  0  0  0  0  0  0  0
    8.6439  -14.9143   24.2237 C   0  0  1  0  0  0  0  0  0  0  0  0
    7.2906  -14.4805   24.6923 C   0  0  0  0  0  0  0  0  0  0  0  0
    7.3699  -13.4875   25.7956 C   0  0  0  0  0  0  0  0  0  0  0  0
    5.9941  -12.9063   26.1289 C   0  0  0  0  0  0  0  0  0  0  0  0
    6.0747  -11.9591   27.2992 C   0  0  0  0  0  0  0  0  0  0  0  0
    4.7939  -11.4037   27.6529 N   0  0  0  0  0  0  0  0  0  0  0  0
    9.4108  -15.5165   25.3148 C   0  0  0  0  0  0  0  0  0  0  0  0
    9.3261  -16.7436   25.5518 O   0  0  0  0  0  0  0  0  0  0  0  0
   10.2427  -14.7645   26.1039 O   0  0  0  0  0  0  0  0  0  0  0  0
  2  1  1  6
  2  5  1  0
  3  2  1  0
  4  3  1  0
  5  9  1  0
  5  6  2  0
  8  7  1  1
  9  8  1  0
 10  8  1  0
 10 11  2  0
 12 13  1  0
 12 10  1  0
 14 15  1  0
 13 14  1  1
 16 17  1  0
 16 15  1  0
 17 18  1  0
 19 13  1  0
 20 19  2  0
 21 19  1  0
M  END
$$$$
