CAK.pdb
     RDKit          3D

 21 20  0  0  1  0  0  0  0  0999 V2000
    5.3346  -13.2656   26.6104 N   0  0  0  0  0  0  0  0  0  0  0  0
    6.3313  -12.7734   25.6891 C   0  0  1  0  0  0  0  0  0  0  0  0
    7.4319  -12.1391   26.5447 C   0  0  0  0  0  0  0  0  0  0  0  0
    6.9218  -10.5367   27.1751 S   0  0  0  0  0  0  0  0  0  0  0  0
    6.9760  -13.8783   24.9323 C   0  0  0  0  0  0  0  0  0  0  0  0
    7.2254  -14.9404   25.5582 O   0  0  0  0  0  0  0  0  0  0  0  0
    7.8171  -14.5306   21.3488 C   0  0  0  0  0  0  0  0  0  0  0  0
    7.8713  -14.9204   22.8206 C   0  0  2  0  0  0  0  0  0  0  0  0
    7.3233  -13.8162   23.5726 N   0  0  0  0  0  0  0  0  0  0  0  0
    9.2735  -15.2205   23.2176 C   0  0  0  0  0  0  0  0  0  0  0  0
   10.0513  -14.2270   23.3034 O   0  0  0  0  0  0  0  0  0  0  0  0
    9.7563  -16.5134   23.4921 N   0  0  0  0  0  0  0  0  0  0  0  0
   11.1743  -16.7744   23.7854 C   0  0  1  0  0  0  0  0  0  0  0  0
   11.3040  -18.0239   24.5983 C   0  0  0  0  0  0  0  0  0  0  0  0
   10.9850  -17.7967   26.0323 C   0  0  0  0  0  0  0  0  0  0  0  0
   11.0954  -19.0890   26.8445 C   0  0  0  0  0  0  0  0  0  0  0  0
   10.6915  -18.8635   28.2795 C   0  0  0  0  0  0  0  0  0  0  0  0
   10.5929  -20.0903   29.0275 N   0  0  0  0  0  0  0  0  0  0  0  0
   11.8641  -16.9073   22.5017 C   0  0  0  0  0  0  0  0  0  0  0  0
   11.2890  -17.4324   21.5205 O   0  0  0  0  0  0  0  0  0  0  0  0
   13.1497  -16.4620   22.3315 O   0  0  0  0  0  0  0  0  0  0  0  0
  2  1  1  1
  2  5  1  0
  3  2  1  0
  4  3  1  0
  5  9  1  0
  5  6  2  0
  8  7  1  6
  9  8  1  0
 10  8  1  0
 10 11  2  0
 12 13  1  0
 12 10  1  0
 14 15  1  0
 13 14  1  1
 16 17  1  0
 16 15  1  0
 17 18  1  0
 19 13  1  0
 20 19  2  0
 21 19  1  0
M  END
$$$$
