CAK.pdb
     RDKit          3D

 21 20  0  0  1  0  0  0  0  0999 V2000
    6.4601  -20.0389   21.4382 N   0  0  0  0  0  0  0  0  0  0  0  0
    6.2668  -18.8327   22.2078 C   0  0  1  0  0  0  0  0  0  0  0  0
    6.7598  -19.1428   23.6242 C   0  0  0  0  0  0  0  0  0  0  0  0
    5.4686  -19.9121   24.6073 S   0  0  0  0  0  0  0  0  0  0  0  0
    7.1122  -17.7177   21.7067 C   0  0  0  0  0  0  0  0  0  0  0  0
    8.2745  -18.0014   21.3185 O   0  0  0  0  0  0  0  0  0  0  0  0
    6.6673  -14.0540   21.0830 C   0  0  0  0  0  0  0  0  0  0  0  0
    7.5547  -15.2836   21.2310 C   0  0  2  0  0  0  0  0  0  0  0  0
    6.7023  -16.3758   21.6378 N   0  0  0  0  0  0  0  0  0  0  0  0
    8.6307  -15.0197   22.2242 C   0  0  0  0  0  0  0  0  0  0  0  0
    9.5681  -14.2628   21.8397 O   0  0  0  0  0  0  0  0  0  0  0  0
    8.6520  -15.5549   23.5253 N   0  0  0  0  0  0  0  0  0  0  0  0
    9.6787  -15.1798   24.5102 C   0  0  1  0  0  0  0  0  0  0  0  0
    9.1023  -15.2297   25.8901 C   0  0  0  0  0  0  0  0  0  0  0  0
   10.1176  -14.9309   26.9341 C   0  0  0  0  0  0  0  0  0  0  0  0
    9.5058  -14.9543   28.3365 C   0  0  0  0  0  0  0  0  0  0  0  0
   10.5175  -14.5436   29.3762 C   0  0  0  0  0  0  0  0  0  0  0  0
    9.9807  -14.5670   30.7124 N   0  0  0  0  0  0  0  0  0  0  0  0
   10.7832  -16.1289   24.3663 C   0  0  0  0  0  0  0  0  0  0  0  0
   11.9552  -15.7908   24.6516 O   0  0  0  0  0  0  0  0  0  0  0  0
   10.5727  -17.4088   23.9220 O   0  0  0  0  0  0  0  0  0  0  0  0
  2  1  1  6
  2  5  1  0
  3  2  1  0
  4  3  1  0
  5  9  1  0
  5  6  2  0
  8  7  1  1
  9  8  1  0
 10  8  1  0
 10 11  2  0
 12 13  1  0
 12 10  1  0
 14 15  1  0
 13 14  1  1
 16 17  1  0
 16 15  1  0
 17 18  1  0
 19 13  1  0
 20 19  2  0
 21 19  1  0
M  END
$$$$
