CAK.pdb
     RDKit          3D

 21 20  0  0  1  0  0  0  0  0999 V2000
    8.6652  -13.9052   15.4961 N   0  0  0  0  0  0  0  0  0  0  0  0
    7.7157  -14.2721   16.5200 C   0  0  1  0  0  0  0  0  0  0  0  0
    7.3915  -15.7519   16.2954 C   0  0  0  0  0  0  0  0  0  0  0  0
    8.8157  -16.7888   16.6442 S   0  0  0  0  0  0  0  0  0  0  0  0
    8.3073  -14.1764   17.8801 C   0  0  0  0  0  0  0  0  0  0  0  0
    9.5574  -14.2758   17.9762 O   0  0  0  0  0  0  0  0  0  0  0  0
    7.0260  -13.4964   21.3324 C   0  0  0  0  0  0  0  0  0  0  0  0
    8.1481  -13.8838   20.3773 C   0  0  2  0  0  0  0  0  0  0  0  0
    7.5678  -13.9836   19.0589 N   0  0  0  0  0  0  0  0  0  0  0  0
    8.7663  -15.1662   20.8100 C   0  0  0  0  0  0  0  0  0  0  0  0
    8.2021  -16.2211   20.4000 O   0  0  0  0  0  0  0  0  0  0  0  0
    9.9095  -15.2554   21.6255 N   0  0  0  0  0  0  0  0  0  0  0  0
   10.4392  -16.5457   22.0938 C   0  0  1  0  0  0  0  0  0  0  0  0
   11.8941  -16.6498   21.7597 C   0  0  0  0  0  0  0  0  0  0  0  0
   12.4994  -17.9073   22.2718 C   0  0  0  0  0  0  0  0  0  0  0  0
   13.9859  -17.9995   21.9205 C   0  0  0  0  0  0  0  0  0  0  0  0
   14.5934  -19.2684   22.4628 C   0  0  0  0  0  0  0  0  0  0  0  0
   15.9753  -19.4258   22.0892 N   0  0  0  0  0  0  0  0  0  0  0  0
   10.2259  -16.6015   23.5404 C   0  0  0  0  0  0  0  0  0  0  0  0
    9.8636  -15.5815   24.1710 O   0  0  0  0  0  0  0  0  0  0  0  0
   10.4102  -17.7626   24.2460 O   0  0  0  0  0  0  0  0  0  0  0  0
  2  1  1  6
  2  5  1  0
  3  2  1  0
  4  3  1  0
  5  9  1  0
  5  6  2  0
  8  7  1  1
  9  8  1  0
 10  8  1  0
 10 11  2  0
 12 13  1  0
 12 10  1  0
 14 15  1  0
 13 14  1  1
 16 17  1  0
 16 15  1  0
 17 18  1  0
 19 13  1  0
 20 19  2  0
 21 19  1  0
M  END
$$$$
