CAK.pdb
     RDKit          3D

 21 20  0  0  1  0  0  0  0  0999 V2000
    7.9182  -18.0139   17.7869 N   0  0  0  0  0  0  0  0  0  0  0  0
    7.0841  -17.3059   18.7290 C   0  0  1  0  0  0  0  0  0  0  0  0
    6.6992  -18.3205   19.8097 C   0  0  0  0  0  0  0  0  0  0  0  0
    5.4958  -17.6298   20.9498 S   0  0  0  0  0  0  0  0  0  0  0  0
    7.8307  -16.2227   19.4207 C   0  0  0  0  0  0  0  0  0  0  0  0
    8.9944  -16.4849   19.8195 O   0  0  0  0  0  0  0  0  0  0  0  0
    7.1899  -12.6272   20.2608 C   0  0  0  0  0  0  0  0  0  0  0  0
    8.0778  -13.8652   20.2740 C   0  0  2  0  0  0  0  0  0  0  0  0
    7.3264  -14.9331   19.6576 N   0  0  0  0  0  0  0  0  0  0  0  0
    8.4701  -14.1969   21.6704 C   0  0  0  0  0  0  0  0  0  0  0  0
    9.2973  -13.4116   22.2165 O   0  0  0  0  0  0  0  0  0  0  0  0
    7.9799  -15.3052   22.3855 N   0  0  0  0  0  0  0  0  0  0  0  0
    8.3706  -15.5742   23.7783 C   0  0  1  0  0  0  0  0  0  0  0  0
    7.5403  -16.6884   24.3335 C   0  0  0  0  0  0  0  0  0  0  0  0
    7.9558  -17.0664   25.7098 C   0  0  0  0  0  0  0  0  0  0  0  0
    7.4022  -18.4364   26.1079 C   0  0  0  0  0  0  0  0  0  0  0  0
    7.8673  -18.8290   27.4874 C   0  0  0  0  0  0  0  0  0  0  0  0
    7.3334  -20.0970   27.9130 N   0  0  0  0  0  0  0  0  0  0  0  0
    9.7900  -15.9297   23.7683 C   0  0  0  0  0  0  0  0  0  0  0  0
   10.2878  -16.5382   22.7930 O   0  0  0  0  0  0  0  0  0  0  0  0
   10.6150  -15.6080   24.8152 O   0  0  0  0  0  0  0  0  0  0  0  0
  2  1  1  6
  2  5  1  0
  3  2  1  0
  4  3  1  0
  5  9  1  0
  5  6  2  0
  8  7  1  1
  9  8  1  0
 10  8  1  0
 10 11  2  0
 12 13  1  0
 12 10  1  0
 14 15  1  0
 13 14  1  6
 16 17  1  0
 16 15  1  0
 17 18  1  0
 19 13  1  0
 20 19  2  0
 21 19  1  0
M  END
$$$$
