CAK.pdb
     RDKit          3D

 21 20  0  0  1  0  0  0  0  0999 V2000
    8.0032  -12.6358   19.4268 N   0  0  0  0  0  0  0  0  0  0  0  0
    7.1463  -13.3646   20.3320 C   0  0  1  0  0  0  0  0  0  0  0  0
    6.9684  -14.7598   19.7260 C   0  0  0  0  0  0  0  0  0  0  0  0
    5.5723  -14.8042   18.5971 S   0  0  0  0  0  0  0  0  0  0  0  0
    7.7878  -13.5642   21.6577 C   0  0  0  0  0  0  0  0  0  0  0  0
    9.0178  -13.8268   21.6722 O   0  0  0  0  0  0  0  0  0  0  0  0
    6.7214  -13.3219   25.2379 C   0  0  0  0  0  0  0  0  0  0  0  0
    7.7333  -13.7220   24.1715 C   0  0  2  0  0  0  0  0  0  0  0  0
    7.1162  -13.4798   22.8887 N   0  0  0  0  0  0  0  0  0  0  0  0
    8.1168  -15.1496   24.3421 C   0  0  0  0  0  0  0  0  0  0  0  0
    7.2620  -16.0029   23.9674 O   0  0  0  0  0  0  0  0  0  0  0  0
    9.3435  -15.5778   24.8821 N   0  0  0  0  0  0  0  0  0  0  0  0
    9.6884  -17.0024   25.0104 C   0  0  1  0  0  0  0  0  0  0  0  0
   10.9348  -17.2958   24.2361 C   0  0  0  0  0  0  0  0  0  0  0  0
   11.3999  -18.6945   24.4294 C   0  0  0  0  0  0  0  0  0  0  0  0
   12.7198  -18.9540   23.6998 C   0  0  0  0  0  0  0  0  0  0  0  0
   13.1881  -20.3711   23.9140 C   0  0  0  0  0  0  0  0  0  0  0  0
   14.4898  -20.6167   23.3490 N   0  0  0  0  0  0  0  0  0  0  0  0
    9.8775  -17.2749   26.4356 C   0  0  0  0  0  0  0  0  0  0  0  0
   10.0354  -16.3352   27.2487 O   0  0  0  0  0  0  0  0  0  0  0  0
    9.8844  -18.5563   26.9237 O   0  0  0  0  0  0  0  0  0  0  0  0
  2  1  1  6
  2  5  1  0
  3  2  1  0
  4  3  1  0
  5  9  1  0
  5  6  2  0
  8  7  1  1
  9  8  1  0
 10  8  1  0
 10 11  2  0
 12 13  1  0
 12 10  1  0
 14 15  1  0
 13 14  1  6
 16 17  1  0
 16 15  1  0
 17 18  1  0
 19 13  1  0
 20 19  2  0
 21 19  1  0
M  END
$$$$
