CAK.pdb
     RDKit          3D

 21 20  0  0  1  0  0  0  0  0999 V2000
    5.2776  -13.2794   26.2333 N   0  0  0  0  0  0  0  0  0  0  0  0
    6.1901  -12.7686   25.2377 C   0  0  1  0  0  0  0  0  0  0  0  0
    7.2102  -11.9090   25.9900 C   0  0  0  0  0  0  0  0  0  0  0  0
    6.4597  -10.3959   26.6004 S   0  0  0  0  0  0  0  0  0  0  0  0
    6.9626  -13.8590   24.5869 C   0  0  0  0  0  0  0  0  0  0  0  0
    7.4385  -14.7549   25.3304 O   0  0  0  0  0  0  0  0  0  0  0  0
    7.9036  -14.7652   21.0737 C   0  0  0  0  0  0  0  0  0  0  0  0
    7.8800  -15.0562   22.5690 C   0  0  2  0  0  0  0  0  0  0  0  0
    7.1954  -13.9553   23.2049 N   0  0  0  0  0  0  0  0  0  0  0  0
    9.2684  -15.2156   23.0797 C   0  0  0  0  0  0  0  0  0  0  0  0
    9.9554  -14.1569   23.1608 O   0  0  0  0  0  0  0  0  0  0  0  0
    9.8316  -16.4468   23.4630 N   0  0  0  0  0  0  0  0  0  0  0  0
   11.2237  -16.5615   23.9253 C   0  0  1  0  0  0  0  0  0  0  0  0
   11.2499  -16.9800   25.3617 C   0  0  0  0  0  0  0  0  0  0  0  0
   10.8764  -18.4080   25.5376 C   0  0  0  0  0  0  0  0  0  0  0  0
   11.0130  -18.8493   26.9965 C   0  0  0  0  0  0  0  0  0  0  0  0
   10.4968  -20.2528   27.1889 C   0  0  0  0  0  0  0  0  0  0  0  0
   10.5730  -20.6891   28.5593 N   0  0  0  0  0  0  0  0  0  0  0  0
   11.8811  -17.5549   23.0754 C   0  0  0  0  0  0  0  0  0  0  0  0
   11.2109  -18.2691   22.2944 O   0  0  0  0  0  0  0  0  0  0  0  0
   13.2405  -17.7323   23.1033 O   0  0  0  0  0  0  0  0  0  0  0  0
  2  1  1  1
  2  5  1  0
  3  2  1  0
  4  3  1  0
  5  9  1  0
  5  6  2  0
  8  7  1  6
  9  8  1  0
 10  8  1  0
 10 11  2  0
 12 13  1  0
 12 10  1  0
 14 15  1  0
 13 14  1  1
 16 17  1  0
 16 15  1  0
 17 18  1  0
 19 13  1  0
 20 19  2  0
 21 19  1  0
M  END
$$$$
