CAK.pdb
     RDKit          3D

 21 20  0  0  1  0  0  0  0  0999 V2000
    8.2828  -14.2674   17.1715 N   0  0  0  0  0  0  0  0  0  0  0  0
    9.1083  -14.1232   18.3473 C   0  0  1  0  0  0  0  0  0  0  0  0
    8.9341  -12.6769   18.8201 C   0  0  0  0  0  0  0  0  0  0  0  0
   10.3228  -12.1526   19.8311 S   0  0  0  0  0  0  0  0  0  0  0  0
    8.6361  -14.9861   19.4615 C   0  0  0  0  0  0  0  0  0  0  0  0
    7.3992  -15.0148   19.6876 O   0  0  0  0  0  0  0  0  0  0  0  0
    9.7176  -17.9244   21.2680 C   0  0  0  0  0  0  0  0  0  0  0  0
    9.0142  -16.5774   21.3777 C   0  0  2  0  0  0  0  0  0  0  0  0
    9.4742  -15.7673   20.2744 N   0  0  0  0  0  0  0  0  0  0  0  0
    9.3175  -15.9489   22.6918 C   0  0  0  0  0  0  0  0  0  0  0  0
   10.4835  -15.4784   22.8266 O   0  0  0  0  0  0  0  0  0  0  0  0
    8.3986  -15.8577   23.7535 N   0  0  0  0  0  0  0  0  0  0  0  0
    8.7190  -15.1614   25.0095 C   0  0  1  0  0  0  0  0  0  0  0  0
    7.4568  -14.7436   25.6959 C   0  0  0  0  0  0  0  0  0  0  0  0
    7.4096  -13.2783   25.9417 C   0  0  0  0  0  0  0  0  0  0  0  0
    6.1342  -12.8734   26.6840 C   0  0  0  0  0  0  0  0  0  0  0  0
    6.0987  -11.3863   26.9296 C   0  0  0  0  0  0  0  0  0  0  0  0
    4.9436  -10.9761   27.6856 N   0  0  0  0  0  0  0  0  0  0  0  0
    9.4850  -16.0936   25.8375 C   0  0  0  0  0  0  0  0  0  0  0  0
    9.3856  -17.3302   25.6635 O   0  0  0  0  0  0  0  0  0  0  0  0
   10.3317  -15.6479   26.8195 O   0  0  0  0  0  0  0  0  0  0  0  0
  2  1  1  6
  2  5  1  0
  3  2  1  0
  4  3  1  0
  5  9  1  0
  5  6  2  0
  8  7  1  1
  9  8  1  0
 10  8  1  0
 10 11  2  0
 12 13  1  0
 12 10  1  0
 14 15  1  0
 13 14  1  1
 16 17  1  0
 16 15  1  0
 17 18  1  0
 19 13  1  0
 20 19  2  0
 21 19  1  0
M  END
$$$$
