CAK.pdb
     RDKit          3D

 21 20  0  0  1  0  0  0  0  0999 V2000
    0.5979  -22.4177   24.5436 N   0  0  0  0  0  0  0  0  0  0  0  0
   -0.7341  -22.2470   24.0131 C   0  0  1  0  0  0  0  0  0  0  0  0
   -1.1335  -23.5975   23.4113 C   0  0  0  0  0  0  0  0  0  0  0  0
   -0.3087  -23.8781   21.8409 S   0  0  0  0  0  0  0  0  0  0  0  0
   -1.7220  -21.9597   25.0857 C   0  0  0  0  0  0  0  0  0  0  0  0
   -1.5631  -22.5405   26.1900 O   0  0  0  0  0  0  0  0  0  0  0  0
   -4.6918  -19.7129   25.4851 C   0  0  0  0  0  0  0  0  0  0  0  0
   -3.7850  -20.8294   25.9874 C   0  0  2  0  0  0  0  0  0  0  0  0
   -2.8150  -21.0879   24.9495 N   0  0  0  0  0  0  0  0  0  0  0  0
   -4.5924  -22.0380   26.3059 C   0  0  0  0  0  0  0  0  0  0  0  0
   -4.9126  -22.7668   25.3233 O   0  0  0  0  0  0  0  0  0  0  0  0
   -5.0013  -22.3941   27.6043 N   0  0  0  0  0  0  0  0  0  0  0  0
   -5.7920  -23.6057   27.8722 C   0  0  1  0  0  0  0  0  0  0  0  0
   -5.2632  -24.2999   29.0876 C   0  0  0  0  0  0  0  0  0  0  0  0
   -6.0152  -25.5447   29.3954 C   0  0  0  0  0  0  0  0  0  0  0  0
   -5.5294  -26.1882   30.6959 C   0  0  0  0  0  0  0  0  0  0  0  0
   -6.3328  -27.4212   31.0238 C   0  0  0  0  0  0  0  0  0  0  0  0
   -5.8498  -28.1025   32.1971 N   0  0  0  0  0  0  0  0  0  0  0  0
   -7.1788  -23.1823   28.0691 C   0  0  0  0  0  0  0  0  0  0  0  0
   -8.1245  -23.9719   27.8424 O   0  0  0  0  0  0  0  0  0  0  0  0
   -7.4855  -21.9200   28.5079 O   0  0  0  0  0  0  0  0  0  0  0  0
  2  1  1  1
  2  5  1  0
  3  2  1  0
  4  3  1  0
  5  9  1  0
  5  6  2  0
  8  7  1  6
  9  8  1  0
 10  8  1  0
 10 11  2  0
 12 13  1  0
 12 10  1  0
 14 15  1  0
 13 14  1  1
 16 17  1  0
 16 15  1  0
 17 18  1  0
 19 13  1  0
 20 19  2  0
 21 19  1  0
M  END
$$$$
