CAK.pdb
     RDKit          3D

 21 20  0  0  1  0  0  0  0  0999 V2000
    6.5004  -19.4436   20.3113 N   0  0  0  0  0  0  0  0  0  0  0  0
    6.1942  -18.2188   21.0119 C   0  0  1  0  0  0  0  0  0  0  0  0
    6.0936  -18.5858   22.4954 C   0  0  0  0  0  0  0  0  0  0  0  0
    4.4227  -19.0801   22.9302 S   0  0  0  0  0  0  0  0  0  0  0  0
    7.2979  -17.2296   20.9008 C   0  0  0  0  0  0  0  0  0  0  0  0
    8.4756  -17.6655   20.9711 O   0  0  0  0  0  0  0  0  0  0  0  0
    7.5882  -13.5797   20.1492 C   0  0  0  0  0  0  0  0  0  0  0  0
    8.1897  -14.8867   20.6503 C   0  0  2  0  0  0  0  0  0  0  0  0
    7.1148  -15.8481   20.7236 N   0  0  0  0  0  0  0  0  0  0  0  0
    8.8372  -14.6763   21.9733 C   0  0  0  0  0  0  0  0  0  0  0  0
    9.8579  -13.9297   21.9798 O   0  0  0  0  0  0  0  0  0  0  0  0
    8.3817  -15.2498   23.1748 N   0  0  0  0  0  0  0  0  0  0  0  0
    8.9448  -14.8795   24.4827 C   0  0  1  0  0  0  0  0  0  0  0  0
    7.8395  -14.6102   25.4547 C   0  0  0  0  0  0  0  0  0  0  0  0
    7.5790  -13.1561   25.6202 C   0  0  0  0  0  0  0  0  0  0  0  0
    6.4190  -12.8988   26.5846 C   0  0  0  0  0  0  0  0  0  0  0  0
    6.1044  -11.4270   26.6738 C   0  0  0  0  0  0  0  0  0  0  0  0
    5.0062  -11.1472   27.5625 N   0  0  0  0  0  0  0  0  0  0  0  0
    9.7765  -15.9982   24.9279 C   0  0  0  0  0  0  0  0  0  0  0  0
    9.5720  -17.1560   24.4954 O   0  0  0  0  0  0  0  0  0  0  0  0
   10.7999  -15.8166   25.8221 O   0  0  0  0  0  0  0  0  0  0  0  0
  2  1  1  6
  2  5  1  0
  3  2  1  0
  4  3  1  0
  5  9  1  0
  5  6  2  0
  8  7  1  1
  9  8  1  0
 10  8  1  0
 10 11  2  0
 12 13  1  0
 12 10  1  0
 14 15  1  0
 13 14  1  1
 16 17  1  0
 16 15  1  0
 17 18  1  0
 19 13  1  0
 20 19  2  0
 21 19  1  0
M  END
$$$$
