RCG.pdb
     RDKit          3D

 22 21  0  0  1  0  0  0  0  0999 V2000
   26.5897  -17.8152  -18.9987 N   0  0  0  0  0  0  0  0  0  0  0  0
   26.5627  -19.0192  -19.7865 C   0  0  0  0  0  0  0  0  0  0  0  0
   26.6215  -18.9542  -21.0691 N   0  0  0  0  0  0  0  0  0  0  0  0
   26.4710  -20.2985  -19.1741 N   0  0  0  0  0  0  0  0  0  0  0  0
   26.5259  -20.4489  -17.7019 C   0  0  0  0  0  0  0  0  0  0  0  0
   27.9515  -20.7263  -17.3872 C   0  0  0  0  0  0  0  0  0  0  0  0
   28.3053  -21.0140  -15.9675 C   0  0  0  0  0  0  0  0  0  0  0  0
   27.7443  -20.0140  -15.0373 C   0  0  2  0  0  0  0  0  0  0  0  0
   28.7813  -19.0826  -14.6327 N   0  0  0  0  0  0  0  0  0  0  0  0
   27.1601  -20.6583  -13.8033 C   0  0  0  0  0  0  0  0  0  0  0  0
   27.6951  -21.6603  -13.2664 O   0  0  0  0  0  0  0  0  0  0  0  0
   26.6803  -19.7943  -21.6799 N   0  0  0  0  0  0  0  0  0  0  0  0
   25.9763  -20.1640  -13.1874 C   0  0  1  0  0  0  0  0  0  0  0  0
   25.2904  -20.8635  -12.1276 C   0  0  0  0  0  0  0  0  0  0  0  0
   25.8397  -20.3892  -10.8012 S   0  0  0  0  0  0  0  0  0  0  0  0
   25.0485  -21.1543   -9.3918 C   0  0  0  0  0  0  0  0  0  0  0  0
   23.8343  -20.6055  -12.1336 O   0  0  0  0  0  0  0  0  0  0  0  0
   23.4329  -19.4209  -12.1813 N   0  0  0  0  0  0  0  0  0  0  0  0
   22.8716  -21.6413  -12.0876 C   0  0  0  0  0  0  0  0  0  0  0  0
   21.4541  -21.4068  -12.2851 C   0  0  0  0  0  0  0  0  0  0  0  0
   20.7685  -21.1884  -10.9628 O   0  0  0  0  0  0  0  0  0  0  0  0
   19.4183  -20.8740  -10.9149 O   0  0  0  0  0  0  0  0  0  0  0  0
  1  2  1  0
  2  3  2  0
  2  4  1  0
  5  4  1  0
  6  5  1  0
  7  8  1  0
  7  6  1  0
  8 10  1  0
  8  9  1  1
 10 11  2  0
 10 12  1  0
 12 13  1  0
 13 14  1  6
 13 16  1  0
 15 14  1  0
 16 17  2  0
 18 16  1  0
 18 19  1  0
 20 21  1  0
 20 19  1  0
 22 20  2  0
M  END
$$$$
