RCG.pdb
     RDKit          3D

 22 21  0  0  1  0  0  0  0  0999 V2000
   19.7982  -21.1081  -13.3524 N   0  0  0  0  0  0  0  0  0  0  0  0
   20.7363  -21.9010  -14.1023 C   0  0  0  0  0  0  0  0  0  0  0  0
   20.5158  -22.1637  -15.3413 N   0  0  0  0  0  0  0  0  0  0  0  0
   21.9187  -22.4095  -13.4994 N   0  0  0  0  0  0  0  0  0  0  0  0
   22.3339  -21.9792  -12.1448 C   0  0  0  0  0  0  0  0  0  0  0  0
   22.9336  -20.6317  -12.3260 C   0  0  0  0  0  0  0  0  0  0  0  0
   23.5774  -19.9936  -11.1419 C   0  0  0  0  0  0  0  0  0  0  0  0
   24.4441  -20.9327  -10.4024 C   0  0  2  0  0  0  0  0  0  0  0  0
   24.0229  -21.0023   -9.0152 N   0  0  0  0  0  0  0  0  0  0  0  0
   25.8946  -20.5172  -10.4505 C   0  0  0  0  0  0  0  0  0  0  0  0
   26.2934  -19.4520   -9.9167 O   0  0  0  0  0  0  0  0  0  0  0  0
   21.1322  -22.7776  -15.9119 N   0  0  0  0  0  0  0  0  0  0  0  0
   26.8812  -21.3094  -11.1016 C   0  0  2  0  0  0  0  0  0  0  0  0
   28.1070  -20.7607  -11.6302 C   0  0  0  0  0  0  0  0  0  0  0  0
   29.2686  -21.5608  -11.0857 S   0  0  0  0  0  0  0  0  0  0  0  0
   30.8308  -21.1574  -11.8569 C   0  0  0  0  0  0  0  0  0  0  0  0
   28.1628  -20.8279  -13.1065 O   0  0  0  0  0  0  0  0  0  0  0  0
   27.6133  -21.7912  -13.6866 N   0  0  0  0  0  0  0  0  0  0  0  0
   28.8119  -19.8485  -13.8948 C   0  0  0  0  0  0  0  0  0  0  0  0
   28.0968  -18.7850  -14.5738 C   0  0  0  0  0  0  0  0  0  0  0  0
   27.5453  -19.2768  -15.8854 O   0  0  0  0  0  0  0  0  0  0  0  0
   26.9451  -18.3935  -16.7706 O   0  0  0  0  0  0  0  0  0  0  0  0
  1  2  1  0
  2  3  2  0
  2  4  1  0
  5  4  1  0
  6  5  1  0
  7  8  1  0
  7  6  1  0
  8 10  1  0
  8  9  1  1
 10 11  2  0
 10 12  1  0
 12 13  1  0
 13 14  1  1
 13 16  1  0
 15 14  1  0
 16 17  2  0
 18 16  1  0
 18 19  1  0
 20 21  1  0
 20 19  1  0
 22 20  2  0
M  END
$$$$
