RCG.pdb
     RDKit          3D

 22 21  0  0  1  0  0  0  0  0999 V2000
   18.2703  -29.1243   -0.5761 N   0  0  0  0  0  0  0  0  0  0  0  0
   18.4242  -29.7135    0.7277 C   0  0  0  0  0  0  0  0  0  0  0  0
   18.6853  -30.9669    0.8442 N   0  0  0  0  0  0  0  0  0  0  0  0
   18.2930  -28.9338    1.9088 N   0  0  0  0  0  0  0  0  0  0  0  0
   16.9607  -28.5584    2.4349 C   0  0  0  0  0  0  0  0  0  0  0  0
   16.5302  -27.3920    1.6210 C   0  0  0  0  0  0  0  0  0  0  0  0
   16.6976  -26.0335    2.2125 C   0  0  0  0  0  0  0  0  0  0  0  0
   15.7775  -25.7980    3.3430 C   0  0  2  0  0  0  0  0  0  0  0  0
   14.4061  -25.7927    2.8678 N   0  0  0  0  0  0  0  0  0  0  0  0
   16.0585  -24.4855    4.0338 C   0  0  0  0  0  0  0  0  0  0  0  0
   15.6330  -23.3953    3.5765 O   0  0  0  0  0  0  0  0  0  0  0  0
   18.7593  -31.4505    1.7624 N   0  0  0  0  0  0  0  0  0  0  0  0
   16.8181  -24.4170    5.2352 C   0  0  2  0  0  0  0  0  0  0  0  0
   16.9732  -23.2025    5.9992 C   0  0  0  0  0  0  0  0  0  0  0  0
   16.4206  -23.4315    7.3878 S   0  0  0  0  0  0  0  0  0  0  0  0
   14.6637  -23.7646    7.4058 C   0  0  0  0  0  0  0  0  0  0  0  0
   18.3899  -22.8009    6.1358 O   0  0  0  0  0  0  0  0  0  0  0  0
   19.2537  -23.6898    6.3100 N   0  0  0  0  0  0  0  0  0  0  0  0
   18.8138  -21.4522    6.0780 C   0  0  0  0  0  0  0  0  0  0  0  0
   20.2003  -21.0563    6.2328 C   0  0  0  0  0  0  0  0  0  0  0  0
   20.5077  -20.7741    7.6792 O   0  0  0  0  0  0  0  0  0  0  0  0
   21.7849  -20.3942    8.0649 O   0  0  0  0  0  0  0  0  0  0  0  0
  1  2  1  0
  2  3  2  0
  2  4  1  0
  5  4  1  0
  6  5  1  0
  7  8  1  0
  7  6  1  0
  8 10  1  0
  8  9  1  6
 10 11  2  0
 10 12  1  0
 12 13  1  0
 13 14  1  6
 13 16  1  0
 15 14  1  0
 16 17  2  0
 18 16  1  0
 18 19  1  0
 20 21  1  0
 20 19  1  0
 22 20  2  0
M  END
$$$$
