RCG.pdb
     RDKit          3D

 22 21  0  0  1  0  0  0  0  0999 V2000
   13.0878  -24.0202   -0.6562 N   0  0  0  0  0  0  0  0  0  0  0  0
   14.1995  -23.1499   -0.9344 C   0  0  0  0  0  0  0  0  0  0  0  0
   15.2311  -23.5976   -1.5574 N   0  0  0  0  0  0  0  0  0  0  0  0
   14.1869  -21.7868   -0.5319 N   0  0  0  0  0  0  0  0  0  0  0  0
   15.0344  -21.3099    0.5848 C   0  0  0  0  0  0  0  0  0  0  0  0
   14.3722  -21.8031    1.8203 C   0  0  0  0  0  0  0  0  0  0  0  0
   15.1041  -21.6460    3.1100 C   0  0  0  0  0  0  0  0  0  0  0  0
   15.4564  -20.2389    3.3856 C   0  0  2  0  0  0  0  0  0  0  0  0
   16.0517  -19.6406    2.2048 N   0  0  0  0  0  0  0  0  0  0  0  0
   16.4269  -20.1163    4.5354 C   0  0  0  0  0  0  0  0  0  0  0  0
   17.6642  -20.2610    4.3723 O   0  0  0  0  0  0  0  0  0  0  0  0
   16.0753  -23.0208   -1.7496 N   0  0  0  0  0  0  0  0  0  0  0  0
   15.9899  -19.8313    5.8594 C   0  0  1  0  0  0  0  0  0  0  0  0
   16.9002  -19.6025    6.9557 C   0  0  0  0  0  0  0  0  0  0  0  0
   16.4002  -18.4246    7.7610 S   0  0  0  0  0  0  0  0  0  0  0  0
   17.2195  -16.8881    7.3536 C   0  0  0  0  0  0  0  0  0  0  0  0
   16.9912  -20.7663    7.8636 O   0  0  0  0  0  0  0  0  0  0  0  0
   15.9358  -21.3409    8.2136 N   0  0  0  0  0  0  0  0  0  0  0  0
   18.2222  -21.2606    8.3558 C   0  0  0  0  0  0  0  0  0  0  0  0
   18.3223  -22.4674    9.1539 C   0  0  0  0  0  0  0  0  0  0  0  0
   18.4794  -23.6729    8.2661 O   0  0  0  0  0  0  0  0  0  0  0  0
   18.7258  -24.9227    8.8152 O   0  0  0  0  0  0  0  0  0  0  0  0
  1  2  1  0
  2  3  2  0
  2  4  1  0
  5  4  1  0
  6  5  1  0
  7  8  1  0
  7  6  1  0
  8 10  1  0
  8  9  1  6
 10 11  2  0
 10 12  1  0
 12 13  1  0
 13 14  1  1
 13 16  1  0
 15 14  1  0
 16 17  2  0
 18 16  1  0
 18 19  1  0
 20 21  1  0
 20 19  1  0
 22 20  2  0
M  END
$$$$
