RCG.pdb
     RDKit          3D

 22 21  0  0  1  0  0  0  0  0999 V2000
   20.9425  -20.5391  -15.1036 N   0  0  0  0  0  0  0  0  0  0  0  0
   20.4628  -21.4100  -14.0632 C   0  0  0  0  0  0  0  0  0  0  0  0
   19.2006  -21.5986  -13.9085 N   0  0  0  0  0  0  0  0  0  0  0  0
   21.3622  -22.0777  -13.1883 N   0  0  0  0  0  0  0  0  0  0  0  0
   22.8041  -22.1849  -13.5079 C   0  0  0  0  0  0  0  0  0  0  0  0
   23.4259  -20.9613  -12.9384 C   0  0  0  0  0  0  0  0  0  0  0  0
   24.5375  -21.1387  -11.9604 C   0  0  0  0  0  0  0  0  0  0  0  0
   25.8469  -21.2968  -12.6242 C   0  0  2  0  0  0  0  0  0  0  0  0
   26.8864  -21.4699  -11.6262 N   0  0  0  0  0  0  0  0  0  0  0  0
   26.1905  -20.1039  -13.4831 C   0  0  0  0  0  0  0  0  0  0  0  0
   26.5798  -19.0200  -12.9810 O   0  0  0  0  0  0  0  0  0  0  0  0
   18.8050  -22.2650  -13.2144 N   0  0  0  0  0  0  0  0  0  0  0  0
   26.0910  -20.1471  -14.9020 C   0  0  2  0  0  0  0  0  0  0  0  0
   26.3542  -19.0047  -15.7438 C   0  0  0  0  0  0  0  0  0  0  0  0
   27.6744  -19.2183  -16.4491 S   0  0  0  0  0  0  0  0  0  0  0  0
   28.1259  -17.8693  -17.5327 C   0  0  0  0  0  0  0  0  0  0  0  0
   25.3136  -18.8157  -16.7774 O   0  0  0  0  0  0  0  0  0  0  0  0
   24.9179  -19.8125  -17.4227 N   0  0  0  0  0  0  0  0  0  0  0  0
   24.7435  -17.5543  -17.0702 C   0  0  0  0  0  0  0  0  0  0  0  0
   23.7993  -17.3500  -18.1519 C   0  0  0  0  0  0  0  0  0  0  0  0
   23.3860  -15.9042  -18.2224 O   0  0  0  0  0  0  0  0  0  0  0  0
   23.9345  -14.9734  -17.3523 O   0  0  0  0  0  0  0  0  0  0  0  0
  1  2  1  0
  2  3  2  0
  2  4  1  0
  5  4  1  0
  6  5  1  0
  7  8  1  0
  7  6  1  0
  8 10  1  0
  8  9  1  1
 10 11  2  0
 10 12  1  0
 12 13  1  0
 13 14  1  6
 13 16  1  0
 15 14  1  0
 16 17  2  0
 18 16  1  0
 18 19  1  0
 20 21  1  0
 20 19  1  0
 22 20  2  0
M  END
$$$$
