RCG.pdb
     RDKit          3D

 22 21  0  0  1  0  0  0  0  0999 V2000
   17.3571  -12.7092  -15.6101 N   0  0  0  0  0  0  0  0  0  0  0  0
   17.5978  -13.7300  -16.5954 C   0  0  0  0  0  0  0  0  0  0  0  0
   16.7169  -14.6411  -16.8111 N   0  0  0  0  0  0  0  0  0  0  0  0
   18.8030  -13.7578  -17.3483 N   0  0  0  0  0  0  0  0  0  0  0  0
   19.8621  -12.7449  -17.1365 C   0  0  0  0  0  0  0  0  0  0  0  0
   20.9388  -13.0935  -18.0996 C   0  0  0  0  0  0  0  0  0  0  0  0
   22.0664  -12.1306  -18.2583 C   0  0  0  0  0  0  0  0  0  0  0  0
   23.2441  -12.5105  -17.4529 C   0  0  2  0  0  0  0  0  0  0  0  0
   22.9902  -13.7673  -16.7729 N   0  0  0  0  0  0  0  0  0  0  0  0
   23.5848  -11.4602  -16.4235 C   0  0  0  0  0  0  0  0  0  0  0  0
   23.0757  -11.4730  -15.2749 O   0  0  0  0  0  0  0  0  0  0  0  0
   16.8421  -15.4002  -17.5114 N   0  0  0  0  0  0  0  0  0  0  0  0
   24.4978  -10.4047  -16.7017 C   0  0  1  0  0  0  0  0  0  0  0  0
   24.8728   -9.4113  -15.7242 C   0  0  0  0  0  0  0  0  0  0  0  0
   26.3792   -9.2817  -15.7206 S   0  0  0  0  0  0  0  0  0  0  0  0
   27.2152  -10.7431  -15.1179 C   0  0  0  0  0  0  0  0  0  0  0  0
   24.3041   -8.0804  -16.0279 O   0  0  0  0  0  0  0  0  0  0  0  0
   24.1727   -7.7409  -17.2254 N   0  0  0  0  0  0  0  0  0  0  0  0
   23.9007   -7.1709  -15.0220 C   0  0  0  0  0  0  0  0  0  0  0  0
   23.2159   -5.9267  -15.3154 C   0  0  0  0  0  0  0  0  0  0  0  0
   21.7827   -5.9958  -14.8599 O   0  0  0  0  0  0  0  0  0  0  0  0
   20.9845   -4.8615  -14.8774 O   0  0  0  0  0  0  0  0  0  0  0  0
  1  2  1  0
  2  3  2  0
  2  4  1  0
  5  4  1  0
  6  5  1  0
  7  8  1  0
  7  6  1  0
  8 10  1  0
  8  9  1  1
 10 11  2  0
 10 12  1  0
 12 13  1  0
 13 14  1  1
 13 16  1  0
 15 14  1  0
 16 17  2  0
 18 16  1  0
 18 19  1  0
 20 21  1  0
 20 19  1  0
 22 20  2  0
M  END
$$$$
