RCG.pdb
     RDKit          3D

 22 21  0  0  1  0  0  0  0  0999 V2000
   25.2781  -22.4941  -11.9479 N   0  0  0  0  0  0  0  0  0  0  0  0
   25.1800  -21.2612  -11.2122 C   0  0  0  0  0  0  0  0  0  0  0  0
   26.1383  -20.8916  -10.4390 N   0  0  0  0  0  0  0  0  0  0  0  0
   24.0333  -20.4283  -11.3196 N   0  0  0  0  0  0  0  0  0  0  0  0
   22.8924  -20.8035  -12.1857 C   0  0  0  0  0  0  0  0  0  0  0  0
   23.3909  -20.6595  -13.5782 C   0  0  0  0  0  0  0  0  0  0  0  0
   22.4149  -20.2401  -14.6248 C   0  0  0  0  0  0  0  0  0  0  0  0
   22.7166  -18.9001  -15.1664 C   0  0  2  0  0  0  0  0  0  0  0  0
   21.7621  -18.5639  -16.2068 N   0  0  0  0  0  0  0  0  0  0  0  0
   24.1102  -18.8262  -15.7420 C   0  0  0  0  0  0  0  0  0  0  0  0
   24.3680  -19.2386  -16.9005 O   0  0  0  0  0  0  0  0  0  0  0  0
   26.1281  -19.9980   -9.9064 N   0  0  0  0  0  0  0  0  0  0  0  0
   25.2000  -18.2867  -15.0029 C   0  0  2  0  0  0  0  0  0  0  0  0
   26.5359  -18.1777  -15.5382 C   0  0  0  0  0  0  0  0  0  0  0  0
   27.2165  -16.9880  -14.8999 S   0  0  0  0  0  0  0  0  0  0  0  0
   26.4375  -15.4281  -15.2971 C   0  0  0  0  0  0  0  0  0  0  0  0
   27.3554  -19.3753  -15.2535 O   0  0  0  0  0  0  0  0  0  0  0  0
   27.4454  -19.7762  -14.0712 N   0  0  0  0  0  0  0  0  0  0  0  0
   28.0445  -20.0904  -16.2612 C   0  0  0  0  0  0  0  0  0  0  0  0
   28.8908  -21.2331  -15.9759 C   0  0  0  0  0  0  0  0  0  0  0  0
   28.4593  -22.4230  -16.7908 O   0  0  0  0  0  0  0  0  0  0  0  0
   29.2074  -23.5911  -16.7792 O   0  0  0  0  0  0  0  0  0  0  0  0
  1  2  1  0
  2  3  2  0
  2  4  1  0
  5  4  1  0
  6  5  1  0
  7  8  1  0
  7  6  1  0
  8 10  1  0
  8  9  1  6
 10 11  2  0
 10 12  1  0
 12 13  1  0
 13 14  1  1
 13 16  1  0
 15 14  1  0
 16 17  2  0
 18 16  1  0
 18 19  1  0
 20 21  1  0
 20 19  1  0
 22 20  2  0
M  END
$$$$
