RCG.pdb
     RDKit          3D

 22 21  0  0  1  0  0  0  0  0999 V2000
   20.4015  -23.3610  -14.6094 N   0  0  0  0  0  0  0  0  0  0  0  0
   19.9965  -22.2692  -13.7640 C   0  0  0  0  0  0  0  0  0  0  0  0
   19.0034  -22.4082  -12.9595 N   0  0  0  0  0  0  0  0  0  0  0  0
   20.6763  -21.0214  -13.7956 N   0  0  0  0  0  0  0  0  0  0  0  0
   22.1388  -20.9401  -13.5785 C   0  0  0  0  0  0  0  0  0  0  0  0
   22.3252  -21.0443  -12.1079 C   0  0  0  0  0  0  0  0  0  0  0  0
   23.7122  -20.9232  -11.5739 C   0  0  0  0  0  0  0  0  0  0  0  0
   24.7176  -21.4911  -12.4941 C   0  0  2  0  0  0  0  0  0  0  0  0
   25.1877  -22.7656  -11.9829 N   0  0  0  0  0  0  0  0  0  0  0  0
   25.9015  -20.5714  -12.6718 C   0  0  0  0  0  0  0  0  0  0  0  0
   25.7594  -19.3283  -12.7864 O   0  0  0  0  0  0  0  0  0  0  0  0
   18.7011  -21.6676  -12.2944 N   0  0  0  0  0  0  0  0  0  0  0  0
   27.2353  -21.0651  -12.7183 C   0  0  1  0  0  0  0  0  0  0  0  0
   28.3715  -20.2324  -13.0321 C   0  0  0  0  0  0  0  0  0  0  0  0
   29.5817  -20.7719  -12.3039 S   0  0  0  0  0  0  0  0  0  0  0  0
   29.3437  -20.9075  -10.5367 C   0  0  0  0  0  0  0  0  0  0  0  0
   28.6797  -20.2231  -14.4785 O   0  0  0  0  0  0  0  0  0  0  0  0
   28.7075  -21.3118  -15.0952 N   0  0  0  0  0  0  0  0  0  0  0  0
   28.9455  -19.0344  -15.1984 C   0  0  0  0  0  0  0  0  0  0  0  0
   29.2169  -19.0218  -16.6230 C   0  0  0  0  0  0  0  0  0  0  0  0
   27.9590  -18.7245  -17.3948 O   0  0  0  0  0  0  0  0  0  0  0  0
   26.9581  -19.6790  -17.5017 O   0  0  0  0  0  0  0  0  0  0  0  0
  1  2  1  0
  2  3  2  0
  2  4  1  0
  5  4  1  0
  6  5  1  0
  7  8  1  0
  7  6  1  0
  8 10  1  0
  8  9  1  1
 10 11  2  0
 10 12  1  0
 12 13  1  0
 13 14  1  6
 13 16  1  0
 15 14  1  0
 16 17  2  0
 18 16  1  0
 18 19  1  0
 20 21  1  0
 20 19  1  0
 22 20  2  0
M  END
$$$$
