RCG.pdb
     RDKit          3D

 22 21  0  0  1  0  0  0  0  0999 V2000
   19.5429  -23.5771  -13.3118 N   0  0  0  0  0  0  0  0  0  0  0  0
   19.0257  -22.3228  -12.8321 C   0  0  0  0  0  0  0  0  0  0  0  0
   17.9663  -21.8173  -13.3563 N   0  0  0  0  0  0  0  0  0  0  0  0
   19.6656  -21.6170  -11.7774 N   0  0  0  0  0  0  0  0  0  0  0  0
   21.1153  -21.7741  -11.5195 C   0  0  0  0  0  0  0  0  0  0  0  0
   21.7098  -20.4385  -11.7861 C   0  0  0  0  0  0  0  0  0  0  0  0
   22.6980  -19.9099  -10.8025 C   0  0  0  0  0  0  0  0  0  0  0  0
   23.8254  -20.8389  -10.5877 C   0  0  2  0  0  0  0  0  0  0  0  0
   23.9215  -21.1785   -9.1799 N   0  0  0  0  0  0  0  0  0  0  0  0
   25.1385  -20.2438  -11.0356 C   0  0  0  0  0  0  0  0  0  0  0  0
   25.7599  -19.4107  -10.3296 O   0  0  0  0  0  0  0  0  0  0  0  0
   17.5586  -20.9092  -13.0538 N   0  0  0  0  0  0  0  0  0  0  0  0
   25.7373  -20.5956  -12.2777 C   0  0  2  0  0  0  0  0  0  0  0  0
   26.9341  -19.9648  -12.7803 C   0  0  0  0  0  0  0  0  0  0  0  0
   28.0071  -21.0186  -12.9350 S   0  0  0  0  0  0  0  0  0  0  0  0
   28.7050  -21.5538  -11.3779 C   0  0  0  0  0  0  0  0  0  0  0  0
   26.7250  -19.3335  -14.1012 O   0  0  0  0  0  0  0  0  0  0  0  0
   25.8366  -19.7925  -14.8540 N   0  0  0  0  0  0  0  0  0  0  0  0
   27.4868  -18.2303  -14.5534 C   0  0  0  0  0  0  0  0  0  0  0  0
   27.1827  -17.5130  -15.7766 C   0  0  0  0  0  0  0  0  0  0  0  0
   27.7724  -18.2259  -16.9641 O   0  0  0  0  0  0  0  0  0  0  0  0
   27.7159  -17.6536  -18.2264 O   0  0  0  0  0  0  0  0  0  0  0  0
  1  2  1  0
  2  3  2  0
  2  4  1  0
  5  4  1  0
  6  5  1  0
  7  8  1  0
  7  6  1  0
  8 10  1  0
  8  9  1  1
 10 11  2  0
 10 12  1  0
 12 13  1  0
 13 14  1  1
 13 16  1  0
 15 14  1  0
 16 17  2  0
 18 16  1  0
 18 19  1  0
 20 21  1  0
 20 19  1  0
 22 20  2  0
M  END
$$$$
