RCG.pdb
     RDKit          3D

 22 21  0  0  1  0  0  0  0  0999 V2000
   31.1816  -25.2500  -15.5583 N   0  0  0  0  0  0  0  0  0  0  0  0
   30.5625  -25.3631  -16.8525 C   0  0  0  0  0  0  0  0  0  0  0  0
   30.4038  -26.5178  -17.3947 N   0  0  0  0  0  0  0  0  0  0  0  0
   30.1149  -24.2133  -17.5580 N   0  0  0  0  0  0  0  0  0  0  0  0
   29.9768  -22.9041  -16.8802 C   0  0  0  0  0  0  0  0  0  0  0  0
   28.6154  -22.9106  -16.2845 C   0  0  0  0  0  0  0  0  0  0  0  0
   27.6477  -21.8776  -16.7537 C   0  0  0  0  0  0  0  0  0  0  0  0
   27.3928  -20.8440  -15.7306 C   0  0  2  0  0  0  0  0  0  0  0  0
   28.6527  -20.3120  -15.2444 N   0  0  0  0  0  0  0  0  0  0  0  0
   26.6112  -21.3906  -14.5605 C   0  0  0  0  0  0  0  0  0  0  0  0
   26.4206  -22.6237  -14.4131 O   0  0  0  0  0  0  0  0  0  0  0  0
   30.0191  -26.6494  -18.3524 N   0  0  0  0  0  0  0  0  0  0  0  0
   26.0519  -20.5384  -13.5676 C   0  0  1  0  0  0  0  0  0  0  0  0
   25.1694  -21.0142  -12.5294 C   0  0  0  0  0  0  0  0  0  0  0  0
   25.7267  -20.5898  -11.1896 S   0  0  0  0  0  0  0  0  0  0  0  0
   24.7232  -21.1151   -9.8057 C   0  0  0  0  0  0  0  0  0  0  0  0
   23.8055  -20.4553  -12.6506 O   0  0  0  0  0  0  0  0  0  0  0  0
   23.6700  -19.2156  -12.7561 N   0  0  0  0  0  0  0  0  0  0  0  0
   22.6434  -21.2623  -12.6526 C   0  0  0  0  0  0  0  0  0  0  0  0
   21.3076  -20.7171  -12.8004 C   0  0  0  0  0  0  0  0  0  0  0  0
   20.4842  -21.0045  -11.5734 O   0  0  0  0  0  0  0  0  0  0  0  0
   19.3134  -20.3007  -11.3322 O   0  0  0  0  0  0  0  0  0  0  0  0
  1  2  1  0
  2  3  2  0
  2  4  1  0
  5  4  1  0
  6  5  1  0
  7  8  1  0
  7  6  1  0
  8 10  1  0
  8  9  1  1
 10 11  2  0
 10 12  1  0
 12 13  1  0
 13 14  1  6
 13 16  1  0
 15 14  1  0
 16 17  2  0
 18 16  1  0
 18 19  1  0
 20 21  1  0
 20 19  1  0
 22 20  2  0
M  END
$$$$
