RCG.pdb
     RDKit          3D

 22 21  0  0  1  0  0  0  0  0999 V2000
   21.6475  -24.6579  -17.1041 N   0  0  0  0  0  0  0  0  0  0  0  0
   20.4184  -24.1889  -16.5208 C   0  0  0  0  0  0  0  0  0  0  0  0
   19.3492  -24.1226  -17.2316 N   0  0  0  0  0  0  0  0  0  0  0  0
   20.3544  -23.7905  -15.1580 N   0  0  0  0  0  0  0  0  0  0  0  0
   19.5244  -22.6398  -14.7343 C   0  0  0  0  0  0  0  0  0  0  0  0
   20.4231  -21.4585  -14.8053 C   0  0  0  0  0  0  0  0  0  0  0  0
   21.8118  -21.6108  -14.2837 C   0  0  0  0  0  0  0  0  0  0  0  0
   21.9294  -21.1888  -12.8737 C   0  0  2  0  0  0  0  0  0  0  0  0
   20.8261  -20.3107  -12.5296 N   0  0  0  0  0  0  0  0  0  0  0  0
   23.2278  -20.4658  -12.6088 C   0  0  0  0  0  0  0  0  0  0  0  0
   23.4317  -19.3002  -13.0312 O   0  0  0  0  0  0  0  0  0  0  0  0
   18.4610  -23.7046  -16.8871 N   0  0  0  0  0  0  0  0  0  0  0  0
   24.2843  -21.0670  -11.8688 C   0  0  1  0  0  0  0  0  0  0  0  0
   25.5693  -20.4378  -11.6800 C   0  0  0  0  0  0  0  0  0  0  0  0
   26.1924  -20.9819  -10.4145 S   0  0  0  0  0  0  0  0  0  0  0  0
   25.1922  -20.7085   -8.9574 C   0  0  0  0  0  0  0  0  0  0  0  0
   26.4992  -20.7114  -12.7969 O   0  0  0  0  0  0  0  0  0  0  0  0
   26.4666  -21.8358  -13.3458 N   0  0  0  0  0  0  0  0  0  0  0  0
   27.4269  -19.7557  -13.2742 C   0  0  0  0  0  0  0  0  0  0  0  0
   28.3025  -20.0052  -14.4031 C   0  0  0  0  0  0  0  0  0  0  0  0
   27.6252  -19.6149  -15.6896 O   0  0  0  0  0  0  0  0  0  0  0  0
   28.3717  -19.1612  -16.7672 O   0  0  0  0  0  0  0  0  0  0  0  0
  1  2  1  0
  2  3  2  0
  2  4  1  0
  5  4  1  0
  6  5  1  0
  7  8  1  0
  7  6  1  0
  8 10  1  0
  8  9  1  6
 10 11  2  0
 10 12  1  0
 12 13  1  0
 13 14  1  1
 13 16  1  0
 15 14  1  0
 16 17  2  0
 18 16  1  0
 18 19  1  0
 20 21  1  0
 20 19  1  0
 22 20  2  0
M  END
$$$$
