RCG.pdb
     RDKit          3D

 22 21  0  0  1  0  0  0  0  0999 V2000
   19.8340  -21.2282   -7.4503 N   0  0  0  0  0  0  0  0  0  0  0  0
   20.6418  -22.3160   -7.9350 C   0  0  0  0  0  0  0  0  0  0  0  0
   20.0897  -23.4159   -8.3068 N   0  0  0  0  0  0  0  0  0  0  0  0
   22.0565  -22.2046   -8.0146 N   0  0  0  0  0  0  0  0  0  0  0  0
   22.7230  -20.8825   -7.9975 C   0  0  0  0  0  0  0  0  0  0  0  0
   24.1653  -21.1655   -8.2169 C   0  0  0  0  0  0  0  0  0  0  0  0
   24.8794  -20.3660   -9.2534 C   0  0  0  0  0  0  0  0  0  0  0  0
   24.9159  -21.0504  -10.5612 C   0  0  2  0  0  0  0  0  0  0  0  0
   25.3728  -22.4172  -10.3884 N   0  0  0  0  0  0  0  0  0  0  0  0
   25.8308  -20.3511  -11.5374 C   0  0  0  0  0  0  0  0  0  0  0  0
   25.5869  -19.1916  -11.9551 O   0  0  0  0  0  0  0  0  0  0  0  0
   20.6282  -24.2318   -8.6627 N   0  0  0  0  0  0  0  0  0  0  0  0
   27.0132  -20.9690  -12.0327 C   0  0  2  0  0  0  0  0  0  0  0  0
   27.8638  -20.3568  -13.0249 C   0  0  0  0  0  0  0  0  0  0  0  0
   29.2779  -20.8510  -12.8202 S   0  0  0  0  0  0  0  0  0  0  0  0
   29.9715  -20.3811  -11.2403 C   0  0  0  0  0  0  0  0  0  0  0  0
   27.4580  -20.7026  -14.4044 O   0  0  0  0  0  0  0  0  0  0  0  0
   26.7872  -21.7425  -14.5918 N   0  0  0  0  0  0  0  0  0  0  0  0
   27.7955  -19.9077  -15.5252 C   0  0  0  0  0  0  0  0  0  0  0  0
   26.8015  -19.3535  -16.4241 C   0  0  0  0  0  0  0  0  0  0  0  0
   27.4640  -18.5328  -17.4982 O   0  0  0  0  0  0  0  0  0  0  0  0
   27.2910  -18.8555  -18.8362 O   0  0  0  0  0  0  0  0  0  0  0  0
  1  2  1  0
  2  3  2  0
  2  4  1  0
  5  4  1  0
  6  5  1  0
  7  8  1  0
  7  6  1  0
  8 10  1  0
  8  9  1  1
 10 11  2  0
 10 12  1  0
 12 13  1  0
 13 14  1  1
 13 16  1  0
 15 14  1  0
 16 17  2  0
 18 16  1  0
 18 19  1  0
 20 21  1  0
 20 19  1  0
 22 20  2  0
M  END
$$$$
