RCG.pdb
     RDKit          3D

 22 21  0  0  1  0  0  0  0  0999 V2000
   25.9466  -22.0608  -18.9433 N   0  0  0  0  0  0  0  0  0  0  0  0
   25.0119  -22.2565  -17.8668 C   0  0  0  0  0  0  0  0  0  0  0  0
   23.7484  -22.1552  -18.0810 N   0  0  0  0  0  0  0  0  0  0  0  0
   25.4561  -22.5637  -16.5521 N   0  0  0  0  0  0  0  0  0  0  0  0
   26.8921  -22.7734  -16.2580 C   0  0  0  0  0  0  0  0  0  0  0  0
   27.4025  -21.4479  -15.8213 C   0  0  0  0  0  0  0  0  0  0  0  0
   27.8508  -21.3089  -14.4060 C   0  0  0  0  0  0  0  0  0  0  0  0
   26.9301  -20.4762  -13.6065 C   0  0  2  0  0  0  0  0  0  0  0  0
   27.5188  -19.1687  -13.3822 N   0  0  0  0  0  0  0  0  0  0  0  0
   26.6183  -21.1055  -12.2703 C   0  0  0  0  0  0  0  0  0  0  0  0
   26.2022  -22.2875  -12.1790 O   0  0  0  0  0  0  0  0  0  0  0  0
   23.0309  -22.3209  -17.3461 N   0  0  0  0  0  0  0  0  0  0  0  0
   26.7795  -20.3929  -11.0491 C   0  0  1  0  0  0  0  0  0  0  0  0
   26.1211  -20.7749   -9.8229 C   0  0  0  0  0  0  0  0  0  0  0  0
   26.7889  -20.0570   -8.6720 S   0  0  0  0  0  0  0  0  0  0  0  0
   28.0812  -21.0160   -7.8921 C   0  0  0  0  0  0  0  0  0  0  0  0
   24.6884  -20.4082   -9.8158 O   0  0  0  0  0  0  0  0  0  0  0  0
   24.3475  -19.3027  -10.2937 N   0  0  0  0  0  0  0  0  0  0  0  0
   23.6828  -21.2540   -9.2913 C   0  0  0  0  0  0  0  0  0  0  0  0
   22.2916  -20.8556   -9.1949 C   0  0  0  0  0  0  0  0  0  0  0  0
   21.6218  -20.9571  -10.5392 O   0  0  0  0  0  0  0  0  0  0  0  0
   20.2840  -20.6202  -10.6849 O   0  0  0  0  0  0  0  0  0  0  0  0
  1  2  1  0
  2  3  2  0
  2  4  1  0
  5  4  1  0
  6  5  1  0
  7  8  1  0
  7  6  1  0
  8 10  1  0
  8  9  1  1
 10 11  2  0
 10 12  1  0
 12 13  1  0
 13 14  1  1
 13 16  1  0
 15 14  1  0
 16 17  2  0
 18 16  1  0
 18 19  1  0
 20 21  1  0
 20 19  1  0
 22 20  2  0
M  END
$$$$
