YSY.pdb
     RDKit          3D

 31 32  0  0  1  0  0  0  0  0999 V2000
   23.3208  -23.9126  -21.3329 O   0  0  0  0  0  0  0  0  0  0  0  0
   23.2525  -25.0742  -20.5805 C   0  0  0  0  0  0  0  0  0  0  0  0
   22.1004  -25.8295  -20.6683 C   0  0  0  0  0  0  0  0  0  0  0  0
   21.9903  -26.9921  -19.9370 C   0  0  0  0  0  0  0  0  0  0  0  0
   23.0139  -27.4387  -19.1009 C   0  0  0  0  0  0  0  0  0  0  0  0
   22.8847  -28.6924  -18.3179 C   0  0  0  0  0  0  0  0  0  0  0  0
   23.5921  -29.8032  -19.0735 C   0  0  2  0  0  0  0  0  0  0  0  0
   22.7792  -30.1192  -20.2301 N   0  0  0  0  0  0  0  0  0  0  0  0
   23.7959  -30.9959  -18.2070 C   0  0  0  0  0  0  0  0  0  0  0  0
   22.8372  -31.6885  -17.7830 O   0  0  0  0  0  0  0  0  0  0  0  0
   24.1391  -26.6413  -19.0557 C   0  0  0  0  0  0  0  0  0  0  0  0
   24.2780  -25.4867  -19.7665 C   0  0  0  0  0  0  0  0  0  0  0  0
   27.1398  -33.6315  -15.8955 O   0  0  0  0  0  0  0  0  0  0  0  0
   26.8932  -32.5404  -16.7555 C   0  0  0  0  0  0  0  0  0  0  0  0
   25.3877  -32.4697  -16.9123 C   0  0  2  0  0  0  0  0  0  0  0  0
   25.0991  -31.3945  -17.8265 N   0  0  0  0  0  0  0  0  0  0  0  0
   24.8082  -32.2504  -15.5678 C   0  0  0  0  0  0  0  0  0  0  0  0
   24.8097  -31.1327  -14.9980 O   0  0  0  0  0  0  0  0  0  0  0  0
   20.0389  -32.2478   -8.4335 O   0  0  0  0  0  0  0  0  0  0  0  0
   20.6005  -32.3183   -9.7049 C   0  0  0  0  0  0  0  0  0  0  0  0
   21.6282  -31.4479   -9.9975 C   0  0  0  0  0  0  0  0  0  0  0  0
   22.2062  -31.4983  -11.2607 C   0  0  0  0  0  0  0  0  0  0  0  0
   21.7883  -32.3843  -12.2245 C   0  0  0  0  0  0  0  0  0  0  0  0
   22.4405  -32.4033  -13.5725 C   0  0  0  0  0  0  0  0  0  0  0  0
   23.6882  -33.2633  -13.5564 C   0  0  2  0  0  0  0  0  0  0  0  0
   24.2266  -33.3567  -14.8984 N   0  0  0  0  0  0  0  0  0  0  0  0
   23.2467  -34.6215  -13.0884 C   0  0  0  0  0  0  0  0  0  0  0  0
   22.6777  -35.3920  -13.9149 O   0  0  0  0  0  0  0  0  0  0  0  0
   20.7568  -33.2463  -11.9072 C   0  0  0  0  0  0  0  0  0  0  0  0
   20.1667  -33.2135  -10.6553 C   0  0  0  0  0  0  0  0  0  0  0  0
   23.4342  -35.0593  -11.8067 O   0  0  0  0  0  0  0  0  0  0  0  0
  2 12  2  0
  2  1  1  0
  3  2  1  0
  4  5  1  0
  4  3  2  0
  5 11  2  0
  6  5  1  0
  7  6  1  0
  7  8  1  6
  9  7  1  0
 10  9  2  0
 11 12  1  0
 13 14  1  0
 15 14  1  1
 15 16  1  0
 16  9  1  0
 17 15  1  0
 17 18  2  0
 20 19  1  0
 21 20  2  0
 22 21  1  0
 23 29  1  0
 23 22  2  0
 24 23  1  0
 25 26  1  0
 25 24  1  6
 26 17  1  0
 27 25  1  0
 28 27  2  0
 29 30  2  0
 30 20  1  0
 31 27  1  0
M  END
$$$$
