YSY.pdb
     RDKit          3D

 31 32  0  0  1  0  0  0  0  0999 V2000
   27.2096  -17.0628  -15.6116 O   0  0  0  0  0  0  0  0  0  0  0  0
   26.4531  -15.9306  -15.8681 C   0  0  0  0  0  0  0  0  0  0  0  0
   25.9871  -15.7472  -17.1545 C   0  0  0  0  0  0  0  0  0  0  0  0
   25.2309  -14.6349  -17.4534 C   0  0  0  0  0  0  0  0  0  0  0  0
   24.9153  -13.6757  -16.4907 C   0  0  0  0  0  0  0  0  0  0  0  0
   24.0999  -12.4815  -16.8235 C   0  0  0  0  0  0  0  0  0  0  0  0
   22.6989  -12.6917  -16.2778 C   0  0  2  0  0  0  0  0  0  0  0  0
   22.1630  -13.8752  -16.9186 N   0  0  0  0  0  0  0  0  0  0  0  0
   21.8420  -11.5006  -16.5267 C   0  0  0  0  0  0  0  0  0  0  0  0
   20.9683  -11.4799  -17.4293 O   0  0  0  0  0  0  0  0  0  0  0  0
   25.4093  -13.9148  -15.2247 C   0  0  0  0  0  0  0  0  0  0  0  0
   26.1596  -15.0047  -14.8981 C   0  0  0  0  0  0  0  0  0  0  0  0
   19.8587   -9.9547  -14.1552 O   0  0  0  0  0  0  0  0  0  0  0  0
   19.7725   -9.4909  -15.4850 C   0  0  0  0  0  0  0  0  0  0  0  0
   21.1895   -9.1434  -15.8943 C   0  0  2  0  0  0  0  0  0  0  0  0
   21.9870  -10.3332  -15.7406 N   0  0  0  0  0  0  0  0  0  0  0  0
   21.6449   -8.0321  -15.0288 C   0  0  0  0  0  0  0  0  0  0  0  0
   22.2505   -8.2149  -13.9454 O   0  0  0  0  0  0  0  0  0  0  0  0
   26.0497   -6.9650  -19.5444 O   0  0  0  0  0  0  0  0  0  0  0  0
   25.1942   -6.3669  -18.6240 C   0  0  0  0  0  0  0  0  0  0  0  0
   23.8479   -6.3546  -18.9186 C   0  0  0  0  0  0  0  0  0  0  0  0
   22.9724   -5.7631  -18.0153 C   0  0  0  0  0  0  0  0  0  0  0  0
   23.4032   -5.1920  -16.8420 C   0  0  0  0  0  0  0  0  0  0  0  0
   22.4239   -4.5657  -15.8978 C   0  0  0  0  0  0  0  0  0  0  0  0
   22.0020   -5.5506  -14.8260 C   0  0  2  0  0  0  0  0  0  0  0  0
   21.3822   -6.7033  -15.4478 N   0  0  0  0  0  0  0  0  0  0  0  0
   20.9962   -4.8279  -13.9749 C   0  0  0  0  0  0  0  0  0  0  0  0
   19.7717   -5.1171  -14.1061 O   0  0  0  0  0  0  0  0  0  0  0  0
   24.7571   -5.2168  -16.5692 C   0  0  0  0  0  0  0  0  0  0  0  0
   25.6469   -5.8006  -17.4547 C   0  0  0  0  0  0  0  0  0  0  0  0
   21.3493   -3.8707  -13.0645 O   0  0  0  0  0  0  0  0  0  0  0  0
  2 12  2  0
  2  1  1  0
  3  2  1  0
  4  5  1  0
  4  3  2  0
  5 11  2  0
  6  5  1  0
  7  6  1  0
  7  8  1  6
  9  7  1  0
 10  9  2  0
 11 12  1  0
 13 14  1  0
 15 14  1  1
 15 16  1  0
 16  9  1  0
 17 15  1  0
 17 18  2  0
 20 19  1  0
 21 20  2  0
 22 21  1  0
 23 29  1  0
 23 22  2  0
 24 23  1  0
 25 26  1  0
 25 24  1  6
 26 17  1  0
 27 25  1  0
 28 27  2  0
 29 30  2  0
 30 20  1  0
 31 27  1  0
M  END
$$$$
