YSY.pdb
     RDKit          3D

 31 32  0  0  1  0  0  0  0  0999 V2000
   22.5548  -20.0348  -26.5102 O   0  0  0  0  0  0  0  0  0  0  0  0
   22.5249  -20.2088  -25.1358 C   0  0  0  0  0  0  0  0  0  0  0  0
   22.3603  -19.0862  -24.3495 C   0  0  0  0  0  0  0  0  0  0  0  0
   22.3249  -19.2138  -22.9780 C   0  0  0  0  0  0  0  0  0  0  0  0
   22.4512  -20.4520  -22.3479 C   0  0  0  0  0  0  0  0  0  0  0  0
   22.4116  -20.5780  -20.8699 C   0  0  0  0  0  0  0  0  0  0  0  0
   23.7403  -20.0987  -20.3133 C   0  0  2  0  0  0  0  0  0  0  0  0
   24.7322  -21.0985  -20.6525 N   0  0  0  0  0  0  0  0  0  0  0  0
   23.6603  -19.8859  -18.8426 C   0  0  0  0  0  0  0  0  0  0  0  0
   24.1105  -20.7209  -18.0187 O   0  0  0  0  0  0  0  0  0  0  0  0
   22.6131  -21.5356  -23.1868 C   0  0  0  0  0  0  0  0  0  0  0  0
   22.6521  -21.4418  -24.5458 C   0  0  0  0  0  0  0  0  0  0  0  0
   21.6701  -16.5669  -17.5015 O   0  0  0  0  0  0  0  0  0  0  0  0
   22.8499  -16.8909  -16.7987 C   0  0  0  0  0  0  0  0  0  0  0  0
   22.9997  -18.3944  -16.9135 C   0  0  2  0  0  0  0  0  0  0  0  0
   23.0640  -18.7157  -18.3163 N   0  0  0  0  0  0  0  0  0  0  0  0
   21.8372  -19.0123  -16.2365 C   0  0  0  0  0  0  0  0  0  0  0  0
   20.8192  -19.4082  -16.8535 O   0  0  0  0  0  0  0  0  0  0  0  0
   17.1872  -22.3984   -9.5267 O   0  0  0  0  0  0  0  0  0  0  0  0
   18.1726  -21.7791  -10.2898 C   0  0  0  0  0  0  0  0  0  0  0  0
   18.1730  -20.4017  -10.3349 C   0  0  0  0  0  0  0  0  0  0  0  0
   19.1470  -19.7589  -11.0902 C   0  0  0  0  0  0  0  0  0  0  0  0
   20.1066  -20.4491  -11.7911 C   0  0  0  0  0  0  0  0  0  0  0  0
   21.1373  -19.7147  -12.5919 C   0  0  0  0  0  0  0  0  0  0  0  0
   20.7895  -19.7343  -14.0669 C   0  0  2  0  0  0  0  0  0  0  0  0
   21.8816  -19.1610  -14.8272 N   0  0  0  0  0  0  0  0  0  0  0  0
   19.5625  -18.8790  -14.2125 C   0  0  0  0  0  0  0  0  0  0  0  0
   19.7037  -17.6240  -14.2864 O   0  0  0  0  0  0  0  0  0  0  0  0
   20.0854  -21.8289  -11.7302 C   0  0  0  0  0  0  0  0  0  0  0  0
   19.1244  -22.4896  -10.9841 C   0  0  0  0  0  0  0  0  0  0  0  0
   18.2996  -19.4004  -14.2684 O   0  0  0  0  0  0  0  0  0  0  0  0
  2 12  2  0
  2  1  1  0
  3  2  1  0
  4  5  1  0
  4  3  2  0
  5 11  2  0
  6  5  1  0
  7  6  1  0
  7  8  1  1
  9  7  1  0
 10  9  2  0
 11 12  1  0
 13 14  1  0
 15 14  1  6
 15 16  1  0
 16  9  1  0
 17 15  1  0
 17 18  2  0
 20 19  1  0
 21 20  2  0
 22 21  1  0
 23 29  1  0
 23 22  2  0
 24 23  1  0
 25 26  1  0
 25 24  1  1
 26 17  1  0
 27 25  1  0
 28 27  2  0
 29 30  2  0
 30 20  1  0
 31 27  1  0
M  END
$$$$
