YSY.pdb
     RDKit          3D

 31 32  0  0  1  0  0  0  0  0999 V2000
   23.0253  -15.6777  -22.4268 O   0  0  0  0  0  0  0  0  0  0  0  0
   22.3420  -14.7491  -21.6581 C   0  0  0  0  0  0  0  0  0  0  0  0
   23.0557  -13.6774  -21.1605 C   0  0  0  0  0  0  0  0  0  0  0  0
   22.4155  -12.7303  -20.3913 C   0  0  0  0  0  0  0  0  0  0  0  0
   21.0553  -12.8167  -20.0937 C   0  0  0  0  0  0  0  0  0  0  0  0
   20.3758  -11.7910  -19.2643 C   0  0  0  0  0  0  0  0  0  0  0  0
   20.9156  -11.8863  -17.8485 C   0  0  2  0  0  0  0  0  0  0  0  0
   20.5412  -13.1878  -17.3344 N   0  0  0  0  0  0  0  0  0  0  0  0
   20.3829  -10.7886  -16.9964 C   0  0  0  0  0  0  0  0  0  0  0  0
   19.1606  -10.6828  -16.7257 O   0  0  0  0  0  0  0  0  0  0  0  0
   20.3970  -13.9097  -20.6193 C   0  0  0  0  0  0  0  0  0  0  0  0
   21.0019  -14.8626  -21.3831 C   0  0  0  0  0  0  0  0  0  0  0  0
   22.9140   -8.9896  -14.6435 O   0  0  0  0  0  0  0  0  0  0  0  0
   21.5542   -8.7970  -14.3198 C   0  0  0  0  0  0  0  0  0  0  0  0
   20.8237   -8.7008  -15.6440 C   0  0  2  0  0  0  0  0  0  0  0  0
   21.2517   -9.8122  -16.4545 N   0  0  0  0  0  0  0  0  0  0  0  0
   21.1589   -7.3901  -16.2451 C   0  0  0  0  0  0  0  0  0  0  0  0
   22.2743   -7.1421  -16.7630 O   0  0  0  0  0  0  0  0  0  0  0  0
   20.5321    0.3588  -20.1390 O   0  0  0  0  0  0  0  0  0  0  0  0
   20.3574   -0.9262  -19.6339 C   0  0  0  0  0  0  0  0  0  0  0  0
   19.1480   -1.2201  -19.0421 C   0  0  0  0  0  0  0  0  0  0  0  0
   18.9484   -2.4968  -18.5297 C   0  0  0  0  0  0  0  0  0  0  0  0
   19.9139   -3.4726  -18.5934 C   0  0  0  0  0  0  0  0  0  0  0  0
   19.6550   -4.8350  -18.0281 C   0  0  0  0  0  0  0  0  0  0  0  0
   20.4188   -5.0367  -16.7347 C   0  0  2  0  0  0  0  0  0  0  0  0
   20.1713   -6.3730  -16.2322 N   0  0  0  0  0  0  0  0  0  0  0  0
   19.8736   -4.0204  -15.7712 C   0  0  0  0  0  0  0  0  0  0  0  0
   18.8532   -4.3208  -15.0863 O   0  0  0  0  0  0  0  0  0  0  0  0
   21.1176   -3.1538  -19.1913 C   0  0  0  0  0  0  0  0  0  0  0  0
   21.3378   -1.8885  -19.7083 C   0  0  0  0  0  0  0  0  0  0  0  0
   20.4342   -2.7845  -15.6038 O   0  0  0  0  0  0  0  0  0  0  0  0
  2 12  2  0
  2  1  1  0
  3  2  1  0
  4  5  1  0
  4  3  2  0
  5 11  2  0
  6  5  1  0
  7  6  1  0
  7  8  1  1
  9  7  1  0
 10  9  2  0
 11 12  1  0
 13 14  1  0
 15 14  1  1
 15 16  1  0
 16  9  1  0
 17 15  1  0
 17 18  2  0
 20 19  1  0
 21 20  2  0
 22 21  1  0
 23 29  1  0
 23 22  2  0
 24 23  1  0
 25 26  1  0
 25 24  1  6
 26 17  1  0
 27 25  1  0
 28 27  2  0
 29 30  2  0
 30 20  1  0
 31 27  1  0
M  END
$$$$
