YSY.pdb
     RDKit          3D

 31 32  0  0  1  0  0  0  0  0999 V2000
   22.1176   -3.4948  -25.7305 O   0  0  0  0  0  0  0  0  0  0  0  0
   21.9108   -3.8713  -24.4130 C   0  0  0  0  0  0  0  0  0  0  0  0
   20.6395   -3.7254  -23.8953 C   0  0  0  0  0  0  0  0  0  0  0  0
   20.3897   -4.0875  -22.5895 C   0  0  0  0  0  0  0  0  0  0  0  0
   21.3877   -4.6026  -21.7619 C   0  0  0  0  0  0  0  0  0  0  0  0
   21.1075   -4.9895  -20.3571 C   0  0  0  0  0  0  0  0  0  0  0  0
   21.1645   -6.5033  -20.2574 C   0  0  2  0  0  0  0  0  0  0  0  0
   20.0856   -7.0267  -21.0703 N   0  0  0  0  0  0  0  0  0  0  0  0
   21.0500   -6.9525  -18.8432 C   0  0  0  0  0  0  0  0  0  0  0  0
   19.9397   -7.1645  -18.2947 O   0  0  0  0  0  0  0  0  0  0  0  0
   22.6364   -4.7245  -22.3364 C   0  0  0  0  0  0  0  0  0  0  0  0
   22.9147   -4.3753  -23.6240 C   0  0  0  0  0  0  0  0  0  0  0  0
   24.3612   -6.7056  -16.5930 O   0  0  0  0  0  0  0  0  0  0  0  0
   23.6259   -7.8680  -16.2782 C   0  0  0  0  0  0  0  0  0  0  0  0
   22.1945   -7.5725  -16.6781 C   0  0  2  0  0  0  0  0  0  0  0  0
   22.2087   -7.1585  -18.0578 N   0  0  0  0  0  0  0  0  0  0  0  0
   21.6845   -6.5212  -15.7691 C   0  0  0  0  0  0  0  0  0  0  0  0
   21.7087   -5.3003  -16.0562 O   0  0  0  0  0  0  0  0  0  0  0  0
   17.1588   -2.9862   -9.1042 O   0  0  0  0  0  0  0  0  0  0  0  0
   17.7458   -3.8707  -10.0043 C   0  0  0  0  0  0  0  0  0  0  0  0
   18.6429   -4.7891   -9.5033 C   0  0  0  0  0  0  0  0  0  0  0  0
   19.2430   -5.6837  -10.3820 C   0  0  0  0  0  0  0  0  0  0  0  0
   18.9722   -5.6828  -11.7292 C   0  0  0  0  0  0  0  0  0  0  0  0
   19.6424   -6.6656  -12.6390 C   0  0  0  0  0  0  0  0  0  0  0  0
   20.6289   -5.9682  -13.5541 C   0  0  2  0  0  0  0  0  0  0  0  0
   21.1454   -6.9177  -14.5191 N   0  0  0  0  0  0  0  0  0  0  0  0
   21.7423   -5.4848  -12.6681 C   0  0  0  0  0  0  0  0  0  0  0  0
   21.8947   -4.2388  -12.5111 O   0  0  0  0  0  0  0  0  0  0  0  0
   18.0696   -4.7529  -12.2072 C   0  0  0  0  0  0  0  0  0  0  0  0
   17.4603   -3.8525  -11.3500 C   0  0  0  0  0  0  0  0  0  0  0  0
   22.5978   -6.3355  -12.0243 O   0  0  0  0  0  0  0  0  0  0  0  0
  2 12  2  0
  2  1  1  0
  3  2  1  0
  4  5  1  0
  4  3  2  0
  5 11  2  0
  6  5  1  0
  7  6  1  0
  7  8  1  6
  9  7  1  0
 10  9  2  0
 11 12  1  0
 13 14  1  0
 15 14  1  1
 15 16  1  0
 16  9  1  0
 17 15  1  0
 17 18  2  0
 20 19  1  0
 21 20  2  0
 22 21  1  0
 23 29  1  0
 23 22  2  0
 24 23  1  0
 25 26  1  0
 25 24  1  1
 26 17  1  0
 27 25  1  0
 28 27  2  0
 29 30  2  0
 30 20  1  0
 31 27  1  0
M  END
$$$$
