YSY.pdb
     RDKit          3D

 31 32  0  0  1  0  0  0  0  0999 V2000
   16.7046  -15.3083  -22.9220 O   0  0  0  0  0  0  0  0  0  0  0  0
   17.0203  -14.6627  -21.7372 C   0  0  0  0  0  0  0  0  0  0  0  0
   17.1633  -13.2901  -21.7719 C   0  0  0  0  0  0  0  0  0  0  0  0
   17.4769  -12.6081  -20.6165 C   0  0  0  0  0  0  0  0  0  0  0  0
   17.6573  -13.2630  -19.3979 C   0  0  0  0  0  0  0  0  0  0  0  0
   17.9948  -12.5186  -18.1596 C   0  0  0  0  0  0  0  0  0  0  0  0
   19.4104  -11.9863  -18.2923 C   0  0  2  0  0  0  0  0  0  0  0  0
   20.2965  -13.1316  -18.3315 N   0  0  0  0  0  0  0  0  0  0  0  0
   19.7478  -11.0732  -17.1666 C   0  0  0  0  0  0  0  0  0  0  0  0
   18.9853  -10.1416  -16.8070 O   0  0  0  0  0  0  0  0  0  0  0  0
   17.5012  -14.6337  -19.4275 C   0  0  0  0  0  0  0  0  0  0  0  0
   17.1914  -15.3364  -20.5534 C   0  0  0  0  0  0  0  0  0  0  0  0
   23.5573  -11.1845  -15.8229 O   0  0  0  0  0  0  0  0  0  0  0  0
   22.6346  -10.9652  -14.7782 C   0  0  0  0  0  0  0  0  0  0  0  0
   21.4207  -10.3298  -15.4255 C   0  0  2  0  0  0  0  0  0  0  0  0
   20.9597  -11.2282  -16.4530 N   0  0  0  0  0  0  0  0  0  0  0  0
   21.8368   -9.0132  -15.9595 C   0  0  0  0  0  0  0  0  0  0  0  0
   22.1752   -8.8375  -17.1546 O   0  0  0  0  0  0  0  0  0  0  0  0
   23.0238   -0.9176  -18.3051 O   0  0  0  0  0  0  0  0  0  0  0  0
   22.5818   -2.1473  -17.8261 C   0  0  0  0  0  0  0  0  0  0  0  0
   22.9819   -3.2777  -18.5053 C   0  0  0  0  0  0  0  0  0  0  0  0
   22.5539   -4.5183  -18.0469 C   0  0  0  0  0  0  0  0  0  0  0  0
   21.7477   -4.6547  -16.9425 C   0  0  0  0  0  0  0  0  0  0  0  0
   21.3107   -6.0118  -16.4843 C   0  0  0  0  0  0  0  0  0  0  0  0
   22.2936   -6.5860  -15.4837 C   0  0  2  0  0  0  0  0  0  0  0  0
   21.8515   -7.9043  -15.0761 N   0  0  0  0  0  0  0  0  0  0  0  0
   22.2735   -5.6542  -14.3048 C   0  0  0  0  0  0  0  0  0  0  0  0
   22.8991   -4.5579  -14.3880 O   0  0  0  0  0  0  0  0  0  0  0  0
   21.3600   -3.5070  -16.2787 C   0  0  0  0  0  0  0  0  0  0  0  0
   21.7745   -2.2612  -16.7178 C   0  0  0  0  0  0  0  0  0  0  0  0
   21.6071   -5.9419  -13.1459 O   0  0  0  0  0  0  0  0  0  0  0  0
  2 12  2  0
  2  1  1  0
  3  2  1  0
  4  5  1  0
  4  3  2  0
  5 11  2  0
  6  5  1  0
  7  6  1  0
  7  8  1  1
  9  7  1  0
 10  9  2  0
 11 12  1  0
 13 14  1  0
 15 14  1  6
 15 16  1  0
 16  9  1  0
 17 15  1  0
 17 18  2  0
 20 19  1  0
 21 20  2  0
 22 21  1  0
 23 29  1  0
 23 22  2  0
 24 23  1  0
 25 26  1  0
 25 24  1  6
 26 17  1  0
 27 25  1  0
 28 27  2  0
 29 30  2  0
 30 20  1  0
 31 27  1  0
M  END
$$$$
