YSY.pdb
     RDKit          3D

 31 32  0  0  1  0  0  0  0  0999 V2000
   30.5476    0.6278  -16.1889 O   0  0  0  0  0  0  0  0  0  0  0  0
   29.7876    1.7862  -16.2172 C   0  0  0  0  0  0  0  0  0  0  0  0
   28.4208    1.6615  -16.0693 C   0  0  0  0  0  0  0  0  0  0  0  0
   27.6274    2.7878  -16.0913 C   0  0  0  0  0  0  0  0  0  0  0  0
   28.1623    4.0651  -16.2598 C   0  0  0  0  0  0  0  0  0  0  0  0
   27.2985    5.2714  -16.2818 C   0  0  0  0  0  0  0  0  0  0  0  0
   27.1646    5.7898  -14.8612 C   0  0  2  0  0  0  0  0  0  0  0  0
   28.4974    5.8381  -14.2957 N   0  0  0  0  0  0  0  0  0  0  0  0
   26.2612    4.9228  -14.0568 C   0  0  0  0  0  0  0  0  0  0  0  0
   26.6515    4.3230  -13.0241 O   0  0  0  0  0  0  0  0  0  0  0  0
   29.5336    4.1246  -16.4022 C   0  0  0  0  0  0  0  0  0  0  0  0
   30.3448    3.0295  -16.3848 C   0  0  0  0  0  0  0  0  0  0  0  0
   22.8345    3.7865  -11.6667 O   0  0  0  0  0  0  0  0  0  0  0  0
   23.7150    4.6291  -12.3778 C   0  0  0  0  0  0  0  0  0  0  0  0
   23.9582    3.9446  -13.7077 C   0  0  2  0  0  0  0  0  0  0  0  0
   24.9100    4.7435  -14.4364 N   0  0  0  0  0  0  0  0  0  0  0  0
   22.6537    3.8344  -14.3988 C   0  0  0  0  0  0  0  0  0  0  0  0
   22.1991    4.7338  -15.1459 O   0  0  0  0  0  0  0  0  0  0  0  0
   15.7724    2.0522  -18.9626 O   0  0  0  0  0  0  0  0  0  0  0  0
   17.0136    2.0809  -18.3337 C   0  0  0  0  0  0  0  0  0  0  0  0
   17.3490    3.2210  -17.6359 C   0  0  0  0  0  0  0  0  0  0  0  0
   18.5834    3.2747  -16.9988 C   0  0  0  0  0  0  0  0  0  0  0  0
   19.4775    2.2321  -17.0416 C   0  0  0  0  0  0  0  0  0  0  0  0
   20.7967    2.3338  -16.3400 C   0  0  0  0  0  0  0  0  0  0  0  0
   20.6035    2.4461  -14.8410 C   0  0  2  0  0  0  0  0  0  0  0  0
   21.8878    2.6572  -14.2041 N   0  0  0  0  0  0  0  0  0  0  0  0
   20.0258    1.1307  -14.4002 C   0  0  0  0  0  0  0  0  0  0  0  0
   20.8164    0.2150  -14.0301 O   0  0  0  0  0  0  0  0  0  0  0  0
   19.1185    1.1003  -17.7473 C   0  0  0  0  0  0  0  0  0  0  0  0
   17.8942    1.0253  -18.3893 C   0  0  0  0  0  0  0  0  0  0  0  0
   18.6813    0.8821  -14.3823 O   0  0  0  0  0  0  0  0  0  0  0  0
  2 12  2  0
  2  1  1  0
  3  2  1  0
  4  5  1  0
  4  3  2  0
  5 11  2  0
  6  5  1  0
  7  6  1  0
  7  8  1  1
  9  7  1  0
 10  9  2  0
 11 12  1  0
 13 14  1  0
 15 14  1  1
 15 16  1  0
 16  9  1  0
 17 15  1  0
 17 18  2  0
 20 19  1  0
 21 20  2  0
 22 21  1  0
 23 29  1  0
 23 22  2  0
 24 23  1  0
 25 26  1  0
 25 24  1  6
 26 17  1  0
 27 25  1  0
 28 27  2  0
 29 30  2  0
 30 20  1  0
 31 27  1  0
M  END
$$$$
