YSY.pdb
     RDKit          3D

 31 32  0  0  1  0  0  0  0  0999 V2000
   17.9550  -12.0809  -20.7892 O   0  0  0  0  0  0  0  0  0  0  0  0
   18.2005  -12.0242  -19.4266 C   0  0  0  0  0  0  0  0  0  0  0  0
   18.6077  -10.8162  -18.8970 C   0  0  0  0  0  0  0  0  0  0  0  0
   18.8628  -10.7153  -17.5467 C   0  0  0  0  0  0  0  0  0  0  0  0
   18.7225  -11.8036  -16.6851 C   0  0  0  0  0  0  0  0  0  0  0  0
   18.9998  -11.6837  -15.2324 C   0  0  0  0  0  0  0  0  0  0  0  0
   17.6756  -11.6978  -14.4900 C   0  0  2  0  0  0  0  0  0  0  0  0
   16.8981  -12.7981  -15.0222 N   0  0  0  0  0  0  0  0  0  0  0  0
   16.9616  -10.4009  -14.6421 C   0  0  0  0  0  0  0  0  0  0  0  0
   15.9906  -10.2578  -15.4265 O   0  0  0  0  0  0  0  0  0  0  0  0
   18.3130  -12.9826  -17.2736 C   0  0  0  0  0  0  0  0  0  0  0  0
   18.0531  -13.1140  -18.6050 C   0  0  0  0  0  0  0  0  0  0  0  0
   16.8357   -8.0686  -11.7062 O   0  0  0  0  0  0  0  0  0  0  0  0
   16.0080   -7.6585  -12.7729 C   0  0  0  0  0  0  0  0  0  0  0  0
   16.7877   -7.9540  -14.0382 C   0  0  2  0  0  0  0  0  0  0  0  0
   17.3610   -9.2677  -13.8948 N   0  0  0  0  0  0  0  0  0  0  0  0
   17.8112   -6.8952  -14.1899 C   0  0  0  0  0  0  0  0  0  0  0  0
   18.8935   -6.8963  -13.5555 O   0  0  0  0  0  0  0  0  0  0  0  0
   22.4174   -9.2653  -17.5360 O   0  0  0  0  0  0  0  0  0  0  0  0
   21.5411   -8.1982  -17.3614 C   0  0  0  0  0  0  0  0  0  0  0  0
   22.0567   -7.0259  -16.8523 C   0  0  0  0  0  0  0  0  0  0  0  0
   21.2020   -5.9452  -16.6684 C   0  0  0  0  0  0  0  0  0  0  0  0
   19.8641   -6.0067  -16.9763 C   0  0  0  0  0  0  0  0  0  0  0  0
   18.9801   -4.8170  -16.7617 C   0  0  0  0  0  0  0  0  0  0  0  0
   18.4930   -4.7582  -15.3278 C   0  0  2  0  0  0  0  0  0  0  0  0
   17.5514   -5.8345  -15.0942 N   0  0  0  0  0  0  0  0  0  0  0  0
   17.7992   -3.4331  -15.1821 C   0  0  0  0  0  0  0  0  0  0  0  0
   16.5426   -3.4196  -15.0365 O   0  0  0  0  0  0  0  0  0  0  0  0
   19.3711   -7.1924  -17.4850 C   0  0  0  0  0  0  0  0  0  0  0  0
   20.2044   -8.2813  -17.6763 C   0  0  0  0  0  0  0  0  0  0  0  0
   18.4693   -2.2413  -15.2004 O   0  0  0  0  0  0  0  0  0  0  0  0
  2 12  2  0
  2  1  1  0
  3  2  1  0
  4  5  1  0
  4  3  2  0
  5 11  2  0
  6  5  1  0
  7  6  1  0
  7  8  1  6
  9  7  1  0
 10  9  2  0
 11 12  1  0
 13 14  1  0
 15 14  1  1
 15 16  1  0
 16  9  1  0
 17 15  1  0
 17 18  2  0
 20 19  1  0
 21 20  2  0
 22 21  1  0
 23 29  1  0
 23 22  2  0
 24 23  1  0
 25 26  1  0
 25 24  1  6
 26 17  1  0
 27 25  1  0
 28 27  2  0
 29 30  2  0
 30 20  1  0
 31 27  1  0
M  END
$$$$
