YSY.pdb
     RDKit          3D

 31 32  0  0  1  0  0  0  0  0999 V2000
   22.2673  -14.7661  -19.1685 O   0  0  0  0  0  0  0  0  0  0  0  0
   22.5275  -13.4887  -19.6381 C   0  0  0  0  0  0  0  0  0  0  0  0
   23.2989  -13.3675  -20.7764 C   0  0  0  0  0  0  0  0  0  0  0  0
   23.5820  -12.1157  -21.2779 C   0  0  0  0  0  0  0  0  0  0  0  0
   23.1112  -10.9522  -20.6690 C   0  0  0  0  0  0  0  0  0  0  0  0
   23.4220   -9.6091  -21.2176 C   0  0  0  0  0  0  0  0  0  0  0  0
   22.2199   -9.1258  -22.0091 C   0  0  2  0  0  0  0  0  0  0  0  0
   22.0915   -9.9911  -23.1637 N   0  0  0  0  0  0  0  0  0  0  0  0
   22.3788   -7.7012  -22.4094 C   0  0  0  0  0  0  0  0  0  0  0  0
   23.0135   -7.3607  -23.4388 O   0  0  0  0  0  0  0  0  0  0  0  0
   22.3462  -11.1385  -19.5357 C   0  0  0  0  0  0  0  0  0  0  0  0
   22.0491  -12.3626  -19.0156 C   0  0  0  0  0  0  0  0  0  0  0  0
   21.2507   -3.7072  -23.5805 O   0  0  0  0  0  0  0  0  0  0  0  0
   21.0483   -5.0533  -23.2089 C   0  0  0  0  0  0  0  0  0  0  0  0
   21.8782   -5.2663  -21.9590 C   0  0  2  0  0  0  0  0  0  0  0  0
   21.8099   -6.6669  -21.6293 N   0  0  0  0  0  0  0  0  0  0  0  0
   21.3182   -4.3994  -20.8977 C   0  0  0  0  0  0  0  0  0  0  0  0
   20.2710   -4.6821  -20.2674 O   0  0  0  0  0  0  0  0  0  0  0  0
   20.9055    2.2515  -15.1329 O   0  0  0  0  0  0  0  0  0  0  0  0
   21.3212    1.4019  -16.1538 C   0  0  0  0  0  0  0  0  0  0  0  0
   21.7815    0.1530  -15.7967 C   0  0  0  0  0  0  0  0  0  0  0  0
   22.2026   -0.7146  -16.7980 C   0  0  0  0  0  0  0  0  0  0  0  0
   22.1752   -0.3694  -18.1278 C   0  0  0  0  0  0  0  0  0  0  0  0
   22.6387   -1.3365  -19.1731 C   0  0  0  0  0  0  0  0  0  0  0  0
   21.5105   -2.2557  -19.5963 C   0  0  2  0  0  0  0  0  0  0  0  0
   22.0001   -3.1967  -20.5834 N   0  0  0  0  0  0  0  0  0  0  0  0
   20.4651   -1.3687  -20.2118 C   0  0  0  0  0  0  0  0  0  0  0  0
   19.5915   -0.8488  -19.4589 O   0  0  0  0  0  0  0  0  0  0  0  0
   21.7096    0.8878  -18.4605 C   0  0  0  0  0  0  0  0  0  0  0  0
   21.2853    1.7679  -17.4796 C   0  0  0  0  0  0  0  0  0  0  0  0
   20.4186   -1.1000  -21.5518 O   0  0  0  0  0  0  0  0  0  0  0  0
  2 12  2  0
  2  1  1  0
  3  2  1  0
  4  5  1  0
  4  3  2  0
  5 11  2  0
  6  5  1  0
  7  6  1  0
  7  8  1  6
  9  7  1  0
 10  9  2  0
 11 12  1  0
 13 14  1  0
 15 14  1  6
 15 16  1  0
 16  9  1  0
 17 15  1  0
 17 18  2  0
 20 19  1  0
 21 20  2  0
 22 21  1  0
 23 29  1  0
 23 22  2  0
 24 23  1  0
 25 26  1  0
 25 24  1  6
 26 17  1  0
 27 25  1  0
 28 27  2  0
 29 30  2  0
 30 20  1  0
 31 27  1  0
M  END
$$$$
