YSY.pdb
     RDKit          3D

 31 32  0  0  1  0  0  0  0  0999 V2000
   10.7314   -9.0943  -19.6068 O   0  0  0  0  0  0  0  0  0  0  0  0
   11.8637   -8.9436  -18.8225 C   0  0  0  0  0  0  0  0  0  0  0  0
   13.0918   -8.9939  -19.4508 C   0  0  0  0  0  0  0  0  0  0  0  0
   14.2436   -8.8487  -18.7087 C   0  0  0  0  0  0  0  0  0  0  0  0
   14.2127   -8.6502  -17.3282 C   0  0  0  0  0  0  0  0  0  0  0  0
   15.4594   -8.4948  -16.5387 C   0  0  0  0  0  0  0  0  0  0  0  0
   16.2134   -9.8122  -16.5711 C   0  0  2  0  0  0  0  0  0  0  0  0
   15.4652  -10.7536  -15.7634 N   0  0  0  0  0  0  0  0  0  0  0  0
   17.6045   -9.6465  -16.0688 C   0  0  0  0  0  0  0  0  0  0  0  0
   17.8632   -9.4936  -14.8489 O   0  0  0  0  0  0  0  0  0  0  0  0
   12.9566   -8.6092  -16.7584 C   0  0  0  0  0  0  0  0  0  0  0  0
   11.7997   -8.7495  -17.4650 C   0  0  0  0  0  0  0  0  0  0  0  0
   20.5519   -9.9437  -18.8077 O   0  0  0  0  0  0  0  0  0  0  0  0
   20.9386  -10.2771  -17.4923 C   0  0  0  0  0  0  0  0  0  0  0  0
   20.0694   -9.4353  -16.5801 C   0  0  2  0  0  0  0  0  0  0  0  0
   18.6990   -9.6561  -16.9653 N   0  0  0  0  0  0  0  0  0  0  0  0
   20.4896   -8.0247  -16.7392 C   0  0  0  0  0  0  0  0  0  0  0  0
   19.9038   -7.2201  -17.5029 O   0  0  0  0  0  0  0  0  0  0  0  0
   25.7039   -0.9434  -15.7918 O   0  0  0  0  0  0  0  0  0  0  0  0
   25.0985   -2.1873  -15.6392 C   0  0  0  0  0  0  0  0  0  0  0  0
   25.7563   -3.2843  -16.1523 C   0  0  0  0  0  0  0  0  0  0  0  0
   25.1725   -4.5381  -16.0128 C   0  0  0  0  0  0  0  0  0  0  0  0
   23.9651   -4.7196  -15.3823 C   0  0  0  0  0  0  0  0  0  0  0  0
   23.3734   -6.0895  -15.2548 C   0  0  0  0  0  0  0  0  0  0  0  0
   22.1614   -6.2395  -16.1523 C   0  0  2  0  0  0  0  0  0  0  0  0
   21.6049   -7.5678  -15.9925 N   0  0  0  0  0  0  0  0  0  0  0  0
   22.6644   -6.0630  -17.5573 C   0  0  0  0  0  0  0  0  0  0  0  0
   22.3859   -4.9924  -18.1709 O   0  0  0  0  0  0  0  0  0  0  0  0
   23.3252   -3.6049  -14.8764 C   0  0  0  0  0  0  0  0  0  0  0  0
   23.8885   -2.3467  -15.0041 C   0  0  0  0  0  0  0  0  0  0  0  0
   23.4107   -7.0113  -18.2004 O   0  0  0  0  0  0  0  0  0  0  0  0
  2 12  2  0
  2  1  1  0
  3  2  1  0
  4  5  1  0
  4  3  2  0
  5 11  2  0
  6  5  1  0
  7  6  1  0
  7  8  1  1
  9  7  1  0
 10  9  2  0
 11 12  1  0
 13 14  1  0
 15 14  1  6
 15 16  1  0
 16  9  1  0
 17 15  1  0
 17 18  2  0
 20 19  1  0
 21 20  2  0
 22 21  1  0
 23 29  1  0
 23 22  2  0
 24 23  1  0
 25 26  1  0
 25 24  1  1
 26 17  1  0
 27 25  1  0
 28 27  2  0
 29 30  2  0
 30 20  1  0
 31 27  1  0
M  END
$$$$
