YSY.pdb
     RDKit          3D

 31 32  0  0  1  0  0  0  0  0999 V2000
   28.2817   -5.4043  -29.2352 O   0  0  0  0  0  0  0  0  0  0  0  0
   27.6780   -4.9047  -28.0924 C   0  0  0  0  0  0  0  0  0  0  0  0
   26.3530   -4.5272  -28.1785 C   0  0  0  0  0  0  0  0  0  0  0  0
   25.7137   -4.0252  -27.0659 C   0  0  0  0  0  0  0  0  0  0  0  0
   26.3654   -3.8830  -25.8407 C   0  0  0  0  0  0  0  0  0  0  0  0
   25.6671   -3.3413  -24.6487 C   0  0  0  0  0  0  0  0  0  0  0  0
   24.9668   -4.4883  -23.9423 C   0  0  2  0  0  0  0  0  0  0  0  0
   23.8265   -4.8593  -24.7552 N   0  0  0  0  0  0  0  0  0  0  0  0
   24.5531   -4.0985  -22.5669 C   0  0  0  0  0  0  0  0  0  0  0  0
   23.3986   -3.6757  -22.3083 O   0  0  0  0  0  0  0  0  0  0  0  0
   27.6876   -4.2772  -25.8179 C   0  0  0  0  0  0  0  0  0  0  0  0
   28.3473   -4.7771  -26.9007 C   0  0  0  0  0  0  0  0  0  0  0  0
   27.5056   -3.8993  -19.9801 O   0  0  0  0  0  0  0  0  0  0  0  0
   26.3301   -4.2187  -19.2681 C   0  0  0  0  0  0  0  0  0  0  0  0
   25.1801   -3.7620  -20.1429 C   0  0  2  0  0  0  0  0  0  0  0  0
   25.4633   -4.1935  -21.4878 N   0  0  0  0  0  0  0  0  0  0  0  0
   25.0834   -2.2897  -20.0213 C   0  0  0  0  0  0  0  0  0  0  0  0
   25.9379   -1.5077  -20.5031 O   0  0  0  0  0  0  0  0  0  0  0  0
   23.8455    0.4802  -25.5112 O   0  0  0  0  0  0  0  0  0  0  0  0
   23.4994    0.3483  -24.1697 C   0  0  0  0  0  0  0  0  0  0  0  0
   24.0439    1.2481  -23.2790 C   0  0  0  0  0  0  0  0  0  0  0  0
   23.7139    1.1377  -21.9331 C   0  0  0  0  0  0  0  0  0  0  0  0
   22.8654    0.1644  -21.4627 C   0  0  0  0  0  0  0  0  0  0  0  0
   22.5377    0.0832  -20.0036 C   0  0  0  0  0  0  0  0  0  0  0  0
   23.7572   -0.3176  -19.1980 C   0  0  2  0  0  0  0  0  0  0  0  0
   23.9732   -1.7445  -19.3283 N   0  0  0  0  0  0  0  0  0  0  0  0
   23.4371    0.0213  -17.7694 C   0  0  0  0  0  0  0  0  0  0  0  0
   23.3372   -0.9205  -16.9307 O   0  0  0  0  0  0  0  0  0  0  0  0
   22.3325   -0.7255  -22.3748 C   0  0  0  0  0  0  0  0  0  0  0  0
   22.6476   -0.6340  -23.7199 C   0  0  0  0  0  0  0  0  0  0  0  0
   23.2493    1.3052  -17.3379 O   0  0  0  0  0  0  0  0  0  0  0  0
  2 12  2  0
  2  1  1  0
  3  2  1  0
  4  5  1  0
  4  3  2  0
  5 11  2  0
  6  5  1  0
  7  6  1  0
  7  8  1  6
  9  7  1  0
 10  9  2  0
 11 12  1  0
 13 14  1  0
 15 14  1  1
 15 16  1  0
 16  9  1  0
 17 15  1  0
 17 18  2  0
 20 19  1  0
 21 20  2  0
 22 21  1  0
 23 29  1  0
 23 22  2  0
 24 23  1  0
 25 26  1  0
 25 24  1  6
 26 17  1  0
 27 25  1  0
 28 27  2  0
 29 30  2  0
 30 20  1  0
 31 27  1  0
M  END
$$$$
