NRN.pdb
     RDKit          3D

 28 27  0  0  1  0  0  0  0  0999 V2000
   10.6712  -21.6598   18.3798 N   0  0  0  0  0  0  0  0  0  0  0  0
   11.0870  -20.8231   19.4400 C   0  0  0  0  0  0  0  0  0  0  0  0
   12.3031  -20.6812   19.6875 O   0  0  0  0  0  0  0  0  0  0  0  0
   10.0842  -20.1216   20.2493 C   0  0  0  0  0  0  0  0  0  0  0  0
   10.2487  -20.3590   21.7229 C   0  0  2  0  0  0  0  0  0  0  0  0
   10.1719  -21.7442   22.1031 N   0  0  0  0  0  0  0  0  0  0  0  0
    9.1870  -19.5508   22.4245 C   0  0  0  0  0  0  0  0  0  0  0  0
    9.1973  -18.2948   22.3850 O   0  0  0  0  0  0  0  0  0  0  0  0
    2.1126  -21.8538   20.2285 N   0  0  0  0  0  0  0  0  0  0  0  0
    2.9050  -22.8538   20.8372 C   0  0  0  0  0  0  0  0  0  0  0  0
    2.6395  -24.1103   20.6283 N   0  0  0  0  0  0  0  0  0  0  0  0
    4.0048  -22.5412   21.6876 N   0  0  0  0  0  0  0  0  0  0  0  0
    4.2899  -21.1572   21.9450 C   0  0  0  0  0  0  0  0  0  0  0  0
    5.5046  -21.0922   22.8686 C   0  0  0  0  0  0  0  0  0  0  0  0
    5.7941  -19.6422   23.1327 C   0  0  0  0  0  0  0  0  0  0  0  0
    7.1043  -19.3993   23.8043 C   0  0  2  0  0  0  0  0  0  0  0  0
    8.1368  -20.1656   23.1552 N   0  0  0  0  0  0  0  0  0  0  0  0
    7.1228  -19.6294   25.2403 C   0  0  0  0  0  0  0  0  0  0  0  0
    6.2596  -19.2048   26.0510 O   0  0  0  0  0  0  0  0  0  0  0  0
    3.1401  -24.8735   21.1309 N   0  0  0  0  0  0  0  0  0  0  0  0
    6.2186  -22.7785   27.5469 C   0  0  0  0  0  0  0  0  0  0  0  0
    7.5700  -23.0037   27.0716 O   0  0  0  0  0  0  0  0  0  0  0  0
    7.7908  -24.0008   26.3541 C   0  0  0  0  0  0  0  0  0  0  0  0
    8.6153  -22.0634   27.4465 C   0  0  2  0  0  0  0  0  0  0  0  0
    8.2507  -20.6091   27.2851 N   0  0  0  0  0  0  0  0  0  0  0  0
    8.1822  -20.3878   25.8090 C   0  0  0  0  0  0  0  0  0  0  0  0
    9.3701  -19.7895   27.7936 O   0  0  0  0  0  0  0  0  0  0  0  0
   10.1061  -19.0215   26.9151 O   0  0  0  0  0  0  0  0  0  0  0  0
  2  3  2  0
  2  1  1  0
  4  2  1  0
  5  6  1  6
  5  4  1  0
  7  5  1  0
  8  7  2  0
 10  9  1  0
 10 12  1  0
 11 10  2  0
 12 13  1  0
 13 14  1  0
 16 15  1  6
 15 14  1  0
 16 17  1  0
 17  7  1  0
 18 16  1  0
 19 18  2  0
 20 21  1  0
 21 22  2  0
 23 21  1  0
 24 23  1  1
 24 25  1  0
 25 18  1  0
 26 27  1  0
 26 24  1  0
 28 26  2  0
M  END
$$$$
