NRN.pdb
     RDKit          3D

 28 27  0  0  1  0  0  0  0  0999 V2000
   15.3885  -15.6573   14.8363 N   0  0  0  0  0  0  0  0  0  0  0  0
   15.9404  -16.3366   15.9458 C   0  0  0  0  0  0  0  0  0  0  0  0
   16.7073  -17.3066   15.7698 O   0  0  0  0  0  0  0  0  0  0  0  0
   15.6087  -15.8977   17.3060 C   0  0  0  0  0  0  0  0  0  0  0  0
   14.6556  -14.7375   17.3323 C   0  0  2  0  0  0  0  0  0  0  0  0
   15.2745  -13.4675   17.0614 N   0  0  0  0  0  0  0  0  0  0  0  0
   13.9966  -14.7344   18.6881 C   0  0  0  0  0  0  0  0  0  0  0  0
   14.5551  -14.1993   19.6786 O   0  0  0  0  0  0  0  0  0  0  0  0
    7.5830  -12.7750   19.9543 N   0  0  0  0  0  0  0  0  0  0  0  0
    7.6038  -13.2091   18.6090 C   0  0  0  0  0  0  0  0  0  0  0  0
    7.4833  -12.3438   17.6448 N   0  0  0  0  0  0  0  0  0  0  0  0
    7.7538  -14.5809   18.2537 N   0  0  0  0  0  0  0  0  0  0  0  0
    8.4982  -15.4323   19.1391 C   0  0  0  0  0  0  0  0  0  0  0  0
    9.9046  -14.8523   19.2754 C   0  0  0  0  0  0  0  0  0  0  0  0
   10.7072  -15.8061   20.1134 C   0  0  0  0  0  0  0  0  0  0  0  0
   12.1518  -15.4484   20.2215 C   0  0  2  0  0  0  0  0  0  0  0  0
   12.7268  -15.3300   18.9062 N   0  0  0  0  0  0  0  0  0  0  0  0
   12.9540  -16.3320   21.0528 C   0  0  0  0  0  0  0  0  0  0  0  0
   13.4242  -17.4396   20.6855 O   0  0  0  0  0  0  0  0  0  0  0  0
    7.4860  -12.6273   16.6421 N   0  0  0  0  0  0  0  0  0  0  0  0
   16.0735  -17.8755   24.9452 C   0  0  0  0  0  0  0  0  0  0  0  0
   16.3576  -16.5808   24.3570 O   0  0  0  0  0  0  0  0  0  0  0  0
   17.4454  -16.0305   24.6249 C   0  0  0  0  0  0  0  0  0  0  0  0
   15.3689  -15.9726   23.4796 C   0  0  1  0  0  0  0  0  0  0  0  0
   14.1305  -16.8006   23.2459 N   0  0  0  0  0  0  0  0  0  0  0  0
   13.2506  -15.9493   22.3894 C   0  0  0  0  0  0  0  0  0  0  0  0
   13.4367  -16.9754   24.5388 O   0  0  0  0  0  0  0  0  0  0  0  0
   13.0313  -18.2349   24.9295 O   0  0  0  0  0  0  0  0  0  0  0  0
  2  3  2  0
  2  1  1  0
  4  2  1  0
  5  6  1  1
  5  4  1  0
  7  5  1  0
  8  7  2  0
 10  9  1  0
 10 12  1  0
 11 10  2  0
 12 13  1  0
 13 14  1  0
 16 15  1  6
 15 14  1  0
 16 17  1  0
 17  7  1  0
 18 16  1  0
 19 18  2  0
 20 21  1  0
 21 22  2  0
 23 21  1  0
 24 23  1  6
 24 25  1  0
 25 18  1  0
 26 27  1  0
 26 24  1  0
 28 26  2  0
M  END
$$$$
