NRN.pdb
     RDKit          3D

 28 27  0  0  1  0  0  0  0  0999 V2000
   12.1115  -19.5775   12.4202 N   0  0  0  0  0  0  0  0  0  0  0  0
   12.2354  -18.2735   11.8900 C   0  0  0  0  0  0  0  0  0  0  0  0
   12.0655  -18.0738   10.6688 O   0  0  0  0  0  0  0  0  0  0  0  0
   12.5647  -17.1545   12.7801 C   0  0  0  0  0  0  0  0  0  0  0  0
   11.4893  -16.1075   12.8290 C   0  0  2  0  0  0  0  0  0  0  0  0
   11.5547  -15.1531   11.7549 N   0  0  0  0  0  0  0  0  0  0  0  0
   11.6000  -15.4189   14.1655 C   0  0  0  0  0  0  0  0  0  0  0  0
   12.3519  -14.4241   14.3213 O   0  0  0  0  0  0  0  0  0  0  0  0
    8.5062  -19.2608   18.1312 N   0  0  0  0  0  0  0  0  0  0  0  0
    8.3904  -18.9158   19.4973 C   0  0  0  0  0  0  0  0  0  0  0  0
    8.3752  -19.8486   20.4043 N   0  0  0  0  0  0  0  0  0  0  0  0
    8.2870  -17.5637   19.9352 N   0  0  0  0  0  0  0  0  0  0  0  0
    8.2841  -16.5280   18.9401 C   0  0  0  0  0  0  0  0  0  0  0  0
    9.6821  -16.4609   18.3286 C   0  0  0  0  0  0  0  0  0  0  0  0
    9.6820  -15.3456   17.3225 C   0  0  0  0  0  0  0  0  0  0  0  0
   10.9669  -15.2028   16.5773 C   0  0  2  0  0  0  0  0  0  0  0  0
   10.8669  -15.8584   15.2987 N   0  0  0  0  0  0  0  0  0  0  0  0
   12.1548  -15.6476   17.2887 C   0  0  0  0  0  0  0  0  0  0  0  0
   12.5860  -16.8294   17.3064 O   0  0  0  0  0  0  0  0  0  0  0  0
    8.4206  -19.6323   21.4226 N   0  0  0  0  0  0  0  0  0  0  0  0
   17.3639  -14.2021   18.8520 C   0  0  0  0  0  0  0  0  0  0  0  0
   16.1851  -13.9201   19.6482 O   0  0  0  0  0  0  0  0  0  0  0  0
   16.3155  -13.7991   20.8835 C   0  0  0  0  0  0  0  0  0  0  0  0
   14.8986  -13.7887   18.9812 C   0  0  1  0  0  0  0  0  0  0  0  0
   14.2191  -15.0926   18.6467 N   0  0  0  0  0  0  0  0  0  0  0  0
   12.9135  -14.7035   18.0330 C   0  0  0  0  0  0  0  0  0  0  0  0
   13.9107  -15.7942   19.9101 O   0  0  0  0  0  0  0  0  0  0  0  0
   14.7237  -16.8257   20.3325 O   0  0  0  0  0  0  0  0  0  0  0  0
  2  3  2  0
  2  1  1  0
  4  2  1  0
  5  6  1  6
  5  4  1  0
  7  5  1  0
  8  7  2  0
 10  9  1  0
 10 12  1  0
 11 10  2  0
 12 13  1  0
 13 14  1  0
 16 15  1  1
 15 14  1  0
 16 17  1  0
 17  7  1  0
 18 16  1  0
 19 18  2  0
 20 21  1  0
 21 22  2  0
 23 21  1  0
 24 23  1  6
 24 25  1  0
 25 18  1  0
 26 27  1  0
 26 24  1  0
 28 26  2  0
M  END
$$$$
