NRN.pdb
     RDKit          3D

 28 27  0  0  1  0  0  0  0  0999 V2000
   10.3483  -19.6082   16.2663 N   0  0  0  0  0  0  0  0  0  0  0  0
    9.1660  -18.8861   16.5450 C   0  0  0  0  0  0  0  0  0  0  0  0
    8.1015  -19.1744   15.9585 O   0  0  0  0  0  0  0  0  0  0  0  0
    9.1939  -17.7958   17.5264 C   0  0  0  0  0  0  0  0  0  0  0  0
   10.5544  -17.5785   18.1237 C   0  0  2  0  0  0  0  0  0  0  0  0
   11.0998  -18.7411   18.7719 N   0  0  0  0  0  0  0  0  0  0  0  0
   10.4359  -16.4302   19.0933 C   0  0  0  0  0  0  0  0  0  0  0  0
   10.2681  -15.2533   18.6861 O   0  0  0  0  0  0  0  0  0  0  0  0
    7.3612  -14.6613   17.2616 N   0  0  0  0  0  0  0  0  0  0  0  0
    7.5826  -13.2684   17.3586 C   0  0  0  0  0  0  0  0  0  0  0  0
    7.7522  -12.5605   16.2802 N   0  0  0  0  0  0  0  0  0  0  0  0
    7.6298  -12.5902   18.6109 N   0  0  0  0  0  0  0  0  0  0  0  0
    7.6480  -13.3816   19.8094 C   0  0  0  0  0  0  0  0  0  0  0  0
    8.9915  -14.1056   19.8731 C   0  0  0  0  0  0  0  0  0  0  0  0
    9.0432  -14.8476   21.1781 C   0  0  0  0  0  0  0  0  0  0  0  0
   10.3414  -15.5388   21.4301 C   0  0  2  0  0  0  0  0  0  0  0  0
   10.5076  -16.6239   20.4976 N   0  0  0  0  0  0  0  0  0  0  0  0
   10.5497  -15.9997   22.7937 C   0  0  0  0  0  0  0  0  0  0  0  0
   10.4174  -15.2902   23.8242 O   0  0  0  0  0  0  0  0  0  0  0  0
    8.0071  -11.5508   16.3144 N   0  0  0  0  0  0  0  0  0  0  0  0
   11.5035  -19.3152   26.7831 C   0  0  0  0  0  0  0  0  0  0  0  0
   11.5274  -20.0457   25.5306 O   0  0  0  0  0  0  0  0  0  0  0  0
   11.8212  -21.2585   25.5538 C   0  0  0  0  0  0  0  0  0  0  0  0
   11.2094  -19.3417   24.2975 C   0  0  1  0  0  0  0  0  0  0  0  0
   11.2153  -17.8376   24.4038 N   0  0  0  0  0  0  0  0  0  0  0  0
   10.9334  -17.3497   23.0200 C   0  0  0  0  0  0  0  0  0  0  0  0
   12.5849  -17.4006   24.7455 O   0  0  0  0  0  0  0  0  0  0  0  0
   13.4751  -17.0975   23.7359 O   0  0  0  0  0  0  0  0  0  0  0  0
  2  3  2  0
  2  1  1  0
  4  2  1  0
  5  6  1  1
  5  4  1  0
  7  5  1  0
  8  7  2  0
 10  9  1  0
 10 12  1  0
 11 10  2  0
 12 13  1  0
 13 14  1  0
 16 15  1  1
 15 14  1  0
 16 17  1  0
 17  7  1  0
 18 16  1  0
 19 18  2  0
 20 21  1  0
 21 22  2  0
 23 21  1  0
 24 23  1  1
 24 25  1  0
 25 18  1  0
 26 27  1  0
 26 24  1  0
 28 26  2  0
M  END
$$$$
