NRN.pdb
     RDKit          3D

 28 27  0  0  1  0  0  0  0  0999 V2000
   11.9087  -14.5043   17.4753 N   0  0  0  0  0  0  0  0  0  0  0  0
   12.1882  -13.9008   18.7221 C   0  0  0  0  0  0  0  0  0  0  0  0
   13.3096  -13.3940   18.9367 O   0  0  0  0  0  0  0  0  0  0  0  0
   11.1556  -13.8718   19.7640 C   0  0  0  0  0  0  0  0  0  0  0  0
    9.8722  -14.5238   19.3366 C   0  0  2  0  0  0  0  0  0  0  0  0
    9.0797  -13.7223   18.4430 N   0  0  0  0  0  0  0  0  0  0  0  0
    9.1010  -14.8510   20.5900 C   0  0  0  0  0  0  0  0  0  0  0  0
    8.3878  -13.9850   21.1563 O   0  0  0  0  0  0  0  0  0  0  0  0
    3.6837  -18.4498   22.4890 N   0  0  0  0  0  0  0  0  0  0  0  0
    3.8571  -18.9800   21.1900 C   0  0  0  0  0  0  0  0  0  0  0  0
    2.8679  -18.9663   20.3449 N   0  0  0  0  0  0  0  0  0  0  0  0
    5.0927  -19.5409   20.7551 N   0  0  0  0  0  0  0  0  0  0  0  0
    6.2386  -19.3996   21.6095 C   0  0  0  0  0  0  0  0  0  0  0  0
    6.6523  -17.9293   21.6001 C   0  0  0  0  0  0  0  0  0  0  0  0
    7.9213  -17.8122   22.3950 C   0  0  0  0  0  0  0  0  0  0  0  0
    8.4878  -16.4321   22.4307 C   0  0  2  0  0  0  0  0  0  0  0  0
    9.1447  -16.1400   21.1826 N   0  0  0  0  0  0  0  0  0  0  0  0
    9.3695  -16.1472   23.5517 C   0  0  0  0  0  0  0  0  0  0  0  0
   10.6053  -16.3821   23.5766 O   0  0  0  0  0  0  0  0  0  0  0  0
    2.9516  -19.3678   19.3871 N   0  0  0  0  0  0  0  0  0  0  0  0
   10.9144  -14.4062   28.2715 C   0  0  0  0  0  0  0  0  0  0  0  0
    9.5535  -13.9694   28.0265 O   0  0  0  0  0  0  0  0  0  0  0  0
    8.9918  -13.2595   28.8858 C   0  0  0  0  0  0  0  0  0  0  0  0
    8.8947  -14.3724   26.7933 C   0  0  1  0  0  0  0  0  0  0  0  0
    9.7013  -15.2931   25.9126 N   0  0  0  0  0  0  0  0  0  0  0  0
    8.8303  -15.5581   24.7277 C   0  0  0  0  0  0  0  0  0  0  0  0
    9.8736  -16.5797   26.6186 O   0  0  0  0  0  0  0  0  0  0  0  0
   11.0912  -16.8848   27.1913 O   0  0  0  0  0  0  0  0  0  0  0  0
  2  3  2  0
  2  1  1  0
  4  2  1  0
  5  6  1  6
  5  4  1  0
  7  5  1  0
  8  7  2  0
 10  9  1  0
 10 12  1  0
 11 10  2  0
 12 13  1  0
 13 14  1  0
 16 15  1  6
 15 14  1  0
 16 17  1  0
 17  7  1  0
 18 16  1  0
 19 18  2  0
 20 21  1  0
 21 22  2  0
 23 21  1  0
 24 23  1  6
 24 25  1  0
 25 18  1  0
 26 27  1  0
 26 24  1  0
 28 26  2  0
M  END
$$$$
