NRN.pdb
     RDKit          3D

 28 27  0  0  1  0  0  0  0  0999 V2000
   15.7303  -14.4938   17.4737 N   0  0  0  0  0  0  0  0  0  0  0  0
   14.7415  -15.3222   18.0507 C   0  0  0  0  0  0  0  0  0  0  0  0
   14.5739  -16.4862   17.6295 O   0  0  0  0  0  0  0  0  0  0  0  0
   13.9121  -14.8096   19.1470 C   0  0  0  0  0  0  0  0  0  0  0  0
   12.4444  -15.0424   18.9310 C   0  0  2  0  0  0  0  0  0  0  0  0
   11.9531  -14.5439   17.6743 N   0  0  0  0  0  0  0  0  0  0  0  0
   11.7177  -14.3984   20.0841 C   0  0  0  0  0  0  0  0  0  0  0  0
   11.2351  -13.2427   19.9814 O   0  0  0  0  0  0  0  0  0  0  0  0
    7.3299  -12.4352   17.7509 N   0  0  0  0  0  0  0  0  0  0  0  0
    7.7938  -13.7488   17.5102 C   0  0  0  0  0  0  0  0  0  0  0  0
    8.2549  -14.0706   16.3368 N   0  0  0  0  0  0  0  0  0  0  0  0
    7.7787  -14.7580   18.5161 N   0  0  0  0  0  0  0  0  0  0  0  0
    7.2951  -14.4055   19.8218 C   0  0  0  0  0  0  0  0  0  0  0  0
    8.4945  -13.9837   20.6682 C   0  0  0  0  0  0  0  0  0  0  0  0
    9.1579  -15.2355   21.1670 C   0  0  0  0  0  0  0  0  0  0  0  0
   10.3169  -14.9863   22.0732 C   0  0  2  0  0  0  0  0  0  0  0  0
   11.5468  -15.0617   21.3273 N   0  0  0  0  0  0  0  0  0  0  0  0
   10.3815  -15.8342   23.2531 C   0  0  0  0  0  0  0  0  0  0  0  0
    9.3998  -16.1382   23.9788 O   0  0  0  0  0  0  0  0  0  0  0  0
    8.6599  -15.0100   16.1391 N   0  0  0  0  0  0  0  0  0  0  0  0
   11.2929  -18.8238   27.1337 C   0  0  0  0  0  0  0  0  0  0  0  0
   10.3075  -17.8029   26.8343 O   0  0  0  0  0  0  0  0  0  0  0  0
    9.3654  -17.6313   27.6348 C   0  0  0  0  0  0  0  0  0  0  0  0
   10.4519  -17.0188   25.6171 C   0  0  2  0  0  0  0  0  0  0  0  0
   11.7326  -17.2541   24.8568 N   0  0  0  0  0  0  0  0  0  0  0  0
   11.6330  -16.3801   23.6490 C   0  0  0  0  0  0  0  0  0  0  0  0
   11.7400  -18.6524   24.3789 O   0  0  0  0  0  0  0  0  0  0  0  0
   12.8407  -19.4487   24.6193 O   0  0  0  0  0  0  0  0  0  0  0  0
  2  3  2  0
  2  1  1  0
  4  2  1  0
  5  6  1  6
  5  4  1  0
  7  5  1  0
  8  7  2  0
 10  9  1  0
 10 12  1  0
 11 10  2  0
 12 13  1  0
 13 14  1  0
 16 15  1  6
 15 14  1  0
 16 17  1  0
 17  7  1  0
 18 16  1  0
 19 18  2  0
 20 21  1  0
 21 22  2  0
 23 21  1  0
 24 23  1  1
 24 25  1  0
 25 18  1  0
 26 27  1  0
 26 24  1  0
 28 26  2  0
M  END
$$$$
