NRN.pdb
     RDKit          3D

 28 27  0  0  1  0  0  0  0  0999 V2000
    7.5837  -12.0314   17.6085 N   0  0  0  0  0  0  0  0  0  0  0  0
    7.5922  -13.3997   17.9615 C   0  0  0  0  0  0  0  0  0  0  0  0
    7.6339  -14.2768   17.0732 O   0  0  0  0  0  0  0  0  0  0  0  0
    7.5519  -13.7862   19.3764 C   0  0  0  0  0  0  0  0  0  0  0  0
    8.9170  -13.9161   19.9884 C   0  0  2  0  0  0  0  0  0  0  0  0
    9.9264  -14.3741   19.0717 N   0  0  0  0  0  0  0  0  0  0  0  0
    8.7910  -14.8559   21.1604 C   0  0  0  0  0  0  0  0  0  0  0  0
    7.9373  -14.6573   22.0609 O   0  0  0  0  0  0  0  0  0  0  0  0
   11.9419  -21.5089   24.9678 N   0  0  0  0  0  0  0  0  0  0  0  0
   12.6340  -21.0632   23.8185 C   0  0  0  0  0  0  0  0  0  0  0  0
   13.9273  -21.1881   23.7492 N   0  0  0  0  0  0  0  0  0  0  0  0
   11.9649  -20.4703   22.7088 N   0  0  0  0  0  0  0  0  0  0  0  0
   10.5317  -20.5509   22.6603 C   0  0  0  0  0  0  0  0  0  0  0  0
    9.9696  -19.2324   23.1880 C   0  0  0  0  0  0  0  0  0  0  0  0
   10.0024  -18.2430   22.0583 C   0  0  0  0  0  0  0  0  0  0  0  0
    9.5322  -16.8780   22.4355 C   0  0  2  0  0  0  0  0  0  0  0  0
    9.6230  -15.9974   21.2993 N   0  0  0  0  0  0  0  0  0  0  0  0
   10.1870  -16.2890   23.5928 C   0  0  0  0  0  0  0  0  0  0  0  0
   11.3473  -15.8025   23.5964 O   0  0  0  0  0  0  0  0  0  0  0  0
   14.4716  -20.8659   22.9212 N   0  0  0  0  0  0  0  0  0  0  0  0
    8.9763  -12.7082   28.1625 C   0  0  0  0  0  0  0  0  0  0  0  0
    9.7496  -13.8324   27.6716 O   0  0  0  0  0  0  0  0  0  0  0  0
   10.7509  -14.1961   28.3219 C   0  0  0  0  0  0  0  0  0  0  0  0
    9.3323  -14.4931   26.4441 C   0  0  1  0  0  0  0  0  0  0  0  0
   10.1596  -15.6917   26.0537 N   0  0  0  0  0  0  0  0  0  0  0  0
    9.4949  -16.2412   24.8336 C   0  0  0  0  0  0  0  0  0  0  0  0
   10.0291  -16.7127   27.1139 O   0  0  0  0  0  0  0  0  0  0  0  0
   10.9553  -16.7562   28.1355 O   0  0  0  0  0  0  0  0  0  0  0  0
  2  3  2  0
  2  1  1  0
  4  2  1  0
  5  6  1  6
  5  4  1  0
  7  5  1  0
  8  7  2  0
 10  9  1  0
 10 12  1  0
 11 10  2  0
 12 13  1  0
 13 14  1  0
 16 15  1  6
 15 14  1  0
 16 17  1  0
 17  7  1  0
 18 16  1  0
 19 18  2  0
 20 21  1  0
 21 22  2  0
 23 21  1  0
 24 23  1  6
 24 25  1  0
 25 18  1  0
 26 27  1  0
 26 24  1  0
 28 26  2  0
M  END
$$$$
