NRN.pdb
     RDKit          3D

 28 27  0  0  1  0  0  0  0  0999 V2000
    9.6848  -18.2339   29.2937 N   0  0  0  0  0  0  0  0  0  0  0  0
    8.6573  -18.4716   28.3531 C   0  0  0  0  0  0  0  0  0  0  0  0
    7.5250  -18.8319   28.7381 O   0  0  0  0  0  0  0  0  0  0  0  0
    8.9261  -18.2936   26.9217 C   0  0  0  0  0  0  0  0  0  0  0  0
    7.6834  -18.3470   26.0802 C   0  0  2  0  0  0  0  0  0  0  0  0
    7.0533  -19.6397   26.0513 N   0  0  0  0  0  0  0  0  0  0  0  0
    8.0685  -17.9070   24.6907 C   0  0  0  0  0  0  0  0  0  0  0  0
    8.5132  -18.7293   23.8508 O   0  0  0  0  0  0  0  0  0  0  0  0
    9.4406  -13.3886   18.7094 N   0  0  0  0  0  0  0  0  0  0  0  0
    8.0495  -13.2425   18.5041 C   0  0  0  0  0  0  0  0  0  0  0  0
    7.5925  -12.9738   17.3158 N   0  0  0  0  0  0  0  0  0  0  0  0
    7.1051  -13.3789   19.5623 N   0  0  0  0  0  0  0  0  0  0  0  0
    7.5451  -13.1062   20.9021 C   0  0  0  0  0  0  0  0  0  0  0  0
    8.4536  -14.2534   21.3401 C   0  0  0  0  0  0  0  0  0  0  0  0
    7.8484  -14.8636   22.5720 C   0  0  0  0  0  0  0  0  0  0  0  0
    8.5745  -16.0685   23.0696 C   0  0  2  0  0  0  0  0  0  0  0  0
    7.9476  -16.5565   24.2710 N   0  0  0  0  0  0  0  0  0  0  0  0
   10.0045  -15.8972   23.2721 C   0  0  0  0  0  0  0  0  0  0  0  0
   10.5279  -15.2421   24.2101 O   0  0  0  0  0  0  0  0  0  0  0  0
    6.5813  -12.7962   17.1380 N   0  0  0  0  0  0  0  0  0  0  0  0
   14.0296  -18.4932   24.5289 C   0  0  0  0  0  0  0  0  0  0  0  0
   12.9058  -18.5359   23.6134 O   0  0  0  0  0  0  0  0  0  0  0  0
   11.9329  -19.2640   23.8979 C   0  0  0  0  0  0  0  0  0  0  0  0
   12.9526  -17.7319   22.4015 C   0  0  2  0  0  0  0  0  0  0  0  0
   12.3876  -16.3406   22.5387 N   0  0  0  0  0  0  0  0  0  0  0  0
   10.9128  -16.5014   22.3606 C   0  0  0  0  0  0  0  0  0  0  0  0
   12.8736  -15.5269   21.4051 O   0  0  0  0  0  0  0  0  0  0  0  0
   12.1481  -15.4903   20.2322 O   0  0  0  0  0  0  0  0  0  0  0  0
  2  3  2  0
  2  1  1  0
  4  2  1  0
  5  6  1  6
  5  4  1  0
  7  5  1  0
  8  7  2  0
 10  9  1  0
 10 12  1  0
 11 10  2  0
 12 13  1  0
 13 14  1  0
 16 15  1  1
 15 14  1  0
 16 17  1  0
 17  7  1  0
 18 16  1  0
 19 18  2  0
 20 21  1  0
 21 22  2  0
 23 21  1  0
 24 23  1  1
 24 25  1  0
 25 18  1  0
 26 27  1  0
 26 24  1  0
 28 26  2  0
M  END
$$$$
