NRN.pdb
     RDKit          3D

 28 27  0  0  1  0  0  0  0  0999 V2000
   15.4928  -13.6297   17.3061 N   0  0  0  0  0  0  0  0  0  0  0  0
   14.3792  -14.4997   17.3111 C   0  0  0  0  0  0  0  0  0  0  0  0
   14.2852  -15.4037   16.4543 O   0  0  0  0  0  0  0  0  0  0  0  0
   13.3333  -14.3368   18.3271 C   0  0  0  0  0  0  0  0  0  0  0  0
   13.3008  -15.4616   19.3215 C   0  0  2  0  0  0  0  0  0  0  0  0
   12.8330  -16.7083   18.7774 N   0  0  0  0  0  0  0  0  0  0  0  0
   12.4290  -15.0162   20.4679 C   0  0  0  0  0  0  0  0  0  0  0  0
   12.6213  -13.9124   21.0371 O   0  0  0  0  0  0  0  0  0  0  0  0
    8.7121  -14.2515   16.7448 N   0  0  0  0  0  0  0  0  0  0  0  0
    8.2788  -13.4219   17.8043 C   0  0  0  0  0  0  0  0  0  0  0  0
    8.7108  -12.1975   17.8897 N   0  0  0  0  0  0  0  0  0  0  0  0
    7.3711  -13.8757   18.8046 N   0  0  0  0  0  0  0  0  0  0  0  0
    7.7880  -14.9522   19.6593 C   0  0  0  0  0  0  0  0  0  0  0  0
    8.6131  -14.3549   20.7974 C   0  0  0  0  0  0  0  0  0  0  0  0
    9.0885  -15.4922   21.6557 C   0  0  0  0  0  0  0  0  0  0  0  0
   10.5250  -15.3952   22.0476 C   0  0  2  0  0  0  0  0  0  0  0  0
   11.3609  -15.8155   20.9525 N   0  0  0  0  0  0  0  0  0  0  0  0
   10.8889  -16.0979   23.2679 C   0  0  0  0  0  0  0  0  0  0  0  0
   10.1190  -16.2995   24.2423 O   0  0  0  0  0  0  0  0  0  0  0  0
    8.4528  -11.5728   18.6827 N   0  0  0  0  0  0  0  0  0  0  0  0
    9.5495  -19.9501   23.9625 C   0  0  0  0  0  0  0  0  0  0  0  0
   10.7183  -19.4241   24.6407 O   0  0  0  0  0  0  0  0  0  0  0  0
   10.7316  -19.4203   25.8888 C   0  0  0  0  0  0  0  0  0  0  0  0
   11.8287  -18.9221   23.8455 C   0  0  2  0  0  0  0  0  0  0  0  0
   12.5013  -17.6907   24.3978 N   0  0  0  0  0  0  0  0  0  0  0  0
   12.2073  -16.6110   23.4076 C   0  0  0  0  0  0  0  0  0  0  0  0
   13.9625  -17.9096   24.3773 O   0  0  0  0  0  0  0  0  0  0  0  0
   14.6920  -17.5357   23.2676 O   0  0  0  0  0  0  0  0  0  0  0  0
  2  3  2  0
  2  1  1  0
  4  2  1  0
  5  6  1  6
  5  4  1  0
  7  5  1  0
  8  7  2  0
 10  9  1  0
 10 12  1  0
 11 10  2  0
 12 13  1  0
 13 14  1  0
 16 15  1  6
 15 14  1  0
 16 17  1  0
 17  7  1  0
 18 16  1  0
 19 18  2  0
 20 21  1  0
 21 22  2  0
 23 21  1  0
 24 23  1  1
 24 25  1  0
 25 18  1  0
 26 27  1  0
 26 24  1  0
 28 26  2  0
M  END
$$$$
