NRN.pdb
     RDKit          3D

 28 27  0  0  1  0  0  0  0  0999 V2000
    9.6650  -20.1820   16.1697 N   0  0  0  0  0  0  0  0  0  0  0  0
    9.7262  -20.1040   17.5794 C   0  0  0  0  0  0  0  0  0  0  0  0
    9.5280  -21.1233   18.2735 O   0  0  0  0  0  0  0  0  0  0  0  0
   10.0236  -18.8203   18.2246 C   0  0  0  0  0  0  0  0  0  0  0  0
   10.0417  -18.9072   19.7237 C   0  0  2  0  0  0  0  0  0  0  0  0
    8.8527  -19.4866   20.2891 N   0  0  0  0  0  0  0  0  0  0  0  0
   10.2586  -17.5103   20.2473 C   0  0  0  0  0  0  0  0  0  0  0  0
   11.1702  -16.7794   19.7847 O   0  0  0  0  0  0  0  0  0  0  0  0
    7.8640  -14.7848   17.4539 N   0  0  0  0  0  0  0  0  0  0  0  0
    7.5771  -13.5304   18.0395 C   0  0  0  0  0  0  0  0  0  0  0  0
    8.0160  -12.4384   17.4847 N   0  0  0  0  0  0  0  0  0  0  0  0
    6.8128  -13.4054   19.2356 N   0  0  0  0  0  0  0  0  0  0  0  0
    7.0283  -14.3668   20.2806 C   0  0  0  0  0  0  0  0  0  0  0  0
    8.1970  -13.8781   21.1341 C   0  0  0  0  0  0  0  0  0  0  0  0
    8.4893  -14.9432   22.1520 C   0  0  0  0  0  0  0  0  0  0  0  0
    9.7520  -15.6957   21.8949 C   0  0  2  0  0  0  0  0  0  0  0  0
    9.4507  -16.9615   21.2772 N   0  0  0  0  0  0  0  0  0  0  0  0
   10.6144  -15.8831   23.0510 C   0  0  0  0  0  0  0  0  0  0  0  0
   10.2209  -15.9343   24.2449 O   0  0  0  0  0  0  0  0  0  0  0  0
    7.7969  -11.4949   17.8687 N   0  0  0  0  0  0  0  0  0  0  0  0
   14.4851  -17.5527   25.9783 C   0  0  0  0  0  0  0  0  0  0  0  0
   13.3682  -18.3201   25.4620 O   0  0  0  0  0  0  0  0  0  0  0  0
   13.1862  -19.4749   25.8989 C   0  0  0  0  0  0  0  0  0  0  0  0
   12.5037  -17.7187   24.4579 C   0  0  1  0  0  0  0  0  0  0  0  0
   12.9139  -16.3390   24.0088 N   0  0  0  0  0  0  0  0  0  0  0  0
   12.0158  -16.0226   22.8574 C   0  0  0  0  0  0  0  0  0  0  0  0
   14.2901  -16.4130   23.4758 O   0  0  0  0  0  0  0  0  0  0  0  0
   15.3583  -16.4380   24.3486 O   0  0  0  0  0  0  0  0  0  0  0  0
  2  3  2  0
  2  1  1  0
  4  2  1  0
  5  6  1  1
  5  4  1  0
  7  5  1  0
  8  7  2  0
 10  9  1  0
 10 12  1  0
 11 10  2  0
 12 13  1  0
 13 14  1  0
 16 15  1  1
 15 14  1  0
 16 17  1  0
 17  7  1  0
 18 16  1  0
 19 18  2  0
 20 21  1  0
 21 22  2  0
 23 21  1  0
 24 23  1  1
 24 25  1  0
 25 18  1  0
 26 27  1  0
 26 24  1  0
 28 26  2  0
M  END
$$$$
