NRN.pdb
     RDKit          3D

 28 27  0  0  1  0  0  0  0  0999 V2000
   15.0918  -13.1511   17.4062 N   0  0  0  0  0  0  0  0  0  0  0  0
   15.1914  -14.2634   18.2722 C   0  0  0  0  0  0  0  0  0  0  0  0
   15.9840  -15.1929   18.0113 O   0  0  0  0  0  0  0  0  0  0  0  0
   14.3598  -14.3221   19.4795 C   0  0  0  0  0  0  0  0  0  0  0  0
   13.5829  -15.6020   19.5953 C   0  0  2  0  0  0  0  0  0  0  0  0
   12.7070  -15.8558   18.4829 N   0  0  0  0  0  0  0  0  0  0  0  0
   12.8056  -15.5350   20.8853 C   0  0  0  0  0  0  0  0  0  0  0  0
   13.3684  -15.2247   21.9652 O   0  0  0  0  0  0  0  0  0  0  0  0
    8.6320  -11.8219   18.6131 N   0  0  0  0  0  0  0  0  0  0  0  0
    8.2518  -13.1210   18.2052 C   0  0  0  0  0  0  0  0  0  0  0  0
    8.3914  -13.4791   16.9621 N   0  0  0  0  0  0  0  0  0  0  0  0
    7.7108  -14.0765   19.1134 N   0  0  0  0  0  0  0  0  0  0  0  0
    7.7420  -13.7705   20.5164 C   0  0  0  0  0  0  0  0  0  0  0  0
    9.1817  -13.9329   21.0000 C   0  0  0  0  0  0  0  0  0  0  0  0
    9.2527  -15.2108   21.7862 C   0  0  0  0  0  0  0  0  0  0  0  0
   10.6413  -15.6281   22.1387 C   0  0  2  0  0  0  0  0  0  0  0  0
   11.4155  -15.8165   20.9388 N   0  0  0  0  0  0  0  0  0  0  0  0
   10.7434  -16.7943   23.0017 C   0  0  0  0  0  0  0  0  0  0  0  0
   10.6933  -17.9890   22.6106 O   0  0  0  0  0  0  0  0  0  0  0  0
    8.1267  -14.4291   16.6259 N   0  0  0  0  0  0  0  0  0  0  0  0
   12.0643  -19.5332   27.4708 C   0  0  0  0  0  0  0  0  0  0  0  0
   11.5771  -18.1892   27.7137 O   0  0  0  0  0  0  0  0  0  0  0  0
   11.2014  -17.8908   28.8659 C   0  0  0  0  0  0  0  0  0  0  0  0
   11.5439  -17.2410   26.6105 C   0  0  1  0  0  0  0  0  0  0  0  0
   10.9929  -17.7878   25.3178 N   0  0  0  0  0  0  0  0  0  0  0  0
   10.9134  -16.6105   24.4011 C   0  0  0  0  0  0  0  0  0  0  0  0
    9.6077  -18.2428   25.5579 O   0  0  0  0  0  0  0  0  0  0  0  0
    8.5524  -17.5017   25.0674 O   0  0  0  0  0  0  0  0  0  0  0  0
  2  3  2  0
  2  1  1  0
  4  2  1  0
  5  6  1  6
  5  4  1  0
  7  5  1  0
  8  7  2  0
 10  9  1  0
 10 12  1  0
 11 10  2  0
 12 13  1  0
 13 14  1  0
 16 15  1  6
 15 14  1  0
 16 17  1  0
 17  7  1  0
 18 16  1  0
 19 18  2  0
 20 21  1  0
 21 22  2  0
 23 21  1  0
 24 23  1  6
 24 25  1  0
 25 18  1  0
 26 27  1  0
 26 24  1  0
 28 26  2  0
M  END
$$$$
