NRN.pdb
     RDKit          3D

 28 27  0  0  1  0  0  0  0  0999 V2000
    4.0463  -21.2199   22.7639 N   0  0  0  0  0  0  0  0  0  0  0  0
    5.2998  -21.2902   23.4125 C   0  0  0  0  0  0  0  0  0  0  0  0
    5.4819  -22.1077   24.3392 O   0  0  0  0  0  0  0  0  0  0  0  0
    6.3870  -20.3988   22.9930 C   0  0  0  0  0  0  0  0  0  0  0  0
    6.9782  -19.6181   24.1314 C   0  0  2  0  0  0  0  0  0  0  0  0
    5.9996  -19.0387   25.0122 N   0  0  0  0  0  0  0  0  0  0  0  0
    7.8566  -18.5509   23.5297 C   0  0  0  0  0  0  0  0  0  0  0  0
    8.8260  -18.8517   22.7887 O   0  0  0  0  0  0  0  0  0  0  0  0
    6.9818  -12.5543   18.1402 N   0  0  0  0  0  0  0  0  0  0  0  0
    7.7550  -13.7237   18.3220 C   0  0  0  0  0  0  0  0  0  0  0  0
    8.0369  -14.4817   17.3027 N   0  0  0  0  0  0  0  0  0  0  0  0
    8.2502  -14.1185   19.5986 N   0  0  0  0  0  0  0  0  0  0  0  0
    7.7617  -13.4258   20.7581 C   0  0  0  0  0  0  0  0  0  0  0  0
    8.4956  -13.9782   21.9784 C   0  0  0  0  0  0  0  0  0  0  0  0
    7.6889  -15.1293   22.5079 C   0  0  0  0  0  0  0  0  0  0  0  0
    8.4967  -16.1489   23.2389 C   0  0  2  0  0  0  0  0  0  0  0  0
    7.6313  -17.1704   23.7701 N   0  0  0  0  0  0  0  0  0  0  0  0
    9.3698  -15.6267   24.2783 C   0  0  0  0  0  0  0  0  0  0  0  0
   10.1466  -14.6462   24.1440 O   0  0  0  0  0  0  0  0  0  0  0  0
    8.5923  -15.3578   17.4004 N   0  0  0  0  0  0  0  0  0  0  0  0
    9.3513  -13.6042   29.6410 C   0  0  0  0  0  0  0  0  0  0  0  0
   10.1447  -14.2083   28.5881 O   0  0  0  0  0  0  0  0  0  0  0  0
   11.3869  -14.2167   28.7085 C   0  0  0  0  0  0  0  0  0  0  0  0
    9.4671  -14.7804   27.4345 C   0  0  2  0  0  0  0  0  0  0  0  0
   10.2892  -15.7589   26.6342 N   0  0  0  0  0  0  0  0  0  0  0  0
    9.3741  -16.2456   25.5581 C   0  0  0  0  0  0  0  0  0  0  0  0
   10.5998  -16.9191   27.4950 O   0  0  0  0  0  0  0  0  0  0  0  0
    9.6134  -17.8416   27.7770 O   0  0  0  0  0  0  0  0  0  0  0  0
  2  3  2  0
  2  1  1  0
  4  2  1  0
  5  6  1  6
  5  4  1  0
  7  5  1  0
  8  7  2  0
 10  9  1  0
 10 12  1  0
 11 10  2  0
 12 13  1  0
 13 14  1  0
 16 15  1  1
 15 14  1  0
 16 17  1  0
 17  7  1  0
 18 16  1  0
 19 18  2  0
 20 21  1  0
 21 22  2  0
 23 21  1  0
 24 23  1  6
 24 25  1  0
 25 18  1  0
 26 27  1  0
 26 24  1  0
 28 26  2  0
M  END
$$$$
