NRN.pdb
     RDKit          3D

 28 27  0  0  1  0  0  0  0  0999 V2000
    8.0274  -12.0264   18.4703 N   0  0  0  0  0  0  0  0  0  0  0  0
    7.6706  -13.3890   18.5850 C   0  0  0  0  0  0  0  0  0  0  0  0
    7.4801  -14.0763   17.5596 O   0  0  0  0  0  0  0  0  0  0  0  0
    7.5249  -13.9933   19.9140 C   0  0  0  0  0  0  0  0  0  0  0  0
    8.7413  -14.7603   20.3466 C   0  0  2  0  0  0  0  0  0  0  0  0
    9.0926  -15.8424   19.4663 N   0  0  0  0  0  0  0  0  0  0  0  0
    8.4740  -15.2683   21.7405 C   0  0  0  0  0  0  0  0  0  0  0  0
    8.0820  -14.4929   22.6484 O   0  0  0  0  0  0  0  0  0  0  0  0
    9.1442  -20.1295   19.6365 N   0  0  0  0  0  0  0  0  0  0  0  0
    7.9031  -20.8047   19.6854 C   0  0  0  0  0  0  0  0  0  0  0  0
    7.2622  -21.0674   18.5840 N   0  0  0  0  0  0  0  0  0  0  0  0
    7.3095  -21.2192   20.9128 N   0  0  0  0  0  0  0  0  0  0  0  0
    7.8422  -20.6876   22.1361 C   0  0  0  0  0  0  0  0  0  0  0  0
    7.7828  -19.1638   22.0506 C   0  0  0  0  0  0  0  0  0  0  0  0
    8.2414  -18.6190   23.3731 C   0  0  0  0  0  0  0  0  0  0  0  0
    8.3578  -17.1317   23.4074 C   0  0  2  0  0  0  0  0  0  0  0  0
    8.6510  -16.6330   22.0883 N   0  0  0  0  0  0  0  0  0  0  0  0
    9.3032  -16.6009   24.3768 C   0  0  0  0  0  0  0  0  0  0  0  0
   10.5408  -16.4783   24.1864 O   0  0  0  0  0  0  0  0  0  0  0  0
    6.3255  -21.5238   18.5833 N   0  0  0  0  0  0  0  0  0  0  0  0
   10.9810  -14.4636   28.9062 C   0  0  0  0  0  0  0  0  0  0  0  0
    9.6995  -13.9258   28.4921 O   0  0  0  0  0  0  0  0  0  0  0  0
    9.2266  -12.9593   29.1245 C   0  0  0  0  0  0  0  0  0  0  0  0
    9.0142  -14.5295   27.3593 C   0  0  1  0  0  0  0  0  0  0  0  0
    9.7768  -15.6313   26.6678 N   0  0  0  0  0  0  0  0  0  0  0  0
    8.8304  -16.1778   25.6489 C   0  0  0  0  0  0  0  0  0  0  0  0
   10.0275  -16.7093   27.6469 O   0  0  0  0  0  0  0  0  0  0  0  0
    9.3333  -17.8972   27.5450 O   0  0  0  0  0  0  0  0  0  0  0  0
  2  3  2  0
  2  1  1  0
  4  2  1  0
  5  6  1  6
  5  4  1  0
  7  5  1  0
  8  7  2  0
 10  9  1  0
 10 12  1  0
 11 10  2  0
 12 13  1  0
 13 14  1  0
 16 15  1  6
 15 14  1  0
 16 17  1  0
 17  7  1  0
 18 16  1  0
 19 18  2  0
 20 21  1  0
 21 22  2  0
 23 21  1  0
 24 23  1  6
 24 25  1  0
 25 18  1  0
 26 27  1  0
 26 24  1  0
 28 26  2  0
M  END
$$$$
