NRN.pdb
     RDKit          3D

 28 27  0  0  1  0  0  0  0  0999 V2000
    9.5441  -15.3429   14.0442 N   0  0  0  0  0  0  0  0  0  0  0  0
    8.7320  -15.8801   15.0684 C   0  0  0  0  0  0  0  0  0  0  0  0
    7.7089  -16.5358   14.7792 O   0  0  0  0  0  0  0  0  0  0  0  0
    9.0954  -15.6644   16.4734 C   0  0  0  0  0  0  0  0  0  0  0  0
    8.0000  -15.0157   17.2700 C   0  0  2  0  0  0  0  0  0  0  0  0
    7.7073  -13.6658   16.8685 N   0  0  0  0  0  0  0  0  0  0  0  0
    8.4143  -15.0663   18.7186 C   0  0  0  0  0  0  0  0  0  0  0  0
    9.4266  -14.4424   19.1250 O   0  0  0  0  0  0  0  0  0  0  0  0
    4.6214  -19.4367   20.1182 N   0  0  0  0  0  0  0  0  0  0  0  0
    4.8057  -20.2136   21.2848 C   0  0  0  0  0  0  0  0  0  0  0  0
    4.4600  -21.4680   21.2918 N   0  0  0  0  0  0  0  0  0  0  0  0
    5.3646  -19.6735   22.4791 N   0  0  0  0  0  0  0  0  0  0  0  0
    5.5127  -18.2479   22.5730 C   0  0  0  0  0  0  0  0  0  0  0  0
    6.6655  -17.8349   21.6599 C   0  0  0  0  0  0  0  0  0  0  0  0
    6.9187  -16.3717   21.8860 C   0  0  0  0  0  0  0  0  0  0  0  0
    8.0442  -15.8202   21.0763 C   0  0  2  0  0  0  0  0  0  0  0  0
    7.6868  -15.8140   19.6811 N   0  0  0  0  0  0  0  0  0  0  0  0
    9.3312  -16.4689   21.2717 C   0  0  0  0  0  0  0  0  0  0  0  0
    9.9076  -17.1998   20.4253 O   0  0  0  0  0  0  0  0  0  0  0  0
    4.5562  -22.0647   22.1405 N   0  0  0  0  0  0  0  0  0  0  0  0
   14.0293  -17.3212   21.7616 C   0  0  0  0  0  0  0  0  0  0  0  0
   13.5786  -15.9507   21.6154 O   0  0  0  0  0  0  0  0  0  0  0  0
   14.3355  -15.1311   21.0558 C   0  0  0  0  0  0  0  0  0  0  0  0
   12.2661  -15.5820   22.1240 C   0  0  2  0  0  0  0  0  0  0  0  0
   11.4410  -16.7303   22.6479 N   0  0  0  0  0  0  0  0  0  0  0  0
   10.0217  -16.2870   22.5010 C   0  0  0  0  0  0  0  0  0  0  0  0
   11.7028  -16.8690   24.0955 O   0  0  0  0  0  0  0  0  0  0  0  0
   12.6704  -17.7506   24.5315 O   0  0  0  0  0  0  0  0  0  0  0  0
  2  3  2  0
  2  1  1  0
  4  2  1  0
  5  6  1  6
  5  4  1  0
  7  5  1  0
  8  7  2  0
 10  9  1  0
 10 12  1  0
 11 10  2  0
 12 13  1  0
 13 14  1  0
 16 15  1  1
 15 14  1  0
 16 17  1  0
 17  7  1  0
 18 16  1  0
 19 18  2  0
 20 21  1  0
 21 22  2  0
 23 21  1  0
 24 23  1  6
 24 25  1  0
 25 18  1  0
 26 27  1  0
 26 24  1  0
 28 26  2  0
M  END
$$$$
