NRN.pdb
     RDKit          3D

 28 27  0  0  1  0  0  0  0  0999 V2000
   14.1085  -16.2751   16.6941 N   0  0  0  0  0  0  0  0  0  0  0  0
   14.0465  -14.8898   16.9662 C   0  0  0  0  0  0  0  0  0  0  0  0
   14.3963  -14.0633   16.0975 O   0  0  0  0  0  0  0  0  0  0  0  0
   13.5695  -14.4259   18.2739 C   0  0  0  0  0  0  0  0  0  0  0  0
   13.2725  -15.5510   19.2231 C   0  0  2  0  0  0  0  0  0  0  0  0
   12.4804  -16.6055   18.6488 N   0  0  0  0  0  0  0  0  0  0  0  0
   12.5797  -14.9513   20.4202 C   0  0  0  0  0  0  0  0  0  0  0  0
   13.2079  -14.2376   21.2420 O   0  0  0  0  0  0  0  0  0  0  0  0
    6.0081  -13.0586   17.1677 N   0  0  0  0  0  0  0  0  0  0  0  0
    7.3495  -13.4876   17.0453 C   0  0  0  0  0  0  0  0  0  0  0  0
    7.7419  -14.0941   15.9631 N   0  0  0  0  0  0  0  0  0  0  0  0
    8.3120  -13.2818   18.0758 N   0  0  0  0  0  0  0  0  0  0  0  0
    7.9780  -13.7019   19.4080 C   0  0  0  0  0  0  0  0  0  0  0  0
    9.0926  -13.2329   20.3411 C   0  0  0  0  0  0  0  0  0  0  0  0
    9.1576  -14.1998   21.4888 C   0  0  0  0  0  0  0  0  0  0  0  0
   10.5424  -14.6316   21.8385 C   0  0  2  0  0  0  0  0  0  0  0  0
   11.1990  -15.1632   20.6719 N   0  0  0  0  0  0  0  0  0  0  0  0
   10.6446  -15.5622   22.9515 C   0  0  0  0  0  0  0  0  0  0  0  0
    9.7709  -15.7214   23.8426 O   0  0  0  0  0  0  0  0  0  0  0  0
    8.7123  -14.4569   15.8519 N   0  0  0  0  0  0  0  0  0  0  0  0
   11.3898  -19.7874   25.5983 C   0  0  0  0  0  0  0  0  0  0  0  0
   10.2504  -19.2341   24.8923 O   0  0  0  0  0  0  0  0  0  0  0  0
    9.1459  -19.8046   25.0042 C   0  0  0  0  0  0  0  0  0  0  0  0
   10.4348  -18.0392   24.0827 C   0  0  1  0  0  0  0  0  0  0  0  0
   11.8436  -17.5026   24.0520 N   0  0  0  0  0  0  0  0  0  0  0  0
   11.8067  -16.3715   23.0763 C   0  0  0  0  0  0  0  0  0  0  0  0
   12.7245  -18.5405   23.4773 O   0  0  0  0  0  0  0  0  0  0  0  0
   13.9182  -18.8420   24.0999 O   0  0  0  0  0  0  0  0  0  0  0  0
  2  3  2  0
  2  1  1  0
  4  2  1  0
  5  6  1  6
  5  4  1  0
  7  5  1  0
  8  7  2  0
 10  9  1  0
 10 12  1  0
 11 10  2  0
 12 13  1  0
 13 14  1  0
 16 15  1  6
 15 14  1  0
 16 17  1  0
 17  7  1  0
 18 16  1  0
 19 18  2  0
 20 21  1  0
 21 22  2  0
 23 21  1  0
 24 23  1  1
 24 25  1  0
 25 18  1  0
 26 27  1  0
 26 24  1  0
 28 26  2  0
M  END
$$$$
