NRN.pdb
     RDKit          3D

 28 27  0  0  1  0  0  0  0  0999 V2000
    5.1371  -22.6492   26.4156 N   0  0  0  0  0  0  0  0  0  0  0  0
    5.4828  -23.0177   25.0959 C   0  0  0  0  0  0  0  0  0  0  0  0
    5.5009  -24.2220   24.7649 O   0  0  0  0  0  0  0  0  0  0  0  0
    5.8206  -21.9797   24.1155 C   0  0  0  0  0  0  0  0  0  0  0  0
    5.8021  -20.5952   24.6968 C   0  0  2  0  0  0  0  0  0  0  0  0
    4.5193  -19.9485   24.6236 N   0  0  0  0  0  0  0  0  0  0  0  0
    6.8494  -19.7929   23.9673 C   0  0  0  0  0  0  0  0  0  0  0  0
    7.9067  -20.3318   23.5540 O   0  0  0  0  0  0  0  0  0  0  0  0
    6.9587  -11.9722   19.7611 N   0  0  0  0  0  0  0  0  0  0  0  0
    7.8240  -12.8768   19.1040 C   0  0  0  0  0  0  0  0  0  0  0  0
    8.3445  -12.5598   17.9544 N   0  0  0  0  0  0  0  0  0  0  0  0
    8.1589  -14.1472   19.6556 N   0  0  0  0  0  0  0  0  0  0  0  0
    7.3627  -14.6447   20.7426 C   0  0  0  0  0  0  0  0  0  0  0  0
    7.9755  -15.9644   21.2074 C   0  0  0  0  0  0  0  0  0  0  0  0
    7.0908  -16.5174   22.2879 C   0  0  0  0  0  0  0  0  0  0  0  0
    7.7149  -17.6203   23.0756 C   0  0  2  0  0  0  0  0  0  0  0  0
    6.6909  -18.4049   23.7162 N   0  0  0  0  0  0  0  0  0  0  0  0
    8.7214  -17.2072   24.0408 C   0  0  0  0  0  0  0  0  0  0  0  0
    8.5150  -17.0314   25.2693 O   0  0  0  0  0  0  0  0  0  0  0  0
    8.9284  -13.2273   17.4075 N   0  0  0  0  0  0  0  0  0  0  0  0
   13.1501  -19.8989   25.6803 C   0  0  0  0  0  0  0  0  0  0  0  0
   12.3309  -18.7376   25.9687 O   0  0  0  0  0  0  0  0  0  0  0  0
   12.6132  -18.0423   26.9660 C   0  0  0  0  0  0  0  0  0  0  0  0
   11.2144  -18.4262   25.0891 C   0  0  2  0  0  0  0  0  0  0  0  0
   11.1908  -17.0117   24.5673 N   0  0  0  0  0  0  0  0  0  0  0  0
   10.0527  -16.9739   23.6000 C   0  0  0  0  0  0  0  0  0  0  0  0
   12.4264  -16.7817   23.7901 O   0  0  0  0  0  0  0  0  0  0  0  0
   12.6062  -17.4338   22.5877 O   0  0  0  0  0  0  0  0  0  0  0  0
  2  3  2  0
  2  1  1  0
  4  2  1  0
  5  6  1  6
  5  4  1  0
  7  5  1  0
  8  7  2  0
 10  9  1  0
 10 12  1  0
 11 10  2  0
 12 13  1  0
 13 14  1  0
 16 15  1  1
 15 14  1  0
 16 17  1  0
 17  7  1  0
 18 16  1  0
 19 18  2  0
 20 21  1  0
 21 22  2  0
 23 21  1  0
 24 23  1  1
 24 25  1  0
 25 18  1  0
 26 27  1  0
 26 24  1  0
 28 26  2  0
M  END
$$$$
