TMD.pdb
     RDKit          3D

 24 23  0  0  1  0  0  0  0  0999 V2000
   24.7325  -12.6356  -21.1996 C   0  0  0  0  0  0  0  0  0  0  0  0
   24.3900  -13.4871  -20.0318 C   0  0  1  0  0  0  0  0  0  0  0  0
   24.0824  -14.7709  -20.4745 O   0  0  0  0  0  0  0  0  0  0  0  0
   25.4819  -13.6182  -18.9897 C   0  0  2  0  0  0  0  0  0  0  0  0
   24.9310  -14.5493  -17.9986 N   0  0  0  0  0  0  0  0  0  0  0  0
   25.8682  -12.3239  -18.4021 C   0  0  0  0  0  0  0  0  0  0  0  0
   25.0277  -11.7081  -17.6746 O   0  0  0  0  0  0  0  0  0  0  0  0
   31.4114   -6.7141  -17.2460 C   0  0  0  0  0  0  0  0  0  0  0  0
   31.0242   -8.3330  -17.9737 S   0  0  0  0  0  0  0  0  0  0  0  0
   29.2394   -8.6565  -17.7166 C   0  0  0  0  0  0  0  0  0  0  0  0
   28.8794  -10.0271  -18.2322 C   0  0  0  0  0  0  0  0  0  0  0  0
   27.4188  -10.3404  -18.0717 C   0  0  2  0  0  0  0  0  0  0  0  0
   27.1164  -11.6830  -18.5737 N   0  0  0  0  0  0  0  0  0  0  0  0
   26.5072   -9.3394  -18.6308 C   0  0  0  0  0  0  0  0  0  0  0  0
   26.3473   -9.1779  -19.8606 O   0  0  0  0  0  0  0  0  0  0  0  0
   25.7230   -8.4637  -17.8052 N   0  0  0  0  0  0  0  0  0  0  0  0
   24.7905   -7.4860  -18.3499 C   0  0  1  0  0  0  0  0  0  0  0  0
   23.6425   -8.1547  -19.0595 C   0  0  0  0  0  0  0  0  0  0  0  0
   22.6286   -7.1911  -19.5396 C   0  0  0  0  0  0  0  0  0  0  0  0
   22.7916   -6.4885  -20.5698 O   0  0  0  0  0  0  0  0  0  0  0  0
   24.3271   -6.6378  -17.2363 C   0  0  0  0  0  0  0  0  0  0  0  0
   24.7731   -6.8959  -15.9415 O   0  0  0  0  0  0  0  0  0  0  0  0
   21.4251   -7.0248  -18.8474 O   0  0  0  0  0  0  0  0  0  0  0  0
   23.5379   -5.6888  -17.4358 O   0  0  0  0  0  0  0  0  0  0  0  0
  2  1  1  6
  2  3  1  0
  4  6  1  0
  4  2  1  0
  4  5  1  1
  6 13  1  0
  6  7  2  0
  8  9  1  0
  9 10  1  0
 10 11  1  0
 12 11  1  6
 12 14  1  0
 13 12  1  0
 14 16  1  0
 14 15  2  0
 16 17  1  0
 17 21  1  0
 17 18  1  1
 19 20  2  0
 19 18  1  0
 21 22  1  0
 23 19  1  0
 24 21  2  0
M  END
$$$$
