TMD.pdb
     RDKit          3D

 24 23  0  0  1  0  0  0  0  0999 V2000
   20.2973   -9.0732  -20.1551 C   0  0  0  0  0  0  0  0  0  0  0  0
   20.1497  -10.4857  -19.7202 C   0  0  1  0  0  0  0  0  0  0  0  0
   19.7641  -11.2631  -20.8092 O   0  0  0  0  0  0  0  0  0  0  0  0
   21.3998  -11.1127  -19.1375 C   0  0  2  0  0  0  0  0  0  0  0  0
   21.0290  -12.5120  -18.8983 N   0  0  0  0  0  0  0  0  0  0  0  0
   21.8652  -10.4304  -17.9180 C   0  0  0  0  0  0  0  0  0  0  0  0
   21.1340  -10.4696  -16.8792 O   0  0  0  0  0  0  0  0  0  0  0  0
   27.6184  -12.4527  -15.4955 C   0  0  0  0  0  0  0  0  0  0  0  0
   27.1775  -10.7041  -15.7161 S   0  0  0  0  0  0  0  0  0  0  0  0
   25.3785  -10.6120  -16.0502 C   0  0  0  0  0  0  0  0  0  0  0  0
   24.9757   -9.1886  -16.3423 C   0  0  0  0  0  0  0  0  0  0  0  0
   23.4965   -9.0385  -16.5580 C   0  0  2  0  0  0  0  0  0  0  0  0
   23.0784   -9.7168  -17.7873 N   0  0  0  0  0  0  0  0  0  0  0  0
   23.0017   -7.6607  -16.5094 C   0  0  0  0  0  0  0  0  0  0  0  0
   22.8906   -6.9425  -17.5272 O   0  0  0  0  0  0  0  0  0  0  0  0
   22.6036   -7.0269  -15.2834 N   0  0  0  0  0  0  0  0  0  0  0  0
   22.0666   -5.6738  -15.2292 C   0  0  1  0  0  0  0  0  0  0  0  0
   20.6407   -5.6267  -15.7122 C   0  0  0  0  0  0  0  0  0  0  0  0
   20.0389   -4.2817  -15.5858 C   0  0  0  0  0  0  0  0  0  0  0  0
   20.7280   -3.2331  -15.5014 O   0  0  0  0  0  0  0  0  0  0  0  0
   22.1905   -5.1962  -13.8396 C   0  0  0  0  0  0  0  0  0  0  0  0
   21.8907   -3.8693  -13.5377 O   0  0  0  0  0  0  0  0  0  0  0  0
   18.6496   -4.1270  -15.5553 O   0  0  0  0  0  0  0  0  0  0  0  0
   22.5616   -5.9648  -12.9260 O   0  0  0  0  0  0  0  0  0  0  0  0
  2  1  1  6
  2  3  1  0
  4  6  1  0
  4  2  1  0
  4  5  1  1
  6 13  1  0
  6  7  2  0
  8  9  1  0
  9 10  1  0
 10 11  1  0
 12 11  1  6
 12 14  1  0
 13 12  1  0
 14 16  1  0
 14 15  2  0
 16 17  1  0
 17 21  1  0
 17 18  1  1
 19 20  2  0
 19 18  1  0
 21 22  1  0
 23 19  1  0
 24 21  2  0
M  END
$$$$
