TMD.pdb
     RDKit          3D

 24 23  0  0  1  0  0  0  0  0999 V2000
   26.8988  -18.1449  -14.6684 C   0  0  0  0  0  0  0  0  0  0  0  0
   27.3929  -19.3499  -15.3827 C   0  0  1  0  0  0  0  0  0  0  0  0
   28.4374  -18.9858  -16.2286 O   0  0  0  0  0  0  0  0  0  0  0  0
   27.9020  -20.4627  -14.4895 C   0  0  2  0  0  0  0  0  0  0  0  0
   28.3718  -21.4935  -15.4221 N   0  0  0  0  0  0  0  0  0  0  0  0
   26.8755  -20.9621  -13.5587 C   0  0  0  0  0  0  0  0  0  0  0  0
   26.0800  -21.8699  -13.9564 O   0  0  0  0  0  0  0  0  0  0  0  0
   28.6269  -20.4806   -6.9995 C   0  0  0  0  0  0  0  0  0  0  0  0
   27.0295  -19.9786   -7.7042 S   0  0  0  0  0  0  0  0  0  0  0  0
   26.8633  -20.7688   -9.3487 C   0  0  0  0  0  0  0  0  0  0  0  0
   25.6234  -20.2664  -10.0445 C   0  0  0  0  0  0  0  0  0  0  0  0
   25.4846  -20.8052  -11.4401 C   0  0  2  0  0  0  0  0  0  0  0  0
   26.6838  -20.5175  -12.2307 N   0  0  0  0  0  0  0  0  0  0  0  0
   24.2665  -20.3947  -12.1424 C   0  0  0  0  0  0  0  0  0  0  0  0
   24.1801  -19.3249  -12.7843 O   0  0  0  0  0  0  0  0  0  0  0  0
   23.0729  -21.1940  -12.1483 N   0  0  0  0  0  0  0  0  0  0  0  0
   21.8975  -20.8567  -12.9399 C   0  0  1  0  0  0  0  0  0  0  0  0
   21.9261  -21.5333  -14.2853 C   0  0  0  0  0  0  0  0  0  0  0  0
   20.7160  -21.2573  -15.0894 C   0  0  0  0  0  0  0  0  0  0  0  0
   19.7476  -20.5844  -14.6525 O   0  0  0  0  0  0  0  0  0  0  0  0
   20.7056  -21.2380  -12.1601 C   0  0  0  0  0  0  0  0  0  0  0  0
   20.8140  -22.2083  -11.1658 O   0  0  0  0  0  0  0  0  0  0  0  0
   20.6054  -21.7471  -16.3944 O   0  0  0  0  0  0  0  0  0  0  0  0
   19.5965  -20.7035  -12.3777 O   0  0  0  0  0  0  0  0  0  0  0  0
  2  1  1  1
  2  3  1  0
  4  6  1  0
  4  2  1  0
  4  5  1  6
  6 13  1  0
  6  7  2  0
  8  9  1  0
  9 10  1  0
 10 11  1  0
 12 11  1  1
 12 14  1  0
 13 12  1  0
 14 16  1  0
 14 15  2  0
 16 17  1  0
 17 21  1  0
 17 18  1  6
 19 20  2  0
 19 18  1  0
 21 22  1  0
 23 19  1  0
 24 21  2  0
M  END
$$$$
