TMD.pdb
     RDKit          3D

 24 23  0  0  1  0  0  0  0  0999 V2000
   29.3872  -20.5056  -14.0468 C   0  0  0  0  0  0  0  0  0  0  0  0
   28.4517  -19.4518  -14.5165 C   0  0  1  0  0  0  0  0  0  0  0  0
   28.9925  -18.8238  -15.6355 O   0  0  0  0  0  0  0  0  0  0  0  0
   27.0699  -19.9424  -14.8974 C   0  0  2  0  0  0  0  0  0  0  0  0
   26.3792  -18.7441  -15.3873 N   0  0  0  0  0  0  0  0  0  0  0  0
   26.3647  -20.5882  -13.7771 C   0  0  0  0  0  0  0  0  0  0  0  0
   25.9667  -21.7871  -13.9155 O   0  0  0  0  0  0  0  0  0  0  0  0
   27.7381  -19.8965   -7.6882 C   0  0  0  0  0  0  0  0  0  0  0  0
   26.0090  -20.3478   -7.3610 S   0  0  0  0  0  0  0  0  0  0  0  0
   25.2602  -20.9005   -8.9390 C   0  0  0  0  0  0  0  0  0  0  0  0
   25.9728  -20.2626  -10.1047 C   0  0  0  0  0  0  0  0  0  0  0  0
   25.3991  -20.6763  -11.4303 C   0  0  2  0  0  0  0  0  0  0  0  0
   26.0796  -19.9877  -12.5296 N   0  0  0  0  0  0  0  0  0  0  0  0
   23.9434  -20.5542  -11.5385 C   0  0  0  0  0  0  0  0  0  0  0  0
   23.1515  -21.2498  -10.8654 O   0  0  0  0  0  0  0  0  0  0  0  0
   23.3117  -19.6212  -12.4294 N   0  0  0  0  0  0  0  0  0  0  0  0
   22.1161  -19.9437  -13.1966 C   0  0  1  0  0  0  0  0  0  0  0  0
   22.3645  -21.0808  -14.1527 C   0  0  0  0  0  0  0  0  0  0  0  0
   21.3403  -21.1672  -15.2160 C   0  0  0  0  0  0  0  0  0  0  0  0
   21.0773  -22.2372  -15.8221 O   0  0  0  0  0  0  0  0  0  0  0  0
   21.0390  -20.2577  -12.2398 C   0  0  0  0  0  0  0  0  0  0  0  0
   19.8730  -19.4945  -12.2398 O   0  0  0  0  0  0  0  0  0  0  0  0
   20.6121  -20.0343  -15.5922 O   0  0  0  0  0  0  0  0  0  0  0  0
   21.1558  -21.1998  -11.4262 O   0  0  0  0  0  0  0  0  0  0  0  0
  2  1  1  6
  2  3  1  0
  4  6  1  0
  4  2  1  0
  4  5  1  1
  6 13  1  0
  6  7  2  0
  8  9  1  0
  9 10  1  0
 10 11  1  0
 12 11  1  1
 12 14  1  0
 13 12  1  0
 14 16  1  0
 14 15  2  0
 16 17  1  0
 17 21  1  0
 17 18  1  6
 19 20  2  0
 19 18  1  0
 21 22  1  0
 23 19  1  0
 24 21  2  0
M  END
$$$$
