TMD.pdb
     RDKit          3D

 24 23  0  0  1  0  0  0  0  0999 V2000
   17.0340   -8.7128  -17.7501 C   0  0  0  0  0  0  0  0  0  0  0  0
   16.7667  -10.0886  -17.2582 C   0  0  1  0  0  0  0  0  0  0  0  0
   15.7865  -10.6776  -18.0527 O   0  0  0  0  0  0  0  0  0  0  0  0
   17.9652  -11.0153  -17.2581 C   0  0  2  0  0  0  0  0  0  0  0  0
   17.4334  -12.3001  -16.7900 N   0  0  0  0  0  0  0  0  0  0  0  0
   19.0709  -10.5180  -16.4216 C   0  0  0  0  0  0  0  0  0  0  0  0
   18.8857  -10.4024  -15.1697 O   0  0  0  0  0  0  0  0  0  0  0  0
   26.6556   -9.7730  -14.6444 C   0  0  0  0  0  0  0  0  0  0  0  0
   25.3990  -10.4665  -15.7581 S   0  0  0  0  0  0  0  0  0  0  0  0
   23.8050   -9.6384  -15.3981 C   0  0  0  0  0  0  0  0  0  0  0  0
   22.7099  -10.2231  -16.2540 C   0  0  0  0  0  0  0  0  0  0  0  0
   21.3857   -9.5457  -16.0420 C   0  0  2  0  0  0  0  0  0  0  0  0
   20.3523  -10.1464  -16.8887 N   0  0  0  0  0  0  0  0  0  0  0  0
   21.4096   -8.0872  -16.1758 C   0  0  0  0  0  0  0  0  0  0  0  0
   21.6049   -7.5083  -17.2670 O   0  0  0  0  0  0  0  0  0  0  0  0
   21.2084   -7.2067  -15.0588 N   0  0  0  0  0  0  0  0  0  0  0  0
   21.2834   -5.7562  -15.1700 C   0  0  1  0  0  0  0  0  0  0  0  0
   19.9947   -5.1031  -14.7441 C   0  0  0  0  0  0  0  0  0  0  0  0
   18.9199   -5.2511  -15.7492 C   0  0  0  0  0  0  0  0  0  0  0  0
   17.7497   -5.5994  -15.4478 O   0  0  0  0  0  0  0  0  0  0  0  0
   22.4241   -5.3010  -14.3541 C   0  0  0  0  0  0  0  0  0  0  0  0
   23.1314   -6.2221  -13.5837 O   0  0  0  0  0  0  0  0  0  0  0  0
   19.1751   -5.0025  -17.1013 O   0  0  0  0  0  0  0  0  0  0  0  0
   22.7673   -4.0988  -14.3419 O   0  0  0  0  0  0  0  0  0  0  0  0
  2  1  1  6
  2  3  1  0
  4  6  1  0
  4  2  1  0
  4  5  1  1
  6 13  1  0
  6  7  2  0
  8  9  1  0
  9 10  1  0
 10 11  1  0
 12 11  1  6
 12 14  1  0
 13 12  1  0
 14 16  1  0
 14 15  2  0
 16 17  1  0
 17 21  1  0
 17 18  1  1
 19 20  2  0
 19 18  1  0
 21 22  1  0
 23 19  1  0
 24 21  2  0
M  END
$$$$
