TMD.pdb
     RDKit          3D

 24 23  0  0  1  0  0  0  0  0999 V2000
   26.8724  -20.0386  -17.6141 C   0  0  0  0  0  0  0  0  0  0  0  0
   27.2269  -21.4643  -17.8330 C   0  0  1  0  0  0  0  0  0  0  0  0
   28.2208  -21.5460  -18.8048 O   0  0  0  0  0  0  0  0  0  0  0  0
   27.7327  -22.1963  -16.6068 C   0  0  2  0  0  0  0  0  0  0  0  0
   27.8381  -23.5959  -17.0345 N   0  0  0  0  0  0  0  0  0  0  0  0
   26.8554  -22.0231  -15.4364 C   0  0  0  0  0  0  0  0  0  0  0  0
   25.7416  -22.6345  -15.4120 O   0  0  0  0  0  0  0  0  0  0  0  0
   24.4740  -21.3944   -8.7020 C   0  0  0  0  0  0  0  0  0  0  0  0
   25.6146  -21.6841  -10.0860 S   0  0  0  0  0  0  0  0  0  0  0  0
   25.9438  -20.0734  -10.8946 C   0  0  0  0  0  0  0  0  0  0  0  0
   26.8585  -20.2627  -12.0783 C   0  0  0  0  0  0  0  0  0  0  0  0
   26.1952  -20.9939  -13.2109 C   0  0  2  0  0  0  0  0  0  0  0  0
   27.1394  -21.2209  -14.3077 N   0  0  0  0  0  0  0  0  0  0  0  0
   24.9494  -20.3907  -13.6902 C   0  0  0  0  0  0  0  0  0  0  0  0
   24.9230  -19.3763  -14.4211 O   0  0  0  0  0  0  0  0  0  0  0  0
   23.6570  -20.9216  -13.3565 N   0  0  0  0  0  0  0  0  0  0  0  0
   22.4146  -20.3686  -13.8787 C   0  0  1  0  0  0  0  0  0  0  0  0
   22.2367  -20.6944  -15.3385 C   0  0  0  0  0  0  0  0  0  0  0  0
   20.9833  -20.1438  -15.8980 C   0  0  0  0  0  0  0  0  0  0  0  0
   20.1686  -19.4745  -15.2128 O   0  0  0  0  0  0  0  0  0  0  0  0
   21.3080  -20.8978  -13.0604 C   0  0  0  0  0  0  0  0  0  0  0  0
   20.0058  -20.4622  -13.2980 O   0  0  0  0  0  0  0  0  0  0  0  0
   20.6543  -20.3539  -17.2407 O   0  0  0  0  0  0  0  0  0  0  0  0
   21.5201  -21.7326  -12.1543 O   0  0  0  0  0  0  0  0  0  0  0  0
  2  1  1  1
  2  3  1  0
  4  6  1  0
  4  2  1  0
  4  5  1  6
  6 13  1  0
  6  7  2  0
  8  9  1  0
  9 10  1  0
 10 11  1  0
 12 11  1  1
 12 14  1  0
 13 12  1  0
 14 16  1  0
 14 15  2  0
 16 17  1  0
 17 21  1  0
 17 18  1  6
 19 20  2  0
 19 18  1  0
 21 22  1  0
 23 19  1  0
 24 21  2  0
M  END
$$$$
