TMD.pdb
     RDKit          3D

 24 23  0  0  1  0  0  0  0  0999 V2000
   17.9216  -12.5963  -16.0469 C   0  0  0  0  0  0  0  0  0  0  0  0
   18.9820  -12.8815  -17.0470 C   0  0  1  0  0  0  0  0  0  0  0  0
   18.4525  -13.6703  -18.0650 O   0  0  0  0  0  0  0  0  0  0  0  0
   19.5982  -11.6593  -17.6967 C   0  0  2  0  0  0  0  0  0  0  0  0
   20.3167  -12.1881  -18.8616 N   0  0  0  0  0  0  0  0  0  0  0  0
   20.4730  -10.9066  -16.7815 C   0  0  0  0  0  0  0  0  0  0  0  0
   20.0032  -10.5227  -15.6649 O   0  0  0  0  0  0  0  0  0  0  0  0
   26.5361  -11.9587  -14.9582 C   0  0  0  0  0  0  0  0  0  0  0  0
   26.6661  -10.1696  -15.2459 S   0  0  0  0  0  0  0  0  0  0  0  0
   24.9736   -9.4686  -15.2239 C   0  0  0  0  0  0  0  0  0  0  0  0
   24.0853  -10.2234  -16.1804 C   0  0  0  0  0  0  0  0  0  0  0  0
   22.6493   -9.7884  -16.1023 C   0  0  2  0  0  0  0  0  0  0  0  0
   21.8205  -10.5600  -17.0315 N   0  0  0  0  0  0  0  0  0  0  0  0
   22.4309   -8.3482  -16.2559 C   0  0  0  0  0  0  0  0  0  0  0  0
   22.6388   -7.7402  -17.3289 O   0  0  0  0  0  0  0  0  0  0  0  0
   21.9582   -7.5206  -15.1812 N   0  0  0  0  0  0  0  0  0  0  0  0
   21.7217   -6.0907  -15.3275 C   0  0  1  0  0  0  0  0  0  0  0  0
   20.2493   -5.7735  -15.3372 C   0  0  0  0  0  0  0  0  0  0  0  0
   19.5721   -6.2423  -16.5656 C   0  0  0  0  0  0  0  0  0  0  0  0
   18.5282   -6.9430  -16.5418 O   0  0  0  0  0  0  0  0  0  0  0  0
   22.4228   -5.4041  -14.2269 C   0  0  0  0  0  0  0  0  0  0  0  0
   22.5084   -4.0132  -14.2258 O   0  0  0  0  0  0  0  0  0  0  0  0
   20.0823   -5.9140  -17.8254 O   0  0  0  0  0  0  0  0  0  0  0  0
   22.9435   -6.0517  -13.2928 O   0  0  0  0  0  0  0  0  0  0  0  0
  2  1  1  1
  2  3  1  0
  4  6  1  0
  4  2  1  0
  4  5  1  6
  6 13  1  0
  6  7  2  0
  8  9  1  0
  9 10  1  0
 10 11  1  0
 12 11  1  6
 12 14  1  0
 13 12  1  0
 14 16  1  0
 14 15  2  0
 16 17  1  0
 17 21  1  0
 17 18  1  1
 19 20  2  0
 19 18  1  0
 21 22  1  0
 23 19  1  0
 24 21  2  0
M  END
$$$$
