TMD.pdb
     RDKit          3D

 24 23  0  0  1  0  0  0  0  0999 V2000
   22.9639  -11.8414  -19.8377 C   0  0  0  0  0  0  0  0  0  0  0  0
   21.6207  -11.3844  -19.3982 C   0  0  1  0  0  0  0  0  0  0  0  0
   20.7340  -12.4572  -19.4419 O   0  0  0  0  0  0  0  0  0  0  0  0
   21.5642  -10.8084  -17.9980 C   0  0  2  0  0  0  0  0  0  0  0  0
   22.0837  -11.8800  -17.1410 N   0  0  0  0  0  0  0  0  0  0  0  0
   20.2095  -10.3773  -17.6126 C   0  0  0  0  0  0  0  0  0  0  0  0
   19.6816   -9.3987  -18.2280 O   0  0  0  0  0  0  0  0  0  0  0  0
   13.4034  -11.9256  -13.8157 C   0  0  0  0  0  0  0  0  0  0  0  0
   15.1516  -12.3749  -14.0222 S   0  0  0  0  0  0  0  0  0  0  0  0
   15.9360  -11.1162  -15.0977 C   0  0  0  0  0  0  0  0  0  0  0  0
   17.3307  -11.5490  -15.4735 C   0  0  0  0  0  0  0  0  0  0  0  0
   18.0783  -10.4929  -16.2369 C   0  0  2  0  0  0  0  0  0  0  0  0
   19.4185  -10.9617  -16.5973 N   0  0  0  0  0  0  0  0  0  0  0  0
   18.1241   -9.1792  -15.5905 C   0  0  0  0  0  0  0  0  0  0  0  0
   19.0239   -8.8482  -14.7876 O   0  0  0  0  0  0  0  0  0  0  0  0
   17.1348   -8.1660  -15.8315 N   0  0  0  0  0  0  0  0  0  0  0  0
   17.2373   -6.8154  -15.2955 C   0  0  1  0  0  0  0  0  0  0  0  0
   18.5214   -6.1507  -15.7174 C   0  0  0  0  0  0  0  0  0  0  0  0
   18.5728   -4.7200  -15.3465 C   0  0  0  0  0  0  0  0  0  0  0  0
   18.4286   -3.7940  -16.1851 O   0  0  0  0  0  0  0  0  0  0  0  0
   16.0548   -6.0605  -15.7494 C   0  0  0  0  0  0  0  0  0  0  0  0
   15.7677   -4.8215  -15.1798 O   0  0  0  0  0  0  0  0  0  0  0  0
   18.7885   -4.3396  -14.0184 O   0  0  0  0  0  0  0  0  0  0  0  0
   15.3034   -6.5159  -16.6389 O   0  0  0  0  0  0  0  0  0  0  0  0
  2  1  1  1
  2  3  1  0
  4  6  1  0
  4  2  1  0
  4  5  1  1
  6 13  1  0
  6  7  2  0
  8  9  1  0
  9 10  1  0
 10 11  1  0
 12 11  1  1
 12 14  1  0
 13 12  1  0
 14 16  1  0
 14 15  2  0
 16 17  1  0
 17 21  1  0
 17 18  1  6
 19 20  2  0
 19 18  1  0
 21 22  1  0
 23 19  1  0
 24 21  2  0
M  END
$$$$
