TMD.pdb
     RDKit          3D

 24 23  0  0  1  0  0  0  0  0999 V2000
   14.7801   -8.1262  -16.3175 C   0  0  0  0  0  0  0  0  0  0  0  0
   14.3851   -9.0829  -15.2522 C   0  0  1  0  0  0  0  0  0  0  0  0
   13.2266   -9.7502  -15.6413 O   0  0  0  0  0  0  0  0  0  0  0  0
   15.4219  -10.1356  -14.9172 C   0  0  2  0  0  0  0  0  0  0  0  0
   14.8068  -10.9256  -13.8445 N   0  0  0  0  0  0  0  0  0  0  0  0
   16.7181   -9.5557  -14.5258 C   0  0  0  0  0  0  0  0  0  0  0  0
   16.8072   -8.9575  -13.4081 O   0  0  0  0  0  0  0  0  0  0  0  0
   24.4915   -9.5647  -14.1189 C   0  0  0  0  0  0  0  0  0  0  0  0
   23.0131  -10.3353  -14.8407 S   0  0  0  0  0  0  0  0  0  0  0  0
   21.6212   -9.1559  -14.6727 C   0  0  0  0  0  0  0  0  0  0  0  0
   20.3284   -9.8149  -15.0826 C   0  0  0  0  0  0  0  0  0  0  0  0
   19.1410   -8.9083  -14.9237 C   0  0  2  0  0  0  0  0  0  0  0  0
   17.9042   -9.6008  -15.2934 N   0  0  0  0  0  0  0  0  0  0  0  0
   19.2562   -7.6150  -15.6016 C   0  0  0  0  0  0  0  0  0  0  0  0
   19.1493   -7.4856  -16.8410 O   0  0  0  0  0  0  0  0  0  0  0  0
   19.5008   -6.3907  -14.8912 N   0  0  0  0  0  0  0  0  0  0  0  0
   19.6035   -5.0973  -15.5536 C   0  0  1  0  0  0  0  0  0  0  0  0
   18.6483   -4.0959  -14.9590 C   0  0  0  0  0  0  0  0  0  0  0  0
   18.8108   -2.7419  -15.5314 C   0  0  0  0  0  0  0  0  0  0  0  0
   18.8408   -2.5258  -16.7698 O   0  0  0  0  0  0  0  0  0  0  0  0
   21.0040   -4.6482  -15.4483 C   0  0  0  0  0  0  0  0  0  0  0  0
   21.9258   -5.4242  -14.7483 O   0  0  0  0  0  0  0  0  0  0  0  0
   18.9396   -1.6295  -14.6941 O   0  0  0  0  0  0  0  0  0  0  0  0
   21.3783   -3.5793  -15.9778 O   0  0  0  0  0  0  0  0  0  0  0  0
  2  1  1  6
  2  3  1  0
  4  6  1  0
  4  2  1  0
  4  5  1  1
  6 13  1  0
  6  7  2  0
  8  9  1  0
  9 10  1  0
 10 11  1  0
 12 11  1  6
 12 14  1  0
 13 12  1  0
 14 16  1  0
 14 15  2  0
 16 17  1  0
 17 21  1  0
 17 18  1  1
 19 20  2  0
 19 18  1  0
 21 22  1  0
 23 19  1  0
 24 21  2  0
M  END
$$$$
