TMD.pdb
     RDKit          3D

 24 23  0  0  1  0  0  0  0  0999 V2000
   26.4932  -18.5307  -15.6176 C   0  0  0  0  0  0  0  0  0  0  0  0
   27.3792  -19.6831  -15.9227 C   0  0  1  0  0  0  0  0  0  0  0  0
   28.4989  -19.2302  -16.6156 O   0  0  0  0  0  0  0  0  0  0  0  0
   27.8755  -20.4498  -14.7139 C   0  0  2  0  0  0  0  0  0  0  0  0
   28.7403  -21.4945  -15.2739 N   0  0  0  0  0  0  0  0  0  0  0  0
   26.7796  -20.9961  -13.8953 C   0  0  0  0  0  0  0  0  0  0  0  0
   26.2026  -22.0613  -14.2793 O   0  0  0  0  0  0  0  0  0  0  0  0
   27.8631  -20.7766   -7.2018 C   0  0  0  0  0  0  0  0  0  0  0  0
   26.3362  -20.2689   -8.0451 S   0  0  0  0  0  0  0  0  0  0  0  0
   26.3890  -20.9253   -9.7547 C   0  0  0  0  0  0  0  0  0  0  0  0
   25.1717  -20.4755  -10.5227 C   0  0  0  0  0  0  0  0  0  0  0  0
   25.1618  -20.9792  -11.9381 C   0  0  2  0  0  0  0  0  0  0  0  0
   26.2940  -20.4354  -12.6919 N   0  0  0  0  0  0  0  0  0  0  0  0
   23.8980  -20.7874  -12.6532 C   0  0  0  0  0  0  0  0  0  0  0  0
   23.5866  -19.7093  -13.2052 O   0  0  0  0  0  0  0  0  0  0  0  0
   22.9157  -21.8283  -12.7764 N   0  0  0  0  0  0  0  0  0  0  0  0
   21.6213  -21.6246  -13.4130 C   0  0  1  0  0  0  0  0  0  0  0  0
   21.0929  -22.9029  -14.0093 C   0  0  0  0  0  0  0  0  0  0  0  0
   19.7467  -22.7436  -14.6006 C   0  0  0  0  0  0  0  0  0  0  0  0
   19.4779  -21.8580  -15.4519 O   0  0  0  0  0  0  0  0  0  0  0  0
   20.7037  -21.0726  -12.3993 C   0  0  0  0  0  0  0  0  0  0  0  0
   19.5271  -20.4449  -12.8037 O   0  0  0  0  0  0  0  0  0  0  0  0
   18.7022  -23.5934  -14.2236 O   0  0  0  0  0  0  0  0  0  0  0  0
   20.9655  -21.1586  -11.1798 O   0  0  0  0  0  0  0  0  0  0  0  0
  2  1  1  1
  2  3  1  0
  4  6  1  0
  4  2  1  0
  4  5  1  6
  6 13  1  0
  6  7  2  0
  8  9  1  0
  9 10  1  0
 10 11  1  0
 12 11  1  1
 12 14  1  0
 13 12  1  0
 14 16  1  0
 14 15  2  0
 16 17  1  0
 17 21  1  0
 17 18  1  1
 19 20  2  0
 19 18  1  0
 21 22  1  0
 23 19  1  0
 24 21  2  0
M  END
$$$$
