TMD.pdb
     RDKit          3D

 24 23  0  0  1  0  0  0  0  0999 V2000
   28.5021  -18.3485  -16.6448 C   0  0  0  0  0  0  0  0  0  0  0  0
   27.5066  -19.0429  -15.7888 C   0  0  1  0  0  0  0  0  0  0  0  0
   26.3426  -19.2593  -16.5219 O   0  0  0  0  0  0  0  0  0  0  0  0
   27.9525  -20.3839  -15.2428 C   0  0  2  0  0  0  0  0  0  0  0  0
   28.0570  -21.2439  -16.4271 N   0  0  0  0  0  0  0  0  0  0  0  0
   27.0306  -20.9220  -14.2279 C   0  0  0  0  0  0  0  0  0  0  0  0
   26.2910  -21.9084  -14.5361 O   0  0  0  0  0  0  0  0  0  0  0  0
   27.2077  -20.3792   -7.7143 C   0  0  0  0  0  0  0  0  0  0  0  0
   25.4137  -20.2106   -7.9456 S   0  0  0  0  0  0  0  0  0  0  0  0
   25.0036  -20.7943   -9.6331 C   0  0  0  0  0  0  0  0  0  0  0  0
   26.0747  -20.3689  -10.6055 C   0  0  0  0  0  0  0  0  0  0  0  0
   25.8021  -20.8359  -12.0073 C   0  0  2  0  0  0  0  0  0  0  0  0
   26.8843  -20.4343  -12.9092 N   0  0  0  0  0  0  0  0  0  0  0  0
   24.4907  -20.4591  -12.5399 C   0  0  0  0  0  0  0  0  0  0  0  0
   24.2626  -19.3438  -13.0577 O   0  0  0  0  0  0  0  0  0  0  0  0
   23.3616  -21.3465  -12.5089 N   0  0  0  0  0  0  0  0  0  0  0  0
   22.1085  -21.0584  -13.1937 C   0  0  1  0  0  0  0  0  0  0  0  0
   21.8301  -22.0637  -14.2802 C   0  0  0  0  0  0  0  0  0  0  0  0
   20.5582  -21.8022  -14.9881 C   0  0  0  0  0  0  0  0  0  0  0  0
   19.7727  -20.8777  -14.6568 O   0  0  0  0  0  0  0  0  0  0  0  0
   21.0374  -21.0357  -12.1806 C   0  0  0  0  0  0  0  0  0  0  0  0
   19.8189  -20.4291  -12.4794 O   0  0  0  0  0  0  0  0  0  0  0  0
   20.1772  -22.5934  -16.0762 O   0  0  0  0  0  0  0  0  0  0  0  0
   21.2057  -21.5528  -11.0548 O   0  0  0  0  0  0  0  0  0  0  0  0
  2  1  1  6
  2  3  1  0
  4  6  1  0
  4  2  1  0
  4  5  1  6
  6 13  1  0
  6  7  2  0
  8  9  1  0
  9 10  1  0
 10 11  1  0
 12 11  1  1
 12 14  1  0
 13 12  1  0
 14 16  1  0
 14 15  2  0
 16 17  1  0
 17 21  1  0
 17 18  1  6
 19 20  2  0
 19 18  1  0
 21 22  1  0
 23 19  1  0
 24 21  2  0
M  END
$$$$
