TMD.pdb
     RDKit          3D

 24 23  0  0  1  0  0  0  0  0999 V2000
   19.1829  -24.8239  -11.5688 C   0  0  0  0  0  0  0  0  0  0  0  0
   18.3332  -24.3976  -10.4276 C   0  0  1  0  0  0  0  0  0  0  0  0
   17.7996  -25.5240   -9.8068 O   0  0  0  0  0  0  0  0  0  0  0  0
   19.0459  -23.5896   -9.3624 C   0  0  2  0  0  0  0  0  0  0  0  0
   18.0136  -23.3233   -8.3543 N   0  0  0  0  0  0  0  0  0  0  0  0
   19.6552  -22.3580   -9.8926 C   0  0  0  0  0  0  0  0  0  0  0  0
   18.9113  -21.3489  -10.1006 O   0  0  0  0  0  0  0  0  0  0  0  0
   25.9712  -20.8931  -10.8875 C   0  0  0  0  0  0  0  0  0  0  0  0
   25.2793  -20.5218   -9.2493 S   0  0  0  0  0  0  0  0  0  0  0  0
   23.4528  -20.5770   -9.3809 C   0  0  0  0  0  0  0  0  0  0  0  0
   23.0431  -20.9407  -10.7857 C   0  0  0  0  0  0  0  0  0  0  0  0
   21.5525  -21.0398  -10.9464 C   0  0  2  0  0  0  0  0  0  0  0  0
   21.0238  -22.1849  -10.2014 N   0  0  0  0  0  0  0  0  0  0  0  0
   21.0790  -21.0351  -12.3325 C   0  0  0  0  0  0  0  0  0  0  0  0
   21.0686  -22.0592  -13.0502 O   0  0  0  0  0  0  0  0  0  0  0  0
   20.5871  -19.8486  -12.9756 N   0  0  0  0  0  0  0  0  0  0  0  0
   19.9839  -19.8584  -14.3016 C   0  0  1  0  0  0  0  0  0  0  0  0
   18.6826  -19.1000  -14.3210 C   0  0  0  0  0  0  0  0  0  0  0  0
   18.1062  -18.9893  -15.6784 C   0  0  0  0  0  0  0  0  0  0  0  0
   18.4737  -19.7179  -16.6352 O   0  0  0  0  0  0  0  0  0  0  0  0
   20.9636  -19.2896  -15.2454 C   0  0  0  0  0  0  0  0  0  0  0  0
   22.1942  -18.8379  -14.7725 O   0  0  0  0  0  0  0  0  0  0  0  0
   17.1088  -18.0477  -15.9501 O   0  0  0  0  0  0  0  0  0  0  0  0
   20.7069  -19.2056  -16.4662 O   0  0  0  0  0  0  0  0  0  0  0  0
  2  1  1  6
  2  3  1  0
  4  6  1  0
  4  2  1  0
  4  5  1  1
  6 13  1  0
  6  7  2  0
  8  9  1  0
  9 10  1  0
 10 11  1  0
 12 11  1  6
 12 14  1  0
 13 12  1  0
 14 16  1  0
 14 15  2  0
 16 17  1  0
 17 21  1  0
 17 18  1  1
 19 20  2  0
 19 18  1  0
 21 22  1  0
 23 19  1  0
 24 21  2  0
M  END
$$$$
