TMD.pdb
     RDKit          3D

 24 23  0  0  1  0  0  0  0  0999 V2000
   17.6786  -29.4132   -6.3115 C   0  0  0  0  0  0  0  0  0  0  0  0
   16.7570  -30.5077   -5.9128 C   0  0  1  0  0  0  0  0  0  0  0  0
   17.2875  -31.7273   -6.3253 O   0  0  0  0  0  0  0  0  0  0  0  0
   16.4883  -30.6118   -4.4254 C   0  0  2  0  0  0  0  0  0  0  0  0
   15.5114  -31.7001   -4.3061 N   0  0  0  0  0  0  0  0  0  0  0  0
   16.0066  -29.3478   -3.8427 C   0  0  0  0  0  0  0  0  0  0  0  0
   14.8985  -28.8729   -4.2447 O   0  0  0  0  0  0  0  0  0  0  0  0
   14.7932  -24.2846    1.3987 C   0  0  0  0  0  0  0  0  0  0  0  0
   15.4915  -25.8644    0.8355 S   0  0  0  0  0  0  0  0  0  0  0  0
   16.5536  -25.5270   -0.6186 C   0  0  0  0  0  0  0  0  0  0  0  0
   17.0500  -26.8214   -1.2119 C   0  0  0  0  0  0  0  0  0  0  0  0
   16.1921  -27.3043   -2.3469 C   0  0  2  0  0  0  0  0  0  0  0  0
   16.6752  -28.5910   -2.8535 N   0  0  0  0  0  0  0  0  0  0  0  0
   15.9999  -26.3377   -3.4305 C   0  0  0  0  0  0  0  0  0  0  0  0
   16.7063  -26.3248   -4.4625 O   0  0  0  0  0  0  0  0  0  0  0  0
   14.9800  -25.3270   -3.3909 N   0  0  0  0  0  0  0  0  0  0  0  0
   14.7276  -24.4125   -4.4963 C   0  0  1  0  0  0  0  0  0  0  0  0
   14.4941  -25.1564   -5.7850 C   0  0  0  0  0  0  0  0  0  0  0  0
   14.7658  -24.3284   -6.9799 C   0  0  0  0  0  0  0  0  0  0  0  0
   15.2730  -23.1798   -6.9108 O   0  0  0  0  0  0  0  0  0  0  0  0
   13.5715  -23.5734   -4.1308 C   0  0  0  0  0  0  0  0  0  0  0  0
   13.1730  -22.5419   -4.9788 O   0  0  0  0  0  0  0  0  0  0  0  0
   14.4606  -24.8068   -8.2579 O   0  0  0  0  0  0  0  0  0  0  0  0
   12.9419  -23.7730   -3.0692 O   0  0  0  0  0  0  0  0  0  0  0  0
  2  1  1  1
  2  3  1  0
  4  6  1  0
  4  2  1  0
  4  5  1  6
  6 13  1  0
  6  7  2  0
  8  9  1  0
  9 10  1  0
 10 11  1  0
 12 11  1  1
 12 14  1  0
 13 12  1  0
 14 16  1  0
 14 15  2  0
 16 17  1  0
 17 21  1  0
 17 18  1  6
 19 20  2  0
 19 18  1  0
 21 22  1  0
 23 19  1  0
 24 21  2  0
M  END
$$$$
