TMD.pdb
     RDKit          3D

 24 23  0  0  1  0  0  0  0  0999 V2000
   29.6681  -10.0002  -17.6596 C   0  0  0  0  0  0  0  0  0  0  0  0
   28.2541   -9.6167  -17.4153 C   0  0  1  0  0  0  0  0  0  0  0  0
   27.7691   -8.9234  -18.5212 O   0  0  0  0  0  0  0  0  0  0  0  0
   27.3099  -10.7732  -17.1575 C   0  0  2  0  0  0  0  0  0  0  0  0
   27.4675  -11.6416  -18.3296 N   0  0  0  0  0  0  0  0  0  0  0  0
   25.9174  -10.3385  -16.9540 C   0  0  0  0  0  0  0  0  0  0  0  0
   25.1168  -10.3714  -17.9404 O   0  0  0  0  0  0  0  0  0  0  0  0
   21.8964  -11.6680  -12.0310 C   0  0  0  0  0  0  0  0  0  0  0  0
   21.5052   -9.9120  -12.2841 S   0  0  0  0  0  0  0  0  0  0  0  0
   22.0343   -9.4528  -13.9769 C   0  0  0  0  0  0  0  0  0  0  0  0
   23.4768   -9.8355  -14.1930 C   0  0  0  0  0  0  0  0  0  0  0  0
   23.9690   -9.4835  -15.5682 C   0  0  2  0  0  0  0  0  0  0  0  0
   25.3704   -9.8755  -15.7355 N   0  0  0  0  0  0  0  0  0  0  0  0
   23.7492   -8.0908  -15.9652 C   0  0  0  0  0  0  0  0  0  0  0  0
   24.5820   -7.1832  -15.7488 O   0  0  0  0  0  0  0  0  0  0  0  0
   22.5553   -7.6595  -16.6376 N   0  0  0  0  0  0  0  0  0  0  0  0
   22.3477   -6.2876  -17.0813 C   0  0  1  0  0  0  0  0  0  0  0  0
   22.7052   -6.1181  -18.5346 C   0  0  0  0  0  0  0  0  0  0  0  0
   22.3827   -4.7694  -19.0487 C   0  0  0  0  0  0  0  0  0  0  0  0
   21.5159   -4.5693  -19.9375 O   0  0  0  0  0  0  0  0  0  0  0  0
   20.9392   -5.9386  -16.8193 C   0  0  0  0  0  0  0  0  0  0  0  0
   20.5415   -4.6036  -16.8574 O   0  0  0  0  0  0  0  0  0  0  0  0
   23.0471   -3.6440  -18.5514 O   0  0  0  0  0  0  0  0  0  0  0  0
   20.0943   -6.8235  -16.5622 O   0  0  0  0  0  0  0  0  0  0  0  0
  2  1  1  6
  2  3  1  0
  4  6  1  0
  4  2  1  0
  4  5  1  6
  6 13  1  0
  6  7  2  0
  8  9  1  0
  9 10  1  0
 10 11  1  0
 12 11  1  1
 12 14  1  0
 13 12  1  0
 14 16  1  0
 14 15  2  0
 16 17  1  0
 17 21  1  0
 17 18  1  6
 19 20  2  0
 19 18  1  0
 21 22  1  0
 23 19  1  0
 24 21  2  0
M  END
$$$$
