TMD.pdb
     RDKit          3D

 24 23  0  0  1  0  0  0  0  0999 V2000
   20.0151  -13.7111  -18.7912 C   0  0  0  0  0  0  0  0  0  0  0  0
   19.7805  -14.8754  -17.8992 C   0  0  1  0  0  0  0  0  0  0  0  0
   19.4293  -15.9805  -18.6701 O   0  0  0  0  0  0  0  0  0  0  0  0
   20.9643  -15.2788  -17.0441 C   0  0  2  0  0  0  0  0  0  0  0  0
   20.4912  -16.4472  -16.2933 N   0  0  0  0  0  0  0  0  0  0  0  0
   21.4330  -14.1909  -16.1687 C   0  0  0  0  0  0  0  0  0  0  0  0
   20.6136  -13.6712  -15.3480 O   0  0  0  0  0  0  0  0  0  0  0  0
   27.8694  -12.9495  -15.2771 C   0  0  0  0  0  0  0  0  0  0  0  0
   26.7103  -14.3406  -15.4249 S   0  0  0  0  0  0  0  0  0  0  0  0
   25.1592  -13.8782  -14.5666 C   0  0  0  0  0  0  0  0  0  0  0  0
   24.6482  -12.5595  -15.0898 C   0  0  0  0  0  0  0  0  0  0  0  0
   23.1582  -12.5518  -15.2829 C   0  0  2  0  0  0  0  0  0  0  0  0
   22.7405  -13.6540  -16.1527 N   0  0  0  0  0  0  0  0  0  0  0  0
   22.5998  -11.2734  -15.7293 C   0  0  0  0  0  0  0  0  0  0  0  0
   22.6806  -10.8724  -16.9111 O   0  0  0  0  0  0  0  0  0  0  0  0
   21.9126  -10.3791  -14.8396 N   0  0  0  0  0  0  0  0  0  0  0  0
   21.4095   -9.0775  -15.2576 C   0  0  1  0  0  0  0  0  0  0  0  0
   20.0062   -9.1758  -15.7962 C   0  0  0  0  0  0  0  0  0  0  0  0
   19.4365   -7.8577  -16.1500 C   0  0  0  0  0  0  0  0  0  0  0  0
   19.9695   -7.0896  -16.9910 O   0  0  0  0  0  0  0  0  0  0  0  0
   21.4887   -8.1710  -14.0974 C   0  0  0  0  0  0  0  0  0  0  0  0
   21.9189   -8.6630  -12.8666 O   0  0  0  0  0  0  0  0  0  0  0  0
   18.2571   -7.4105  -15.5465 O   0  0  0  0  0  0  0  0  0  0  0  0
   21.1748   -6.9652  -14.2005 O   0  0  0  0  0  0  0  0  0  0  0  0
  2  1  1  6
  2  3  1  0
  4  6  1  0
  4  2  1  0
  4  5  1  1
  6 13  1  0
  6  7  2  0
  8  9  1  0
  9 10  1  0
 10 11  1  0
 12 11  1  6
 12 14  1  0
 13 12  1  0
 14 16  1  0
 14 15  2  0
 16 17  1  0
 17 21  1  0
 17 18  1  1
 19 20  2  0
 19 18  1  0
 21 22  1  0
 23 19  1  0
 24 21  2  0
M  END
$$$$
