TMD.pdb
     RDKit          3D

 24 23  0  0  1  0  0  0  0  0999 V2000
   18.9108  -12.5182  -19.9388 C   0  0  0  0  0  0  0  0  0  0  0  0
   19.0236  -13.7745  -19.1545 C   0  0  1  0  0  0  0  0  0  0  0  0
   18.4069  -14.8089  -19.8536 O   0  0  0  0  0  0  0  0  0  0  0  0
   20.4403  -14.2170  -18.8499 C   0  0  2  0  0  0  0  0  0  0  0  0
   20.2794  -15.4773  -18.1161 N   0  0  0  0  0  0  0  0  0  0  0  0
   21.2020  -13.2098  -18.0918 C   0  0  0  0  0  0  0  0  0  0  0  0
   20.8977  -13.0017  -16.8756 O   0  0  0  0  0  0  0  0  0  0  0  0
   26.6964  -10.0649  -14.8438 C   0  0  0  0  0  0  0  0  0  0  0  0
   25.9202  -11.3018  -15.9245 S   0  0  0  0  0  0  0  0  0  0  0  0
   25.2590  -10.4326  -17.3955 C   0  0  0  0  0  0  0  0  0  0  0  0
   24.4425  -11.3808  -18.2368 C   0  0  0  0  0  0  0  0  0  0  0  0
   23.0042  -11.4437  -17.8070 C   0  0  2  0  0  0  0  0  0  0  0  0
   22.2670  -12.4310  -18.5993 N   0  0  0  0  0  0  0  0  0  0  0  0
   22.3116  -10.1534  -17.7764 C   0  0  0  0  0  0  0  0  0  0  0  0
   21.9009   -9.5782  -18.8082 O   0  0  0  0  0  0  0  0  0  0  0  0
   22.0491   -9.4476  -16.5532 N   0  0  0  0  0  0  0  0  0  0  0  0
   21.3505   -8.1700  -16.5101 C   0  0  1  0  0  0  0  0  0  0  0  0
   20.2610   -8.1722  -15.4700 C   0  0  0  0  0  0  0  0  0  0  0  0
   19.6506   -6.8388  -15.2793 C   0  0  0  0  0  0  0  0  0  0  0  0
   19.0422   -6.2314  -16.1971 O   0  0  0  0  0  0  0  0  0  0  0  0
   22.3516   -7.1186  -16.2526 C   0  0  0  0  0  0  0  0  0  0  0  0
   23.4920   -7.4197  -15.5104 O   0  0  0  0  0  0  0  0  0  0  0  0
   19.7313   -6.1928  -14.0418 O   0  0  0  0  0  0  0  0  0  0  0  0
   22.1929   -5.9582  -16.6902 O   0  0  0  0  0  0  0  0  0  0  0  0
  2  1  1  6
  2  3  1  0
  4  6  1  0
  4  2  1  0
  4  5  1  1
  6 13  1  0
  6  7  2  0
  8  9  1  0
  9 10  1  0
 10 11  1  0
 12 11  1  6
 12 14  1  0
 13 12  1  0
 14 16  1  0
 14 15  2  0
 16 17  1  0
 17 21  1  0
 17 18  1  1
 19 20  2  0
 19 18  1  0
 21 22  1  0
 23 19  1  0
 24 21  2  0
M  END
$$$$
