FKL.pdb
     RDKit          3D

 29 29  0  0  1  0  0  0  0  0999 V2000
   18.4191  -22.5089  -11.7365 N   0  0  0  0  0  0  0  0  0  0  0  0
   19.6562  -21.8342  -11.4401 C   0  0  1  0  0  0  0  0  0  0  0  0
   20.6416  -22.7026  -10.7068 C   0  0  0  0  0  0  0  0  0  0  0  0
   21.9395  -22.0752  -10.4755 C   0  0  0  0  0  0  0  0  0  0  0  0
   22.0940  -21.2058   -9.4184 C   0  0  0  0  0  0  0  0  0  0  0  0
   23.3107  -20.5818   -9.1553 C   0  0  0  0  0  0  0  0  0  0  0  0
   24.3897  -20.8309   -9.9615 C   0  0  0  0  0  0  0  0  0  0  0  0
   24.2418  -21.6998  -11.0208 C   0  0  0  0  0  0  0  0  0  0  0  0
   23.0276  -22.3211  -11.2817 C   0  0  0  0  0  0  0  0  0  0  0  0
   20.2774  -21.4375  -12.7266 C   0  0  0  0  0  0  0  0  0  0  0  0
   20.3239  -22.2904  -13.6446 O   0  0  0  0  0  0  0  0  0  0  0  0
   20.8258  -20.1524  -12.9923 N   0  0  0  0  0  0  0  0  0  0  0  0
   21.3722  -19.8051  -14.2884 C   0  0  1  0  0  0  0  0  0  0  0  0
   21.3797  -18.3217  -14.5208 C   0  0  0  0  0  0  0  0  0  0  0  0
   20.6312  -18.0281  -15.7990 C   0  0  0  0  0  0  0  0  0  0  0  0
   19.1388  -17.9286  -15.5330 C   0  0  0  0  0  0  0  0  0  0  0  0
   18.4047  -17.7691  -16.8297 C   0  0  0  0  0  0  0  0  0  0  0  0
   16.9714  -17.8744  -16.5109 N   0  0  0  0  0  0  0  0  0  0  0  0
   22.7652  -20.3440  -14.4554 C   0  0  0  0  0  0  0  0  0  0  0  0
   23.2989  -20.8624  -13.4560 O   0  0  0  0  0  0  0  0  0  0  0  0
   26.1808  -23.2927  -17.0863 C   0  0  0  0  0  0  0  0  0  0  0  0
   25.5791  -23.3915  -15.6772 C   0  0  2  0  0  0  0  0  0  0  0  0
   25.3416  -24.8324  -15.3266 C   0  0  0  0  0  0  0  0  0  0  0  0
   24.3791  -22.5295  -15.5492 C   0  0  0  0  0  0  0  0  0  0  0  0
   24.6794  -21.0922  -15.8284 C   0  0  2  0  0  0  0  0  0  0  0  0
   23.4646  -20.2792  -15.6826 N   0  0  0  0  0  0  0  0  0  0  0  0
   25.2108  -20.8789  -17.1818 C   0  0  0  0  0  0  0  0  0  0  0  0
   26.3645  -20.3473  -17.3081 O   0  0  0  0  0  0  0  0  0  0  0  0
   24.5466  -21.2174  -18.3377 O   0  0  0  0  0  0  0  0  0  0  0  0
  2 10  1  0
  2  1  1  6
  3  2  1  0
  4  9  2  0
  4  3  1  0
  5  4  1  0
  6  7  1  0
  6  5  2  0
  7  8  2  0
  8  9  1  0
 10 11  2  0
 12 13  1  0
 12 10  1  0
 13 14  1  1
 14 15  1  0
 15 16  1  0
 16 17  1  0
 17 18  1  0
 19 13  1  0
 20 19  2  0
 22 21  1  6
 23 22  1  0
 25 24  1  6
 24 22  1  0
 25 26  1  0
 26 19  1  0
 27 25  1  0
 27 29  1  0
 28 27  2  0
M  END
$$$$
