FKL.pdb
     RDKit          3D

 29 29  0  0  1  0  0  0  0  0999 V2000
   28.2625  -20.7320  -10.9257 N   0  0  0  0  0  0  0  0  0  0  0  0
   26.9805  -21.1821  -10.4486 C   0  0  1  0  0  0  0  0  0  0  0  0
   26.4424  -20.3443   -9.3211 C   0  0  0  0  0  0  0  0  0  0  0  0
   27.3255  -20.2589   -8.1615 C   0  0  0  0  0  0  0  0  0  0  0  0
   28.2735  -21.2370   -7.9572 C   0  0  0  0  0  0  0  0  0  0  0  0
   29.1392  -21.2015   -6.8672 C   0  0  0  0  0  0  0  0  0  0  0  0
   29.0558  -20.1720   -5.9674 C   0  0  0  0  0  0  0  0  0  0  0  0
   28.1096  -19.1902   -6.1661 C   0  0  0  0  0  0  0  0  0  0  0  0
   27.2470  -19.2273   -7.2537 C   0  0  0  0  0  0  0  0  0  0  0  0
   26.0193  -21.0917  -11.5738 C   0  0  0  0  0  0  0  0  0  0  0  0
   26.1838  -20.1767  -12.4154 O   0  0  0  0  0  0  0  0  0  0  0  0
   24.9201  -21.9738  -11.7654 N   0  0  0  0  0  0  0  0  0  0  0  0
   24.1512  -21.9851  -12.9933 C   0  0  1  0  0  0  0  0  0  0  0  0
   23.9489  -23.3758  -13.5219 C   0  0  0  0  0  0  0  0  0  0  0  0
   24.9346  -23.6167  -14.6402 C   0  0  0  0  0  0  0  0  0  0  0  0
   24.7691  -25.0172  -15.2054 C   0  0  0  0  0  0  0  0  0  0  0  0
   25.7406  -25.2266  -16.3271 C   0  0  0  0  0  0  0  0  0  0  0  0
   25.6034  -24.0624  -17.2176 N   0  0  0  0  0  0  0  0  0  0  0  0
   22.8153  -21.3224  -12.8066 C   0  0  0  0  0  0  0  0  0  0  0  0
   22.2618  -21.4587  -11.6987 O   0  0  0  0  0  0  0  0  0  0  0  0
   20.6432  -17.3289  -12.5103 C   0  0  0  0  0  0  0  0  0  0  0  0
   21.1486  -17.6239  -13.9297 C   0  0  2  0  0  0  0  0  0  0  0  0
   20.9268  -16.4252  -14.8069 C   0  0  0  0  0  0  0  0  0  0  0  0
   20.5576  -18.8786  -14.4551 C   0  0  0  0  0  0  0  0  0  0  0  0
   20.8384  -20.0521  -13.5730 C   0  0  2  0  0  0  0  0  0  0  0  0
   22.1893  -20.5700  -13.8271 N   0  0  0  0  0  0  0  0  0  0  0  0
   19.8836  -21.1510  -13.7741 C   0  0  0  0  0  0  0  0  0  0  0  0
   20.1754  -22.0675  -14.6134 O   0  0  0  0  0  0  0  0  0  0  0  0
   18.6833  -21.2657  -13.1125 O   0  0  0  0  0  0  0  0  0  0  0  0
  2 10  1  0
  2  1  1  6
  3  2  1  0
  4  9  2  0
  4  3  1  0
  5  4  1  0
  6  7  1  0
  6  5  2  0
  7  8  2  0
  8  9  1  0
 10 11  2  0
 12 13  1  0
 12 10  1  0
 13 14  1  1
 14 15  1  0
 15 16  1  0
 16 17  1  0
 17 18  1  0
 19 13  1  0
 20 19  2  0
 22 21  1  1
 23 22  1  0
 25 24  1  6
 24 22  1  0
 25 26  1  0
 26 19  1  0
 27 25  1  0
 27 29  1  0
 28 27  2  0
M  END
$$$$
