FKL.pdb
     RDKit          3D

 29 29  0  0  1  0  0  0  0  0999 V2000
   27.0336  -17.9043  -21.4963 N   0  0  0  0  0  0  0  0  0  0  0  0
   27.3675  -17.9492  -20.0963 C   0  0  1  0  0  0  0  0  0  0  0  0
   26.7722  -16.8131  -19.3103 C   0  0  0  0  0  0  0  0  0  0  0  0
   27.2741  -15.4945  -19.6862 C   0  0  0  0  0  0  0  0  0  0  0  0
   26.4582  -14.6318  -20.3842 C   0  0  0  0  0  0  0  0  0  0  0  0
   26.8892  -13.3640  -20.7659 C   0  0  0  0  0  0  0  0  0  0  0  0
   28.1556  -12.9523  -20.4449 C   0  0  0  0  0  0  0  0  0  0  0  0
   28.9769  -13.8107  -19.7467 C   0  0  0  0  0  0  0  0  0  0  0  0
   28.5453  -15.0747  -19.3667 C   0  0  0  0  0  0  0  0  0  0  0  0
   26.8263  -19.2125  -19.5400 C   0  0  0  0  0  0  0  0  0  0  0  0
   25.6852  -19.5768  -19.9109 O   0  0  0  0  0  0  0  0  0  0  0  0
   27.5140  -20.0423  -18.6118 N   0  0  0  0  0  0  0  0  0  0  0  0
   26.9220  -21.2536  -18.0815 C   0  0  1  0  0  0  0  0  0  0  0  0
   27.9592  -22.2286  -17.6038 C   0  0  0  0  0  0  0  0  0  0  0  0
   27.2663  -23.4972  -17.1670 C   0  0  0  0  0  0  0  0  0  0  0  0
   28.2850  -24.5568  -16.7828 C   0  0  0  0  0  0  0  0  0  0  0  0
   27.5765  -25.8077  -16.3595 C   0  0  0  0  0  0  0  0  0  0  0  0
   28.6249  -26.7812  -16.0126 N   0  0  0  0  0  0  0  0  0  0  0  0
   25.9685  -20.9494  -16.9604 C   0  0  0  0  0  0  0  0  0  0  0  0
   26.2855  -20.0353  -16.1753 O   0  0  0  0  0  0  0  0  0  0  0  0
   21.4883  -20.0704  -14.7694 C   0  0  0  0  0  0  0  0  0  0  0  0
   22.4114  -19.0385  -15.4329 C   0  0  2  0  0  0  0  0  0  0  0  0
   21.5875  -17.9636  -16.0820 C   0  0  0  0  0  0  0  0  0  0  0  0
   23.3777  -19.6973  -16.3449 C   0  0  0  0  0  0  0  0  0  0  0  0
   23.7457  -21.0715  -15.8866 C   0  0  2  0  0  0  0  0  0  0  0  0
   24.7560  -21.6540  -16.7797 N   0  0  0  0  0  0  0  0  0  0  0  0
   22.5924  -21.9816  -15.8480 C   0  0  0  0  0  0  0  0  0  0  0  0
   22.1961  -22.5118  -16.9395 O   0  0  0  0  0  0  0  0  0  0  0  0
   21.9016  -22.3094  -14.7047 O   0  0  0  0  0  0  0  0  0  0  0  0
  2 10  1  0
  2  1  1  6
  3  2  1  0
  4  9  2  0
  4  3  1  0
  5  4  1  0
  6  7  1  0
  6  5  2  0
  7  8  2  0
  8  9  1  0
 10 11  2  0
 12 13  1  0
 12 10  1  0
 13 14  1  1
 14 15  1  0
 15 16  1  0
 16 17  1  0
 17 18  1  0
 19 13  1  0
 20 19  2  0
 22 21  1  6
 23 22  1  0
 25 24  1  6
 24 22  1  0
 25 26  1  0
 26 19  1  0
 27 25  1  0
 27 29  1  0
 28 27  2  0
M  END
$$$$
