FKL.pdb
     RDKit          3D

 29 29  0  0  1  0  0  0  0  0999 V2000
   28.5017  -20.9746   -9.1663 N   0  0  0  0  0  0  0  0  0  0  0  0
   27.0919  -20.7575   -8.9687 C   0  0  1  0  0  0  0  0  0  0  0  0
   26.7908  -19.5137   -8.1780 C   0  0  0  0  0  0  0  0  0  0  0  0
   27.2782  -19.5438   -6.8020 C   0  0  0  0  0  0  0  0  0  0  0  0
   28.2315  -18.6345   -6.4000 C   0  0  0  0  0  0  0  0  0  0  0  0
   28.7286  -18.6216   -5.0994 C   0  0  0  0  0  0  0  0  0  0  0  0
   28.2656  -19.5319   -4.1866 C   0  0  0  0  0  0  0  0  0  0  0  0
   27.3118  -20.4444   -4.5825 C   0  0  0  0  0  0  0  0  0  0  0  0
   26.8172  -20.4557   -5.8800 C   0  0  0  0  0  0  0  0  0  0  0  0
   26.4640  -20.6046  -10.3031 C   0  0  0  0  0  0  0  0  0  0  0  0
   26.7611  -19.5917  -10.9799 O   0  0  0  0  0  0  0  0  0  0  0  0
   25.5451  -21.5303  -10.8703 N   0  0  0  0  0  0  0  0  0  0  0  0
   24.9528  -21.3202  -12.1757 C   0  0  1  0  0  0  0  0  0  0  0  0
   24.2104  -22.5314  -12.6622 C   0  0  0  0  0  0  0  0  0  0  0  0
   24.4721  -22.6984  -14.1400 C   0  0  0  0  0  0  0  0  0  0  0  0
   25.1960  -24.0065  -14.4096 C   0  0  0  0  0  0  0  0  0  0  0  0
   25.4542  -24.1467  -15.8791 C   0  0  0  0  0  0  0  0  0  0  0  0
   26.2554  -25.3705  -16.0448 N   0  0  0  0  0  0  0  0  0  0  0  0
   24.0278  -20.1358  -12.1710 C   0  0  0  0  0  0  0  0  0  0  0  0
   24.3275  -19.1821  -11.4274 O   0  0  0  0  0  0  0  0  0  0  0  0
   24.1810  -16.9164  -14.5604 C   0  0  0  0  0  0  0  0  0  0  0  0
   24.9805  -18.1781  -14.9156 C   0  0  2  0  0  0  0  0  0  0  0  0
   25.7428  -17.9538  -16.1901 C   0  0  0  0  0  0  0  0  0  0  0  0
   24.1053  -19.3752  -14.9341 C   0  0  0  0  0  0  0  0  0  0  0  0
   22.8605  -19.1817  -14.1296 C   0  0  2  0  0  0  0  0  0  0  0  0
   22.8600  -20.0785  -12.9662 N   0  0  0  0  0  0  0  0  0  0  0  0
   21.6402  -19.4418  -14.9061 C   0  0  0  0  0  0  0  0  0  0  0  0
   21.5567  -20.5316  -15.5656 O   0  0  0  0  0  0  0  0  0  0  0  0
   20.5663  -18.5850  -14.9724 O   0  0  0  0  0  0  0  0  0  0  0  0
  2 10  1  0
  2  1  1  6
  3  2  1  0
  4  9  2  0
  4  3  1  0
  5  4  1  0
  6  7  1  0
  6  5  2  0
  7  8  2  0
  8  9  1  0
 10 11  2  0
 12 13  1  0
 12 10  1  0
 13 14  1  1
 14 15  1  0
 15 16  1  0
 16 17  1  0
 17 18  1  0
 19 13  1  0
 20 19  2  0
 22 21  1  6
 23 22  1  0
 25 24  1  6
 24 22  1  0
 25 26  1  0
 26 19  1  0
 27 25  1  0
 27 29  1  0
 28 27  2  0
M  END
$$$$
