FKL.pdb
     RDKit          3D

 29 29  0  0  1  0  0  0  0  0999 V2000
   18.0331  -23.0654    1.6896 N   0  0  0  0  0  0  0  0  0  0  0  0
   18.4895  -23.5878    2.9515 C   0  0  1  0  0  0  0  0  0  0  0  0
   19.9618  -23.8963    2.9654 C   0  0  0  0  0  0  0  0  0  0  0  0
   20.3816  -24.8675    1.9592 C   0  0  0  0  0  0  0  0  0  0  0  0
   21.2301  -24.4732    0.9483 C   0  0  0  0  0  0  0  0  0  0  0  0
   21.6596  -25.3607   -0.0350 C   0  0  0  0  0  0  0  0  0  0  0  0
   21.2342  -26.6625   -0.0072 C   0  0  0  0  0  0  0  0  0  0  0  0
   20.3853  -27.0632    1.0016 C   0  0  0  0  0  0  0  0  0  0  0  0
   19.9580  -26.1768    1.9814 C   0  0  0  0  0  0  0  0  0  0  0  0
   18.2365  -22.5584    3.9881 C   0  0  0  0  0  0  0  0  0  0  0  0
   18.5925  -21.3806    3.7461 O   0  0  0  0  0  0  0  0  0  0  0  0
   17.6159  -22.8151    5.2419 N   0  0  0  0  0  0  0  0  0  0  0  0
   17.3321  -21.7552    6.1880 C   0  0  1  0  0  0  0  0  0  0  0  0
   15.8717  -21.6758    6.5280 C   0  0  0  0  0  0  0  0  0  0  0  0
   15.3689  -20.2942    6.1833 C   0  0  0  0  0  0  0  0  0  0  0  0
   13.8766  -20.1878    6.4476 C   0  0  0  0  0  0  0  0  0  0  0  0
   13.3995  -18.8106    6.0990 C   0  0  0  0  0  0  0  0  0  0  0  0
   11.9505  -18.7955    6.3582 N   0  0  0  0  0  0  0  0  0  0  0  0
   18.1305  -21.9224    7.4502 C   0  0  0  0  0  0  0  0  0  0  0  0
   18.4522  -23.0826    7.7712 O   0  0  0  0  0  0  0  0  0  0  0  0
   22.9720  -20.8364   10.2523 C   0  0  0  0  0  0  0  0  0  0  0  0
   21.5569  -21.4150   10.3934 C   0  0  2  0  0  0  0  0  0  0  0  0
   21.6374  -22.8714   10.7513 C   0  0  0  0  0  0  0  0  0  0  0  0
   20.7426  -21.1301    9.1871 C   0  0  0  0  0  0  0  0  0  0  0  0
   19.2776  -21.1080    9.4824 C   0  0  2  0  0  0  0  0  0  0  0  0
   18.5144  -20.8279    8.2590 N   0  0  0  0  0  0  0  0  0  0  0  0
   18.9189  -20.0953   10.4852 C   0  0  0  0  0  0  0  0  0  0  0  0
   18.5669  -18.9359   10.0834 O   0  0  0  0  0  0  0  0  0  0  0  0
   18.9333  -20.3104   11.8436 O   0  0  0  0  0  0  0  0  0  0  0  0
  2 10  1  0
  2  1  1  6
  3  2  1  0
  4  9  2  0
  4  3  1  0
  5  4  1  0
  6  7  1  0
  6  5  2  0
  7  8  2  0
  8  9  1  0
 10 11  2  0
 12 13  1  0
 12 10  1  0
 13 14  1  1
 14 15  1  0
 15 16  1  0
 16 17  1  0
 17 18  1  0
 19 13  1  0
 20 19  2  0
 22 21  1  6
 23 22  1  0
 25 24  1  6
 24 22  1  0
 25 26  1  0
 26 19  1  0
 27 25  1  0
 27 29  1  0
 28 27  2  0
M  END
$$$$
