FKL.pdb
     RDKit          3D

 29 29  0  0  1  0  0  0  0  0999 V2000
   28.8726  -20.9056   -9.4993 N   0  0  0  0  0  0  0  0  0  0  0  0
   27.4841  -20.8163   -9.1282 C   0  0  1  0  0  0  0  0  0  0  0  0
   27.1689  -19.5942   -8.3097 C   0  0  0  0  0  0  0  0  0  0  0  0
   27.8225  -19.5603   -7.0045 C   0  0  0  0  0  0  0  0  0  0  0  0
   28.1763  -20.7422   -6.3920 C   0  0  0  0  0  0  0  0  0  0  0  0
   28.8014  -20.7637   -5.1480 C   0  0  0  0  0  0  0  0  0  0  0  0
   29.0769  -19.5853   -4.5062 C   0  0  0  0  0  0  0  0  0  0  0  0
   28.7255  -18.3994   -5.1136 C   0  0  0  0  0  0  0  0  0  0  0  0
   28.1022  -18.3798   -6.3544 C   0  0  0  0  0  0  0  0  0  0  0  0
   26.6843  -20.7408  -10.3744 C   0  0  0  0  0  0  0  0  0  0  0  0
   27.0448  -19.9248  -11.2557 O   0  0  0  0  0  0  0  0  0  0  0  0
   25.5330  -21.5325  -10.6403 N   0  0  0  0  0  0  0  0  0  0  0  0
   24.8785  -21.5238  -11.9328 C   0  0  1  0  0  0  0  0  0  0  0  0
   24.7161  -22.9068  -12.4945 C   0  0  0  0  0  0  0  0  0  0  0  0
   24.9909  -22.8618  -13.9787 C   0  0  0  0  0  0  0  0  0  0  0  0
   24.7269  -24.2173  -14.6119 C   0  0  0  0  0  0  0  0  0  0  0  0
   24.9367  -24.1316  -16.0933 C   0  0  0  0  0  0  0  0  0  0  0  0
   24.6570  -25.4734  -16.6303 N   0  0  0  0  0  0  0  0  0  0  0  0
   23.5355  -20.8534  -11.8598 C   0  0  0  0  0  0  0  0  0  0  0  0
   22.9216  -20.9243  -10.7778 O   0  0  0  0  0  0  0  0  0  0  0  0
   19.7731  -17.0550  -14.9439 C   0  0  0  0  0  0  0  0  0  0  0  0
   20.0819  -17.8636  -13.6759 C   0  0  2  0  0  0  0  0  0  0  0  0
   19.7915  -17.0313  -12.4599 C   0  0  0  0  0  0  0  0  0  0  0  0
   21.4574  -18.4166  -13.7190 C   0  0  0  0  0  0  0  0  0  0  0  0
   21.6371  -19.5672  -12.7821 C   0  0  2  0  0  0  0  0  0  0  0  0
   22.9678  -20.1643  -12.9562 N   0  0  0  0  0  0  0  0  0  0  0  0
   20.6341  -20.6222  -12.9845 C   0  0  0  0  0  0  0  0  0  0  0  0
   19.5682  -20.5941  -12.2827 O   0  0  0  0  0  0  0  0  0  0  0  0
   20.7620  -21.6500  -13.8895 O   0  0  0  0  0  0  0  0  0  0  0  0
  2 10  1  0
  2  1  1  6
  3  2  1  0
  4  9  2  0
  4  3  1  0
  5  4  1  0
  6  7  1  0
  6  5  2  0
  7  8  2  0
  8  9  1  0
 10 11  2  0
 12 13  1  0
 12 10  1  0
 13 14  1  1
 14 15  1  0
 15 16  1  0
 16 17  1  0
 17 18  1  0
 19 13  1  0
 20 19  2  0
 22 21  1  6
 23 22  1  0
 25 24  1  6
 24 22  1  0
 25 26  1  0
 26 19  1  0
 27 25  1  0
 27 29  1  0
 28 27  2  0
M  END
$$$$
