FKL.pdb
     RDKit          3D

 29 29  0  0  1  0  0  0  0  0999 V2000
   22.0590  -19.8629  -17.7514 N   0  0  0  0  0  0  0  0  0  0  0  0
   22.8203  -18.8740  -17.0330 C   0  0  1  0  0  0  0  0  0  0  0  0
   21.9827  -18.0535  -16.0907 C   0  0  0  0  0  0  0  0  0  0  0  0
   21.0912  -17.1041  -16.7508 C   0  0  0  0  0  0  0  0  0  0  0  0
   21.5807  -15.8813  -17.1537 C   0  0  0  0  0  0  0  0  0  0  0  0
   20.7718  -14.9414  -17.7871 C   0  0  0  0  0  0  0  0  0  0  0  0
   19.4530  -15.2284  -18.0212 C   0  0  0  0  0  0  0  0  0  0  0  0
   18.9571  -16.4501  -17.6206 C   0  0  0  0  0  0  0  0  0  0  0  0
   19.7653  -17.3862  -16.9890 C   0  0  0  0  0  0  0  0  0  0  0  0
   23.8404  -19.5844  -16.2247 C   0  0  0  0  0  0  0  0  0  0  0  0
   23.4789  -20.5982  -15.5814 O   0  0  0  0  0  0  0  0  0  0  0  0
   25.2047  -19.1942  -16.1282 N   0  0  0  0  0  0  0  0  0  0  0  0
   26.1425  -19.8909  -15.2715 C   0  0  1  0  0  0  0  0  0  0  0  0
   27.5587  -19.4505  -15.5061 C   0  0  0  0  0  0  0  0  0  0  0  0
   28.4217  -20.6753  -15.6944 C   0  0  0  0  0  0  0  0  0  0  0  0
   27.8930  -21.5311  -16.8329 C   0  0  0  0  0  0  0  0  0  0  0  0
   28.7464  -22.7538  -16.9832 C   0  0  0  0  0  0  0  0  0  0  0  0
   28.0182  -23.6595  -17.8867 N   0  0  0  0  0  0  0  0  0  0  0  0
   25.7962  -19.7076  -13.8206 C   0  0  0  0  0  0  0  0  0  0  0  0
   25.4768  -18.5611  -13.4518 O   0  0  0  0  0  0  0  0  0  0  0  0
   21.9698  -20.9905  -10.1794 C   0  0  0  0  0  0  0  0  0  0  0  0
   23.2355  -20.2338  -10.6069 C   0  0  2  0  0  0  0  0  0  0  0  0
   22.8830  -19.1923  -11.6299 C   0  0  0  0  0  0  0  0  0  0  0  0
   24.2976  -21.1744  -11.0389 C   0  0  0  0  0  0  0  0  0  0  0  0
   25.5372  -20.4670  -11.4829 C   0  0  2  0  0  0  0  0  0  0  0  0
   25.8229  -20.7726  -12.8910 N   0  0  0  0  0  0  0  0  0  0  0  0
   26.7155  -20.8393  -10.6875 C   0  0  0  0  0  0  0  0  0  0  0  0
   26.8821  -20.2884   -9.5480 O   0  0  0  0  0  0  0  0  0  0  0  0
   27.6632  -21.7527  -11.0868 O   0  0  0  0  0  0  0  0  0  0  0  0
  2 10  1  0
  2  1  1  1
  3  2  1  0
  4  9  2  0
  4  3  1  0
  5  4  1  0
  6  7  1  0
  6  5  2  0
  7  8  2  0
  8  9  1  0
 10 11  2  0
 12 13  1  0
 12 10  1  0
 13 14  1  1
 14 15  1  0
 15 16  1  0
 16 17  1  0
 17 18  1  0
 19 13  1  0
 20 19  2  0
 22 21  1  6
 23 22  1  0
 25 24  1  1
 24 22  1  0
 25 26  1  0
 26 19  1  0
 27 25  1  0
 27 29  1  0
 28 27  2  0
M  END
$$$$
