FKL.pdb
     RDKit          3D

 29 29  0  0  1  0  0  0  0  0999 V2000
   25.3295  -18.7973  -17.7061 N   0  0  0  0  0  0  0  0  0  0  0  0
   25.7564  -18.0366  -16.5603 C   0  0  1  0  0  0  0  0  0  0  0  0
   24.6663  -17.1752  -15.9836 C   0  0  0  0  0  0  0  0  0  0  0  0
   24.3232  -16.0139  -16.7994 C   0  0  0  0  0  0  0  0  0  0  0  0
   25.1844  -14.9400  -16.8471 C   0  0  0  0  0  0  0  0  0  0  0  0
   24.9033  -13.8093  -17.6095 C   0  0  0  0  0  0  0  0  0  0  0  0
   23.7433  -13.7513  -18.3357 C   0  0  0  0  0  0  0  0  0  0  0  0
   22.8774  -14.8224  -18.2923 C   0  0  0  0  0  0  0  0  0  0  0  0
   23.1594  -15.9493  -17.5313 C   0  0  0  0  0  0  0  0  0  0  0  0
   26.1756  -18.9944  -15.5091 C   0  0  0  0  0  0  0  0  0  0  0  0
   25.4146  -19.9581  -15.2547 O   0  0  0  0  0  0  0  0  0  0  0  0
   27.3848  -18.8955  -14.7668 N   0  0  0  0  0  0  0  0  0  0  0  0
   27.7027  -19.8149  -13.6932 C   0  0  1  0  0  0  0  0  0  0  0  0
   29.1753  -19.8601  -13.4039 C   0  0  0  0  0  0  0  0  0  0  0  0
   29.4187  -20.8432  -12.2838 C   0  0  0  0  0  0  0  0  0  0  0  0
   30.9056  -20.9716  -11.9996 C   0  0  0  0  0  0  0  0  0  0  0  0
   31.1355  -22.0627  -10.9984 C   0  0  0  0  0  0  0  0  0  0  0  0
   32.5946  -22.1866  -10.8474 N   0  0  0  0  0  0  0  0  0  0  0  0
   26.9571  -19.4647  -12.4363 C   0  0  0  0  0  0  0  0  0  0  0  0
   26.6098  -18.2767  -12.2923 O   0  0  0  0  0  0  0  0  0  0  0  0
   22.7759  -21.1593   -9.8706 C   0  0  0  0  0  0  0  0  0  0  0  0
   22.9595  -19.9888  -10.8469 C   0  0  2  0  0  0  0  0  0  0  0  0
   21.7505  -19.8699  -11.7299 C   0  0  0  0  0  0  0  0  0  0  0  0
   24.2409  -20.1066  -11.5843 C   0  0  0  0  0  0  0  0  0  0  0  0
   25.4140  -20.2392  -10.6677 C   0  0  2  0  0  0  0  0  0  0  0  0
   26.6489  -20.4217  -11.4420 N   0  0  0  0  0  0  0  0  0  0  0  0
   25.2834  -21.3747   -9.7439 C   0  0  0  0  0  0  0  0  0  0  0  0
   24.8652  -21.1525   -8.5584 O   0  0  0  0  0  0  0  0  0  0  0  0
   25.5811  -22.6774  -10.0699 O   0  0  0  0  0  0  0  0  0  0  0  0
  2 10  1  0
  2  1  1  6
  3  2  1  0
  4  9  2  0
  4  3  1  0
  5  4  1  0
  6  7  1  0
  6  5  2  0
  7  8  2  0
  8  9  1  0
 10 11  2  0
 12 13  1  0
 12 10  1  0
 13 14  1  1
 14 15  1  0
 15 16  1  0
 16 17  1  0
 17 18  1  0
 19 13  1  0
 20 19  2  0
 22 21  1  6
 23 22  1  0
 25 24  1  6
 24 22  1  0
 25 26  1  0
 26 19  1  0
 27 25  1  0
 27 29  1  0
 28 27  2  0
M  END
$$$$
