FKL.pdb
     RDKit          3D

 29 29  0  0  1  0  0  0  0  0999 V2000
   16.3877  -13.6410    5.2041 N   0  0  0  0  0  0  0  0  0  0  0  0
   16.7098  -15.0355    5.3630 C   0  0  1  0  0  0  0  0  0  0  0  0
   18.0106  -15.4192    4.7122 C   0  0  0  0  0  0  0  0  0  0  0  0
   17.9365  -15.5650    3.2614 C   0  0  0  0  0  0  0  0  0  0  0  0
   18.5283  -14.6194    2.4534 C   0  0  0  0  0  0  0  0  0  0  0  0
   18.4859  -14.7127    1.0648 C   0  0  0  0  0  0  0  0  0  0  0  0
   17.8418  -15.7679    0.4747 C   0  0  0  0  0  0  0  0  0  0  0  0
   17.2477  -16.7174    1.2774 C   0  0  0  0  0  0  0  0  0  0  0  0
   17.2911  -16.6227    2.6621 C   0  0  0  0  0  0  0  0  0  0  0  0
   16.8352  -15.3107    6.8145 C   0  0  0  0  0  0  0  0  0  0  0  0
   17.4271  -14.4632    7.5244 O   0  0  0  0  0  0  0  0  0  0  0  0
   16.3292  -16.4730    7.4594 N   0  0  0  0  0  0  0  0  0  0  0  0
   16.8475  -16.9302    8.7327 C   0  0  1  0  0  0  0  0  0  0  0  0
   15.9106  -17.8843    9.4157 C   0  0  0  0  0  0  0  0  0  0  0  0
   16.4242  -18.1522   10.8103 C   0  0  0  0  0  0  0  0  0  0  0  0
   15.4973  -19.1040   11.5470 C   0  0  0  0  0  0  0  0  0  0  0  0
   15.9811  -19.2923   12.9528 C   0  0  0  0  0  0  0  0  0  0  0  0
   15.0504  -20.2392   13.5886 N   0  0  0  0  0  0  0  0  0  0  0  0
   18.1930  -17.5801    8.5724 C   0  0  0  0  0  0  0  0  0  0  0  0
   18.5448  -17.8838    7.4164 O   0  0  0  0  0  0  0  0  0  0  0  0
   23.0213  -17.3826    8.7731 C   0  0  0  0  0  0  0  0  0  0  0  0
   22.2521  -16.0565    8.8572 C   0  0  2  0  0  0  0  0  0  0  0  0
   22.8472  -15.1918    9.9313 C   0  0  0  0  0  0  0  0  0  0  0  0
   20.7959  -16.2944    9.0063 C   0  0  0  0  0  0  0  0  0  0  0  0
   20.4914  -17.6803    9.4760 C   0  0  2  0  0  0  0  0  0  0  0  0
   19.0448  -17.8477    9.6689 N   0  0  0  0  0  0  0  0  0  0  0  0
   21.1609  -18.0071   10.7427 C   0  0  0  0  0  0  0  0  0  0  0  0
   20.7002  -17.5078   11.8235 O   0  0  0  0  0  0  0  0  0  0  0  0
   22.2617  -18.8249   10.8492 O   0  0  0  0  0  0  0  0  0  0  0  0
  2 10  1  0
  2  1  1  1
  3  2  1  0
  4  9  2  0
  4  3  1  0
  5  4  1  0
  6  7  1  0
  6  5  2  0
  7  8  2  0
  8  9  1  0
 10 11  2  0
 12 13  1  0
 12 10  1  0
 13 14  1  6
 14 15  1  0
 15 16  1  0
 16 17  1  0
 17 18  1  0
 19 13  1  0
 20 19  2  0
 22 21  1  1
 23 22  1  0
 25 24  1  1
 24 22  1  0
 25 26  1  0
 26 19  1  0
 27 25  1  0
 27 29  1  0
 28 27  2  0
M  END
$$$$
