FKL.pdb
     RDKit          3D

 29 29  0  0  1  0  0  0  0  0999 V2000
   28.3806  -10.5797  -19.4228 N   0  0  0  0  0  0  0  0  0  0  0  0
   28.2998  -10.2234  -18.0299 C   0  0  1  0  0  0  0  0  0  0  0  0
   28.9670   -8.9123  -17.7158 C   0  0  0  0  0  0  0  0  0  0  0  0
   30.4023   -8.8894  -17.9828 C   0  0  0  0  0  0  0  0  0  0  0  0
   30.9421   -7.8456  -18.7013 C   0  0  0  0  0  0  0  0  0  0  0  0
   32.3042   -7.7773  -18.9824 C   0  0  0  0  0  0  0  0  0  0  0  0
   33.1395   -8.7680  -18.5383 C   0  0  0  0  0  0  0  0  0  0  0  0
   32.6056   -9.8150  -17.8189 C   0  0  0  0  0  0  0  0  0  0  0  0
   31.2470   -9.8815  -17.5394 C   0  0  0  0  0  0  0  0  0  0  0  0
   26.8658  -10.0938  -17.6762 C   0  0  0  0  0  0  0  0  0  0  0  0
   26.0636   -9.7685  -18.5835 O   0  0  0  0  0  0  0  0  0  0  0  0
   26.3353  -10.3136  -16.3750 N   0  0  0  0  0  0  0  0  0  0  0  0
   24.9121  -10.2635  -16.1087 C   0  0  1  0  0  0  0  0  0  0  0  0
   24.5550  -10.9296  -14.8113 C   0  0  0  0  0  0  0  0  0  0  0  0
   23.0506  -10.9733  -14.6876 C   0  0  0  0  0  0  0  0  0  0  0  0
   22.5051  -12.2694  -15.2625 C   0  0  0  0  0  0  0  0  0  0  0  0
   21.0117  -12.2870  -15.1389 C   0  0  0  0  0  0  0  0  0  0  0  0
   20.5711  -13.6073  -15.6183 N   0  0  0  0  0  0  0  0  0  0  0  0
   24.4084   -8.8476  -16.0987 C   0  0  0  0  0  0  0  0  0  0  0  0
   25.1856   -7.9696  -15.6772 O   0  0  0  0  0  0  0  0  0  0  0  0
   21.1959   -4.8799  -17.8059 C   0  0  0  0  0  0  0  0  0  0  0  0
   22.7070   -5.0574  -18.0115 C   0  0  2  0  0  0  0  0  0  0  0  0
   23.1261   -4.3962  -19.2932 C   0  0  0  0  0  0  0  0  0  0  0  0
   23.0938   -6.4855  -17.9101 C   0  0  0  0  0  0  0  0  0  0  0  0
   22.7565   -7.0726  -16.5776 C   0  0  2  0  0  0  0  0  0  0  0  0
   23.1125   -8.4973  -16.5425 N   0  0  0  0  0  0  0  0  0  0  0  0
   21.3285   -6.9514  -16.2522 C   0  0  0  0  0  0  0  0  0  0  0  0
   20.5203   -7.8236  -16.7165 O   0  0  0  0  0  0  0  0  0  0  0  0
   20.7934   -5.9537  -15.4712 O   0  0  0  0  0  0  0  0  0  0  0  0
  2 10  1  0
  2  1  1  6
  3  2  1  0
  4  9  2  0
  4  3  1  0
  5  4  1  0
  6  7  1  0
  6  5  2  0
  7  8  2  0
  8  9  1  0
 10 11  2  0
 12 13  1  0
 12 10  1  0
 13 14  1  1
 14 15  1  0
 15 16  1  0
 16 17  1  0
 17 18  1  0
 19 13  1  0
 20 19  2  0
 22 21  1  6
 23 22  1  0
 25 24  1  6
 24 22  1  0
 25 26  1  0
 26 19  1  0
 27 25  1  0
 27 29  1  0
 28 27  2  0
M  END
$$$$
