FKL.pdb
     RDKit          3D

 29 29  0  0  1  0  0  0  0  0999 V2000
   24.7251  -20.9677   -7.9734 N   0  0  0  0  0  0  0  0  0  0  0  0
   25.8559  -20.3019   -8.5663 C   0  0  1  0  0  0  0  0  0  0  0  0
   27.1757  -20.8733   -8.1253 C   0  0  0  0  0  0  0  0  0  0  0  0
   27.6732  -20.3323   -6.8636 C   0  0  0  0  0  0  0  0  0  0  0  0
   27.5295  -18.9884   -6.5981 C   0  0  0  0  0  0  0  0  0  0  0  0
   27.9867  -18.4237   -5.4103 C   0  0  0  0  0  0  0  0  0  0  0  0
   28.5971  -19.2149   -4.4733 C   0  0  0  0  0  0  0  0  0  0  0  0
   28.7439  -20.5603   -4.7329 C   0  0  0  0  0  0  0  0  0  0  0  0
   28.2872  -21.1217   -5.9180 C   0  0  0  0  0  0  0  0  0  0  0  0
   25.7627  -20.4692  -10.0365 C   0  0  0  0  0  0  0  0  0  0  0  0
   24.6919  -20.9179  -10.5103 O   0  0  0  0  0  0  0  0  0  0  0  0
   26.8071  -20.1551  -10.9495 N   0  0  0  0  0  0  0  0  0  0  0  0
   26.5358  -19.6577  -12.2830 C   0  0  1  0  0  0  0  0  0  0  0  0
   27.7753  -19.1484  -12.9603 C   0  0  0  0  0  0  0  0  0  0  0  0
   27.3885  -18.5518  -14.2926 C   0  0  0  0  0  0  0  0  0  0  0  0
   28.6225  -18.0927  -15.0505 C   0  0  0  0  0  0  0  0  0  0  0  0
   28.2093  -17.3404  -16.2789 C   0  0  0  0  0  0  0  0  0  0  0  0
   29.4523  -16.9448  -16.9610 N   0  0  0  0  0  0  0  0  0  0  0  0
   25.8965  -20.7140  -13.1397 C   0  0  0  0  0  0  0  0  0  0  0  0
   26.2945  -21.8854  -12.9916 O   0  0  0  0  0  0  0  0  0  0  0  0
   22.1454  -23.4859  -14.2299 C   0  0  0  0  0  0  0  0  0  0  0  0
   21.9564  -22.5395  -13.0358 C   0  0  2  0  0  0  0  0  0  0  0  0
   20.6058  -21.8874  -13.1138 C   0  0  0  0  0  0  0  0  0  0  0  0
   23.0864  -21.5850  -12.9290 C   0  0  0  0  0  0  0  0  0  0  0  0
   23.7838  -21.3812  -14.2353 C   0  0  2  0  0  0  0  0  0  0  0  0
   24.8841  -20.4202  -14.0821 N   0  0  0  0  0  0  0  0  0  0  0  0
   22.8839  -20.8805  -15.2837 C   0  0  0  0  0  0  0  0  0  0  0  0
   22.6415  -19.6281  -15.3335 O   0  0  0  0  0  0  0  0  0  0  0  0
   22.2777  -21.6744  -16.2292 O   0  0  0  0  0  0  0  0  0  0  0  0
  2 10  1  0
  2  1  1  1
  3  2  1  0
  4  9  2  0
  4  3  1  0
  5  4  1  0
  6  7  1  0
  6  5  2  0
  7  8  2  0
  8  9  1  0
 10 11  2  0
 12 13  1  0
 12 10  1  0
 13 14  1  6
 14 15  1  0
 15 16  1  0
 16 17  1  0
 17 18  1  0
 19 13  1  0
 20 19  2  0
 22 21  1  6
 23 22  1  0
 25 24  1  1
 24 22  1  0
 25 26  1  0
 26 19  1  0
 27 25  1  0
 27 29  1  0
 28 27  2  0
M  END
$$$$
