FKL.pdb
     RDKit          3D

 29 29  0  0  1  0  0  0  0  0999 V2000
   24.5237  -18.1853  -19.2637 N   0  0  0  0  0  0  0  0  0  0  0  0
   25.2081  -17.7208  -18.0850 C   0  0  1  0  0  0  0  0  0  0  0  0
   24.4435  -16.6638  -17.3360 C   0  0  0  0  0  0  0  0  0  0  0  0
   24.2087  -15.4397  -18.0965 C   0  0  0  0  0  0  0  0  0  0  0  0
   25.2719  -14.6237  -18.4139 C   0  0  0  0  0  0  0  0  0  0  0  0
   25.1009  -13.4461  -19.1369 C   0  0  0  0  0  0  0  0  0  0  0  0
   23.8473  -13.0785  -19.5490 C   0  0  0  0  0  0  0  0  0  0  0  0
   22.7793  -13.8905  -19.2347 C   0  0  0  0  0  0  0  0  0  0  0  0
   22.9518  -15.0647  -18.5136 C   0  0  0  0  0  0  0  0  0  0  0  0
   25.3832  -18.8782  -17.1750 C   0  0  0  0  0  0  0  0  0  0  0  0
   24.3535  -19.4648  -16.7652 O   0  0  0  0  0  0  0  0  0  0  0  0
   26.6423  -19.3707  -16.7334 N   0  0  0  0  0  0  0  0  0  0  0  0
   26.7570  -20.5706  -15.9297 C   0  0  1  0  0  0  0  0  0  0  0  0
   28.1717  -21.0682  -15.8537 C   0  0  0  0  0  0  0  0  0  0  0  0
   28.4893  -21.8200  -17.1242 C   0  0  0  0  0  0  0  0  0  0  0  0
   29.8627  -22.4632  -17.0349 C   0  0  0  0  0  0  0  0  0  0  0  0
   30.1647  -23.1874  -18.3117 C   0  0  0  0  0  0  0  0  0  0  0  0
   31.4883  -23.8066  -18.1345 N   0  0  0  0  0  0  0  0  0  0  0  0
   26.2302  -20.3488  -14.5398 C   0  0  0  0  0  0  0  0  0  0  0  0
   26.4904  -19.2565  -13.9997 O   0  0  0  0  0  0  0  0  0  0  0  0
   21.6060  -20.0076  -11.1876 C   0  0  0  0  0  0  0  0  0  0  0  0
   23.1258  -20.2173  -11.1286 C   0  0  2  0  0  0  0  0  0  0  0  0
   23.7563  -19.1316  -10.3044 C   0  0  0  0  0  0  0  0  0  0  0  0
   23.6973  -20.3557  -12.4901 C   0  0  0  0  0  0  0  0  0  0  0  0
   25.0389  -21.0145  -12.4791 C   0  0  2  0  0  0  0  0  0  0  0  0
   25.4688  -21.3203  -13.8500 N   0  0  0  0  0  0  0  0  0  0  0  0
   25.0471  -22.2662  -11.7090 C   0  0  0  0  0  0  0  0  0  0  0  0
   24.9221  -23.3704  -12.3372 O   0  0  0  0  0  0  0  0  0  0  0  0
   25.1839  -22.3345  -10.3421 O   0  0  0  0  0  0  0  0  0  0  0  0
  2 10  1  0
  2  1  1  6
  3  2  1  0
  4  9  2  0
  4  3  1  0
  5  4  1  0
  6  7  1  0
  6  5  2  0
  7  8  2  0
  8  9  1  0
 10 11  2  0
 12 13  1  0
 12 10  1  0
 13 14  1  1
 14 15  1  0
 15 16  1  0
 16 17  1  0
 17 18  1  0
 19 13  1  0
 20 19  2  0
 22 21  1  6
 23 22  1  0
 25 24  1  6
 24 22  1  0
 25 26  1  0
 26 19  1  0
 27 25  1  0
 27 29  1  0
 28 27  2  0
M  END
$$$$
