FKL.pdb
     RDKit          3D

 29 29  0  0  1  0  0  0  0  0999 V2000
   23.1932  -12.9897  -18.2528 N   0  0  0  0  0  0  0  0  0  0  0  0
   23.4874  -12.3232  -17.0107 C   0  0  1  0  0  0  0  0  0  0  0  0
   24.9174  -11.8678  -16.9090 C   0  0  0  0  0  0  0  0  0  0  0  0
   25.8924  -12.9538  -16.8668 C   0  0  0  0  0  0  0  0  0  0  0  0
   26.7922  -13.0983  -17.8996 C   0  0  0  0  0  0  0  0  0  0  0  0
   27.7413  -14.1171  -17.9068 C   0  0  0  0  0  0  0  0  0  0  0  0
   27.7916  -15.0053  -16.8652 C   0  0  0  0  0  0  0  0  0  0  0  0
   26.8942  -14.8663  -15.8288 C   0  0  0  0  0  0  0  0  0  0  0  0
   25.9483  -13.8496  -15.8233 C   0  0  0  0  0  0  0  0  0  0  0  0
   22.6255  -11.1198  -16.9252 C   0  0  0  0  0  0  0  0  0  0  0  0
   22.4144  -10.4720  -17.9779 O   0  0  0  0  0  0  0  0  0  0  0  0
   22.0198  -10.6479  -15.7280 N   0  0  0  0  0  0  0  0  0  0  0  0
   21.1598   -9.4820  -15.7119 C   0  0  1  0  0  0  0  0  0  0  0  0
   19.8293   -9.7686  -15.0778 C   0  0  0  0  0  0  0  0  0  0  0  0
   19.0616  -10.7149  -15.9698 C   0  0  0  0  0  0  0  0  0  0  0  0
   17.6578  -10.9349  -15.4322 C   0  0  0  0  0  0  0  0  0  0  0  0
   16.8692  -11.7600  -16.4034 C   0  0  0  0  0  0  0  0  0  0  0  0
   15.5229  -11.9062  -15.8263 N   0  0  0  0  0  0  0  0  0  0  0  0
   21.8144   -8.3310  -15.0013 C   0  0  0  0  0  0  0  0  0  0  0  0
   22.4519   -8.5910  -13.9628 O   0  0  0  0  0  0  0  0  0  0  0  0
   25.2361   -5.3077  -17.1553 C   0  0  0  0  0  0  0  0  0  0  0  0
   23.7945   -5.4645  -16.6512 C   0  0  2  0  0  0  0  0  0  0  0  0
   22.9689   -4.2938  -17.1021 C   0  0  0  0  0  0  0  0  0  0  0  0
   23.7652   -5.7006  -15.1873 C   0  0  0  0  0  0  0  0  0  0  0  0
   22.3814   -5.9469  -14.6789 C   0  0  2  0  0  0  0  0  0  0  0  0
   21.7274   -6.9991  -15.4682 N   0  0  0  0  0  0  0  0  0  0  0  0
   21.5374   -4.7451  -14.7335 C   0  0  0  0  0  0  0  0  0  0  0  0
   20.5060   -4.7568  -15.4856 O   0  0  0  0  0  0  0  0  0  0  0  0
   21.7808   -3.5940  -14.0212 O   0  0  0  0  0  0  0  0  0  0  0  0
  2 10  1  0
  2  1  1  6
  3  2  1  0
  4  9  2  0
  4  3  1  0
  5  4  1  0
  6  7  1  0
  6  5  2  0
  7  8  2  0
  8  9  1  0
 10 11  2  0
 12 13  1  0
 12 10  1  0
 13 14  1  1
 14 15  1  0
 15 16  1  0
 16 17  1  0
 17 18  1  0
 19 13  1  0
 20 19  2  0
 22 21  1  1
 23 22  1  0
 25 24  1  6
 24 22  1  0
 25 26  1  0
 26 19  1  0
 27 25  1  0
 27 29  1  0
 28 27  2  0
M  END
$$$$
