FKL.pdb
     RDKit          3D

 29 29  0  0  1  0  0  0  0  0999 V2000
   27.1572  -22.0365  -13.9807 N   0  0  0  0  0  0  0  0  0  0  0  0
   26.9569  -21.2098  -12.8188 C   0  0  1  0  0  0  0  0  0  0  0  0
   27.2926  -19.7631  -13.0581 C   0  0  0  0  0  0  0  0  0  0  0  0
   28.6916  -19.5191  -13.3970 C   0  0  0  0  0  0  0  0  0  0  0  0
   29.6648  -19.7125  -12.4417 C   0  0  0  0  0  0  0  0  0  0  0  0
   31.0126  -19.4937  -12.7146 C   0  0  0  0  0  0  0  0  0  0  0  0
   31.3933  -19.0750  -13.9620 C   0  0  0  0  0  0  0  0  0  0  0  0
   30.4246  -18.8796  -14.9223 C   0  0  0  0  0  0  0  0  0  0  0  0
   29.0809  -19.0984  -14.6483 C   0  0  0  0  0  0  0  0  0  0  0  0
   25.5226  -21.2831  -12.4503 C   0  0  0  0  0  0  0  0  0  0  0  0
   24.7050  -21.6279  -13.3364 O   0  0  0  0  0  0  0  0  0  0  0  0
   25.0083  -20.9886  -11.1574 N   0  0  0  0  0  0  0  0  0  0  0  0
   23.6010  -21.1274  -10.8422 C   0  0  1  0  0  0  0  0  0  0  0  0
   23.3177  -20.8689   -9.3905 C   0  0  0  0  0  0  0  0  0  0  0  0
   21.8409  -21.0648   -9.1431 C   0  0  0  0  0  0  0  0  0  0  0  0
   21.6124  -21.8135   -7.8411 C   0  0  0  0  0  0  0  0  0  0  0  0
   20.1558  -22.1325   -7.6916 C   0  0  0  0  0  0  0  0  0  0  0  0
   20.0172  -22.8502   -6.4138 N   0  0  0  0  0  0  0  0  0  0  0  0
   22.7599  -20.2115  -11.6862 C   0  0  0  0  0  0  0  0  0  0  0  0
   23.2821  -19.1449  -12.0632 O   0  0  0  0  0  0  0  0  0  0  0  0
   22.4047  -20.3504  -16.8662 C   0  0  0  0  0  0  0  0  0  0  0  0
   21.4443  -19.8887  -15.7609 C   0  0  2  0  0  0  0  0  0  0  0  0
   21.1986  -18.4124  -15.8861 C   0  0  0  0  0  0  0  0  0  0  0  0
   21.9275  -20.3129  -14.4245 C   0  0  0  0  0  0  0  0  0  0  0  0
   20.9361  -20.0246  -13.3438 C   0  0  2  0  0  0  0  0  0  0  0  0
   21.4298  -20.5210  -12.0524 N   0  0  0  0  0  0  0  0  0  0  0  0
   19.6270  -20.6418  -13.5990 C   0  0  0  0  0  0  0  0  0  0  0  0
   18.9915  -20.3110  -14.6556 O   0  0  0  0  0  0  0  0  0  0  0  0
   19.0304  -21.5643  -12.7716 O   0  0  0  0  0  0  0  0  0  0  0  0
  2 10  1  0
  2  1  1  6
  3  2  1  0
  4  9  2  0
  4  3  1  0
  5  4  1  0
  6  7  1  0
  6  5  2  0
  7  8  2  0
  8  9  1  0
 10 11  2  0
 12 13  1  0
 12 10  1  0
 13 14  1  1
 14 15  1  0
 15 16  1  0
 16 17  1  0
 17 18  1  0
 19 13  1  0
 20 19  2  0
 22 21  1  6
 23 22  1  0
 25 24  1  6
 24 22  1  0
 25 26  1  0
 26 19  1  0
 27 25  1  0
 27 29  1  0
 28 27  2  0
M  END
$$$$
