FKL.pdb
     RDKit          3D

 29 29  0  0  1  0  0  0  0  0999 V2000
   26.3880  -21.7946   -7.6375 N   0  0  0  0  0  0  0  0  0  0  0  0
   26.3534  -20.4933   -8.2532 C   0  0  1  0  0  0  0  0  0  0  0  0
   27.5413  -19.6408   -7.8998 C   0  0  0  0  0  0  0  0  0  0  0  0
   27.6905  -19.3808   -6.4709 C   0  0  0  0  0  0  0  0  0  0  0  0
   28.0812  -20.4016   -5.6327 C   0  0  0  0  0  0  0  0  0  0  0  0
   28.2378  -20.2051   -4.2631 C   0  0  0  0  0  0  0  0  0  0  0  0
   28.0000  -18.9690   -3.7231 C   0  0  0  0  0  0  0  0  0  0  0  0
   27.6087  -17.9435   -4.5562 C   0  0  0  0  0  0  0  0  0  0  0  0
   27.4531  -18.1412   -5.9219 C   0  0  0  0  0  0  0  0  0  0  0  0
   26.3597  -20.6856   -9.7233 C   0  0  0  0  0  0  0  0  0  0  0  0
   27.0501  -21.6223  -10.1906 O   0  0  0  0  0  0  0  0  0  0  0  0
   25.6348  -19.8785  -10.6431 N   0  0  0  0  0  0  0  0  0  0  0  0
   25.3633  -20.3151  -11.9976 C   0  0  1  0  0  0  0  0  0  0  0  0
   24.5985  -21.6067  -12.0337 C   0  0  0  0  0  0  0  0  0  0  0  0
   24.3935  -22.0078  -13.4751 C   0  0  0  0  0  0  0  0  0  0  0  0
   24.8996  -23.4203  -13.7133 C   0  0  0  0  0  0  0  0  0  0  0  0
   24.6816  -23.7992  -15.1468 C   0  0  0  0  0  0  0  0  0  0  0  0
   25.1827  -25.1756  -15.2929 N   0  0  0  0  0  0  0  0  0  0  0  0
   24.6107  -19.2670  -12.7681 C   0  0  0  0  0  0  0  0  0  0  0  0
   23.4018  -19.4774  -12.9843 O   0  0  0  0  0  0  0  0  0  0  0  0
   27.0902  -16.4501  -16.5623 C   0  0  0  0  0  0  0  0  0  0  0  0
   27.6069  -17.4509  -15.5190 C   0  0  2  0  0  0  0  0  0  0  0  0
   28.9288  -18.0091  -15.9623 C   0  0  0  0  0  0  0  0  0  0  0  0
   26.5834  -18.4808  -15.2167 C   0  0  0  0  0  0  0  0  0  0  0  0
   25.3162  -17.8861  -14.6927 C   0  0  2  0  0  0  0  0  0  0  0  0
   25.2224  -18.0828  -13.2401 N   0  0  0  0  0  0  0  0  0  0  0  0
   24.1191  -18.4734  -15.3105 C   0  0  0  0  0  0  0  0  0  0  0  0
   24.0495  -19.7433  -15.4209 O   0  0  0  0  0  0  0  0  0  0  0  0
   23.0530  -17.7437  -15.7824 O   0  0  0  0  0  0  0  0  0  0  0  0
  2 10  1  0
  2  1  1  1
  3  2  1  0
  4  9  2  0
  4  3  1  0
  5  4  1  0
  6  7  1  0
  6  5  2  0
  7  8  2  0
  8  9  1  0
 10 11  2  0
 12 13  1  0
 12 10  1  0
 13 14  1  1
 14 15  1  0
 15 16  1  0
 16 17  1  0
 17 18  1  0
 19 13  1  0
 20 19  2  0
 22 21  1  6
 23 22  1  0
 25 24  1  6
 24 22  1  0
 25 26  1  0
 26 19  1  0
 27 25  1  0
 27 29  1  0
 28 27  2  0
M  END
$$$$
