FKK.pdb
     RDKit          3D

 30 30  0  0  1  0  0  0  0  0999 V2000
    5.7722  -17.4383   25.8227 N   0  0  0  0  0  0  0  0  0  0  0  0
    6.3665  -16.1715   25.5108 C   0  0  1  0  0  0  0  0  0  0  0  0
    7.1021  -15.6504   26.7146 C   0  0  0  0  0  0  0  0  0  0  0  0
    6.9791  -14.1686   26.7134 C   0  0  0  0  0  0  0  0  0  0  0  0
    5.7181  -13.6000   26.7084 C   0  0  0  0  0  0  0  0  0  0  0  0
    5.6364  -12.2232   26.7073 C   0  0  0  0  0  0  0  0  0  0  0  0
    6.7227  -11.3916   26.7109 C   0  0  0  0  0  0  0  0  0  0  0  0
    7.9905  -11.9613   26.7159 C   0  0  0  0  0  0  0  0  0  0  0  0
    8.1020  -13.3374   26.7172 C   0  0  0  0  0  0  0  0  0  0  0  0
    7.2324  -16.2584   24.3095 C   0  0  0  0  0  0  0  0  0  0  0  0
    7.9112  -17.3057   24.1456 O   0  0  0  0  0  0  0  0  0  0  0  0
    7.3403  -15.2466   23.3472 N   0  0  0  0  0  0  0  0  0  0  0  0
    8.1215  -15.3653   22.1549 C   0  0  1  0  0  0  0  0  0  0  0  0
    7.8700  -14.2225   21.1837 C   0  0  0  0  0  0  0  0  0  0  0  0
    8.6207  -14.4999   19.8755 C   0  0  0  0  0  0  0  0  0  0  0  0
    8.2333  -13.5087   18.8113 C   0  0  0  0  0  0  0  0  0  0  0  0
    8.8115  -14.0063   17.5034 C   0  0  0  0  0  0  0  0  0  0  0  0
    8.4251  -13.1704   16.3954 N   0  0  0  0  0  0  0  0  0  0  0  0
    9.5690  -15.3795   22.4590 C   0  0  0  0  0  0  0  0  0  0  0  0
    9.9846  -14.5758   23.3260 O   0  0  0  0  0  0  0  0  0  0  0  0
   10.4909  -16.2428   21.8281 N   0  0  0  0  0  0  0  0  0  0  0  0
   11.7875  -16.4617   22.4941 C   0  0  1  0  0  0  0  0  0  0  0  0
   11.9406  -17.9265   22.8360 C   0  0  0  0  0  0  0  0  0  0  0  0
   13.2754  -18.1829   23.4273 C   0  0  0  0  0  0  0  0  0  0  0  0
   13.5134  -19.6400   23.7691 C   0  0  0  0  0  0  0  0  0  0  0  0
   14.8862  -19.8841   24.3392 C   0  0  0  0  0  0  0  0  0  0  0  0
   15.1150  -21.2824   24.6341 N   0  0  0  0  0  0  0  0  0  0  0  0
   12.8036  -15.9340   21.5806 C   0  0  0  0  0  0  0  0  0  0  0  0
   13.8881  -15.3977   21.9362 O   0  0  0  0  0  0  0  0  0  0  0  0
   12.6255  -15.9952   20.1849 O   0  0  0  0  0  0  0  0  0  0  0  0
  2  1  1  1
  2  3  1  0
  3  4  1  0
  4  9  2  0
  5  4  1  0
  5  6  2  0
  6  7  1  0
  7  8  2  0
  9  8  1  0
 10 12  1  0
 10  2  1  0
 11 10  2  0
 13 19  1  0
 13 12  1  0
 13 14  1  6
 15 14  1  0
 16 15  1  0
 17 18  1  0
 17 16  1  0
 19 21  1  0
 20 19  2  0
 21 22  1  0
 22 28  1  0
 23 24  1  0
 22 23  1  6
 25 24  1  0
 26 25  1  0
 27 26  1  0
 28 29  2  0
 28 30  1  0
M  END
$$$$
