FKK.pdb
     RDKit          3D

 30 30  0  0  1  0  0  0  0  0999 V2000
    6.7990  -17.0251   26.3783 N   0  0  0  0  0  0  0  0  0  0  0  0
    6.2058  -16.5005   25.1831 C   0  0  1  0  0  0  0  0  0  0  0  0
    5.4308  -15.2541   25.5110 C   0  0  0  0  0  0  0  0  0  0  0  0
    6.3975  -14.2362   26.0010 C   0  0  0  0  0  0  0  0  0  0  0  0
    6.5239  -14.0320   27.3633 C   0  0  0  0  0  0  0  0  0  0  0  0
    7.4287  -13.0811   27.7872 C   0  0  0  0  0  0  0  0  0  0  0  0
    8.2039  -12.3325   26.9445 C   0  0  0  0  0  0  0  0  0  0  0  0
    8.0782  -12.5364   25.5754 C   0  0  0  0  0  0  0  0  0  0  0  0
    7.1800  -13.4822   25.1229 C   0  0  0  0  0  0  0  0  0  0  0  0
    7.2213  -16.2765   24.1254 C   0  0  0  0  0  0  0  0  0  0  0  0
    8.2556  -16.9938   24.1386 O   0  0  0  0  0  0  0  0  0  0  0  0
    7.0993  -15.3158   23.1137 N   0  0  0  0  0  0  0  0  0  0  0  0
    7.9742  -15.2364   21.9849 C   0  0  1  0  0  0  0  0  0  0  0  0
    7.7537  -13.9707   21.1714 C   0  0  0  0  0  0  0  0  0  0  0  0
    8.6113  -14.0333   19.9015 C   0  0  0  0  0  0  0  0  0  0  0  0
    7.8250  -13.5886   18.6978 C   0  0  0  0  0  0  0  0  0  0  0  0
    8.6877  -13.8428   17.4798 C   0  0  0  0  0  0  0  0  0  0  0  0
    8.1151  -13.2680   16.2893 N   0  0  0  0  0  0  0  0  0  0  0  0
    9.3934  -15.2552   22.4015 C   0  0  0  0  0  0  0  0  0  0  0  0
    9.7798  -14.3483   23.1753 O   0  0  0  0  0  0  0  0  0  0  0  0
   10.3194  -16.2318   21.9751 N   0  0  0  0  0  0  0  0  0  0  0  0
   11.6441  -16.2451   22.6214 C   0  0  1  0  0  0  0  0  0  0  0  0
   12.0389  -17.6697   22.9384 C   0  0  0  0  0  0  0  0  0  0  0  0
   12.1563  -17.8601   24.4037 C   0  0  0  0  0  0  0  0  0  0  0  0
   12.5060  -19.2802   24.8008 C   0  0  0  0  0  0  0  0  0  0  0  0
   12.6628  -19.4428   26.2902 C   0  0  0  0  0  0  0  0  0  0  0  0
   12.9374  -20.8136   26.6646 N   0  0  0  0  0  0  0  0  0  0  0  0
   12.5470  -15.5466   21.7037 C   0  0  0  0  0  0  0  0  0  0  0  0
   12.4540  -15.5607   20.4461 O   0  0  0  0  0  0  0  0  0  0  0  0
   13.6243  -14.7806   22.1897 O   0  0  0  0  0  0  0  0  0  0  0  0
  2  1  1  1
  2  3  1  0
  3  4  1  0
  4  9  2  0
  5  4  1  0
  5  6  2  0
  6  7  1  0
  7  8  2  0
  9  8  1  0
 10 12  1  0
 10  2  1  0
 11 10  2  0
 13 19  1  0
 13 12  1  0
 13 14  1  1
 15 14  1  0
 16 15  1  0
 17 18  1  0
 17 16  1  0
 19 21  1  0
 20 19  2  0
 21 22  1  0
 22 28  1  0
 23 24  1  0
 22 23  1  6
 25 24  1  0
 26 25  1  0
 27 26  1  0
 28 29  2  0
 28 30  1  0
M  END
$$$$
