FKK.pdb
     RDKit          3D

 30 30  0  0  1  0  0  0  0  0999 V2000
    5.9159  -17.9241   25.6919 N   0  0  0  0  0  0  0  0  0  0  0  0
    6.3141  -16.5633   25.4790 C   0  0  1  0  0  0  0  0  0  0  0  0
    6.8700  -15.9959   26.7561 C   0  0  0  0  0  0  0  0  0  0  0  0
    6.7637  -14.5149   26.6769 C   0  0  0  0  0  0  0  0  0  0  0  0
    5.5341  -13.9181   26.8900 C   0  0  0  0  0  0  0  0  0  0  0  0
    5.4672  -12.5428   26.8097 C   0  0  0  0  0  0  0  0  0  0  0  0
    6.5391  -11.7389   26.5334 C   0  0  0  0  0  0  0  0  0  0  0  0
    7.7753  -12.3369   26.3190 C   0  0  0  0  0  0  0  0  0  0  0  0
    7.8714  -13.7122   26.3932 C   0  0  0  0  0  0  0  0  0  0  0  0
    7.2626  -16.4458   24.3447 C   0  0  0  0  0  0  0  0  0  0  0  0
    8.1530  -17.3275   24.2258 O   0  0  0  0  0  0  0  0  0  0  0  0
    7.2276  -15.4138   23.3985 N   0  0  0  0  0  0  0  0  0  0  0  0
    8.0091  -15.4085   22.2006 C   0  0  1  0  0  0  0  0  0  0  0  0
    7.6960  -14.2147   21.3121 C   0  0  0  0  0  0  0  0  0  0  0  0
    8.4871  -14.3399   20.0043 C   0  0  0  0  0  0  0  0  0  0  0  0
    8.0493  -13.3002   19.0081 C   0  0  0  0  0  0  0  0  0  0  0  0
    8.7441  -13.6125   17.6996 C   0  0  0  0  0  0  0  0  0  0  0  0
    8.5635  -12.5592   16.7334 N   0  0  0  0  0  0  0  0  0  0  0  0
    9.4567  -15.3701   22.5024 C   0  0  0  0  0  0  0  0  0  0  0  0
    9.8292  -14.6419   23.4518 O   0  0  0  0  0  0  0  0  0  0  0  0
   10.4241  -16.1041   21.7823 N   0  0  0  0  0  0  0  0  0  0  0  0
   11.6750  -16.4530   22.4796 C   0  0  1  0  0  0  0  0  0  0  0  0
   11.7927  -17.9564   22.5873 C   0  0  0  0  0  0  0  0  0  0  0  0
   13.1643  -18.3945   22.2354 C   0  0  0  0  0  0  0  0  0  0  0  0
   13.5159  -19.7664   22.7750 C   0  0  0  0  0  0  0  0  0  0  0  0
   14.9223  -20.1811   22.4297 C   0  0  0  0  0  0  0  0  0  0  0  0
   15.9119  -19.3196   23.0405 N   0  0  0  0  0  0  0  0  0  0  0  0
   12.7505  -15.8045   21.7259 C   0  0  0  0  0  0  0  0  0  0  0  0
   13.8035  -15.3288   22.2312 O   0  0  0  0  0  0  0  0  0  0  0  0
   12.6731  -15.6651   20.3266 O   0  0  0  0  0  0  0  0  0  0  0  0
  2  1  1  1
  2  3  1  0
  3  4  1  0
  4  9  2  0
  5  4  1  0
  5  6  2  0
  6  7  1  0
  7  8  2  0
  9  8  1  0
 10 12  1  0
 10  2  1  0
 11 10  2  0
 13 19  1  0
 13 12  1  0
 13 14  1  6
 15 14  1  0
 16 15  1  0
 17 18  1  0
 17 16  1  0
 19 21  1  0
 20 19  2  0
 21 22  1  0
 22 28  1  0
 23 24  1  0
 22 23  1  6
 25 24  1  0
 26 25  1  0
 27 26  1  0
 28 29  2  0
 28 30  1  0
M  END
$$$$
