FKK.pdb
     RDKit          3D

 30 30  0  0  1  0  0  0  0  0999 V2000
    5.7724  -17.7696   25.6036 N   0  0  0  0  0  0  0  0  0  0  0  0
    6.1872  -16.4114   25.4066 C   0  0  1  0  0  0  0  0  0  0  0  0
    6.6370  -15.8273   26.7174 C   0  0  0  0  0  0  0  0  0  0  0  0
    6.7703  -14.3576   26.5357 C   0  0  0  0  0  0  0  0  0  0  0  0
    7.9245  -13.8542   25.9632 C   0  0  0  0  0  0  0  0  0  0  0  0
    8.0187  -12.4869   25.8079 C   0  0  0  0  0  0  0  0  0  0  0  0
    7.0435  -11.6045   26.1846 C   0  0  0  0  0  0  0  0  0  0  0  0
    5.8832  -12.1087   26.7601 C   0  0  0  0  0  0  0  0  0  0  0  0
    5.7618  -13.4737   26.9276 C   0  0  0  0  0  0  0  0  0  0  0  0
    7.2254  -16.3077   24.3522 C   0  0  0  0  0  0  0  0  0  0  0  0
    8.1695  -17.1400   24.3694 O   0  0  0  0  0  0  0  0  0  0  0  0
    7.2188  -15.3405   23.3393 N   0  0  0  0  0  0  0  0  0  0  0  0
    8.0844  -15.3773   22.2012 C   0  0  1  0  0  0  0  0  0  0  0  0
    7.7262  -14.3195   21.1690 C   0  0  0  0  0  0  0  0  0  0  0  0
    8.5479  -14.5599   19.8967 C   0  0  0  0  0  0  0  0  0  0  0  0
    8.1149  -13.6334   18.7925 C   0  0  0  0  0  0  0  0  0  0  0  0
    8.8024  -14.0946   17.5248 C   0  0  0  0  0  0  0  0  0  0  0  0
    8.5147  -13.2244   16.4133 N   0  0  0  0  0  0  0  0  0  0  0  0
    9.4947  -15.1589   22.5903 C   0  0  0  0  0  0  0  0  0  0  0  0
    9.7204  -14.3271   23.5000 O   0  0  0  0  0  0  0  0  0  0  0  0
   10.5824  -15.8332   21.9941 N   0  0  0  0  0  0  0  0  0  0  0  0
   11.6791  -16.2729   22.8754 C   0  0  1  0  0  0  0  0  0  0  0  0
   11.2604  -17.5190   23.6222 C   0  0  0  0  0  0  0  0  0  0  0  0
   11.7887  -17.4943   25.0069 C   0  0  0  0  0  0  0  0  0  0  0  0
   11.4721  -18.7493   25.7952 C   0  0  0  0  0  0  0  0  0  0  0  0
   11.9447  -18.6704   27.2234 C   0  0  0  0  0  0  0  0  0  0  0  0
   11.6131  -19.8614   27.9756 N   0  0  0  0  0  0  0  0  0  0  0  0
   12.8492  -16.4386   22.0101 C   0  0  0  0  0  0  0  0  0  0  0  0
   13.7311  -15.5599   21.8090 O   0  0  0  0  0  0  0  0  0  0  0  0
   13.0733  -17.6440   21.3169 O   0  0  0  0  0  0  0  0  0  0  0  0
  2  1  1  1
  2  3  1  0
  3  4  1  0
  4  9  2  0
  5  4  1  0
  5  6  2  0
  6  7  1  0
  7  8  2  0
  9  8  1  0
 10 12  1  0
 10  2  1  0
 11 10  2  0
 13 19  1  0
 13 12  1  0
 13 14  1  6
 15 14  1  0
 16 15  1  0
 17 18  1  0
 17 16  1  0
 19 21  1  0
 20 19  2  0
 21 22  1  0
 22 28  1  0
 23 24  1  0
 22 23  1  6
 25 24  1  0
 26 25  1  0
 27 26  1  0
 28 29  2  0
 28 30  1  0
M  END
$$$$
