FKK.pdb
     RDKit          3D

 30 30  0  0  1  0  0  0  0  0999 V2000
    5.6966  -17.4195   25.1239 N   0  0  0  0  0  0  0  0  0  0  0  0
    6.4200  -16.1861   25.0195 C   0  0  1  0  0  0  0  0  0  0  0  0
    6.8463  -15.7350   26.3894 C   0  0  0  0  0  0  0  0  0  0  0  0
    6.7055  -14.2558   26.4427 C   0  0  0  0  0  0  0  0  0  0  0  0
    5.4592  -13.7088   26.6900 C   0  0  0  0  0  0  0  0  0  0  0  0
    5.3605  -12.3337   26.7332 C   0  0  0  0  0  0  0  0  0  0  0  0
    6.4163  -11.4840   26.5471 C   0  0  0  0  0  0  0  0  0  0  0  0
    7.6692  -12.0319   26.2986 C   0  0  0  0  0  0  0  0  0  0  0  0
    7.7973  -13.4057   26.2498 C   0  0  0  0  0  0  0  0  0  0  0  0
    7.5612  -16.3033   24.0792 C   0  0  0  0  0  0  0  0  0  0  0  0
    8.2078  -17.3831   24.0672 O   0  0  0  0  0  0  0  0  0  0  0  0
    7.9626  -15.2858   23.2045 N   0  0  0  0  0  0  0  0  0  0  0  0
    9.0252  -15.4268   22.2573 C   0  0  1  0  0  0  0  0  0  0  0  0
    9.1900  -14.1912   21.3864 C   0  0  0  0  0  0  0  0  0  0  0  0
    8.3735  -14.3698   20.1006 C   0  0  0  0  0  0  0  0  0  0  0  0
    8.5821  -13.2100   19.1643 C   0  0  0  0  0  0  0  0  0  0  0  0
    7.6768  -13.4289   17.9707 C   0  0  0  0  0  0  0  0  0  0  0  0
    7.8067  -12.3724   16.9999 N   0  0  0  0  0  0  0  0  0  0  0  0
   10.3188  -15.6707   22.9320 C   0  0  0  0  0  0  0  0  0  0  0  0
   10.7001  -14.8231   23.7727 O   0  0  0  0  0  0  0  0  0  0  0  0
   11.1321  -16.7963   22.6775 N   0  0  0  0  0  0  0  0  0  0  0  0
   12.4248  -16.8778   23.3810 C   0  0  1  0  0  0  0  0  0  0  0  0
   12.6906  -18.3093   23.7884 C   0  0  0  0  0  0  0  0  0  0  0  0
   11.9393  -18.6443   25.0214 C   0  0  0  0  0  0  0  0  0  0  0  0
   12.2096  -20.0463   25.5297 C   0  0  0  0  0  0  0  0  0  0  0  0
   11.4111  -20.3787   26.7630 C   0  0  0  0  0  0  0  0  0  0  0  0
   10.9974  -21.7654   26.7891 N   0  0  0  0  0  0  0  0  0  0  0  0
   13.4166  -16.3038   22.4688 C   0  0  0  0  0  0  0  0  0  0  0  0
   14.5084  -15.7812   22.8225 O   0  0  0  0  0  0  0  0  0  0  0  0
   13.2039  -16.2993   21.0765 O   0  0  0  0  0  0  0  0  0  0  0  0
  2  1  1  1
  2  3  1  0
  3  4  1  0
  4  9  2  0
  5  4  1  0
  5  6  2  0
  6  7  1  0
  7  8  2  0
  9  8  1  0
 10 12  1  0
 10  2  1  0
 11 10  2  0
 13 19  1  0
 13 12  1  0
 13 14  1  1
 15 14  1  0
 16 15  1  0
 17 18  1  0
 17 16  1  0
 19 21  1  0
 20 19  2  0
 21 22  1  0
 22 28  1  0
 23 24  1  0
 22 23  1  6
 25 24  1  0
 26 25  1  0
 27 26  1  0
 28 29  2  0
 28 30  1  0
M  END
$$$$
