FKK.pdb
     RDKit          3D

 30 30  0  0  1  0  0  0  0  0999 V2000
    6.3642  -17.7265   25.9584 N   0  0  0  0  0  0  0  0  0  0  0  0
    6.6805  -16.3882   25.5528 C   0  0  1  0  0  0  0  0  0  0  0  0
    7.3975  -15.6801   26.6691 C   0  0  0  0  0  0  0  0  0  0  0  0
    6.9200  -14.2722   26.6920 C   0  0  0  0  0  0  0  0  0  0  0  0
    7.8303  -13.2587   26.9323 C   0  0  0  0  0  0  0  0  0  0  0  0
    7.3572  -11.9632   26.9475 C   0  0  0  0  0  0  0  0  0  0  0  0
    6.0483  -11.6235   26.7401 C   0  0  0  0  0  0  0  0  0  0  0  0
    5.1324  -12.6406   26.4986 C   0  0  0  0  0  0  0  0  0  0  0  0
    5.5783  -13.9470   26.4777 C   0  0  0  0  0  0  0  0  0  0  0  0
    7.4484  -16.3721   24.2838 C   0  0  0  0  0  0  0  0  0  0  0  0
    8.2599  -17.3109   24.0728 O   0  0  0  0  0  0  0  0  0  0  0  0
    7.3254  -15.3762   23.3068 N   0  0  0  0  0  0  0  0  0  0  0  0
    8.0510  -15.3797   22.0741 C   0  0  1  0  0  0  0  0  0  0  0  0
    7.7215  -14.1749   21.2068 C   0  0  0  0  0  0  0  0  0  0  0  0
    8.4629  -14.2998   19.8701 C   0  0  0  0  0  0  0  0  0  0  0  0
    8.0706  -13.1913   18.9307 C   0  0  0  0  0  0  0  0  0  0  0  0
    8.6064  -13.5531   17.5616 C   0  0  0  0  0  0  0  0  0  0  0  0
    8.1094  -12.6660   16.5411 N   0  0  0  0  0  0  0  0  0  0  0  0
    9.5114  -15.3719   22.3092 C   0  0  0  0  0  0  0  0  0  0  0  0
    9.9524  -14.5812   23.1756 O   0  0  0  0  0  0  0  0  0  0  0  0
   10.4185  -16.2009   21.6140 N   0  0  0  0  0  0  0  0  0  0  0  0
   11.8240  -16.1981   22.0579 C   0  0  1  0  0  0  0  0  0  0  0  0
   11.9257  -16.8413   23.4224 C   0  0  0  0  0  0  0  0  0  0  0  0
   11.5620  -18.2763   23.3464 C   0  0  0  0  0  0  0  0  0  0  0  0
   11.6670  -18.9959   24.6760 C   0  0  0  0  0  0  0  0  0  0  0  0
   11.2029  -20.4269   24.5978 C   0  0  0  0  0  0  0  0  0  0  0  0
   11.3355  -21.1146   25.8643 N   0  0  0  0  0  0  0  0  0  0  0  0
   12.5813  -16.8737   21.0018 C   0  0  0  0  0  0  0  0  0  0  0  0
   13.8275  -17.0662   21.0145 O   0  0  0  0  0  0  0  0  0  0  0  0
   11.9363  -17.3734   19.8537 O   0  0  0  0  0  0  0  0  0  0  0  0
  2  1  1  1
  2  3  1  0
  3  4  1  0
  4  9  2  0
  5  4  1  0
  5  6  2  0
  6  7  1  0
  7  8  2  0
  9  8  1  0
 10 12  1  0
 10  2  1  0
 11 10  2  0
 13 19  1  0
 13 12  1  0
 13 14  1  6
 15 14  1  0
 16 15  1  0
 17 18  1  0
 17 16  1  0
 19 21  1  0
 20 19  2  0
 21 22  1  0
 22 28  1  0
 23 24  1  0
 22 23  1  1
 25 24  1  0
 26 25  1  0
 27 26  1  0
 28 29  2  0
 28 30  1  0
M  END
$$$$
