FKK.pdb
     RDKit          3D

 30 30  0  0  1  0  0  0  0  0999 V2000
    5.9113  -17.4577   25.2711 N   0  0  0  0  0  0  0  0  0  0  0  0
    6.4701  -16.1562   25.0490 C   0  0  1  0  0  0  0  0  0  0  0  0
    7.3306  -15.7712   26.2208 C   0  0  0  0  0  0  0  0  0  0  0  0
    7.0183  -14.3593   26.5667 C   0  0  0  0  0  0  0  0  0  0  0  0
    6.7371  -13.4655   25.5490 C   0  0  0  0  0  0  0  0  0  0  0  0
    6.4513  -12.1630   25.9014 C   0  0  0  0  0  0  0  0  0  0  0  0
    6.4297  -11.7056   27.1905 C   0  0  0  0  0  0  0  0  0  0  0  0
    6.7120  -12.6023   28.2143 C   0  0  0  0  0  0  0  0  0  0  0  0
    7.0015  -13.9128   27.8904 C   0  0  0  0  0  0  0  0  0  0  0  0
    7.2025  -16.0919   23.7607 C   0  0  0  0  0  0  0  0  0  0  0  0
    7.7606  -17.1410   23.3458 O   0  0  0  0  0  0  0  0  0  0  0  0
    7.3105  -14.9352   22.9784 N   0  0  0  0  0  0  0  0  0  0  0  0
    7.9669  -14.8946   21.7082 C   0  0  1  0  0  0  0  0  0  0  0  0
    7.8848  -13.5216   21.0595 C   0  0  0  0  0  0  0  0  0  0  0  0
    8.7178  -13.5232   19.7719 C   0  0  0  0  0  0  0  0  0  0  0  0
    7.8355  -13.3966   18.5592 C   0  0  0  0  0  0  0  0  0  0  0  0
    8.7356  -13.4471   17.3427 C   0  0  0  0  0  0  0  0  0  0  0  0
    7.9798  -13.4184   16.1165 N   0  0  0  0  0  0  0  0  0  0  0  0
    9.3993  -15.2429   21.8312 C   0  0  0  0  0  0  0  0  0  0  0  0
   10.0384  -14.7313   22.7800 O   0  0  0  0  0  0  0  0  0  0  0  0
   10.0705  -16.1115   20.9434 N   0  0  0  0  0  0  0  0  0  0  0  0
   11.3912  -16.6209   21.3544 C   0  0  1  0  0  0  0  0  0  0  0  0
   11.4112  -18.1283   21.2394 C   0  0  0  0  0  0  0  0  0  0  0  0
   10.7905  -18.5581   19.9638 C   0  0  0  0  0  0  0  0  0  0  0  0
   10.9106  -20.0468   19.7066 C   0  0  0  0  0  0  0  0  0  0  0  0
   10.2422  -20.4683   18.4241 C   0  0  0  0  0  0  0  0  0  0  0  0
   10.3347  -21.8956   18.2029 N   0  0  0  0  0  0  0  0  0  0  0  0
   12.3698  -15.9271   20.5139 C   0  0  0  0  0  0  0  0  0  0  0  0
   12.0869  -15.2014   19.5222 O   0  0  0  0  0  0  0  0  0  0  0  0
   13.7504  -16.0314   20.7721 O   0  0  0  0  0  0  0  0  0  0  0  0
  2  1  1  1
  2  3  1  0
  3  4  1  0
  4  9  2  0
  5  4  1  0
  5  6  2  0
  6  7  1  0
  7  8  2  0
  9  8  1  0
 10 12  1  0
 10  2  1  0
 11 10  2  0
 13 19  1  0
 13 12  1  0
 13 14  1  1
 15 14  1  0
 16 15  1  0
 17 18  1  0
 17 16  1  0
 19 21  1  0
 20 19  2  0
 21 22  1  0
 22 28  1  0
 23 24  1  0
 22 23  1  6
 25 24  1  0
 26 25  1  0
 27 26  1  0
 28 29  2  0
 28 30  1  0
M  END
$$$$
