FKK.pdb
     RDKit          3D

 30 30  0  0  1  0  0  0  0  0999 V2000
    5.9461  -17.1440   25.8124 N   0  0  0  0  0  0  0  0  0  0  0  0
    6.4731  -15.8880   25.3648 C   0  0  1  0  0  0  0  0  0  0  0  0
    7.3129  -15.2780   26.4531 C   0  0  0  0  0  0  0  0  0  0  0  0
    6.9662  -13.8345   26.5364 C   0  0  0  0  0  0  0  0  0  0  0  0
    7.9799  -12.8958   26.4666 C   0  0  0  0  0  0  0  0  0  0  0  0
    7.6270  -11.5649   26.5469 C   0  0  0  0  0  0  0  0  0  0  0  0
    6.3410  -11.1210   26.6907 C   0  0  0  0  0  0  0  0  0  0  0  0
    5.3213  -12.0628   26.7611 C   0  0  0  0  0  0  0  0  0  0  0  0
    5.6457  -13.4025   26.6833 C   0  0  0  0  0  0  0  0  0  0  0  0
    7.2150  -16.0337   24.0887 C   0  0  0  0  0  0  0  0  0  0  0  0
    7.8651  -17.0952   23.9016 O   0  0  0  0  0  0  0  0  0  0  0  0
    7.2360  -15.0625   23.0799 N   0  0  0  0  0  0  0  0  0  0  0  0
    8.0378  -15.1614   21.8995 C   0  0  1  0  0  0  0  0  0  0  0  0
    7.9349  -13.9208   21.0260 C   0  0  0  0  0  0  0  0  0  0  0  0
    8.7546  -14.1363   19.7479 C   0  0  0  0  0  0  0  0  0  0  0  0
    7.9302  -13.8433   18.5233 C   0  0  0  0  0  0  0  0  0  0  0  0
    8.7818  -14.1816   17.3181 C   0  0  0  0  0  0  0  0  0  0  0  0
    8.0205  -14.1373   16.0957 N   0  0  0  0  0  0  0  0  0  0  0  0
    9.4661  -15.3525   22.2334 C   0  0  0  0  0  0  0  0  0  0  0  0
    9.9786  -14.5560   23.0540 O   0  0  0  0  0  0  0  0  0  0  0  0
   10.2673  -16.3746   21.6797 N   0  0  0  0  0  0  0  0  0  0  0  0
   11.6692  -16.4610   22.1266 C   0  0  1  0  0  0  0  0  0  0  0  0
   11.9382  -17.8388   22.6879 C   0  0  0  0  0  0  0  0  0  0  0  0
   11.2966  -17.9910   24.0154 C   0  0  0  0  0  0  0  0  0  0  0  0
   11.5331  -19.3481   24.6471 C   0  0  0  0  0  0  0  0  0  0  0  0
   10.8179  -19.5064   25.9634 C   0  0  0  0  0  0  0  0  0  0  0  0
   11.0500  -20.8048   26.5590 N   0  0  0  0  0  0  0  0  0  0  0  0
   12.4852  -16.1002   20.9650 C   0  0  0  0  0  0  0  0  0  0  0  0
   13.7100  -15.8024   21.0052 O   0  0  0  0  0  0  0  0  0  0  0  0
   11.9285  -16.0614   19.6719 O   0  0  0  0  0  0  0  0  0  0  0  0
  2  1  1  1
  2  3  1  0
  3  4  1  0
  4  9  2  0
  5  4  1  0
  5  6  2  0
  6  7  1  0
  7  8  2  0
  9  8  1  0
 10 12  1  0
 10  2  1  0
 11 10  2  0
 13 19  1  0
 13 12  1  0
 13 14  1  1
 15 14  1  0
 16 15  1  0
 17 18  1  0
 17 16  1  0
 19 21  1  0
 20 19  2  0
 21 22  1  0
 22 28  1  0
 23 24  1  0
 22 23  1  6
 25 24  1  0
 26 25  1  0
 27 26  1  0
 28 29  2  0
 28 30  1  0
M  END
$$$$
