FKK.pdb
     RDKit          3D

 30 30  0  0  1  0  0  0  0  0999 V2000
    6.4375  -17.5780   25.7799 N   0  0  0  0  0  0  0  0  0  0  0  0
    6.8039  -16.2624   25.3437 C   0  0  1  0  0  0  0  0  0  0  0  0
    7.6288  -15.5910   26.4070 C   0  0  0  0  0  0  0  0  0  0  0  0
    7.0447  -14.2455   26.6502 C   0  0  0  0  0  0  0  0  0  0  0  0
    7.7954  -13.3004   27.3261 C   0  0  0  0  0  0  0  0  0  0  0  0
    7.2265  -12.0616   27.5366 C   0  0  0  0  0  0  0  0  0  0  0  0
    5.9709  -11.7147   27.1187 C   0  0  0  0  0  0  0  0  0  0  0  0
    5.2153  -12.6632   26.4395 C   0  0  0  0  0  0  0  0  0  0  0  0
    5.7599  -13.9117   26.2148 C   0  0  0  0  0  0  0  0  0  0  0  0
    7.4905  -16.2972   24.0293 C   0  0  0  0  0  0  0  0  0  0  0  0
    8.2699  -17.2575   23.7956 O   0  0  0  0  0  0  0  0  0  0  0  0
    7.3243  -15.3268   23.0332 N   0  0  0  0  0  0  0  0  0  0  0  0
    8.0854  -15.2937   21.8226 C   0  0  1  0  0  0  0  0  0  0  0  0
    7.6723  -14.1479   20.9120 C   0  0  0  0  0  0  0  0  0  0  0  0
    8.4328  -14.2608   19.5851 C   0  0  0  0  0  0  0  0  0  0  0  0
    8.0519  -13.1455   18.6491 C   0  0  0  0  0  0  0  0  0  0  0  0
    8.6997  -13.4407   17.3128 C   0  0  0  0  0  0  0  0  0  0  0  0
    8.2630  -12.5225   16.2922 N   0  0  0  0  0  0  0  0  0  0  0  0
    9.5306  -15.1423   22.0994 C   0  0  0  0  0  0  0  0  0  0  0  0
    9.8573  -14.5629   23.1615 O   0  0  0  0  0  0  0  0  0  0  0  0
   10.5442  -15.6126   21.2365 N   0  0  0  0  0  0  0  0  0  0  0  0
   11.6904  -16.3107   21.8461 C   0  0  1  0  0  0  0  0  0  0  0  0
   11.1942  -17.4834   22.6613 C   0  0  0  0  0  0  0  0  0  0  0  0
   12.3336  -18.2046   23.2767 C   0  0  0  0  0  0  0  0  0  0  0  0
   11.9097  -19.3735   24.1432 C   0  0  0  0  0  0  0  0  0  0  0  0
   13.0827  -20.1117   24.7335 C   0  0  0  0  0  0  0  0  0  0  0  0
   12.6678  -21.2150   25.5732 N   0  0  0  0  0  0  0  0  0  0  0  0
   12.5815  -16.6647   20.7390 C   0  0  0  0  0  0  0  0  0  0  0  0
   13.8222  -16.4409   20.7085 O   0  0  0  0  0  0  0  0  0  0  0  0
   12.0868  -17.3062   19.5869 O   0  0  0  0  0  0  0  0  0  0  0  0
  2  1  1  1
  2  3  1  0
  3  4  1  0
  4  9  2  0
  5  4  1  0
  5  6  2  0
  6  7  1  0
  7  8  2  0
  9  8  1  0
 10 12  1  0
 10  2  1  0
 11 10  2  0
 13 19  1  0
 13 12  1  0
 13 14  1  6
 15 14  1  0
 16 15  1  0
 17 18  1  0
 17 16  1  0
 19 21  1  0
 20 19  2  0
 21 22  1  0
 22 28  1  0
 23 24  1  0
 22 23  1  6
 25 24  1  0
 26 25  1  0
 27 26  1  0
 28 29  2  0
 28 30  1  0
M  END
$$$$
