FKK.pdb
     RDKit          3D

 30 30  0  0  1  0  0  0  0  0999 V2000
    6.8815  -16.7338   26.1896 N   0  0  0  0  0  0  0  0  0  0  0  0
    6.2695  -16.3831   24.9415 C   0  0  1  0  0  0  0  0  0  0  0  0
    5.3600  -15.2021   25.1410 C   0  0  0  0  0  0  0  0  0  0  0  0
    6.1500  -14.1295   25.8016 C   0  0  0  0  0  0  0  0  0  0  0  0
    5.6684  -13.5630   26.9680 C   0  0  0  0  0  0  0  0  0  0  0  0
    6.4234  -12.5704   27.5573 C   0  0  0  0  0  0  0  0  0  0  0  0
    7.6136  -12.1160   27.0589 C   0  0  0  0  0  0  0  0  0  0  0  0
    8.0990  -12.6841   25.8870 C   0  0  0  0  0  0  0  0  0  0  0  0
    7.3637  -13.6799   25.2756 C   0  0  0  0  0  0  0  0  0  0  0  0
    7.2845  -16.1468   23.8859 C   0  0  0  0  0  0  0  0  0  0  0  0
    8.3777  -16.7651   23.9691 O   0  0  0  0  0  0  0  0  0  0  0  0
    7.1004  -15.2779   22.8031 N   0  0  0  0  0  0  0  0  0  0  0  0
    7.9767  -15.2199   21.6741 C   0  0  1  0  0  0  0  0  0  0  0  0
    7.6058  -14.1021   20.7121 C   0  0  0  0  0  0  0  0  0  0  0  0
    8.4412  -14.2411   19.4336 C   0  0  0  0  0  0  0  0  0  0  0  0
    8.0836  -13.1712   18.4373 C   0  0  0  0  0  0  0  0  0  0  0  0
    8.9232  -13.4117   17.2005 C   0  0  0  0  0  0  0  0  0  0  0  0
    8.5974  -14.6645   16.5681 N   0  0  0  0  0  0  0  0  0  0  0  0
    9.3786  -14.9998   22.0917 C   0  0  0  0  0  0  0  0  0  0  0  0
    9.5709  -14.3879   23.1682 O   0  0  0  0  0  0  0  0  0  0  0  0
   10.4936  -15.4401   21.3459 N   0  0  0  0  0  0  0  0  0  0  0  0
   11.6164  -16.0420   22.0872 C   0  0  1  0  0  0  0  0  0  0  0  0
   11.1382  -17.2775   22.8158 C   0  0  0  0  0  0  0  0  0  0  0  0
   11.4905  -17.1992   24.2534 C   0  0  0  0  0  0  0  0  0  0  0  0
   11.1270  -18.4477   25.0319 C   0  0  0  0  0  0  0  0  0  0  0  0
   11.5649  -18.3800   26.4716 C   0  0  0  0  0  0  0  0  0  0  0  0
   11.1902  -19.5650   27.2132 N   0  0  0  0  0  0  0  0  0  0  0  0
   12.6701  -16.2806   21.0982 C   0  0  0  0  0  0  0  0  0  0  0  0
   13.9045  -16.1243   21.3037 O   0  0  0  0  0  0  0  0  0  0  0  0
   12.3571  -16.7195   19.7971 O   0  0  0  0  0  0  0  0  0  0  0  0
  2  1  1  1
  2  3  1  0
  3  4  1  0
  4  9  2  0
  5  4  1  0
  5  6  2  0
  6  7  1  0
  7  8  2  0
  9  8  1  0
 10 12  1  0
 10  2  1  0
 11 10  2  0
 13 19  1  0
 13 12  1  0
 13 14  1  6
 15 14  1  0
 16 15  1  0
 17 18  1  0
 17 16  1  0
 19 21  1  0
 20 19  2  0
 21 22  1  0
 22 28  1  0
 23 24  1  0
 22 23  1  6
 25 24  1  0
 26 25  1  0
 27 26  1  0
 28 29  2  0
 28 30  1  0
M  END
$$$$
