FKK.pdb
     RDKit          3D

 30 30  0  0  1  0  0  0  0  0999 V2000
    7.0193  -17.2282   26.2282 N   0  0  0  0  0  0  0  0  0  0  0  0
    6.4509  -16.6947   25.0250 C   0  0  1  0  0  0  0  0  0  0  0  0
    5.4712  -15.6071   25.3702 C   0  0  0  0  0  0  0  0  0  0  0  0
    6.2185  -14.5325   26.0756 C   0  0  0  0  0  0  0  0  0  0  0  0
    5.5145  -13.6041   26.8213 C   0  0  0  0  0  0  0  0  0  0  0  0
    6.2355  -12.6193   27.4639 C   0  0  0  0  0  0  0  0  0  0  0  0
    7.5978  -12.5074   27.4076 C   0  0  0  0  0  0  0  0  0  0  0  0
    8.3066  -13.4394   26.6588 C   0  0  0  0  0  0  0  0  0  0  0  0
    7.6104  -14.4363   26.0048 C   0  0  0  0  0  0  0  0  0  0  0  0
    7.5020  -16.2351   24.0847 C   0  0  0  0  0  0  0  0  0  0  0  0
    8.6183  -16.8158   24.1173 O   0  0  0  0  0  0  0  0  0  0  0  0
    7.3279  -15.1947   23.1634 N   0  0  0  0  0  0  0  0  0  0  0  0
    8.1314  -15.0295   21.9916 C   0  0  1  0  0  0  0  0  0  0  0  0
    7.6898  -13.8412   21.1516 C   0  0  0  0  0  0  0  0  0  0  0  0
    8.5820  -13.7453   19.9080 C   0  0  0  0  0  0  0  0  0  0  0  0
    7.8072  -13.2237   18.7278 C   0  0  0  0  0  0  0  0  0  0  0  0
    8.7431  -13.2326   17.5377 C   0  0  0  0  0  0  0  0  0  0  0  0
    8.1159  -12.6892   16.3600 N   0  0  0  0  0  0  0  0  0  0  0  0
    9.5543  -14.8235   22.3394 C   0  0  0  0  0  0  0  0  0  0  0  0
    9.8085  -14.0724   23.3098 O   0  0  0  0  0  0  0  0  0  0  0  0
   10.6238  -15.4240   21.6402 N   0  0  0  0  0  0  0  0  0  0  0  0
   11.7337  -15.9789   22.4357 C   0  0  1  0  0  0  0  0  0  0  0  0
   11.1913  -16.9711   23.4393 C   0  0  0  0  0  0  0  0  0  0  0  0
   12.2963  -17.5641   24.2296 C   0  0  0  0  0  0  0  0  0  0  0  0
   11.8826  -18.7903   25.0182 C   0  0  0  0  0  0  0  0  0  0  0  0
   13.0106  -19.3578   25.8396 C   0  0  0  0  0  0  0  0  0  0  0  0
   13.6478  -20.4831   25.1898 N   0  0  0  0  0  0  0  0  0  0  0  0
   12.6817  -16.5379   21.4692 C   0  0  0  0  0  0  0  0  0  0  0  0
   12.3785  -17.3183   20.5262 O   0  0  0  0  0  0  0  0  0  0  0  0
   14.0533  -16.2249   21.5350 O   0  0  0  0  0  0  0  0  0  0  0  0
  2  1  1  1
  2  3  1  0
  3  4  1  0
  4  9  2  0
  5  4  1  0
  5  6  2  0
  6  7  1  0
  7  8  2  0
  9  8  1  0
 10 12  1  0
 10  2  1  0
 11 10  2  0
 13 19  1  0
 13 12  1  0
 13 14  1  1
 15 14  1  0
 16 15  1  0
 17 18  1  0
 17 16  1  0
 19 21  1  0
 20 19  2  0
 21 22  1  0
 22 28  1  0
 23 24  1  0
 22 23  1  1
 25 24  1  0
 26 25  1  0
 27 26  1  0
 28 29  2  0
 28 30  1  0
M  END
$$$$
