QPC.pdb
     RDKit          3D

 23 23  0  0  1  0  0  0  0  0999 V2000
   14.8912  -29.2240   -2.6743 N   0  0  0  0  0  0  0  0  0  0  0  0
   14.0250  -28.4365   -1.8707 C   0  0  0  0  0  0  0  0  0  0  0  0
   12.7949  -28.4724   -2.1204 O   0  0  0  0  0  0  0  0  0  0  0  0
   14.5013  -27.5873   -0.7676 C   0  0  0  0  0  0  0  0  0  0  0  0
   15.8089  -26.9323   -1.1190 C   0  0  0  0  0  0  0  0  0  0  0  0
   15.5132  -25.7250   -1.9994 C   0  0  2  0  0  0  0  0  0  0  0  0
   16.4458  -25.6500   -3.0846 N   0  0  0  0  0  0  0  0  0  0  0  0
   15.5083  -24.5064   -1.2127 C   0  0  0  0  0  0  0  0  0  0  0  0
   16.5188  -24.3129   -0.4505 O   0  0  0  0  0  0  0  0  0  0  0  0
   14.4652  -23.5267   -1.2336 N   0  0  0  0  0  0  0  0  0  0  0  0
   13.3155  -23.6417   -2.1036 C   0  0  0  0  0  0  0  0  0  0  0  0
   12.5374  -22.3402   -1.9669 C   0  0  0  0  0  0  0  0  0  0  0  0
   12.9350  -21.8847   -0.5895 C   0  0  0  0  0  0  0  0  0  0  0  0
   14.3732  -22.3183   -0.5040 C   0  0  1  0  0  0  0  0  0  0  0  0
   14.7933  -22.4018    0.9244 C   0  0  0  0  0  0  0  0  0  0  0  0
   14.7291  -23.5027    1.5024 O   0  0  0  0  0  0  0  0  0  0  0  0
   15.2624  -21.2844    1.6535 N   0  0  0  0  0  0  0  0  0  0  0  0
   15.5057  -21.2652    3.0635 C   0  0  1  0  0  0  0  0  0  0  0  0
   17.0205  -21.4198    3.2529 C   0  0  0  0  0  0  0  0  0  0  0  0
   17.4925  -21.1528    4.9778 S   0  0  0  0  0  0  0  0  0  0  0  0
   15.1108  -20.0206    3.7340 C   0  0  0  0  0  0  0  0  0  0  0  0
   14.7381  -20.0966    5.0687 O   0  0  0  0  0  0  0  0  0  0  0  0
   15.0875  -18.8931    3.1821 O   0  0  0  0  0  0  0  0  0  0  0  0
  2  1  1  0
  2  3  2  0
  4  5  1  0
  4  2  1  0
  6  5  1  0
  6  7  1  6
  8  6  1  0
  8 10  1  0
  9  8  2  0
 10 14  1  0
 11 10  1  0
 11 12  1  0
 12 13  1  0
 14 13  1  0
 14 15  1  1
 15 17  1  0
 16 15  2  0
 18 17  1  0
 18 21  1  0
 18 19  1  6
 20 19  1  0
 21 22  1  0
 23 21  2  0
M  END
$$$$
