QPC.pdb
     RDKit          3D

 23 23  0  0  1  0  0  0  0  0999 V2000
   18.0755  -11.1869  -18.4987 N   0  0  0  0  0  0  0  0  0  0  0  0
   18.3992  -11.4920  -17.1502 C   0  0  0  0  0  0  0  0  0  0  0  0
   17.5170  -11.3066  -16.2760 O   0  0  0  0  0  0  0  0  0  0  0  0
   19.7119  -12.0115  -16.7356 C   0  0  0  0  0  0  0  0  0  0  0  0
   20.6289  -12.1614  -17.9182 C   0  0  0  0  0  0  0  0  0  0  0  0
   22.0594  -12.2450  -17.4016 C   0  0  2  0  0  0  0  0  0  0  0  0
   22.1742  -13.2557  -16.3924 N   0  0  0  0  0  0  0  0  0  0  0  0
   22.5056  -10.9525  -16.9177 C   0  0  0  0  0  0  0  0  0  0  0  0
   22.0773  -10.5933  -15.7657 O   0  0  0  0  0  0  0  0  0  0  0  0
   23.3763  -10.0704  -17.6332 N   0  0  0  0  0  0  0  0  0  0  0  0
   23.9802  -10.4376  -18.8951 C   0  0  0  0  0  0  0  0  0  0  0  0
   24.9626   -9.3279  -19.2440 C   0  0  0  0  0  0  0  0  0  0  0  0
   24.3728   -8.1516  -18.5152 C   0  0  0  0  0  0  0  0  0  0  0  0
   23.8285   -8.7824  -17.2624 C   0  0  1  0  0  0  0  0  0  0  0  0
   22.7962   -7.8940  -16.6550 C   0  0  0  0  0  0  0  0  0  0  0  0
   21.6183   -7.9928  -17.0463 O   0  0  0  0  0  0  0  0  0  0  0  0
   23.0955   -6.9424  -15.6523 N   0  0  0  0  0  0  0  0  0  0  0  0
   22.1944   -5.9383  -15.1758 C   0  0  1  0  0  0  0  0  0  0  0  0
   22.4895   -5.7525  -13.6816 C   0  0  0  0  0  0  0  0  0  0  0  0
   21.3913   -4.5171  -12.9486 S   0  0  0  0  0  0  0  0  0  0  0  0
   22.3506   -4.6257  -15.8140 C   0  0  0  0  0  0  0  0  0  0  0  0
   21.1992   -3.9036  -16.0954 O   0  0  0  0  0  0  0  0  0  0  0  0
   23.4543   -4.1126  -16.1221 O   0  0  0  0  0  0  0  0  0  0  0  0
  2  1  1  0
  2  3  2  0
  4  5  1  0
  4  2  1  0
  6  5  1  0
  6  7  1  1
  8  6  1  0
  8 10  1  0
  9  8  2  0
 10 14  1  0
 11 10  1  0
 11 12  1  0
 12 13  1  0
 14 13  1  0
 14 15  1  6
 15 17  1  0
 16 15  2  0
 18 17  1  0
 18 21  1  0
 18 19  1  1
 20 19  1  0
 21 22  1  0
 23 21  2  0
M  END
$$$$
