QPC.pdb
     RDKit          3D

 23 23  0  0  1  0  0  0  0  0999 V2000
   21.9471  -18.4056  -14.1185 N   0  0  0  0  0  0  0  0  0  0  0  0
   21.3135  -18.7047  -15.3535 C   0  0  0  0  0  0  0  0  0  0  0  0
   20.0649  -18.8382  -15.3580 O   0  0  0  0  0  0  0  0  0  0  0  0
   22.0494  -18.8638  -16.6176 C   0  0  0  0  0  0  0  0  0  0  0  0
   23.5009  -18.5104  -16.4432 C   0  0  0  0  0  0  0  0  0  0  0  0
   24.3252  -19.7738  -16.6539 C   0  0  2  0  0  0  0  0  0  0  0  0
   23.5578  -20.7694  -17.3416 N   0  0  0  0  0  0  0  0  0  0  0  0
   24.8350  -20.2696  -15.3898 C   0  0  0  0  0  0  0  0  0  0  0  0
   23.9761  -20.7708  -14.5831 O   0  0  0  0  0  0  0  0  0  0  0  0
   26.2100  -20.2336  -14.9947 N   0  0  0  0  0  0  0  0  0  0  0  0
   27.2668  -19.8637  -15.9103 C   0  0  0  0  0  0  0  0  0  0  0  0
   28.5793  -20.1157  -15.1809 C   0  0  0  0  0  0  0  0  0  0  0  0
   28.1641  -19.9829  -13.7412 C   0  0  0  0  0  0  0  0  0  0  0  0
   26.7793  -20.5711  -13.7445 C   0  0  1  0  0  0  0  0  0  0  0  0
   26.0239  -20.0954  -12.5500 C   0  0  0  0  0  0  0  0  0  0  0  0
   25.5361  -18.9499  -12.5692 O   0  0  0  0  0  0  0  0  0  0  0  0
   25.8360  -20.8884  -11.3941 N   0  0  0  0  0  0  0  0  0  0  0  0
   25.3814  -20.4020  -10.1276 C   0  0  1  0  0  0  0  0  0  0  0  0
   24.1954  -21.2838   -9.7151 C   0  0  0  0  0  0  0  0  0  0  0  0
   22.8681  -21.2066  -10.9406 S   0  0  0  0  0  0  0  0  0  0  0  0
   26.3754  -20.4824   -9.0505 C   0  0  0  0  0  0  0  0  0  0  0  0
   27.5513  -21.1733   -9.3075 O   0  0  0  0  0  0  0  0  0  0  0  0
   26.2337  -19.9689   -7.9136 O   0  0  0  0  0  0  0  0  0  0  0  0
  2  1  1  0
  2  3  2  0
  4  5  1  0
  4  2  1  0
  6  5  1  0
  6  7  1  1
  8  6  1  0
  8 10  1  0
  9  8  2  0
 10 14  1  0
 11 10  1  0
 11 12  1  0
 12 13  1  0
 14 13  1  0
 14 15  1  1
 15 17  1  0
 16 15  2  0
 18 17  1  0
 18 21  1  0
 18 19  1  1
 20 19  1  0
 21 22  1  0
 23 21  2  0
M  END
$$$$
