QPC.pdb
     RDKit          3D

 23 23  0  0  1  0  0  0  0  0999 V2000
   21.0988  -20.8093  -17.2022 N   0  0  0  0  0  0  0  0  0  0  0  0
   21.7010  -19.5431  -16.9780 C   0  0  0  0  0  0  0  0  0  0  0  0
   22.0261  -18.8595  -17.9799 O   0  0  0  0  0  0  0  0  0  0  0  0
   21.9587  -19.0012  -15.6345 C   0  0  0  0  0  0  0  0  0  0  0  0
   21.3775  -19.8949  -14.5735 C   0  0  0  0  0  0  0  0  0  0  0  0
   22.5292  -20.5300  -13.8052 C   0  0  2  0  0  0  0  0  0  0  0  0
   23.3833  -21.2648  -14.6904 N   0  0  0  0  0  0  0  0  0  0  0  0
   22.0288  -21.3642  -12.7293 C   0  0  0  0  0  0  0  0  0  0  0  0
   21.5798  -22.5168  -13.0599 O   0  0  0  0  0  0  0  0  0  0  0  0
   22.0048  -20.9870  -11.3489 N   0  0  0  0  0  0  0  0  0  0  0  0
   22.6690  -19.7981  -10.8619 C   0  0  0  0  0  0  0  0  0  0  0  0
   22.5688  -19.8376   -9.3431 C   0  0  0  0  0  0  0  0  0  0  0  0
   21.3317  -20.6679   -9.1359 C   0  0  0  0  0  0  0  0  0  0  0  0
   21.4169  -21.6676  -10.2570 C   0  0  1  0  0  0  0  0  0  0  0  0
   20.0698  -22.2510  -10.5193 C   0  0  0  0  0  0  0  0  0  0  0  0
   19.2956  -21.6459  -11.2840 O   0  0  0  0  0  0  0  0  0  0  0  0
   19.6313  -23.4632   -9.9375 N   0  0  0  0  0  0  0  0  0  0  0  0
   18.3095  -23.9994  -10.0509 C   0  0  1  0  0  0  0  0  0  0  0  0
   18.0564  -24.8237   -8.7818 C   0  0  0  0  0  0  0  0  0  0  0  0
   16.3849  -25.5132   -8.7746 S   0  0  0  0  0  0  0  0  0  0  0  0
   17.2465  -22.9905  -10.1305 C   0  0  0  0  0  0  0  0  0  0  0  0
   17.3145  -21.9110   -9.2607 O   0  0  0  0  0  0  0  0  0  0  0  0
   16.2807  -23.0380  -10.9315 O   0  0  0  0  0  0  0  0  0  0  0  0
  2  1  1  0
  2  3  2  0
  4  5  1  0
  4  2  1  0
  6  5  1  0
  6  7  1  6
  8  6  1  0
  8 10  1  0
  9  8  2  0
 10 14  1  0
 11 10  1  0
 11 12  1  0
 12 13  1  0
 14 13  1  0
 14 15  1  6
 15 17  1  0
 16 15  2  0
 18 17  1  0
 18 21  1  0
 18 19  1  1
 20 19  1  0
 21 22  1  0
 23 21  2  0
M  END
$$$$
