QPC.pdb
     RDKit          3D

 23 23  0  0  1  0  0  0  0  0999 V2000
   29.1747  -19.1714  -17.2771 N   0  0  0  0  0  0  0  0  0  0  0  0
   28.4683  -18.2785  -16.4286 C   0  0  0  0  0  0  0  0  0  0  0  0
   27.9101  -17.2839  -16.9539 O   0  0  0  0  0  0  0  0  0  0  0  0
   28.3626  -18.4658  -14.9730 C   0  0  0  0  0  0  0  0  0  0  0  0
   27.0206  -19.0332  -14.5998 C   0  0  0  0  0  0  0  0  0  0  0  0
   27.2298  -20.4566  -14.0998 C   0  0  2  0  0  0  0  0  0  0  0  0
   27.7445  -21.2896  -15.1459 N   0  0  0  0  0  0  0  0  0  0  0  0
   26.0002  -20.9910  -13.5463 C   0  0  0  0  0  0  0  0  0  0  0  0
   25.1994  -21.5560  -14.3704 O   0  0  0  0  0  0  0  0  0  0  0  0
   25.6325  -20.9269  -12.1647 N   0  0  0  0  0  0  0  0  0  0  0  0
   26.5996  -20.6730  -11.1195 C   0  0  0  0  0  0  0  0  0  0  0  0
   25.8667  -20.8572   -9.7977 C   0  0  0  0  0  0  0  0  0  0  0  0
   24.4446  -20.5606  -10.1880 C   0  0  0  0  0  0  0  0  0  0  0  0
   24.3614  -21.1298  -11.5782 C   0  0  1  0  0  0  0  0  0  0  0  0
   23.2159  -20.5158  -12.3095 C   0  0  0  0  0  0  0  0  0  0  0  0
   23.2710  -19.3058  -12.5976 O   0  0  0  0  0  0  0  0  0  0  0  0
   22.0674  -21.2477  -12.6914 N   0  0  0  0  0  0  0  0  0  0  0  0
   20.9193  -20.6960  -13.3430 C   0  0  1  0  0  0  0  0  0  0  0  0
   20.7552  -21.4543  -14.6668 C   0  0  0  0  0  0  0  0  0  0  0  0
   20.9521  -23.2356  -14.4266 S   0  0  0  0  0  0  0  0  0  0  0  0
   19.6633  -20.8481  -12.5988 C   0  0  0  0  0  0  0  0  0  0  0  0
   18.5424  -20.1876  -13.0822 O   0  0  0  0  0  0  0  0  0  0  0  0
   19.5346  -21.5347  -11.5555 O   0  0  0  0  0  0  0  0  0  0  0  0
  2  1  1  0
  2  3  2  0
  4  5  1  0
  4  2  1  0
  6  5  1  0
  6  7  1  6
  8  6  1  0
  8 10  1  0
  9  8  2  0
 10 14  1  0
 11 10  1  0
 11 12  1  0
 12 13  1  0
 14 13  1  0
 14 15  1  6
 15 17  1  0
 16 15  2  0
 18 17  1  0
 18 21  1  0
 18 19  1  6
 20 19  1  0
 21 22  1  0
 23 21  2  0
M  END
$$$$
