QPC.pdb
     RDKit          3D

 23 23  0  0  1  0  0  0  0  0999 V2000
   14.3430  -10.1683  -12.4275 N   0  0  0  0  0  0  0  0  0  0  0  0
   14.0134  -11.0946  -13.4520 C   0  0  0  0  0  0  0  0  0  0  0  0
   12.8609  -11.5932  -13.4470 O   0  0  0  0  0  0  0  0  0  0  0  0
   14.9549  -11.4926  -14.5103 C   0  0  0  0  0  0  0  0  0  0  0  0
   16.2485  -10.7343  -14.3925 C   0  0  0  0  0  0  0  0  0  0  0  0
   17.1520  -11.1559  -15.5440 C   0  0  2  0  0  0  0  0  0  0  0  0
   17.7302  -12.4417  -15.2884 N   0  0  0  0  0  0  0  0  0  0  0  0
   18.1688  -10.1515  -15.7914 C   0  0  0  0  0  0  0  0  0  0  0  0
   19.2333  -10.2280  -15.0839 O   0  0  0  0  0  0  0  0  0  0  0  0
   18.0588   -9.1004  -16.7565 N   0  0  0  0  0  0  0  0  0  0  0  0
   17.0807   -9.1298  -17.8216 C   0  0  0  0  0  0  0  0  0  0  0  0
   17.3924   -7.9468  -18.7281 C   0  0  0  0  0  0  0  0  0  0  0  0
   18.0769   -7.0014  -17.7793 C   0  0  0  0  0  0  0  0  0  0  0  0
   18.8496   -7.9350  -16.8878 C   0  0  1  0  0  0  0  0  0  0  0  0
   19.1909   -7.2480  -15.6089 C   0  0  0  0  0  0  0  0  0  0  0  0
   18.3491   -7.2414  -14.6915 O   0  0  0  0  0  0  0  0  0  0  0  0
   20.4303   -6.6025  -15.3908 N   0  0  0  0  0  0  0  0  0  0  0  0
   20.7451   -5.7870  -14.2580 C   0  0  1  0  0  0  0  0  0  0  0  0
   22.1067   -6.2631  -13.7351 C   0  0  0  0  0  0  0  0  0  0  0  0
   22.6174   -5.3114  -12.2849 S   0  0  0  0  0  0  0  0  0  0  0  0
   20.8718   -4.3548  -14.5534 C   0  0  0  0  0  0  0  0  0  0  0  0
   21.4568   -3.9936  -15.7591 O   0  0  0  0  0  0  0  0  0  0  0  0
   20.4872   -3.4353  -13.7898 O   0  0  0  0  0  0  0  0  0  0  0  0
  2  1  1  0
  2  3  2  0
  4  5  1  0
  4  2  1  0
  6  5  1  0
  6  7  1  1
  8  6  1  0
  8 10  1  0
  9  8  2  0
 10 14  1  0
 11 10  1  0
 11 12  1  0
 12 13  1  0
 14 13  1  0
 14 15  1  1
 15 17  1  0
 16 15  2  0
 18 17  1  0
 18 21  1  0
 18 19  1  6
 20 19  1  0
 21 22  1  0
 23 21  2  0
M  END
$$$$
