QPC.pdb
     RDKit          3D

 23 23  0  0  1  0  0  0  0  0999 V2000
   10.3907  -17.0759   -0.9462 N   0  0  0  0  0  0  0  0  0  0  0  0
    9.7086  -17.9025   -1.8778 C   0  0  0  0  0  0  0  0  0  0  0  0
    9.0168  -17.3443   -2.7647 O   0  0  0  0  0  0  0  0  0  0  0  0
    9.7763  -19.3720   -1.8499 C   0  0  0  0  0  0  0  0  0  0  0  0
   10.5536  -19.8521   -0.6551 C   0  0  0  0  0  0  0  0  0  0  0  0
   12.0379  -19.7249   -0.9726 C   0  0  2  0  0  0  0  0  0  0  0  0
   12.3752  -20.4978   -2.1311 N   0  0  0  0  0  0  0  0  0  0  0  0
   12.8412  -20.1019    0.1747 C   0  0  0  0  0  0  0  0  0  0  0  0
   13.1529  -21.3399    0.2735 O   0  0  0  0  0  0  0  0  0  0  0  0
   13.2974  -19.1954    1.1838 N   0  0  0  0  0  0  0  0  0  0  0  0
   13.0288  -17.7755    1.1244 C   0  0  0  0  0  0  0  0  0  0  0  0
   13.8168  -17.1380    2.2606 C   0  0  0  0  0  0  0  0  0  0  0  0
   13.9327  -18.2781    3.2350 C   0  0  0  0  0  0  0  0  0  0  0  0
   14.0821  -19.4694    2.3284 C   0  0  1  0  0  0  0  0  0  0  0  0
   13.7227  -20.7152    3.0652 C   0  0  0  0  0  0  0  0  0  0  0  0
   12.5314  -21.0767    3.0814 O   0  0  0  0  0  0  0  0  0  0  0  0
   14.6762  -21.5062    3.7476 N   0  0  0  0  0  0  0  0  0  0  0  0
   14.3665  -22.5863    4.6334 C   0  0  1  0  0  0  0  0  0  0  0  0
   15.0694  -23.8310    4.0756 C   0  0  0  0  0  0  0  0  0  0  0  0
   16.4677  -23.3741    3.0243 S   0  0  0  0  0  0  0  0  0  0  0  0
   14.8415  -22.4018    6.0100 C   0  0  0  0  0  0  0  0  0  0  0  0
   14.4213  -23.3162    6.9659 O   0  0  0  0  0  0  0  0  0  0  0  0
   15.6014  -21.4737    6.3808 O   0  0  0  0  0  0  0  0  0  0  0  0
  2  1  1  0
  2  3  2  0
  4  5  1  0
  4  2  1  0
  6  5  1  0
  6  7  1  6
  8  6  1  0
  8 10  1  0
  9  8  2  0
 10 14  1  0
 11 10  1  0
 11 12  1  0
 12 13  1  0
 14 13  1  0
 14 15  1  1
 15 17  1  0
 16 15  2  0
 18 17  1  0
 18 21  1  0
 18 19  1  6
 20 19  1  0
 21 22  1  0
 23 21  2  0
M  END
$$$$
