QPC.pdb
     RDKit          3D

 23 23  0  0  1  0  0  0  0  0999 V2000
   35.9554  -28.1682    6.9581 N   0  0  0  0  0  0  0  0  0  0  0  0
   34.6541  -27.7227    6.6057 C   0  0  0  0  0  0  0  0  0  0  0  0
   33.6780  -28.4481    6.9187 O   0  0  0  0  0  0  0  0  0  0  0  0
   34.4010  -26.4591    5.8957 C   0  0  0  0  0  0  0  0  0  0  0  0
   34.2807  -25.3135    6.8629 C   0  0  0  0  0  0  0  0  0  0  0  0
   34.8148  -24.0600    6.1821 C   0  0  2  0  0  0  0  0  0  0  0  0
   36.2447  -24.0994    6.1001 N   0  0  0  0  0  0  0  0  0  0  0  0
   34.3506  -22.8683    6.8664 C   0  0  0  0  0  0  0  0  0  0  0  0
   34.9738  -22.5432    7.9367 O   0  0  0  0  0  0  0  0  0  0  0  0
   33.2608  -22.0497    6.4298 N   0  0  0  0  0  0  0  0  0  0  0  0
   32.6618  -22.1955    5.1215 C   0  0  0  0  0  0  0  0  0  0  0  0
   31.6732  -21.0478    4.9678 C   0  0  0  0  0  0  0  0  0  0  0  0
   31.3239  -20.7460    6.3994 C   0  0  0  0  0  0  0  0  0  0  0  0
   32.6277  -20.9842    7.1115 C   0  0  1  0  0  0  0  0  0  0  0  0
   32.3774  -21.2147    8.5634 C   0  0  0  0  0  0  0  0  0  0  0  0
   32.0441  -22.3542    8.9384 O   0  0  0  0  0  0  0  0  0  0  0  0
   32.5019  -20.1950    9.5356 N   0  0  0  0  0  0  0  0  0  0  0  0
   32.1691  -20.3334   10.9204 C   0  0  1  0  0  0  0  0  0  0  0  0
   33.3543  -19.7738   11.7180 C   0  0  0  0  0  0  0  0  0  0  0  0
   34.8849  -20.6458   11.3099 S   0  0  0  0  0  0  0  0  0  0  0  0
   30.9758  -19.5880   11.3386 C   0  0  0  0  0  0  0  0  0  0  0  0
   30.4764  -19.8300   12.6108 O   0  0  0  0  0  0  0  0  0  0  0  0
   30.3769  -18.7472   10.6239 O   0  0  0  0  0  0  0  0  0  0  0  0
  2  1  1  0
  2  3  2  0
  4  5  1  0
  4  2  1  0
  6  5  1  0
  6  7  1  1
  8  6  1  0
  8 10  1  0
  9  8  2  0
 10 14  1  0
 11 10  1  0
 11 12  1  0
 12 13  1  0
 14 13  1  0
 14 15  1  1
 15 17  1  0
 16 15  2  0
 18 17  1  0
 18 21  1  0
 18 19  1  1
 20 19  1  0
 21 22  1  0
 23 21  2  0
M  END
$$$$
