QPC.pdb
     RDKit          3D

 23 23  0  0  1  0  0  0  0  0999 V2000
   16.9856   -7.9540  -19.5784 N   0  0  0  0  0  0  0  0  0  0  0  0
   17.8286   -7.4896  -18.5344 C   0  0  0  0  0  0  0  0  0  0  0  0
   17.9898   -6.2501  -18.4145 O   0  0  0  0  0  0  0  0  0  0  0  0
   18.5158   -8.3894  -17.5948 C   0  0  0  0  0  0  0  0  0  0  0  0
   18.3187   -7.9361  -16.1743 C   0  0  0  0  0  0  0  0  0  0  0  0
   19.1236   -8.8570  -15.2665 C   0  0  2  0  0  0  0  0  0  0  0  0
   18.6000  -10.1901  -15.3062 N   0  0  0  0  0  0  0  0  0  0  0  0
   19.1614   -8.3369  -13.9130 C   0  0  0  0  0  0  0  0  0  0  0  0
   18.2525   -8.7546  -13.1136 O   0  0  0  0  0  0  0  0  0  0  0  0
   20.1306   -7.4040  -13.4248 N   0  0  0  0  0  0  0  0  0  0  0  0
   21.3644   -7.1331  -14.1293 C   0  0  0  0  0  0  0  0  0  0  0  0
   22.1950   -6.2385  -13.2193 C   0  0  0  0  0  0  0  0  0  0  0  0
   21.1329   -5.5632  -12.3955 C   0  0  0  0  0  0  0  0  0  0  0  0
   20.1081   -6.6518  -12.2270 C   0  0  1  0  0  0  0  0  0  0  0  0
   18.7881   -6.0549  -11.8732 C   0  0  0  0  0  0  0  0  0  0  0  0
   18.1119   -5.5244  -12.7740 O   0  0  0  0  0  0  0  0  0  0  0  0
   18.2688   -6.0643  -10.5577 N   0  0  0  0  0  0  0  0  0  0  0  0
   17.1332   -5.3140  -10.1160 C   0  0  1  0  0  0  0  0  0  0  0  0
   16.0469   -6.3326   -9.7463 C   0  0  0  0  0  0  0  0  0  0  0  0
   16.7161   -7.6508   -8.7052 S   0  0  0  0  0  0  0  0  0  0  0  0
   17.3731   -4.4869   -8.9274 C   0  0  0  0  0  0  0  0  0  0  0  0
   18.6055   -4.6012   -8.2993 O   0  0  0  0  0  0  0  0  0  0  0  0
   16.5395   -3.6839   -8.4409 O   0  0  0  0  0  0  0  0  0  0  0  0
  2  1  1  0
  2  3  2  0
  4  5  1  0
  4  2  1  0
  6  5  1  0
  6  7  1  1
  8  6  1  0
  8 10  1  0
  9  8  2  0
 10 14  1  0
 11 10  1  0
 11 12  1  0
 12 13  1  0
 14 13  1  0
 14 15  1  6
 15 17  1  0
 16 15  2  0
 18 17  1  0
 18 21  1  0
 18 19  1  1
 20 19  1  0
 21 22  1  0
 23 21  2  0
M  END
$$$$
