QPC.pdb
     RDKit          3D

 23 23  0  0  1  0  0  0  0  0999 V2000
   22.0761  -14.8545  -19.8420 N   0  0  0  0  0  0  0  0  0  0  0  0
   22.7579  -15.9132  -19.1858 C   0  0  0  0  0  0  0  0  0  0  0  0
   22.7221  -17.0527  -19.7121 O   0  0  0  0  0  0  0  0  0  0  0  0
   23.4983  -15.7352  -17.9268 C   0  0  0  0  0  0  0  0  0  0  0  0
   23.4231  -14.3088  -17.4557 C   0  0  0  0  0  0  0  0  0  0  0  0
   24.2236  -14.1928  -16.1650 C   0  0  2  0  0  0  0  0  0  0  0  0
   23.8209  -15.1992  -15.2280 N   0  0  0  0  0  0  0  0  0  0  0  0
   24.1018  -12.8605  -15.6047 C   0  0  0  0  0  0  0  0  0  0  0  0
   22.9894  -12.5776  -15.0371 O   0  0  0  0  0  0  0  0  0  0  0  0
   25.1259  -11.8616  -15.6466 N   0  0  0  0  0  0  0  0  0  0  0  0
   26.4898  -12.1696  -16.0164 C   0  0  0  0  0  0  0  0  0  0  0  0
   27.3008  -10.9045  -15.7714 C   0  0  0  0  0  0  0  0  0  0  0  0
   26.2534   -9.8337  -15.9081 C   0  0  0  0  0  0  0  0  0  0  0  0
   25.0358  -10.4893  -15.3155 C   0  0  1  0  0  0  0  0  0  0  0  0
   23.8043   -9.7972  -15.7933 C   0  0  0  0  0  0  0  0  0  0  0  0
   23.3629  -10.0761  -16.9236 O   0  0  0  0  0  0  0  0  0  0  0  0
   23.1138   -8.8363  -15.0185 N   0  0  0  0  0  0  0  0  0  0  0  0
   22.0083   -8.0511  -15.4757 C   0  0  1  0  0  0  0  0  0  0  0  0
   21.1246   -7.7770  -14.2517 C   0  0  0  0  0  0  0  0  0  0  0  0
   19.7110   -6.7373  -14.6877 S   0  0  0  0  0  0  0  0  0  0  0  0
   22.3780   -6.7487  -16.0426 C   0  0  0  0  0  0  0  0  0  0  0  0
   21.6048   -6.2551  -17.0843 O   0  0  0  0  0  0  0  0  0  0  0  0
   23.3454   -6.0516  -15.6493 O   0  0  0  0  0  0  0  0  0  0  0  0
  2  1  1  0
  2  3  2  0
  4  5  1  0
  4  2  1  0
  6  5  1  0
  6  7  1  1
  8  6  1  0
  8 10  1  0
  9  8  2  0
 10 14  1  0
 11 10  1  0
 11 12  1  0
 12 13  1  0
 14 13  1  0
 14 15  1  6
 15 17  1  0
 16 15  2  0
 18 17  1  0
 18 21  1  0
 18 19  1  1
 20 19  1  0
 21 22  1  0
 23 21  2  0
M  END
$$$$
