QPC.pdb
     RDKit          3D

 23 23  0  0  1  0  0  0  0  0999 V2000
   13.2308  -17.9850    3.1536 N   0  0  0  0  0  0  0  0  0  0  0  0
   12.3690  -19.0793    2.8779 C   0  0  0  0  0  0  0  0  0  0  0  0
   11.2087  -18.8271    2.4693 O   0  0  0  0  0  0  0  0  0  0  0  0
   12.7722  -20.4840    3.0486 C   0  0  0  0  0  0  0  0  0  0  0  0
   14.1362  -20.5796    3.6752 C   0  0  0  0  0  0  0  0  0  0  0  0
   15.1700  -20.6183    2.5572 C   0  0  2  0  0  0  0  0  0  0  0  0
   15.0563  -21.8326    1.8051 N   0  0  0  0  0  0  0  0  0  0  0  0
   16.5075  -20.4422    3.0901 C   0  0  0  0  0  0  0  0  0  0  0  0
   17.0891  -21.4922    3.5358 O   0  0  0  0  0  0  0  0  0  0  0  0
   17.2038  -19.1932    3.1489 N   0  0  0  0  0  0  0  0  0  0  0  0
   16.7136  -18.0043    2.4869 C   0  0  0  0  0  0  0  0  0  0  0  0
   17.8021  -16.9494    2.6299 C   0  0  0  0  0  0  0  0  0  0  0  0
   18.5069  -17.3990    3.8804 C   0  0  0  0  0  0  0  0  0  0  0  0
   18.4380  -18.8982    3.7737 C   0  0  1  0  0  0  0  0  0  0  0  0
   18.6351  -19.5115    5.1186 C   0  0  0  0  0  0  0  0  0  0  0  0
   17.6316  -19.7842    5.8034 O   0  0  0  0  0  0  0  0  0  0  0  0
   19.9132  -19.7980    5.6523 N   0  0  0  0  0  0  0  0  0  0  0  0
   20.1610  -20.3027    6.9681 C   0  0  1  0  0  0  0  0  0  0  0  0
   20.9997  -21.5768    6.8023 C   0  0  0  0  0  0  0  0  0  0  0  0
   20.1304  -22.8035    5.7978 S   0  0  0  0  0  0  0  0  0  0  0  0
   20.9202  -19.3952    7.8368 C   0  0  0  0  0  0  0  0  0  0  0  0
   20.9845  -19.6995    9.1894 O   0  0  0  0  0  0  0  0  0  0  0  0
   21.5148  -18.3633    7.4392 O   0  0  0  0  0  0  0  0  0  0  0  0
  2  1  1  0
  2  3  2  0
  4  5  1  0
  4  2  1  0
  6  5  1  0
  6  7  1  1
  8  6  1  0
  8 10  1  0
  9  8  2  0
 10 14  1  0
 11 10  1  0
 11 12  1  0
 12 13  1  0
 14 13  1  0
 14 15  1  1
 15 17  1  0
 16 15  2  0
 18 17  1  0
 18 21  1  0
 18 19  1  6
 20 19  1  0
 21 22  1  0
 23 21  2  0
M  END
$$$$
