QPC.pdb
     RDKit          3D

 23 23  0  0  1  0  0  0  0  0999 V2000
   25.7686  -23.6995  -13.5340 N   0  0  0  0  0  0  0  0  0  0  0  0
   24.9314  -23.4167  -14.6455 C   0  0  0  0  0  0  0  0  0  0  0  0
   25.1746  -24.0008  -15.7301 O   0  0  0  0  0  0  0  0  0  0  0  0
   23.8010  -22.4769  -14.5828 C   0  0  0  0  0  0  0  0  0  0  0  0
   23.6436  -21.9167  -13.1959 C   0  0  0  0  0  0  0  0  0  0  0  0
   24.9554  -21.2505  -12.8017 C   0  0  2  0  0  0  0  0  0  0  0  0
   25.1266  -21.2732  -11.3793 N   0  0  0  0  0  0  0  0  0  0  0  0
   25.0225  -19.9003  -13.3273 C   0  0  0  0  0  0  0  0  0  0  0  0
   23.9851  -19.1686  -13.1599 O   0  0  0  0  0  0  0  0  0  0  0  0
   26.1523  -19.3458  -14.0086 N   0  0  0  0  0  0  0  0  0  0  0  0
   27.4505  -19.9834  -13.9962 C   0  0  0  0  0  0  0  0  0  0  0  0
   28.4146  -19.0153  -14.6681 C   0  0  0  0  0  0  0  0  0  0  0  0
   27.4932  -18.2302  -15.5610 C   0  0  0  0  0  0  0  0  0  0  0  0
   26.2395  -18.1350  -14.7347 C   0  0  1  0  0  0  0  0  0  0  0  0
   25.0741  -17.8334  -15.6149 C   0  0  0  0  0  0  0  0  0  0  0  0
   24.5418  -18.7681  -16.2421 O   0  0  0  0  0  0  0  0  0  0  0  0
   24.5451  -16.5308  -15.7695 N   0  0  0  0  0  0  0  0  0  0  0  0
   23.5067  -16.1678  -16.6846 C   0  0  1  0  0  0  0  0  0  0  0  0
   22.4206  -15.4611  -15.8630 C   0  0  0  0  0  0  0  0  0  0  0  0
   23.1020  -14.7733  -14.3359 S   0  0  0  0  0  0  0  0  0  0  0  0
   23.9226  -15.2386  -17.7420 C   0  0  0  0  0  0  0  0  0  0  0  0
   22.9948  -14.9214  -18.7243 O   0  0  0  0  0  0  0  0  0  0  0  0
   25.0598  -14.7119  -17.8178 O   0  0  0  0  0  0  0  0  0  0  0  0
  2  1  1  0
  2  3  2  0
  4  5  1  0
  4  2  1  0
  6  5  1  0
  6  7  1  1
  8  6  1  0
  8 10  1  0
  9  8  2  0
 10 14  1  0
 11 10  1  0
 11 12  1  0
 12 13  1  0
 14 13  1  0
 14 15  1  6
 15 17  1  0
 16 15  2  0
 18 17  1  0
 18 21  1  0
 18 19  1  1
 20 19  1  0
 21 22  1  0
 23 21  2  0
M  END
$$$$
