QPC.pdb
     RDKit          3D

 23 23  0  0  1  0  0  0  0  0999 V2000
   20.6352  -19.5091  -13.6513 N   0  0  0  0  0  0  0  0  0  0  0  0
   21.2418  -19.1513  -14.8843 C   0  0  0  0  0  0  0  0  0  0  0  0
   20.4934  -18.7953  -15.8277 O   0  0  0  0  0  0  0  0  0  0  0  0
   22.6965  -19.1791  -15.1034 C   0  0  0  0  0  0  0  0  0  0  0  0
   23.4261  -19.5063  -13.8295 C   0  0  0  0  0  0  0  0  0  0  0  0
   24.3123  -20.7178  -14.0883 C   0  0  2  0  0  0  0  0  0  0  0  0
   23.5361  -21.8153  -14.5845 N   0  0  0  0  0  0  0  0  0  0  0  0
   25.0471  -21.0800  -12.8913 C   0  0  0  0  0  0  0  0  0  0  0  0
   24.3529  -21.4790  -11.8921 O   0  0  0  0  0  0  0  0  0  0  0  0
   26.4708  -21.0196  -12.7591 N   0  0  0  0  0  0  0  0  0  0  0  0
   27.3480  -20.9031  -13.9032 C   0  0  0  0  0  0  0  0  0  0  0  0
   28.7689  -21.0486  -13.3757 C   0  0  0  0  0  0  0  0  0  0  0  0
   28.6190  -20.5896  -11.9511 C   0  0  0  0  0  0  0  0  0  0  0  0
   27.2534  -21.1034  -11.5838 C   0  0  1  0  0  0  0  0  0  0  0  0
   26.7264  -20.3481  -10.4110 C   0  0  0  0  0  0  0  0  0  0  0  0
   26.2925  -19.1947  -10.5895 O   0  0  0  0  0  0  0  0  0  0  0  0
   26.6970  -20.8840   -9.1024 N   0  0  0  0  0  0  0  0  0  0  0  0
   26.5177  -20.1216   -7.9049 C   0  0  1  0  0  0  0  0  0  0  0  0
   25.6674  -20.9788   -6.9581 C   0  0  0  0  0  0  0  0  0  0  0  0
   24.0960  -21.4363   -7.7268 S   0  0  0  0  0  0  0  0  0  0  0  0
   27.7613  -19.7977   -7.1957 C   0  0  0  0  0  0  0  0  0  0  0  0
   27.7046  -18.8308   -6.2016 O   0  0  0  0  0  0  0  0  0  0  0  0
   28.8718  -20.3357   -7.4275 O   0  0  0  0  0  0  0  0  0  0  0  0
  2  1  1  0
  2  3  2  0
  4  5  1  0
  4  2  1  0
  6  5  1  0
  6  7  1  1
  8  6  1  0
  8 10  1  0
  9  8  2  0
 10 14  1  0
 11 10  1  0
 11 12  1  0
 12 13  1  0
 14 13  1  0
 14 15  1  1
 15 17  1  0
 16 15  2  0
 18 17  1  0
 18 21  1  0
 18 19  1  1
 20 19  1  0
 21 22  1  0
 23 21  2  0
M  END
$$$$
