WPQ.pdb
     RDKit          3D

 31 33  0  0  1  0  0  0  0  0999 V2000
   23.1609  -33.9058  -16.5385 N   0  0  0  0  0  0  0  0  0  0  0  0
   23.9329  -33.7425  -15.3574 C   0  0  1  0  0  0  0  0  0  0  0  0
   23.5070  -32.5492  -14.5254 C   0  0  0  0  0  0  0  0  0  0  0  0
   23.5182  -31.2877  -15.3103 C   0  0  0  0  0  0  0  0  0  0  0  0
   24.6382  -30.5121  -15.5936 C   0  0  0  0  0  0  0  0  0  0  0  0
   24.2707  -29.4476  -16.3247 N   0  0  0  0  0  0  0  0  0  0  0  0
   22.9361  -29.4638  -16.5545 C   0  0  0  0  0  0  0  0  0  0  0  0
   22.0840  -28.6242  -17.2321 C   0  0  0  0  0  0  0  0  0  0  0  0
   20.7428  -28.9081  -17.2958 C   0  0  0  0  0  0  0  0  0  0  0  0
   20.2839  -30.0499  -16.6648 C   0  0  0  0  0  0  0  0  0  0  0  0
   21.1385  -30.8907  -15.9860 C   0  0  0  0  0  0  0  0  0  0  0  0
   22.4756  -30.6176  -15.9164 C   0  0  0  0  0  0  0  0  0  0  0  0
   23.9756  -34.8979  -14.4443 C   0  0  0  0  0  0  0  0  0  0  0  0
   22.9436  -35.6587  -14.4978 O   0  0  0  0  0  0  0  0  0  0  0  0
   24.9954  -35.2429  -13.5505 N   0  0  0  0  0  0  0  0  0  0  0  0
   26.0713  -34.3091  -13.1671 C   0  0  0  0  0  0  0  0  0  0  0  0
   27.2839  -35.1998  -13.3978 C   0  0  0  0  0  0  0  0  0  0  0  0
   26.7913  -36.5183  -12.8570 C   0  0  0  0  0  0  0  0  0  0  0  0
   25.2838  -36.4543  -12.8197 C   0  0  1  0  0  0  0  0  0  0  0  0
   24.7449  -36.2939  -11.4512 C   0  0  0  0  0  0  0  0  0  0  0  0
   24.6201  -35.1388  -10.9702 O   0  0  0  0  0  0  0  0  0  0  0  0
   22.6945  -39.6061   -5.4223 N   0  0  0  0  0  0  0  0  0  0  0  0
   22.2759  -39.5334   -6.7752 C   0  0  0  0  0  0  0  0  0  0  0  0
   21.8014  -40.5562   -7.2876 O   0  0  0  0  0  0  0  0  0  0  0  0
   22.4329  -38.2436   -7.4874 C   0  0  0  0  0  0  0  0  0  0  0  0
   23.0710  -38.3571   -8.8345 C   0  0  0  0  0  0  0  0  0  0  0  0
   23.8381  -37.1679   -9.2970 C   0  0  2  0  0  0  0  0  0  0  0  0
   24.3604  -37.4133  -10.6563 N   0  0  0  0  0  0  0  0  0  0  0  0
   24.9629  -36.9096   -8.3763 C   0  0  0  0  0  0  0  0  0  0  0  0
   24.7540  -36.1200   -7.2638 O   0  0  0  0  0  0  0  0  0  0  0  0
   26.0882  -37.3913   -8.5896 O   0  0  0  0  0  0  0  0  0  0  0  0
  2  1  1  6
  3  4  1  0
  3  2  1  0
  4  5  2  0
  6  5  1  0
  7  6  1  0
  8  7  2  0
  9  8  1  0
 10  9  2  0
 10 11  1  0
 11 12  2  0
 12  7  1  0
 12  4  1  0
 13 14  2  0
 13  2  1  0
 15 13  1  0
 16 17  1  0
 16 15  1  0
 18 19  1  0
 18 17  1  0
 19 15  1  0
 19 20  1  1
 21 20  2  0
 23 22  1  0
 24 23  2  0
 25 23  1  0
 27 26  1  1
 26 25  1  0
 27 28  1  0
 28 20  1  0
 29 30  1  0
 29 27  1  0
 31 29  2  0
M  END
$$$$
