WPQ.pdb
     RDKit          3D

 31 33  0  0  1  0  0  0  0  0999 V2000
   29.4436  -23.2791  -17.5299 N   0  0  0  0  0  0  0  0  0  0  0  0
   28.4463  -22.2676  -17.5293 C   0  0  1  0  0  0  0  0  0  0  0  0
   27.2127  -22.6443  -18.3254 C   0  0  0  0  0  0  0  0  0  0  0  0
   27.4457  -22.5605  -19.7905 C   0  0  0  0  0  0  0  0  0  0  0  0
   28.0802  -23.5206  -20.5726 C   0  0  0  0  0  0  0  0  0  0  0  0
   28.1096  -23.1077  -21.8498 N   0  0  0  0  0  0  0  0  0  0  0  0
   27.5171  -21.8962  -21.9738 C   0  0  0  0  0  0  0  0  0  0  0  0
   27.2918  -21.0595  -23.0413 C   0  0  0  0  0  0  0  0  0  0  0  0
   26.6482  -19.8619  -22.8546 C   0  0  0  0  0  0  0  0  0  0  0  0
   26.2399  -19.5297  -21.5758 C   0  0  0  0  0  0  0  0  0  0  0  0
   26.4659  -20.3687  -20.5067 C   0  0  0  0  0  0  0  0  0  0  0  0
   27.1058  -21.5634  -20.6813 C   0  0  0  0  0  0  0  0  0  0  0  0
   27.9734  -21.8223  -16.2068 C   0  0  0  0  0  0  0  0  0  0  0  0
   28.0332  -22.7177  -15.2896 O   0  0  0  0  0  0  0  0  0  0  0  0
   27.4803  -20.5606  -15.8565 N   0  0  0  0  0  0  0  0  0  0  0  0
   27.3083  -19.4701  -16.8352 C   0  0  0  0  0  0  0  0  0  0  0  0
   28.0106  -18.3414  -16.0939 C   0  0  0  0  0  0  0  0  0  0  0  0
   27.5366  -18.5734  -14.6814 C   0  0  0  0  0  0  0  0  0  0  0  0
   27.0442  -19.9979  -14.6004 C   0  0  1  0  0  0  0  0  0  0  0  0
   25.5690  -20.0984  -14.5497 C   0  0  0  0  0  0  0  0  0  0  0  0
   24.9121  -20.0579  -15.6212 O   0  0  0  0  0  0  0  0  0  0  0  0
   23.6123  -20.6983   -8.3802 N   0  0  0  0  0  0  0  0  0  0  0  0
   22.8558  -20.8595   -9.5687 C   0  0  0  0  0  0  0  0  0  0  0  0
   21.7557  -21.4213   -9.4800 O   0  0  0  0  0  0  0  0  0  0  0  0
   23.4276  -20.3481  -10.8364 C   0  0  0  0  0  0  0  0  0  0  0  0
   22.9743  -21.0821  -12.0573 C   0  0  0  0  0  0  0  0  0  0  0  0
   23.4146  -20.5159  -13.3618 C   0  0  2  0  0  0  0  0  0  0  0  0
   24.8648  -20.2406  -13.3182 N   0  0  0  0  0  0  0  0  0  0  0  0
   22.6833  -19.2629  -13.6352 C   0  0  0  0  0  0  0  0  0  0  0  0
   23.3702  -18.0659  -13.6203 O   0  0  0  0  0  0  0  0  0  0  0  0
   21.4646  -19.2729  -13.8769 O   0  0  0  0  0  0  0  0  0  0  0  0
  2  1  1  1
  3  4  1  0
  3  2  1  0
  4  5  2  0
  6  5  1  0
  7  6  1  0
  8  7  2  0
  9  8  1  0
 10  9  2  0
 10 11  1  0
 11 12  2  0
 12  7  1  0
 12  4  1  0
 13 14  2  0
 13  2  1  0
 15 13  1  0
 16 17  1  0
 16 15  1  0
 18 19  1  0
 18 17  1  0
 19 15  1  0
 19 20  1  6
 21 20  2  0
 23 22  1  0
 24 23  2  0
 25 23  1  0
 27 26  1  1
 26 25  1  0
 27 28  1  0
 28 20  1  0
 29 30  1  0
 29 27  1  0
 31 29  2  0
M  END
$$$$
