WPQ.pdb
     RDKit          3D

 31 33  0  0  1  0  0  0  0  0999 V2000
   26.7511  -20.4065  -16.6480 N   0  0  0  0  0  0  0  0  0  0  0  0
   27.2172  -19.7958  -15.4533 C   0  0  1  0  0  0  0  0  0  0  0  0
   26.5096  -18.4945  -15.1319 C   0  0  0  0  0  0  0  0  0  0  0  0
   25.3603  -18.2442  -16.0398 C   0  0  0  0  0  0  0  0  0  0  0  0
   25.3626  -17.4010  -17.1467 C   0  0  0  0  0  0  0  0  0  0  0  0
   24.1525  -17.4239  -17.7278 N   0  0  0  0  0  0  0  0  0  0  0  0
   23.3171  -18.2539  -17.0590 C   0  0  0  0  0  0  0  0  0  0  0  0
   22.0044  -18.6203  -17.2403 C   0  0  0  0  0  0  0  0  0  0  0  0
   21.4103  -19.5059  -16.3765 C   0  0  0  0  0  0  0  0  0  0  0  0
   22.1650  -20.0098  -15.3329 C   0  0  0  0  0  0  0  0  0  0  0  0
   23.4803  -19.6422  -15.1519 C   0  0  0  0  0  0  0  0  0  0  0  0
   24.0817  -18.7612  -16.0060 C   0  0  0  0  0  0  0  0  0  0  0  0
   27.1537  -20.6210  -14.2343 C   0  0  0  0  0  0  0  0  0  0  0  0
   26.2259  -21.5075  -14.2379 O   0  0  0  0  0  0  0  0  0  0  0  0
   27.9766  -20.5416  -13.1054 N   0  0  0  0  0  0  0  0  0  0  0  0
   29.1392  -19.6368  -13.0263 C   0  0  0  0  0  0  0  0  0  0  0  0
   30.2000  -20.6169  -12.5457 C   0  0  0  0  0  0  0  0  0  0  0  0
   29.4232  -21.4244  -11.5366 C   0  0  0  0  0  0  0  0  0  0  0  0
   27.9569  -21.2250  -11.8337 C   0  0  1  0  0  0  0  0  0  0  0  0
   27.2834  -20.3406  -10.8574 C   0  0  0  0  0  0  0  0  0  0  0  0
   27.1244  -19.1247  -11.1357 O   0  0  0  0  0  0  0  0  0  0  0  0
   22.2478  -20.5192  -11.4325 N   0  0  0  0  0  0  0  0  0  0  0  0
   22.0392  -20.7074  -10.0426 C   0  0  0  0  0  0  0  0  0  0  0  0
   20.8867  -20.9516   -9.6606 O   0  0  0  0  0  0  0  0  0  0  0  0
   23.2085  -20.5997   -9.1390 C   0  0  0  0  0  0  0  0  0  0  0  0
   24.4769  -20.1939   -9.8182 C   0  0  0  0  0  0  0  0  0  0  0  0
   25.6862  -20.1174   -8.9533 C   0  0  2  0  0  0  0  0  0  0  0  0
   26.8065  -20.8257   -9.6044 N   0  0  0  0  0  0  0  0  0  0  0  0
   25.4046  -20.7389   -7.6441 C   0  0  0  0  0  0  0  0  0  0  0  0
   25.0043  -19.9403   -6.5922 O   0  0  0  0  0  0  0  0  0  0  0  0
   25.5230  -21.9648   -7.4790 O   0  0  0  0  0  0  0  0  0  0  0  0
  2  1  1  6
  3  4  1  0
  3  2  1  0
  4  5  2  0
  6  5  1  0
  7  6  1  0
  8  7  2  0
  9  8  1  0
 10  9  2  0
 10 11  1  0
 11 12  2  0
 12  7  1  0
 12  4  1  0
 13 14  2  0
 13  2  1  0
 15 13  1  0
 16 17  1  0
 16 15  1  0
 18 19  1  0
 18 17  1  0
 19 15  1  0
 19 20  1  1
 21 20  2  0
 23 22  1  0
 24 23  2  0
 25 23  1  0
 27 26  1  6
 26 25  1  0
 27 28  1  0
 28 20  1  0
 29 30  1  0
 29 27  1  0
 31 29  2  0
M  END
$$$$
