WPQ.pdb
     RDKit          3D

 31 33  0  0  1  0  0  0  0  0999 V2000
   25.5565  -18.8215  -11.4076 N   0  0  0  0  0  0  0  0  0  0  0  0
   25.8278  -20.1583  -11.8035 C   0  0  1  0  0  0  0  0  0  0  0  0
   25.7810  -21.1436  -10.6526 C   0  0  0  0  0  0  0  0  0  0  0  0
   26.3203  -20.5618   -9.3963 C   0  0  0  0  0  0  0  0  0  0  0  0
   25.5967  -19.8331   -8.4573 C   0  0  0  0  0  0  0  0  0  0  0  0
   26.4092  -19.4684   -7.4526 N   0  0  0  0  0  0  0  0  0  0  0  0
   27.6675  -19.9209   -7.6677 C   0  0  0  0  0  0  0  0  0  0  0  0
   28.8415  -19.8208   -6.9593 C   0  0  0  0  0  0  0  0  0  0  0  0
   29.9892  -20.3980   -7.4418 C   0  0  0  0  0  0  0  0  0  0  0  0
   29.9263  -21.0737   -8.6468 C   0  0  0  0  0  0  0  0  0  0  0  0
   28.7495  -21.1736   -9.3562 C   0  0  0  0  0  0  0  0  0  0  0  0
   27.6010  -20.6027   -8.8849 C   0  0  0  0  0  0  0  0  0  0  0  0
   24.9661  -20.7094  -12.8640 C   0  0  0  0  0  0  0  0  0  0  0  0
   23.8304  -20.1245  -12.9863 O   0  0  0  0  0  0  0  0  0  0  0  0
   25.2490  -21.7734  -13.7275 N   0  0  0  0  0  0  0  0  0  0  0  0
   26.4230  -22.6504  -13.5567 C   0  0  0  0  0  0  0  0  0  0  0  0
   26.9858  -22.6106  -14.9704 C   0  0  0  0  0  0  0  0  0  0  0  0
   25.7252  -22.6867  -15.7944 C   0  0  0  0  0  0  0  0  0  0  0  0
   24.5783  -22.2830  -14.9002 C   0  0  1  0  0  0  0  0  0  0  0  0
   23.7419  -23.4284  -14.4787 C   0  0  0  0  0  0  0  0  0  0  0  0
   24.2610  -24.3547  -13.8051 O   0  0  0  0  0  0  0  0  0  0  0  0
   18.8811  -23.0748  -11.2224 N   0  0  0  0  0  0  0  0  0  0  0  0
   19.0691  -22.2567  -12.3653 C   0  0  0  0  0  0  0  0  0  0  0  0
   18.4887  -21.1630  -12.3930 O   0  0  0  0  0  0  0  0  0  0  0  0
   19.9438  -22.7607  -13.4499 C   0  0  0  0  0  0  0  0  0  0  0  0
   20.7158  -23.9913  -13.0974 C   0  0  0  0  0  0  0  0  0  0  0  0
   21.5459  -24.5766  -14.1859 C   0  0  2  0  0  0  0  0  0  0  0  0
   22.3588  -23.5157  -14.8138 N   0  0  0  0  0  0  0  0  0  0  0  0
   20.6727  -25.1953  -15.2029 C   0  0  0  0  0  0  0  0  0  0  0  0
   19.9592  -26.3306  -14.8764 O   0  0  0  0  0  0  0  0  0  0  0  0
   20.5732  -24.7092  -16.3421 O   0  0  0  0  0  0  0  0  0  0  0  0
  2  1  1  1
  3  4  1  0
  3  2  1  0
  4  5  2  0
  6  5  1  0
  7  6  1  0
  8  7  2  0
  9  8  1  0
 10  9  2  0
 10 11  1  0
 11 12  2  0
 12  7  1  0
 12  4  1  0
 13 14  2  0
 13  2  1  0
 15 13  1  0
 16 17  1  0
 16 15  1  0
 18 19  1  0
 18 17  1  0
 19 15  1  0
 19 20  1  1
 21 20  2  0
 23 22  1  0
 24 23  2  0
 25 23  1  0
 27 26  1  1
 26 25  1  0
 27 28  1  0
 28 20  1  0
 29 30  1  0
 29 27  1  0
 31 29  2  0
M  END
$$$$
