WPQ.pdb
     RDKit          3D

 31 33  0  0  1  0  0  0  0  0999 V2000
   28.3623  -22.0517  -16.1508 N   0  0  0  0  0  0  0  0  0  0  0  0
   27.4849  -21.1578  -15.4809 C   0  0  1  0  0  0  0  0  0  0  0  0
   26.6423  -20.3262  -16.4275 C   0  0  0  0  0  0  0  0  0  0  0  0
   27.2214  -18.9765  -16.6525 C   0  0  0  0  0  0  0  0  0  0  0  0
   28.2209  -18.6588  -17.5671 C   0  0  0  0  0  0  0  0  0  0  0  0
   28.4911  -17.3456  -17.4948 N   0  0  0  0  0  0  0  0  0  0  0  0
   27.7120  -16.7483  -16.5618 C   0  0  0  0  0  0  0  0  0  0  0  0
   27.5999  -15.4537  -16.1129 C   0  0  0  0  0  0  0  0  0  0  0  0
   26.6956  -15.1411  -15.1291 C   0  0  0  0  0  0  0  0  0  0  0  0
   25.9125  -16.1568  -14.6120 C   0  0  0  0  0  0  0  0  0  0  0  0
   26.0253  -17.4539  -15.0625 C   0  0  0  0  0  0  0  0  0  0  0  0
   26.9223  -17.7762  -16.0415 C   0  0  0  0  0  0  0  0  0  0  0  0
   26.5548  -21.7641  -14.5125 C   0  0  0  0  0  0  0  0  0  0  0  0
   26.0943  -22.9102  -14.8606 O   0  0  0  0  0  0  0  0  0  0  0  0
   26.1335  -21.2360  -13.2871 N   0  0  0  0  0  0  0  0  0  0  0  0
   26.6770  -19.9836  -12.7279 C   0  0  0  0  0  0  0  0  0  0  0  0
   27.0131  -20.4516  -11.3190 C   0  0  0  0  0  0  0  0  0  0  0  0
   25.8198  -21.3168  -11.0006 C   0  0  0  0  0  0  0  0  0  0  0  0
   25.1684  -21.6846  -12.3115 C   0  0  1  0  0  0  0  0  0  0  0  0
   23.9064  -20.9522  -12.5565 C   0  0  0  0  0  0  0  0  0  0  0  0
   23.9417  -19.7083  -12.7367 O   0  0  0  0  0  0  0  0  0  0  0  0
   19.0222  -23.2380  -15.4797 N   0  0  0  0  0  0  0  0  0  0  0  0
   20.3178  -22.9281  -15.9658 C   0  0  0  0  0  0  0  0  0  0  0  0
   20.6465  -23.3912  -17.0664 O   0  0  0  0  0  0  0  0  0  0  0  0
   21.1929  -22.0738  -15.1292 C   0  0  0  0  0  0  0  0  0  0  0  0
   20.5703  -21.6228  -13.8471 C   0  0  0  0  0  0  0  0  0  0  0  0
   21.4438  -20.8287  -12.9399 C   0  0  2  0  0  0  0  0  0  0  0  0
   22.6449  -21.6155  -12.5949 N   0  0  0  0  0  0  0  0  0  0  0  0
   20.7064  -20.4890  -11.7069 C   0  0  0  0  0  0  0  0  0  0  0  0
   21.1148  -21.0344  -10.5067 O   0  0  0  0  0  0  0  0  0  0  0  0
   19.7286  -19.7228  -11.7366 O   0  0  0  0  0  0  0  0  0  0  0  0
  2  1  1  6
  3  4  1  0
  3  2  1  0
  4  5  2  0
  6  5  1  0
  7  6  1  0
  8  7  2  0
  9  8  1  0
 10  9  2  0
 10 11  1  0
 11 12  2  0
 12  7  1  0
 12  4  1  0
 13 14  2  0
 13  2  1  0
 15 13  1  0
 16 17  1  0
 16 15  1  0
 18 19  1  0
 18 17  1  0
 19 15  1  0
 19 20  1  6
 21 20  2  0
 23 22  1  0
 24 23  2  0
 25 23  1  0
 27 26  1  6
 26 25  1  0
 27 28  1  0
 28 20  1  0
 29 30  1  0
 29 27  1  0
 31 29  2  0
M  END
$$$$
