WPQ.pdb
     RDKit          3D

 31 33  0  0  1  0  0  0  0  0999 V2000
   28.3477  -21.4925  -12.4882 N   0  0  0  0  0  0  0  0  0  0  0  0
   27.1125  -21.3892  -13.1819 C   0  0  1  0  0  0  0  0  0  0  0  0
   26.2212  -20.2830  -12.6534 C   0  0  0  0  0  0  0  0  0  0  0  0
   25.8215  -20.5137  -11.2411 C   0  0  0  0  0  0  0  0  0  0  0  0
   26.6756  -20.5279  -10.1426 C   0  0  0  0  0  0  0  0  0  0  0  0
   25.9655  -20.7650   -9.0280 N   0  0  0  0  0  0  0  0  0  0  0  0
   24.6518  -20.9145   -9.3215 C   0  0  0  0  0  0  0  0  0  0  0  0
   23.5360  -21.1658   -8.5586 C   0  0  0  0  0  0  0  0  0  0  0  0
   22.3031  -21.2671   -9.1528 C   0  0  0  0  0  0  0  0  0  0  0  0
   22.2218  -21.1103  -10.5244 C   0  0  0  0  0  0  0  0  0  0  0  0
   23.3404  -20.8585  -11.2882 C   0  0  0  0  0  0  0  0  0  0  0  0
   24.5727  -20.7557  -10.7069 C   0  0  0  0  0  0  0  0  0  0  0  0
   27.2004  -21.1977  -14.6401 C   0  0  0  0  0  0  0  0  0  0  0  0
   28.1403  -20.4105  -15.0192 O   0  0  0  0  0  0  0  0  0  0  0  0
   26.3893  -21.7688  -15.6269 N   0  0  0  0  0  0  0  0  0  0  0  0
   25.1451  -22.4978  -15.3150 C   0  0  0  0  0  0  0  0  0  0  0  0
   25.3753  -23.7650  -16.1262 C   0  0  0  0  0  0  0  0  0  0  0  0
   25.9790  -23.2040  -17.3890 C   0  0  0  0  0  0  0  0  0  0  0  0
   26.4949  -21.8229  -17.0658 C   0  0  1  0  0  0  0  0  0  0  0  0
   25.6478  -20.7441  -17.6205 C   0  0  0  0  0  0  0  0  0  0  0  0
   24.5160  -20.5294  -17.1164 O   0  0  0  0  0  0  0  0  0  0  0  0
   28.6280  -17.5504  -20.8272 N   0  0  0  0  0  0  0  0  0  0  0  0
   28.5430  -17.1384  -19.4730 C   0  0  0  0  0  0  0  0  0  0  0  0
   29.5755  -16.7201  -18.9318 O   0  0  0  0  0  0  0  0  0  0  0  0
   27.2297  -17.2349  -18.7937 C   0  0  0  0  0  0  0  0  0  0  0  0
   26.1158  -17.7097  -19.6705 C   0  0  0  0  0  0  0  0  0  0  0  0
   25.2472  -18.7776  -19.1034 C   0  0  2  0  0  0  0  0  0  0  0  0
   26.0763  -19.9359  -18.7142 N   0  0  0  0  0  0  0  0  0  0  0  0
   24.2525  -19.1995  -20.1094 C   0  0  0  0  0  0  0  0  0  0  0  0
   24.5276  -20.2876  -20.9126 O   0  0  0  0  0  0  0  0  0  0  0  0
   23.1774  -18.5905  -20.2409 O   0  0  0  0  0  0  0  0  0  0  0  0
  2  1  1  1
  3  4  1  0
  3  2  1  0
  4  5  2  0
  6  5  1  0
  7  6  1  0
  8  7  2  0
  9  8  1  0
 10  9  2  0
 10 11  1  0
 11 12  2  0
 12  7  1  0
 12  4  1  0
 13 14  2  0
 13  2  1  0
 15 13  1  0
 16 17  1  0
 16 15  1  0
 18 19  1  0
 18 17  1  0
 19 15  1  0
 19 20  1  6
 21 20  2  0
 23 22  1  0
 24 23  2  0
 25 23  1  0
 27 26  1  6
 26 25  1  0
 27 28  1  0
 28 20  1  0
 29 30  1  0
 29 27  1  0
 31 29  2  0
M  END
$$$$
