WPQ.pdb
     RDKit          3D

 31 33  0  0  1  0  0  0  0  0999 V2000
   22.6580  -21.2232  -13.8000 N   0  0  0  0  0  0  0  0  0  0  0  0
   21.9198  -20.7598  -12.6784 C   0  0  1  0  0  0  0  0  0  0  0  0
   20.4966  -20.3664  -13.0210 C   0  0  0  0  0  0  0  0  0  0  0  0
   20.4354  -19.0817  -13.7648 C   0  0  0  0  0  0  0  0  0  0  0  0
   21.0980  -18.7943  -14.9542 C   0  0  0  0  0  0  0  0  0  0  0  0
   20.8082  -17.5397  -15.3347 N   0  0  0  0  0  0  0  0  0  0  0  0
   19.9689  -16.9535  -14.4481 C   0  0  0  0  0  0  0  0  0  0  0  0
   19.3865  -15.7101  -14.3785 C   0  0  0  0  0  0  0  0  0  0  0  0
   18.5578  -15.3946  -13.3310 C   0  0  0  0  0  0  0  0  0  0  0  0
   18.3316  -16.3552  -12.3622 C   0  0  0  0  0  0  0  0  0  0  0  0
   18.9156  -17.6010  -12.4326 C   0  0  0  0  0  0  0  0  0  0  0  0
   19.7423  -17.9255  -13.4711 C   0  0  0  0  0  0  0  0  0  0  0  0
   21.8370  -21.6794  -11.5303 C   0  0  0  0  0  0  0  0  0  0  0  0
   21.8157  -22.9236  -11.8437 O   0  0  0  0  0  0  0  0  0  0  0  0
   21.7812  -21.3471  -10.1722 N   0  0  0  0  0  0  0  0  0  0  0  0
   21.6602  -19.9566   -9.6944 C   0  0  0  0  0  0  0  0  0  0  0  0
   22.7845  -19.9347   -8.6686 C   0  0  0  0  0  0  0  0  0  0  0  0
   22.6242  -21.2880   -8.0231 C   0  0  0  0  0  0  0  0  0  0  0  0
   21.8206  -22.1457   -8.9700 C   0  0  1  0  0  0  0  0  0  0  0  0
   20.4262  -22.3533   -8.5212 C   0  0  0  0  0  0  0  0  0  0  0  0
   19.6039  -21.4060   -8.6085 O   0  0  0  0  0  0  0  0  0  0  0  0
   17.2050  -25.8917  -11.9117 N   0  0  0  0  0  0  0  0  0  0  0  0
   17.3668  -25.9524  -10.5042 C   0  0  0  0  0  0  0  0  0  0  0  0
   17.0221  -26.9934   -9.9287 O   0  0  0  0  0  0  0  0  0  0  0  0
   17.9353  -24.7709   -9.8140 C   0  0  0  0  0  0  0  0  0  0  0  0
   17.9497  -24.8759   -8.3229 C   0  0  0  0  0  0  0  0  0  0  0  0
   18.5668  -23.7346   -7.5929 C   0  0  2  0  0  0  0  0  0  0  0  0
   19.9827  -23.6000   -7.9902 N   0  0  0  0  0  0  0  0  0  0  0  0
   18.4835  -23.9683   -6.1376 C   0  0  0  0  0  0  0  0  0  0  0  0
   17.2665  -23.8275   -5.5021 O   0  0  0  0  0  0  0  0  0  0  0  0
   19.4895  -24.2882   -5.4822 O   0  0  0  0  0  0  0  0  0  0  0  0
  2  1  1  6
  3  4  1  0
  3  2  1  0
  4  5  2  0
  6  5  1  0
  7  6  1  0
  8  7  2  0
  9  8  1  0
 10  9  2  0
 10 11  1  0
 11 12  2  0
 12  7  1  0
 12  4  1  0
 13 14  2  0
 13  2  1  0
 15 13  1  0
 16 17  1  0
 16 15  1  0
 18 19  1  0
 18 17  1  0
 19 15  1  0
 19 20  1  1
 21 20  2  0
 23 22  1  0
 24 23  2  0
 25 23  1  0
 27 26  1  6
 26 25  1  0
 27 28  1  0
 28 20  1  0
 29 30  1  0
 29 27  1  0
 31 29  2  0
M  END
$$$$
