WPQ.pdb
     RDKit          3D

 31 33  0  0  1  0  0  0  0  0999 V2000
   25.4084  -18.6816   -8.6638 N   0  0  0  0  0  0  0  0  0  0  0  0
   26.3389  -19.5526   -9.2907 C   0  0  1  0  0  0  0  0  0  0  0  0
   26.3754  -20.9349   -8.6700 C   0  0  0  0  0  0  0  0  0  0  0  0
   26.5313  -20.8808   -7.1934 C   0  0  0  0  0  0  0  0  0  0  0  0
   25.6298  -21.3797   -6.2582 C   0  0  0  0  0  0  0  0  0  0  0  0
   26.0998  -21.1546   -5.0208 N   0  0  0  0  0  0  0  0  0  0  0  0
   27.2940  -20.5178   -5.0720 C   0  0  0  0  0  0  0  0  0  0  0  0
   28.1687  -20.0716   -4.1098 C   0  0  0  0  0  0  0  0  0  0  0  0
   29.3334  -19.4441   -4.4746 C   0  0  0  0  0  0  0  0  0  0  0  0
   29.5939  -19.2780   -5.8226 C   0  0  0  0  0  0  0  0  0  0  0  0
   28.7168  -19.7254   -6.7863 C   0  0  0  0  0  0  0  0  0  0  0  0
   27.5544  -20.3515   -6.4341 C   0  0  0  0  0  0  0  0  0  0  0  0
   26.1708  -19.7475  -10.7414 C   0  0  0  0  0  0  0  0  0  0  0  0
   25.0465  -19.3406  -11.2076 O   0  0  0  0  0  0  0  0  0  0  0  0
   27.0833  -20.3133  -11.6385 N   0  0  0  0  0  0  0  0  0  0  0  0
   28.1759  -21.2071  -11.2094 C   0  0  0  0  0  0  0  0  0  0  0  0
   29.3473  -20.5485  -11.9242 C   0  0  0  0  0  0  0  0  0  0  0  0
   28.7283  -20.2059  -13.2558 C   0  0  0  0  0  0  0  0  0  0  0  0
   27.2303  -20.2167  -13.0716 C   0  0  1  0  0  0  0  0  0  0  0  0
   26.5818  -21.4033  -13.6720 C   0  0  0  0  0  0  0  0  0  0  0  0
   26.7353  -22.5282  -13.1313 O   0  0  0  0  0  0  0  0  0  0  0  0
   21.8089  -21.7178  -11.8792 N   0  0  0  0  0  0  0  0  0  0  0  0
   21.8945  -20.6649  -12.8252 C   0  0  0  0  0  0  0  0  0  0  0  0
   21.1374  -19.6957  -12.6791 O   0  0  0  0  0  0  0  0  0  0  0  0
   22.8798  -20.7909  -13.9246 C   0  0  0  0  0  0  0  0  0  0  0  0
   23.6859  -22.0494  -13.8885 C   0  0  0  0  0  0  0  0  0  0  0  0
   24.6483  -22.2418  -15.0080 C   0  0  2  0  0  0  0  0  0  0  0  0
   25.7842  -21.3115  -14.8502 N   0  0  0  0  0  0  0  0  0  0  0  0
   23.9749  -21.9831  -16.2961 C   0  0  0  0  0  0  0  0  0  0  0  0
   23.1099  -22.9302  -16.8054 O   0  0  0  0  0  0  0  0  0  0  0  0
   24.1765  -20.9296  -16.9234 O   0  0  0  0  0  0  0  0  0  0  0  0
  2  1  1  1
  3  4  1  0
  3  2  1  0
  4  5  2  0
  6  5  1  0
  7  6  1  0
  8  7  2  0
  9  8  1  0
 10  9  2  0
 10 11  1  0
 11 12  2  0
 12  7  1  0
 12  4  1  0
 13 14  2  0
 13  2  1  0
 15 13  1  0
 16 17  1  0
 16 15  1  0
 18 19  1  0
 18 17  1  0
 19 15  1  0
 19 20  1  6
 21 20  2  0
 23 22  1  0
 24 23  2  0
 25 23  1  0
 27 26  1  1
 26 25  1  0
 27 28  1  0
 28 20  1  0
 29 30  1  0
 29 27  1  0
 31 29  2  0
M  END
$$$$
