WPQ.pdb
     RDKit          3D

 31 33  0  0  1  0  0  0  0  0999 V2000
   23.9370  -19.3327  -12.1493 N   0  0  0  0  0  0  0  0  0  0  0  0
   25.2562  -19.7199  -12.5064 C   0  0  1  0  0  0  0  0  0  0  0  0
   25.7193  -20.9810  -11.8045 C   0  0  0  0  0  0  0  0  0  0  0  0
   25.9043  -20.7728  -10.3450 C   0  0  0  0  0  0  0  0  0  0  0  0
   24.8987  -20.4848   -9.4273 C   0  0  0  0  0  0  0  0  0  0  0  0
   25.4339  -20.3641   -8.2019 N   0  0  0  0  0  0  0  0  0  0  0  0
   26.7735  -20.5592   -8.2444 C   0  0  0  0  0  0  0  0  0  0  0  0
   27.7610  -20.5452   -7.2880 C   0  0  0  0  0  0  0  0  0  0  0  0
   29.0655  -20.7848   -7.6405 C   0  0  0  0  0  0  0  0  0  0  0  0
   29.3492  -21.0371   -8.9703 C   0  0  0  0  0  0  0  0  0  0  0  0
   28.3590  -21.0511   -9.9281 C   0  0  0  0  0  0  0  0  0  0  0  0
   27.0570  -20.8138   -9.5881 C   0  0  0  0  0  0  0  0  0  0  0  0
   25.5071  -19.9227  -13.9440 C   0  0  0  0  0  0  0  0  0  0  0  0
   24.4865  -20.3199  -14.6128 O   0  0  0  0  0  0  0  0  0  0  0  0
   26.7078  -19.7321  -14.6365 N   0  0  0  0  0  0  0  0  0  0  0  0
   28.0277  -19.7995  -13.9808 C   0  0  0  0  0  0  0  0  0  0  0  0
   28.6401  -18.5039  -14.4938 C   0  0  0  0  0  0  0  0  0  0  0  0
   28.1755  -18.5032  -15.9283 C   0  0  0  0  0  0  0  0  0  0  0  0
   27.0007  -19.4461  -16.0212 C   0  0  1  0  0  0  0  0  0  0  0  0
   27.3363  -20.7255  -16.6841 C   0  0  0  0  0  0  0  0  0  0  0  0
   28.2790  -21.4242  -16.2323 O   0  0  0  0  0  0  0  0  0  0  0  0
   25.5550  -25.2399  -14.7780 N   0  0  0  0  0  0  0  0  0  0  0  0
   24.3696  -24.5872  -15.2020 C   0  0  0  0  0  0  0  0  0  0  0  0
   23.2924  -24.9969  -14.7485 O   0  0  0  0  0  0  0  0  0  0  0  0
   24.4944  -23.4615  -16.1573 C   0  0  0  0  0  0  0  0  0  0  0  0
   25.9031  -23.0609  -16.4571 C   0  0  0  0  0  0  0  0  0  0  0  0
   26.1700  -22.6000  -17.8473 C   0  0  2  0  0  0  0  0  0  0  0  0
   26.6208  -21.1939  -17.8250 N   0  0  0  0  0  0  0  0  0  0  0  0
   24.9394  -22.7101  -18.6554 C   0  0  0  0  0  0  0  0  0  0  0  0
   24.1369  -21.5985  -18.8139 O   0  0  0  0  0  0  0  0  0  0  0  0
   24.6195  -23.7846  -19.1910 O   0  0  0  0  0  0  0  0  0  0  0  0
  2  1  1  6
  3  4  1  0
  3  2  1  0
  4  5  2  0
  6  5  1  0
  7  6  1  0
  8  7  2  0
  9  8  1  0
 10  9  2  0
 10 11  1  0
 11 12  2  0
 12  7  1  0
 12  4  1  0
 13 14  2  0
 13  2  1  0
 15 13  1  0
 16 17  1  0
 16 15  1  0
 18 19  1  0
 18 17  1  0
 19 15  1  0
 19 20  1  6
 21 20  2  0
 23 22  1  0
 24 23  2  0
 25 23  1  0
 27 26  1  1
 26 25  1  0
 27 28  1  0
 28 20  1  0
 29 30  1  0
 29 27  1  0
 31 29  2  0
M  END
$$$$
