WPQ.pdb
     RDKit          3D

 31 33  0  0  1  0  0  0  0  0999 V2000
   26.1042  -22.0285  -19.9899 N   0  0  0  0  0  0  0  0  0  0  0  0
   26.6994  -22.5005  -18.7896 C   0  0  1  0  0  0  0  0  0  0  0  0
   25.6887  -22.8108  -17.7035 C   0  0  0  0  0  0  0  0  0  0  0  0
   24.6120  -21.7893  -17.6333 C   0  0  0  0  0  0  0  0  0  0  0  0
   24.6912  -20.5630  -16.9804 C   0  0  0  0  0  0  0  0  0  0  0  0
   23.5315  -19.9028  -17.1285 N   0  0  0  0  0  0  0  0  0  0  0  0
   22.6567  -20.6325  -17.8609 C   0  0  0  0  0  0  0  0  0  0  0  0
   21.3676  -20.4139  -18.2859 C   0  0  0  0  0  0  0  0  0  0  0  0
   20.7185  -21.3628  -19.0353 C   0  0  0  0  0  0  0  0  0  0  0  0
   21.3944  -22.5292  -19.3440 C   0  0  0  0  0  0  0  0  0  0  0  0
   22.6862  -22.7475  -18.9177 C   0  0  0  0  0  0  0  0  0  0  0  0
   23.3418  -21.8094  -18.1712 C   0  0  0  0  0  0  0  0  0  0  0  0
   27.5600  -23.6897  -18.9153 C   0  0  0  0  0  0  0  0  0  0  0  0
   27.1384  -24.5675  -19.7510 O   0  0  0  0  0  0  0  0  0  0  0  0
   28.7555  -23.9541  -18.2380 N   0  0  0  0  0  0  0  0  0  0  0  0
   29.3278  -23.0326  -17.2381 C   0  0  0  0  0  0  0  0  0  0  0  0
   30.7577  -22.9450  -17.7528 C   0  0  0  0  0  0  0  0  0  0  0  0
   31.0233  -24.3785  -18.1378 C   0  0  0  0  0  0  0  0  0  0  0  0
   29.6846  -25.0579  -18.2933 C   0  0  1  0  0  0  0  0  0  0  0  0
   29.3657  -25.9716  -17.1742 C   0  0  0  0  0  0  0  0  0  0  0  0
   29.1311  -25.4921  -16.0357 O   0  0  0  0  0  0  0  0  0  0  0  0
   24.5493  -27.1264  -15.8647 N   0  0  0  0  0  0  0  0  0  0  0  0
   24.8115  -28.2638  -16.6698 C   0  0  0  0  0  0  0  0  0  0  0  0
   23.8452  -28.8344  -17.1938 O   0  0  0  0  0  0  0  0  0  0  0  0
   26.2194  -28.6964  -16.8320 C   0  0  0  0  0  0  0  0  0  0  0  0
   27.2207  -27.7865  -16.1961 C   0  0  0  0  0  0  0  0  0  0  0  0
   28.6462  -28.2000  -16.3120 C   0  0  2  0  0  0  0  0  0  0  0  0
   29.3155  -27.3861  -17.3465 N   0  0  0  0  0  0  0  0  0  0  0  0
   28.7243  -29.6273  -16.6812 C   0  0  0  0  0  0  0  0  0  0  0  0
   28.4533  -30.5854  -15.7255 O   0  0  0  0  0  0  0  0  0  0  0  0
   29.0291  -29.9742  -17.8347 O   0  0  0  0  0  0  0  0  0  0  0  0
  2  1  1  6
  3  4  1  0
  3  2  1  0
  4  5  2  0
  6  5  1  0
  7  6  1  0
  8  7  2  0
  9  8  1  0
 10  9  2  0
 10 11  1  0
 11 12  2  0
 12  7  1  0
 12  4  1  0
 13 14  2  0
 13  2  1  0
 15 13  1  0
 16 17  1  0
 16 15  1  0
 18 19  1  0
 18 17  1  0
 19 15  1  0
 19 20  1  1
 21 20  2  0
 23 22  1  0
 24 23  2  0
 25 23  1  0
 27 26  1  6
 26 25  1  0
 27 28  1  0
 28 20  1  0
 29 30  1  0
 29 27  1  0
 31 29  2  0
M  END
$$$$
