WPQ.pdb
     RDKit          3D

 31 33  0  0  1  0  0  0  0  0999 V2000
   24.9714  -20.2599  -16.1868 N   0  0  0  0  0  0  0  0  0  0  0  0
   25.8245  -19.7543  -15.1698 C   0  0  1  0  0  0  0  0  0  0  0  0
   25.5116  -18.3221  -14.7848 C   0  0  0  0  0  0  0  0  0  0  0  0
   25.6550  -17.3904  -15.9333 C   0  0  0  0  0  0  0  0  0  0  0  0
   24.6238  -16.6858  -16.5469 C   0  0  0  0  0  0  0  0  0  0  0  0
   25.1242  -15.9430  -17.5473 N   0  0  0  0  0  0  0  0  0  0  0  0
   26.4644  -16.1121  -17.6434 C   0  0  0  0  0  0  0  0  0  0  0  0
   27.4246  -15.5926  -18.4791 C   0  0  0  0  0  0  0  0  0  0  0  0
   28.7386  -15.9602  -18.3319 C   0  0  0  0  0  0  0  0  0  0  0  0
   29.0598  -16.8575  -17.3297 C   0  0  0  0  0  0  0  0  0  0  0  0
   28.0971  -17.3776  -16.4927 C   0  0  0  0  0  0  0  0  0  0  0  0
   26.7859  -17.0184  -16.6304 C   0  0  0  0  0  0  0  0  0  0  0  0
   25.8689  -20.5266  -13.9159 C   0  0  0  0  0  0  0  0  0  0  0  0
   24.8798  -21.3264  -13.7465 O   0  0  0  0  0  0  0  0  0  0  0  0
   26.8495  -20.4806  -12.9189 N   0  0  0  0  0  0  0  0  0  0  0  0
   27.9211  -19.4668  -12.8985 C   0  0  0  0  0  0  0  0  0  0  0  0
   29.1309  -20.3701  -12.7051 C   0  0  0  0  0  0  0  0  0  0  0  0
   28.6021  -21.3642  -11.7021 C   0  0  0  0  0  0  0  0  0  0  0  0
   27.0952  -21.2970  -11.7537 C   0  0  1  0  0  0  0  0  0  0  0  0
   26.5063  -20.6048  -10.5862 C   0  0  0  0  0  0  0  0  0  0  0  0
   26.4874  -19.3477  -10.5610 O   0  0  0  0  0  0  0  0  0  0  0  0
   22.4022  -23.1087   -6.5231 N   0  0  0  0  0  0  0  0  0  0  0  0
   22.4564  -21.7715   -6.0541 C   0  0  0  0  0  0  0  0  0  0  0  0
   21.6943  -21.4529   -5.1314 O   0  0  0  0  0  0  0  0  0  0  0  0
   23.4172  -20.8438   -6.6958 C   0  0  0  0  0  0  0  0  0  0  0  0
   24.2056  -21.4484   -7.8127 C   0  0  0  0  0  0  0  0  0  0  0  0
   25.2254  -20.5673   -8.4450 C   0  0  2  0  0  0  0  0  0  0  0  0
   25.9566  -21.3214   -9.4830 N   0  0  0  0  0  0  0  0  0  0  0  0
   26.1762  -20.0890   -7.4219 C   0  0  0  0  0  0  0  0  0  0  0  0
   25.8667  -18.9599   -6.6911 O   0  0  0  0  0  0  0  0  0  0  0  0
   27.2450  -20.6869   -7.2122 O   0  0  0  0  0  0  0  0  0  0  0  0
  2  1  1  6
  3  4  1  0
  3  2  1  0
  4  5  2  0
  6  5  1  0
  7  6  1  0
  8  7  2  0
  9  8  1  0
 10  9  2  0
 10 11  1  0
 11 12  2  0
 12  7  1  0
 12  4  1  0
 13 14  2  0
 13  2  1  0
 15 13  1  0
 16 17  1  0
 16 15  1  0
 18 19  1  0
 18 17  1  0
 19 15  1  0
 19 20  1  1
 21 20  2  0
 23 22  1  0
 24 23  2  0
 25 23  1  0
 27 26  1  1
 26 25  1  0
 27 28  1  0
 28 20  1  0
 29 30  1  0
 29 27  1  0
 31 29  2  0
M  END
$$$$
