WPQ.pdb
     RDKit          3D

 31 33  0  0  1  0  0  0  0  0999 V2000
   24.2261  -19.7674  -11.0229 N   0  0  0  0  0  0  0  0  0  0  0  0
   25.5560  -20.0694  -11.4202 C   0  0  1  0  0  0  0  0  0  0  0  0
   26.1955  -21.1613  -10.5859 C   0  0  0  0  0  0  0  0  0  0  0  0
   26.1748  -20.8410   -9.1352 C   0  0  0  0  0  0  0  0  0  0  0  0
   25.0372  -20.6942   -8.3475 C   0  0  0  0  0  0  0  0  0  0  0  0
   25.4008  -20.4078   -7.0871 N   0  0  0  0  0  0  0  0  0  0  0  0
   26.7497  -20.3524   -6.9801 C   0  0  0  0  0  0  0  0  0  0  0  0
   27.6048  -20.1013   -5.9332 C   0  0  0  0  0  0  0  0  0  0  0  0
   28.9624  -20.1135   -6.1339 C   0  0  0  0  0  0  0  0  0  0  0  0
   29.4345  -20.3826   -7.4056 C   0  0  0  0  0  0  0  0  0  0  0  0
   28.5770  -20.6341   -8.4541 C   0  0  0  0  0  0  0  0  0  0  0  0
   27.2236  -20.6245   -8.2654 C   0  0  0  0  0  0  0  0  0  0  0  0
   25.7411  -20.4548  -12.8302 C   0  0  0  0  0  0  0  0  0  0  0  0
   24.7129  -20.9959  -13.3748 O   0  0  0  0  0  0  0  0  0  0  0  0
   26.8885  -20.2962  -13.6153 N   0  0  0  0  0  0  0  0  0  0  0  0
   28.2210  -20.0347  -13.0388 C   0  0  0  0  0  0  0  0  0  0  0  0
   28.6422  -18.8425  -13.8864 C   0  0  0  0  0  0  0  0  0  0  0  0
   28.1469  -19.2569  -15.2490 C   0  0  0  0  0  0  0  0  0  0  0  0
   27.1067  -20.3307  -15.0421 C   0  0  1  0  0  0  0  0  0  0  0  0
   27.5940  -21.6835  -15.3907 C   0  0  0  0  0  0  0  0  0  0  0  0
   28.3868  -22.2719  -14.6120 O   0  0  0  0  0  0  0  0  0  0  0  0
   24.3768  -25.0441  -13.4803 N   0  0  0  0  0  0  0  0  0  0  0  0
   23.7788  -24.4319  -14.6110 C   0  0  0  0  0  0  0  0  0  0  0  0
   22.5450  -24.3253  -14.6237 O   0  0  0  0  0  0  0  0  0  0  0  0
   24.6646  -23.9611  -15.7015 C   0  0  0  0  0  0  0  0  0  0  0  0
   26.1200  -24.2041  -15.4617 C   0  0  0  0  0  0  0  0  0  0  0  0
   27.0388  -23.8135  -16.5661 C   0  0  2  0  0  0  0  0  0  0  0  0
   27.1909  -22.3448  -16.5878 N   0  0  0  0  0  0  0  0  0  0  0  0
   26.4904  -24.2712  -17.8581 C   0  0  0  0  0  0  0  0  0  0  0  0
   26.5154  -25.6175  -18.1607 O   0  0  0  0  0  0  0  0  0  0  0  0
   26.0096  -23.4640  -18.6712 O   0  0  0  0  0  0  0  0  0  0  0  0
  2  1  1  1
  3  4  1  0
  3  2  1  0
  4  5  2  0
  6  5  1  0
  7  6  1  0
  8  7  2  0
  9  8  1  0
 10  9  2  0
 10 11  1  0
 11 12  2  0
 12  7  1  0
 12  4  1  0
 13 14  2  0
 13  2  1  0
 15 13  1  0
 16 17  1  0
 16 15  1  0
 18 19  1  0
 18 17  1  0
 19 15  1  0
 19 20  1  1
 21 20  2  0
 23 22  1  0
 24 23  2  0
 25 23  1  0
 27 26  1  1
 26 25  1  0
 27 28  1  0
 28 20  1  0
 29 30  1  0
 29 27  1  0
 31 29  2  0
M  END
$$$$
