CMA.pdb
     RDKit          3D

 20 19  0  0  1  0  0  0  0  0999 V2000
    9.9236  -16.6513   20.3640 N   0  0  0  0  0  0  0  0  0  0  0  0
    8.7393  -16.4160   21.1270 C   0  0  1  0  0  0  0  0  0  0  0  0
    8.0023  -17.7289   21.2654 C   0  0  0  0  0  0  0  0  0  0  0  0
    8.6071  -18.6204   22.7148 S   0  0  0  0  0  0  0  0  0  0  0  0
    9.0120  -15.8612   22.4735 C   0  0  0  0  0  0  0  0  0  0  0  0
   10.1990  -15.8397   22.9232 O   0  0  0  0  0  0  0  0  0  0  0  0
    5.9776  -10.7488   27.5984 C   0  0  0  0  0  0  0  0  0  0  0  0
    5.7244  -11.8584   26.1853 S   0  0  0  0  0  0  0  0  0  0  0  0
    7.2595  -12.8665   26.0049 C   0  0  0  0  0  0  0  0  0  0  0  0
    7.1294  -13.7197   24.7808 C   0  0  0  0  0  0  0  0  0  0  0  0
    8.3048  -14.6134   24.5360 C   0  0  2  0  0  0  0  0  0  0  0  0
    7.9912  -15.3501   23.2847 N   0  0  0  0  0  0  0  0  0  0  0  0
    8.4869  -15.5976   25.6148 C   0  0  0  0  0  0  0  0  0  0  0  0
    8.7582  -15.1738   26.7744 O   0  0  0  0  0  0  0  0  0  0  0  0
    7.6119  -19.1913   26.2806 C   0  0  0  0  0  0  0  0  0  0  0  0
    8.4014  -17.9354   26.5689 C   0  0  2  0  0  0  0  0  0  0  0  0
    8.3782  -17.0048   25.4672 N   0  0  0  0  0  0  0  0  0  0  0  0
    9.7759  -18.2625   27.0166 C   0  0  0  0  0  0  0  0  0  0  0  0
    9.9991  -19.0390   28.1429 O   0  0  0  0  0  0  0  0  0  0  0  0
   10.7901  -17.8527   26.3993 O   0  0  0  0  0  0  0  0  0  0  0  0
  2  1  1  1
  2  3  1  0
  3  4  1  0
  5  6  2  0
  5  2  1  0
  8  9  1  0
  8  7  1  0
  9 10  1  0
 11 10  1  1
 11 12  1  0
 11 13  1  0
 12  5  1  0
 13 14  2  0
 16 15  1  6
 17 13  1  0
 17 16  1  0
 18 19  1  0
 18 16  1  0
 20 18  2  0
M  END
$$$$
