CMA.pdb
     RDKit          3D

 20 19  0  0  1  0  0  0  0  0999 V2000
    9.0290  -15.9971   19.2082 N   0  0  0  0  0  0  0  0  0  0  0  0
    8.0625  -16.0320   20.2593 C   0  0  1  0  0  0  0  0  0  0  0  0
    7.5417  -17.4470   20.3706 C   0  0  0  0  0  0  0  0  0  0  0  0
    8.8055  -18.5084   21.1041 S   0  0  0  0  0  0  0  0  0  0  0  0
    8.6077  -15.6046   21.5690 C   0  0  0  0  0  0  0  0  0  0  0  0
    9.8635  -15.5450   21.7454 O   0  0  0  0  0  0  0  0  0  0  0  0
    7.0129  -10.8540   26.0291 C   0  0  0  0  0  0  0  0  0  0  0  0
    6.4106  -12.4556   26.6328 S   0  0  0  0  0  0  0  0  0  0  0  0
    7.6145  -13.7356   26.0693 C   0  0  0  0  0  0  0  0  0  0  0  0
    7.2571  -14.1458   24.6738 C   0  0  0  0  0  0  0  0  0  0  0  0
    8.3430  -14.8915   23.9633 C   0  0  2  0  0  0  0  0  0  0  0  0
    7.7752  -15.2572   22.6402 N   0  0  0  0  0  0  0  0  0  0  0  0
    8.7128  -16.1322   24.6630 C   0  0  0  0  0  0  0  0  0  0  0  0
    7.8790  -17.0821   24.6815 O   0  0  0  0  0  0  0  0  0  0  0  0
   11.6056  -18.1709   25.3944 C   0  0  0  0  0  0  0  0  0  0  0  0
   10.3099  -17.6163   25.9396 C   0  0  2  0  0  0  0  0  0  0  0  0
    9.9459  -16.3625   25.3265 N   0  0  0  0  0  0  0  0  0  0  0  0
   10.3432  -17.5444   27.4195 C   0  0  0  0  0  0  0  0  0  0  0  0
   10.2571  -18.6890   28.1966 O   0  0  0  0  0  0  0  0  0  0  0  0
   10.4498  -16.4513   28.0287 O   0  0  0  0  0  0  0  0  0  0  0  0
  2  1  1  6
  2  3  1  0
  3  4  1  0
  5  6  2  0
  5  2  1  0
  8  9  1  0
  8  7  1  0
  9 10  1  0
 11 10  1  1
 11 12  1  0
 11 13  1  0
 12  5  1  0
 13 14  2  0
 16 15  1  6
 17 13  1  0
 17 16  1  0
 18 19  1  0
 18 16  1  0
 20 18  2  0
M  END
$$$$
