CMA.pdb
     RDKit          3D

 20 19  0  0  1  0  0  0  0  0999 V2000
    9.3433  -15.5589   19.9977 N   0  0  0  0  0  0  0  0  0  0  0  0
    8.5466  -16.0107   21.0937 C   0  0  1  0  0  0  0  0  0  0  0  0
    8.8297  -17.4809   21.3044 C   0  0  0  0  0  0  0  0  0  0  0  0
   10.5334  -17.7025   21.8609 S   0  0  0  0  0  0  0  0  0  0  0  0
    8.8116  -15.2741   22.3517 C   0  0  0  0  0  0  0  0  0  0  0  0
    9.8414  -14.5386   22.4523 O   0  0  0  0  0  0  0  0  0  0  0  0
    5.6166  -10.4876   26.5313 C   0  0  0  0  0  0  0  0  0  0  0  0
    6.1816  -12.1907   26.8010 S   0  0  0  0  0  0  0  0  0  0  0  0
    6.3021  -12.9915   25.1429 C   0  0  0  0  0  0  0  0  0  0  0  0
    6.8630  -14.3693   25.3177 C   0  0  0  0  0  0  0  0  0  0  0  0
    8.2048  -14.5635   24.6836 C   0  0  2  0  0  0  0  0  0  0  0  0
    7.9533  -15.3597   23.4550 N   0  0  0  0  0  0  0  0  0  0  0  0
    9.1202  -15.3273   25.5464 C   0  0  0  0  0  0  0  0  0  0  0  0
    9.2027  -16.5771   25.3760 O   0  0  0  0  0  0  0  0  0  0  0  0
   11.5890  -14.7050   28.3821 C   0  0  0  0  0  0  0  0  0  0  0  0
   10.7376  -15.5608   27.4731 C   0  0  2  0  0  0  0  0  0  0  0  0
    9.9363  -14.7748   26.5674 N   0  0  0  0  0  0  0  0  0  0  0  0
    9.9363  -16.5325   28.2544 C   0  0  0  0  0  0  0  0  0  0  0  0
   10.5357  -17.5996   28.9051 O   0  0  0  0  0  0  0  0  0  0  0  0
    8.6888  -16.4315   28.3596 O   0  0  0  0  0  0  0  0  0  0  0  0
  2  1  1  6
  2  3  1  0
  3  4  1  0
  5  6  2  0
  5  2  1  0
  8  9  1  0
  8  7  1  0
  9 10  1  0
 11 10  1  1
 11 12  1  0
 11 13  1  0
 12  5  1  0
 13 14  2  0
 16 15  1  1
 17 13  1  0
 17 16  1  0
 18 19  1  0
 18 16  1  0
 20 18  2  0
M  END
$$$$
