CMA.pdb
     RDKit          3D

 20 19  0  0  1  0  0  0  0  0999 V2000
    7.3288  -16.8583   20.7601 N   0  0  0  0  0  0  0  0  0  0  0  0
    8.3753  -15.8874   20.7107 C   0  0  1  0  0  0  0  0  0  0  0  0
    7.9854  -14.8288   19.7041 C   0  0  0  0  0  0  0  0  0  0  0  0
    7.6385  -15.5999   18.1082 S   0  0  0  0  0  0  0  0  0  0  0  0
    8.6404  -15.2466   22.0200 C   0  0  0  0  0  0  0  0  0  0  0  0
    9.5760  -14.3961   22.1331 O   0  0  0  0  0  0  0  0  0  0  0  0
    8.0353  -11.5570   27.2158 C   0  0  0  0  0  0  0  0  0  0  0  0
    6.7251  -12.3587   26.2499 S   0  0  0  0  0  0  0  0  0  0  0  0
    6.8933  -14.1776   26.5118 C   0  0  0  0  0  0  0  0  0  0  0  0
    6.8428  -14.8587   25.1789 C   0  0  0  0  0  0  0  0  0  0  0  0
    8.1538  -14.8780   24.4569 C   0  0  2  0  0  0  0  0  0  0  0  0
    7.8841  -15.5489   23.1593 N   0  0  0  0  0  0  0  0  0  0  0  0
    9.1711  -15.6612   25.1761 C   0  0  0  0  0  0  0  0  0  0  0  0
    9.7162  -15.1465   26.1938 O   0  0  0  0  0  0  0  0  0  0  0  0
   11.9921  -17.1360   25.3466 C   0  0  0  0  0  0  0  0  0  0  0  0
   10.6071  -17.7071   25.5441 C   0  0  2  0  0  0  0  0  0  0  0  0
    9.5986  -16.9681   24.8250 N   0  0  0  0  0  0  0  0  0  0  0  0
   10.2935  -17.8553   26.9850 C   0  0  0  0  0  0  0  0  0  0  0  0
   11.1265  -18.5696   27.8319 O   0  0  0  0  0  0  0  0  0  0  0  0
    9.2668  -17.3440   27.4968 O   0  0  0  0  0  0  0  0  0  0  0  0
  2  1  1  1
  2  3  1  0
  3  4  1  0
  5  6  2  0
  5  2  1  0
  8  9  1  0
  8  7  1  0
  9 10  1  0
 11 10  1  1
 11 12  1  0
 11 13  1  0
 12  5  1  0
 13 14  2  0
 16 15  1  1
 17 13  1  0
 17 16  1  0
 18 19  1  0
 18 16  1  0
 20 18  2  0
M  END
$$$$
