CMA.pdb
     RDKit          3D

 20 19  0  0  1  0  0  0  0  0999 V2000
    7.7705  -17.5637   21.3668 N   0  0  0  0  0  0  0  0  0  0  0  0
    8.9088  -16.7262   21.1596 C   0  0  1  0  0  0  0  0  0  0  0  0
    8.6644  -15.9021   19.9159 C   0  0  0  0  0  0  0  0  0  0  0  0
    7.5435  -16.7838   18.8079 S   0  0  0  0  0  0  0  0  0  0  0  0
    9.1854  -15.8230   22.3011 C   0  0  0  0  0  0  0  0  0  0  0  0
   10.2976  -15.2155   22.3755 O   0  0  0  0  0  0  0  0  0  0  0  0
    6.4306  -10.8903   27.5633 C   0  0  0  0  0  0  0  0  0  0  0  0
    6.0627  -12.1421   26.3024 S   0  0  0  0  0  0  0  0  0  0  0  0
    7.5882  -13.1571   26.0840 C   0  0  0  0  0  0  0  0  0  0  0  0
    7.4696  -13.9283   24.8055 C   0  0  0  0  0  0  0  0  0  0  0  0
    8.6138  -14.8587   24.5493 C   0  0  2  0  0  0  0  0  0  0  0  0
    8.2492  -15.6095   23.3205 N   0  0  0  0  0  0  0  0  0  0  0  0
    8.7960  -15.8272   25.6422 C   0  0  0  0  0  0  0  0  0  0  0  0
    9.0733  -15.3870   26.7942 O   0  0  0  0  0  0  0  0  0  0  0  0
    8.0518  -19.4611   26.3422 C   0  0  0  0  0  0  0  0  0  0  0  0
    8.7539  -18.1535   26.6267 C   0  0  2  0  0  0  0  0  0  0  0  0
    8.6812  -17.2360   25.5162 N   0  0  0  0  0  0  0  0  0  0  0  0
   10.1421  -18.3855   27.0911 C   0  0  0  0  0  0  0  0  0  0  0  0
   10.4025  -19.1060   28.2462 O   0  0  0  0  0  0  0  0  0  0  0  0
   11.1350  -17.9420   26.4627 O   0  0  0  0  0  0  0  0  0  0  0  0
  2  1  1  1
  2  3  1  0
  3  4  1  0
  5  6  2  0
  5  2  1  0
  8  9  1  0
  8  7  1  0
  9 10  1  0
 11 10  1  1
 11 12  1  0
 11 13  1  0
 12  5  1  0
 13 14  2  0
 16 15  1  6
 17 13  1  0
 17 16  1  0
 18 19  1  0
 18 16  1  0
 20 18  2  0
M  END
$$$$
