CMA.pdb
     RDKit          3D

 20 19  0  0  1  0  0  0  0  0999 V2000
    7.5832  -17.5654   20.7948 N   0  0  0  0  0  0  0  0  0  0  0  0
    8.8698  -16.9712   20.6165 C   0  0  1  0  0  0  0  0  0  0  0  0
    8.8644  -16.2278   19.3000 C   0  0  0  0  0  0  0  0  0  0  0  0
    7.7227  -17.0263   18.1509 S   0  0  0  0  0  0  0  0  0  0  0  0
    9.2385  -16.0377   21.7065 C   0  0  0  0  0  0  0  0  0  0  0  0
   10.3992  -15.5244   21.7377 O   0  0  0  0  0  0  0  0  0  0  0  0
    6.4062  -11.5841   27.4831 C   0  0  0  0  0  0  0  0  0  0  0  0
    6.1841  -12.9595   26.3206 S   0  0  0  0  0  0  0  0  0  0  0  0
    7.6273  -12.9369   25.1709 C   0  0  0  0  0  0  0  0  0  0  0  0
    7.4464  -14.0233   24.1560 C   0  0  0  0  0  0  0  0  0  0  0  0
    8.7159  -14.7223   23.7820 C   0  0  2  0  0  0  0  0  0  0  0  0
    8.3388  -15.6934   22.7230 N   0  0  0  0  0  0  0  0  0  0  0  0
    9.2884  -15.4732   24.9107 C   0  0  0  0  0  0  0  0  0  0  0  0
    9.7436  -14.8232   25.8947 O   0  0  0  0  0  0  0  0  0  0  0  0
    9.2333  -18.8623   26.4484 C   0  0  0  0  0  0  0  0  0  0  0  0
    9.9769  -17.5943   26.0981 C   0  0  2  0  0  0  0  0  0  0  0  0
    9.3721  -16.8872   24.9960 N   0  0  0  0  0  0  0  0  0  0  0  0
   11.4186  -17.8647   25.8860 C   0  0  0  0  0  0  0  0  0  0  0  0
   12.1963  -18.4369   26.8804 O   0  0  0  0  0  0  0  0  0  0  0  0
   11.9934  -17.5888   24.8038 O   0  0  0  0  0  0  0  0  0  0  0  0
  2  1  1  1
  2  3  1  0
  3  4  1  0
  5  6  2  0
  5  2  1  0
  8  9  1  0
  8  7  1  0
  9 10  1  0
 11 10  1  1
 11 12  1  0
 11 13  1  0
 12  5  1  0
 13 14  2  0
 16 15  1  6
 17 13  1  0
 17 16  1  0
 18 19  1  0
 18 16  1  0
 20 18  2  0
M  END
$$$$
