CMA.pdb
     RDKit          3D

 20 19  0  0  1  0  0  0  0  0999 V2000
    6.5727  -17.1934   20.7899 N   0  0  0  0  0  0  0  0  0  0  0  0
    7.8241  -16.5749   20.4870 C   0  0  1  0  0  0  0  0  0  0  0  0
    7.5854  -15.5329   19.4179 C   0  0  0  0  0  0  0  0  0  0  0  0
    6.5199  -14.2258   20.0642 S   0  0  0  0  0  0  0  0  0  0  0  0
    8.4600  -15.9359   21.6628 C   0  0  0  0  0  0  0  0  0  0  0  0
    9.6200  -15.4303   21.5611 O   0  0  0  0  0  0  0  0  0  0  0  0
    7.0461  -11.7458   28.0298 C   0  0  0  0  0  0  0  0  0  0  0  0
    6.4533  -12.6040   26.5450 S   0  0  0  0  0  0  0  0  0  0  0  0
    7.8164  -13.7107   25.9772 C   0  0  0  0  0  0  0  0  0  0  0  0
    7.3991  -14.3631   24.6952 C   0  0  0  0  0  0  0  0  0  0  0  0
    8.4664  -15.2024   24.0656 C   0  0  2  0  0  0  0  0  0  0  0  0
    7.8184  -15.8669   22.9057 N   0  0  0  0  0  0  0  0  0  0  0  0
    8.9594  -16.2475   24.9769 C   0  0  0  0  0  0  0  0  0  0  0  0
    8.1127  -16.9745   25.5704 O   0  0  0  0  0  0  0  0  0  0  0  0
   12.2146  -17.9861   25.8049 C   0  0  0  0  0  0  0  0  0  0  0  0
   10.7805  -17.6020   26.0867 C   0  0  2  0  0  0  0  0  0  0  0  0
   10.3253  -16.5193   25.2496 N   0  0  0  0  0  0  0  0  0  0  0  0
   10.5746  -17.3383   27.5305 C   0  0  0  0  0  0  0  0  0  0  0  0
   10.2854  -16.0644   27.9943 O   0  0  0  0  0  0  0  0  0  0  0  0
   10.6531  -18.2510   28.3898 O   0  0  0  0  0  0  0  0  0  0  0  0
  2  1  1  1
  2  3  1  0
  3  4  1  0
  5  6  2  0
  5  2  1  0
  8  9  1  0
  8  7  1  0
  9 10  1  0
 11 10  1  1
 11 12  1  0
 11 13  1  0
 12  5  1  0
 13 14  2  0
 16 15  1  1
 17 13  1  0
 17 16  1  0
 18 19  1  0
 18 16  1  0
 20 18  2  0
M  END
$$$$
