CMA.pdb
     RDKit          3D

 20 19  0  0  1  0  0  0  0  0999 V2000
   10.4344  -16.5485   20.0607 N   0  0  0  0  0  0  0  0  0  0  0  0
    9.9460  -17.0911   21.2884 C   0  0  1  0  0  0  0  0  0  0  0  0
   10.7333  -18.3456   21.5925 C   0  0  0  0  0  0  0  0  0  0  0  0
   10.1086  -19.1084   23.1056 S   0  0  0  0  0  0  0  0  0  0  0  0
   10.0588  -16.1516   22.4285 C   0  0  0  0  0  0  0  0  0  0  0  0
   11.1150  -15.4646   22.5834 O   0  0  0  0  0  0  0  0  0  0  0  0
    5.5630  -11.7376   27.0727 C   0  0  0  0  0  0  0  0  0  0  0  0
    5.7086  -13.0405   25.8183 S   0  0  0  0  0  0  0  0  0  0  0  0
    7.4980  -13.4726   25.6897 C   0  0  0  0  0  0  0  0  0  0  0  0
    7.6650  -14.4994   24.6122 C   0  0  0  0  0  0  0  0  0  0  0  0
    9.0840  -14.9202   24.3892 C   0  0  2  0  0  0  0  0  0  0  0  0
    9.0253  -15.9894   23.3596 N   0  0  0  0  0  0  0  0  0  0  0  0
    9.6919  -15.4856   25.6043 C   0  0  0  0  0  0  0  0  0  0  0  0
    9.6632  -16.7395   25.7620 O   0  0  0  0  0  0  0  0  0  0  0  0
   11.2784  -14.2608   28.8419 C   0  0  0  0  0  0  0  0  0  0  0  0
   10.8454  -15.3109   27.8452 C   0  0  2  0  0  0  0  0  0  0  0  0
   10.3227  -14.7353   26.6304 N   0  0  0  0  0  0  0  0  0  0  0  0
    9.9158  -16.2832   28.4672 C   0  0  0  0  0  0  0  0  0  0  0  0
   10.3651  -17.2236   29.3810 O   0  0  0  0  0  0  0  0  0  0  0  0
    8.6897  -16.2969   28.1948 O   0  0  0  0  0  0  0  0  0  0  0  0
  2  1  1  6
  2  3  1  0
  3  4  1  0
  5  6  2  0
  5  2  1  0
  8  9  1  0
  8  7  1  0
  9 10  1  0
 11 10  1  1
 11 12  1  0
 11 13  1  0
 12  5  1  0
 13 14  2  0
 16 15  1  1
 17 13  1  0
 17 16  1  0
 18 19  1  0
 18 16  1  0
 20 18  2  0
M  END
$$$$
