CMA.pdb
     RDKit          3D

 20 19  0  0  1  0  0  0  0  0999 V2000
    9.0748  -16.2787   19.2168 N   0  0  0  0  0  0  0  0  0  0  0  0
    8.1633  -16.2927   20.3164 C   0  0  1  0  0  0  0  0  0  0  0  0
    7.8017  -17.7316   20.6073 C   0  0  0  0  0  0  0  0  0  0  0  0
    6.5160  -18.2825   19.4648 S   0  0  0  0  0  0  0  0  0  0  0  0
    8.7152  -15.6675   21.5411 C   0  0  0  0  0  0  0  0  0  0  0  0
    9.9560  -15.4110   21.6194 O   0  0  0  0  0  0  0  0  0  0  0  0
    6.5564  -11.5890   27.9165 C   0  0  0  0  0  0  0  0  0  0  0  0
    6.0701  -12.5477   26.4548 S   0  0  0  0  0  0  0  0  0  0  0  0
    7.5946  -13.3614   25.8075 C   0  0  0  0  0  0  0  0  0  0  0  0
    7.2657  -14.0250   24.5057 C   0  0  0  0  0  0  0  0  0  0  0  0
    8.4539  -14.5998   23.8000 C   0  0  2  0  0  0  0  0  0  0  0  0
    7.9052  -15.3424   22.6363 N   0  0  0  0  0  0  0  0  0  0  0  0
    9.1934  -15.5513   24.6447 C   0  0  0  0  0  0  0  0  0  0  0  0
    9.7554  -15.1152   25.6896 O   0  0  0  0  0  0  0  0  0  0  0  0
   11.2041  -18.5201   24.5339 C   0  0  0  0  0  0  0  0  0  0  0  0
   10.0496  -17.8515   25.2437 C   0  0  2  0  0  0  0  0  0  0  0  0
    9.3299  -16.9404   24.3882 N   0  0  0  0  0  0  0  0  0  0  0  0
   10.4964  -17.2213   26.5085 C   0  0  0  0  0  0  0  0  0  0  0  0
   11.3570  -16.1347   26.5052 O   0  0  0  0  0  0  0  0  0  0  0  0
   10.1173  -17.6418   27.6297 O   0  0  0  0  0  0  0  0  0  0  0  0
  2  1  1  6
  2  3  1  0
  3  4  1  0
  5  6  2  0
  5  2  1  0
  8  9  1  0
  8  7  1  0
  9 10  1  0
 11 10  1  1
 11 12  1  0
 11 13  1  0
 12  5  1  0
 13 14  2  0
 16 15  1  6
 17 13  1  0
 17 16  1  0
 18 19  1  0
 18 16  1  0
 20 18  2  0
M  END
$$$$
