NGY.pdb
     RDKit          3D

 25 25  0  0  1  0  0  0  0  0999 V2000
    4.8222  -21.2172   22.4447 N   0  0  0  0  0  0  0  0  0  0  0  0
    5.3086  -20.6610   23.6530 C   0  0  0  0  0  0  0  0  0  0  0  0
    5.2106  -21.3197   24.7178 O   0  0  0  0  0  0  0  0  0  0  0  0
    5.9194  -19.3223   23.6387 C   0  0  0  0  0  0  0  0  0  0  0  0
    5.7542  -18.6323   22.3007 C   0  0  2  0  0  0  0  0  0  0  0  0
    6.4072  -19.3549   21.2445 N   0  0  0  0  0  0  0  0  0  0  0  0
    6.3673  -17.2918   22.4221 C   0  0  0  0  0  0  0  0  0  0  0  0
    5.8127  -16.4435   23.1712 O   0  0  0  0  0  0  0  0  0  0  0  0
    7.5454  -16.9779   21.7127 N   0  0  0  0  0  0  0  0  0  0  0  0
    8.1304  -15.6660   21.7567 C   0  0  0  0  0  0  0  0  0  0  0  0
    8.7865  -15.4150   23.0616 C   0  0  0  0  0  0  0  0  0  0  0  0
    9.5419  -14.3881   23.1931 O   0  0  0  0  0  0  0  0  0  0  0  0
    5.4248  -11.0195   26.3558 O   0  0  0  0  0  0  0  0  0  0  0  0
    6.1483  -12.2064   26.4100 C   0  0  0  0  0  0  0  0  0  0  0  0
    5.6505  -13.3521   25.8307 C   0  0  0  0  0  0  0  0  0  0  0  0
    6.3241  -14.5498   25.8554 C   0  0  0  0  0  0  0  0  0  0  0  0
    7.5536  -14.6595   26.4744 C   0  0  0  0  0  0  0  0  0  0  0  0
    8.3531  -15.8734   26.5626 C   0  0  0  0  0  0  0  0  0  0  0  0
    9.3699  -15.9107   25.4475 C   0  0  2  0  0  0  0  0  0  0  0  0
    8.6625  -16.2091   24.2129 N   0  0  0  0  0  0  0  0  0  0  0  0
   10.4422  -16.8556   25.7200 C   0  0  0  0  0  0  0  0  0  0  0  0
   11.2531  -16.7324   26.8236 O   0  0  0  0  0  0  0  0  0  0  0  0
    8.0539  -13.5002   27.0587 C   0  0  0  0  0  0  0  0  0  0  0  0
    7.3709  -12.3035   27.0287 C   0  0  0  0  0  0  0  0  0  0  0  0
   10.6525  -17.8156   24.9384 O   0  0  0  0  0  0  0  0  0  0  0  0
  1  2  1  0
  2  3  2  0
  4  5  1  0
  4  2  1  0
  5  6  1  6
  7  5  1  0
  8  7  2  0
  9  7  1  0
 10 11  1  0
 10  9  1  0
 11 20  1  0
 12 11  2  0
 14 15  2  0
 14 13  1  0
 16 15  1  0
 17 16  2  0
 18 17  1  0
 19 18  1  1
 20 19  1  0
 21 19  1  0
 21 22  1  0
 23 17  1  0
 23 24  2  0
 24 14  1  0
 25 21  2  0
M  END
$$$$
