NGY.pdb
     RDKit          3D

 25 25  0  0  1  0  0  0  0  0999 V2000
    4.7937  -19.4901   18.3237 N   0  0  0  0  0  0  0  0  0  0  0  0
    5.7727  -19.4173   19.3446 C   0  0  0  0  0  0  0  0  0  0  0  0
    6.2825  -20.4768   19.7860 O   0  0  0  0  0  0  0  0  0  0  0  0
    6.1745  -18.1024   19.8688 C   0  0  0  0  0  0  0  0  0  0  0  0
    7.6779  -17.9188   19.8623 C   0  0  2  0  0  0  0  0  0  0  0  0
    8.3210  -18.7566   20.8364 N   0  0  0  0  0  0  0  0  0  0  0  0
    7.9460  -16.5015   20.1891 C   0  0  0  0  0  0  0  0  0  0  0  0
    7.5298  -15.6136   19.3975 O   0  0  0  0  0  0  0  0  0  0  0  0
    8.6520  -16.1596   21.3615 N   0  0  0  0  0  0  0  0  0  0  0  0
    8.8714  -14.7916   21.7430 C   0  0  0  0  0  0  0  0  0  0  0  0
    9.6105  -14.7043   23.0245 C   0  0  0  0  0  0  0  0  0  0  0  0
    9.8706  -13.5504   23.5177 O   0  0  0  0  0  0  0  0  0  0  0  0
    6.1131  -10.9752   26.9243 O   0  0  0  0  0  0  0  0  0  0  0  0
    6.6401  -12.2035   26.5390 C   0  0  0  0  0  0  0  0  0  0  0  0
    7.8438  -12.6356   27.0495 C   0  0  0  0  0  0  0  0  0  0  0  0
    8.4084  -13.8395   26.7024 C   0  0  0  0  0  0  0  0  0  0  0  0
    7.7817  -14.6857   25.8092 C   0  0  0  0  0  0  0  0  0  0  0  0
    8.2862  -15.9792   25.3698 C   0  0  0  0  0  0  0  0  0  0  0  0
    9.7858  -15.9258   25.2053 C   0  0  2  0  0  0  0  0  0  0  0  0
   10.0711  -15.7902   23.7862 N   0  0  0  0  0  0  0  0  0  0  0  0
   10.4401  -17.0816   25.7994 C   0  0  0  0  0  0  0  0  0  0  0  0
   10.6469  -17.1795   27.1552 O   0  0  0  0  0  0  0  0  0  0  0  0
    6.5657  -14.2464   25.2952 C   0  0  0  0  0  0  0  0  0  0  0  0
    6.0073  -13.0373   25.6493 C   0  0  0  0  0  0  0  0  0  0  0  0
   10.8370  -18.0258   25.0729 O   0  0  0  0  0  0  0  0  0  0  0  0
  1  2  1  0
  2  3  2  0
  4  5  1  0
  4  2  1  0
  5  6  1  1
  7  5  1  0
  8  7  2  0
  9  7  1  0
 10 11  1  0
 10  9  1  0
 11 20  1  0
 12 11  2  0
 14 15  2  0
 14 13  1  0
 16 15  1  0
 17 16  2  0
 18 17  1  0
 19 18  1  6
 20 19  1  0
 21 19  1  0
 21 22  1  0
 23 17  1  0
 23 24  2  0
 24 14  1  0
 25 21  2  0
M  END
$$$$
