NGY.pdb
     RDKit          3D

 25 25  0  0  1  0  0  0  0  0999 V2000
    8.0094  -12.4236   18.0452 N   0  0  0  0  0  0  0  0  0  0  0  0
    8.7027  -13.6534   18.1582 C   0  0  0  0  0  0  0  0  0  0  0  0
    9.0739  -14.2494   17.1168 O   0  0  0  0  0  0  0  0  0  0  0  0
    8.9754  -14.2100   19.4927 C   0  0  0  0  0  0  0  0  0  0  0  0
    8.2397  -15.5123   19.7308 C   0  0  2  0  0  0  0  0  0  0  0  0
    6.8146  -15.3321   19.7013 N   0  0  0  0  0  0  0  0  0  0  0  0
    8.6390  -16.0011   21.0684 C   0  0  0  0  0  0  0  0  0  0  0  0
    9.8456  -16.3114   21.2588 O   0  0  0  0  0  0  0  0  0  0  0  0
    7.6856  -16.1145   22.1018 N   0  0  0  0  0  0  0  0  0  0  0  0
    7.8799  -16.9965   23.2196 C   0  0  0  0  0  0  0  0  0  0  0  0
    8.7556  -16.3793   24.2436 C   0  0  0  0  0  0  0  0  0  0  0  0
    9.7825  -15.7117   23.8663 O   0  0  0  0  0  0  0  0  0  0  0  0
    5.3911  -11.2407   25.4502 O   0  0  0  0  0  0  0  0  0  0  0  0
    6.2188  -12.2172   25.9945 C   0  0  0  0  0  0  0  0  0  0  0  0
    7.5450  -11.9446   26.2459 C   0  0  0  0  0  0  0  0  0  0  0  0
    8.4052  -12.8726   26.7822 C   0  0  0  0  0  0  0  0  0  0  0  0
    7.9694  -14.1441   27.0988 C   0  0  0  0  0  0  0  0  0  0  0  0
    8.7896  -15.2042   27.6681 C   0  0  0  0  0  0  0  0  0  0  0  0
    9.5467  -15.9212   26.5766 C   0  0  2  0  0  0  0  0  0  0  0  0
    8.5728  -16.4472   25.6341 N   0  0  0  0  0  0  0  0  0  0  0  0
   10.4231  -16.9531   27.1095 C   0  0  0  0  0  0  0  0  0  0  0  0
   10.2755  -18.2766   26.7672 O   0  0  0  0  0  0  0  0  0  0  0  0
    6.6290  -14.4164   26.8437 C   0  0  0  0  0  0  0  0  0  0  0  0
    5.7739  -13.4791   26.3056 C   0  0  0  0  0  0  0  0  0  0  0  0
   11.3443  -16.6499   27.9073 O   0  0  0  0  0  0  0  0  0  0  0  0
  1  2  1  0
  2  3  2  0
  4  5  1  0
  4  2  1  0
  5  6  1  1
  7  5  1  0
  8  7  2  0
  9  7  1  0
 10 11  1  0
 10  9  1  0
 11 20  1  0
 12 11  2  0
 14 15  2  0
 14 13  1  0
 16 15  1  0
 17 16  2  0
 18 17  1  0
 19 18  1  1
 20 19  1  0
 21 19  1  0
 21 22  1  0
 23 17  1  0
 23 24  2  0
 24 14  1  0
 25 21  2  0
M  END
$$$$
