NGY.pdb
     RDKit          3D

 25 25  0  0  1  0  0  0  0  0999 V2000
    8.8210  -19.7427   15.8328 N   0  0  0  0  0  0  0  0  0  0  0  0
    9.5651  -18.7433   16.5061 C   0  0  0  0  0  0  0  0  0  0  0  0
   10.7722  -18.5676   16.2072 O   0  0  0  0  0  0  0  0  0  0  0  0
    8.9108  -17.9296   17.5429 C   0  0  0  0  0  0  0  0  0  0  0  0
    9.7273  -17.8610   18.8166 C   0  0  2  0  0  0  0  0  0  0  0  0
    9.6888  -19.1010   19.5414 N   0  0  0  0  0  0  0  0  0  0  0  0
    9.1415  -16.7917   19.6538 C   0  0  0  0  0  0  0  0  0  0  0  0
    9.2398  -15.5986   19.2596 O   0  0  0  0  0  0  0  0  0  0  0  0
    8.4895  -17.1079   20.8640 N   0  0  0  0  0  0  0  0  0  0  0  0
    7.9647  -16.0893   21.7314 C   0  0  0  0  0  0  0  0  0  0  0  0
    8.7957  -15.9423   22.9497 C   0  0  0  0  0  0  0  0  0  0  0  0
    9.9469  -15.3867   22.8567 O   0  0  0  0  0  0  0  0  0  0  0  0
    5.9695  -10.7608   26.0784 O   0  0  0  0  0  0  0  0  0  0  0  0
    6.5693  -12.0096   26.2039 C   0  0  0  0  0  0  0  0  0  0  0  0
    5.8348  -13.1576   26.0069 C   0  0  0  0  0  0  0  0  0  0  0  0
    6.3780  -14.4150   26.1185 C   0  0  0  0  0  0  0  0  0  0  0  0
    7.7101  -14.5864   26.4395 C   0  0  0  0  0  0  0  0  0  0  0  0
    8.3892  -15.8663   26.5851 C   0  0  0  0  0  0  0  0  0  0  0  0
    9.2900  -16.1169   25.4000 C   0  0  2  0  0  0  0  0  0  0  0  0
    8.4431  -16.3588   24.2434 N   0  0  0  0  0  0  0  0  0  0  0  0
   10.2241  -17.2047   25.6465 C   0  0  0  0  0  0  0  0  0  0  0  0
   11.2513  -17.0861   26.5529 O   0  0  0  0  0  0  0  0  0  0  0  0
    8.4495  -13.4247   26.6380 C   0  0  0  0  0  0  0  0  0  0  0  0
    7.8959  -12.1678   26.5237 C   0  0  0  0  0  0  0  0  0  0  0  0
   10.1095  -18.2894   25.0243 O   0  0  0  0  0  0  0  0  0  0  0  0
  1  2  1  0
  2  3  2  0
  4  5  1  0
  4  2  1  0
  5  6  1  1
  7  5  1  0
  8  7  2  0
  9  7  1  0
 10 11  1  0
 10  9  1  0
 11 20  1  0
 12 11  2  0
 14 15  2  0
 14 13  1  0
 16 15  1  0
 17 16  2  0
 18 17  1  0
 19 18  1  1
 20 19  1  0
 21 19  1  0
 21 22  1  0
 23 17  1  0
 23 24  2  0
 24 14  1  0
 25 21  2  0
M  END
$$$$
