NGY.pdb
     RDKit          3D

 25 25  0  0  1  0  0  0  0  0999 V2000
    7.5747  -12.9206   15.4789 N   0  0  0  0  0  0  0  0  0  0  0  0
    8.1968  -14.1474   15.1413 C   0  0  0  0  0  0  0  0  0  0  0  0
    8.5921  -14.3343   13.9640 O   0  0  0  0  0  0  0  0  0  0  0  0
    8.3686  -15.1798   16.1756 C   0  0  0  0  0  0  0  0  0  0  0  0
    7.6741  -14.8136   17.4707 C   0  0  2  0  0  0  0  0  0  0  0  0
    8.1540  -13.5663   17.9983 N   0  0  0  0  0  0  0  0  0  0  0  0
    7.9613  -15.8927   18.4405 C   0  0  0  0  0  0  0  0  0  0  0  0
    7.5636  -17.0591   18.1762 O   0  0  0  0  0  0  0  0  0  0  0  0
    8.6644  -15.6149   19.6314 N   0  0  0  0  0  0  0  0  0  0  0  0
    9.0455  -16.6546   20.5473 C   0  0  0  0  0  0  0  0  0  0  0  0
    9.8244  -16.1089   21.6838 C   0  0  0  0  0  0  0  0  0  0  0  0
   10.7322  -15.2335   21.4552 O   0  0  0  0  0  0  0  0  0  0  0  0
    6.0577  -11.0296   27.2476 O   0  0  0  0  0  0  0  0  0  0  0  0
    6.5184  -11.9745   26.3366 C   0  0  0  0  0  0  0  0  0  0  0  0
    6.0782  -13.2776   26.4026 C   0  0  0  0  0  0  0  0  0  0  0  0
    6.5012  -14.2495   25.5279 C   0  0  0  0  0  0  0  0  0  0  0  0
    7.4039  -13.9569   24.5247 C   0  0  0  0  0  0  0  0  0  0  0  0
    7.9204  -14.9038   23.5463 C   0  0  0  0  0  0  0  0  0  0  0  0
    9.2118  -15.5107   24.0388 C   0  0  2  0  0  0  0  0  0  0  0  0
    9.6670  -16.4584   23.0346 N   0  0  0  0  0  0  0  0  0  0  0  0
    9.0620  -16.1171   25.3528 C   0  0  0  0  0  0  0  0  0  0  0  0
    9.6631  -15.5848   26.4690 O   0  0  0  0  0  0  0  0  0  0  0  0
    7.8468  -12.6395   24.4606 C   0  0  0  0  0  0  0  0  0  0  0  0
    7.4167  -11.6716   25.3424 C   0  0  0  0  0  0  0  0  0  0  0  0
    8.3716  -17.1565   25.4942 O   0  0  0  0  0  0  0  0  0  0  0  0
  1  2  1  0
  2  3  2  0
  4  5  1  0
  4  2  1  0
  5  6  1  1
  7  5  1  0
  8  7  2  0
  9  7  1  0
 10 11  1  0
 10  9  1  0
 11 20  1  0
 12 11  2  0
 14 15  2  0
 14 13  1  0
 16 15  1  0
 17 16  2  0
 18 17  1  0
 19 18  1  6
 20 19  1  0
 21 19  1  0
 21 22  1  0
 23 17  1  0
 23 24  2  0
 24 14  1  0
 25 21  2  0
M  END
$$$$
