NGY.pdb
     RDKit          3D

 25 25  0  0  1  0  0  0  0  0999 V2000
    6.4317  -19.6568   18.6504 N   0  0  0  0  0  0  0  0  0  0  0  0
    6.1001  -18.2814   18.7138 C   0  0  0  0  0  0  0  0  0  0  0  0
    5.0611  -17.8710   18.1400 O   0  0  0  0  0  0  0  0  0  0  0  0
    6.9785  -17.3588   19.4504 C   0  0  0  0  0  0  0  0  0  0  0  0
    8.1973  -18.0580   20.0157 C   0  0  2  0  0  0  0  0  0  0  0  0
    7.8660  -18.8686   21.1548 N   0  0  0  0  0  0  0  0  0  0  0  0
    9.1511  -17.0062   20.4300 C   0  0  0  0  0  0  0  0  0  0  0  0
    9.7474  -16.3498   19.5345 O   0  0  0  0  0  0  0  0  0  0  0  0
    9.3824  -16.7497   21.7976 N   0  0  0  0  0  0  0  0  0  0  0  0
   10.3165  -15.7486   22.2341 C   0  0  0  0  0  0  0  0  0  0  0  0
   10.3859  -15.6888   23.7133 C   0  0  0  0  0  0  0  0  0  0  0  0
   11.2460  -14.9168   24.2670 O   0  0  0  0  0  0  0  0  0  0  0  0
    5.9998  -11.2810   25.8775 O   0  0  0  0  0  0  0  0  0  0  0  0
    6.5942  -12.5226   26.0777 C   0  0  0  0  0  0  0  0  0  0  0  0
    7.6551  -12.6547   26.9456 C   0  0  0  0  0  0  0  0  0  0  0  0
    8.2779  -13.8572   27.1796 C   0  0  0  0  0  0  0  0  0  0  0  0
    7.8594  -15.0086   26.5423 C   0  0  0  0  0  0  0  0  0  0  0  0
    8.4435  -16.3317   26.7122 C   0  0  0  0  0  0  0  0  0  0  0  0
    9.7956  -16.3949   26.0439 C   0  0  2  0  0  0  0  0  0  0  0  0
    9.5787  -16.4114   24.6064 N   0  0  0  0  0  0  0  0  0  0  0  0
   10.5779  -17.5318   26.5045 C   0  0  0  0  0  0  0  0  0  0  0  0
   11.0385  -18.4936   25.6365 O   0  0  0  0  0  0  0  0  0  0  0  0
    6.7874  -14.8719   25.6661 C   0  0  0  0  0  0  0  0  0  0  0  0
    6.1691  -13.6615   25.4380 C   0  0  0  0  0  0  0  0  0  0  0  0
   10.8496  -17.6596   27.7239 O   0  0  0  0  0  0  0  0  0  0  0  0
  1  2  1  0
  2  3  2  0
  4  5  1  0
  4  2  1  0
  5  6  1  1
  7  5  1  0
  8  7  2  0
  9  7  1  0
 10 11  1  0
 10  9  1  0
 11 20  1  0
 12 11  2  0
 14 15  2  0
 14 13  1  0
 16 15  1  0
 17 16  2  0
 18 17  1  0
 19 18  1  1
 20 19  1  0
 21 19  1  0
 21 22  1  0
 23 17  1  0
 23 24  2  0
 24 14  1  0
 25 21  2  0
M  END
$$$$
