NGY.pdb
     RDKit          3D

 25 25  0  0  1  0  0  0  0  0999 V2000
    7.3369  -12.9546   17.0074 N   0  0  0  0  0  0  0  0  0  0  0  0
    8.0177  -14.1165   17.4462 C   0  0  0  0  0  0  0  0  0  0  0  0
    7.9309  -15.1728   16.7725 O   0  0  0  0  0  0  0  0  0  0  0  0
    8.8138  -14.0647   18.6826 C   0  0  0  0  0  0  0  0  0  0  0  0
    8.9426  -15.4242   19.3376 C   0  0  2  0  0  0  0  0  0  0  0  0
    7.7003  -15.8571   19.9152 N   0  0  0  0  0  0  0  0  0  0  0  0
    9.9569  -15.2994   20.4068 C   0  0  0  0  0  0  0  0  0  0  0  0
   11.1062  -14.8842   20.0987 O   0  0  0  0  0  0  0  0  0  0  0  0
    9.6374  -15.6391   21.7381 N   0  0  0  0  0  0  0  0  0  0  0  0
   10.6092  -15.5637   22.7941 C   0  0  0  0  0  0  0  0  0  0  0  0
   10.0123  -15.9334   24.0993 C   0  0  0  0  0  0  0  0  0  0  0  0
   10.7524  -15.9363   25.1456 O   0  0  0  0  0  0  0  0  0  0  0  0
    7.1046  -10.6808   26.7956 O   0  0  0  0  0  0  0  0  0  0  0  0
    7.0336  -12.0477   26.5477 C   0  0  0  0  0  0  0  0  0  0  0  0
    5.8837  -12.7486   26.8351 C   0  0  0  0  0  0  0  0  0  0  0  0
    5.7609  -14.0987   26.6098 C   0  0  0  0  0  0  0  0  0  0  0  0
    6.8054  -14.8264   26.0749 C   0  0  0  0  0  0  0  0  0  0  0  0
    6.7877  -16.2557   25.7960 C   0  0  0  0  0  0  0  0  0  0  0  0
    8.1951  -16.7683   25.6091 C   0  0  2  0  0  0  0  0  0  0  0  0
    8.6729  -16.2912   24.3216 N   0  0  0  0  0  0  0  0  0  0  0  0
    8.2677  -18.2163   25.7310 C   0  0  0  0  0  0  0  0  0  0  0  0
    8.6858  -19.0108   24.6895 O   0  0  0  0  0  0  0  0  0  0  0  0
    7.9659  -14.1156   25.7855 C   0  0  0  0  0  0  0  0  0  0  0  0
    8.0795  -12.7614   26.0150 C   0  0  0  0  0  0  0  0  0  0  0  0
    7.9423  -18.7772   26.8063 O   0  0  0  0  0  0  0  0  0  0  0  0
  1  2  1  0
  2  3  2  0
  4  5  1  0
  4  2  1  0
  5  6  1  1
  7  5  1  0
  8  7  2  0
  9  7  1  0
 10 11  1  0
 10  9  1  0
 11 20  1  0
 12 11  2  0
 14 15  2  0
 14 13  1  0
 16 15  1  0
 17 16  2  0
 18 17  1  0
 19 18  1  6
 20 19  1  0
 21 19  1  0
 21 22  1  0
 23 17  1  0
 23 24  2  0
 24 14  1  0
 25 21  2  0
M  END
$$$$
