NGY.pdb
     RDKit          3D

 25 25  0  0  1  0  0  0  0  0999 V2000
    6.8929  -19.8135   18.1952 N   0  0  0  0  0  0  0  0  0  0  0  0
    6.4918  -18.4716   17.9841 C   0  0  0  0  0  0  0  0  0  0  0  0
    5.6931  -18.2067   17.0518 O   0  0  0  0  0  0  0  0  0  0  0  0
    7.0179  -17.4131   18.8605 C   0  0  0  0  0  0  0  0  0  0  0  0
    7.8848  -17.9683   19.9713 C   0  0  2  0  0  0  0  0  0  0  0  0
    7.1038  -18.3568   21.1130 N   0  0  0  0  0  0  0  0  0  0  0  0
    8.8245  -16.8974   20.3685 C   0  0  0  0  0  0  0  0  0  0  0  0
    9.9500  -16.8462   19.8037 O   0  0  0  0  0  0  0  0  0  0  0  0
    8.4619  -15.9589   21.3572 N   0  0  0  0  0  0  0  0  0  0  0  0
    9.3685  -14.9359   21.8007 C   0  0  0  0  0  0  0  0  0  0  0  0
    9.7241  -15.1167   23.2280 C   0  0  0  0  0  0  0  0  0  0  0  0
   10.6405  -14.3820   23.7408 O   0  0  0  0  0  0  0  0  0  0  0  0
    6.5700  -10.8550   26.8282 O   0  0  0  0  0  0  0  0  0  0  0  0
    7.0345  -12.1622   26.7260 C   0  0  0  0  0  0  0  0  0  0  0  0
    6.3279  -13.0976   26.0036 C   0  0  0  0  0  0  0  0  0  0  0  0
    6.7421  -14.4012   25.8709 C   0  0  0  0  0  0  0  0  0  0  0  0
    7.9076  -14.8395   26.4678 C   0  0  0  0  0  0  0  0  0  0  0  0
    8.4401  -16.1930   26.3958 C   0  0  0  0  0  0  0  0  0  0  0  0
    9.6296  -16.2369   25.4674 C   0  0  2  0  0  0  0  0  0  0  0  0
    9.1414  -16.0385   24.1125 N   0  0  0  0  0  0  0  0  0  0  0  0
   10.3888  -17.4694   25.6135 C   0  0  0  0  0  0  0  0  0  0  0  0
   10.6108  -18.3137   24.5511 O   0  0  0  0  0  0  0  0  0  0  0  0
    8.6193  -13.8921   27.1970 C   0  0  0  0  0  0  0  0  0  0  0  0
    8.1959  -12.5868   27.3243 C   0  0  0  0  0  0  0  0  0  0  0  0
   10.8614  -17.7920   26.7313 O   0  0  0  0  0  0  0  0  0  0  0  0
  1  2  1  0
  2  3  2  0
  4  5  1  0
  4  2  1  0
  5  6  1  1
  7  5  1  0
  8  7  2  0
  9  7  1  0
 10 11  1  0
 10  9  1  0
 11 20  1  0
 12 11  2  0
 14 15  2  0
 14 13  1  0
 16 15  1  0
 17 16  2  0
 18 17  1  0
 19 18  1  1
 20 19  1  0
 21 19  1  0
 21 22  1  0
 23 17  1  0
 23 24  2  0
 24 14  1  0
 25 21  2  0
M  END
$$$$
