NGY.pdb
     RDKit          3D

 25 25  0  0  1  0  0  0  0  0999 V2000
    8.4801  -12.3003   18.5843 N   0  0  0  0  0  0  0  0  0  0  0  0
    8.1681  -13.6458   18.2712 C   0  0  0  0  0  0  0  0  0  0  0  0
    8.1653  -14.0143   17.0706 O   0  0  0  0  0  0  0  0  0  0  0  0
    7.8533  -14.5870   19.3576 C   0  0  0  0  0  0  0  0  0  0  0  0
    9.0974  -15.2214   19.9436 C   0  0  2  0  0  0  0  0  0  0  0  0
    9.7986  -16.0148   18.9725 N   0  0  0  0  0  0  0  0  0  0  0  0
    8.6607  -16.0920   21.0567 C   0  0  0  0  0  0  0  0  0  0  0  0
    7.6761  -16.8563   20.8706 O   0  0  0  0  0  0  0  0  0  0  0  0
    9.3358  -16.0617   22.2949 N   0  0  0  0  0  0  0  0  0  0  0  0
    8.9602  -16.9198   23.3847 C   0  0  0  0  0  0  0  0  0  0  0  0
    9.8309  -16.7010   24.5639 C   0  0  0  0  0  0  0  0  0  0  0  0
   10.9825  -17.2621   24.6021 O   0  0  0  0  0  0  0  0  0  0  0  0
    5.2348  -12.0566   27.4548 O   0  0  0  0  0  0  0  0  0  0  0  0
    6.5280  -12.5510   27.3193 C   0  0  0  0  0  0  0  0  0  0  0  0
    6.8980  -13.2293   26.1795 C   0  0  0  0  0  0  0  0  0  0  0  0
    8.1614  -13.7378   25.9951 C   0  0  0  0  0  0  0  0  0  0  0  0
    9.1346  -13.5881   26.9633 C   0  0  0  0  0  0  0  0  0  0  0  0
   10.5008  -14.0847   26.8760 C   0  0  0  0  0  0  0  0  0  0  0  0
   10.5009  -15.5845   26.7047 C   0  0  2  0  0  0  0  0  0  0  0  0
    9.5195  -15.9136   25.6839 N   0  0  0  0  0  0  0  0  0  0  0  0
   10.2547  -16.2759   27.9609 C   0  0  0  0  0  0  0  0  0  0  0  0
    9.2115  -17.1592   28.1092 O   0  0  0  0  0  0  0  0  0  0  0  0
    8.7577  -12.9024   28.1137 C   0  0  0  0  0  0  0  0  0  0  0  0
    7.4880  -12.3960   28.2895 C   0  0  0  0  0  0  0  0  0  0  0  0
   11.0011  -16.0738   28.9504 O   0  0  0  0  0  0  0  0  0  0  0  0
  1  2  1  0
  2  3  2  0
  4  5  1  0
  4  2  1  0
  5  6  1  6
  7  5  1  0
  8  7  2  0
  9  7  1  0
 10 11  1  0
 10  9  1  0
 11 20  1  0
 12 11  2  0
 14 15  2  0
 14 13  1  0
 16 15  1  0
 17 16  2  0
 18 17  1  0
 19 18  1  1
 20 19  1  0
 21 19  1  0
 21 22  1  0
 23 17  1  0
 23 24  2  0
 24 14  1  0
 25 21  2  0
M  END
$$$$
