NGY.pdb
     RDKit          3D

 25 25  0  0  1  0  0  0  0  0999 V2000
    8.7681  -12.7329   18.4049 N   0  0  0  0  0  0  0  0  0  0  0  0
    7.8689  -13.7924   18.1311 C   0  0  0  0  0  0  0  0  0  0  0  0
    7.2839  -13.8324   17.0206 O   0  0  0  0  0  0  0  0  0  0  0  0
    7.6368  -14.8261   19.1522 C   0  0  0  0  0  0  0  0  0  0  0  0
    8.3500  -14.5168   20.4520 C   0  0  2  0  0  0  0  0  0  0  0  0
    9.7079  -14.1035   20.2292 N   0  0  0  0  0  0  0  0  0  0  0  0
    8.3468  -15.7572   21.2577 C   0  0  0  0  0  0  0  0  0  0  0  0
    7.2380  -16.2400   21.6124 O   0  0  0  0  0  0  0  0  0  0  0  0
    9.5608  -16.3794   21.6166 N   0  0  0  0  0  0  0  0  0  0  0  0
    9.5996  -17.5172   22.4935 C   0  0  0  0  0  0  0  0  0  0  0  0
    9.7626  -17.1000   23.9062 C   0  0  0  0  0  0  0  0  0  0  0  0
   10.7116  -16.2956   24.2139 O   0  0  0  0  0  0  0  0  0  0  0  0
    6.8017  -11.6426   24.2858 O   0  0  0  0  0  0  0  0  0  0  0  0
    7.0978  -12.8340   24.9399 C   0  0  0  0  0  0  0  0  0  0  0  0
    6.4836  -14.0070   24.5619 C   0  0  0  0  0  0  0  0  0  0  0  0
    6.7399  -15.2104   25.1742 C   0  0  0  0  0  0  0  0  0  0  0  0
    7.6421  -15.2983   26.2159 C   0  0  0  0  0  0  0  0  0  0  0  0
    7.9893  -16.5152   26.9364 C   0  0  0  0  0  0  0  0  0  0  0  0
    9.2430  -17.1247   26.3574 C   0  0  2  0  0  0  0  0  0  0  0  0
    8.9573  -17.5039   24.9833 N   0  0  0  0  0  0  0  0  0  0  0  0
    9.7251  -18.2407   27.1568 C   0  0  0  0  0  0  0  0  0  0  0  0
   10.2063  -18.0633   28.4326 O   0  0  0  0  0  0  0  0  0  0  0  0
    8.2610  -14.1115   26.5956 C   0  0  0  0  0  0  0  0  0  0  0  0
    7.9975  -12.9093   25.9753 C   0  0  0  0  0  0  0  0  0  0  0  0
    9.7130  -19.4056   26.6881 O   0  0  0  0  0  0  0  0  0  0  0  0
  1  2  1  0
  2  3  2  0
  4  5  1  0
  4  2  1  0
  5  6  1  6
  7  5  1  0
  8  7  2  0
  9  7  1  0
 10 11  1  0
 10  9  1  0
 11 20  1  0
 12 11  2  0
 14 15  2  0
 14 13  1  0
 16 15  1  0
 17 16  2  0
 18 17  1  0
 19 18  1  1
 20 19  1  0
 21 19  1  0
 21 22  1  0
 23 17  1  0
 23 24  2  0
 24 14  1  0
 25 21  2  0
M  END
$$$$
