NGY.pdb
     RDKit          3D

 25 25  0  0  1  0  0  0  0  0999 V2000
    8.5665  -13.3183   16.1009 N   0  0  0  0  0  0  0  0  0  0  0  0
    7.3783  -14.0469   16.3524 C   0  0  0  0  0  0  0  0  0  0  0  0
    6.5687  -14.2482   15.4137 O   0  0  0  0  0  0  0  0  0  0  0  0
    7.1144  -14.5543   17.7082 C   0  0  0  0  0  0  0  0  0  0  0  0
    8.1537  -14.0879   18.7062 C   0  0  2  0  0  0  0  0  0  0  0  0
    9.4810  -14.4706   18.3111 N   0  0  0  0  0  0  0  0  0  0  0  0
    7.8312  -14.7239   20.0019 C   0  0  0  0  0  0  0  0  0  0  0  0
    8.0595  -14.0793   21.0606 O   0  0  0  0  0  0  0  0  0  0  0  0
    7.2812  -16.0222   20.0435 N   0  0  0  0  0  0  0  0  0  0  0  0
    6.8054  -16.6054   21.2677 C   0  0  0  0  0  0  0  0  0  0  0  0
    7.8468  -16.5644   22.3213 C   0  0  0  0  0  0  0  0  0  0  0  0
    9.0398  -16.9345   22.0345 O   0  0  0  0  0  0  0  0  0  0  0  0
    5.2494  -11.5446   27.2191 O   0  0  0  0  0  0  0  0  0  0  0  0
    6.2255  -12.3405   26.6285 C   0  0  0  0  0  0  0  0  0  0  0  0
    7.1345  -13.0206   27.4076 C   0  0  0  0  0  0  0  0  0  0  0  0
    8.1179  -13.8196   26.8754 C   0  0  0  0  0  0  0  0  0  0  0  0
    8.2403  -13.9789   25.5092 C   0  0  0  0  0  0  0  0  0  0  0  0
    9.2409  -14.7962   24.8372 C   0  0  0  0  0  0  0  0  0  0  0  0
    8.7217  -16.2000   24.6409 C   0  0  2  0  0  0  0  0  0  0  0  0
    7.6608  -16.1451   23.6484 N   0  0  0  0  0  0  0  0  0  0  0  0
    8.2858  -16.7992   25.8930 C   0  0  0  0  0  0  0  0  0  0  0  0
    9.1707  -17.0862   26.9055 O   0  0  0  0  0  0  0  0  0  0  0  0
    7.3204  -13.2905   24.7246 C   0  0  0  0  0  0  0  0  0  0  0  0
    6.3376  -12.4915   25.2677 C   0  0  0  0  0  0  0  0  0  0  0  0
    7.0736  -17.0724   26.0746 O   0  0  0  0  0  0  0  0  0  0  0  0
  1  2  1  0
  2  3  2  0
  4  5  1  0
  4  2  1  0
  5  6  1  6
  7  5  1  0
  8  7  2  0
  9  7  1  0
 10 11  1  0
 10  9  1  0
 11 20  1  0
 12 11  2  0
 14 15  2  0
 14 13  1  0
 16 15  1  0
 17 16  2  0
 18 17  1  0
 19 18  1  1
 20 19  1  0
 21 19  1  0
 21 22  1  0
 23 17  1  0
 23 24  2  0
 24 14  1  0
 25 21  2  0
M  END
$$$$
