NGY.pdb
     RDKit          3D

 25 25  0  0  1  0  0  0  0  0999 V2000
    6.1112  -17.9063   16.9661 N   0  0  0  0  0  0  0  0  0  0  0  0
    7.3527  -18.2776   17.5376 C   0  0  0  0  0  0  0  0  0  0  0  0
    7.7744  -19.4509   17.3862 O   0  0  0  0  0  0  0  0  0  0  0  0
    8.1254  -17.2826   18.2979 C   0  0  0  0  0  0  0  0  0  0  0  0
    8.9148  -17.9120   19.4269 C   0  0  2  0  0  0  0  0  0  0  0  0
    8.0549  -18.4138   20.4628 N   0  0  0  0  0  0  0  0  0  0  0  0
    9.7879  -16.8589   19.9893 C   0  0  0  0  0  0  0  0  0  0  0  0
   10.4950  -16.1792   19.1979 O   0  0  0  0  0  0  0  0  0  0  0  0
    9.8227  -16.6268   21.3802 N   0  0  0  0  0  0  0  0  0  0  0  0
   10.6929  -15.6430   21.9634 C   0  0  0  0  0  0  0  0  0  0  0  0
   10.4192  -15.4756   23.4102 C   0  0  0  0  0  0  0  0  0  0  0  0
   11.1129  -14.6340   24.0834 O   0  0  0  0  0  0  0  0  0  0  0  0
    6.1750  -10.9648   25.9461 O   0  0  0  0  0  0  0  0  0  0  0  0
    6.6601  -12.2673   26.0038 C   0  0  0  0  0  0  0  0  0  0  0  0
    6.4778  -13.1256   24.9425 C   0  0  0  0  0  0  0  0  0  0  0  0
    6.9365  -14.4211   24.9479 C   0  0  0  0  0  0  0  0  0  0  0  0
    7.6135  -14.9293   26.0389 C   0  0  0  0  0  0  0  0  0  0  0  0
    8.1412  -16.2817   26.1545 C   0  0  0  0  0  0  0  0  0  0  0  0
    9.5391  -16.3466   25.5887 C   0  0  2  0  0  0  0  0  0  0  0  0
    9.4434  -16.1630   24.1497 N   0  0  0  0  0  0  0  0  0  0  0  0
   10.2163  -17.5822   25.9510 C   0  0  0  0  0  0  0  0  0  0  0  0
   10.5569  -17.8669   27.2524 O   0  0  0  0  0  0  0  0  0  0  0  0
    7.7961  -14.0598   27.1095 C   0  0  0  0  0  0  0  0  0  0  0  0
    7.3324  -12.7620   27.0948 C   0  0  0  0  0  0  0  0  0  0  0  0
   10.5095  -18.4248   25.0673 O   0  0  0  0  0  0  0  0  0  0  0  0
  1  2  1  0
  2  3  2  0
  4  5  1  0
  4  2  1  0
  5  6  1  1
  7  5  1  0
  8  7  2  0
  9  7  1  0
 10 11  1  0
 10  9  1  0
 11 20  1  0
 12 11  2  0
 14 15  2  0
 14 13  1  0
 16 15  1  0
 17 16  2  0
 18 17  1  0
 19 18  1  6
 20 19  1  0
 21 19  1  0
 21 22  1  0
 23 17  1  0
 23 24  2  0
 24 14  1  0
 25 21  2  0
M  END
$$$$
