NGY.pdb
     RDKit          3D

 25 25  0  0  1  0  0  0  0  0999 V2000
    7.6377  -12.2459   17.5359 N   0  0  0  0  0  0  0  0  0  0  0  0
    8.5282  -13.3409   17.6546 C   0  0  0  0  0  0  0  0  0  0  0  0
    9.0742  -13.8055   16.6235 O   0  0  0  0  0  0  0  0  0  0  0  0
    8.7971  -13.9137   18.9830 C   0  0  0  0  0  0  0  0  0  0  0  0
    8.1941  -15.2936   19.1439 C   0  0  2  0  0  0  0  0  0  0  0  0
    6.7583  -15.2554   19.1048 N   0  0  0  0  0  0  0  0  0  0  0  0
    8.6296  -15.8097   20.4598 C   0  0  0  0  0  0  0  0  0  0  0  0
    9.8555  -16.0414   20.6381 O   0  0  0  0  0  0  0  0  0  0  0  0
    7.6886  -16.0349   21.4863 N   0  0  0  0  0  0  0  0  0  0  0  0
    7.9109  -17.0097   22.5185 C   0  0  0  0  0  0  0  0  0  0  0  0
    8.7473  -16.4548   23.6088 C   0  0  0  0  0  0  0  0  0  0  0  0
    9.7568  -15.7236   23.3106 O   0  0  0  0  0  0  0  0  0  0  0  0
    5.9650  -10.9506   25.6959 O   0  0  0  0  0  0  0  0  0  0  0  0
    6.6489  -12.1067   26.0573 C   0  0  0  0  0  0  0  0  0  0  0  0
    6.0127  -13.3277   26.0348 C   0  0  0  0  0  0  0  0  0  0  0  0
    6.6415  -14.4994   26.3819 C   0  0  0  0  0  0  0  0  0  0  0  0
    7.9648  -14.5043   26.7764 C   0  0  0  0  0  0  0  0  0  0  0  0
    8.7291  -15.6811   27.1658 C   0  0  0  0  0  0  0  0  0  0  0  0
    9.5043  -16.2141   25.9853 C   0  0  2  0  0  0  0  0  0  0  0  0
    8.5436  -16.6486   24.9844 N   0  0  0  0  0  0  0  0  0  0  0  0
   10.4261  -17.2712   26.3718 C   0  0  0  0  0  0  0  0  0  0  0  0
   10.3383  -18.5378   25.8437 O   0  0  0  0  0  0  0  0  0  0  0  0
    8.6049  -13.2692   26.7982 C   0  0  0  0  0  0  0  0  0  0  0  0
    7.9658  -12.0994   26.4482 C   0  0  0  0  0  0  0  0  0  0  0  0
   11.3326  -17.0440   27.2105 O   0  0  0  0  0  0  0  0  0  0  0  0
  1  2  1  0
  2  3  2  0
  4  5  1  0
  4  2  1  0
  5  6  1  1
  7  5  1  0
  8  7  2  0
  9  7  1  0
 10 11  1  0
 10  9  1  0
 11 20  1  0
 12 11  2  0
 14 15  2  0
 14 13  1  0
 16 15  1  0
 17 16  2  0
 18 17  1  0
 19 18  1  1
 20 19  1  0
 21 19  1  0
 21 22  1  0
 23 17  1  0
 23 24  2  0
 24 14  1  0
 25 21  2  0
M  END
$$$$
