NGY.pdb
     RDKit          3D

 25 25  0  0  1  0  0  0  0  0999 V2000
    9.2309  -17.0820   15.0317 N   0  0  0  0  0  0  0  0  0  0  0  0
    8.1707  -17.3515   15.9312 C   0  0  0  0  0  0  0  0  0  0  0  0
    7.3990  -18.3156   15.7028 O   0  0  0  0  0  0  0  0  0  0  0  0
    7.9928  -16.4974   17.1162 C   0  0  0  0  0  0  0  0  0  0  0  0
    8.7640  -17.0124   18.3136 C   0  0  2  0  0  0  0  0  0  0  0  0
    8.5652  -18.4218   18.5093 N   0  0  0  0  0  0  0  0  0  0  0  0
    8.2660  -16.2832   19.5002 C   0  0  0  0  0  0  0  0  0  0  0  0
    8.5000  -15.0479   19.5878 O   0  0  0  0  0  0  0  0  0  0  0  0
    7.5466  -16.9617   20.5061 N   0  0  0  0  0  0  0  0  0  0  0  0
    7.1393  -16.3080   21.7193 C   0  0  0  0  0  0  0  0  0  0  0  0
    8.2866  -16.1206   22.6385 C   0  0  0  0  0  0  0  0  0  0  0  0
    9.4171  -15.7537   22.1591 O   0  0  0  0  0  0  0  0  0  0  0  0
    5.3213  -11.8115   27.1576 O   0  0  0  0  0  0  0  0  0  0  0  0
    6.4033  -12.5045   26.6248 C   0  0  0  0  0  0  0  0  0  0  0  0
    6.3584  -13.8750   26.4987 C   0  0  0  0  0  0  0  0  0  0  0  0
    7.3988  -14.6076   25.9794 C   0  0  0  0  0  0  0  0  0  0  0  0
    8.5578  -13.9898   25.5529 C   0  0  0  0  0  0  0  0  0  0  0  0
    9.7196  -14.6634   24.9897 C   0  0  0  0  0  0  0  0  0  0  0  0
    9.4515  -16.1430   24.8569 C   0  0  2  0  0  0  0  0  0  0  0  0
    8.2668  -16.3059   24.0302 N   0  0  0  0  0  0  0  0  0  0  0  0
    9.3225  -16.7913   26.1530 C   0  0  0  0  0  0  0  0  0  0  0  0
    8.1958  -17.4990   26.5001 O   0  0  0  0  0  0  0  0  0  0  0  0
    8.6002  -12.6052   25.6815 C   0  0  0  0  0  0  0  0  0  0  0  0
    7.5515  -11.8791   26.2036 C   0  0  0  0  0  0  0  0  0  0  0  0
   10.2519  -16.7134   26.9939 O   0  0  0  0  0  0  0  0  0  0  0  0
  1  2  1  0
  2  3  2  0
  4  5  1  0
  4  2  1  0
  5  6  1  1
  7  5  1  0
  8  7  2  0
  9  7  1  0
 10 11  1  0
 10  9  1  0
 11 20  1  0
 12 11  2  0
 14 15  2  0
 14 13  1  0
 16 15  1  0
 17 16  2  0
 18 17  1  0
 19 18  1  1
 20 19  1  0
 21 19  1  0
 21 22  1  0
 23 17  1  0
 23 24  2  0
 24 14  1  0
 25 21  2  0
M  END
$$$$
