NGY.pdb
     RDKit          3D

 25 25  0  0  1  0  0  0  0  0999 V2000
    7.9270  -19.9152   18.2927 N   0  0  0  0  0  0  0  0  0  0  0  0
    7.2858  -18.7493   17.8076 C   0  0  0  0  0  0  0  0  0  0  0  0
    6.6606  -18.7975   16.7194 O   0  0  0  0  0  0  0  0  0  0  0  0
    7.3638  -17.5036   18.5868 C   0  0  0  0  0  0  0  0  0  0  0  0
    8.1923  -17.6661   19.8442 C   0  0  2  0  0  0  0  0  0  0  0  0
    7.4986  -18.4296   20.8443 N   0  0  0  0  0  0  0  0  0  0  0  0
    8.4601  -16.3095   20.3691 C   0  0  0  0  0  0  0  0  0  0  0  0
    9.3020  -15.5888   19.7690 O   0  0  0  0  0  0  0  0  0  0  0  0
    7.7846  -15.8405   21.5152 N   0  0  0  0  0  0  0  0  0  0  0  0
    8.0126  -14.5239   22.0442 C   0  0  0  0  0  0  0  0  0  0  0  0
    9.0140  -14.5510   23.1364 C   0  0  0  0  0  0  0  0  0  0  0  0
    9.5365  -13.4495   23.5316 O   0  0  0  0  0  0  0  0  0  0  0  0
    5.9933  -10.6776   26.8280 O   0  0  0  0  0  0  0  0  0  0  0  0
    6.5095  -11.9435   26.5711 C   0  0  0  0  0  0  0  0  0  0  0  0
    7.8248  -12.2308   26.8599 C   0  0  0  0  0  0  0  0  0  0  0  0
    8.3843  -13.4641   26.6260 C   0  0  0  0  0  0  0  0  0  0  0  0
    7.6378  -14.4897   26.0804 C   0  0  0  0  0  0  0  0  0  0  0  0
    8.1248  -15.8309   25.7895 C   0  0  0  0  0  0  0  0  0  0  0  0
    9.5379  -15.7700   25.2621 C   0  0  2  0  0  0  0  0  0  0  0  0
    9.4664  -15.6958   23.8119 N   0  0  0  0  0  0  0  0  0  0  0  0
   10.3409  -16.8911   25.7258 C   0  0  0  0  0  0  0  0  0  0  0  0
   10.8931  -17.7973   24.8514 O   0  0  0  0  0  0  0  0  0  0  0  0
    6.3092  -14.1964   25.7897 C   0  0  0  0  0  0  0  0  0  0  0  0
    5.7570  -12.9564   26.0279 C   0  0  0  0  0  0  0  0  0  0  0  0
   10.5461  -17.0564   26.9536 O   0  0  0  0  0  0  0  0  0  0  0  0
  1  2  1  0
  2  3  2  0
  4  5  1  0
  4  2  1  0
  5  6  1  1
  7  5  1  0
  8  7  2  0
  9  7  1  0
 10 11  1  0
 10  9  1  0
 11 20  1  0
 12 11  2  0
 14 15  2  0
 14 13  1  0
 16 15  1  0
 17 16  2  0
 18 17  1  0
 19 18  1  1
 20 19  1  0
 21 19  1  0
 21 22  1  0
 23 17  1  0
 23 24  2  0
 24 14  1  0
 25 21  2  0
M  END
$$$$
