NGY.pdb
     RDKit          3D

 25 25  0  0  1  0  0  0  0  0999 V2000
    6.7621  -12.4311   17.9790 N   0  0  0  0  0  0  0  0  0  0  0  0
    7.8404  -13.3493   17.9945 C   0  0  0  0  0  0  0  0  0  0  0  0
    8.1676  -13.9333   16.9319 O   0  0  0  0  0  0  0  0  0  0  0  0
    8.5571  -13.6020   19.2545 C   0  0  0  0  0  0  0  0  0  0  0  0
    8.6905  -15.0814   19.5502 C   0  0  2  0  0  0  0  0  0  0  0  0
    7.5003  -15.6134   20.1540 N   0  0  0  0  0  0  0  0  0  0  0  0
    9.8224  -15.2386   20.4892 C   0  0  0  0  0  0  0  0  0  0  0  0
   10.9892  -15.0213   20.0650 O   0  0  0  0  0  0  0  0  0  0  0  0
    9.5932  -15.6232   21.8268 N   0  0  0  0  0  0  0  0  0  0  0  0
   10.6570  -15.6857   22.7909 C   0  0  0  0  0  0  0  0  0  0  0  0
   10.1445  -16.0549   24.1316 C   0  0  0  0  0  0  0  0  0  0  0  0
   10.9485  -16.0519   25.1297 O   0  0  0  0  0  0  0  0  0  0  0  0
    6.6276  -10.6230   25.8023 O   0  0  0  0  0  0  0  0  0  0  0  0
    6.7093  -12.0111   25.8408 C   0  0  0  0  0  0  0  0  0  0  0  0
    6.6379  -12.7452   24.6780 C   0  0  0  0  0  0  0  0  0  0  0  0
    6.7132  -14.1173   24.6601 C   0  0  0  0  0  0  0  0  0  0  0  0
    6.8667  -14.8346   25.8301 C   0  0  0  0  0  0  0  0  0  0  0  0
    6.9565  -16.2846   25.9300 C   0  0  0  0  0  0  0  0  0  0  0  0
    8.3923  -16.7293   25.7910 C   0  0  2  0  0  0  0  0  0  0  0  0
    8.8232  -16.4181   24.4378 N   0  0  0  0  0  0  0  0  0  0  0  0
    8.5610  -18.1360   26.1220 C   0  0  0  0  0  0  0  0  0  0  0  0
    8.9927  -19.0523   25.1921 O   0  0  0  0  0  0  0  0  0  0  0  0
    6.9385  -14.0901   27.0033 C   0  0  0  0  0  0  0  0  0  0  0  0
    6.8620  -12.7141   27.0111 C   0  0  0  0  0  0  0  0  0  0  0  0
    8.3090  -18.5471   27.2815 O   0  0  0  0  0  0  0  0  0  0  0  0
  1  2  1  0
  2  3  2  0
  4  5  1  0
  4  2  1  0
  5  6  1  1
  7  5  1  0
  8  7  2  0
  9  7  1  0
 10 11  1  0
 10  9  1  0
 11 20  1  0
 12 11  2  0
 14 15  2  0
 14 13  1  0
 16 15  1  0
 17 16  2  0
 18 17  1  0
 19 18  1  6
 20 19  1  0
 21 19  1  0
 21 22  1  0
 23 17  1  0
 23 24  2  0
 24 14  1  0
 25 21  2  0
M  END
$$$$
