NGY.pdb
     RDKit          3D

 25 25  0  0  1  0  0  0  0  0999 V2000
    9.9550  -19.6889   15.3517 N   0  0  0  0  0  0  0  0  0  0  0  0
   10.3577  -19.9220   16.6894 C   0  0  0  0  0  0  0  0  0  0  0  0
   11.1293  -20.8799   16.9425 O   0  0  0  0  0  0  0  0  0  0  0  0
    9.8648  -19.0379   17.7575 C   0  0  0  0  0  0  0  0  0  0  0  0
   10.9163  -18.0463   18.2102 C   0  0  2  0  0  0  0  0  0  0  0  0
   11.9167  -18.6689   19.0323 N   0  0  0  0  0  0  0  0  0  0  0  0
   10.2228  -17.0033   18.9968 C   0  0  0  0  0  0  0  0  0  0  0  0
    9.2414  -16.4101   18.4740 O   0  0  0  0  0  0  0  0  0  0  0  0
   10.6558  -16.6856   20.3011 N   0  0  0  0  0  0  0  0  0  0  0  0
    9.9936  -15.6904   21.0988 C   0  0  0  0  0  0  0  0  0  0  0  0
    9.9772  -16.0743   22.5301 C   0  0  0  0  0  0  0  0  0  0  0  0
   10.0898  -17.3113   22.8458 O   0  0  0  0  0  0  0  0  0  0  0  0
   10.7767  -15.8454   31.3273 O   0  0  0  0  0  0  0  0  0  0  0  0
   10.5988  -15.4955   29.9928 C   0  0  0  0  0  0  0  0  0  0  0  0
   11.3104  -16.1374   29.0040 C   0  0  0  0  0  0  0  0  0  0  0  0
   11.1726  -15.8306   27.6715 C   0  0  0  0  0  0  0  0  0  0  0  0
   10.2976  -14.8460   27.2571 C   0  0  0  0  0  0  0  0  0  0  0  0
   10.0721  -14.4380   25.8775 C   0  0  0  0  0  0  0  0  0  0  0  0
    9.8874  -15.6510   24.9982 C   0  0  2  0  0  0  0  0  0  0  0  0
    9.8499  -15.1958   23.6179 N   0  0  0  0  0  0  0  0  0  0  0  0
    8.7061  -16.4159   25.3671 C   0  0  0  0  0  0  0  0  0  0  0  0
    7.4752  -16.1618   24.8095 O   0  0  0  0  0  0  0  0  0  0  0  0
    9.5801  -14.1993   28.2584 C   0  0  0  0  0  0  0  0  0  0  0  0
    9.7251  -14.5140   29.5923 C   0  0  0  0  0  0  0  0  0  0  0  0
    8.7892  -17.3362   26.2175 O   0  0  0  0  0  0  0  0  0  0  0  0
  1  2  1  0
  2  3  2  0
  4  5  1  0
  4  2  1  0
  5  6  1  1
  7  5  1  0
  8  7  2  0
  9  7  1  0
 10 11  1  0
 10  9  1  0
 11 20  1  0
 12 11  2  0
 14 15  2  0
 14 13  1  0
 16 15  1  0
 17 16  2  0
 18 17  1  0
 19 18  1  1
 20 19  1  0
 21 19  1  0
 21 22  1  0
 23 17  1  0
 23 24  2  0
 24 14  1  0
 25 21  2  0
M  END
$$$$
