LAF.pdb
     RDKit          3D

 25 25  0  0  1  0  0  0  0  0999 V2000
   26.9426  -23.1012  -14.9822 C   0  0  0  0  0  0  0  0  0  0  0  0
   26.6980  -21.7724  -15.7020 C   0  0  2  0  0  0  0  0  0  0  0  0
   27.6825  -21.5660  -16.8211 C   0  0  0  0  0  0  0  0  0  0  0  0
   26.8518  -20.6913  -14.6711 C   0  0  0  0  0  0  0  0  0  0  0  0
   25.4369  -20.1077  -14.4520 C   0  0  2  0  0  0  0  0  0  0  0  0
   25.3568  -18.9790  -15.3240 N   0  0  0  0  0  0  0  0  0  0  0  0
   25.3679  -19.7818  -13.0109 C   0  0  0  0  0  0  0  0  0  0  0  0
   25.9927  -18.8159  -12.5570 O   0  0  0  0  0  0  0  0  0  0  0  0
   22.9958  -20.4600  -10.2627 C   0  0  0  0  0  0  0  0  0  0  0  0
   24.4001  -20.3199  -10.7834 C   0  0  2  0  0  0  0  0  0  0  0  0
   24.5765  -20.5944  -12.1781 N   0  0  0  0  0  0  0  0  0  0  0  0
   25.4187  -20.9617   -9.9210 C   0  0  0  0  0  0  0  0  0  0  0  0
   25.8076  -22.1030  -10.2194 O   0  0  0  0  0  0  0  0  0  0  0  0
   25.9732  -20.3233   -8.7575 N   0  0  0  0  0  0  0  0  0  0  0  0
   26.9188  -20.9844   -7.9149 C   0  0  1  0  0  0  0  0  0  0  0  0
   28.2014  -20.2769   -7.7358 C   0  0  0  0  0  0  0  0  0  0  0  0
   28.3581  -19.7992   -6.3511 C   0  0  0  0  0  0  0  0  0  0  0  0
   27.8836  -18.5415   -6.0392 C   0  0  0  0  0  0  0  0  0  0  0  0
   27.9475  -18.0297   -4.7782 C   0  0  0  0  0  0  0  0  0  0  0  0
   28.5056  -18.7754   -3.7528 C   0  0  0  0  0  0  0  0  0  0  0  0
   28.9993  -20.0536   -4.0317 C   0  0  0  0  0  0  0  0  0  0  0  0
   28.9137  -20.5369   -5.3241 C   0  0  0  0  0  0  0  0  0  0  0  0
   26.1962  -21.3134   -6.6369 C   0  0  0  0  0  0  0  0  0  0  0  0
   26.7308  -22.0706   -5.8063 O   0  0  0  0  0  0  0  0  0  0  0  0
   24.9405  -20.8153   -6.2993 O   0  0  0  0  0  0  0  0  0  0  0  0
  2  1  1  1
  2  3  1  0
  4  2  1  0
  4  5  1  0
  5  7  1  0
  5  6  1  6
  7  8  2  0
 10  9  1  1
 11 10  1  0
 11  7  1  0
 12 14  1  0
 12 10  1  0
 13 12  2  0
 15 14  1  0
 15 16  1  1
 17 16  1  0
 18 17  2  0
 19 18  1  0
 20 19  2  0
 20 21  1  0
 21 22  2  0
 22 17  1  0
 23 25  1  0
 23 15  1  0
 24 23  2  0
M  END
$$$$
