LAF.pdb
     RDKit          3D

 25 25  0  0  1  0  0  0  0  0999 V2000
   19.1482  -12.6045  -19.3207 C   0  0  0  0  0  0  0  0  0  0  0  0
   20.3042  -12.2828  -20.2714 C   0  0  2  0  0  0  0  0  0  0  0  0
   21.1810  -13.4853  -20.4946 C   0  0  0  0  0  0  0  0  0  0  0  0
   21.0934  -11.1785  -19.6291 C   0  0  0  0  0  0  0  0  0  0  0  0
   20.1163   -9.9901  -19.4765 C   0  0  2  0  0  0  0  0  0  0  0  0
   19.7541   -9.6278  -20.8101 N   0  0  0  0  0  0  0  0  0  0  0  0
   20.8725   -8.9552  -18.7384 C   0  0  0  0  0  0  0  0  0  0  0  0
   21.3695   -9.2106  -17.6351 O   0  0  0  0  0  0  0  0  0  0  0  0
   22.2239   -5.5281  -19.5909 C   0  0  0  0  0  0  0  0  0  0  0  0
   21.7253   -6.6190  -18.6830 C   0  0  2  0  0  0  0  0  0  0  0  0
   21.0106   -7.6826  -19.3230 N   0  0  0  0  0  0  0  0  0  0  0  0
   21.0628   -6.1143  -17.4585 C   0  0  0  0  0  0  0  0  0  0  0  0
   19.9020   -5.6826  -17.5530 O   0  0  0  0  0  0  0  0  0  0  0  0
   21.7036   -6.1016  -16.1710 N   0  0  0  0  0  0  0  0  0  0  0  0
   21.0015   -5.7274  -14.9843 C   0  0  1  0  0  0  0  0  0  0  0  0
   20.2367   -6.8123  -14.3396 C   0  0  0  0  0  0  0  0  0  0  0  0
   21.1343   -7.7996  -13.7155 C   0  0  0  0  0  0  0  0  0  0  0  0
   20.9865   -8.0521  -12.3669 C   0  0  0  0  0  0  0  0  0  0  0  0
   21.7426   -8.9760  -11.7106 C   0  0  0  0  0  0  0  0  0  0  0  0
   22.7036   -9.7012  -12.3956 C   0  0  0  0  0  0  0  0  0  0  0  0
   22.8837   -9.4708  -13.7631 C   0  0  0  0  0  0  0  0  0  0  0  0
   22.0946   -8.5259  -14.3921 C   0  0  0  0  0  0  0  0  0  0  0  0
   22.0025   -5.0451  -14.0921 C   0  0  0  0  0  0  0  0  0  0  0  0
   21.6497   -4.6414  -12.9689 O   0  0  0  0  0  0  0  0  0  0  0  0
   23.3350   -4.8304  -14.4345 O   0  0  0  0  0  0  0  0  0  0  0  0
  2  1  1  1
  2  3  1  0
  4  2  1  0
  4  5  1  0
  5  7  1  0
  5  6  1  6
  7  8  2  0
 10  9  1  6
 11 10  1  0
 11  7  1  0
 12 14  1  0
 12 10  1  0
 13 12  2  0
 15 14  1  0
 15 16  1  1
 17 16  1  0
 18 17  2  0
 19 18  1  0
 20 19  2  0
 20 21  1  0
 21 22  2  0
 22 17  1  0
 23 25  1  0
 23 15  1  0
 24 23  2  0
M  END
$$$$
