LAF.pdb
     RDKit          3D

 25 25  0  0  1  0  0  0  0  0999 V2000
   18.3435  -16.7418  -17.1959 C   0  0  0  0  0  0  0  0  0  0  0  0
   16.8626  -16.3767  -17.3281 C   0  0  2  0  0  0  0  0  0  0  0  0
   16.2148  -17.1189  -18.4655 C   0  0  0  0  0  0  0  0  0  0  0  0
   16.8061  -14.8968  -17.5764 C   0  0  0  0  0  0  0  0  0  0  0  0
   17.3773  -14.2295  -16.3040 C   0  0  2  0  0  0  0  0  0  0  0  0
   16.5222  -14.6537  -15.2411 N   0  0  0  0  0  0  0  0  0  0  0  0
   17.3483  -12.7765  -16.5786 C   0  0  0  0  0  0  0  0  0  0  0  0
   18.0740  -12.2903  -17.4540 O   0  0  0  0  0  0  0  0  0  0  0  0
   14.9502  -10.0089  -15.9109 C   0  0  0  0  0  0  0  0  0  0  0  0
   16.3412  -10.5630  -16.0551 C   0  0  2  0  0  0  0  0  0  0  0  0
   16.4774  -11.9698  -15.8229 N   0  0  0  0  0  0  0  0  0  0  0  0
   17.3765   -9.7489  -15.3779 C   0  0  0  0  0  0  0  0  0  0  0  0
   17.7693  -10.1109  -14.2565 O   0  0  0  0  0  0  0  0  0  0  0  0
   17.9430   -8.5620  -15.9601 N   0  0  0  0  0  0  0  0  0  0  0  0
   18.9627   -7.8116  -15.2979 C   0  0  1  0  0  0  0  0  0  0  0  0
   19.9939   -7.2374  -16.1836 C   0  0  0  0  0  0  0  0  0  0  0  0
   20.8211   -6.2500  -15.4689 C   0  0  0  0  0  0  0  0  0  0  0  0
   20.4476   -4.9229  -15.5293 C   0  0  0  0  0  0  0  0  0  0  0  0
   21.1263   -3.9433  -14.8691 C   0  0  0  0  0  0  0  0  0  0  0  0
   22.2363   -4.2613  -14.1039 C   0  0  0  0  0  0  0  0  0  0  0  0
   22.6461   -5.5956  -14.0209 C   0  0  0  0  0  0  0  0  0  0  0  0
   21.9289   -6.5597  -14.7046 C   0  0  0  0  0  0  0  0  0  0  0  0
   18.2576   -6.8131  -14.4207 C   0  0  0  0  0  0  0  0  0  0  0  0
   18.6953   -6.5817  -13.2787 O   0  0  0  0  0  0  0  0  0  0  0  0
   17.1231   -6.1021  -14.8025 O   0  0  0  0  0  0  0  0  0  0  0  0
  2  1  1  6
  2  3  1  0
  4  2  1  0
  4  5  1  0
  5  7  1  0
  5  6  1  1
  7  8  2  0
 10  9  1  1
 11 10  1  0
 11  7  1  0
 12 14  1  0
 12 10  1  0
 13 12  2  0
 15 14  1  0
 15 16  1  6
 17 16  1  0
 18 17  2  0
 19 18  1  0
 20 19  2  0
 20 21  1  0
 21 22  2  0
 22 17  1  0
 23 25  1  0
 23 15  1  0
 24 23  2  0
M  END
$$$$
