LAF.pdb
     RDKit          3D

 25 25  0  0  1  0  0  0  0  0999 V2000
   30.3308  -17.1969  -16.0276 C   0  0  0  0  0  0  0  0  0  0  0  0
   29.1551  -18.1155  -16.3710 C   0  0  2  0  0  0  0  0  0  0  0  0
   29.3284  -18.7435  -17.7274 C   0  0  0  0  0  0  0  0  0  0  0  0
   27.9216  -17.2594  -16.3504 C   0  0  0  0  0  0  0  0  0  0  0  0
   26.7337  -18.2184  -16.5949 C   0  0  2  0  0  0  0  0  0  0  0  0
   26.2445  -17.8867  -17.8954 N   0  0  0  0  0  0  0  0  0  0  0  0
   25.7850  -17.9540  -15.4914 C   0  0  0  0  0  0  0  0  0  0  0  0
   25.6032  -16.8002  -15.0851 O   0  0  0  0  0  0  0  0  0  0  0  0
   22.7273  -18.4264  -14.5014 C   0  0  0  0  0  0  0  0  0  0  0  0
   24.0565  -18.8721  -13.9559 C   0  0  2  0  0  0  0  0  0  0  0  0
   25.0995  -19.0435  -14.9225 N   0  0  0  0  0  0  0  0  0  0  0  0
   23.9559  -19.9901  -12.9900 C   0  0  0  0  0  0  0  0  0  0  0  0
   24.0302  -21.1514  -13.4244 O   0  0  0  0  0  0  0  0  0  0  0  0
   23.7754  -19.7895  -11.5773 N   0  0  0  0  0  0  0  0  0  0  0  0
   23.5994  -20.8854  -10.6777 C   0  0  1  0  0  0  0  0  0  0  0  0
   23.9924  -20.6192   -9.2804 C   0  0  0  0  0  0  0  0  0  0  0  0
   25.4549  -20.4997   -9.1514 C   0  0  0  0  0  0  0  0  0  0  0  0
   25.9559  -19.5579   -8.2760 C   0  0  0  0  0  0  0  0  0  0  0  0
   27.2918  -19.4008   -8.0596 C   0  0  0  0  0  0  0  0  0  0  0  0
   28.2034  -20.1997   -8.7302 C   0  0  0  0  0  0  0  0  0  0  0  0
   27.7327  -21.1637   -9.6273 C   0  0  0  0  0  0  0  0  0  0  0  0
   26.3694  -21.2924   -9.8169 C   0  0  0  0  0  0  0  0  0  0  0  0
   22.1830  -21.3609  -10.8548 C   0  0  0  0  0  0  0  0  0  0  0  0
   21.2789  -20.5324  -11.0676 O   0  0  0  0  0  0  0  0  0  0  0  0
   21.7958  -22.6974  -10.8041 O   0  0  0  0  0  0  0  0  0  0  0  0
  2  1  1  6
  2  3  1  0
  4  2  1  0
  4  5  1  0
  5  7  1  0
  5  6  1  6
  7  8  2  0
 10  9  1  6
 11 10  1  0
 11  7  1  0
 12 14  1  0
 12 10  1  0
 13 12  2  0
 15 14  1  0
 15 16  1  1
 17 16  1  0
 18 17  2  0
 19 18  1  0
 20 19  2  0
 20 21  1  0
 21 22  2  0
 22 17  1  0
 23 25  1  0
 23 15  1  0
 24 23  2  0
M  END
$$$$
