LAF.pdb
     RDKit          3D

 25 25  0  0  1  0  0  0  0  0999 V2000
   21.7687  -18.8211  -14.4120 C   0  0  0  0  0  0  0  0  0  0  0  0
   21.0457  -20.0549  -13.8655 C   0  0  2  0  0  0  0  0  0  0  0  0
   19.8694  -19.6670  -13.0110 C   0  0  0  0  0  0  0  0  0  0  0  0
   22.0510  -20.8145  -13.0487 C   0  0  0  0  0  0  0  0  0  0  0  0
   23.2656  -21.0467  -13.9769 C   0  0  2  0  0  0  0  0  0  0  0  0
   22.8621  -22.0853  -14.8709 N   0  0  0  0  0  0  0  0  0  0  0  0
   24.3824  -21.4056  -13.0760 C   0  0  0  0  0  0  0  0  0  0  0  0
   24.3081  -22.4080  -12.3555 O   0  0  0  0  0  0  0  0  0  0  0  0
   27.9309  -20.1650  -12.5997 C   0  0  0  0  0  0  0  0  0  0  0  0
   26.6437  -20.8379  -12.2085 C   0  0  2  0  0  0  0  0  0  0  0  0
   25.5233  -20.5817  -13.0633 N   0  0  0  0  0  0  0  0  0  0  0  0
   26.3270  -20.7188  -10.7668 C   0  0  0  0  0  0  0  0  0  0  0  0
   25.3622  -20.0114  -10.4328 O   0  0  0  0  0  0  0  0  0  0  0  0
   27.0861  -21.3832   -9.7416 N   0  0  0  0  0  0  0  0  0  0  0  0
   26.8867  -21.1014   -8.3552 C   0  0  1  0  0  0  0  0  0  0  0  0
   27.8372  -21.7600   -7.4384 C   0  0  0  0  0  0  0  0  0  0  0  0
   28.1235  -20.9124   -6.2680 C   0  0  0  0  0  0  0  0  0  0  0  0
   29.1715  -20.0187   -6.3528 C   0  0  0  0  0  0  0  0  0  0  0  0
   29.4872  -19.1663   -5.3380 C   0  0  0  0  0  0  0  0  0  0  0  0
   28.7485  -19.1766   -4.1663 C   0  0  0  0  0  0  0  0  0  0  0  0
   27.6803  -20.0706   -4.0430 C   0  0  0  0  0  0  0  0  0  0  0  0
   27.3915  -20.9176   -5.0968 C   0  0  0  0  0  0  0  0  0  0  0  0
   26.8227  -19.6036   -8.2281 C   0  0  0  0  0  0  0  0  0  0  0  0
   27.6229  -18.8979   -8.8689 O   0  0  0  0  0  0  0  0  0  0  0  0
   25.9048  -18.9262   -7.4297 O   0  0  0  0  0  0  0  0  0  0  0  0
  2  1  1  1
  2  3  1  0
  4  2  1  0
  4  5  1  0
  5  7  1  0
  5  6  1  6
  7  8  2  0
 10  9  1  6
 11 10  1  0
 11  7  1  0
 12 14  1  0
 12 10  1  0
 13 12  2  0
 15 14  1  0
 15 16  1  1
 17 16  1  0
 18 17  2  0
 19 18  1  0
 20 19  2  0
 20 21  1  0
 21 22  2  0
 22 17  1  0
 23 25  1  0
 23 15  1  0
 24 23  2  0
M  END
$$$$
