LAF.pdb
     RDKit          3D

 25 25  0  0  1  0  0  0  0  0999 V2000
   29.0826  -17.9084  -15.0898 C   0  0  0  0  0  0  0  0  0  0  0  0
   28.0335  -18.5182  -16.0232 C   0  0  2  0  0  0  0  0  0  0  0  0
   27.4270  -17.4748  -16.9220 C   0  0  0  0  0  0  0  0  0  0  0  0
   26.9764  -19.1221  -15.1440 C   0  0  0  0  0  0  0  0  0  0  0  0
   27.6117  -20.3872  -14.5222 C   0  0  2  0  0  0  0  0  0  0  0  0
   28.0314  -21.1816  -15.6328 N   0  0  0  0  0  0  0  0  0  0  0  0
   26.5453  -20.9937  -13.6960 C   0  0  0  0  0  0  0  0  0  0  0  0
   25.7332  -21.7787  -14.1998 O   0  0  0  0  0  0  0  0  0  0  0  0
   25.5566  -20.7992  -10.0274 C   0  0  0  0  0  0  0  0  0  0  0  0
   25.3687  -21.0135  -11.5044 C   0  0  2  0  0  0  0  0  0  0  0  0
   26.4823  -20.6562  -12.3313 N   0  0  0  0  0  0  0  0  0  0  0  0
   24.0700  -20.5174  -12.0147 C   0  0  0  0  0  0  0  0  0  0  0  0
   23.9432  -19.2979  -12.2135 O   0  0  0  0  0  0  0  0  0  0  0  0
   22.9544  -21.3831  -12.2874 N   0  0  0  0  0  0  0  0  0  0  0  0
   21.8586  -20.9647  -13.1032 C   0  0  1  0  0  0  0  0  0  0  0  0
   22.1728  -20.7913  -14.5346 C   0  0  0  0  0  0  0  0  0  0  0  0
   20.9651  -20.4569  -15.3090 C   0  0  0  0  0  0  0  0  0  0  0  0
   20.3629  -21.4602  -16.0405 C   0  0  0  0  0  0  0  0  0  0  0  0
   19.2210  -21.2569  -16.7553 C   0  0  0  0  0  0  0  0  0  0  0  0
   18.6222  -20.0079  -16.7685 C   0  0  0  0  0  0  0  0  0  0  0  0
   19.2053  -18.9659  -16.0408 C   0  0  0  0  0  0  0  0  0  0  0  0
   20.3630  -19.2141  -15.3270 C   0  0  0  0  0  0  0  0  0  0  0  0
   20.7256  -21.9121  -12.8164 C   0  0  0  0  0  0  0  0  0  0  0  0
   20.9545  -23.1315  -12.7173 O   0  0  0  0  0  0  0  0  0  0  0  0
   19.4021  -21.5165  -12.6415 O   0  0  0  0  0  0  0  0  0  0  0  0
  2  1  1  1
  2  3  1  0
  4  2  1  0
  4  5  1  0
  5  7  1  0
  5  6  1  6
  7  8  2  0
 10  9  1  1
 11 10  1  0
 11  7  1  0
 12 14  1  0
 12 10  1  0
 13 12  2  0
 15 14  1  0
 15 16  1  6
 17 16  1  0
 18 17  2  0
 19 18  1  0
 20 19  2  0
 20 21  1  0
 21 22  2  0
 22 17  1  0
 23 25  1  0
 23 15  1  0
 24 23  2  0
M  END
$$$$
