LAF.pdb
     RDKit          3D

 25 25  0  0  1  0  0  0  0  0999 V2000
   15.4790  -11.4742  -17.2295 C   0  0  0  0  0  0  0  0  0  0  0  0
   16.2752  -12.4281  -16.3350 C   0  0  2  0  0  0  0  0  0  0  0  0
   15.5703  -12.6700  -15.0278 C   0  0  0  0  0  0  0  0  0  0  0  0
   17.6069  -11.7780  -16.0927 C   0  0  0  0  0  0  0  0  0  0  0  0
   18.2808  -11.6585  -17.4792 C   0  0  2  0  0  0  0  0  0  0  0  0
   18.8044  -12.9586  -17.7557 N   0  0  0  0  0  0  0  0  0  0  0  0
   19.3025  -10.6000  -17.3267 C   0  0  0  0  0  0  0  0  0  0  0  0
   20.3286  -10.8105  -16.6691 O   0  0  0  0  0  0  0  0  0  0  0  0
   19.8800   -7.2297  -18.9540 C   0  0  0  0  0  0  0  0  0  0  0  0
   20.0336   -8.2925  -17.9006 C   0  0  2  0  0  0  0  0  0  0  0  0
   19.0767   -9.3573  -17.9473 N   0  0  0  0  0  0  0  0  0  0  0  0
   20.2496   -7.7509  -16.5393 C   0  0  0  0  0  0  0  0  0  0  0  0
   19.2598   -7.5893  -15.8065 O   0  0  0  0  0  0  0  0  0  0  0  0
   21.5502   -7.4043  -16.0325 N   0  0  0  0  0  0  0  0  0  0  0  0
   21.7364   -6.9315  -14.6972 C   0  0  1  0  0  0  0  0  0  0  0  0
   22.3536   -7.8992  -13.7696 C   0  0  0  0  0  0  0  0  0  0  0  0
   23.5702   -8.4930  -14.3502 C   0  0  0  0  0  0  0  0  0  0  0  0
   23.8571   -9.8097  -14.0529 C   0  0  0  0  0  0  0  0  0  0  0  0
   24.9370  -10.4566  -14.5739 C   0  0  0  0  0  0  0  0  0  0  0  0
   25.7965   -9.7931  -15.4341 C   0  0  0  0  0  0  0  0  0  0  0  0
   25.5391   -8.4570  -15.7566 C   0  0  0  0  0  0  0  0  0  0  0  0
   24.4316   -7.8375  -15.2080 C   0  0  0  0  0  0  0  0  0  0  0  0
   22.4564   -5.6149  -14.8062 C   0  0  0  0  0  0  0  0  0  0  0  0
   22.8623   -5.2268  -15.9168 O   0  0  0  0  0  0  0  0  0  0  0  0
   22.7046   -4.7691  -13.7283 O   0  0  0  0  0  0  0  0  0  0  0  0
  2  1  1  6
  2  3  1  0
  4  2  1  0
  4  5  1  0
  5  7  1  0
  5  6  1  1
  7  8  2  0
 10  9  1  6
 11 10  1  0
 11  7  1  0
 12 14  1  0
 12 10  1  0
 13 12  2  0
 15 14  1  0
 15 16  1  1
 17 16  1  0
 18 17  2  0
 19 18  1  0
 20 19  2  0
 20 21  1  0
 21 22  2  0
 22 17  1  0
 23 25  1  0
 23 15  1  0
 24 23  2  0
M  END
$$$$
