LAF.pdb
     RDKit          3D

 25 25  0  0  1  0  0  0  0  0999 V2000
   27.8578  -15.1216  -18.4791 C   0  0  0  0  0  0  0  0  0  0  0  0
   26.4284  -15.1603  -17.9322 C   0  0  2  0  0  0  0  0  0  0  0  0
   25.5733  -14.0916  -18.5575 C   0  0  0  0  0  0  0  0  0  0  0  0
   26.5300  -14.9411  -16.4501 C   0  0  0  0  0  0  0  0  0  0  0  0
   27.1593  -16.2294  -15.8713 C   0  0  2  0  0  0  0  0  0  0  0  0
   27.3974  -17.0713  -17.0006 N   0  0  0  0  0  0  0  0  0  0  0  0
   26.1645  -16.7517  -14.9095 C   0  0  0  0  0  0  0  0  0  0  0  0
   25.8168  -16.0712  -13.9371 O   0  0  0  0  0  0  0  0  0  0  0  0
   23.2636  -18.7350  -14.8106 C   0  0  0  0  0  0  0  0  0  0  0  0
   24.6572  -18.6197  -14.2562 C   0  0  2  0  0  0  0  0  0  0  0  0
   25.6281  -18.0337  -15.1312 N   0  0  0  0  0  0  0  0  0  0  0  0
   25.1324  -19.8520  -13.5864 C   0  0  0  0  0  0  0  0  0  0  0  0
   25.4935  -20.8055  -14.2959 O   0  0  0  0  0  0  0  0  0  0  0  0
   25.1921  -19.9917  -12.1562 N   0  0  0  0  0  0  0  0  0  0  0  0
   25.7340  -21.1591  -11.5358 C   0  0  1  0  0  0  0  0  0  0  0  0
   27.0889  -20.9987  -10.9733 C   0  0  0  0  0  0  0  0  0  0  0  0
   27.0402  -20.4031   -9.6269 C   0  0  0  0  0  0  0  0  0  0  0  0
   27.6088  -21.1054   -8.5840 C   0  0  0  0  0  0  0  0  0  0  0  0
   27.6479  -20.6184   -7.3122 C   0  0  0  0  0  0  0  0  0  0  0  0
   27.1031  -19.3775   -7.0259 C   0  0  0  0  0  0  0  0  0  0  0  0
   26.5160  -18.6377   -8.0571 C   0  0  0  0  0  0  0  0  0  0  0  0
   26.4986  -19.1668   -9.3342 C   0  0  0  0  0  0  0  0  0  0  0  0
   24.6984  -21.6437  -10.5579 C   0  0  0  0  0  0  0  0  0  0  0  0
   23.7236  -20.9192  -10.2860 O   0  0  0  0  0  0  0  0  0  0  0  0
   24.7451  -22.8804   -9.9199 O   0  0  0  0  0  0  0  0  0  0  0  0
  2  1  1  6
  2  3  1  0
  4  2  1  0
  4  5  1  0
  5  7  1  0
  5  6  1  6
  7  8  2  0
 10  9  1  6
 11 10  1  0
 11  7  1  0
 12 14  1  0
 12 10  1  0
 13 12  2  0
 15 14  1  0
 15 16  1  1
 17 16  1  0
 18 17  2  0
 19 18  1  0
 20 19  2  0
 20 21  1  0
 21 22  2  0
 22 17  1  0
 23 25  1  0
 23 15  1  0
 24 23  2  0
M  END
$$$$
