LAF.pdb
     RDKit          3D

 25 25  0  0  1  0  0  0  0  0999 V2000
   27.5416  -27.6771  -19.5008 C   0  0  0  0  0  0  0  0  0  0  0  0
   27.3570  -28.7525  -18.4269 C   0  0  2  0  0  0  0  0  0  0  0  0
   26.5050  -29.8870  -18.9283 C   0  0  0  0  0  0  0  0  0  0  0  0
   26.6923  -28.0827  -17.2588 C   0  0  0  0  0  0  0  0  0  0  0  0
   27.6526  -26.9569  -16.8106 C   0  0  2  0  0  0  0  0  0  0  0  0
   28.6478  -27.6057  -16.0173 N   0  0  0  0  0  0  0  0  0  0  0  0
   26.8069  -25.9924  -16.0743 C   0  0  0  0  0  0  0  0  0  0  0  0
   26.3723  -26.2714  -14.9506 O   0  0  0  0  0  0  0  0  0  0  0  0
   26.2568  -22.3590  -16.0790 C   0  0  0  0  0  0  0  0  0  0  0  0
   25.7101  -23.7599  -16.0436 C   0  0  2  0  0  0  0  0  0  0  0  0
   26.5144  -24.7578  -16.6830 N   0  0  0  0  0  0  0  0  0  0  0  0
   24.2737  -23.8444  -16.3939 C   0  0  0  0  0  0  0  0  0  0  0  0
   23.9686  -24.0537  -17.5797 O   0  0  0  0  0  0  0  0  0  0  0  0
   23.2218  -23.6940  -15.4246 N   0  0  0  0  0  0  0  0  0  0  0  0
   21.8431  -23.7545  -15.7943 C   0  0  1  0  0  0  0  0  0  0  0  0
   21.2424  -25.1019  -15.7569 C   0  0  0  0  0  0  0  0  0  0  0  0
   21.1586  -25.6104  -14.3769 C   0  0  0  0  0  0  0  0  0  0  0  0
   22.1834  -26.4111  -13.9154 C   0  0  0  0  0  0  0  0  0  0  0  0
   22.2138  -26.8955  -12.6423 C   0  0  0  0  0  0  0  0  0  0  0  0
   21.1917  -26.5915  -11.7583 C   0  0  0  0  0  0  0  0  0  0  0  0
   20.1349  -25.7846  -12.1912 C   0  0  0  0  0  0  0  0  0  0  0  0
   20.1426  -25.3117  -13.4903 C   0  0  0  0  0  0  0  0  0  0  0  0
   21.1313  -22.7233  -14.9615 C   0  0  0  0  0  0  0  0  0  0  0  0
   21.7239  -22.1894  -14.0062 O   0  0  0  0  0  0  0  0  0  0  0  0
   19.8234  -22.3032  -15.1889 O   0  0  0  0  0  0  0  0  0  0  0  0
  2  1  1  6
  2  3  1  0
  4  2  1  0
  4  5  1  0
  5  7  1  0
  5  6  1  1
  7  8  2  0
 10  9  1  6
 11 10  1  0
 11  7  1  0
 12 14  1  0
 12 10  1  0
 13 12  2  0
 15 14  1  0
 15 16  1  1
 17 16  1  0
 18 17  2  0
 19 18  1  0
 20 19  2  0
 20 21  1  0
 21 22  2  0
 22 17  1  0
 23 25  1  0
 23 15  1  0
 24 23  2  0
M  END
$$$$
