LAF.pdb
     RDKit          3D

 25 25  0  0  1  0  0  0  0  0999 V2000
   26.0802  -11.4988  -14.7423 C   0  0  0  0  0  0  0  0  0  0  0  0
   26.2006  -10.9099  -16.1503 C   0  0  2  0  0  0  0  0  0  0  0  0
   27.5503  -10.2810  -16.3676 C   0  0  0  0  0  0  0  0  0  0  0  0
   25.1205   -9.8743  -16.2760 C   0  0  0  0  0  0  0  0  0  0  0  0
   23.7845  -10.6524  -16.2919 C   0  0  2  0  0  0  0  0  0  0  0  0
   23.9195  -11.6093  -17.3439 N   0  0  0  0  0  0  0  0  0  0  0  0
   22.7398   -9.6298  -16.5164 C   0  0  0  0  0  0  0  0  0  0  0  0
   22.6986   -9.0000  -17.5800 O   0  0  0  0  0  0  0  0  0  0  0  0
   19.5001   -8.7231  -14.8318 C   0  0  0  0  0  0  0  0  0  0  0  0
   20.7437   -8.4395  -15.6292 C   0  0  2  0  0  0  0  0  0  0  0  0
   21.8006   -9.3968  -15.4946 N   0  0  0  0  0  0  0  0  0  0  0  0
   21.2023   -7.0348  -15.5323 C   0  0  0  0  0  0  0  0  0  0  0  0
   21.9652   -6.7278  -14.6014 O   0  0  0  0  0  0  0  0  0  0  0  0
   20.8029   -6.0153  -16.4650 N   0  0  0  0  0  0  0  0  0  0  0  0
   21.2028   -4.6527  -16.3078 C   0  0  1  0  0  0  0  0  0  0  0  0
   21.7138   -4.0041  -17.5309 C   0  0  0  0  0  0  0  0  0  0  0  0
   21.9990   -2.5777  -17.2986 C   0  0  0  0  0  0  0  0  0  0  0  0
   21.0698   -1.6507  -17.7248 C   0  0  0  0  0  0  0  0  0  0  0  0
   21.2267   -0.3130  -17.5193 C   0  0  0  0  0  0  0  0  0  0  0  0
   22.3506    0.1625  -16.8638 C   0  0  0  0  0  0  0  0  0  0  0  0
   23.3152   -0.7472  -16.4196 C   0  0  0  0  0  0  0  0  0  0  0  0
   23.1173   -2.0965  -16.6463 C   0  0  0  0  0  0  0  0  0  0  0  0
   20.0509   -3.9419  -15.6511 C   0  0  0  0  0  0  0  0  0  0  0  0
   20.2768   -3.0354  -14.8287 O   0  0  0  0  0  0  0  0  0  0  0  0
   18.7114   -4.2244  -15.9057 O   0  0  0  0  0  0  0  0  0  0  0  0
  2  1  1  1
  2  3  1  0
  4  2  1  0
  4  5  1  0
  5  7  1  0
  5  6  1  6
  7  8  2  0
 10  9  1  1
 11 10  1  0
 11  7  1  0
 12 14  1  0
 12 10  1  0
 13 12  2  0
 15 14  1  0
 15 16  1  6
 17 16  1  0
 18 17  2  0
 19 18  1  0
 20 19  2  0
 20 21  1  0
 21 22  2  0
 22 17  1  0
 23 25  1  0
 23 15  1  0
 24 23  2  0
M  END
$$$$
