ADL.pdb
     RDKit          3D

 22 21  0  0  1  0  0  0  0  0999 V2000
   17.0160  -12.8029  -20.6662 C   0  0  0  0  0  0  0  0  0  0  0  0
   17.2529  -12.5491  -19.1941 C   0  0  2  0  0  0  0  0  0  0  0  0
   15.9729  -12.4278  -18.5269 N   0  0  0  0  0  0  0  0  0  0  0  0
   18.0482  -11.3002  -19.0731 C   0  0  0  0  0  0  0  0  0  0  0  0
   19.1997  -11.2747  -19.5605 O   0  0  0  0  0  0  0  0  0  0  0  0
   17.5616  -10.1483  -18.4347 N   0  0  0  0  0  0  0  0  0  0  0  0
   18.3450   -8.8951  -18.3269 C   0  0  1  0  0  0  0  0  0  0  0  0
   17.3949   -7.8016  -18.6119 C   0  0  0  0  0  0  0  0  0  0  0  0
   17.8626   -6.4263  -18.4898 C   0  0  0  0  0  0  0  0  0  0  0  0
   18.9638   -5.9522  -18.8043 O   0  0  0  0  0  0  0  0  0  0  0  0
   19.0248   -8.8405  -17.0189 C   0  0  0  0  0  0  0  0  0  0  0  0
   18.3882   -9.0684  -15.9646 O   0  0  0  0  0  0  0  0  0  0  0  0
   16.9072   -5.5406  -17.9345 O   0  0  0  0  0  0  0  0  0  0  0  0
   22.0731  -10.0867  -12.9489 C   0  0  0  0  0  0  0  0  0  0  0  0
   22.8410   -9.7397  -14.1859 C   0  0  1  0  0  0  0  0  0  0  0  0
   23.9846  -10.7360  -14.3724 C   0  0  0  0  0  0  0  0  0  0  0  0
   22.1131   -9.4549  -15.4209 C   0  0  0  0  0  0  0  0  0  0  0  0
   21.0522   -8.4570  -15.5286 C   0  0  2  0  0  0  0  0  0  0  0  0
   20.4043   -8.5362  -16.8638 N   0  0  0  0  0  0  0  0  0  0  0  0
   21.4204   -7.0611  -15.3410 C   0  0  0  0  0  0  0  0  0  0  0  0
   22.2255   -6.2908  -16.1833 O   0  0  0  0  0  0  0  0  0  0  0  0
   20.9800   -6.4532  -14.3017 O   0  0  0  0  0  0  0  0  0  0  0  0
  2  1  1  6
  2  4  1  0
  3  2  1  0
  4  6  1  0
  4  5  2  0
  6  7  1  0
  7 11  1  0
  7  8  1  1
  9  8  1  0
 10  9  2  0
 11 12  2  0
 11 19  1  0
 13  9  1  0
 15 14  1  1
 16 15  1  0
 18 17  1  6
 17 15  1  0
 18 20  1  0
 19 18  1  0
 20 21  1  0
 22 20  2  0
M  END
$$$$
