ADL.pdb
     RDKit          3D

 22 21  0  0  1  0  0  0  0  0999 V2000
   16.7494  -14.0381  -17.6291 C   0  0  0  0  0  0  0  0  0  0  0  0
   16.6296  -13.0794  -16.4654 C   0  0  2  0  0  0  0  0  0  0  0  0
   15.2302  -12.9310  -16.1218 N   0  0  0  0  0  0  0  0  0  0  0  0
   17.2259  -11.7846  -16.8833 C   0  0  0  0  0  0  0  0  0  0  0  0
   17.9086  -11.7506  -17.9306 O   0  0  0  0  0  0  0  0  0  0  0  0
   17.0551  -10.5982  -16.1521 N   0  0  0  0  0  0  0  0  0  0  0  0
   17.5924   -9.2917  -16.5995 C   0  0  1  0  0  0  0  0  0  0  0  0
   16.4213   -8.4049  -16.7472 C   0  0  0  0  0  0  0  0  0  0  0  0
   16.6444   -7.0219  -17.1501 C   0  0  0  0  0  0  0  0  0  0  0  0
   17.4342   -6.5799  -17.9968 O   0  0  0  0  0  0  0  0  0  0  0  0
   18.6395   -8.8348  -15.6662 C   0  0  0  0  0  0  0  0  0  0  0  0
   18.4245   -8.8185  -14.4324 O   0  0  0  0  0  0  0  0  0  0  0  0
   15.8348   -6.0845  -16.4632 O   0  0  0  0  0  0  0  0  0  0  0  0
   23.8039  -10.5960  -15.1604 C   0  0  0  0  0  0  0  0  0  0  0  0
   22.5327   -9.9142  -14.7614 C   0  0  1  0  0  0  0  0  0  0  0  0
   22.3840   -9.9618  -13.2412 C   0  0  0  0  0  0  0  0  0  0  0  0
   22.2137   -8.6080  -15.3344 C   0  0  0  0  0  0  0  0  0  0  0  0
   20.9478   -7.9122  -15.1196 C   0  0  2  0  0  0  0  0  0  0  0  0
   19.9248   -8.3949  -16.0835 N   0  0  0  0  0  0  0  0  0  0  0  0
   20.9514   -6.4605  -15.2283 C   0  0  0  0  0  0  0  0  0  0  0  0
   20.3028   -5.6957  -16.2007 O   0  0  0  0  0  0  0  0  0  0  0  0
   21.6146   -5.7899  -14.3599 O   0  0  0  0  0  0  0  0  0  0  0  0
  2  1  1  6
  2  4  1  0
  3  2  1  0
  4  6  1  0
  4  5  2  0
  6  7  1  0
  7 11  1  0
  7  8  1  1
  9  8  1  0
 10  9  2  0
 11 12  2  0
 11 19  1  0
 13  9  1  0
 15 14  1  1
 16 15  1  0
 18 17  1  6
 17 15  1  0
 18 20  1  0
 19 18  1  0
 20 21  1  0
 22 20  2  0
M  END
$$$$
