ADL.pdb
     RDKit          3D

 22 21  0  0  1  0  0  0  0  0999 V2000
   29.0435  -18.9534  -14.7628 C   0  0  0  0  0  0  0  0  0  0  0  0
   28.0762  -20.1016  -14.5797 C   0  0  2  0  0  0  0  0  0  0  0  0
   27.3551  -20.3099  -15.8186 N   0  0  0  0  0  0  0  0  0  0  0  0
   27.1557  -19.7444  -13.4697 C   0  0  0  0  0  0  0  0  0  0  0  0
   26.7431  -18.5665  -13.3903 O   0  0  0  0  0  0  0  0  0  0  0  0
   26.7300  -20.6733  -12.5069 N   0  0  0  0  0  0  0  0  0  0  0  0
   25.6125  -20.4083  -11.5705 C   0  0  1  0  0  0  0  0  0  0  0  0
   24.4037  -20.9475  -12.2245 C   0  0  0  0  0  0  0  0  0  0  0  0
   23.6214  -20.0604  -13.0766 C   0  0  0  0  0  0  0  0  0  0  0  0
   23.4562  -18.8362  -12.9751 O   0  0  0  0  0  0  0  0  0  0  0  0
   25.9323  -20.9603  -10.2403 C   0  0  0  0  0  0  0  0  0  0  0  0
   26.1864  -22.1793  -10.1052 O   0  0  0  0  0  0  0  0  0  0  0  0
   22.9779  -20.7169  -14.1540 O   0  0  0  0  0  0  0  0  0  0  0  0
   28.5343  -18.3340   -5.8115 C   0  0  0  0  0  0  0  0  0  0  0  0
   28.0894  -19.3898   -6.7747 C   0  0  1  0  0  0  0  0  0  0  0  0
   29.0738  -20.5582   -6.7410 C   0  0  0  0  0  0  0  0  0  0  0  0
   26.6899  -19.8109   -6.7749 C   0  0  0  0  0  0  0  0  0  0  0  0
   26.1335  -20.7860   -7.7091 C   0  0  2  0  0  0  0  0  0  0  0  0
   25.9743  -20.1770   -9.0553 N   0  0  0  0  0  0  0  0  0  0  0  0
   24.8441  -21.3751   -7.3777 C   0  0  0  0  0  0  0  0  0  0  0  0
   24.6005  -22.3651   -6.4229 O   0  0  0  0  0  0  0  0  0  0  0  0
   23.8100  -20.9669   -8.0161 O   0  0  0  0  0  0  0  0  0  0  0  0
  2  1  1  6
  2  4  1  0
  3  2  1  0
  4  6  1  0
  4  5  2  0
  6  7  1  0
  7 11  1  0
  7  8  1  6
  9  8  1  0
 10  9  2  0
 11 12  2  0
 11 19  1  0
 13  9  1  0
 15 14  1  1
 16 15  1  0
 18 17  1  1
 17 15  1  0
 18 20  1  0
 19 18  1  0
 20 21  1  0
 22 20  2  0
M  END
$$$$
