ADL.pdb
     RDKit          3D

 22 21  0  0  1  0  0  0  0  0999 V2000
   16.5320  -12.5075  -16.1406 C   0  0  0  0  0  0  0  0  0  0  0  0
   16.1519  -12.4682  -14.6772 C   0  0  2  0  0  0  0  0  0  0  0  0
   14.7312  -12.2072  -14.5682 N   0  0  0  0  0  0  0  0  0  0  0  0
   16.9516  -11.3959  -14.0311 C   0  0  0  0  0  0  0  0  0  0  0  0
   18.1992  -11.4711  -14.0751 O   0  0  0  0  0  0  0  0  0  0  0  0
   16.3658  -10.3024  -13.3736 N   0  0  0  0  0  0  0  0  0  0  0  0
   17.1501   -9.1503  -12.8704 C   0  0  1  0  0  0  0  0  0  0  0  0
   17.7366   -8.5110  -14.0649 C   0  0  0  0  0  0  0  0  0  0  0  0
   18.5080   -7.2867  -13.8887 C   0  0  0  0  0  0  0  0  0  0  0  0
   18.4387   -6.2288  -14.5307 O   0  0  0  0  0  0  0  0  0  0  0  0
   16.2954   -8.2924  -12.0280 C   0  0  0  0  0  0  0  0  0  0  0  0
   15.1702   -7.9238  -12.4366 O   0  0  0  0  0  0  0  0  0  0  0  0
   19.4530   -7.3483  -12.8357 O   0  0  0  0  0  0  0  0  0  0  0  0
   12.8783   -6.5105   -8.6507 C   0  0  0  0  0  0  0  0  0  0  0  0
   14.0465   -7.2173   -8.0376 C   0  0  1  0  0  0  0  0  0  0  0  0
   13.5471   -8.2240   -7.0019 C   0  0  0  0  0  0  0  0  0  0  0  0
   15.0935   -7.7509   -8.9066 C   0  0  0  0  0  0  0  0  0  0  0  0
   15.7928   -6.9619   -9.9172 C   0  0  2  0  0  0  0  0  0  0  0  0
   16.6723   -7.8366  -10.7358 N   0  0  0  0  0  0  0  0  0  0  0  0
   16.6322   -5.8667   -9.4532 C   0  0  0  0  0  0  0  0  0  0  0  0
   16.2319   -4.5478   -9.2264 O   0  0  0  0  0  0  0  0  0  0  0  0
   17.8712   -6.1070   -9.2278 O   0  0  0  0  0  0  0  0  0  0  0  0
  2  1  1  6
  2  4  1  0
  3  2  1  0
  4  6  1  0
  4  5  2  0
  6  7  1  0
  7 11  1  0
  7  8  1  6
  9  8  1  0
 10  9  2  0
 11 12  2  0
 11 19  1  0
 13  9  1  0
 15 14  1  6
 16 15  1  0
 18 17  1  1
 17 15  1  0
 18 20  1  0
 19 18  1  0
 20 21  1  0
 22 20  2  0
M  END
$$$$
