ADL.pdb
     RDKit          3D

 22 21  0  0  1  0  0  0  0  0999 V2000
   16.4186  -11.9885  -21.5830 C   0  0  0  0  0  0  0  0  0  0  0  0
   17.1083  -12.5824  -20.3751 C   0  0  2  0  0  0  0  0  0  0  0  0
   16.6799  -13.9573  -20.2189 N   0  0  0  0  0  0  0  0  0  0  0  0
   16.7379  -11.7612  -19.1938 C   0  0  0  0  0  0  0  0  0  0  0  0
   15.5905  -11.2660  -19.1456 O   0  0  0  0  0  0  0  0  0  0  0  0
   17.6215  -11.5180  -18.1302 N   0  0  0  0  0  0  0  0  0  0  0  0
   17.2435  -10.7316  -16.9325 C   0  0  1  0  0  0  0  0  0  0  0  0
   17.5871  -11.5769  -15.7719 C   0  0  0  0  0  0  0  0  0  0  0  0
   16.5115  -12.2766  -15.0801 C   0  0  0  0  0  0  0  0  0  0  0  0
   16.3143  -13.4968  -14.9892 O   0  0  0  0  0  0  0  0  0  0  0  0
   17.8852   -9.4043  -16.9820 C   0  0  0  0  0  0  0  0  0  0  0  0
   19.0711   -9.2885  -17.3681 O   0  0  0  0  0  0  0  0  0  0  0  0
   15.5865  -11.4182  -14.4372 O   0  0  0  0  0  0  0  0  0  0  0  0
   15.6052   -5.1449  -19.4224 C   0  0  0  0  0  0  0  0  0  0  0  0
   16.6747   -6.0266  -18.8576 C   0  0  1  0  0  0  0  0  0  0  0  0
   17.9085   -5.9720  -19.7576 C   0  0  0  0  0  0  0  0  0  0  0  0
   16.9918   -5.9403  -17.4335 C   0  0  0  0  0  0  0  0  0  0  0  0
   17.8781   -6.8707  -16.7392 C   0  0  2  0  0  0  0  0  0  0  0  0
   17.2282   -8.2008  -16.6085 N   0  0  0  0  0  0  0  0  0  0  0  0
   18.3220   -6.5054  -15.4017 C   0  0  0  0  0  0  0  0  0  0  0  0
   19.3467   -5.6129  -15.0782 O   0  0  0  0  0  0  0  0  0  0  0  0
   17.7346   -7.0477  -14.3996 O   0  0  0  0  0  0  0  0  0  0  0  0
  2  1  1  6
  2  4  1  0
  3  2  1  0
  4  6  1  0
  4  5  2  0
  6  7  1  0
  7 11  1  0
  7  8  1  1
  9  8  1  0
 10  9  2  0
 11 12  2  0
 11 19  1  0
 13  9  1  0
 15 14  1  6
 16 15  1  0
 18 17  1  1
 17 15  1  0
 18 20  1  0
 19 18  1  0
 20 21  1  0
 22 20  2  0
M  END
$$$$
