ADL.pdb
     RDKit          3D

 22 21  0  0  1  0  0  0  0  0999 V2000
   13.1882  -11.7888  -13.8997 C   0  0  0  0  0  0  0  0  0  0  0  0
   14.6090  -11.9926  -14.3768 C   0  0  2  0  0  0  0  0  0  0  0  0
   14.9354  -13.4013  -14.2904 N   0  0  0  0  0  0  0  0  0  0  0  0
   15.4979  -11.1757  -13.5113 C   0  0  0  0  0  0  0  0  0  0  0  0
   15.7989  -11.6145  -12.3795 O   0  0  0  0  0  0  0  0  0  0  0  0
   16.0139   -9.9324  -13.9105 N   0  0  0  0  0  0  0  0  0  0  0  0
   16.8604   -9.0917  -13.0317 C   0  0  1  0  0  0  0  0  0  0  0  0
   17.8192   -8.4135  -13.9265 C   0  0  0  0  0  0  0  0  0  0  0  0
   18.7317   -7.4332  -13.3510 C   0  0  0  0  0  0  0  0  0  0  0  0
   18.6121   -6.2006  -13.2999 O   0  0  0  0  0  0  0  0  0  0  0  0
   16.0088   -8.2137  -12.2071 C   0  0  0  0  0  0  0  0  0  0  0  0
   15.0465   -7.5995  -12.7224 O   0  0  0  0  0  0  0  0  0  0  0  0
   19.8999   -7.9979  -12.7833 O   0  0  0  0  0  0  0  0  0  0  0  0
   12.3826   -6.6721   -8.8330 C   0  0  0  0  0  0  0  0  0  0  0  0
   13.5614   -7.3068   -8.1639 C   0  0  1  0  0  0  0  0  0  0  0  0
   13.0760   -8.2655   -7.0775 C   0  0  0  0  0  0  0  0  0  0  0  0
   14.6363   -7.8588   -8.9861 C   0  0  0  0  0  0  0  0  0  0  0  0
   15.3436   -7.1025  -10.0160 C   0  0  2  0  0  0  0  0  0  0  0  0
   16.2102   -8.0072  -10.8156 N   0  0  0  0  0  0  0  0  0  0  0  0
   16.1979   -6.0077   -9.5790 C   0  0  0  0  0  0  0  0  0  0  0  0
   17.5899   -6.0307   -9.4649 O   0  0  0  0  0  0  0  0  0  0  0  0
   15.6423   -4.8992   -9.2531 O   0  0  0  0  0  0  0  0  0  0  0  0
  2  1  1  1
  2  4  1  0
  3  2  1  0
  4  6  1  0
  4  5  2  0
  6  7  1  0
  7 11  1  0
  7  8  1  6
  9  8  1  0
 10  9  2  0
 11 12  2  0
 11 19  1  0
 13  9  1  0
 15 14  1  6
 16 15  1  0
 18 17  1  1
 17 15  1  0
 18 20  1  0
 19 18  1  0
 20 21  1  0
 22 20  2  0
M  END
$$$$
