ADL.pdb
     RDKit          3D

 22 21  0  0  1  0  0  0  0  0999 V2000
   26.3186  -17.5729  -19.4500 C   0  0  0  0  0  0  0  0  0  0  0  0
   26.2556  -18.6960  -18.4390 C   0  0  2  0  0  0  0  0  0  0  0  0
   25.9809  -19.9374  -19.1331 N   0  0  0  0  0  0  0  0  0  0  0  0
   25.1812  -18.3691  -17.4666 C   0  0  0  0  0  0  0  0  0  0  0  0
   25.3172  -17.3586  -16.7423 O   0  0  0  0  0  0  0  0  0  0  0  0
   24.0204  -19.1464  -17.3268 N   0  0  0  0  0  0  0  0  0  0  0  0
   22.9902  -18.8779  -16.2961 C   0  0  1  0  0  0  0  0  0  0  0  0
   21.7068  -18.7994  -17.0217 C   0  0  0  0  0  0  0  0  0  0  0  0
   20.4767  -18.6935  -16.2467 C   0  0  0  0  0  0  0  0  0  0  0  0
   19.4750  -19.4225  -16.2808 O   0  0  0  0  0  0  0  0  0  0  0  0
   23.0723  -19.8937  -15.2295 C   0  0  0  0  0  0  0  0  0  0  0  0
   23.1098  -21.1121  -15.5173 O   0  0  0  0  0  0  0  0  0  0  0  0
   20.4569  -17.6017  -15.3448 O   0  0  0  0  0  0  0  0  0  0  0  0
   25.8447  -22.0568  -11.5138 C   0  0  0  0  0  0  0  0  0  0  0  0
   24.8708  -21.1113  -10.8831 C   0  0  1  0  0  0  0  0  0  0  0  0
   25.5273  -20.4276   -9.6844 C   0  0  0  0  0  0  0  0  0  0  0  0
   24.1164  -20.1923  -11.7331 C   0  0  0  0  0  0  0  0  0  0  0  0
   23.2112  -20.6232  -12.7951 C   0  0  2  0  0  0  0  0  0  0  0  0
   23.1135  -19.5760  -13.8450 N   0  0  0  0  0  0  0  0  0  0  0  0
   21.8424  -20.9486  -12.4211 C   0  0  0  0  0  0  0  0  0  0  0  0
   21.3154  -22.2259  -12.2161 O   0  0  0  0  0  0  0  0  0  0  0  0
   21.0123  -19.9845  -12.2634 O   0  0  0  0  0  0  0  0  0  0  0  0
  2  1  1  6
  2  4  1  0
  3  2  1  0
  4  6  1  0
  4  5  2  0
  6  7  1  0
  7 11  1  0
  7  8  1  6
  9  8  1  0
 10  9  2  0
 11 12  2  0
 11 19  1  0
 13  9  1  0
 15 14  1  6
 16 15  1  0
 18 17  1  1
 17 15  1  0
 18 20  1  0
 19 18  1  0
 20 21  1  0
 22 20  2  0
M  END
$$$$
