ADL.pdb
     RDKit          3D

 22 21  0  0  1  0  0  0  0  0999 V2000
   27.9584  -19.8507  -17.0748 C   0  0  0  0  0  0  0  0  0  0  0  0
   26.9830  -20.2678  -15.9968 C   0  0  2  0  0  0  0  0  0  0  0  0
   27.2148  -21.6592  -15.6669 N   0  0  0  0  0  0  0  0  0  0  0  0
   25.6100  -20.0565  -16.5232 C   0  0  0  0  0  0  0  0  0  0  0  0
   25.2608  -18.8968  -16.8349 O   0  0  0  0  0  0  0  0  0  0  0  0
   24.6888  -21.1036  -16.6851 N   0  0  0  0  0  0  0  0  0  0  0  0
   23.3004  -20.8894  -17.1565 C   0  0  1  0  0  0  0  0  0  0  0  0
   22.9556  -22.0869  -17.9483 C   0  0  0  0  0  0  0  0  0  0  0  0
   23.6105  -22.2794  -19.2363 C   0  0  0  0  0  0  0  0  0  0  0  0
   23.9282  -23.3405  -19.7924 O   0  0  0  0  0  0  0  0  0  0  0  0
   22.4218  -20.5947  -16.0087 C   0  0  0  0  0  0  0  0  0  0  0  0
   22.5447  -21.2318  -14.9374 O   0  0  0  0  0  0  0  0  0  0  0  0
   23.9094  -21.0734  -19.9161 O   0  0  0  0  0  0  0  0  0  0  0  0
   19.9398  -17.4966  -12.1543 C   0  0  0  0  0  0  0  0  0  0  0  0
   19.6172  -17.2676  -13.5978 C   0  0  1  0  0  0  0  0  0  0  0  0
   19.3600  -15.7797  -13.8329 C   0  0  0  0  0  0  0  0  0  0  0  0
   20.4608  -17.8790  -14.6228 C   0  0  0  0  0  0  0  0  0  0  0  0
   20.5467  -19.3185  -14.8540 C   0  0  2  0  0  0  0  0  0  0  0  0
   21.4066  -19.6005  -16.0328 N   0  0  0  0  0  0  0  0  0  0  0  0
   19.3020  -20.0386  -15.0811 C   0  0  0  0  0  0  0  0  0  0  0  0
   18.4645  -20.5843  -14.1053 O   0  0  0  0  0  0  0  0  0  0  0  0
   18.9136  -20.2098  -16.2908 O   0  0  0  0  0  0  0  0  0  0  0  0
  2  1  1  6
  2  4  1  0
  3  2  1  0
  4  6  1  0
  4  5  2  0
  6  7  1  0
  7 11  1  0
  7  8  1  1
  9  8  1  0
 10  9  2  0
 11 12  2  0
 11 19  1  0
 13  9  1  0
 15 14  1  1
 16 15  1  0
 18 17  1  6
 17 15  1  0
 18 20  1  0
 19 18  1  0
 20 21  1  0
 22 20  2  0
M  END
$$$$
