ADL.pdb
     RDKit          3D

 22 21  0  0  1  0  0  0  0  0999 V2000
   16.5738   -8.3630  -20.6896 C   0  0  0  0  0  0  0  0  0  0  0  0
   17.8373   -8.4905  -19.8682 C   0  0  2  0  0  0  0  0  0  0  0  0
   18.3796   -9.8220  -20.0449 N   0  0  0  0  0  0  0  0  0  0  0  0
   17.4817   -8.2334  -18.4490 C   0  0  0  0  0  0  0  0  0  0  0  0
   17.0325   -7.1081  -18.1392 O   0  0  0  0  0  0  0  0  0  0  0  0
   17.6288   -9.2003  -17.4416 N   0  0  0  0  0  0  0  0  0  0  0  0
   17.3324   -8.9293  -16.0153 C   0  0  1  0  0  0  0  0  0  0  0  0
   16.6074  -10.1173  -15.5227 C   0  0  0  0  0  0  0  0  0  0  0  0
   15.3007  -10.4192  -16.0941 C   0  0  0  0  0  0  0  0  0  0  0  0
   14.3154   -9.6762  -16.2090 O   0  0  0  0  0  0  0  0  0  0  0  0
   18.5770   -8.5858  -15.3017 C   0  0  0  0  0  0  0  0  0  0  0  0
   18.5497   -8.3012  -14.0823 O   0  0  0  0  0  0  0  0  0  0  0  0
   15.1742  -11.7465  -16.5718 O   0  0  0  0  0  0  0  0  0  0  0  0
   22.2723  -10.4476  -13.2751 C   0  0  0  0  0  0  0  0  0  0  0  0
   22.9549   -9.8387  -14.4598 C   0  0  1  0  0  0  0  0  0  0  0  0
   23.9554  -10.8371  -15.0407 C   0  0  0  0  0  0  0  0  0  0  0  0
   22.1510   -9.1650  -15.4776 C   0  0  0  0  0  0  0  0  0  0  0  0
   21.0907   -8.2073  -15.1750 C   0  0  2  0  0  0  0  0  0  0  0  0
   19.8545   -8.5539  -15.9235 N   0  0  0  0  0  0  0  0  0  0  0  0
   21.3524   -6.8031  -15.4563 C   0  0  0  0  0  0  0  0  0  0  0  0
   20.7047   -6.0081  -16.4048 O   0  0  0  0  0  0  0  0  0  0  0  0
   22.2702   -6.2117  -14.7843 O   0  0  0  0  0  0  0  0  0  0  0  0
  2  1  1  6
  2  4  1  0
  3  2  1  0
  4  6  1  0
  4  5  2  0
  6  7  1  0
  7 11  1  0
  7  8  1  1
  9  8  1  0
 10  9  2  0
 11 12  2  0
 11 19  1  0
 13  9  1  0
 15 14  1  1
 16 15  1  0
 18 17  1  6
 17 15  1  0
 18 20  1  0
 19 18  1  0
 20 21  1  0
 22 20  2  0
M  END
$$$$
