ADL.pdb
     RDKit          3D

 22 21  0  0  1  0  0  0  0  0999 V2000
   12.0620  -12.3483  -13.2857 C   0  0  0  0  0  0  0  0  0  0  0  0
   13.3118  -12.9039  -13.9313 C   0  0  2  0  0  0  0  0  0  0  0  0
   13.4099  -14.3164  -13.6254 N   0  0  0  0  0  0  0  0  0  0  0  0
   14.4727  -12.1502  -13.3918 C   0  0  0  0  0  0  0  0  0  0  0  0
   14.8589  -12.3986  -12.2285 O   0  0  0  0  0  0  0  0  0  0  0  0
   15.1537  -11.1712  -14.1327 N   0  0  0  0  0  0  0  0  0  0  0  0
   16.2520  -10.3523  -13.5679 C   0  0  1  0  0  0  0  0  0  0  0  0
   17.1762  -10.0912  -14.6892 C   0  0  0  0  0  0  0  0  0  0  0  0
   18.0276  -11.1790  -15.1546 C   0  0  0  0  0  0  0  0  0  0  0  0
   18.3875  -12.1959  -14.5443 O   0  0  0  0  0  0  0  0  0  0  0  0
   15.6951   -9.1635  -12.8949 C   0  0  0  0  0  0  0  0  0  0  0  0
   14.6588   -8.6144  -13.3348 O   0  0  0  0  0  0  0  0  0  0  0  0
   18.4871  -11.0215  -16.4850 O   0  0  0  0  0  0  0  0  0  0  0  0
   13.5974   -5.8243   -9.1042 C   0  0  0  0  0  0  0  0  0  0  0  0
   14.9498   -6.4229   -8.8746 C   0  0  1  0  0  0  0  0  0  0  0  0
   15.1227   -6.7373   -7.3891 C   0  0  0  0  0  0  0  0  0  0  0  0
   15.4129   -7.4962   -9.7519 C   0  0  0  0  0  0  0  0  0  0  0  0
   15.7623   -7.3052  -11.1570 C   0  0  2  0  0  0  0  0  0  0  0  0
   16.2728   -8.5742  -11.7380 N   0  0  0  0  0  0  0  0  0  0  0  0
   16.7566   -6.2891  -11.4707 C   0  0  0  0  0  0  0  0  0  0  0  0
   16.5200   -4.9292  -11.6847 O   0  0  0  0  0  0  0  0  0  0  0  0
   17.9818   -6.6523  -11.5734 O   0  0  0  0  0  0  0  0  0  0  0  0
  2  1  1  1
  2  4  1  0
  3  2  1  0
  4  6  1  0
  4  5  2  0
  6  7  1  0
  7 11  1  0
  7  8  1  6
  9  8  1  0
 10  9  2  0
 11 12  2  0
 11 19  1  0
 13  9  1  0
 15 14  1  1
 16 15  1  0
 18 17  1  1
 17 15  1  0
 18 20  1  0
 19 18  1  0
 20 21  1  0
 22 20  2  0
M  END
$$$$
