ADL.pdb
     RDKit          3D

 22 21  0  0  1  0  0  0  0  0999 V2000
   21.5317  -15.7805  -15.5228 C   0  0  0  0  0  0  0  0  0  0  0  0
   21.0268  -15.6175  -16.9391 C   0  0  2  0  0  0  0  0  0  0  0  0
   21.7383  -16.5400  -17.8000 N   0  0  0  0  0  0  0  0  0  0  0  0
   21.2617  -14.2074  -17.3432 C   0  0  0  0  0  0  0  0  0  0  0  0
   22.3859  -13.8931  -17.7920 O   0  0  0  0  0  0  0  0  0  0  0  0
   20.2751  -13.2136  -17.2423 N   0  0  0  0  0  0  0  0  0  0  0  0
   20.5206  -11.7957  -17.5958 C   0  0  1  0  0  0  0  0  0  0  0  0
   19.2525  -11.2980  -18.1649 C   0  0  0  0  0  0  0  0  0  0  0  0
   19.2225   -9.9504  -18.7199 C   0  0  0  0  0  0  0  0  0  0  0  0
   19.8951   -8.9626  -18.3915 O   0  0  0  0  0  0  0  0  0  0  0  0
   21.0345  -11.0683  -16.4198 C   0  0  0  0  0  0  0  0  0  0  0  0
   20.4739  -11.1887  -15.3062 O   0  0  0  0  0  0  0  0  0  0  0  0
   18.2899   -9.7821  -19.7724 O   0  0  0  0  0  0  0  0  0  0  0  0
   26.4026  -10.6528  -15.1418 C   0  0  0  0  0  0  0  0  0  0  0  0
   24.9189  -10.7048  -14.9516 C   0  0  1  0  0  0  0  0  0  0  0  0
   24.6000  -11.3490  -13.6031 C   0  0  0  0  0  0  0  0  0  0  0  0
   24.1224   -9.5106  -15.2263 C   0  0  0  0  0  0  0  0  0  0  0  0
   22.6623   -9.4952  -15.2562 C   0  0  2  0  0  0  0  0  0  0  0  0
   22.1644  -10.2074  -16.4619 N   0  0  0  0  0  0  0  0  0  0  0  0
   22.0032   -8.1972  -15.2535 C   0  0  0  0  0  0  0  0  0  0  0  0
   21.7156   -7.4106  -14.1355 O   0  0  0  0  0  0  0  0  0  0  0  0
   21.6322   -7.7041  -16.3772 O   0  0  0  0  0  0  0  0  0  0  0  0
  2  1  1  1
  2  4  1  0
  3  2  1  0
  4  6  1  0
  4  5  2  0
  6  7  1  0
  7 11  1  0
  7  8  1  1
  9  8  1  0
 10  9  2  0
 11 12  2  0
 11 19  1  0
 13  9  1  0
 15 14  1  1
 16 15  1  0
 18 17  1  6
 17 15  1  0
 18 20  1  0
 19 18  1  0
 20 21  1  0
 22 20  2  0
M  END
$$$$
