ADL.pdb
     RDKit          3D

 22 21  0  0  1  0  0  0  0  0999 V2000
   28.9465  -21.1774  -15.8952 C   0  0  0  0  0  0  0  0  0  0  0  0
   27.4899  -21.5771  -15.9736 C   0  0  2  0  0  0  0  0  0  0  0  0
   26.9806  -21.2393  -17.2869 N   0  0  0  0  0  0  0  0  0  0  0  0
   26.7623  -20.8455  -14.9049 C   0  0  0  0  0  0  0  0  0  0  0  0
   26.8900  -19.6032  -14.8368 O   0  0  0  0  0  0  0  0  0  0  0  0
   25.9378  -21.4899  -13.9688 N   0  0  0  0  0  0  0  0  0  0  0  0
   25.1306  -20.7559  -12.9660 C   0  0  1  0  0  0  0  0  0  0  0  0
   23.7208  -20.9831  -13.3408 C   0  0  0  0  0  0  0  0  0  0  0  0
   22.6775  -20.4352  -12.4826 C   0  0  0  0  0  0  0  0  0  0  0  0
   22.7670  -19.5399  -11.6303 O   0  0  0  0  0  0  0  0  0  0  0  0
   25.5173  -21.1774  -11.6063 C   0  0  0  0  0  0  0  0  0  0  0  0
   25.5793  -22.3939  -11.3142 O   0  0  0  0  0  0  0  0  0  0  0  0
   21.4051  -21.0270  -12.6740 O   0  0  0  0  0  0  0  0  0  0  0  0
   28.9534  -20.7783   -7.2791 C   0  0  0  0  0  0  0  0  0  0  0  0
   27.7190  -19.9319   -7.2679 C   0  0  1  0  0  0  0  0  0  0  0  0
   27.9870  -18.6499   -6.4806 C   0  0  0  0  0  0  0  0  0  0  0  0
   26.9992  -19.7039   -8.5193 C   0  0  0  0  0  0  0  0  0  0  0  0
   26.2031  -20.7232   -9.1976 C   0  0  2  0  0  0  0  0  0  0  0  0
   25.8370  -20.2663  -10.5636 N   0  0  0  0  0  0  0  0  0  0  0  0
   24.9595  -21.1373   -8.5640 C   0  0  0  0  0  0  0  0  0  0  0  0
   24.8035  -22.1547   -7.6197 O   0  0  0  0  0  0  0  0  0  0  0  0
   23.8806  -20.5274   -8.8918 O   0  0  0  0  0  0  0  0  0  0  0  0
  2  1  1  6
  2  4  1  0
  3  2  1  0
  4  6  1  0
  4  5  2  0
  6  7  1  0
  7 11  1  0
  7  8  1  6
  9  8  1  0
 10  9  2  0
 11 12  2  0
 11 19  1  0
 13  9  1  0
 15 14  1  6
 16 15  1  0
 18 17  1  1
 17 15  1  0
 18 20  1  0
 19 18  1  0
 20 21  1  0
 22 20  2  0
M  END
$$$$
