ADL.pdb
     RDKit          3D

 22 21  0  0  1  0  0  0  0  0999 V2000
   15.2921  -13.3429  -18.3196 C   0  0  0  0  0  0  0  0  0  0  0  0
   15.8969  -12.8708  -17.0162 C   0  0  2  0  0  0  0  0  0  0  0  0
   14.8297  -12.4812  -16.1175 N   0  0  0  0  0  0  0  0  0  0  0  0
   16.7934  -11.7265  -17.3222 C   0  0  0  0  0  0  0  0  0  0  0  0
   17.7861  -11.9241  -18.0568 O   0  0  0  0  0  0  0  0  0  0  0  0
   16.5730  -10.4335  -16.8216 N   0  0  0  0  0  0  0  0  0  0  0  0
   17.4784   -9.2949  -17.1040 C   0  0  1  0  0  0  0  0  0  0  0  0
   16.6054   -8.1127  -17.2453 C   0  0  0  0  0  0  0  0  0  0  0  0
   15.9223   -7.9023  -18.5157 C   0  0  0  0  0  0  0  0  0  0  0  0
   16.3120   -8.1784  -19.6594 O   0  0  0  0  0  0  0  0  0  0  0  0
   18.5195   -9.2128  -16.0621 C   0  0  0  0  0  0  0  0  0  0  0  0
   18.2112   -9.2976  -14.8510 O   0  0  0  0  0  0  0  0  0  0  0  0
   14.6463   -7.3005  -18.3904 O   0  0  0  0  0  0  0  0  0  0  0  0
   22.8852  -10.6380  -13.2722 C   0  0  0  0  0  0  0  0  0  0  0  0
   23.1417  -10.1595  -14.6670 C   0  0  1  0  0  0  0  0  0  0  0  0
   24.2471  -11.0035  -15.3004 C   0  0  0  0  0  0  0  0  0  0  0  0
   22.0088   -9.9239  -15.5598 C   0  0  0  0  0  0  0  0  0  0  0  0
   20.9285   -8.9839  -15.2731 C   0  0  2  0  0  0  0  0  0  0  0  0
   19.9010   -9.0375  -16.3455 N   0  0  0  0  0  0  0  0  0  0  0  0
   21.2813   -7.5795  -15.1223 C   0  0  0  0  0  0  0  0  0  0  0  0
   21.5624   -6.9143  -13.9267 O   0  0  0  0  0  0  0  0  0  0  0  0
   21.3415   -6.8537  -16.1774 O   0  0  0  0  0  0  0  0  0  0  0  0
  2  1  1  6
  2  4  1  0
  3  2  1  0
  4  6  1  0
  4  5  2  0
  6  7  1  0
  7 11  1  0
  7  8  1  1
  9  8  1  0
 10  9  2  0
 11 12  2  0
 11 19  1  0
 13  9  1  0
 15 14  1  1
 16 15  1  0
 18 17  1  6
 17 15  1  0
 18 20  1  0
 19 18  1  0
 20 21  1  0
 22 20  2  0
M  END
$$$$
