CIR.pdb
     RDKit          3D

 26 25  0  0  1  0  0  0  0  0999 V2000
   27.9782  -22.5782  -16.3964 N   0  0  0  0  0  0  0  0  0  0  0  0
   27.7728  -21.3305  -15.6888 C   0  0  1  0  0  0  0  0  0  0  0  0
   27.3420  -20.2500  -16.6213 C   0  0  0  0  0  0  0  0  0  0  0  0
   28.7045  -19.9584  -17.8060 S   0  0  0  0  0  0  0  0  0  0  0  0
   26.9269  -21.5407  -14.5286 C   0  0  0  0  0  0  0  0  0  0  0  0
   25.9995  -22.3854  -14.5951 O   0  0  0  0  0  0  0  0  0  0  0  0
   28.8769  -21.3191   -9.4968 C   0  0  0  0  0  0  0  0  0  0  0  0
   28.1142  -21.7754  -10.7107 C   0  0  0  0  0  0  0  0  0  0  0  0
   26.8830  -20.9350  -10.8392 C   0  0  2  0  0  0  0  0  0  0  0  0
   25.9361  -21.2875   -9.7163 C   0  0  0  0  0  0  0  0  0  0  0  0
   26.1840  -21.0908  -12.1667 C   0  0  2  0  0  0  0  0  0  0  0  0
   27.0697  -20.8471  -13.2903 N   0  0  0  0  0  0  0  0  0  0  0  0
   25.0065  -20.1885  -12.2652 C   0  0  0  0  0  0  0  0  0  0  0  0
   25.1388  -19.0355  -12.7987 O   0  0  0  0  0  0  0  0  0  0  0  0
   19.2890  -20.2750  -16.8153 N   0  0  0  0  0  0  0  0  0  0  0  0
   19.6339  -18.9288  -17.0896 C   0  0  0  0  0  0  0  0  0  0  0  0
   18.7689  -18.1475  -17.6108 N   0  0  0  0  0  0  0  0  0  0  0  0
   20.9338  -18.4622  -16.7833 N   0  0  0  0  0  0  0  0  0  0  0  0
   21.9320  -19.3242  -16.1799 C   0  0  0  0  0  0  0  0  0  0  0  0
   21.6409  -19.4206  -14.6846 C   0  0  0  0  0  0  0  0  0  0  0  0
   22.8318  -19.8913  -13.9238 C   0  0  0  0  0  0  0  0  0  0  0  0
   22.5332  -20.0467  -12.4559 C   0  0  2  0  0  0  0  0  0  0  0  0
   23.7256  -20.5673  -11.7820 N   0  0  0  0  0  0  0  0  0  0  0  0
   21.4244  -20.9717  -12.1685 C   0  0  0  0  0  0  0  0  0  0  0  0
   20.1103  -20.4689  -12.2446 O   0  0  0  0  0  0  0  0  0  0  0  0
   21.5728  -22.1935  -11.8563 O   0  0  0  0  0  0  0  0  0  0  0  0
  2  3  1  0
  2  1  1  6
  4  3  1  0
  5  2  1  0
  6  5  2  0
  7  8  1  0
  9  8  1  0
  9 11  1  0
  9 10  1  1
 11 12  1  6
 12  5  1  0
 13 11  1  0
 13 14  2  0
 16 17  2  0
 16 15  1  0
 18 16  1  0
 19 18  1  0
 20 21  1  0
 20 19  1  0
 22 21  1  6
 22 23  1  0
 23 13  1  0
 24 22  1  0
 25 24  1  0
 26 24  2  0
M  END
$$$$
