CIR.pdb
     RDKit          3D

 26 25  0  0  1  0  0  0  0  0999 V2000
   28.6806  -21.0074  -15.1911 N   0  0  0  0  0  0  0  0  0  0  0  0
   27.9713  -20.0404  -14.3780 C   0  0  1  0  0  0  0  0  0  0  0  0
   27.4645  -18.9106  -15.2083 C   0  0  0  0  0  0  0  0  0  0  0  0
   28.8855  -17.8321  -15.6113 S   0  0  0  0  0  0  0  0  0  0  0  0
   26.9869  -20.7056  -13.5447 C   0  0  0  0  0  0  0  0  0  0  0  0
   26.4994  -21.7973  -13.9302 O   0  0  0  0  0  0  0  0  0  0  0  0
   26.7540  -20.0595   -8.0463 C   0  0  0  0  0  0  0  0  0  0  0  0
   26.7222  -20.8354   -9.3348 C   0  0  0  0  0  0  0  0  0  0  0  0
   25.4787  -20.4644  -10.0797 C   0  0  2  0  0  0  0  0  0  0  0  0
   24.2911  -21.0793   -9.3774 C   0  0  0  0  0  0  0  0  0  0  0  0
   25.4947  -20.8899  -11.5268 C   0  0  2  0  0  0  0  0  0  0  0  0
   26.5192  -20.2051  -12.2934 N   0  0  0  0  0  0  0  0  0  0  0  0
   24.1718  -20.6692  -12.1683 C   0  0  0  0  0  0  0  0  0  0  0  0
   23.8150  -19.4845  -12.4858 O   0  0  0  0  0  0  0  0  0  0  0  0
   18.6073  -26.2852  -15.8261 N   0  0  0  0  0  0  0  0  0  0  0  0
   19.6235  -25.4691  -16.3809 C   0  0  0  0  0  0  0  0  0  0  0  0
   20.1913  -25.8180  -17.4701 N   0  0  0  0  0  0  0  0  0  0  0  0
   20.0001  -24.2747  -15.7230 N   0  0  0  0  0  0  0  0  0  0  0  0
   19.3504  -23.8381  -14.5020 C   0  0  0  0  0  0  0  0  0  0  0  0
   19.9892  -22.5231  -14.0633 C   0  0  0  0  0  0  0  0  0  0  0  0
   21.3693  -22.7311  -13.5431 C   0  0  0  0  0  0  0  0  0  0  0  0
   21.9886  -21.4434  -13.0672 C   0  0  2  0  0  0  0  0  0  0  0  0
   23.2809  -21.7407  -12.4438 N   0  0  0  0  0  0  0  0  0  0  0  0
   21.1749  -20.7226  -12.0742 C   0  0  0  0  0  0  0  0  0  0  0  0
   20.3610  -19.6668  -12.5306 O   0  0  0  0  0  0  0  0  0  0  0  0
   21.1572  -20.9886  -10.8328 O   0  0  0  0  0  0  0  0  0  0  0  0
  2  3  1  0
  2  1  1  6
  4  3  1  0
  5  2  1  0
  6  5  2  0
  7  8  1  0
  9  8  1  0
  9 11  1  0
  9 10  1  1
 11 12  1  6
 12  5  1  0
 13 11  1  0
 13 14  2  0
 16 17  2  0
 16 15  1  0
 18 16  1  0
 19 18  1  0
 20 21  1  0
 20 19  1  0
 22 21  1  1
 22 23  1  0
 23 13  1  0
 24 22  1  0
 25 24  1  0
 26 24  2  0
M  END
$$$$
