CIR.pdb
     RDKit          3D

 26 25  0  0  1  0  0  0  0  0999 V2000
   18.2900  -14.2465  -16.2294 N   0  0  0  0  0  0  0  0  0  0  0  0
   18.4877  -12.9309  -16.8037 C   0  0  1  0  0  0  0  0  0  0  0  0
   17.2928  -12.5022  -17.5855 C   0  0  0  0  0  0  0  0  0  0  0  0
   17.0909  -13.6671  -18.9810 S   0  0  0  0  0  0  0  0  0  0  0  0
   18.9485  -12.0008  -15.7897 C   0  0  0  0  0  0  0  0  0  0  0  0
   18.6137  -12.1876  -14.5935 O   0  0  0  0  0  0  0  0  0  0  0  0
   23.9095  -10.7573  -14.7443 C   0  0  0  0  0  0  0  0  0  0  0  0
   22.4361  -11.0617  -14.7413 C   0  0  0  0  0  0  0  0  0  0  0  0
   21.6886   -9.7833  -14.9549 C   0  0  2  0  0  0  0  0  0  0  0  0
   22.0598   -8.8154  -13.8562 C   0  0  0  0  0  0  0  0  0  0  0  0
   20.1914   -9.9615  -14.9964 C   0  0  2  0  0  0  0  0  0  0  0  0
   19.7708  -10.8649  -16.0515 N   0  0  0  0  0  0  0  0  0  0  0  0
   19.4975   -8.6570  -15.1616 C   0  0  0  0  0  0  0  0  0  0  0  0
   19.5442   -8.0564  -16.2879 O   0  0  0  0  0  0  0  0  0  0  0  0
   13.2559   -6.8748   -9.6375 N   0  0  0  0  0  0  0  0  0  0  0  0
   14.5881   -6.8891   -9.1565 C   0  0  0  0  0  0  0  0  0  0  0  0
   14.8069   -6.8958   -7.8986 N   0  0  0  0  0  0  0  0  0  0  0  0
   15.6645   -6.8958  -10.0746 N   0  0  0  0  0  0  0  0  0  0  0  0
   15.4454   -6.9405  -11.5076 C   0  0  0  0  0  0  0  0  0  0  0  0
   16.8035   -6.8812  -12.2019 C   0  0  0  0  0  0  0  0  0  0  0  0
   16.6649   -6.9481  -13.6834 C   0  0  0  0  0  0  0  0  0  0  0  0
   17.9976   -6.8385  -14.3762 C   0  0  2  0  0  0  0  0  0  0  0  0
   18.7766   -8.0483  -14.0997 N   0  0  0  0  0  0  0  0  0  0  0  0
   18.8026   -5.6857  -13.9397 C   0  0  0  0  0  0  0  0  0  0  0  0
   18.3978   -4.4027  -14.3589 O   0  0  0  0  0  0  0  0  0  0  0  0
   19.8384   -5.7698  -13.2102 O   0  0  0  0  0  0  0  0  0  0  0  0
  2  3  1  0
  2  1  1  1
  4  3  1  0
  5  2  1  0
  6  5  2  0
  7  8  1  0
  9  8  1  0
  9 11  1  0
  9 10  1  1
 11 12  1  6
 12  5  1  0
 13 11  1  0
 13 14  2  0
 16 17  2  0
 16 15  1  0
 18 16  1  0
 19 18  1  0
 20 21  1  0
 20 19  1  0
 22 21  1  1
 22 23  1  0
 23 13  1  0
 24 22  1  0
 25 24  1  0
 26 24  2  0
M  END
$$$$
