CIR.pdb
     RDKit          3D

 26 25  0  0  1  0  0  0  0  0999 V2000
   29.1447  -22.2449  -15.9396 N   0  0  0  0  0  0  0  0  0  0  0  0
   28.4054  -21.4175  -16.8714 C   0  0  1  0  0  0  0  0  0  0  0  0
   27.8596  -22.2316  -17.9948 C   0  0  0  0  0  0  0  0  0  0  0  0
   29.2724  -22.9993  -18.8663 S   0  0  0  0  0  0  0  0  0  0  0  0
   27.4454  -20.5918  -16.1626 C   0  0  0  0  0  0  0  0  0  0  0  0
   26.9999  -20.9873  -15.0567 O   0  0  0  0  0  0  0  0  0  0  0  0
   27.9238  -15.2070  -16.2644 C   0  0  0  0  0  0  0  0  0  0  0  0
   27.7350  -16.6143  -15.7670 C   0  0  0  0  0  0  0  0  0  0  0  0
   26.3269  -17.0320  -16.0524 C   0  0  2  0  0  0  0  0  0  0  0  0
   25.3950  -16.2205  -15.1835 C   0  0  0  0  0  0  0  0  0  0  0  0
   26.0798  -18.5037  -15.8334 C   0  0  2  0  0  0  0  0  0  0  0  0
   26.9572  -19.3372  -16.6346 N   0  0  0  0  0  0  0  0  0  0  0  0
   24.6656  -18.8617  -16.1206 C   0  0  0  0  0  0  0  0  0  0  0  0
   24.2566  -18.8932  -17.3303 O   0  0  0  0  0  0  0  0  0  0  0  0
   17.7565  -22.8121  -11.8161 N   0  0  0  0  0  0  0  0  0  0  0  0
   17.7794  -23.1058  -13.2016 C   0  0  0  0  0  0  0  0  0  0  0  0
   17.0573  -24.0542  -13.6595 N   0  0  0  0  0  0  0  0  0  0  0  0
   18.6022  -22.3457  -14.0655 N   0  0  0  0  0  0  0  0  0  0  0  0
   19.9367  -21.9298  -13.6787 C   0  0  0  0  0  0  0  0  0  0  0  0
   20.4764  -20.9905  -14.7542 C   0  0  0  0  0  0  0  0  0  0  0  0
   21.8883  -20.6011  -14.4833 C   0  0  0  0  0  0  0  0  0  0  0  0
   22.3756  -19.5535  -15.4494 C   0  0  2  0  0  0  0  0  0  0  0  0
   23.7432  -19.1732  -15.0863 N   0  0  0  0  0  0  0  0  0  0  0  0
   21.5630  -18.3258  -15.4562 C   0  0  0  0  0  0  0  0  0  0  0  0
   20.4354  -18.2867  -16.3003 O   0  0  0  0  0  0  0  0  0  0  0  0
   21.8103  -17.2986  -14.7521 O   0  0  0  0  0  0  0  0  0  0  0  0
  2  3  1  0
  2  1  1  1
  4  3  1  0
  5  2  1  0
  6  5  2  0
  7  8  1  0
  9  8  1  0
  9 11  1  0
  9 10  1  1
 11 12  1  6
 12  5  1  0
 13 11  1  0
 13 14  2  0
 16 17  2  0
 16 15  1  0
 18 16  1  0
 19 18  1  0
 20 21  1  0
 20 19  1  0
 22 21  1  1
 22 23  1  0
 23 13  1  0
 24 22  1  0
 25 24  1  0
 26 24  2  0
M  END
$$$$
