CIR.pdb
     RDKit          3D

 26 25  0  0  1  0  0  0  0  0999 V2000
   28.1800  -21.2326  -14.2640 N   0  0  0  0  0  0  0  0  0  0  0  0
   27.6711  -20.2210  -13.3599 C   0  0  1  0  0  0  0  0  0  0  0  0
   27.1962  -19.0226  -14.1090 C   0  0  0  0  0  0  0  0  0  0  0  0
   28.6279  -18.3194  -15.0037 S   0  0  0  0  0  0  0  0  0  0  0  0
   26.7215  -20.8049  -12.4309 C   0  0  0  0  0  0  0  0  0  0  0  0
   26.0849  -21.8318  -12.7745 O   0  0  0  0  0  0  0  0  0  0  0  0
   27.1633  -19.8258   -6.9840 C   0  0  0  0  0  0  0  0  0  0  0  0
   27.0424  -20.6557   -8.2331 C   0  0  0  0  0  0  0  0  0  0  0  0
   25.6718  -20.4598   -8.8003 C   0  0  2  0  0  0  0  0  0  0  0  0
   24.6740  -21.1636   -7.9109 C   0  0  0  0  0  0  0  0  0  0  0  0
   25.5313  -20.9536  -10.2186 C   0  0  2  0  0  0  0  0  0  0  0  0
   26.4485  -20.2918  -11.1281 N   0  0  0  0  0  0  0  0  0  0  0  0
   24.1400  -20.7824  -10.7139 C   0  0  0  0  0  0  0  0  0  0  0  0
   23.1746  -21.3334  -10.0845 O   0  0  0  0  0  0  0  0  0  0  0  0
   20.7728  -19.5254  -18.3975 N   0  0  0  0  0  0  0  0  0  0  0  0
   20.8220  -20.6449  -17.5312 C   0  0  0  0  0  0  0  0  0  0  0  0
   20.1718  -21.7032  -17.8271 N   0  0  0  0  0  0  0  0  0  0  0  0
   21.5913  -20.5802  -16.3457 N   0  0  0  0  0  0  0  0  0  0  0  0
   22.3085  -19.3782  -15.9656 C   0  0  0  0  0  0  0  0  0  0  0  0
   23.0474  -19.6543  -14.6588 C   0  0  0  0  0  0  0  0  0  0  0  0
   22.3852  -18.9872  -13.5034 C   0  0  0  0  0  0  0  0  0  0  0  0
   22.4412  -19.8347  -12.2597 C   0  0  2  0  0  0  0  0  0  0  0  0
   23.8429  -20.0197  -11.8747 N   0  0  0  0  0  0  0  0  0  0  0  0
   21.8482  -21.1723  -12.4235 C   0  0  0  0  0  0  0  0  0  0  0  0
   22.7224  -22.2729  -12.5236 O   0  0  0  0  0  0  0  0  0  0  0  0
   20.6006  -21.4011  -12.4808 O   0  0  0  0  0  0  0  0  0  0  0  0
  2  3  1  0
  2  1  1  6
  4  3  1  0
  5  2  1  0
  6  5  2  0
  7  8  1  0
  9  8  1  0
  9 11  1  0
  9 10  1  1
 11 12  1  6
 12  5  1  0
 13 11  1  0
 13 14  2  0
 16 17  2  0
 16 15  1  0
 18 16  1  0
 19 18  1  0
 20 21  1  0
 20 19  1  0
 22 21  1  6
 22 23  1  0
 23 13  1  0
 24 22  1  0
 25 24  1  0
 26 24  2  0
M  END
$$$$
