CIR.pdb
     RDKit          3D

 26 25  0  0  1  0  0  0  0  0999 V2000
   19.7694  -11.6022  -15.6576 N   0  0  0  0  0  0  0  0  0  0  0  0
   18.9706  -10.3956  -15.7340 C   0  0  1  0  0  0  0  0  0  0  0  0
   17.5284  -10.7189  -15.9296 C   0  0  0  0  0  0  0  0  0  0  0  0
   17.3310  -11.3933  -17.6181 S   0  0  0  0  0  0  0  0  0  0  0  0
   19.2774   -9.5150  -14.6222 C   0  0  0  0  0  0  0  0  0  0  0  0
   19.5172  -10.0161  -13.4955 O   0  0  0  0  0  0  0  0  0  0  0  0
   22.3505   -4.5005  -13.3295 C   0  0  0  0  0  0  0  0  0  0  0  0
   21.2383   -5.3904  -12.8451 C   0  0  0  0  0  0  0  0  0  0  0  0
   20.8436   -6.3045  -13.9620 C   0  0  2  0  0  0  0  0  0  0  0  0
   20.4163   -5.4681  -15.1450 C   0  0  0  0  0  0  0  0  0  0  0  0
   19.7432   -7.2672  -13.5911 C   0  0  2  0  0  0  0  0  0  0  0  0
   19.3292   -8.0922  -14.7110 N   0  0  0  0  0  0  0  0  0  0  0  0
   18.5603   -6.5500  -13.0462 C   0  0  0  0  0  0  0  0  0  0  0  0
   17.7089   -6.0377  -13.8487 O   0  0  0  0  0  0  0  0  0  0  0  0
   12.9194   -8.7890   -7.2604 N   0  0  0  0  0  0  0  0  0  0  0  0
   13.3352   -8.9904   -8.5994 C   0  0  0  0  0  0  0  0  0  0  0  0
   13.0197  -10.0695   -9.2046 N   0  0  0  0  0  0  0  0  0  0  0  0
   14.0963   -7.9937   -9.2541 N   0  0  0  0  0  0  0  0  0  0  0  0
   14.5427   -6.7982   -8.5650 C   0  0  0  0  0  0  0  0  0  0  0  0
   15.2598   -5.9039   -9.5729 C   0  0  0  0  0  0  0  0  0  0  0  0
   16.4140   -6.6038  -10.2026 C   0  0  0  0  0  0  0  0  0  0  0  0
   17.1346   -5.7214  -11.1876 C   0  0  2  0  0  0  0  0  0  0  0  0
   18.3410   -6.4129  -11.6494 N   0  0  0  0  0  0  0  0  0  0  0  0
   17.5549   -4.4254  -10.6295 C   0  0  0  0  0  0  0  0  0  0  0  0
   16.5588   -3.4594  -10.3843 O   0  0  0  0  0  0  0  0  0  0  0  0
   18.7560   -4.1192  -10.3541 O   0  0  0  0  0  0  0  0  0  0  0  0
  2  3  1  0
  2  1  1  1
  4  3  1  0
  5  2  1  0
  6  5  2  0
  7  8  1  0
  9  8  1  0
  9 11  1  0
  9 10  1  6
 11 12  1  6
 12  5  1  0
 13 11  1  0
 13 14  2  0
 16 17  2  0
 16 15  1  0
 18 16  1  0
 19 18  1  0
 20 21  1  0
 20 19  1  0
 22 21  1  1
 22 23  1  0
 23 13  1  0
 24 22  1  0
 25 24  1  0
 26 24  2  0
M  END
$$$$
