CIR.pdb
     RDKit          3D

 26 25  0  0  1  0  0  0  0  0999 V2000
   21.1910  -20.6350   -8.1748 N   0  0  0  0  0  0  0  0  0  0  0  0
   22.2137  -20.9540   -7.1991 C   0  0  1  0  0  0  0  0  0  0  0  0
   22.1964  -22.4055   -6.8594 C   0  0  0  0  0  0  0  0  0  0  0  0
   20.5113  -22.8250   -6.2854 S   0  0  0  0  0  0  0  0  0  0  0  0
   23.4953  -20.4160   -7.6160 C   0  0  0  0  0  0  0  0  0  0  0  0
   23.5369  -19.6264   -8.5920 O   0  0  0  0  0  0  0  0  0  0  0  0
   28.9319  -18.8131   -5.3392 C   0  0  0  0  0  0  0  0  0  0  0  0
   28.1315  -19.0580   -6.5894 C   0  0  0  0  0  0  0  0  0  0  0  0
   26.8770  -19.7819   -6.2136 C   0  0  2  0  0  0  0  0  0  0  0  0
   27.2503  -21.0684   -5.5155 C   0  0  0  0  0  0  0  0  0  0  0  0
   25.9787  -20.0785   -7.3884 C   0  0  2  0  0  0  0  0  0  0  0  0
   24.7400  -20.7210   -6.9893 N   0  0  0  0  0  0  0  0  0  0  0  0
   26.6697  -20.9271   -8.3948 C   0  0  0  0  0  0  0  0  0  0  0  0
   26.5462  -22.1973   -8.3398 O   0  0  0  0  0  0  0  0  0  0  0  0
   24.5386  -24.6687  -13.5382 N   0  0  0  0  0  0  0  0  0  0  0  0
   24.5073  -23.7717  -14.6339 C   0  0  0  0  0  0  0  0  0  0  0  0
   24.4820  -24.2290  -15.8258 N   0  0  0  0  0  0  0  0  0  0  0  0
   24.5041  -22.3768  -14.3977 N   0  0  0  0  0  0  0  0  0  0  0  0
   24.5004  -21.8300  -13.0544 C   0  0  0  0  0  0  0  0  0  0  0  0
   25.9445  -21.7474  -12.5668 C   0  0  0  0  0  0  0  0  0  0  0  0
   26.0335  -21.1123  -11.2224 C   0  0  0  0  0  0  0  0  0  0  0  0
   27.4589  -20.9989  -10.7497 C   0  0  2  0  0  0  0  0  0  0  0  0
   27.4710  -20.3695   -9.4266 N   0  0  0  0  0  0  0  0  0  0  0  0
   28.3161  -20.1895  -11.6315 C   0  0  0  0  0  0  0  0  0  0  0  0
   29.0154  -20.8520  -12.6600 O   0  0  0  0  0  0  0  0  0  0  0  0
   28.4680  -18.9332  -11.5275 O   0  0  0  0  0  0  0  0  0  0  0  0
  2  3  1  0
  2  1  1  6
  4  3  1  0
  5  2  1  0
  6  5  2  0
  7  8  1  0
  9  8  1  0
  9 11  1  0
  9 10  1  6
 11 12  1  1
 12  5  1  0
 13 11  1  0
 13 14  2  0
 16 17  2  0
 16 15  1  0
 18 16  1  0
 19 18  1  0
 20 21  1  0
 20 19  1  0
 22 21  1  6
 22 23  1  0
 23 13  1  0
 24 22  1  0
 25 24  1  0
 26 24  2  0
M  END
$$$$
