CIR.pdb
     RDKit          3D

 26 25  0  0  1  0  0  0  0  0999 V2000
   25.8006  -20.3426   -7.9463 N   0  0  0  0  0  0  0  0  0  0  0  0
   24.9050  -20.9884   -8.8847 C   0  0  1  0  0  0  0  0  0  0  0  0
   23.5112  -21.0253   -8.3569 C   0  0  0  0  0  0  0  0  0  0  0  0
   23.5357  -21.9497   -6.7790 S   0  0  0  0  0  0  0  0  0  0  0  0
   25.0658  -20.4197  -10.2101 C   0  0  0  0  0  0  0  0  0  0  0  0
   25.1905  -19.1754  -10.3287 O   0  0  0  0  0  0  0  0  0  0  0  0
   27.8759  -21.1605  -15.4405 C   0  0  0  0  0  0  0  0  0  0  0  0
   26.6756  -20.5134  -14.8049 C   0  0  0  0  0  0  0  0  0  0  0  0
   26.4437  -21.1529  -13.4723 C   0  0  2  0  0  0  0  0  0  0  0  0
   26.2183  -22.6324  -13.6772 C   0  0  0  0  0  0  0  0  0  0  0  0
   25.2838  -20.5583  -12.7133 C   0  0  2  0  0  0  0  0  0  0  0  0
   25.0940  -21.1810  -11.4161 N   0  0  0  0  0  0  0  0  0  0  0  0
   24.0221  -20.6556  -13.4937 C   0  0  0  0  0  0  0  0  0  0  0  0
   23.3424  -21.7366  -13.4610 O   0  0  0  0  0  0  0  0  0  0  0  0
   19.5232  -15.6902  -16.9322 N   0  0  0  0  0  0  0  0  0  0  0  0
   18.3975  -16.5068  -17.2011 C   0  0  0  0  0  0  0  0  0  0  0  0
   17.4444  -16.0540  -17.9201 N   0  0  0  0  0  0  0  0  0  0  0  0
   18.3395  -17.8170  -16.6707 N   0  0  0  0  0  0  0  0  0  0  0  0
   19.2783  -18.2756  -15.6647 C   0  0  0  0  0  0  0  0  0  0  0  0
   20.6625  -18.3568  -16.3029 C   0  0  0  0  0  0  0  0  0  0  0  0
   21.7422  -18.3048  -15.2782 C   0  0  0  0  0  0  0  0  0  0  0  0
   22.2090  -19.6818  -14.8858 C   0  0  2  0  0  0  0  0  0  0  0  0
   23.5404  -19.5774  -14.2830 N   0  0  0  0  0  0  0  0  0  0  0  0
   22.3080  -20.6213  -16.0150 C   0  0  0  0  0  0  0  0  0  0  0  0
   21.1881  -21.4269  -16.3022 O   0  0  0  0  0  0  0  0  0  0  0  0
   23.3359  -20.7547  -16.7484 O   0  0  0  0  0  0  0  0  0  0  0  0
  2  3  1  0
  2  1  1  1
  4  3  1  0
  5  2  1  0
  6  5  2  0
  7  8  1  0
  9  8  1  0
  9 11  1  0
  9 10  1  6
 11 12  1  1
 12  5  1  0
 13 11  1  0
 13 14  2  0
 16 17  2  0
 16 15  1  0
 18 16  1  0
 19 18  1  0
 20 21  1  0
 20 19  1  0
 22 21  1  6
 22 23  1  0
 23 13  1  0
 24 22  1  0
 25 24  1  0
 26 24  2  0
M  END
$$$$
