CIR.pdb
     RDKit          3D

 26 25  0  0  1  0  0  0  0  0999 V2000
   27.2658  -22.9247  -15.7467 N   0  0  0  0  0  0  0  0  0  0  0  0
   26.6795  -21.6769  -15.3007 C   0  0  1  0  0  0  0  0  0  0  0  0
   26.3006  -20.8184  -16.4592 C   0  0  0  0  0  0  0  0  0  0  0  0
   27.8421  -20.1911  -17.2175 S   0  0  0  0  0  0  0  0  0  0  0  0
   25.6312  -21.9296  -14.3297 C   0  0  0  0  0  0  0  0  0  0  0  0
   24.9704  -22.9950  -14.4089 O   0  0  0  0  0  0  0  0  0  0  0  0
   26.0642  -20.5565   -9.1061 C   0  0  0  0  0  0  0  0  0  0  0  0
   25.7861  -21.3138  -10.3760 C   0  0  0  0  0  0  0  0  0  0  0  0
   24.4956  -20.8189  -10.9489 C   0  0  2  0  0  0  0  0  0  0  0  0
   23.3716  -21.2052  -10.0166 C   0  0  0  0  0  0  0  0  0  0  0  0
   24.2134  -21.3411  -12.3356 C   0  0  2  0  0  0  0  0  0  0  0  0
   25.2846  -21.0421  -13.2679 N   0  0  0  0  0  0  0  0  0  0  0  0
   22.9350  -20.7983  -12.8663 C   0  0  0  0  0  0  0  0  0  0  0  0
   22.5871  -19.6047  -12.5734 O   0  0  0  0  0  0  0  0  0  0  0  0
   19.1571  -24.5537   -8.1811 N   0  0  0  0  0  0  0  0  0  0  0  0
   17.9827  -24.0317   -8.7764 C   0  0  0  0  0  0  0  0  0  0  0  0
   17.0747  -23.5176   -8.0403 N   0  0  0  0  0  0  0  0  0  0  0  0
   17.8263  -24.0846  -10.1814 N   0  0  0  0  0  0  0  0  0  0  0  0
   18.9669  -24.0831  -11.0772 C   0  0  0  0  0  0  0  0  0  0  0  0
   19.3782  -22.6345  -11.3267 C   0  0  0  0  0  0  0  0  0  0  0  0
   20.7310  -22.5475  -11.9439 C   0  0  0  0  0  0  0  0  0  0  0  0
   20.7008  -21.8125  -13.2581 C   0  0  2  0  0  0  0  0  0  0  0  0
   22.0775  -21.5685  -13.6965 N   0  0  0  0  0  0  0  0  0  0  0  0
   20.0197  -20.5088  -13.1958 C   0  0  0  0  0  0  0  0  0  0  0  0
   19.3134  -20.0792  -14.3369 O   0  0  0  0  0  0  0  0  0  0  0  0
   20.0259  -19.7445  -12.1819 O   0  0  0  0  0  0  0  0  0  0  0  0
  2  3  1  0
  2  1  1  6
  4  3  1  0
  5  2  1  0
  6  5  2  0
  7  8  1  0
  9  8  1  0
  9 11  1  0
  9 10  1  1
 11 12  1  6
 12  5  1  0
 13 11  1  0
 13 14  2  0
 16 17  2  0
 16 15  1  0
 18 16  1  0
 19 18  1  0
 20 21  1  0
 20 19  1  0
 22 21  1  1
 22 23  1  0
 23 13  1  0
 24 22  1  0
 25 24  1  0
 26 24  2  0
M  END
$$$$
