CIR.pdb
     RDKit          3D

 26 25  0  0  1  0  0  0  0  0999 V2000
   20.5379  -20.2474   -7.1899 N   0  0  0  0  0  0  0  0  0  0  0  0
   21.6330  -21.1885   -7.3108 C   0  0  1  0  0  0  0  0  0  0  0  0
   21.1577  -22.4992   -7.8388 C   0  0  0  0  0  0  0  0  0  0  0  0
   22.3578  -23.7785   -7.3211 S   0  0  0  0  0  0  0  0  0  0  0  0
   22.7432  -20.5835   -8.0230 C   0  0  0  0  0  0  0  0  0  0  0  0
   22.5171  -19.6272   -8.8055 O   0  0  0  0  0  0  0  0  0  0  0  0
   27.7437  -19.7237   -5.8871 C   0  0  0  0  0  0  0  0  0  0  0  0
   26.4059  -19.6147   -6.5668 C   0  0  0  0  0  0  0  0  0  0  0  0
   26.4747  -20.3513   -7.8673 C   0  0  2  0  0  0  0  0  0  0  0  0
   27.5676  -19.7411   -8.7128 C   0  0  0  0  0  0  0  0  0  0  0  0
   25.1738  -20.3472   -8.6306 C   0  0  2  0  0  0  0  0  0  0  0  0
   24.1022  -20.9997   -7.9010 N   0  0  0  0  0  0  0  0  0  0  0  0
   25.3269  -20.9940   -9.9605 C   0  0  0  0  0  0  0  0  0  0  0  0
   25.6786  -22.2201  -10.0284 O   0  0  0  0  0  0  0  0  0  0  0  0
   21.0280  -21.9202  -16.0269 N   0  0  0  0  0  0  0  0  0  0  0  0
   20.8173  -20.6291  -15.4839 C   0  0  0  0  0  0  0  0  0  0  0  0
   19.6310  -20.2427  -15.2122 N   0  0  0  0  0  0  0  0  0  0  0  0
   21.9233  -19.7793  -15.2475 N   0  0  0  0  0  0  0  0  0  0  0  0
   23.2789  -20.1838  -15.5671 C   0  0  0  0  0  0  0  0  0  0  0  0
   23.8328  -20.9775  -14.3868 C   0  0  0  0  0  0  0  0  0  0  0  0
   24.7626  -20.1564  -13.5623 C   0  0  0  0  0  0  0  0  0  0  0  0
   25.3762  -20.9576  -12.4444 C   0  0  2  0  0  0  0  0  0  0  0  0
   25.0933  -20.2893  -11.1715 N   0  0  0  0  0  0  0  0  0  0  0  0
   26.8372  -21.1057  -12.5502 C   0  0  0  0  0  0  0  0  0  0  0  0
   27.3372  -22.2120  -13.2654 O   0  0  0  0  0  0  0  0  0  0  0  0
   27.6779  -20.3027  -12.0397 O   0  0  0  0  0  0  0  0  0  0  0  0
  2  3  1  0
  2  1  1  6
  4  3  1  0
  5  2  1  0
  6  5  2  0
  7  8  1  0
  9  8  1  0
  9 11  1  0
  9 10  1  6
 11 12  1  1
 12  5  1  0
 13 11  1  0
 13 14  2  0
 16 17  2  0
 16 15  1  0
 18 16  1  0
 19 18  1  0
 20 21  1  0
 20 19  1  0
 22 21  1  6
 22 23  1  0
 23 13  1  0
 24 22  1  0
 25 24  1  0
 26 24  2  0
M  END
$$$$
