CIR.pdb
     RDKit          3D

 26 25  0  0  1  0  0  0  0  0999 V2000
   23.0020  -20.8649   -8.4023 N   0  0  0  0  0  0  0  0  0  0  0  0
   22.8047  -21.2659   -9.7807 C   0  0  1  0  0  0  0  0  0  0  0  0
   21.3612  -21.2205  -10.1508 C   0  0  0  0  0  0  0  0  0  0  0  0
   21.2044  -21.8381  -11.8651 S   0  0  0  0  0  0  0  0  0  0  0  0
   23.7059  -20.5364  -10.6533 C   0  0  0  0  0  0  0  0  0  0  0  0
   23.9027  -19.3138  -10.4421 O   0  0  0  0  0  0  0  0  0  0  0  0
   28.6944  -21.5609  -11.3655 C   0  0  0  0  0  0  0  0  0  0  0  0
   27.3425  -20.9123  -11.2423 C   0  0  0  0  0  0  0  0  0  0  0  0
   26.7035  -20.8902  -12.5950 C   0  0  2  0  0  0  0  0  0  0  0  0
   27.5722  -20.0802  -13.5283 C   0  0  0  0  0  0  0  0  0  0  0  0
   25.3012  -20.3345  -12.5890 C   0  0  2  0  0  0  0  0  0  0  0  0
   24.4014  -21.1125  -11.7575 N   0  0  0  0  0  0  0  0  0  0  0  0
   24.7482  -20.2517  -13.9666 C   0  0  0  0  0  0  0  0  0  0  0  0
   24.5102  -21.3255  -14.6159 O   0  0  0  0  0  0  0  0  0  0  0  0
   19.9285  -17.2436  -19.2314 N   0  0  0  0  0  0  0  0  0  0  0  0
   19.7483  -16.5307  -18.0207 C   0  0  0  0  0  0  0  0  0  0  0  0
   18.5724  -16.3706  -17.5495 N   0  0  0  0  0  0  0  0  0  0  0  0
   20.8730  -16.0024  -17.3446 N   0  0  0  0  0  0  0  0  0  0  0  0
   22.2158  -16.1366  -17.8760 C   0  0  0  0  0  0  0  0  0  0  0  0
   22.7133  -17.5468  -17.5700 C   0  0  0  0  0  0  0  0  0  0  0  0
   23.3147  -17.6327  -16.2100 C   0  0  0  0  0  0  0  0  0  0  0  0
   23.8638  -19.0059  -15.9261 C   0  0  2  0  0  0  0  0  0  0  0  0
   24.4720  -19.0071  -14.5930 N   0  0  0  0  0  0  0  0  0  0  0  0
   24.8943  -19.4445  -16.8818 C   0  0  0  0  0  0  0  0  0  0  0  0
   24.5070  -20.3277  -17.9092 O   0  0  0  0  0  0  0  0  0  0  0  0
   26.1100  -19.0802  -16.8424 O   0  0  0  0  0  0  0  0  0  0  0  0
  2  3  1  0
  2  1  1  1
  4  3  1  0
  5  2  1  0
  6  5  2  0
  7  8  1  0
  9  8  1  0
  9 11  1  0
  9 10  1  6
 11 12  1  1
 12  5  1  0
 13 11  1  0
 13 14  2  0
 16 17  2  0
 16 15  1  0
 18 16  1  0
 19 18  1  0
 20 21  1  0
 20 19  1  0
 22 21  1  6
 22 23  1  0
 23 13  1  0
 24 22  1  0
 25 24  1  0
 26 24  2  0
M  END
$$$$
