CIR.pdb
     RDKit          3D

 26 25  0  0  1  0  0  0  0  0999 V2000
   19.4228  -14.8223  -16.3419 N   0  0  0  0  0  0  0  0  0  0  0  0
   19.7347  -13.6218  -17.0910 C   0  0  1  0  0  0  0  0  0  0  0  0
   18.6587  -13.3086  -18.0743 C   0  0  0  0  0  0  0  0  0  0  0  0
   18.6858  -14.6052  -19.3639 S   0  0  0  0  0  0  0  0  0  0  0  0
   20.1027  -12.5452  -16.1901 C   0  0  0  0  0  0  0  0  0  0  0  0
   19.4079  -12.3453  -15.1629 O   0  0  0  0  0  0  0  0  0  0  0  0
   24.9869  -11.4729  -14.2956 C   0  0  0  0  0  0  0  0  0  0  0  0
   23.5048  -11.6608  -14.4735 C   0  0  0  0  0  0  0  0  0  0  0  0
   22.9517  -10.4456  -15.1489 C   0  0  2  0  0  0  0  0  0  0  0  0
   23.1730   -9.2499  -14.2528 C   0  0  0  0  0  0  0  0  0  0  0  0
   21.4881  -10.5630  -15.4943 C   0  0  2  0  0  0  0  0  0  0  0  0
   21.2174  -11.6766  -16.3848 N   0  0  0  0  0  0  0  0  0  0  0  0
   20.9766   -9.3088  -16.1073 C   0  0  0  0  0  0  0  0  0  0  0  0
   21.4456   -8.9187  -17.2295 O   0  0  0  0  0  0  0  0  0  0  0  0
   13.4950   -4.9470  -14.7753 N   0  0  0  0  0  0  0  0  0  0  0  0
   14.6980   -4.3198  -14.3683 C   0  0  0  0  0  0  0  0  0  0  0  0
   14.6578   -3.3566  -13.5310 N   0  0  0  0  0  0  0  0  0  0  0  0
   15.9334   -4.7663  -14.8934 N   0  0  0  0  0  0  0  0  0  0  0  0
   15.9995   -5.6846  -16.0141 C   0  0  0  0  0  0  0  0  0  0  0  0
   17.4665   -5.8791  -16.3881 C   0  0  0  0  0  0  0  0  0  0  0  0
   18.0298   -7.1132  -15.7732 C   0  0  0  0  0  0  0  0  0  0  0  0
   19.4599   -7.3423  -16.1862 C   0  0  2  0  0  0  0  0  0  0  0  0
   19.9737   -8.5203  -15.4825 N   0  0  0  0  0  0  0  0  0  0  0  0
   20.3568   -6.2167  -15.8760 C   0  0  0  0  0  0  0  0  0  0  0  0
   20.6041   -5.2719  -16.8918 O   0  0  0  0  0  0  0  0  0  0  0  0
   20.9233   -6.0398  -14.7535 O   0  0  0  0  0  0  0  0  0  0  0  0
  2  3  1  0
  2  1  1  1
  4  3  1  0
  5  2  1  0
  6  5  2  0
  7  8  1  0
  9  8  1  0
  9 11  1  0
  9 10  1  1
 11 12  1  6
 12  5  1  0
 13 11  1  0
 13 14  2  0
 16 17  2  0
 16 15  1  0
 18 16  1  0
 19 18  1  0
 20 21  1  0
 20 19  1  0
 22 21  1  1
 22 23  1  0
 23 13  1  0
 24 22  1  0
 25 24  1  0
 26 24  2  0
M  END
$$$$
