CIR.pdb
     RDKit          3D

 26 25  0  0  1  0  0  0  0  0999 V2000
    7.5680   -6.8544   -5.9688 N   0  0  0  0  0  0  0  0  0  0  0  0
    8.9861   -7.0802   -6.1624 C   0  0  1  0  0  0  0  0  0  0  0  0
    9.2263   -8.1108   -7.2127 C   0  0  0  0  0  0  0  0  0  0  0  0
    8.9194   -9.7518   -6.4658 S   0  0  0  0  0  0  0  0  0  0  0  0
    9.6790   -5.8181   -6.3430 C   0  0  0  0  0  0  0  0  0  0  0  0
    9.0672   -4.8567   -6.8716 O   0  0  0  0  0  0  0  0  0  0  0  0
   11.7061   -2.7144   -2.7138 C   0  0  0  0  0  0  0  0  0  0  0  0
   11.0836   -3.3114   -3.9465 C   0  0  0  0  0  0  0  0  0  0  0  0
   12.1778   -3.6772   -4.8991 C   0  0  2  0  0  0  0  0  0  0  0  0
   12.9839   -2.4382   -5.2103 C   0  0  0  0  0  0  0  0  0  0  0  0
   11.6781   -4.2982   -6.1797 C   0  0  2  0  0  0  0  0  0  0  0  0
   11.0316   -5.5786   -5.9581 N   0  0  0  0  0  0  0  0  0  0  0  0
   12.7805   -4.4686   -7.1625 C   0  0  0  0  0  0  0  0  0  0  0  0
   13.7067   -5.3170   -6.9300 O   0  0  0  0  0  0  0  0  0  0  0  0
   13.4874   -5.1797  -15.8453 N   0  0  0  0  0  0  0  0  0  0  0  0
   14.7931   -5.2988  -15.3094 C   0  0  0  0  0  0  0  0  0  0  0  0
   15.7731   -5.5653  -16.0834 N   0  0  0  0  0  0  0  0  0  0  0  0
   14.9996   -5.1213  -13.9212 N   0  0  0  0  0  0  0  0  0  0  0  0
   13.8977   -4.8760  -13.0106 C   0  0  0  0  0  0  0  0  0  0  0  0
   14.4757   -4.5499  -11.6360 C   0  0  0  0  0  0  0  0  0  0  0  0
   13.4038   -4.3968  -10.6131 C   0  0  0  0  0  0  0  0  0  0  0  0
   13.9553   -3.9419   -9.2876 C   0  0  2  0  0  0  0  0  0  0  0  0
   12.8412   -3.7131   -8.3639 N   0  0  0  0  0  0  0  0  0  0  0  0
   14.7305   -2.6925   -9.3624 C   0  0  0  0  0  0  0  0  0  0  0  0
   14.0459   -1.4788   -9.1532 O   0  0  0  0  0  0  0  0  0  0  0  0
   15.9759   -2.6349   -9.6030 O   0  0  0  0  0  0  0  0  0  0  0  0
  2  3  1  0
  2  1  1  6
  4  3  1  0
  5  2  1  0
  6  5  2  0
  7  8  1  0
  9  8  1  0
  9 11  1  0
  9 10  1  6
 11 12  1  1
 12  5  1  0
 13 11  1  0
 13 14  2  0
 16 17  2  0
 16 15  1  0
 18 16  1  0
 19 18  1  0
 20 21  1  0
 20 19  1  0
 22 21  1  6
 22 23  1  0
 23 13  1  0
 24 22  1  0
 25 24  1  0
 26 24  2  0
M  END
$$$$
