CIR.pdb
     RDKit          3D

 26 25  0  0  1  0  0  0  0  0999 V2000
   29.8747  -20.0698  -11.1708 N   0  0  0  0  0  0  0  0  0  0  0  0
   29.0634  -20.7966  -12.1264 C   0  0  1  0  0  0  0  0  0  0  0  0
   28.6399  -22.1160  -11.5762 C   0  0  0  0  0  0  0  0  0  0  0  0
   30.1453  -23.0098  -11.0472 S   0  0  0  0  0  0  0  0  0  0  0  0
   27.9990  -19.9503  -12.6329 C   0  0  0  0  0  0  0  0  0  0  0  0
   27.4651  -19.1146  -11.8619 O   0  0  0  0  0  0  0  0  0  0  0  0
   28.3986  -16.8165  -16.7453 C   0  0  0  0  0  0  0  0  0  0  0  0
   27.9528  -17.3636  -15.4166 C   0  0  0  0  0  0  0  0  0  0  0  0
   26.8358  -18.3304  -15.6539 C   0  0  2  0  0  0  0  0  0  0  0  0
   25.6417  -17.5713  -16.1827 C   0  0  0  0  0  0  0  0  0  0  0  0
   26.4434  -19.1101  -14.4238 C   0  0  2  0  0  0  0  0  0  0  0  0
   27.5004  -19.9944  -13.9688 N   0  0  0  0  0  0  0  0  0  0  0  0
   25.2077  -19.9027  -14.6591 C   0  0  0  0  0  0  0  0  0  0  0  0
   25.1081  -20.6167  -15.7135 O   0  0  0  0  0  0  0  0  0  0  0  0
   19.5919  -22.8801   -9.0122 N   0  0  0  0  0  0  0  0  0  0  0  0
   20.5459  -21.8734   -9.2998 C   0  0  0  0  0  0  0  0  0  0  0  0
   21.0423  -21.1815   -8.3483 N   0  0  0  0  0  0  0  0  0  0  0  0
   20.9401  -21.6436  -10.6389 N   0  0  0  0  0  0  0  0  0  0  0  0
   20.4665  -22.4765  -11.7278 C   0  0  0  0  0  0  0  0  0  0  0  0
   21.0655  -21.9497  -13.0292 C   0  0  0  0  0  0  0  0  0  0  0  0
   22.3501  -21.2344  -12.7911 C   0  0  0  0  0  0  0  0  0  0  0  0
   22.9194  -20.6665  -14.0645 C   0  0  2  0  0  0  0  0  0  0  0  0
   24.1222  -19.8939  -13.7431 N   0  0  0  0  0  0  0  0  0  0  0  0
   21.9973  -19.7701  -14.7813 C   0  0  0  0  0  0  0  0  0  0  0  0
   21.1339  -20.3407  -15.7377 O   0  0  0  0  0  0  0  0  0  0  0  0
   21.9276  -18.5160  -14.5955 O   0  0  0  0  0  0  0  0  0  0  0  0
  2  3  1  0
  2  1  1  1
  4  3  1  0
  5  2  1  0
  6  5  2  0
  7  8  1  0
  9  8  1  0
  9 11  1  0
  9 10  1  1
 11 12  1  6
 12  5  1  0
 13 11  1  0
 13 14  2  0
 16 17  2  0
 16 15  1  0
 18 16  1  0
 19 18  1  0
 20 21  1  0
 20 19  1  0
 22 21  1  1
 22 23  1  0
 23 13  1  0
 24 22  1  0
 25 24  1  0
 26 24  2  0
M  END
$$$$
