MNI.pdb
     RDKit          3D

 25 24  0  0  1  0  0  0  0  0999 V2000
   25.8781  -26.5307  -15.5814 C   0  0  0  0  0  0  0  0  0  0  0  0
   24.1790  -26.0159  -15.9534 S   0  0  0  0  0  0  0  0  0  0  0  0
   24.0311  -24.2178  -15.7670 C   0  0  0  0  0  0  0  0  0  0  0  0
   25.1729  -23.7442  -14.8824 C   0  0  0  0  0  0  0  0  0  0  0  0
   24.5391  -23.1691  -13.6079 C   0  0  2  0  0  0  0  0  0  0  0  0
   23.6274  -22.1186  -13.9948 N   0  0  0  0  0  0  0  0  0  0  0  0
   25.6340  -22.5810  -12.8015 C   0  0  0  0  0  0  0  0  0  0  0  0
   26.5702  -23.2878  -12.3196 O   0  0  0  0  0  0  0  0  0  0  0  0
   28.0763  -19.9914  -13.9778 N   0  0  0  0  0  0  0  0  0  0  0  0
   27.7727  -18.9219  -13.0902 C   0  0  0  0  0  0  0  0  0  0  0  0
   28.0561  -17.7638  -13.4537 O   0  0  0  0  0  0  0  0  0  0  0  0
   27.1360  -19.2406  -11.7862 C   0  0  0  0  0  0  0  0  0  0  0  0
   26.7725  -20.6576  -11.6910 C   0  0  2  0  0  0  0  0  0  0  0  0
   25.7442  -21.1978  -12.4920 N   0  0  0  0  0  0  0  0  0  0  0  0
   26.4780  -20.9384  -10.2324 C   0  0  0  0  0  0  0  0  0  0  0  0
   25.4455  -21.5712   -9.8820 O   0  0  0  0  0  0  0  0  0  0  0  0
   28.8343  -20.6156   -4.4413 C   0  0  0  0  0  0  0  0  0  0  0  0
   27.7637  -21.0124   -5.4543 C   0  0  0  0  0  0  0  0  0  0  0  0
   28.1046  -20.5399   -6.8395 C   0  0  2  0  0  0  0  0  0  0  0  0
   28.4177  -19.0489   -6.8593 C   0  0  0  0  0  0  0  0  0  0  0  0
   27.0376  -20.8028   -7.7901 C   0  0  2  0  0  0  0  0  0  0  0  0
   27.3057  -20.5292   -9.1751 N   0  0  0  0  0  0  0  0  0  0  0  0
   25.7886  -20.0890   -7.4603 C   0  0  0  0  0  0  0  0  0  0  0  0
   25.3912  -18.9357   -8.1859 O   0  0  0  0  0  0  0  0  0  0  0  0
   24.9786  -20.3982   -6.5537 O   0  0  0  0  0  0  0  0  0  0  0  0
  2  1  1  0
  3  2  1  0
  4  3  1  0
  5  4  1  0
  5  6  1  6
  7  5  1  0
  8  7  2  0
 10  9  1  0
 11 10  2  0
 13 12  1  1
 12 10  1  0
 13 14  1  0
 14  7  1  0
 15 13  1  0
 15 16  2  0
 17 18  1  0
 18 19  1  0
 19 21  1  0
 19 20  1  1
 21 22  1  6
 22 15  1  0
 23 21  1  0
 24 23  1  0
 25 23  2  0
M  END
$$$$
