MNI.pdb
     RDKit          3D

 25 24  0  0  1  0  0  0  0  0999 V2000
   25.7253  -30.0294  -16.4551 C   0  0  0  0  0  0  0  0  0  0  0  0
   27.1361  -29.4064  -17.4100 S   0  0  0  0  0  0  0  0  0  0  0  0
   27.1180  -27.5926  -17.4133 C   0  0  0  0  0  0  0  0  0  0  0  0
   25.7953  -27.1375  -16.8185 C   0  0  0  0  0  0  0  0  0  0  0  0
   25.7521  -25.6083  -16.9479 C   0  0  2  0  0  0  0  0  0  0  0  0
   27.0547  -25.0917  -16.6001 N   0  0  0  0  0  0  0  0  0  0  0  0
   24.7615  -25.1135  -15.9638 C   0  0  0  0  0  0  0  0  0  0  0  0
   23.5818  -25.5752  -15.9051 O   0  0  0  0  0  0  0  0  0  0  0  0
   23.7510  -20.3015  -13.7607 N   0  0  0  0  0  0  0  0  0  0  0  0
   24.7368  -21.3273  -13.7575 C   0  0  0  0  0  0  0  0  0  0  0  0
   25.8230  -21.0943  -14.3226 O   0  0  0  0  0  0  0  0  0  0  0  0
   24.4212  -22.6129  -13.0830 C   0  0  0  0  0  0  0  0  0  0  0  0
   24.0852  -23.6644  -14.0476 C   0  0  2  0  0  0  0  0  0  0  0  0
   25.0250  -24.0945  -15.0080 N   0  0  0  0  0  0  0  0  0  0  0  0
   22.8123  -23.2310  -14.7441 C   0  0  0  0  0  0  0  0  0  0  0  0
   22.8427  -22.4961  -15.7679 O   0  0  0  0  0  0  0  0  0  0  0  0
   18.2802  -24.2594  -17.7336 C   0  0  0  0  0  0  0  0  0  0  0  0
   18.2851  -23.9079  -16.2482 C   0  0  0  0  0  0  0  0  0  0  0  0
   19.5420  -24.3745  -15.5692 C   0  0  2  0  0  0  0  0  0  0  0  0
   19.2369  -25.3519  -14.4409 C   0  0  0  0  0  0  0  0  0  0  0  0
   20.3198  -23.2718  -15.0306 C   0  0  2  0  0  0  0  0  0  0  0  0
   21.5256  -23.5996  -14.3210 N   0  0  0  0  0  0  0  0  0  0  0  0
   19.5342  -22.4015  -14.1342 C   0  0  0  0  0  0  0  0  0  0  0  0
   18.5505  -21.5175  -14.6496 O   0  0  0  0  0  0  0  0  0  0  0  0
   19.6366  -22.3429  -12.8854 O   0  0  0  0  0  0  0  0  0  0  0  0
  2  1  1  0
  3  2  1  0
  4  3  1  0
  5  4  1  0
  5  6  1  1
  7  5  1  0
  8  7  2  0
 10  9  1  0
 11 10  2  0
 13 12  1  6
 12 10  1  0
 13 14  1  0
 14  7  1  0
 15 13  1  0
 15 16  2  0
 17 18  1  0
 18 19  1  0
 19 21  1  0
 19 20  1  1
 21 22  1  1
 22 15  1  0
 23 21  1  0
 24 23  1  0
 25 23  2  0
M  END
$$$$
