MNI.pdb
     RDKit          3D

 25 24  0  0  1  0  0  0  0  0999 V2000
   18.3136  -16.5366  -22.4747 C   0  0  0  0  0  0  0  0  0  0  0  0
   19.5387  -17.7508  -21.9136 S   0  0  0  0  0  0  0  0  0  0  0  0
   20.3454  -17.1514  -20.4036 C   0  0  0  0  0  0  0  0  0  0  0  0
   20.6469  -15.6734  -20.5901 C   0  0  0  0  0  0  0  0  0  0  0  0
   21.2337  -15.1683  -19.2644 C   0  0  2  0  0  0  0  0  0  0  0  0
   20.3965  -15.6494  -18.1911 N   0  0  0  0  0  0  0  0  0  0  0  0
   21.1723  -13.6884  -19.2942 C   0  0  0  0  0  0  0  0  0  0  0  0
   21.3815  -13.0267  -20.3556 O   0  0  0  0  0  0  0  0  0  0  0  0
   21.0033   -8.7728  -18.4035 N   0  0  0  0  0  0  0  0  0  0  0  0
   19.7165   -9.3249  -18.6553 C   0  0  0  0  0  0  0  0  0  0  0  0
   18.7845   -8.5384  -18.9125 O   0  0  0  0  0  0  0  0  0  0  0  0
   19.5542  -10.8007  -18.6006 C   0  0  0  0  0  0  0  0  0  0  0  0
   20.7993  -11.4702  -18.2127 C   0  0  2  0  0  0  0  0  0  0  0  0
   20.8806  -12.8779  -18.1631 N   0  0  0  0  0  0  0  0  0  0  0  0
   21.2103  -10.8923  -16.8747 C   0  0  0  0  0  0  0  0  0  0  0  0
   20.5939  -11.1880  -15.8155 O   0  0  0  0  0  0  0  0  0  0  0  0
   26.1872  -11.5820  -15.5497 C   0  0  0  0  0  0  0  0  0  0  0  0
   24.6778  -11.3631  -15.6099 C   0  0  0  0  0  0  0  0  0  0  0  0
   24.3079   -9.9411  -15.2946 C   0  0  2  0  0  0  0  0  0  0  0  0
   24.7319   -9.5539  -13.8833 C   0  0  0  0  0  0  0  0  0  0  0  0
   22.8822   -9.6982  -15.4341 C   0  0  2  0  0  0  0  0  0  0  0  0
   22.2823  -10.0022  -16.7040 N   0  0  0  0  0  0  0  0  0  0  0  0
   22.5052   -8.3063  -15.1195 C   0  0  0  0  0  0  0  0  0  0  0  0
   22.1964   -7.9143  -13.7908 O   0  0  0  0  0  0  0  0  0  0  0  0
   22.4180   -7.3615  -15.9399 O   0  0  0  0  0  0  0  0  0  0  0  0
  2  1  1  0
  3  2  1  0
  4  3  1  0
  5  4  1  0
  5  6  1  1
  7  5  1  0
  8  7  2  0
 10  9  1  0
 11 10  2  0
 13 12  1  1
 12 10  1  0
 13 14  1  0
 14  7  1  0
 15 13  1  0
 15 16  2  0
 17 18  1  0
 18 19  1  0
 19 21  1  0
 19 20  1  1
 21 22  1  6
 22 15  1  0
 23 21  1  0
 24 23  1  0
 25 23  2  0
M  END
$$$$
