MNI.pdb
     RDKit          3D

 25 24  0  0  1  0  0  0  0  0999 V2000
   27.4076  -14.9907  -17.3428 C   0  0  0  0  0  0  0  0  0  0  0  0
   27.9418  -15.9355  -18.7961 S   0  0  0  0  0  0  0  0  0  0  0  0
   26.9360  -17.4369  -18.9520 C   0  0  0  0  0  0  0  0  0  0  0  0
   25.9084  -17.4292  -17.8320 C   0  0  0  0  0  0  0  0  0  0  0  0
   26.3530  -18.4879  -16.8130 C   0  0  2  0  0  0  0  0  0  0  0  0
   26.4691  -19.7519  -17.5011 N   0  0  0  0  0  0  0  0  0  0  0  0
   25.2818  -18.5927  -15.7950 C   0  0  0  0  0  0  0  0  0  0  0  0
   24.8943  -17.5919  -15.1194 O   0  0  0  0  0  0  0  0  0  0  0  0
   20.3906  -21.2829  -13.4478 N   0  0  0  0  0  0  0  0  0  0  0  0
   21.2652  -20.2069  -13.7655 C   0  0  0  0  0  0  0  0  0  0  0  0
   21.1708  -19.1607  -13.0946 O   0  0  0  0  0  0  0  0  0  0  0  0
   22.2400  -20.3875  -14.8721 C   0  0  0  0  0  0  0  0  0  0  0  0
   23.5676  -19.8783  -14.5153 C   0  0  2  0  0  0  0  0  0  0  0  0
   24.5958  -19.7970  -15.4780 N   0  0  0  0  0  0  0  0  0  0  0  0
   24.0464  -20.6920  -13.3313 C   0  0  0  0  0  0  0  0  0  0  0  0
   24.3273  -21.9155  -13.4470 O   0  0  0  0  0  0  0  0  0  0  0  0
   26.6637  -18.2738   -9.2233 C   0  0  0  0  0  0  0  0  0  0  0  0
   26.4202  -19.4496  -10.1656 C   0  0  0  0  0  0  0  0  0  0  0  0
   25.1972  -20.2316   -9.7766 C   0  0  2  0  0  0  0  0  0  0  0  0
   25.5035  -21.2323   -8.6692 C   0  0  0  0  0  0  0  0  0  0  0  0
   24.6188  -20.9465  -10.9015 C   0  0  2  0  0  0  0  0  0  0  0  0
   24.2132  -20.1685  -12.0395 N   0  0  0  0  0  0  0  0  0  0  0  0
   23.4510  -21.7646  -10.5203 C   0  0  0  0  0  0  0  0  0  0  0  0
   23.5888  -23.1478  -10.2333 O   0  0  0  0  0  0  0  0  0  0  0  0
   22.2691  -21.3590  -10.4115 O   0  0  0  0  0  0  0  0  0  0  0  0
  2  1  1  0
  3  2  1  0
  4  3  1  0
  5  4  1  0
  5  6  1  6
  7  5  1  0
  8  7  2  0
 10  9  1  0
 11 10  2  0
 13 12  1  6
 12 10  1  0
 13 14  1  0
 14  7  1  0
 15 13  1  0
 15 16  2  0
 17 18  1  0
 18 19  1  0
 19 21  1  0
 19 20  1  1
 21 22  1  6
 22 15  1  0
 23 21  1  0
 24 23  1  0
 25 23  2  0
M  END
$$$$
