MNI.pdb
     RDKit          3D

 25 24  0  0  1  0  0  0  0  0999 V2000
   26.7052  -18.5497  -19.3987 C   0  0  0  0  0  0  0  0  0  0  0  0
   28.5089  -18.6618  -19.2423 S   0  0  0  0  0  0  0  0  0  0  0  0
   28.9711  -18.6606  -17.4884 C   0  0  0  0  0  0  0  0  0  0  0  0
   27.8490  -17.9932  -16.7100 C   0  0  0  0  0  0  0  0  0  0  0  0
   28.2322  -18.0675  -15.2252 C   0  0  2  0  0  0  0  0  0  0  0  0
   29.1373  -19.1787  -15.0505 N   0  0  0  0  0  0  0  0  0  0  0  0
   26.9894  -18.3372  -14.4653 C   0  0  0  0  0  0  0  0  0  0  0  0
   25.8623  -17.8902  -14.8367 O   0  0  0  0  0  0  0  0  0  0  0  0
   23.8482  -21.7104  -12.4895 N   0  0  0  0  0  0  0  0  0  0  0  0
   24.6731  -22.1068  -13.5787 C   0  0  0  0  0  0  0  0  0  0  0  0
   24.4043  -23.1794  -14.1538 O   0  0  0  0  0  0  0  0  0  0  0  0
   25.8028  -21.2253  -13.9711 C   0  0  0  0  0  0  0  0  0  0  0  0
   25.9738  -20.1114  -13.0336 C   0  0  2  0  0  0  0  0  0  0  0  0
   26.9344  -19.1055  -13.2702 N   0  0  0  0  0  0  0  0  0  0  0  0
   26.2047  -20.7197  -11.6662 C   0  0  0  0  0  0  0  0  0  0  0  0
   27.0649  -21.6238  -11.4875 O   0  0  0  0  0  0  0  0  0  0  0  0
   28.9813  -19.4752   -7.8614 C   0  0  0  0  0  0  0  0  0  0  0  0
   28.0588  -20.3112   -8.7445 C   0  0  0  0  0  0  0  0  0  0  0  0
   26.6223  -20.1929   -8.3193 C   0  0  2  0  0  0  0  0  0  0  0  0
   26.4153  -20.7120   -6.9019 C   0  0  0  0  0  0  0  0  0  0  0  0
   25.7228  -20.9054   -9.2106 C   0  0  2  0  0  0  0  0  0  0  0  0
   25.5000  -20.3404  -10.5129 N   0  0  0  0  0  0  0  0  0  0  0  0
   24.3884  -21.1265   -8.6202 C   0  0  0  0  0  0  0  0  0  0  0  0
   24.2187  -21.9670   -7.4891 O   0  0  0  0  0  0  0  0  0  0  0  0
   23.3104  -20.6279   -9.0238 O   0  0  0  0  0  0  0  0  0  0  0  0
  2  1  1  0
  3  2  1  0
  4  3  1  0
  5  4  1  0
  5  6  1  6
  7  5  1  0
  8  7  2  0
 10  9  1  0
 11 10  2  0
 13 12  1  6
 12 10  1  0
 13 14  1  0
 14  7  1  0
 15 13  1  0
 15 16  2  0
 17 18  1  0
 18 19  1  0
 19 21  1  0
 19 20  1  1
 21 22  1  6
 22 15  1  0
 23 21  1  0
 24 23  1  0
 25 23  2  0
M  END
$$$$
