MNI.pdb
     RDKit          3D

 25 24  0  0  1  0  0  0  0  0999 V2000
   25.0717  -19.6292   -8.8189 C   0  0  0  0  0  0  0  0  0  0  0  0
   24.8756  -21.3954   -9.1825 S   0  0  0  0  0  0  0  0  0  0  0  0
   25.6263  -21.7750  -10.7895 C   0  0  0  0  0  0  0  0  0  0  0  0
   25.0365  -20.8231  -11.8173 C   0  0  0  0  0  0  0  0  0  0  0  0
   25.6304  -21.2140  -13.1780 C   0  0  2  0  0  0  0  0  0  0  0  0
   27.0693  -21.1732  -13.0678 N   0  0  0  0  0  0  0  0  0  0  0  0
   25.1950  -20.1900  -14.1561 C   0  0  0  0  0  0  0  0  0  0  0  0
   25.7388  -19.0461  -14.2210 O   0  0  0  0  0  0  0  0  0  0  0  0
   23.5093  -18.3151  -19.4621 N   0  0  0  0  0  0  0  0  0  0  0  0
   23.9920  -18.1533  -18.1337 C   0  0  0  0  0  0  0  0  0  0  0  0
   24.0505  -16.9974  -17.6710 O   0  0  0  0  0  0  0  0  0  0  0  0
   24.3963  -19.3637  -17.3728 C   0  0  0  0  0  0  0  0  0  0  0  0
   23.7685  -19.4080  -16.0489 C   0  0  2  0  0  0  0  0  0  0  0  0
   24.1477  -20.3797  -15.0988 N   0  0  0  0  0  0  0  0  0  0  0  0
   22.2726  -19.4776  -16.2741 C   0  0  0  0  0  0  0  0  0  0  0  0
   21.7128  -20.5483  -16.6337 O   0  0  0  0  0  0  0  0  0  0  0  0
   16.7887  -18.6341  -14.2726 C   0  0  0  0  0  0  0  0  0  0  0  0
   17.6716  -18.4881  -15.5092 C   0  0  0  0  0  0  0  0  0  0  0  0
   19.1308  -18.4544  -15.1513 C   0  0  2  0  0  0  0  0  0  0  0  0
   19.4672  -17.2410  -14.2935 C   0  0  0  0  0  0  0  0  0  0  0  0
   19.9865  -18.4444  -16.3256 C   0  0  2  0  0  0  0  0  0  0  0  0
   21.4056  -18.3863  -16.1072 N   0  0  0  0  0  0  0  0  0  0  0  0
   19.6648  -17.3472  -17.2588 C   0  0  0  0  0  0  0  0  0  0  0  0
   20.6104  -16.3278  -17.5436 O   0  0  0  0  0  0  0  0  0  0  0  0
   18.5823  -17.1944  -17.8739 O   0  0  0  0  0  0  0  0  0  0  0  0
  2  1  1  0
  3  2  1  0
  4  3  1  0
  5  4  1  0
  5  6  1  1
  7  5  1  0
  8  7  2  0
 10  9  1  0
 11 10  2  0
 13 12  1  6
 12 10  1  0
 13 14  1  0
 14  7  1  0
 15 13  1  0
 15 16  2  0
 17 18  1  0
 18 19  1  0
 19 21  1  0
 19 20  1  6
 21 22  1  1
 22 15  1  0
 23 21  1  0
 24 23  1  0
 25 23  2  0
M  END
$$$$
