MNI.pdb
     RDKit          3D

 25 24  0  0  1  0  0  0  0  0999 V2000
   30.1893  -19.8582   -6.5597 C   0  0  0  0  0  0  0  0  0  0  0  0
   28.8293  -20.0183   -5.3702 S   0  0  0  0  0  0  0  0  0  0  0  0
   27.2419  -19.9576   -6.2458 C   0  0  0  0  0  0  0  0  0  0  0  0
   27.4138  -20.6745   -7.5750 C   0  0  0  0  0  0  0  0  0  0  0  0
   26.8017  -19.7676   -8.6519 C   0  0  2  0  0  0  0  0  0  0  0  0
   25.5394  -19.2719   -8.1565 N   0  0  0  0  0  0  0  0  0  0  0  0
   26.5512  -20.6110   -9.8438 C   0  0  0  0  0  0  0  0  0  0  0  0
   27.4955  -21.1327  -10.5105 O   0  0  0  0  0  0  0  0  0  0  0  0
   25.2762  -22.3579  -14.1774 N   0  0  0  0  0  0  0  0  0  0  0  0
   24.9554  -23.3406  -13.2001 C   0  0  0  0  0  0  0  0  0  0  0  0
   24.8287  -24.5211  -13.5794 O   0  0  0  0  0  0  0  0  0  0  0  0
   24.7915  -22.9099  -11.7876 C   0  0  0  0  0  0  0  0  0  0  0  0
   25.0317  -21.4728  -11.6265 C   0  0  2  0  0  0  0  0  0  0  0  0
   25.2579  -20.9140  -10.3508 N   0  0  0  0  0  0  0  0  0  0  0  0
   23.8768  -20.7568  -12.2949 C   0  0  0  0  0  0  0  0  0  0  0  0
   22.8346  -20.4528  -11.6540 O   0  0  0  0  0  0  0  0  0  0  0  0
   22.7339  -16.5811  -16.6522 C   0  0  0  0  0  0  0  0  0  0  0  0
   22.2258  -17.6603  -15.6997 C   0  0  0  0  0  0  0  0  0  0  0  0
   23.3499  -18.4924  -15.1497 C   0  0  2  0  0  0  0  0  0  0  0  0
   24.1486  -19.1577  -16.2637 C   0  0  0  0  0  0  0  0  0  0  0  0
   22.8795  -19.5210  -14.2377 C   0  0  2  0  0  0  0  0  0  0  0  0
   23.8676  -20.3814  -13.6474 N   0  0  0  0  0  0  0  0  0  0  0  0
   21.8682  -20.4069  -14.8467 C   0  0  0  0  0  0  0  0  0  0  0  0
   20.4896  -20.0703  -14.8204 O   0  0  0  0  0  0  0  0  0  0  0  0
   22.0935  -21.4970  -15.4248 O   0  0  0  0  0  0  0  0  0  0  0  0
  2  1  1  0
  3  2  1  0
  4  3  1  0
  5  4  1  0
  5  6  1  1
  7  5  1  0
  8  7  2  0
 10  9  1  0
 11 10  2  0
 13 12  1  1
 12 10  1  0
 13 14  1  0
 14  7  1  0
 15 13  1  0
 15 16  2  0
 17 18  1  0
 18 19  1  0
 19 21  1  0
 19 20  1  6
 21 22  1  6
 22 15  1  0
 23 21  1  0
 24 23  1  0
 25 23  2  0
M  END
$$$$
