MNI.pdb
     RDKit          3D

 25 24  0  0  1  0  0  0  0  0999 V2000
   26.9707  -15.0429  -17.4308 C   0  0  0  0  0  0  0  0  0  0  0  0
   28.3941  -16.0011  -18.0191 S   0  0  0  0  0  0  0  0  0  0  0  0
   28.5625  -17.5132  -17.0316 C   0  0  0  0  0  0  0  0  0  0  0  0
   27.5808  -17.4273  -15.8744 C   0  0  0  0  0  0  0  0  0  0  0  0
   27.7637  -18.7031  -15.0402 C   0  0  2  0  0  0  0  0  0  0  0  0
   27.5855  -19.8392  -15.9131 N   0  0  0  0  0  0  0  0  0  0  0  0
   26.6940  -18.7132  -14.0154 C   0  0  0  0  0  0  0  0  0  0  0  0
   25.5951  -18.1025  -14.1825 O   0  0  0  0  0  0  0  0  0  0  0  0
   23.7430  -19.9201  -14.0249 N   0  0  0  0  0  0  0  0  0  0  0  0
   24.2770  -21.2347  -13.9226 C   0  0  0  0  0  0  0  0  0  0  0  0
   23.7651  -22.1285  -14.6245 O   0  0  0  0  0  0  0  0  0  0  0  0
   25.4109  -21.4698  -12.9918 C   0  0  0  0  0  0  0  0  0  0  0  0
   25.7843  -20.2491  -12.2711 C   0  0  2  0  0  0  0  0  0  0  0  0
   26.7876  -19.3913  -12.7693 N   0  0  0  0  0  0  0  0  0  0  0  0
   26.1293  -20.6627  -10.8558 C   0  0  0  0  0  0  0  0  0  0  0  0
   27.3152  -20.9287  -10.5210 O   0  0  0  0  0  0  0  0  0  0  0  0
   28.9015  -19.6584   -7.5997 C   0  0  0  0  0  0  0  0  0  0  0  0
   27.8712  -20.4887   -8.3606 C   0  0  0  0  0  0  0  0  0  0  0  0
   26.4936  -20.3358   -7.7799 C   0  0  2  0  0  0  0  0  0  0  0  0
   26.4684  -20.6976   -6.3001 C   0  0  0  0  0  0  0  0  0  0  0  0
   25.5094  -21.1492   -8.4735 C   0  0  2  0  0  0  0  0  0  0  0  0
   25.1846  -20.7828   -9.8245 N   0  0  0  0  0  0  0  0  0  0  0  0
   24.2272  -21.2387   -7.7480 C   0  0  0  0  0  0  0  0  0  0  0  0
   24.1401  -21.8993   -6.4947 O   0  0  0  0  0  0  0  0  0  0  0  0
   23.1282  -20.7701   -8.1300 O   0  0  0  0  0  0  0  0  0  0  0  0
  2  1  1  0
  3  2  1  0
  4  3  1  0
  5  4  1  0
  5  6  1  6
  7  5  1  0
  8  7  2  0
 10  9  1  0
 11 10  2  0
 13 12  1  6
 12 10  1  0
 13 14  1  0
 14  7  1  0
 15 13  1  0
 15 16  2  0
 17 18  1  0
 18 19  1  0
 19 21  1  0
 19 20  1  1
 21 22  1  6
 22 15  1  0
 23 21  1  0
 24 23  1  0
 25 23  2  0
M  END
$$$$
