MNI.pdb
     RDKit          3D

 25 24  0  0  1  0  0  0  0  0999 V2000
   27.0511  -11.6422  -17.7895 C   0  0  0  0  0  0  0  0  0  0  0  0
   26.0230  -13.1226  -17.5848 S   0  0  0  0  0  0  0  0  0  0  0  0
   25.9647  -13.5881  -15.8327 C   0  0  0  0  0  0  0  0  0  0  0  0
   25.1707  -14.8792  -15.7185 C   0  0  0  0  0  0  0  0  0  0  0  0
   26.1795  -15.9966  -15.4172 C   0  0  2  0  0  0  0  0  0  0  0  0
   26.6970  -16.4845  -16.6736 N   0  0  0  0  0  0  0  0  0  0  0  0
   25.4356  -17.0892  -14.7482 C   0  0  0  0  0  0  0  0  0  0  0  0
   24.2298  -17.3573  -15.0351 O   0  0  0  0  0  0  0  0  0  0  0  0
   25.3853  -21.9925  -13.5109 N   0  0  0  0  0  0  0  0  0  0  0  0
   25.9939  -21.5681  -14.7247 C   0  0  0  0  0  0  0  0  0  0  0  0
   26.2461  -22.4342  -15.5848 O   0  0  0  0  0  0  0  0  0  0  0  0
   26.2925  -20.1235  -14.9018 C   0  0  0  0  0  0  0  0  0  0  0  0
   25.8624  -19.3339  -13.7441 C   0  0  2  0  0  0  0  0  0  0  0  0
   25.9837  -17.9282  -13.7397 N   0  0  0  0  0  0  0  0  0  0  0  0
   26.5706  -19.9065  -12.5342 C   0  0  0  0  0  0  0  0  0  0  0  0
   27.7636  -20.3081  -12.6019 O   0  0  0  0  0  0  0  0  0  0  0  0
   27.4457  -19.2666   -6.6244 C   0  0  0  0  0  0  0  0  0  0  0  0
   27.3887  -20.2669   -7.7759 C   0  0  0  0  0  0  0  0  0  0  0  0
   26.4424  -19.8214   -8.8549 C   0  0  2  0  0  0  0  0  0  0  0  0
   24.9896  -20.0077   -8.4350 C   0  0  0  0  0  0  0  0  0  0  0  0
   26.6587  -20.5295  -10.1051 C   0  0  2  0  0  0  0  0  0  0  0  0
   25.9758  -20.0363  -11.2693 N   0  0  0  0  0  0  0  0  0  0  0  0
   26.3358  -21.9666  -10.0121 C   0  0  0  0  0  0  0  0  0  0  0  0
   25.4263  -22.5724  -10.9179 O   0  0  0  0  0  0  0  0  0  0  0  0
   26.7987  -22.7747   -9.1718 O   0  0  0  0  0  0  0  0  0  0  0  0
  2  1  1  0
  3  2  1  0
  4  3  1  0
  5  4  1  0
  5  6  1  6
  7  5  1  0
  8  7  2  0
 10  9  1  0
 11 10  2  0
 13 12  1  6
 12 10  1  0
 13 14  1  0
 14  7  1  0
 15 13  1  0
 15 16  2  0
 17 18  1  0
 18 19  1  0
 19 21  1  0
 19 20  1  1
 21 22  1  6
 22 15  1  0
 23 21  1  0
 24 23  1  0
 25 23  2  0
M  END
$$$$
