MNI.pdb
     RDKit          3D

 25 24  0  0  1  0  0  0  0  0999 V2000
   26.0693  -25.2634  -15.8376 C   0  0  0  0  0  0  0  0  0  0  0  0
   27.5442  -24.8709  -16.8179 S   0  0  0  0  0  0  0  0  0  0  0  0
   27.8802  -23.0907  -16.7296 C   0  0  0  0  0  0  0  0  0  0  0  0
   26.6597  -22.4142  -16.1269 C   0  0  0  0  0  0  0  0  0  0  0  0
   26.9445  -20.9056  -16.1216 C   0  0  2  0  0  0  0  0  0  0  0  0
   28.0531  -20.6615  -15.2294 N   0  0  0  0  0  0  0  0  0  0  0  0
   25.7387  -20.2343  -15.5831 C   0  0  0  0  0  0  0  0  0  0  0  0
   25.5573  -20.0718  -14.3385 O   0  0  0  0  0  0  0  0  0  0  0  0
   21.5614  -17.9274  -14.4121 N   0  0  0  0  0  0  0  0  0  0  0  0
   21.8551  -17.3420  -15.6750 C   0  0  0  0  0  0  0  0  0  0  0  0
   21.2275  -16.3162  -16.0026 O   0  0  0  0  0  0  0  0  0  0  0  0
   22.8897  -17.9797  -16.5297 C   0  0  0  0  0  0  0  0  0  0  0  0
   23.5233  -19.1181  -15.8577 C   0  0  2  0  0  0  0  0  0  0  0  0
   24.6862  -19.7168  -16.3868 N   0  0  0  0  0  0  0  0  0  0  0  0
   22.4512  -20.1715  -15.6731 C   0  0  0  0  0  0  0  0  0  0  0  0
   22.3760  -21.1714  -16.4370 O   0  0  0  0  0  0  0  0  0  0  0  0
   19.8112  -24.0025  -12.0276 C   0  0  0  0  0  0  0  0  0  0  0  0
   19.5934  -23.0702  -13.2164 C   0  0  0  0  0  0  0  0  0  0  0  0
   20.6721  -22.0283  -13.3125 C   0  0  2  0  0  0  0  0  0  0  0  0
   20.7432  -21.1804  -12.0485 C   0  0  0  0  0  0  0  0  0  0  0  0
   20.4876  -21.1470  -14.4528 C   0  0  2  0  0  0  0  0  0  0  0  0
   21.4762  -20.1258  -14.6642 N   0  0  0  0  0  0  0  0  0  0  0  0
   19.1799  -20.4628  -14.4417 C   0  0  0  0  0  0  0  0  0  0  0  0
   17.9694  -21.1960  -14.5500 O   0  0  0  0  0  0  0  0  0  0  0  0
   18.9941  -19.2263  -14.3414 O   0  0  0  0  0  0  0  0  0  0  0  0
  2  1  1  0
  3  2  1  0
  4  3  1  0
  5  4  1  0
  5  6  1  1
  7  5  1  0
  8  7  2  0
 10  9  1  0
 11 10  2  0
 13 12  1  6
 12 10  1  0
 13 14  1  0
 14  7  1  0
 15 13  1  0
 15 16  2  0
 17 18  1  0
 18 19  1  0
 19 21  1  0
 19 20  1  1
 21 22  1  1
 22 15  1  0
 23 21  1  0
 24 23  1  0
 25 23  2  0
M  END
$$$$
