HLF.pdb
     RDKit          3D

 30 31  0  0  1  0  0  0  0  0999 V2000
   27.3037  -23.7841  -11.5360 N   0  0  0  0  0  0  0  0  0  0  0  0
   28.2162  -23.4651  -10.4787 C   0  0  1  0  0  0  0  0  0  0  0  0
   29.5193  -24.2451  -10.6021 C   0  0  0  0  0  0  0  0  0  0  0  0
   29.2041  -25.6748  -10.4019 C   0  0  0  0  0  0  0  0  0  0  0  0
   27.9558  -26.2229  -10.3025 C   0  0  0  0  0  0  0  0  0  0  0  0
   28.1153  -27.5564  -10.1248 N   0  0  0  0  0  0  0  0  0  0  0  0
   29.4278  -27.8309  -10.1139 C   0  0  0  0  0  0  0  0  0  0  0  0
   30.0951  -26.6611  -10.2862 N   0  0  0  0  0  0  0  0  0  0  0  0
   28.4930  -22.0167  -10.5016 C   0  0  0  0  0  0  0  0  0  0  0  0
   29.0510  -21.5107  -11.4940 O   0  0  0  0  0  0  0  0  0  0  0  0
   27.0523  -19.0129  -12.1725 C   0  0  0  0  0  0  0  0  0  0  0  0
   26.1937  -19.5051  -10.9921 C   0  0  2  0  0  0  0  0  0  0  0  0
   24.8405  -18.8531  -11.2064 C   0  0  0  0  0  0  0  0  0  0  0  0
   26.8647  -19.1187   -9.7083 C   0  0  0  0  0  0  0  0  0  0  0  0
   28.1619  -19.7891   -9.5100 C   0  0  2  0  0  0  0  0  0  0  0  0
   28.1299  -21.2107   -9.4093 N   0  0  0  0  0  0  0  0  0  0  0  0
   28.8750  -19.2788   -8.2729 C   0  0  0  0  0  0  0  0  0  0  0  0
   29.3547  -18.1238   -8.2232 O   0  0  0  0  0  0  0  0  0  0  0  0
   29.0174  -20.1032   -7.1297 N   0  0  0  0  0  0  0  0  0  0  0  0
   28.7241  -19.6717   -5.7640 C   0  0  1  0  0  0  0  0  0  0  0  0
   27.3410  -19.1274   -5.6984 C   0  0  0  0  0  0  0  0  0  0  0  0
   26.2486  -20.0783   -5.8256 C   0  0  0  0  0  0  0  0  0  0  0  0
   25.2971  -19.9354   -6.8247 C   0  0  0  0  0  0  0  0  0  0  0  0
   24.2582  -20.8692   -6.9179 C   0  0  0  0  0  0  0  0  0  0  0  0
   24.1476  -21.9317   -6.0452 C   0  0  0  0  0  0  0  0  0  0  0  0
   25.0987  -22.0787   -5.0425 C   0  0  0  0  0  0  0  0  0  0  0  0
   26.1151  -21.1418   -4.9733 C   0  0  0  0  0  0  0  0  0  0  0  0
   28.9047  -20.7858   -4.8055 C   0  0  0  0  0  0  0  0  0  0  0  0
   29.0966  -21.9619   -5.1790 O   0  0  0  0  0  0  0  0  0  0  0  0
   28.8528  -20.4805   -3.4529 O   0  0  0  0  0  0  0  0  0  0  0  0
  2  1  1  6
  2  9  1  0
  2  3  1  0
  3  4  1  0
  4  8  1  0
  4  5  2  0
  5  6  1  0
  7  6  1  0
  8  7  2  0
  9 10  2  0
 12 11  1  6
 12 13  1  0
 12 14  1  0
 15 14  1  1
 16 15  1  0
 16  9  1  0
 17 15  1  0
 17 18  2  0
 19 17  1  0
 20 19  1  0
 20 28  1  0
 20 21  1  6
 22 21  1  0
 23 22  2  0
 24 23  1  0
 25 24  2  0
 25 26  1  0
 26 27  2  0
 27 22  1  0
 28 30  1  0
 29 28  2  0
M  END
$$$$
