HLF.pdb
     RDKit          3D

 30 31  0  0  1  0  0  0  0  0999 V2000
   21.3583  -15.2101  -21.4871 N   0  0  0  0  0  0  0  0  0  0  0  0
   21.4591  -14.6354  -20.1787 C   0  0  1  0  0  0  0  0  0  0  0  0
   20.0909  -14.4615  -19.5307 C   0  0  0  0  0  0  0  0  0  0  0  0
   19.4130  -13.3405  -20.2140 C   0  0  0  0  0  0  0  0  0  0  0  0
   19.7083  -12.8509  -21.4557 C   0  0  0  0  0  0  0  0  0  0  0  0
   18.8527  -11.8292  -21.6988 N   0  0  0  0  0  0  0  0  0  0  0  0
   18.0463  -11.6867  -20.6370 C   0  0  0  0  0  0  0  0  0  0  0  0
   18.3993  -12.6259  -19.7222 N   0  0  0  0  0  0  0  0  0  0  0  0
   22.3081  -15.4990  -19.3370 C   0  0  0  0  0  0  0  0  0  0  0  0
   22.5237  -16.6767  -19.6816 O   0  0  0  0  0  0  0  0  0  0  0  0
   26.2442  -15.2405  -14.5645 C   0  0  0  0  0  0  0  0  0  0  0  0
   25.5640  -16.0244  -15.7027 C   0  0  2  0  0  0  0  0  0  0  0  0
   26.7125  -16.5633  -16.5348 C   0  0  0  0  0  0  0  0  0  0  0  0
   24.6463  -15.1021  -16.4476 C   0  0  0  0  0  0  0  0  0  0  0  0
   23.7160  -15.8119  -17.3433 C   0  0  2  0  0  0  0  0  0  0  0  0
   22.8709  -14.9967  -18.1515 N   0  0  0  0  0  0  0  0  0  0  0  0
   22.8106  -16.7574  -16.5783 C   0  0  0  0  0  0  0  0  0  0  0  0
   23.2717  -17.7179  -15.9215 O   0  0  0  0  0  0  0  0  0  0  0  0
   21.4055  -16.5763  -16.5860 N   0  0  0  0  0  0  0  0  0  0  0  0
   20.4686  -17.3862  -15.8091 C   0  0  1  0  0  0  0  0  0  0  0  0
   20.7609  -17.2342  -14.3582 C   0  0  0  0  0  0  0  0  0  0  0  0
   19.8692  -17.9086  -13.4290 C   0  0  0  0  0  0  0  0  0  0  0  0
   18.8492  -17.2148  -12.7949 C   0  0  0  0  0  0  0  0  0  0  0  0
   18.0093  -17.8955  -11.9056 C   0  0  0  0  0  0  0  0  0  0  0  0
   18.1626  -19.2397  -11.6364 C   0  0  0  0  0  0  0  0  0  0  0  0
   19.1834  -19.9390  -12.2693 C   0  0  0  0  0  0  0  0  0  0  0  0
   19.9988  -19.2418  -13.1438 C   0  0  0  0  0  0  0  0  0  0  0  0
   19.0678  -17.0140  -16.1126 C   0  0  0  0  0  0  0  0  0  0  0  0
   18.7521  -15.8721  -16.5074 O   0  0  0  0  0  0  0  0  0  0  0  0
   18.0958  -17.9894  -15.9417 O   0  0  0  0  0  0  0  0  0  0  0  0
  2  1  1  6
  2  9  1  0
  2  3  1  0
  3  4  1  0
  4  8  1  0
  4  5  2  0
  5  6  1  0
  7  6  1  0
  8  7  2  0
  9 10  2  0
 12 11  1  1
 12 13  1  0
 12 14  1  0
 15 14  1  1
 16 15  1  0
 16  9  1  0
 17 15  1  0
 17 18  2  0
 19 17  1  0
 20 19  1  0
 20 28  1  0
 20 21  1  1
 22 21  1  0
 23 22  2  0
 24 23  1  0
 25 24  2  0
 25 26  1  0
 26 27  2  0
 27 22  1  0
 28 30  1  0
 29 28  2  0
M  END
$$$$
