HLF.pdb
     RDKit          3D

 30 31  0  0  1  0  0  0  0  0999 V2000
   23.5063   -9.8239  -21.1022 N   0  0  0  0  0  0  0  0  0  0  0  0
   22.2475   -9.3569  -20.6026 C   0  0  1  0  0  0  0  0  0  0  0  0
   21.5409  -10.4190  -19.7692 C   0  0  0  0  0  0  0  0  0  0  0  0
   21.1157  -11.4962  -20.6869 C   0  0  0  0  0  0  0  0  0  0  0  0
   21.7403  -12.6983  -20.8698 C   0  0  0  0  0  0  0  0  0  0  0  0
   21.0269  -13.3855  -21.7938 N   0  0  0  0  0  0  0  0  0  0  0  0
   19.9861  -12.6313  -22.1759 C   0  0  0  0  0  0  0  0  0  0  0  0
   20.0479  -11.4635  -21.4862 N   0  0  0  0  0  0  0  0  0  0  0  0
   22.4705   -8.1464  -19.7902 C   0  0  0  0  0  0  0  0  0  0  0  0
   23.4798   -8.0678  -19.0640 O   0  0  0  0  0  0  0  0  0  0  0  0
   23.0641   -3.6472  -20.5781 C   0  0  0  0  0  0  0  0  0  0  0  0
   21.6430   -4.1913  -20.8177 C   0  0  2  0  0  0  0  0  0  0  0  0
   20.8816   -3.0215  -21.4125 C   0  0  0  0  0  0  0  0  0  0  0  0
   21.0869   -4.6880  -19.5171 C   0  0  0  0  0  0  0  0  0  0  0  0
   21.7431   -5.9184  -19.0404 C   0  0  2  0  0  0  0  0  0  0  0  0
   21.5490   -7.0865  -19.8342 N   0  0  0  0  0  0  0  0  0  0  0  0
   21.3163   -6.2725  -17.6292 C   0  0  0  0  0  0  0  0  0  0  0  0
   20.2462   -6.8806  -17.4017 O   0  0  0  0  0  0  0  0  0  0  0  0
   22.1257   -5.9219  -16.5206 N   0  0  0  0  0  0  0  0  0  0  0  0
   21.8856   -6.3763  -15.1519 C   0  0  1  0  0  0  0  0  0  0  0  0
   21.8030   -7.8616  -15.1260 C   0  0  0  0  0  0  0  0  0  0  0  0
   21.6945   -8.4960  -13.8225 C   0  0  0  0  0  0  0  0  0  0  0  0
   20.6204   -8.2232  -12.9884 C   0  0  0  0  0  0  0  0  0  0  0  0
   20.5478   -8.8515  -11.7395 C   0  0  0  0  0  0  0  0  0  0  0  0
   21.5133   -9.7369  -11.3075 C   0  0  0  0  0  0  0  0  0  0  0  0
   22.5915  -10.0132  -12.1399 C   0  0  0  0  0  0  0  0  0  0  0  0
   22.6383   -9.3787  -13.3690 C   0  0  0  0  0  0  0  0  0  0  0  0
   22.9414   -5.8850  -14.2372 C   0  0  0  0  0  0  0  0  0  0  0  0
   24.1262   -5.7396  -14.6038 O   0  0  0  0  0  0  0  0  0  0  0  0
   22.5698   -5.5852  -12.9343 O   0  0  0  0  0  0  0  0  0  0  0  0
  2  1  1  1
  2  9  1  0
  2  3  1  0
  3  4  1  0
  4  8  1  0
  4  5  2  0
  5  6  1  0
  7  6  1  0
  8  7  2  0
  9 10  2  0
 12 11  1  1
 12 13  1  0
 12 14  1  0
 15 14  1  6
 16 15  1  0
 16  9  1  0
 17 15  1  0
 17 18  2  0
 19 17  1  0
 20 19  1  0
 20 28  1  0
 20 21  1  6
 22 21  1  0
 23 22  2  0
 24 23  1  0
 25 24  2  0
 25 26  1  0
 26 27  2  0
 27 22  1  0
 28 30  1  0
 29 28  2  0
M  END
$$$$
