HLF.pdb
     RDKit          3D

 30 31  0  0  1  0  0  0  0  0999 V2000
   19.6297   -9.1891  -18.8897 N   0  0  0  0  0  0  0  0  0  0  0  0
   20.5794   -8.2178  -18.4347 C   0  0  1  0  0  0  0  0  0  0  0  0
   20.0864   -6.7944  -18.6646 C   0  0  0  0  0  0  0  0  0  0  0  0
   20.3120   -6.4686  -20.0881 C   0  0  0  0  0  0  0  0  0  0  0  0
   21.4738   -6.6473  -20.7858 C   0  0  0  0  0  0  0  0  0  0  0  0
   21.2517   -6.2213  -22.0524 N   0  0  0  0  0  0  0  0  0  0  0  0
   19.9854   -5.7890  -22.1407 C   0  0  0  0  0  0  0  0  0  0  0  0
   19.4103   -5.9455  -20.9208 N   0  0  0  0  0  0  0  0  0  0  0  0
   20.8400   -8.4340  -16.9993 C   0  0  0  0  0  0  0  0  0  0  0  0
   19.9194   -8.8267  -16.2573 O   0  0  0  0  0  0  0  0  0  0  0  0
   22.9759  -11.2388  -14.7095 C   0  0  0  0  0  0  0  0  0  0  0  0
   23.9380  -10.1886  -15.2965 C   0  0  2  0  0  0  0  0  0  0  0  0
   25.3232  -10.7341  -15.0040 C   0  0  0  0  0  0  0  0  0  0  0  0
   23.6545   -8.8606  -14.6611 C   0  0  0  0  0  0  0  0  0  0  0  0
   22.3579   -8.2906  -15.0678 C   0  0  2  0  0  0  0  0  0  0  0  0
   22.1202   -8.1978  -16.4703 N   0  0  0  0  0  0  0  0  0  0  0  0
   22.1503   -6.9017  -14.4960 C   0  0  0  0  0  0  0  0  0  0  0  0
   23.1169   -6.1785  -14.1652 O   0  0  0  0  0  0  0  0  0  0  0  0
   20.8447   -6.3807  -14.3203 N   0  0  0  0  0  0  0  0  0  0  0  0
   20.5236   -4.9544  -14.3118 C   0  0  1  0  0  0  0  0  0  0  0  0
   21.2201   -4.2790  -15.4398 C   0  0  0  0  0  0  0  0  0  0  0  0
   21.9998   -3.0939  -15.1220 C   0  0  0  0  0  0  0  0  0  0  0  0
   23.2653   -2.9124  -15.6602 C   0  0  0  0  0  0  0  0  0  0  0  0
   23.9887   -1.7595  -15.3325 C   0  0  0  0  0  0  0  0  0  0  0  0
   23.4836   -0.7930  -14.4877 C   0  0  0  0  0  0  0  0  0  0  0  0
   22.2161   -0.9708  -13.9460 C   0  0  0  0  0  0  0  0  0  0  0  0
   21.5227   -2.1191  -14.2868 C   0  0  0  0  0  0  0  0  0  0  0  0
   19.0602   -4.7399  -14.3837 C   0  0  0  0  0  0  0  0  0  0  0  0
   18.5411   -3.6189  -14.2008 O   0  0  0  0  0  0  0  0  0  0  0  0
   18.2655   -5.8420  -14.6650 O   0  0  0  0  0  0  0  0  0  0  0  0
  2  1  1  1
  2  9  1  0
  2  3  1  0
  3  4  1  0
  4  8  1  0
  4  5  2  0
  5  6  1  0
  7  6  1  0
  8  7  2  0
  9 10  2  0
 12 11  1  1
 12 13  1  0
 12 14  1  0
 15 14  1  6
 16 15  1  0
 16  9  1  0
 17 15  1  0
 17 18  2  0
 19 17  1  0
 20 19  1  0
 20 28  1  0
 20 21  1  6
 22 21  1  0
 23 22  2  0
 24 23  1  0
 25 24  2  0
 25 26  1  0
 26 27  2  0
 27 22  1  0
 28 30  1  0
 29 28  2  0
M  END
$$$$
