HLF.pdb
     RDKit          3D

 30 31  0  0  1  0  0  0  0  0999 V2000
   25.3798  -19.4448  -17.5311 N   0  0  0  0  0  0  0  0  0  0  0  0
   25.2906  -19.0530  -16.1561 C   0  0  1  0  0  0  0  0  0  0  0  0
   23.8854  -18.5906  -15.7901 C   0  0  0  0  0  0  0  0  0  0  0  0
   23.6356  -17.3185  -16.4993 C   0  0  0  0  0  0  0  0  0  0  0  0
   24.5693  -16.5478  -17.1338 C   0  0  0  0  0  0  0  0  0  0  0  0
   23.9222  -15.4752  -17.6492 N   0  0  0  0  0  0  0  0  0  0  0  0
   22.6204  -15.5755  -17.3436 C   0  0  0  0  0  0  0  0  0  0  0  0
   22.4510  -16.7192  -16.6318 N   0  0  0  0  0  0  0  0  0  0  0  0
   25.6833  -20.1908  -15.3040 C   0  0  0  0  0  0  0  0  0  0  0  0
   25.5465  -21.3546  -15.7271 O   0  0  0  0  0  0  0  0  0  0  0  0
   30.3202  -20.4488  -12.2998 C   0  0  0  0  0  0  0  0  0  0  0  0
   29.1236  -20.7078  -13.2345 C   0  0  2  0  0  0  0  0  0  0  0  0
   29.1402  -19.5438  -14.2075 C   0  0  0  0  0  0  0  0  0  0  0  0
   27.8744  -20.8014  -12.4108 C   0  0  0  0  0  0  0  0  0  0  0  0
   26.6671  -21.0497  -13.2185 C   0  0  2  0  0  0  0  0  0  0  0  0
   26.2091  -19.9641  -14.0208 N   0  0  0  0  0  0  0  0  0  0  0  0
   25.4955  -21.4835  -12.3592 C   0  0  0  0  0  0  0  0  0  0  0  0
   25.5048  -22.5713  -11.7401 O   0  0  0  0  0  0  0  0  0  0  0  0
   24.3491  -20.6609  -12.2325 N   0  0  0  0  0  0  0  0  0  0  0  0
   23.1955  -20.9830  -11.3942 C   0  0  1  0  0  0  0  0  0  0  0  0
   23.1181  -20.0226  -10.2606 C   0  0  0  0  0  0  0  0  0  0  0  0
   24.1031  -20.1678   -9.2013 C   0  0  0  0  0  0  0  0  0  0  0  0
   24.0420  -21.2355   -8.3179 C   0  0  0  0  0  0  0  0  0  0  0  0
   25.0066  -21.3442   -7.3091 C   0  0  0  0  0  0  0  0  0  0  0  0
   26.0208  -20.4208   -7.1625 C   0  0  0  0  0  0  0  0  0  0  0  0
   26.0858  -19.3493   -8.0454 C   0  0  0  0  0  0  0  0  0  0  0  0
   25.1200  -19.2662   -9.0332 C   0  0  0  0  0  0  0  0  0  0  0  0
   21.9449  -20.9740  -12.1870 C   0  0  0  0  0  0  0  0  0  0  0  0
   21.9252  -20.6680  -13.3975 O   0  0  0  0  0  0  0  0  0  0  0  0
   20.7711  -21.3215  -11.5336 O   0  0  0  0  0  0  0  0  0  0  0  0
  2  1  1  6
  2  9  1  0
  2  3  1  0
  3  4  1  0
  4  8  1  0
  4  5  2  0
  5  6  1  0
  7  6  1  0
  8  7  2  0
  9 10  2  0
 12 11  1  1
 12 13  1  0
 12 14  1  0
 15 14  1  1
 16 15  1  0
 16  9  1  0
 17 15  1  0
 17 18  2  0
 19 17  1  0
 20 19  1  0
 20 28  1  0
 20 21  1  1
 22 21  1  0
 23 22  2  0
 24 23  1  0
 25 24  2  0
 25 26  1  0
 26 27  2  0
 27 22  1  0
 28 30  1  0
 29 28  2  0
M  END
$$$$
