HLF.pdb
     RDKit          3D

 30 31  0  0  1  0  0  0  0  0999 V2000
   24.1488  -20.3128  -15.2211 N   0  0  0  0  0  0  0  0  0  0  0  0
   24.4182  -19.8212  -13.9028 C   0  0  1  0  0  0  0  0  0  0  0  0
   23.1408  -19.6589  -13.0879 C   0  0  0  0  0  0  0  0  0  0  0  0
   22.2908  -18.6703  -13.7832 C   0  0  0  0  0  0  0  0  0  0  0  0
   22.6906  -17.4559  -14.2669 C   0  0  0  0  0  0  0  0  0  0  0  0
   21.6058  -16.8698  -14.8278 N   0  0  0  0  0  0  0  0  0  0  0  0
   20.5587  -17.6972  -14.6968 C   0  0  0  0  0  0  0  0  0  0  0  0
   20.9908  -18.8096  -14.0493 N   0  0  0  0  0  0  0  0  0  0  0  0
   25.3358  -20.7519  -13.2194 C   0  0  0  0  0  0  0  0  0  0  0  0
   25.1725  -21.9809  -13.3423 O   0  0  0  0  0  0  0  0  0  0  0  0
   29.0345  -21.4784  -14.3696 C   0  0  0  0  0  0  0  0  0  0  0  0
   29.0993  -20.2775  -13.4070 C   0  0  2  0  0  0  0  0  0  0  0  0
   30.5103  -19.7414  -13.5599 C   0  0  0  0  0  0  0  0  0  0  0  0
   28.7675  -20.7460  -12.0221 C   0  0  0  0  0  0  0  0  0  0  0  0
   27.3553  -21.1379  -11.8676 C   0  0  2  0  0  0  0  0  0  0  0  0
   26.3890  -20.2554  -12.4328 N   0  0  0  0  0  0  0  0  0  0  0  0
   26.9795  -21.3229  -10.4104 C   0  0  0  0  0  0  0  0  0  0  0  0
   27.5431  -22.1794   -9.6923 O   0  0  0  0  0  0  0  0  0  0  0  0
   25.9718  -20.5231   -9.8172 N   0  0  0  0  0  0  0  0  0  0  0  0
   25.3972  -20.7718   -8.4961 C   0  0  1  0  0  0  0  0  0  0  0  0
   25.6520  -19.6023   -7.6124 C   0  0  0  0  0  0  0  0  0  0  0  0
   26.8716  -19.6235   -6.8214 C   0  0  0  0  0  0  0  0  0  0  0  0
   27.7757  -18.5733   -6.8841 C   0  0  0  0  0  0  0  0  0  0  0  0
   28.9404  -18.6267   -6.1092 C   0  0  0  0  0  0  0  0  0  0  0  0
   29.2215  -19.6939   -5.2816 C   0  0  0  0  0  0  0  0  0  0  0  0
   28.3186  -20.7484   -5.2157 C   0  0  0  0  0  0  0  0  0  0  0  0
   27.1753  -20.6698   -5.9918 C   0  0  0  0  0  0  0  0  0  0  0  0
   23.9481  -21.0604   -8.5939 C   0  0  0  0  0  0  0  0  0  0  0  0
   23.3204  -20.9641   -9.6692 O   0  0  0  0  0  0  0  0  0  0  0  0
   23.2936  -21.4480   -7.4335 O   0  0  0  0  0  0  0  0  0  0  0  0
  2  1  1  6
  2  9  1  0
  2  3  1  0
  3  4  1  0
  4  8  1  0
  4  5  2  0
  5  6  1  0
  7  6  1  0
  8  7  2  0
  9 10  2  0
 12 11  1  6
 12 13  1  0
 12 14  1  0
 15 14  1  1
 16 15  1  0
 16  9  1  0
 17 15  1  0
 17 18  2  0
 19 17  1  0
 20 19  1  0
 20 28  1  0
 20 21  1  1
 22 21  1  0
 23 22  2  0
 24 23  1  0
 25 24  2  0
 25 26  1  0
 26 27  2  0
 27 22  1  0
 28 30  1  0
 29 28  2  0
M  END
$$$$
