HLF.pdb
     RDKit          3D

 30 31  0  0  1  0  0  0  0  0999 V2000
   18.7381   -9.5690  -18.2273 N   0  0  0  0  0  0  0  0  0  0  0  0
   18.7648   -8.3131  -17.5388 C   0  0  1  0  0  0  0  0  0  0  0  0
   17.5119   -7.4906  -17.8144 C   0  0  0  0  0  0  0  0  0  0  0  0
   17.5923   -7.0090  -19.2090 C   0  0  0  0  0  0  0  0  0  0  0  0
   18.3783   -5.9903  -19.6703 C   0  0  0  0  0  0  0  0  0  0  0  0
   18.1493   -5.8766  -21.0006 N   0  0  0  0  0  0  0  0  0  0  0  0
   17.2449   -6.7999  -21.3578 C   0  0  0  0  0  0  0  0  0  0  0  0
   16.9051   -7.4970  -20.2433 N   0  0  0  0  0  0  0  0  0  0  0  0
   18.8960   -8.5598  -16.0907 C   0  0  0  0  0  0  0  0  0  0  0  0
   18.2205   -9.4587  -15.5543 O   0  0  0  0  0  0  0  0  0  0  0  0
   23.1830   -9.5254  -12.5184 C   0  0  0  0  0  0  0  0  0  0  0  0
   21.7161   -9.5292  -12.9885 C   0  0  2  0  0  0  0  0  0  0  0  0
   21.6644  -10.5923  -14.0696 C   0  0  0  0  0  0  0  0  0  0  0  0
   21.3538   -8.1538  -13.4624 C   0  0  0  0  0  0  0  0  0  0  0  0
   19.9603   -8.0525  -13.9309 C   0  0  2  0  0  0  0  0  0  0  0  0
   19.7780   -7.7846  -15.3191 N   0  0  0  0  0  0  0  0  0  0  0  0
   19.1890   -6.9883  -13.1749 C   0  0  0  0  0  0  0  0  0  0  0  0
   19.2631   -5.7788  -13.4884 O   0  0  0  0  0  0  0  0  0  0  0  0
   18.3556   -7.3383  -12.0840 N   0  0  0  0  0  0  0  0  0  0  0  0
   17.7007   -6.3694  -11.2067 C   0  0  1  0  0  0  0  0  0  0  0  0
   16.2271   -6.4355  -11.4013 C   0  0  0  0  0  0  0  0  0  0  0  0
   15.7017   -5.9264  -12.6575 C   0  0  0  0  0  0  0  0  0  0  0  0
   15.3595   -6.7922  -13.6858 C   0  0  0  0  0  0  0  0  0  0  0  0
   14.8569   -6.2676  -14.8825 C   0  0  0  0  0  0  0  0  0  0  0  0
   14.6899   -4.9120  -15.0752 C   0  0  0  0  0  0  0  0  0  0  0  0
   15.0316   -4.0407  -14.0477 C   0  0  0  0  0  0  0  0  0  0  0  0
   15.5257   -4.5859  -12.8754 C   0  0  0  0  0  0  0  0  0  0  0  0
   18.0626   -6.6068   -9.7906 C   0  0  0  0  0  0  0  0  0  0  0  0
   18.6920   -7.6215   -9.4246 O   0  0  0  0  0  0  0  0  0  0  0  0
   17.6743   -5.6512   -8.8625 O   0  0  0  0  0  0  0  0  0  0  0  0
  2  1  1  6
  2  9  1  0
  2  3  1  0
  3  4  1  0
  4  8  1  0
  4  5  2  0
  5  6  1  0
  7  6  1  0
  8  7  2  0
  9 10  2  0
 12 11  1  6
 12 13  1  0
 12 14  1  0
 15 14  1  1
 16 15  1  0
 16  9  1  0
 17 15  1  0
 17 18  2  0
 19 17  1  0
 20 19  1  0
 20 28  1  0
 20 21  1  1
 22 21  1  0
 23 22  2  0
 24 23  1  0
 25 24  2  0
 25 26  1  0
 26 27  2  0
 27 22  1  0
 28 30  1  0
 29 28  2  0
M  END
$$$$
