HLF.pdb
     RDKit          3D

 30 31  0  0  1  0  0  0  0  0999 V2000
   22.9965  -10.1678  -18.6593 N   0  0  0  0  0  0  0  0  0  0  0  0
   24.3792   -9.8435  -18.4720 C   0  0  1  0  0  0  0  0  0  0  0  0
   25.1288   -9.7776  -19.7971 C   0  0  0  0  0  0  0  0  0  0  0  0
   24.7721  -10.9841  -20.5719 C   0  0  0  0  0  0  0  0  0  0  0  0
   24.0532  -12.0548  -20.1187 C   0  0  0  0  0  0  0  0  0  0  0  0
   23.9547  -12.9356  -21.1431 N   0  0  0  0  0  0  0  0  0  0  0  0
   24.5951  -12.4267  -22.2057 C   0  0  0  0  0  0  0  0  0  0  0  0
   25.0982  -11.2186  -21.8442 N   0  0  0  0  0  0  0  0  0  0  0  0
   24.4804   -8.5493  -17.7722 C   0  0  0  0  0  0  0  0  0  0  0  0
   25.6019   -8.0559  -17.5464 O   0  0  0  0  0  0  0  0  0  0  0  0
   24.8376   -3.2064  -17.8471 C   0  0  0  0  0  0  0  0  0  0  0  0
   24.1039   -4.2012  -16.9278 C   0  0  2  0  0  0  0  0  0  0  0  0
   24.8431   -4.1156  -15.6056 C   0  0  0  0  0  0  0  0  0  0  0  0
   24.1329   -5.5600  -17.5604 C   0  0  0  0  0  0  0  0  0  0  0  0
   23.3944   -6.5735  -16.7863 C   0  0  2  0  0  0  0  0  0  0  0  0
   23.3177   -7.8757  -17.3611 N   0  0  0  0  0  0  0  0  0  0  0  0
   21.9707   -6.1361  -16.5019 C   0  0  0  0  0  0  0  0  0  0  0  0
   21.2751   -5.5645  -17.3714 O   0  0  0  0  0  0  0  0  0  0  0  0
   21.3845   -6.3660  -15.2328 N   0  0  0  0  0  0  0  0  0  0  0  0
   19.9748   -6.1310  -14.9245 C   0  0  1  0  0  0  0  0  0  0  0  0
   19.1221   -6.9217  -15.8525 C   0  0  0  0  0  0  0  0  0  0  0  0
   19.1917   -8.3697  -15.7442 C   0  0  0  0  0  0  0  0  0  0  0  0
   18.3743   -9.0545  -14.8572 C   0  0  0  0  0  0  0  0  0  0  0  0
   18.4680  -10.4491  -14.7784 C   0  0  0  0  0  0  0  0  0  0  0  0
   19.3506  -11.1693  -15.5564 C   0  0  0  0  0  0  0  0  0  0  0  0
   20.1717  -10.4873  -16.4465 C   0  0  0  0  0  0  0  0  0  0  0  0
   20.0583   -9.1091  -16.5044 C   0  0  0  0  0  0  0  0  0  0  0  0
   19.6781   -6.4649  -13.5127 C   0  0  0  0  0  0  0  0  0  0  0  0
   20.5184   -7.0078  -12.7653 O   0  0  0  0  0  0  0  0  0  0  0  0
   18.4140   -6.1518  -13.0337 O   0  0  0  0  0  0  0  0  0  0  0  0
  2  1  1  6
  2  9  1  0
  2  3  1  0
  3  4  1  0
  4  8  1  0
  4  5  2  0
  5  6  1  0
  7  6  1  0
  8  7  2  0
  9 10  2  0
 12 11  1  6
 12 13  1  0
 12 14  1  0
 15 14  1  6
 16 15  1  0
 16  9  1  0
 17 15  1  0
 17 18  2  0
 19 17  1  0
 20 19  1  0
 20 28  1  0
 20 21  1  6
 22 21  1  0
 23 22  2  0
 24 23  1  0
 25 24  2  0
 25 26  1  0
 26 27  2  0
 27 22  1  0
 28 30  1  0
 29 28  2  0
M  END
$$$$
