HLF.pdb
     RDKit          3D

 30 31  0  0  1  0  0  0  0  0999 V2000
   21.1161  -11.5126  -19.9538 N   0  0  0  0  0  0  0  0  0  0  0  0
   21.9678  -10.3615  -19.9102 C   0  0  1  0  0  0  0  0  0  0  0  0
   21.4804   -9.2619  -20.8457 C   0  0  0  0  0  0  0  0  0  0  0  0
   21.6498   -9.7473  -22.2310 C   0  0  0  0  0  0  0  0  0  0  0  0
   20.6955   -9.7537  -23.2097 C   0  0  0  0  0  0  0  0  0  0  0  0
   21.2635  -10.2789  -24.3217 N   0  0  0  0  0  0  0  0  0  0  0  0
   22.5374  -10.5911  -24.0426 C   0  0  0  0  0  0  0  0  0  0  0  0
   22.7689  -10.2589  -22.7467 N   0  0  0  0  0  0  0  0  0  0  0  0
   22.0241   -9.8557  -18.5260 C   0  0  0  0  0  0  0  0  0  0  0  0
   20.9912   -9.8481  -17.8293 O   0  0  0  0  0  0  0  0  0  0  0  0
   26.3269  -10.3981  -14.9009 C   0  0  0  0  0  0  0  0  0  0  0  0
   24.8210  -10.1396  -15.0966 C   0  0  2  0  0  0  0  0  0  0  0  0
   24.2771  -11.4466  -15.6423 C   0  0  0  0  0  0  0  0  0  0  0  0
   24.6441   -8.9693  -16.0167 C   0  0  0  0  0  0  0  0  0  0  0  0
   23.3128   -8.9261  -16.6471 C   0  0  2  0  0  0  0  0  0  0  0  0
   23.2365   -9.3840  -17.9949 N   0  0  0  0  0  0  0  0  0  0  0  0
   22.7260   -7.5282  -16.6260 C   0  0  0  0  0  0  0  0  0  0  0  0
   23.1866   -6.6136  -17.3458 O   0  0  0  0  0  0  0  0  0  0  0  0
   21.6300   -7.2176  -15.7839 N   0  0  0  0  0  0  0  0  0  0  0  0
   20.9311   -5.9334  -15.7851 C   0  0  1  0  0  0  0  0  0  0  0  0
   20.4222   -5.6430  -17.1526 C   0  0  0  0  0  0  0  0  0  0  0  0
   19.6350   -4.4328  -17.3230 C   0  0  0  0  0  0  0  0  0  0  0  0
   18.2508   -4.4909  -17.3899 C   0  0  0  0  0  0  0  0  0  0  0  0
   17.5240   -3.3058  -17.5549 C   0  0  0  0  0  0  0  0  0  0  0  0
   18.1406   -2.0759  -17.6545 C   0  0  0  0  0  0  0  0  0  0  0  0
   19.5274   -2.0130  -17.5881 C   0  0  0  0  0  0  0  0  0  0  0  0
   20.2213   -3.1993  -17.4243 C   0  0  0  0  0  0  0  0  0  0  0  0
   19.8306   -5.9277  -14.7943 C   0  0  0  0  0  0  0  0  0  0  0  0
   19.1883   -4.8932  -14.5175 O   0  0  0  0  0  0  0  0  0  0  0  0
   19.5273   -7.1285  -14.1687 O   0  0  0  0  0  0  0  0  0  0  0  0
  2  1  1  1
  2  9  1  0
  2  3  1  0
  3  4  1  0
  4  8  1  0
  4  5  2  0
  5  6  1  0
  7  6  1  0
  8  7  2  0
  9 10  2  0
 12 11  1  6
 12 13  1  0
 12 14  1  0
 15 14  1  6
 16 15  1  0
 16  9  1  0
 17 15  1  0
 17 18  2  0
 19 17  1  0
 20 19  1  0
 20 28  1  0
 20 21  1  6
 22 21  1  0
 23 22  2  0
 24 23  1  0
 25 24  2  0
 25 26  1  0
 26 27  2  0
 27 22  1  0
 28 30  1  0
 29 28  2  0
M  END
$$$$
