HLF.pdb
     RDKit          3D

 30 31  0  0  1  0  0  0  0  0999 V2000
   30.1131  -10.8612  -19.7202 N   0  0  0  0  0  0  0  0  0  0  0  0
   28.8256  -11.4462  -19.4912 C   0  0  1  0  0  0  0  0  0  0  0  0
   28.8014  -12.2778  -18.2145 C   0  0  0  0  0  0  0  0  0  0  0  0
   29.5369  -13.5306  -18.4843 C   0  0  0  0  0  0  0  0  0  0  0  0
   30.1727  -13.8623  -19.6480 C   0  0  0  0  0  0  0  0  0  0  0  0
   30.7162  -15.0907  -19.4731 N   0  0  0  0  0  0  0  0  0  0  0  0
   30.4266  -15.5123  -18.2336 C   0  0  0  0  0  0  0  0  0  0  0  0
   29.6965  -14.5411  -17.6278 N   0  0  0  0  0  0  0  0  0  0  0  0
   27.8161  -10.3739  -19.4120 C   0  0  0  0  0  0  0  0  0  0  0  0
   28.1537   -9.2351  -19.0359 O   0  0  0  0  0  0  0  0  0  0  0  0
   22.6798   -8.3673  -21.9468 C   0  0  0  0  0  0  0  0  0  0  0  0
   23.6629   -8.3202  -20.7619 C   0  0  2  0  0  0  0  0  0  0  0  0
   24.3598   -6.9793  -20.8971 C   0  0  0  0  0  0  0  0  0  0  0  0
   24.5826   -9.5012  -20.8459 C   0  0  0  0  0  0  0  0  0  0  0  0
   25.4955   -9.6056  -19.6938 C   0  0  2  0  0  0  0  0  0  0  0  0
   26.4796  -10.6349  -19.7584 N   0  0  0  0  0  0  0  0  0  0  0  0
   24.7399   -9.8034  -18.3942 C   0  0  0  0  0  0  0  0  0  0  0  0
   24.2078  -10.8992  -18.1063 O   0  0  0  0  0  0  0  0  0  0  0  0
   24.6161   -8.7436  -17.4623 N   0  0  0  0  0  0  0  0  0  0  0  0
   23.8747   -8.8371  -16.2056 C   0  0  1  0  0  0  0  0  0  0  0  0
   24.8293   -8.9090  -15.0667 C   0  0  0  0  0  0  0  0  0  0  0  0
   25.7108  -10.0639  -15.0135 C   0  0  0  0  0  0  0  0  0  0  0  0
   27.0204   -9.9775  -15.4624 C   0  0  0  0  0  0  0  0  0  0  0  0
   27.8416  -11.1094  -15.3970 C   0  0  0  0  0  0  0  0  0  0  0  0
   27.3903  -12.3142  -14.8994 C   0  0  0  0  0  0  0  0  0  0  0  0
   26.0787  -12.4055  -14.4487 C   0  0  0  0  0  0  0  0  0  0  0  0
   25.2889  -11.2714  -14.5245 C   0  0  0  0  0  0  0  0  0  0  0  0
   22.9461   -7.6941  -16.0516 C   0  0  0  0  0  0  0  0  0  0  0  0
   22.9547   -6.7185  -16.8311 O   0  0  0  0  0  0  0  0  0  0  0  0
   22.0480   -7.7379  -14.9947 O   0  0  0  0  0  0  0  0  0  0  0  0
  2  1  1  1
  2  9  1  0
  2  3  1  0
  3  4  1  0
  4  8  1  0
  4  5  2  0
  5  6  1  0
  7  6  1  0
  8  7  2  0
  9 10  2  0
 12 11  1  6
 12 13  1  0
 12 14  1  0
 15 14  1  6
 16 15  1  0
 16  9  1  0
 17 15  1  0
 17 18  2  0
 19 17  1  0
 20 19  1  0
 20 28  1  0
 20 21  1  1
 22 21  1  0
 23 22  2  0
 24 23  1  0
 25 24  2  0
 25 26  1  0
 26 27  2  0
 27 22  1  0
 28 30  1  0
 29 28  2  0
M  END
$$$$
