HLF.pdb
     RDKit          3D

 30 31  0  0  1  0  0  0  0  0999 V2000
   25.2679  -22.7684  -16.6066 N   0  0  0  0  0  0  0  0  0  0  0  0
   24.5410  -22.1801  -15.5213 C   0  0  1  0  0  0  0  0  0  0  0  0
   23.5518  -23.1621  -14.9054 C   0  0  0  0  0  0  0  0  0  0  0  0
   22.3587  -23.1987  -15.7764 C   0  0  0  0  0  0  0  0  0  0  0  0
   21.5863  -22.1303  -16.1377 C   0  0  0  0  0  0  0  0  0  0  0  0
   20.6002  -22.6000  -16.9390 N   0  0  0  0  0  0  0  0  0  0  0  0
   20.7547  -23.9252  -17.0729 C   0  0  0  0  0  0  0  0  0  0  0  0
   21.8454  -24.2882  -16.3504 N   0  0  0  0  0  0  0  0  0  0  0  0
   25.4954  -21.7182  -14.4962 C   0  0  0  0  0  0  0  0  0  0  0  0
   26.4799  -22.4247  -14.2066 O   0  0  0  0  0  0  0  0  0  0  0  0
   28.3054  -18.6374  -14.6591 C   0  0  0  0  0  0  0  0  0  0  0  0
   26.9279  -18.0352  -14.3231 C   0  0  2  0  0  0  0  0  0  0  0  0
   27.1379  -16.5347  -14.4015 C   0  0  0  0  0  0  0  0  0  0  0  0
   26.4994  -18.5253  -12.9726 C   0  0  0  0  0  0  0  0  0  0  0  0
   26.2637  -19.9794  -12.9337 C   0  0  2  0  0  0  0  0  0  0  0  0
   25.2954  -20.4875  -13.8483 N   0  0  0  0  0  0  0  0  0  0  0  0
   25.8470  -20.4445  -11.5520 C   0  0  0  0  0  0  0  0  0  0  0  0
   24.6421  -20.5154  -11.2205 O   0  0  0  0  0  0  0  0  0  0  0  0
   26.8196  -20.8156  -10.5911 N   0  0  0  0  0  0  0  0  0  0  0  0
   26.5105  -21.1923   -9.2127 C   0  0  1  0  0  0  0  0  0  0  0  0
   27.7736  -21.3459   -8.4417 C   0  0  0  0  0  0  0  0  0  0  0  0
   27.8436  -20.6875   -7.1475 C   0  0  0  0  0  0  0  0  0  0  0  0
   27.3795  -19.3904   -6.9859 C   0  0  0  0  0  0  0  0  0  0  0  0
   27.4628  -18.7865   -5.7256 C   0  0  0  0  0  0  0  0  0  0  0  0
   27.9939  -19.4405   -4.6334 C   0  0  0  0  0  0  0  0  0  0  0  0
   28.4604  -20.7403   -4.7907 C   0  0  0  0  0  0  0  0  0  0  0  0
   28.3657  -21.3134   -6.0470 C   0  0  0  0  0  0  0  0  0  0  0  0
   25.6166  -20.1965   -8.5786 C   0  0  0  0  0  0  0  0  0  0  0  0
   25.6044  -18.9964   -8.9238 O   0  0  0  0  0  0  0  0  0  0  0  0
   24.7762  -20.6430   -7.5688 O   0  0  0  0  0  0  0  0  0  0  0  0
  2  1  1  6
  2  9  1  0
  2  3  1  0
  3  4  1  0
  4  8  1  0
  4  5  2  0
  5  6  1  0
  7  6  1  0
  8  7  2  0
  9 10  2  0
 12 11  1  1
 12 13  1  0
 12 14  1  0
 15 14  1  1
 16 15  1  0
 16  9  1  0
 17 15  1  0
 17 18  2  0
 19 17  1  0
 20 19  1  0
 20 28  1  0
 20 21  1  1
 22 21  1  0
 23 22  2  0
 24 23  1  0
 25 24  2  0
 25 26  1  0
 26 27  2  0
 27 22  1  0
 28 30  1  0
 29 28  2  0
M  END
$$$$
