DFP.pdb
     RDKit          3D

 27 28  0  0  1  0  0  0  0  0999 V2000
   26.1830  -21.5217  -12.7468 N   0  0  0  0  0  0  0  0  0  0  0  0
   25.5941  -20.6412  -11.7586 C   0  0  1  0  0  0  0  0  0  0  0  0
   24.1105  -20.6205  -11.8101 C   0  0  0  0  0  0  0  0  0  0  0  0
   23.5554  -20.0912  -13.0574 C   0  0  0  0  0  0  0  0  0  0  0  0
   23.9397  -18.9441  -13.4293 O   0  0  0  0  0  0  0  0  0  0  0  0
   26.1020  -20.8933  -10.4129 C   0  0  0  0  0  0  0  0  0  0  0  0
   26.3422  -22.1017  -10.1058 O   0  0  0  0  0  0  0  0  0  0  0  0
   22.6492  -20.7378  -13.8605 O   0  0  0  0  0  0  0  0  0  0  0  0
   26.3135  -19.8158   -9.5142 N   0  0  0  0  0  0  0  0  0  0  0  0
   26.8455  -20.0131   -8.1828 C   0  0  1  0  0  0  0  0  0  0  0  0
   27.7672  -18.9385   -7.7807 C   0  0  0  0  0  0  0  0  0  0  0  0
   28.2626  -19.2177   -6.3668 C   0  0  0  0  0  0  0  0  0  0  0  0
   27.6967  -18.6185   -5.2697 C   0  0  0  0  0  0  0  0  0  0  0  0
   28.1755  -18.8840   -3.9923 C   0  0  0  0  0  0  0  0  0  0  0  0
   29.2234  -19.7489   -3.7840 C   0  0  0  0  0  0  0  0  0  0  0  0
   29.7712  -20.3353   -4.9005 C   0  0  0  0  0  0  0  0  0  0  0  0
   29.3119  -20.0856   -6.1732 C   0  0  0  0  0  0  0  0  0  0  0  0
   25.7692  -20.4026   -7.2767 C   0  0  0  0  0  0  0  0  0  0  0  0
   24.7182  -19.6408   -7.3391 O   0  0  0  0  0  0  0  0  0  0  0  0
   25.6700  -21.4459   -6.3601 N   0  0  0  0  0  0  0  0  0  0  0  0
   26.7281  -22.4228   -6.1410 C   0  0  0  0  0  0  0  0  0  0  0  0
   25.9635  -23.6787   -5.8077 C   0  0  0  0  0  0  0  0  0  0  0  0
   24.9870  -23.0951   -4.7735 C   0  0  0  0  0  0  0  0  0  0  0  0
   24.5933  -21.7903   -5.4815 C   0  0  1  0  0  0  0  0  0  0  0  0
   24.3126  -20.8099   -4.4226 C   0  0  0  0  0  0  0  0  0  0  0  0
   25.2332  -19.8490   -4.0425 O   0  0  0  0  0  0  0  0  0  0  0  0
   23.2027  -20.8597   -3.8562 O   0  0  0  0  0  0  0  0  0  0  0  0
  2  3  1  0
  2  1  1  6
  4  3  1  0
  5  4  2  0
  6  7  2  0
  6  2  1  0
  8  4  1  0
  9  6  1  0
 10 11  1  1
 10  9  1  0
 11 12  1  0
 12 17  2  0
 13 14  2  0
 13 12  1  0
 14 15  1  0
 15 16  2  0
 17 16  1  0
 18 10  1  0
 19 18  2  0
 20 18  1  0
 20 21  1  0
 21 22  1  0
 23 22  1  0
 24 23  1  0
 24 20  1  0
 24 25  1  1
 26 25  1  0
 27 25  2  0
M  END
$$$$
