DFP.pdb
     RDKit          3D

 27 28  0  0  1  0  0  0  0  0999 V2000
   29.6371  -21.7349  -18.3915 N   0  0  0  0  0  0  0  0  0  0  0  0
   28.4218  -20.9880  -18.1389 C   0  0  1  0  0  0  0  0  0  0  0  0
   27.4455  -21.0733  -19.2542 C   0  0  0  0  0  0  0  0  0  0  0  0
   27.8864  -20.4329  -20.4949 C   0  0  0  0  0  0  0  0  0  0  0  0
   27.9854  -21.1598  -21.5264 O   0  0  0  0  0  0  0  0  0  0  0  0
   27.8235  -21.3154  -16.8477 C   0  0  0  0  0  0  0  0  0  0  0  0
   27.4370  -22.5132  -16.6801 O   0  0  0  0  0  0  0  0  0  0  0  0
   28.2029  -19.1043  -20.6338 O   0  0  0  0  0  0  0  0  0  0  0  0
   27.6994  -20.3205  -15.8436 N   0  0  0  0  0  0  0  0  0  0  0  0
   27.0671  -20.5841  -14.5686 C   0  0  1  0  0  0  0  0  0  0  0  0
   27.7162  -19.8660  -13.4600 C   0  0  0  0  0  0  0  0  0  0  0  0
   26.9668  -20.1720  -12.1689 C   0  0  0  0  0  0  0  0  0  0  0  0
   27.3371  -21.2040  -11.3439 C   0  0  0  0  0  0  0  0  0  0  0  0
   26.6290  -21.4667  -10.1772 C   0  0  0  0  0  0  0  0  0  0  0  0
   25.5423  -20.7087   -9.8112 C   0  0  0  0  0  0  0  0  0  0  0  0
   25.1936  -19.6813  -10.6557 C   0  0  0  0  0  0  0  0  0  0  0  0
   25.8812  -19.4051  -11.8150 C   0  0  0  0  0  0  0  0  0  0  0  0
   25.6167  -20.5054  -14.7142 C   0  0  0  0  0  0  0  0  0  0  0  0
   25.1905  -19.3789  -15.2023 O   0  0  0  0  0  0  0  0  0  0  0  0
   24.6114  -21.4239  -14.4242 N   0  0  0  0  0  0  0  0  0  0  0  0
   24.8746  -22.7996  -14.0242 C   0  0  0  0  0  0  0  0  0  0  0  0
   23.7082  -23.5510  -14.6142 C   0  0  0  0  0  0  0  0  0  0  0  0
   22.5699  -22.6311  -14.1432 C   0  0  0  0  0  0  0  0  0  0  0  0
   23.1894  -21.2591  -14.4478 C   0  0  1  0  0  0  0  0  0  0  0  0
   22.6514  -20.3274  -13.4460 C   0  0  0  0  0  0  0  0  0  0  0  0
   21.3447  -19.8733  -13.4859 O   0  0  0  0  0  0  0  0  0  0  0  0
   23.4115  -19.9415  -12.5358 O   0  0  0  0  0  0  0  0  0  0  0  0
  2  3  1  0
  2  1  1  6
  4  3  1  0
  5  4  2  0
  6  7  2  0
  6  2  1  0
  8  4  1  0
  9  6  1  0
 10 11  1  1
 10  9  1  0
 11 12  1  0
 12 17  2  0
 13 14  2  0
 13 12  1  0
 14 15  1  0
 15 16  2  0
 17 16  1  0
 18 10  1  0
 19 18  2  0
 20 18  1  0
 20 21  1  0
 21 22  1  0
 23 22  1  0
 24 23  1  0
 24 20  1  0
 24 25  1  1
 26 25  1  0
 27 25  2  0
M  END
$$$$
