DFP.pdb
     RDKit          3D

 27 28  0  0  1  0  0  0  0  0999 V2000
   25.7630  -19.4861  -12.9548 N   0  0  0  0  0  0  0  0  0  0  0  0
   25.3416  -20.1055  -11.7149 C   0  0  1  0  0  0  0  0  0  0  0  0
   24.7553  -21.4555  -11.9103 C   0  0  0  0  0  0  0  0  0  0  0  0
   23.5015  -21.4672  -12.6665 C   0  0  0  0  0  0  0  0  0  0  0  0
   23.3782  -22.3316  -13.5829 O   0  0  0  0  0  0  0  0  0  0  0  0
   26.3918  -20.0950  -10.7004 C   0  0  0  0  0  0  0  0  0  0  0  0
   27.5878  -20.2154  -11.1095 O   0  0  0  0  0  0  0  0  0  0  0  0
   22.4441  -20.6157  -12.4639 O   0  0  0  0  0  0  0  0  0  0  0  0
   26.0602  -19.9489   -9.3285 N   0  0  0  0  0  0  0  0  0  0  0  0
   27.0694  -19.8583   -8.2950 C   0  0  1  0  0  0  0  0  0  0  0  0
   26.5627  -19.2216   -7.0687 C   0  0  0  0  0  0  0  0  0  0  0  0
   27.6718  -19.2129   -6.0236 C   0  0  0  0  0  0  0  0  0  0  0  0
   28.4856  -18.1235   -5.8403 C   0  0  0  0  0  0  0  0  0  0  0  0
   29.4960  -18.1471   -4.8864 C   0  0  0  0  0  0  0  0  0  0  0  0
   29.7141  -19.2527   -4.0992 C   0  0  0  0  0  0  0  0  0  0  0  0
   28.8841  -20.3296   -4.3036 C   0  0  0  0  0  0  0  0  0  0  0  0
   27.8785  -20.3262   -5.2427 C   0  0  0  0  0  0  0  0  0  0  0  0
   27.7842  -21.1271   -8.1941 C   0  0  0  0  0  0  0  0  0  0  0  0
   27.0126  -22.1721   -8.1592 O   0  0  0  0  0  0  0  0  0  0  0  0
   29.1451  -21.4142   -8.1305 N   0  0  0  0  0  0  0  0  0  0  0  0
   30.1844  -20.4038   -8.2743 C   0  0  0  0  0  0  0  0  0  0  0  0
   31.2993  -21.1611   -8.9501 C   0  0  0  0  0  0  0  0  0  0  0  0
   31.3139  -22.4114   -8.0555 C   0  0  0  0  0  0  0  0  0  0  0  0
   29.8051  -22.6685   -7.9278 C   0  0  1  0  0  0  0  0  0  0  0  0
   29.5968  -23.2781   -6.6064 C   0  0  0  0  0  0  0  0  0  0  0  0
   30.5566  -23.2294   -5.6107 O   0  0  0  0  0  0  0  0  0  0  0  0
   28.5129  -23.8563   -6.3914 O   0  0  0  0  0  0  0  0  0  0  0  0
  2  3  1  0
  2  1  1  6
  4  3  1  0
  5  4  2  0
  6  7  2  0
  6  2  1  0
  8  4  1  0
  9  6  1  0
 10 11  1  1
 10  9  1  0
 11 12  1  0
 12 17  2  0
 13 14  2  0
 13 12  1  0
 14 15  1  0
 15 16  2  0
 17 16  1  0
 18 10  1  0
 19 18  2  0
 20 18  1  0
 20 21  1  0
 21 22  1  0
 23 22  1  0
 24 23  1  0
 24 20  1  0
 24 25  1  1
 26 25  1  0
 27 25  2  0
M  END
$$$$
