DFP.pdb
     RDKit          3D

 27 28  0  0  1  0  0  0  0  0999 V2000
   29.2082  -22.2200  -17.4546 N   0  0  0  0  0  0  0  0  0  0  0  0
   28.3740  -21.0937  -17.0885 C   0  0  1  0  0  0  0  0  0  0  0  0
   27.5666  -20.5765  -18.2220 C   0  0  0  0  0  0  0  0  0  0  0  0
   28.3562  -20.0806  -19.3510 C   0  0  0  0  0  0  0  0  0  0  0  0
   27.8579  -20.1939  -20.5090 O   0  0  0  0  0  0  0  0  0  0  0  0
   27.5642  -21.3607  -15.9030 C   0  0  0  0  0  0  0  0  0  0  0  0
   27.1816  -22.5584  -15.7258 O   0  0  0  0  0  0  0  0  0  0  0  0
   29.5970  -19.5007  -19.2583 O   0  0  0  0  0  0  0  0  0  0  0  0
   27.2415  -20.3104  -15.0052 N   0  0  0  0  0  0  0  0  0  0  0  0
   26.4057  -20.5176  -13.8419 C   0  0  1  0  0  0  0  0  0  0  0  0
   26.8566  -19.7361  -12.6792 C   0  0  0  0  0  0  0  0  0  0  0  0
   28.0251  -20.4606  -12.0218 C   0  0  0  0  0  0  0  0  0  0  0  0
   29.2913  -20.4198  -12.5488 C   0  0  0  0  0  0  0  0  0  0  0  0
   30.3365  -21.0985  -11.9335 C   0  0  0  0  0  0  0  0  0  0  0  0
   30.1408  -21.8281  -10.7851 C   0  0  0  0  0  0  0  0  0  0  0  0
   28.8628  -21.8515  -10.2787 C   0  0  0  0  0  0  0  0  0  0  0  0
   27.8148  -21.1867  -10.8727 C   0  0  0  0  0  0  0  0  0  0  0  0
   24.9998  -20.4653  -14.2317 C   0  0  0  0  0  0  0  0  0  0  0  0
   24.6905  -19.4450  -14.9747 O   0  0  0  0  0  0  0  0  0  0  0  0
   23.9342  -21.3157  -13.9495 N   0  0  0  0  0  0  0  0  0  0  0  0
   24.0908  -22.6027  -13.2855 C   0  0  0  0  0  0  0  0  0  0  0  0
   23.0053  -23.4400  -13.9130 C   0  0  0  0  0  0  0  0  0  0  0  0
   21.8375  -22.4477  -13.7880 C   0  0  0  0  0  0  0  0  0  0  0  0
   22.5382  -21.1516  -14.2215 C   0  0  1  0  0  0  0  0  0  0  0  0
   21.8829  -20.0586  -13.4886 C   0  0  0  0  0  0  0  0  0  0  0  0
   20.6405  -19.5675  -13.8499 O   0  0  0  0  0  0  0  0  0  0  0  0
   22.4805  -19.5670  -12.5106 O   0  0  0  0  0  0  0  0  0  0  0  0
  2  3  1  0
  2  1  1  6
  4  3  1  0
  5  4  2  0
  6  7  2  0
  6  2  1  0
  8  4  1  0
  9  6  1  0
 10 11  1  1
 10  9  1  0
 11 12  1  0
 12 17  2  0
 13 14  2  0
 13 12  1  0
 14 15  1  0
 15 16  2  0
 17 16  1  0
 18 10  1  0
 19 18  2  0
 20 18  1  0
 20 21  1  0
 21 22  1  0
 23 22  1  0
 24 23  1  0
 24 20  1  0
 24 25  1  1
 26 25  1  0
 27 25  2  0
M  END
$$$$
