DFP.pdb
     RDKit          3D

 27 28  0  0  1  0  0  0  0  0999 V2000
   29.3155  -21.5358  -18.6871 N   0  0  0  0  0  0  0  0  0  0  0  0
   28.4391  -20.5412  -18.1029 C   0  0  1  0  0  0  0  0  0  0  0  0
   27.3929  -20.0654  -19.0427 C   0  0  0  0  0  0  0  0  0  0  0  0
   27.9120  -19.4745  -20.2778 C   0  0  0  0  0  0  0  0  0  0  0  0
   27.3225  -19.7655  -21.3594 O   0  0  0  0  0  0  0  0  0  0  0  0
   27.8849  -20.9691  -16.8215 C   0  0  0  0  0  0  0  0  0  0  0  0
   27.6621  -22.2108  -16.6771 O   0  0  0  0  0  0  0  0  0  0  0  0
   28.9892  -18.6278  -20.3612 O   0  0  0  0  0  0  0  0  0  0  0  0
   27.6239  -20.0181  -15.8012 N   0  0  0  0  0  0  0  0  0  0  0  0
   27.0720  -20.3943  -14.5172 C   0  0  1  0  0  0  0  0  0  0  0  0
   27.7043  -19.6736  -13.4006 C   0  0  0  0  0  0  0  0  0  0  0  0
   27.0181  -20.0783  -12.1014 C   0  0  0  0  0  0  0  0  0  0  0  0
   27.4699  -21.1264  -11.3398 C   0  0  0  0  0  0  0  0  0  0  0  0
   26.8183  -21.4799  -10.1642 C   0  0  0  0  0  0  0  0  0  0  0  0
   25.7080  -20.7980   -9.7262 C   0  0  0  0  0  0  0  0  0  0  0  0
   25.2773  -19.7524  -10.5082 C   0  0  0  0  0  0  0  0  0  0  0  0
   25.9081  -19.3869  -11.6750 C   0  0  0  0  0  0  0  0  0  0  0  0
   25.6152  -20.4362  -14.6022 C   0  0  0  0  0  0  0  0  0  0  0  0
   25.0736  -19.3303  -15.0174 O   0  0  0  0  0  0  0  0  0  0  0  0
   24.7056  -21.4514  -14.3188 N   0  0  0  0  0  0  0  0  0  0  0  0
   25.1034  -22.7967  -13.9264 C   0  0  0  0  0  0  0  0  0  0  0  0
   24.0176  -23.6564  -14.5222 C   0  0  0  0  0  0  0  0  0  0  0  0
   22.7935  -22.8564  -14.0473 C   0  0  0  0  0  0  0  0  0  0  0  0
   23.2743  -21.4281  -14.3432 C   0  0  1  0  0  0  0  0  0  0  0  0
   22.6460  -20.5602  -13.3367 C   0  0  0  0  0  0  0  0  0  0  0  0
   21.3287  -20.1477  -13.4357 O   0  0  0  0  0  0  0  0  0  0  0  0
   23.3374  -20.1906  -12.3669 O   0  0  0  0  0  0  0  0  0  0  0  0
  2  3  1  0
  2  1  1  6
  4  3  1  0
  5  4  2  0
  6  7  2  0
  6  2  1  0
  8  4  1  0
  9  6  1  0
 10 11  1  1
 10  9  1  0
 11 12  1  0
 12 17  2  0
 13 14  2  0
 13 12  1  0
 14 15  1  0
 15 16  2  0
 17 16  1  0
 18 10  1  0
 19 18  2  0
 20 18  1  0
 20 21  1  0
 21 22  1  0
 23 22  1  0
 24 23  1  0
 24 20  1  0
 24 25  1  1
 26 25  1  0
 27 25  2  0
M  END
$$$$
