DFP.pdb
     RDKit          3D

 27 28  0  0  1  0  0  0  0  0999 V2000
   25.9975  -21.6716  -12.4733 N   0  0  0  0  0  0  0  0  0  0  0  0
   25.5195  -20.7077  -11.5032 C   0  0  1  0  0  0  0  0  0  0  0  0
   24.0413  -20.5694  -11.5020 C   0  0  0  0  0  0  0  0  0  0  0  0
   23.4719  -20.1456  -12.7827 C   0  0  0  0  0  0  0  0  0  0  0  0
   23.9884  -19.1383  -13.3488 O   0  0  0  0  0  0  0  0  0  0  0  0
   26.0585  -20.9460  -10.1671 C   0  0  0  0  0  0  0  0  0  0  0  0
   26.0789  -22.1490   -9.7613 O   0  0  0  0  0  0  0  0  0  0  0  0
   22.4203  -20.7520  -13.4237 O   0  0  0  0  0  0  0  0  0  0  0  0
   26.5361  -19.8631   -9.3844 N   0  0  0  0  0  0  0  0  0  0  0  0
   27.0777  -20.0501   -8.0554 C   0  0  1  0  0  0  0  0  0  0  0  0
   28.1137  -19.0581   -7.7257 C   0  0  0  0  0  0  0  0  0  0  0  0
   28.5927  -19.3013   -6.2996 C   0  0  0  0  0  0  0  0  0  0  0  0
   28.1681  -18.5250   -5.2509 C   0  0  0  0  0  0  0  0  0  0  0  0
   28.6293  -18.7631   -3.9616 C   0  0  0  0  0  0  0  0  0  0  0  0
   29.5191  -19.7759   -3.6934 C   0  0  0  0  0  0  0  0  0  0  0  0
   29.9276  -20.5381   -4.7624 C   0  0  0  0  0  0  0  0  0  0  0  0
   29.4830  -20.3185   -6.0458 C   0  0  0  0  0  0  0  0  0  0  0  0
   25.9899  -20.2829   -7.1100 C   0  0  0  0  0  0  0  0  0  0  0  0
   25.0271  -19.4130   -7.1809 O   0  0  0  0  0  0  0  0  0  0  0  0
   25.8020  -21.2722   -6.1487 N   0  0  0  0  0  0  0  0  0  0  0  0
   26.7238  -22.3827   -5.9514 C   0  0  0  0  0  0  0  0  0  0  0  0
   25.8124  -23.5057   -5.5255 C   0  0  0  0  0  0  0  0  0  0  0  0
   24.9933  -22.7567   -4.4616 C   0  0  0  0  0  0  0  0  0  0  0  0
   24.7439  -21.4319   -5.1974 C   0  0  1  0  0  0  0  0  0  0  0  0
   24.6697  -20.3889   -4.1640 C   0  0  0  0  0  0  0  0  0  0  0  0
   23.5714  -20.2482   -3.3338 O   0  0  0  0  0  0  0  0  0  0  0  0
   25.6374  -19.6115   -4.0447 O   0  0  0  0  0  0  0  0  0  0  0  0
  2  3  1  0
  2  1  1  6
  4  3  1  0
  5  4  2  0
  6  7  2  0
  6  2  1  0
  8  4  1  0
  9  6  1  0
 10 11  1  1
 10  9  1  0
 11 12  1  0
 12 17  2  0
 13 14  2  0
 13 12  1  0
 14 15  1  0
 15 16  2  0
 17 16  1  0
 18 10  1  0
 19 18  2  0
 20 18  1  0
 20 21  1  0
 21 22  1  0
 23 22  1  0
 24 23  1  0
 24 20  1  0
 24 25  1  1
 26 25  1  0
 27 25  2  0
M  END
$$$$
