DFP.pdb
     RDKit          3D

 27 28  0  0  1  0  0  0  0  0999 V2000
   28.8595  -21.0652  -18.8461 N   0  0  0  0  0  0  0  0  0  0  0  0
   28.1030  -20.0583  -18.1303 C   0  0  1  0  0  0  0  0  0  0  0  0
   27.0688  -19.4029  -18.9701 C   0  0  0  0  0  0  0  0  0  0  0  0
   27.5933  -18.7263  -20.1580 C   0  0  0  0  0  0  0  0  0  0  0  0
   27.0753  -19.0184  -21.2753 O   0  0  0  0  0  0  0  0  0  0  0  0
   27.5628  -20.5577  -16.8689 C   0  0  0  0  0  0  0  0  0  0  0  0
   27.1476  -21.7576  -16.8559 O   0  0  0  0  0  0  0  0  0  0  0  0
   28.6042  -17.7976  -20.1614 O   0  0  0  0  0  0  0  0  0  0  0  0
   27.5229  -19.7186  -15.7253 N   0  0  0  0  0  0  0  0  0  0  0  0
   26.9873  -20.1657  -14.4572 C   0  0  1  0  0  0  0  0  0  0  0  0
   27.6086  -19.4815  -13.3118 C   0  0  0  0  0  0  0  0  0  0  0  0
   26.9413  -19.9631  -12.0291 C   0  0  0  0  0  0  0  0  0  0  0  0
   27.4177  -21.0405  -11.3255 C   0  0  0  0  0  0  0  0  0  0  0  0
   26.7830  -21.4641  -10.1639 C   0  0  0  0  0  0  0  0  0  0  0  0
   25.6656  -20.8244   -9.6825 C   0  0  0  0  0  0  0  0  0  0  0  0
   25.2103  -19.7481  -10.4068 C   0  0  0  0  0  0  0  0  0  0  0  0
   25.8240  -19.3132  -11.5589 C   0  0  0  0  0  0  0  0  0  0  0  0
   25.5315  -20.2386  -14.5374 C   0  0  0  0  0  0  0  0  0  0  0  0
   24.9603  -19.1235  -14.8822 O   0  0  0  0  0  0  0  0  0  0  0  0
   24.6489  -21.2914  -14.3115 N   0  0  0  0  0  0  0  0  0  0  0  0
   25.0821  -22.6508  -14.0180 C   0  0  0  0  0  0  0  0  0  0  0  0
   24.0062  -23.4925  -14.6559 C   0  0  0  0  0  0  0  0  0  0  0  0
   22.7724  -22.7551  -14.1102 C   0  0  0  0  0  0  0  0  0  0  0  0
   23.2172  -21.2992  -14.3142 C   0  0  1  0  0  0  0  0  0  0  0  0
   22.5857  -20.5166  -13.2418 C   0  0  0  0  0  0  0  0  0  0  0  0
   21.2459  -20.1714  -13.2699 O   0  0  0  0  0  0  0  0  0  0  0  0
   23.2956  -20.1582  -12.2812 O   0  0  0  0  0  0  0  0  0  0  0  0
  2  3  1  0
  2  1  1  6
  4  3  1  0
  5  4  2  0
  6  7  2  0
  6  2  1  0
  8  4  1  0
  9  6  1  0
 10 11  1  1
 10  9  1  0
 11 12  1  0
 12 17  2  0
 13 14  2  0
 13 12  1  0
 14 15  1  0
 15 16  2  0
 17 16  1  0
 18 10  1  0
 19 18  2  0
 20 18  1  0
 20 21  1  0
 21 22  1  0
 23 22  1  0
 24 23  1  0
 24 20  1  0
 24 25  1  1
 26 25  1  0
 27 25  2  0
M  END
$$$$
