DFP.pdb
     RDKit          3D

 27 28  0  0  1  0  0  0  0  0999 V2000
   19.9930  -19.6005  -12.8283 N   0  0  0  0  0  0  0  0  0  0  0  0
   20.9634  -20.4357  -13.5061 C   0  0  1  0  0  0  0  0  0  0  0  0
   20.8097  -20.4230  -14.9827 C   0  0  0  0  0  0  0  0  0  0  0  0
   20.0552  -21.5559  -15.5225 C   0  0  0  0  0  0  0  0  0  0  0  0
   18.8486  -21.6814  -15.1615 O   0  0  0  0  0  0  0  0  0  0  0  0
   22.3331  -20.1539  -13.0855 C   0  0  0  0  0  0  0  0  0  0  0  0
   22.6669  -18.9322  -12.9941 O   0  0  0  0  0  0  0  0  0  0  0  0
   20.5490  -22.4972  -16.3910 O   0  0  0  0  0  0  0  0  0  0  0  0
   23.2252  -21.2179  -12.7929 N   0  0  0  0  0  0  0  0  0  0  0  0
   24.5938  -20.9879  -12.3822 C   0  0  1  0  0  0  0  0  0  0  0  0
   24.9846  -21.8234  -11.2353 C   0  0  0  0  0  0  0  0  0  0  0  0
   26.3428  -21.3563  -10.7256 C   0  0  0  0  0  0  0  0  0  0  0  0
   27.5149  -21.7609  -11.3131 C   0  0  0  0  0  0  0  0  0  0  0  0
   28.7401  -21.3272  -10.8209 C   0  0  0  0  0  0  0  0  0  0  0  0
   28.8207  -20.4846   -9.7377 C   0  0  0  0  0  0  0  0  0  0  0  0
   27.6312  -20.0948   -9.1689 C   0  0  0  0  0  0  0  0  0  0  0  0
   26.4084  -20.5131   -9.6410 C   0  0  0  0  0  0  0  0  0  0  0  0
   25.4586  -20.9446  -13.5576 C   0  0  0  0  0  0  0  0  0  0  0  0
   25.2630  -21.9155  -14.3990 O   0  0  0  0  0  0  0  0  0  0  0  0
   26.4531  -20.0468  -13.9360 N   0  0  0  0  0  0  0  0  0  0  0  0
   26.8413  -18.8960  -13.1317 C   0  0  0  0  0  0  0  0  0  0  0  0
   27.2226  -17.8720  -14.1706 C   0  0  0  0  0  0  0  0  0  0  0  0
   28.1200  -18.7533  -15.0548 C   0  0  0  0  0  0  0  0  0  0  0  0
   27.2701  -20.0313  -15.1115 C   0  0  1  0  0  0  0  0  0  0  0  0
   28.2124  -21.1532  -15.2327 C   0  0  0  0  0  0  0  0  0  0  0  0
   28.4618  -22.0247  -14.1870 O   0  0  0  0  0  0  0  0  0  0  0  0
   28.7999  -21.3108  -16.3213 O   0  0  0  0  0  0  0  0  0  0  0  0
  2  3  1  0
  2  1  1  1
  4  3  1  0
  5  4  2  0
  6  7  2  0
  6  2  1  0
  8  4  1  0
  9  6  1  0
 10 11  1  1
 10  9  1  0
 11 12  1  0
 12 17  2  0
 13 14  2  0
 13 12  1  0
 14 15  1  0
 15 16  2  0
 17 16  1  0
 18 10  1  0
 19 18  2  0
 20 18  1  0
 20 21  1  0
 21 22  1  0
 23 22  1  0
 24 23  1  0
 24 20  1  0
 24 25  1  1
 26 25  1  0
 27 25  2  0
M  END
$$$$
