DFP.pdb
     RDKit          3D

 27 28  0  0  1  0  0  0  0  0999 V2000
   28.9218  -19.9248  -18.8228 N   0  0  0  0  0  0  0  0  0  0  0  0
   27.7957  -19.2732  -18.1857 C   0  0  1  0  0  0  0  0  0  0  0  0
   26.6572  -19.0453  -19.1109 C   0  0  0  0  0  0  0  0  0  0  0  0
   26.9765  -18.2078  -20.2688 C   0  0  0  0  0  0  0  0  0  0  0  0
   26.1621  -18.2126  -21.2377 O   0  0  0  0  0  0  0  0  0  0  0  0
   27.3877  -19.9421  -16.9534 C   0  0  0  0  0  0  0  0  0  0  0  0
   27.2226  -21.1998  -17.0092 O   0  0  0  0  0  0  0  0  0  0  0  0
   28.0898  -17.4143  -20.3919 O   0  0  0  0  0  0  0  0  0  0  0  0
   27.1986  -19.1947  -15.7622 N   0  0  0  0  0  0  0  0  0  0  0  0
   26.7385  -19.8038  -14.5326 C   0  0  1  0  0  0  0  0  0  0  0  0
   27.4168  -19.2574  -13.3463 C   0  0  0  0  0  0  0  0  0  0  0  0
   26.7526  -19.8208  -12.0957 C   0  0  0  0  0  0  0  0  0  0  0  0
   27.1510  -21.0091  -11.5371 C   0  0  0  0  0  0  0  0  0  0  0  0
   26.5204  -21.5043  -10.4019 C   0  0  0  0  0  0  0  0  0  0  0  0
   25.4847  -20.8273   -9.8033 C   0  0  0  0  0  0  0  0  0  0  0  0
   25.1064  -19.6396  -10.3835 C   0  0  0  0  0  0  0  0  0  0  0  0
   25.7175  -19.1325  -11.5071 C   0  0  0  0  0  0  0  0  0  0  0  0
   25.2812  -19.8891  -14.5421 C   0  0  0  0  0  0  0  0  0  0  0  0
   24.6833  -18.7639  -14.7976 O   0  0  0  0  0  0  0  0  0  0  0  0
   24.4206  -20.9622  -14.3276 N   0  0  0  0  0  0  0  0  0  0  0  0
   24.8783  -22.3350  -14.1610 C   0  0  0  0  0  0  0  0  0  0  0  0
   23.7622  -23.1395  -14.7776 C   0  0  0  0  0  0  0  0  0  0  0  0
   22.5683  -22.4519  -14.0952 C   0  0  0  0  0  0  0  0  0  0  0  0
   22.9924  -20.9818  -14.2286 C   0  0  1  0  0  0  0  0  0  0  0  0
   22.4370  -20.2805  -13.0620 C   0  0  0  0  0  0  0  0  0  0  0  0
   21.1529  -19.7646  -13.0525 O   0  0  0  0  0  0  0  0  0  0  0  0
   23.1609  -20.1535  -12.0545 O   0  0  0  0  0  0  0  0  0  0  0  0
  2  3  1  0
  2  1  1  6
  4  3  1  0
  5  4  2  0
  6  7  2  0
  6  2  1  0
  8  4  1  0
  9  6  1  0
 10 11  1  1
 10  9  1  0
 11 12  1  0
 12 17  2  0
 13 14  2  0
 13 12  1  0
 14 15  1  0
 15 16  2  0
 17 16  1  0
 18 10  1  0
 19 18  2  0
 20 18  1  0
 20 21  1  0
 21 22  1  0
 23 22  1  0
 24 23  1  0
 24 20  1  0
 24 25  1  1
 26 25  1  0
 27 25  2  0
M  END
$$$$
