DFP.pdb
     RDKit          3D

 27 28  0  0  1  0  0  0  0  0999 V2000
   24.6515  -12.8803  -19.4718 N   0  0  0  0  0  0  0  0  0  0  0  0
   23.9695  -11.6024  -19.4488 C   0  0  1  0  0  0  0  0  0  0  0  0
   22.6733  -11.6229  -20.1724 C   0  0  0  0  0  0  0  0  0  0  0  0
   22.7846  -11.9004  -21.6058 C   0  0  0  0  0  0  0  0  0  0  0  0
   23.9462  -11.9340  -22.1075 O   0  0  0  0  0  0  0  0  0  0  0  0
   23.8460  -11.0598  -18.0987 C   0  0  0  0  0  0  0  0  0  0  0  0
   23.5147  -11.8719  -17.1805 O   0  0  0  0  0  0  0  0  0  0  0  0
   21.7302  -12.1281  -22.4548 O   0  0  0  0  0  0  0  0  0  0  0  0
   24.0975   -9.6849  -17.8542 N   0  0  0  0  0  0  0  0  0  0  0  0
   23.9305   -9.0896  -16.5455 C   0  0  1  0  0  0  0  0  0  0  0  0
   25.1250   -8.3495  -16.1080 C   0  0  0  0  0  0  0  0  0  0  0  0
   26.2978   -9.3180  -16.0140 C   0  0  0  0  0  0  0  0  0  0  0  0
   27.2633   -9.3826  -16.9868 C   0  0  0  0  0  0  0  0  0  0  0  0
   28.3167  -10.2829  -16.8801 C   0  0  0  0  0  0  0  0  0  0  0  0
   28.4282  -11.1330  -15.8056 C   0  0  0  0  0  0  0  0  0  0  0  0
   27.4475  -11.0467  -14.8458 C   0  0  0  0  0  0  0  0  0  0  0  0
   26.3968  -10.1627  -14.9330 C   0  0  0  0  0  0  0  0  0  0  0  0
   22.6240   -8.4437  -16.4629 C   0  0  0  0  0  0  0  0  0  0  0  0
   22.3046   -7.7511  -17.5150 O   0  0  0  0  0  0  0  0  0  0  0  0
   21.6608   -8.4404  -15.4576 N   0  0  0  0  0  0  0  0  0  0  0  0
   21.8029   -9.1785  -14.2099 C   0  0  0  0  0  0  0  0  0  0  0  0
   20.3832   -9.5694  -13.8861 C   0  0  0  0  0  0  0  0  0  0  0  0
   19.7054   -8.2071  -14.1065 C   0  0  0  0  0  0  0  0  0  0  0  0
   20.3970   -7.7696  -15.4061 C   0  0  1  0  0  0  0  0  0  0  0  0
   20.4696   -6.3019  -15.3657 C   0  0  0  0  0  0  0  0  0  0  0  0
   19.3458   -5.5030  -15.4857 O   0  0  0  0  0  0  0  0  0  0  0  0
   21.5896   -5.7736  -15.2186 O   0  0  0  0  0  0  0  0  0  0  0  0
  2  3  1  0
  2  1  1  1
  4  3  1  0
  5  4  2  0
  6  7  2  0
  6  2  1  0
  8  4  1  0
  9  6  1  0
 10 11  1  6
 10  9  1  0
 11 12  1  0
 12 17  2  0
 13 14  2  0
 13 12  1  0
 14 15  1  0
 15 16  2  0
 17 16  1  0
 18 10  1  0
 19 18  2  0
 20 18  1  0
 20 21  1  0
 21 22  1  0
 23 22  1  0
 24 23  1  0
 24 20  1  0
 24 25  1  1
 26 25  1  0
 27 25  2  0
M  END
$$$$
