DFP.pdb
     RDKit          3D

 27 28  0  0  1  0  0  0  0  0999 V2000
   26.1014  -20.9583  -12.8282 N   0  0  0  0  0  0  0  0  0  0  0  0
   25.3643  -20.4486  -11.6900 C   0  0  1  0  0  0  0  0  0  0  0  0
   23.9353  -20.8514  -11.6960 C   0  0  0  0  0  0  0  0  0  0  0  0
   23.1969  -20.4450  -12.8933 C   0  0  0  0  0  0  0  0  0  0  0  0
   23.2713  -19.2309  -13.2436 O   0  0  0  0  0  0  0  0  0  0  0  0
   26.0221  -20.7454  -10.4205 C   0  0  0  0  0  0  0  0  0  0  0  0
   26.4788  -21.9206  -10.2704 O   0  0  0  0  0  0  0  0  0  0  0  0
   22.4274  -21.2739  -13.6712 O   0  0  0  0  0  0  0  0  0  0  0  0
   26.1361  -19.7436   -9.4221 N   0  0  0  0  0  0  0  0  0  0  0  0
   26.8078  -19.9811   -8.1623 C   0  0  1  0  0  0  0  0  0  0  0  0
   27.6954  -18.8711   -7.7803 C   0  0  0  0  0  0  0  0  0  0  0  0
   28.3079  -19.1762   -6.4186 C   0  0  0  0  0  0  0  0  0  0  0  0
   27.8031  -18.6399   -5.2610 C   0  0  0  0  0  0  0  0  0  0  0  0
   28.3882  -18.9275   -4.0335 C   0  0  0  0  0  0  0  0  0  0  0  0
   29.4835  -19.7523   -3.9363 C   0  0  0  0  0  0  0  0  0  0  0  0
   29.9683  -20.2760   -5.1115 C   0  0  0  0  0  0  0  0  0  0  0  0
   29.4037  -20.0035   -6.3363 C   0  0  0  0  0  0  0  0  0  0  0  0
   25.8524  -20.4957   -7.1858 C   0  0  0  0  0  0  0  0  0  0  0  0
   24.7377  -19.8301   -7.1290 O   0  0  0  0  0  0  0  0  0  0  0  0
   25.9244  -21.5734   -6.3072 N   0  0  0  0  0  0  0  0  0  0  0  0
   27.0655  -22.4762   -6.2390 C   0  0  0  0  0  0  0  0  0  0  0  0
   26.4304  -23.7955   -5.8798 C   0  0  0  0  0  0  0  0  0  0  0  0
   25.5309  -23.3203   -4.7270 C   0  0  0  0  0  0  0  0  0  0  0  0
   24.9739  -22.0254   -5.3367 C   0  0  1  0  0  0  0  0  0  0  0  0
   24.7394  -21.1042   -4.2152 C   0  0  0  0  0  0  0  0  0  0  0  0
   23.7287  -21.3065   -3.2918 O   0  0  0  0  0  0  0  0  0  0  0  0
   25.4849  -20.1104   -4.1066 O   0  0  0  0  0  0  0  0  0  0  0  0
  2  3  1  0
  2  1  1  6
  4  3  1  0
  5  4  2  0
  6  7  2  0
  6  2  1  0
  8  4  1  0
  9  6  1  0
 10 11  1  1
 10  9  1  0
 11 12  1  0
 12 17  2  0
 13 14  2  0
 13 12  1  0
 14 15  1  0
 15 16  2  0
 17 16  1  0
 18 10  1  0
 19 18  2  0
 20 18  1  0
 20 21  1  0
 21 22  1  0
 23 22  1  0
 24 23  1  0
 24 20  1  0
 24 25  1  1
 26 25  1  0
 27 25  2  0
M  END
$$$$
