DFP.pdb
     RDKit          3D

 27 28  0  0  1  0  0  0  0  0999 V2000
   26.2778  -21.3785  -12.5849 N   0  0  0  0  0  0  0  0  0  0  0  0
   25.5705  -20.6827  -11.5293 C   0  0  1  0  0  0  0  0  0  0  0  0
   24.1018  -20.8948  -11.5767 C   0  0  0  0  0  0  0  0  0  0  0  0
   23.4690  -20.4703  -12.8271 C   0  0  0  0  0  0  0  0  0  0  0  0
   23.4065  -19.2277  -13.0596 O   0  0  0  0  0  0  0  0  0  0  0  0
   26.1309  -20.9544  -10.2085 C   0  0  0  0  0  0  0  0  0  0  0  0
   26.2365  -22.1731   -9.8682 O   0  0  0  0  0  0  0  0  0  0  0  0
   22.9355  -21.3107  -13.7723 O   0  0  0  0  0  0  0  0  0  0  0  0
   26.5360  -19.8845   -9.3690 N   0  0  0  0  0  0  0  0  0  0  0  0
   27.1098  -20.1051   -8.0587 C   0  0  1  0  0  0  0  0  0  0  0  0
   28.1794  -19.1443   -7.7444 C   0  0  0  0  0  0  0  0  0  0  0  0
   28.6429  -19.3745   -6.3110 C   0  0  0  0  0  0  0  0  0  0  0  0
   29.5353  -20.3658   -5.9889 C   0  0  0  0  0  0  0  0  0  0  0  0
   29.9329  -20.5597   -4.6714 C   0  0  0  0  0  0  0  0  0  0  0  0
   29.4510  -19.7722   -3.6530 C   0  0  0  0  0  0  0  0  0  0  0  0
   28.5588  -18.7867   -4.0040 C   0  0  0  0  0  0  0  0  0  0  0  0
   28.1525  -18.5787   -5.3020 C   0  0  0  0  0  0  0  0  0  0  0  0
   26.0434  -20.3251   -7.0863 C   0  0  0  0  0  0  0  0  0  0  0  0
   25.1193  -19.4114   -7.0930 O   0  0  0  0  0  0  0  0  0  0  0  0
   25.8416  -21.3408   -6.1558 N   0  0  0  0  0  0  0  0  0  0  0  0
   26.7326  -22.4842   -6.0122 C   0  0  0  0  0  0  0  0  0  0  0  0
   25.7949  -23.5936   -5.6087 C   0  0  0  0  0  0  0  0  0  0  0  0
   25.0164  -22.8577   -4.5059 C   0  0  0  0  0  0  0  0  0  0  0  0
   24.7950  -21.5016   -5.1921 C   0  0  1  0  0  0  0  0  0  0  0  0
   24.7693  -20.4930   -4.1230 C   0  0  0  0  0  0  0  0  0  0  0  0
   23.6854  -20.3414   -3.2761 O   0  0  0  0  0  0  0  0  0  0  0  0
   25.7660  -19.7556   -3.9881 O   0  0  0  0  0  0  0  0  0  0  0  0
  2  3  1  0
  2  1  1  6
  4  3  1  0
  5  4  2  0
  6  7  2  0
  6  2  1  0
  8  4  1  0
  9  6  1  0
 10 11  1  1
 10  9  1  0
 11 12  1  0
 12 17  2  0
 13 14  2  0
 13 12  1  0
 14 15  1  0
 15 16  2  0
 17 16  1  0
 18 10  1  0
 19 18  2  0
 20 18  1  0
 20 21  1  0
 21 22  1  0
 23 22  1  0
 24 23  1  0
 24 20  1  0
 24 25  1  1
 26 25  1  0
 27 25  2  0
M  END
$$$$
