DFP.pdb
     RDKit          3D

 27 28  0  0  1  0  0  0  0  0999 V2000
   25.8370  -20.9628  -12.2974 N   0  0  0  0  0  0  0  0  0  0  0  0
   25.2354  -20.3916  -11.1099 C   0  0  1  0  0  0  0  0  0  0  0  0
   23.7968  -20.7299  -10.9677 C   0  0  0  0  0  0  0  0  0  0  0  0
   22.9565  -20.2801  -12.0793 C   0  0  0  0  0  0  0  0  0  0  0  0
   22.8983  -19.0358  -12.3035 O   0  0  0  0  0  0  0  0  0  0  0  0
   25.9995  -20.6850   -9.9005 C   0  0  0  0  0  0  0  0  0  0  0  0
   26.2318  -21.9079   -9.6496 O   0  0  0  0  0  0  0  0  0  0  0  0
   22.2233  -21.0985  -12.9021 O   0  0  0  0  0  0  0  0  0  0  0  0
   26.4536  -19.6301   -9.0673 N   0  0  0  0  0  0  0  0  0  0  0  0
   27.2281  -19.8710   -7.8686 C   0  0  1  0  0  0  0  0  0  0  0  0
   28.1826  -18.7863   -7.5885 C   0  0  0  0  0  0  0  0  0  0  0  0
   28.9052  -19.0912   -6.2818 C   0  0  0  0  0  0  0  0  0  0  0  0
   28.5618  -18.4766   -5.1041 C   0  0  0  0  0  0  0  0  0  0  0  0
   29.2449  -18.7664   -3.9289 C   0  0  0  0  0  0  0  0  0  0  0  0
   30.2794  -19.6713   -3.9046 C   0  0  0  0  0  0  0  0  0  0  0  0
   30.6020  -20.2723   -5.0984 C   0  0  0  0  0  0  0  0  0  0  0  0
   29.9384  -19.9990   -6.2723 C   0  0  0  0  0  0  0  0  0  0  0  0
   26.3484  -20.3372   -6.8010 C   0  0  0  0  0  0  0  0  0  0  0  0
   25.1995  -19.7318   -6.7547 O   0  0  0  0  0  0  0  0  0  0  0  0
   26.5227  -21.3160   -5.8263 N   0  0  0  0  0  0  0  0  0  0  0  0
   27.6957  -22.1769   -5.7565 C   0  0  0  0  0  0  0  0  0  0  0  0
   27.1344  -23.4680   -5.2171 C   0  0  0  0  0  0  0  0  0  0  0  0
   26.3084  -22.8997   -4.0515 C   0  0  0  0  0  0  0  0  0  0  0  0
   25.6637  -21.6897   -4.7436 C   0  0  1  0  0  0  0  0  0  0  0  0
   25.4831  -20.6638   -3.7062 C   0  0  0  0  0  0  0  0  0  0  0  0
   26.5503  -20.1105   -3.0206 O   0  0  0  0  0  0  0  0  0  0  0  0
   24.3219  -20.2907   -3.4460 O   0  0  0  0  0  0  0  0  0  0  0  0
  2  3  1  0
  2  1  1  6
  4  3  1  0
  5  4  2  0
  6  7  2  0
  6  2  1  0
  8  4  1  0
  9  6  1  0
 10 11  1  1
 10  9  1  0
 11 12  1  0
 12 17  2  0
 13 14  2  0
 13 12  1  0
 14 15  1  0
 15 16  2  0
 17 16  1  0
 18 10  1  0
 19 18  2  0
 20 18  1  0
 20 21  1  0
 21 22  1  0
 23 22  1  0
 24 23  1  0
 24 20  1  0
 24 25  1  1
 26 25  1  0
 27 25  2  0
M  END
$$$$
