CQH.pdb
     RDKit          3D

 26 26  0  0  1  0  0  0  0  0999 V2000
   28.0976  -22.1925  -16.7862 N   0  0  0  0  0  0  0  0  0  0  0  0
   27.7241  -20.9931  -16.0636 C   0  0  1  0  0  0  0  0  0  0  0  0
   27.3522  -19.8741  -17.0116 C   0  0  0  0  0  0  0  0  0  0  0  0
   28.8417  -19.3624  -17.9219 S   0  0  0  0  0  0  0  0  0  0  0  0
   26.5708  -21.2971  -15.1938 C   0  0  0  0  0  0  0  0  0  0  0  0
   25.6303  -21.9814  -15.6696 O   0  0  0  0  0  0  0  0  0  0  0  0
   26.1352  -20.3201   -9.0108 N   0  0  0  0  0  0  0  0  0  0  0  0
   24.8309  -20.7783   -9.2961 C   0  0  0  0  0  0  0  0  0  0  0  0
   24.0389  -21.0166   -8.3646 O   0  0  0  0  0  0  0  0  0  0  0  0
   24.4334  -20.9661  -10.7136 C   0  0  0  0  0  0  0  0  0  0  0  0
   25.5817  -20.7164  -11.6412 C   0  0  0  0  0  0  0  0  0  0  0  0
   25.2467  -20.9821  -13.0598 C   0  0  2  0  0  0  0  0  0  0  0  0
   26.4656  -20.8598  -13.8521 N   0  0  0  0  0  0  0  0  0  0  0  0
   24.1434  -20.2120  -13.6384 C   0  0  0  0  0  0  0  0  0  0  0  0
   24.2955  -19.1498  -14.2987 O   0  0  0  0  0  0  0  0  0  0  0  0
   22.8054  -20.6895  -13.4463 N   0  0  0  0  0  0  0  0  0  0  0  0
   21.7016  -20.3491  -14.3215 C   0  0  1  0  0  0  0  0  0  0  0  0
   21.9894  -20.6144  -15.7551 C   0  0  0  0  0  0  0  0  0  0  0  0
   20.8918  -20.0978  -16.6031 C   0  0  0  0  0  0  0  0  0  0  0  0
   19.7118  -19.4653  -16.2575 C   0  0  0  0  0  0  0  0  0  0  0  0
   19.0414  -19.2072  -17.3909 N   0  0  0  0  0  0  0  0  0  0  0  0
   19.7396  -19.6466  -18.4491 C   0  0  0  0  0  0  0  0  0  0  0  0
   20.8548  -20.1821  -17.9578 N   0  0  0  0  0  0  0  0  0  0  0  0
   20.4280  -20.9208  -13.8172 C   0  0  0  0  0  0  0  0  0  0  0  0
   19.2226  -20.1875  -13.9113 O   0  0  0  0  0  0  0  0  0  0  0  0
   20.3132  -22.0519  -13.2878 O   0  0  0  0  0  0  0  0  0  0  0  0
  2  1  1  6
  2  5  1  0
  3  2  1  0
  4  3  1  0
  5  6  2  0
  7  8  1  0
  8  9  2  0
  8 10  1  0
 10 11  1  0
 12 11  1  1
 12 14  1  0
 13  5  1  0
 13 12  1  0
 14 15  2  0
 16 17  1  0
 16 14  1  0
 17 24  1  0
 18 19  1  0
 17 18  1  6
 19 20  2  0
 19 23  1  0
 20 21  1  0
 21 22  1  0
 23 22  2  0
 24 26  2  0
 24 25  1  0
M  END
$$$$
