CQH.pdb
     RDKit          3D

 26 26  0  0  1  0  0  0  0  0999 V2000
   27.7249  -20.6163  -10.5603 N   0  0  0  0  0  0  0  0  0  0  0  0
   26.2840  -20.7586  -10.6228 C   0  0  1  0  0  0  0  0  0  0  0  0
   25.6098  -20.0253   -9.4840 C   0  0  0  0  0  0  0  0  0  0  0  0
   26.2561  -20.6713   -7.9111 S   0  0  0  0  0  0  0  0  0  0  0  0
   25.8034  -20.2106  -11.9064 C   0  0  0  0  0  0  0  0  0  0  0  0
   26.4288  -19.2456  -12.4132 O   0  0  0  0  0  0  0  0  0  0  0  0
   28.2071  -19.0336  -13.6079 N   0  0  0  0  0  0  0  0  0  0  0  0
   27.8421  -20.3428  -13.9892 C   0  0  0  0  0  0  0  0  0  0  0  0
   28.3732  -21.3224  -13.4325 O   0  0  0  0  0  0  0  0  0  0  0  0
   26.8241  -20.5193  -15.0546 C   0  0  0  0  0  0  0  0  0  0  0  0
   25.7254  -21.4362  -14.6147 C   0  0  0  0  0  0  0  0  0  0  0  0
   24.5602  -20.7138  -14.0530 C   0  0  2  0  0  0  0  0  0  0  0  0
   24.6758  -20.7125  -12.5986 N   0  0  0  0  0  0  0  0  0  0  0  0
   23.2325  -21.1494  -14.4918 C   0  0  0  0  0  0  0  0  0  0  0  0
   22.5361  -22.0069  -13.8858 O   0  0  0  0  0  0  0  0  0  0  0  0
   22.6847  -20.5694  -15.6828 N   0  0  0  0  0  0  0  0  0  0  0  0
   21.3064  -20.1377  -15.8009 C   0  0  1  0  0  0  0  0  0  0  0  0
   20.8265  -19.3837  -14.6136 C   0  0  0  0  0  0  0  0  0  0  0  0
   19.5142  -19.9053  -14.1704 C   0  0  0  0  0  0  0  0  0  0  0  0
   18.7259  -20.9138  -14.6931 C   0  0  0  0  0  0  0  0  0  0  0  0
   17.6175  -20.9952  -13.9409 N   0  0  0  0  0  0  0  0  0  0  0  0
   17.6601  -20.0828  -12.9580 C   0  0  0  0  0  0  0  0  0  0  0  0
   18.8113  -19.4320  -13.1093 N   0  0  0  0  0  0  0  0  0  0  0  0
   21.0671  -19.4758  -17.1078 C   0  0  0  0  0  0  0  0  0  0  0  0
   19.9984  -19.8865  -17.9378 O   0  0  0  0  0  0  0  0  0  0  0  0
   21.7590  -18.5376  -17.5703 O   0  0  0  0  0  0  0  0  0  0  0  0
  2  1  1  1
  2  5  1  0
  3  2  1  0
  4  3  1  0
  5  6  2  0
  7  8  1  0
  8  9  2  0
  8 10  1  0
 10 11  1  0
 12 11  1  6
 12 14  1  0
 13  5  1  0
 13 12  1  0
 14 15  2  0
 16 17  1  0
 16 14  1  0
 17 24  1  0
 18 19  1  0
 17 18  1  1
 19 20  2  0
 19 23  1  0
 20 21  1  0
 21 22  1  0
 23 22  2  0
 24 26  2  0
 24 25  1  0
M  END
$$$$
