CQH.pdb
     RDKit          3D

 26 26  0  0  1  0  0  0  0  0999 V2000
   17.4780  -11.2091  -17.4934 N   0  0  0  0  0  0  0  0  0  0  0  0
   17.7691  -10.6520  -16.1877 C   0  0  1  0  0  0  0  0  0  0  0  0
   18.9571  -11.3385  -15.5501 C   0  0  0  0  0  0  0  0  0  0  0  0
   18.4240  -12.9589  -14.9185 S   0  0  0  0  0  0  0  0  0  0  0  0
   18.0604   -9.2124  -16.3348 C   0  0  0  0  0  0  0  0  0  0  0  0
   18.7663   -8.8441  -17.3071 O   0  0  0  0  0  0  0  0  0  0  0  0
   13.6009   -5.7921  -15.1182 N   0  0  0  0  0  0  0  0  0  0  0  0
   14.4566   -5.4230  -16.1785 C   0  0  0  0  0  0  0  0  0  0  0  0
   14.1770   -4.4380  -16.8879 O   0  0  0  0  0  0  0  0  0  0  0  0
   15.6801   -6.2269  -16.4225 C   0  0  0  0  0  0  0  0  0  0  0  0
   16.6997   -6.0110  -15.3477 C   0  0  0  0  0  0  0  0  0  0  0  0
   17.9313   -6.8091  -15.5511 C   0  0  2  0  0  0  0  0  0  0  0  0
   17.5882   -8.2228  -15.4403 N   0  0  0  0  0  0  0  0  0  0  0  0
   19.0909   -6.4653  -14.7252 C   0  0  0  0  0  0  0  0  0  0  0  0
   19.1364   -6.6188  -13.4755 O   0  0  0  0  0  0  0  0  0  0  0  0
   20.2491   -5.9203  -15.3707 N   0  0  0  0  0  0  0  0  0  0  0  0
   21.4241   -5.4661  -14.6543 C   0  0  1  0  0  0  0  0  0  0  0  0
   22.6897   -6.0322  -15.1892 C   0  0  0  0  0  0  0  0  0  0  0  0
   22.6791   -7.5082  -15.0782 C   0  0  0  0  0  0  0  0  0  0  0  0
   21.7119   -8.3645  -14.5852 C   0  0  0  0  0  0  0  0  0  0  0  0
   22.1860   -9.6157  -14.6874 N   0  0  0  0  0  0  0  0  0  0  0  0
   23.4154   -9.5999  -15.2245 C   0  0  0  0  0  0  0  0  0  0  0  0
   23.7000   -8.3202  -15.4553 N   0  0  0  0  0  0  0  0  0  0  0  0
   21.4110   -3.9905  -14.4939 C   0  0  0  0  0  0  0  0  0  0  0  0
   22.2124   -3.3662  -13.5102 O   0  0  0  0  0  0  0  0  0  0  0  0
   20.7204   -3.2033  -15.1840 O   0  0  0  0  0  0  0  0  0  0  0  0
  2  1  1  6
  2  5  1  0
  3  2  1  0
  4  3  1  0
  5  6  2  0
  7  8  1  0
  8  9  2  0
  8 10  1  0
 10 11  1  0
 12 11  1  1
 12 14  1  0
 13  5  1  0
 13 12  1  0
 14 15  2  0
 16 17  1  0
 16 14  1  0
 17 24  1  0
 18 19  1  0
 17 18  1  6
 19 20  2  0
 19 23  1  0
 20 21  1  0
 21 22  1  0
 23 22  2  0
 24 26  2  0
 24 25  1  0
M  END
$$$$
