CQH.pdb
     RDKit          3D

 26 26  0  0  1  0  0  0  0  0999 V2000
   24.1620  -14.6289  -17.8294 N   0  0  0  0  0  0  0  0  0  0  0  0
   23.6085  -14.1108  -16.5944 C   0  0  1  0  0  0  0  0  0  0  0  0
   24.6862  -13.5086  -15.7196 C   0  0  0  0  0  0  0  0  0  0  0  0
   25.7130  -14.8530  -15.0510 S   0  0  0  0  0  0  0  0  0  0  0  0
   22.6072  -13.0748  -16.9151 C   0  0  0  0  0  0  0  0  0  0  0  0
   22.8793  -12.2427  -17.8168 O   0  0  0  0  0  0  0  0  0  0  0  0
   16.5318  -13.7133  -16.3410 N   0  0  0  0  0  0  0  0  0  0  0  0
   16.5770  -12.3862  -16.8197 C   0  0  0  0  0  0  0  0  0  0  0  0
   15.5212  -11.8001  -17.1255 O   0  0  0  0  0  0  0  0  0  0  0  0
   17.8954  -11.7169  -16.9474 C   0  0  0  0  0  0  0  0  0  0  0  0
   19.0097  -12.6159  -16.5099 C   0  0  0  0  0  0  0  0  0  0  0  0
   20.3434  -11.9807  -16.6242 C   0  0  2  0  0  0  0  0  0  0  0  0
   21.3562  -12.9666  -16.2627 N   0  0  0  0  0  0  0  0  0  0  0  0
   20.5403  -10.7146  -15.9148 C   0  0  0  0  0  0  0  0  0  0  0  0
   20.9891  -10.6269  -14.7408 O   0  0  0  0  0  0  0  0  0  0  0  0
   20.2043   -9.4959  -16.5908 N   0  0  0  0  0  0  0  0  0  0  0  0
   20.3758   -8.1823  -16.0032 C   0  0  1  0  0  0  0  0  0  0  0  0
   21.6295   -7.5095  -16.4320 C   0  0  0  0  0  0  0  0  0  0  0  0
   21.7634   -6.1973  -15.7604 C   0  0  0  0  0  0  0  0  0  0  0  0
   20.9903   -5.6093  -14.7764 C   0  0  0  0  0  0  0  0  0  0  0  0
   21.5153   -4.4028  -14.5132 N   0  0  0  0  0  0  0  0  0  0  0  0
   22.5918   -4.1906  -15.2855 C   0  0  0  0  0  0  0  0  0  0  0  0
   22.7294   -5.2829  -16.0335 N   0  0  0  0  0  0  0  0  0  0  0  0
   19.1420   -7.3700  -16.1490 C   0  0  0  0  0  0  0  0  0  0  0  0
   18.8404   -6.3460  -15.2215 O   0  0  0  0  0  0  0  0  0  0  0  0
   18.2971   -7.5130  -17.0647 O   0  0  0  0  0  0  0  0  0  0  0  0
  2  1  1  6
  2  5  1  0
  3  2  1  0
  4  3  1  0
  5  6  2  0
  7  8  1  0
  8  9  2  0
  8 10  1  0
 10 11  1  0
 12 11  1  1
 12 14  1  0
 13  5  1  0
 13 12  1  0
 14 15  2  0
 16 17  1  0
 16 14  1  0
 17 24  1  0
 18 19  1  0
 17 18  1  6
 19 20  2  0
 19 23  1  0
 20 21  1  0
 21 22  1  0
 23 22  2  0
 24 26  2  0
 24 25  1  0
M  END
$$$$
