CQH.pdb
     RDKit          3D

 26 26  0  0  1  0  0  0  0  0999 V2000
   34.5660  -33.7365   -6.9807 N   0  0  0  0  0  0  0  0  0  0  0  0
   33.2549  -34.3510   -7.0405 C   0  0  1  0  0  0  0  0  0  0  0  0
   33.1125  -35.2229   -8.2688 C   0  0  0  0  0  0  0  0  0  0  0  0
   31.3649  -35.6941   -8.4497 S   0  0  0  0  0  0  0  0  0  0  0  0
   33.0565  -35.1761   -5.8328 C   0  0  0  0  0  0  0  0  0  0  0  0
   31.9514  -35.7552   -5.6822 O   0  0  0  0  0  0  0  0  0  0  0  0
   37.4470  -36.5150   -1.5255 N   0  0  0  0  0  0  0  0  0  0  0  0
   36.3869  -37.3353   -1.0829 C   0  0  0  0  0  0  0  0  0  0  0  0
   36.5548  -38.0964   -0.1111 O   0  0  0  0  0  0  0  0  0  0  0  0
   35.0864  -37.2688   -1.7947 C   0  0  0  0  0  0  0  0  0  0  0  0
   35.1525  -36.3424   -2.9689 C   0  0  0  0  0  0  0  0  0  0  0  0
   33.8434  -36.1663   -3.6403 C   0  0  2  0  0  0  0  0  0  0  0  0
   34.0434  -35.3513   -4.8338 N   0  0  0  0  0  0  0  0  0  0  0  0
   32.7371  -35.6669   -2.8208 C   0  0  0  0  0  0  0  0  0  0  0  0
   32.4679  -34.4455   -2.6689 O   0  0  0  0  0  0  0  0  0  0  0  0
   31.9049  -36.6199   -2.1467 N   0  0  0  0  0  0  0  0  0  0  0  0
   30.7304  -36.2547   -1.3803 C   0  0  1  0  0  0  0  0  0  0  0  0
   29.4565  -36.6072   -2.0596 C   0  0  0  0  0  0  0  0  0  0  0  0
   29.1026  -35.5717   -3.0561 C   0  0  0  0  0  0  0  0  0  0  0  0
   28.9149  -34.2098   -2.9078 C   0  0  0  0  0  0  0  0  0  0  0  0
   28.5888  -33.7107   -4.1100 N   0  0  0  0  0  0  0  0  0  0  0  0
   28.5590  -34.6929   -5.0236 C   0  0  0  0  0  0  0  0  0  0  0  0
   28.8713  -35.8111   -4.3726 N   0  0  0  0  0  0  0  0  0  0  0  0
   30.8466  -36.7206    0.0242 C   0  0  0  0  0  0  0  0  0  0  0  0
   30.9832  -35.7918    1.0818 O   0  0  0  0  0  0  0  0  0  0  0  0
   30.8345  -37.9228    0.3810 O   0  0  0  0  0  0  0  0  0  0  0  0
  2  1  1  1
  2  5  1  0
  3  2  1  0
  4  3  1  0
  5  6  2  0
  7  8  1  0
  8  9  2  0
  8 10  1  0
 10 11  1  0
 12 11  1  1
 12 14  1  0
 13  5  1  0
 13 12  1  0
 14 15  2  0
 16 17  1  0
 16 14  1  0
 17 24  1  0
 18 19  1  0
 17 18  1  6
 19 20  2  0
 19 23  1  0
 20 21  1  0
 21 22  1  0
 23 22  2  0
 24 26  2  0
 24 25  1  0
M  END
$$$$
