CQH.pdb
     RDKit          3D

 26 26  0  0  1  0  0  0  0  0999 V2000
   27.2197  -17.4867  -17.4521 N   0  0  0  0  0  0  0  0  0  0  0  0
   26.6605  -17.4641  -16.1154 C   0  0  1  0  0  0  0  0  0  0  0  0
   26.1337  -16.0901  -15.7636 C   0  0  0  0  0  0  0  0  0  0  0  0
   27.5459  -14.9847  -15.4593 S   0  0  0  0  0  0  0  0  0  0  0  0
   25.5572  -18.4419  -16.0407 C   0  0  0  0  0  0  0  0  0  0  0  0
   24.8675  -18.6412  -17.0721 O   0  0  0  0  0  0  0  0  0  0  0  0
   25.1978  -23.3690  -12.3825 N   0  0  0  0  0  0  0  0  0  0  0  0
   23.9024  -23.4114  -12.9416 C   0  0  0  0  0  0  0  0  0  0  0  0
   23.1548  -24.3790  -12.7037 O   0  0  0  0  0  0  0  0  0  0  0  0
   23.4607  -22.2900  -13.8075 C   0  0  0  0  0  0  0  0  0  0  0  0
   24.5360  -21.2593  -13.9586 C   0  0  0  0  0  0  0  0  0  0  0  0
   24.1179  -20.1056  -14.7889 C   0  0  2  0  0  0  0  0  0  0  0  0
   25.2328  -19.1681  -14.8703 N   0  0  0  0  0  0  0  0  0  0  0  0
   22.8705  -19.4348  -14.4161 C   0  0  0  0  0  0  0  0  0  0  0  0
   22.8111  -18.4197  -13.6721 O   0  0  0  0  0  0  0  0  0  0  0  0
   21.6370  -19.9592  -14.9248 N   0  0  0  0  0  0  0  0  0  0  0  0
   20.4039  -19.1994  -14.9711 C   0  0  1  0  0  0  0  0  0  0  0  0
   20.3469  -18.2468  -16.1102 C   0  0  0  0  0  0  0  0  0  0  0  0
   20.8359  -16.9145  -15.6901 C   0  0  0  0  0  0  0  0  0  0  0  0
   21.2619  -16.4630  -14.4546 C   0  0  0  0  0  0  0  0  0  0  0  0
   21.5901  -15.1684  -14.5855 N   0  0  0  0  0  0  0  0  0  0  0  0
   21.3934  -14.7692  -15.8513 C   0  0  0  0  0  0  0  0  0  0  0  0
   20.9378  -15.8343  -16.5067 N   0  0  0  0  0  0  0  0  0  0  0  0
   19.2251  -20.0910  -14.8344 C   0  0  0  0  0  0  0  0  0  0  0  0
   18.3450  -19.9575  -13.7356 O   0  0  0  0  0  0  0  0  0  0  0  0
   18.9193  -20.9993  -15.6433 O   0  0  0  0  0  0  0  0  0  0  0  0
  2  1  1  6
  2  5  1  0
  3  2  1  0
  4  3  1  0
  5  6  2  0
  7  8  1  0
  8  9  2  0
  8 10  1  0
 10 11  1  0
 12 11  1  1
 12 14  1  0
 13  5  1  0
 13 12  1  0
 14 15  2  0
 16 17  1  0
 16 14  1  0
 17 24  1  0
 18 19  1  0
 17 18  1  6
 19 20  2  0
 19 23  1  0
 20 21  1  0
 21 22  1  0
 23 22  2  0
 24 26  2  0
 24 25  1  0
M  END
$$$$
