CQH.pdb
     RDKit          3D

 26 26  0  0  1  0  0  0  0  0999 V2000
   27.7347  -33.1450  -17.4290 N   0  0  0  0  0  0  0  0  0  0  0  0
   28.1689  -33.0381  -16.0506 C   0  0  1  0  0  0  0  0  0  0  0  0
   28.9664  -31.7727  -15.8225 C   0  0  0  0  0  0  0  0  0  0  0  0
   30.7053  -32.0950  -16.2480 S   0  0  0  0  0  0  0  0  0  0  0  0
   26.9819  -33.0297  -15.1733 C   0  0  0  0  0  0  0  0  0  0  0  0
   25.9174  -32.5300  -15.6166 O   0  0  0  0  0  0  0  0  0  0  0  0
   22.8620  -35.9427  -14.9630 N   0  0  0  0  0  0  0  0  0  0  0  0
   22.4685  -35.3328  -13.7523 C   0  0  0  0  0  0  0  0  0  0  0  0
   21.3081  -35.4887  -13.3270 O   0  0  0  0  0  0  0  0  0  0  0  0
   23.4583  -34.5131  -13.0102 C   0  0  0  0  0  0  0  0  0  0  0  0
   24.7446  -34.3915  -13.7665 C   0  0  0  0  0  0  0  0  0  0  0  0
   25.7789  -33.6295  -13.0285 C   0  0  2  0  0  0  0  0  0  0  0  0
   26.9762  -33.5539  -13.8589 N   0  0  0  0  0  0  0  0  0  0  0  0
   26.0889  -34.0741  -11.6679 C   0  0  0  0  0  0  0  0  0  0  0  0
   26.6411  -35.1730  -11.3941 O   0  0  0  0  0  0  0  0  0  0  0  0
   25.7461  -33.2119  -10.5751 N   0  0  0  0  0  0  0  0  0  0  0  0
   26.0903  -33.4939   -9.1959 C   0  0  1  0  0  0  0  0  0  0  0  0
   26.4866  -32.2817   -8.4330 C   0  0  0  0  0  0  0  0  0  0  0  0
   26.9138  -32.6530   -7.0654 C   0  0  0  0  0  0  0  0  0  0  0  0
   28.1402  -33.0833   -6.5936 C   0  0  0  0  0  0  0  0  0  0  0  0
   28.0133  -33.3083   -5.2767 N   0  0  0  0  0  0  0  0  0  0  0  0
   26.7588  -33.0413   -4.8827 C   0  0  0  0  0  0  0  0  0  0  0  0
   26.1064  -32.6465   -5.9736 N   0  0  0  0  0  0  0  0  0  0  0  0
   25.0509  -34.3341   -8.5502 C   0  0  0  0  0  0  0  0  0  0  0  0
   23.8086  -34.5588   -9.1874 O   0  0  0  0  0  0  0  0  0  0  0  0
   25.1762  -34.8931   -7.4346 O   0  0  0  0  0  0  0  0  0  0  0  0
  2  1  1  6
  2  5  1  0
  3  2  1  0
  4  3  1  0
  5  6  2  0
  7  8  1  0
  8  9  2  0
  8 10  1  0
 10 11  1  0
 12 11  1  6
 12 14  1  0
 13  5  1  0
 13 12  1  0
 14 15  2  0
 16 17  1  0
 16 14  1  0
 17 24  1  0
 18 19  1  0
 17 18  1  1
 19 20  2  0
 19 23  1  0
 20 21  1  0
 21 22  1  0
 23 22  2  0
 24 26  2  0
 24 25  1  0
M  END
$$$$
