CQH.pdb
     RDKit          3D

 26 26  0  0  1  0  0  0  0  0999 V2000
   33.7469  -26.8820  -21.6894 N   0  0  0  0  0  0  0  0  0  0  0  0
   32.6045  -27.3076  -20.9058 C   0  0  1  0  0  0  0  0  0  0  0  0
   31.3512  -27.3702  -21.7511 C   0  0  0  0  0  0  0  0  0  0  0  0
   29.9561  -27.8566  -20.6900 S   0  0  0  0  0  0  0  0  0  0  0  0
   32.8797  -28.6448  -20.3444 C   0  0  0  0  0  0  0  0  0  0  0  0
   33.5000  -29.4735  -21.0569 O   0  0  0  0  0  0  0  0  0  0  0  0
   35.4602  -33.9073  -18.0241 N   0  0  0  0  0  0  0  0  0  0  0  0
   35.3564  -32.5009  -17.9614 C   0  0  0  0  0  0  0  0  0  0  0  0
   36.2543  -31.7896  -18.4507 O   0  0  0  0  0  0  0  0  0  0  0  0
   34.1673  -31.9005  -17.3069 C   0  0  0  0  0  0  0  0  0  0  0  0
   33.9012  -30.5188  -17.8181 C   0  0  0  0  0  0  0  0  0  0  0  0
   32.6176  -30.4109  -18.5503 C   0  0  2  0  0  0  0  0  0  0  0  0
   32.4832  -29.0455  -19.0464 N   0  0  0  0  0  0  0  0  0  0  0  0
   31.4115  -30.8547  -17.8478 C   0  0  0  0  0  0  0  0  0  0  0  0
   30.6710  -30.0940  -17.1693 O   0  0  0  0  0  0  0  0  0  0  0  0
   31.0442  -32.2378  -17.9326 N   0  0  0  0  0  0  0  0  0  0  0  0
   29.8842  -32.7990  -17.2695 C   0  0  1  0  0  0  0  0  0  0  0  0
   29.6415  -32.2164  -15.9241 C   0  0  0  0  0  0  0  0  0  0  0  0
   28.4745  -32.8662  -15.2864 C   0  0  0  0  0  0  0  0  0  0  0  0
   27.6824  -33.9136  -15.7192 C   0  0  0  0  0  0  0  0  0  0  0  0
   26.7386  -34.1216  -14.7883 N   0  0  0  0  0  0  0  0  0  0  0  0
   26.8903  -33.2533  -13.7767 C   0  0  0  0  0  0  0  0  0  0  0  0
   27.9426  -32.5015  -14.0914 N   0  0  0  0  0  0  0  0  0  0  0  0
   28.7078  -32.8087  -18.1746 C   0  0  0  0  0  0  0  0  0  0  0  0
   28.8227  -32.3561  -19.5094 O   0  0  0  0  0  0  0  0  0  0  0  0
   27.5613  -33.2008  -17.8512 O   0  0  0  0  0  0  0  0  0  0  0  0
  2  1  1  6
  2  5  1  0
  3  2  1  0
  4  3  1  0
  5  6  2  0
  7  8  1  0
  8  9  2  0
  8 10  1  0
 10 11  1  0
 12 11  1  1
 12 14  1  0
 13  5  1  0
 13 12  1  0
 14 15  2  0
 16 17  1  0
 16 14  1  0
 17 24  1  0
 18 19  1  0
 17 18  1  1
 19 20  2  0
 19 23  1  0
 20 21  1  0
 21 22  1  0
 23 22  2  0
 24 26  2  0
 24 25  1  0
M  END
$$$$
