CQH.pdb
     RDKit          3D

 26 26  0  0  1  0  0  0  0  0999 V2000
   27.5048  -13.0651  -17.5606 N   0  0  0  0  0  0  0  0  0  0  0  0
   27.1441  -11.9845  -16.6650 C   0  0  1  0  0  0  0  0  0  0  0  0
   27.9187  -10.7246  -16.9845 C   0  0  0  0  0  0  0  0  0  0  0  0
   29.6946  -11.0672  -16.7902 S   0  0  0  0  0  0  0  0  0  0  0  0
   25.6991  -11.7139  -16.7977 C   0  0  0  0  0  0  0  0  0  0  0  0
   25.1955  -11.7201  -17.9490 O   0  0  0  0  0  0  0  0  0  0  0  0
   21.6050  -13.2613  -17.6079 N   0  0  0  0  0  0  0  0  0  0  0  0
   20.6750  -12.6680  -16.7272 C   0  0  0  0  0  0  0  0  0  0  0  0
   19.4659  -12.6430  -17.0256 O   0  0  0  0  0  0  0  0  0  0  0  0
   21.1677  -12.0833  -15.4552 C   0  0  0  0  0  0  0  0  0  0  0  0
   22.6451  -12.2713  -15.3030 C   0  0  0  0  0  0  0  0  0  0  0  0
   23.4303  -11.1339  -15.8370 C   0  0  2  0  0  0  0  0  0  0  0  0
   24.8485  -11.4475  -15.6986 N   0  0  0  0  0  0  0  0  0  0  0  0
   23.1147   -9.8032  -15.3130 C   0  0  0  0  0  0  0  0  0  0  0  0
   23.7475   -9.2462  -14.3766 O   0  0  0  0  0  0  0  0  0  0  0  0
   22.0202   -9.0839  -15.8958 N   0  0  0  0  0  0  0  0  0  0  0  0
   21.6604   -7.7319  -15.5178 C   0  0  1  0  0  0  0  0  0  0  0  0
   22.8110   -6.7918  -15.5447 C   0  0  0  0  0  0  0  0  0  0  0  0
   22.3873   -5.4488  -15.0893 C   0  0  0  0  0  0  0  0  0  0  0  0
   22.0954   -4.9814  -13.8211 C   0  0  0  0  0  0  0  0  0  0  0  0
   21.7419   -3.6918  -13.9342 N   0  0  0  0  0  0  0  0  0  0  0  0
   21.7941   -3.3110  -15.2197 C   0  0  0  0  0  0  0  0  0  0  0  0
   22.1853   -4.3826  -15.9056 N   0  0  0  0  0  0  0  0  0  0  0  0
   20.4561   -7.2766  -16.2564 C   0  0  0  0  0  0  0  0  0  0  0  0
   19.4966   -6.4490  -15.6286 O   0  0  0  0  0  0  0  0  0  0  0  0
   20.1948   -7.5714  -17.4471 O   0  0  0  0  0  0  0  0  0  0  0  0
  2  1  1  6
  2  5  1  0
  3  2  1  0
  4  3  1  0
  5  6  2  0
  7  8  1  0
  8  9  2  0
  8 10  1  0
 10 11  1  0
 12 11  1  1
 12 14  1  0
 13  5  1  0
 13 12  1  0
 14 15  2  0
 16 17  1  0
 16 14  1  0
 17 24  1  0
 18 19  1  0
 17 18  1  6
 19 20  2  0
 19 23  1  0
 20 21  1  0
 21 22  1  0
 23 22  2  0
 24 26  2  0
 24 25  1  0
M  END
$$$$
