CQH.pdb
     RDKit          3D

 26 26  0  0  1  0  0  0  0  0999 V2000
   13.6945  -10.4066  -14.7709 N   0  0  0  0  0  0  0  0  0  0  0  0
   14.2689   -9.3788  -15.6159 C   0  0  1  0  0  0  0  0  0  0  0  0
   13.5582   -8.0559  -15.4319 C   0  0  0  0  0  0  0  0  0  0  0  0
   11.8665   -8.2076  -16.0831 S   0  0  0  0  0  0  0  0  0  0  0  0
   15.6951   -9.2168  -15.2714 C   0  0  0  0  0  0  0  0  0  0  0  0
   16.0051   -9.0988  -14.0593 O   0  0  0  0  0  0  0  0  0  0  0  0
   20.4344  -10.8907  -18.9152 N   0  0  0  0  0  0  0  0  0  0  0  0
   21.1530  -10.3971  -17.8049 C   0  0  0  0  0  0  0  0  0  0  0  0
   22.3913  -10.5246  -17.7602 O   0  0  0  0  0  0  0  0  0  0  0  0
   20.4060   -9.7322  -16.7083 C   0  0  0  0  0  0  0  0  0  0  0  0
   18.9375   -9.6865  -16.9962 C   0  0  0  0  0  0  0  0  0  0  0  0
   18.1485   -9.1070  -15.8841 C   0  0  2  0  0  0  0  0  0  0  0  0
   16.7339   -9.1868  -16.2319 N   0  0  0  0  0  0  0  0  0  0  0  0
   18.5217   -7.7647  -15.4323 C   0  0  0  0  0  0  0  0  0  0  0  0
   19.6873   -7.4371  -15.0837 O   0  0  0  0  0  0  0  0  0  0  0  0
   17.5041   -6.7562  -15.3805 N   0  0  0  0  0  0  0  0  0  0  0  0
   17.7802   -5.3535  -15.1434 C   0  0  1  0  0  0  0  0  0  0  0  0
   18.8301   -4.8048  -16.0406 C   0  0  0  0  0  0  0  0  0  0  0  0
   20.1584   -4.9005  -15.3947 C   0  0  0  0  0  0  0  0  0  0  0  0
   20.5098   -5.3030  -14.1195 C   0  0  0  0  0  0  0  0  0  0  0  0
   21.8431   -5.1959  -14.0119 N   0  0  0  0  0  0  0  0  0  0  0  0
   22.3630   -4.7422  -15.1627 C   0  0  0  0  0  0  0  0  0  0  0  0
   21.3336   -4.5683  -15.9885 N   0  0  0  0  0  0  0  0  0  0  0  0
   16.5228   -4.5666  -15.0883 C   0  0  0  0  0  0  0  0  0  0  0  0
   16.4325   -3.4094  -14.2805 O   0  0  0  0  0  0  0  0  0  0  0  0
   15.4778   -4.8450  -15.7234 O   0  0  0  0  0  0  0  0  0  0  0  0
  2  1  1  1
  2  5  1  0
  3  2  1  0
  4  3  1  0
  5  6  2  0
  7  8  1  0
  8  9  2  0
  8 10  1  0
 10 11  1  0
 12 11  1  6
 12 14  1  0
 13  5  1  0
 13 12  1  0
 14 15  2  0
 16 17  1  0
 16 14  1  0
 17 24  1  0
 18 19  1  0
 17 18  1  6
 19 20  2  0
 19 23  1  0
 20 21  1  0
 21 22  1  0
 23 22  2  0
 24 26  2  0
 24 25  1  0
M  END
$$$$
