CQH.pdb
     RDKit          3D

 26 26  0  0  1  0  0  0  0  0999 V2000
   12.4257  -11.4761   -9.7698 N   0  0  0  0  0  0  0  0  0  0  0  0
   13.8566  -11.3121   -9.6088 C   0  0  1  0  0  0  0  0  0  0  0  0
   14.6221  -12.2904  -10.4726 C   0  0  0  0  0  0  0  0  0  0  0  0
   14.5423  -13.9357   -9.7008 S   0  0  0  0  0  0  0  0  0  0  0  0
   14.2270   -9.9347   -9.9887 C   0  0  0  0  0  0  0  0  0  0  0  0
   13.8798   -9.5156  -11.1214 O   0  0  0  0  0  0  0  0  0  0  0  0
   14.1240   -5.0441   -6.5023 N   0  0  0  0  0  0  0  0  0  0  0  0
   14.7786   -4.4667   -7.6117 C   0  0  0  0  0  0  0  0  0  0  0  0
   14.9507   -3.2338   -7.6585 O   0  0  0  0  0  0  0  0  0  0  0  0
   15.2495   -5.3533   -8.7047 C   0  0  0  0  0  0  0  0  0  0  0  0
   14.9577   -6.7911   -8.4067 C   0  0  0  0  0  0  0  0  0  0  0  0
   15.3141   -7.6966   -9.5239 C   0  0  2  0  0  0  0  0  0  0  0  0
   14.9525   -9.0588   -9.1467 N   0  0  0  0  0  0  0  0  0  0  0  0
   16.6859   -7.6196  -10.0312 C   0  0  0  0  0  0  0  0  0  0  0  0
   17.7021   -7.9628   -9.3702 O   0  0  0  0  0  0  0  0  0  0  0  0
   16.8935   -7.1243  -11.3604 N   0  0  0  0  0  0  0  0  0  0  0  0
   18.1994   -7.0213  -11.9802 C   0  0  1  0  0  0  0  0  0  0  0  0
   18.5922   -8.2471  -12.7228 C   0  0  0  0  0  0  0  0  0  0  0  0
   19.9528   -8.0930  -13.2847 C   0  0  0  0  0  0  0  0  0  0  0  0
   21.1541   -7.8075  -12.6625 C   0  0  0  0  0  0  0  0  0  0  0  0
   22.1018   -7.7569  -13.6112 N   0  0  0  0  0  0  0  0  0  0  0  0
   21.5611   -7.9974  -14.8154 C   0  0  0  0  0  0  0  0  0  0  0  0
   20.2627   -8.1986  -14.6025 N   0  0  0  0  0  0  0  0  0  0  0  0
   18.3273   -5.7538  -12.7420 C   0  0  0  0  0  0  0  0  0  0  0  0
   19.5876   -5.3239  -13.2180 O   0  0  0  0  0  0  0  0  0  0  0  0
   17.3737   -4.9874  -13.0182 O   0  0  0  0  0  0  0  0  0  0  0  0
  2  1  1  6
  2  5  1  0
  3  2  1  0
  4  3  1  0
  5  6  2  0
  7  8  1  0
  8  9  2  0
  8 10  1  0
 10 11  1  0
 12 11  1  1
 12 14  1  0
 13  5  1  0
 13 12  1  0
 14 15  2  0
 16 17  1  0
 16 14  1  0
 17 24  1  0
 18 19  1  0
 17 18  1  6
 19 20  2  0
 19 23  1  0
 20 21  1  0
 21 22  1  0
 23 22  2  0
 24 26  2  0
 24 25  1  0
M  END
$$$$
