WPH.pdb
     RDKit          3D

 32 35  0  0  1  0  0  0  0  0999 V2000
   25.6359  -21.5730  -14.0101 N   0  0  0  0  0  0  0  0  0  0  0  0
   25.7173  -20.6560  -12.8619 C   0  0  1  0  0  0  0  0  0  0  0  0
   24.8750  -19.4532  -13.2760 C   0  0  0  0  0  0  0  0  0  0  0  0
   25.3500  -18.8588  -14.5578 C   0  0  0  0  0  0  0  0  0  0  0  0
   24.4759  -18.4396  -15.5688 C   0  0  0  0  0  0  0  0  0  0  0  0
   25.1813  -17.9177  -16.5664 N   0  0  0  0  0  0  0  0  0  0  0  0
   26.4964  -17.9786  -16.2470 C   0  0  0  0  0  0  0  0  0  0  0  0
   27.5972  -17.5728  -16.9627 C   0  0  0  0  0  0  0  0  0  0  0  0
   28.8449  -17.7631  -16.4061 C   0  0  0  0  0  0  0  0  0  0  0  0
   28.9541  -18.3456  -15.1678 C   0  0  0  0  0  0  0  0  0  0  0  0
   27.8490  -18.7569  -14.4406 C   0  0  0  0  0  0  0  0  0  0  0  0
   26.6063  -18.5605  -15.0066 C   0  0  0  0  0  0  0  0  0  0  0  0
   25.2078  -21.2904  -11.6450 C   0  0  0  0  0  0  0  0  0  0  0  0
   24.3792  -22.2521  -11.8202 O   0  0  0  0  0  0  0  0  0  0  0  0
   25.5736  -20.9092  -10.3162 N   0  0  0  0  0  0  0  0  0  0  0  0
   26.5636  -19.9468  -10.0018 C   0  0  0  0  0  0  0  0  0  0  0  0
   26.4985  -19.7934   -8.4932 C   0  0  0  0  0  0  0  0  0  0  0  0
   25.9381  -21.1499   -8.0312 C   0  0  0  0  0  0  0  0  0  0  0  0
   24.9941  -21.4390   -9.1297 C   0  0  1  0  0  0  0  0  0  0  0  0
   23.6096  -20.9721   -8.8806 C   0  0  0  0  0  0  0  0  0  0  0  0
   23.1550  -20.0963   -9.6553 O   0  0  0  0  0  0  0  0  0  0  0  0
   22.7694  -21.4379   -7.8391 N   0  0  0  0  0  0  0  0  0  0  0  0
   21.3437  -21.6402   -7.9980 C   0  0  1  0  0  0  0  0  0  0  0  0
   21.0926  -22.4808   -9.2387 C   0  0  0  0  0  0  0  0  0  0  0  0
   19.6363  -22.7008   -9.4552 C   0  0  0  0  0  0  0  0  0  0  0  0
   18.6160  -22.3129   -8.6273 C   0  0  0  0  0  0  0  0  0  0  0  0
   17.4509  -22.6955   -9.1709 N   0  0  0  0  0  0  0  0  0  0  0  0
   17.7669  -23.3162  -10.3310 C   0  0  0  0  0  0  0  0  0  0  0  0
   19.0891  -23.3215  -10.5066 N   0  0  0  0  0  0  0  0  0  0  0  0
   20.7376  -22.3324   -6.8475 C   0  0  0  0  0  0  0  0  0  0  0  0
   21.2221  -23.5798   -6.5002 O   0  0  0  0  0  0  0  0  0  0  0  0
   19.8057  -21.8453   -6.1700 O   0  0  0  0  0  0  0  0  0  0  0  0
  2  3  1  0
  2  1  1  6
  4  5  2  0
  4  3  1  0
  6  5  1  0
  7 12  2  0
  7  6  1  0
  8  7  1  0
  9 10  1  0
  9  8  2  0
 10 11  2  0
 11 12  1  0
 12  4  1  0
 13  2  1  0
 14 13  2  0
 15 13  1  0
 16 15  1  0
 17 16  1  0
 18 19  1  0
 18 17  1  0
 19 15  1  0
 20 22  1  0
 19 20  1  1
 21 20  2  0
 23 22  1  0
 23 30  1  0
 23 24  1  6
 25 29  1  0
 25 24  1  0
 26 25  2  0
 27 26  1  0
 27 28  1  0
 28 29  2  0
 30 31  1  0
 32 30  2  0
M  END
$$$$
