WPH.pdb
     RDKit          3D

 32 35  0  0  1  0  0  0  0  0999 V2000
   22.9482  -34.5317  -11.1900 N   0  0  0  0  0  0  0  0  0  0  0  0
   24.1319  -33.7256  -10.8511 C   0  0  1  0  0  0  0  0  0  0  0  0
   23.6774  -32.2824  -11.0469 C   0  0  0  0  0  0  0  0  0  0  0  0
   22.4244  -31.9890  -10.2945 C   0  0  0  0  0  0  0  0  0  0  0  0
   21.5761  -32.9943   -9.8133 C   0  0  0  0  0  0  0  0  0  0  0  0
   20.5685  -32.4351   -9.1521 N   0  0  0  0  0  0  0  0  0  0  0  0
   20.7236  -31.0896   -9.1808 C   0  0  0  0  0  0  0  0  0  0  0  0
   19.9349  -30.0997   -8.6452 C   0  0  0  0  0  0  0  0  0  0  0  0
   20.3172  -28.7875   -8.8313 C   0  0  0  0  0  0  0  0  0  0  0  0
   21.4604  -28.5071   -9.5377 C   0  0  0  0  0  0  0  0  0  0  0  0
   22.2604  -29.4997  -10.0802 C   0  0  0  0  0  0  0  0  0  0  0  0
   21.8688  -30.8084   -9.8867 C   0  0  0  0  0  0  0  0  0  0  0  0
   24.5675  -33.9825   -9.4773 C   0  0  0  0  0  0  0  0  0  0  0  0
   23.7206  -34.5811   -8.7246 O   0  0  0  0  0  0  0  0  0  0  0  0
   25.8443  -33.6158   -8.9482 N   0  0  0  0  0  0  0  0  0  0  0  0
   26.7891  -32.8050   -9.6227 C   0  0  0  0  0  0  0  0  0  0  0  0
   27.9103  -32.5915   -8.6222 C   0  0  0  0  0  0  0  0  0  0  0  0
   27.8055  -33.8302   -7.7155 C   0  0  0  0  0  0  0  0  0  0  0  0
   26.3401  -34.0100   -7.6742 C   0  0  1  0  0  0  0  0  0  0  0  0
   25.6756  -33.3295   -6.5375 C   0  0  0  0  0  0  0  0  0  0  0  0
   25.4686  -32.0976   -6.6523 O   0  0  0  0  0  0  0  0  0  0  0  0
   25.2615  -33.9634   -5.3398 N   0  0  0  0  0  0  0  0  0  0  0  0
   24.7788  -33.2384   -4.1822 C   0  0  1  0  0  0  0  0  0  0  0  0
   23.2604  -33.1927   -4.2175 C   0  0  0  0  0  0  0  0  0  0  0  0
   22.6805  -34.5633   -4.2540 C   0  0  0  0  0  0  0  0  0  0  0  0
   23.2407  -35.6762   -4.8237 C   0  0  0  0  0  0  0  0  0  0  0  0
   22.4101  -36.7147   -4.6479 N   0  0  0  0  0  0  0  0  0  0  0  0
   21.3445  -36.2291   -3.9697 C   0  0  0  0  0  0  0  0  0  0  0  0
   21.5046  -34.9269   -3.7294 N   0  0  0  0  0  0  0  0  0  0  0  0
   25.1872  -33.8623   -2.9117 C   0  0  0  0  0  0  0  0  0  0  0  0
   24.9353  -33.1831   -1.7342 O   0  0  0  0  0  0  0  0  0  0  0  0
   25.7509  -34.9771   -2.8477 O   0  0  0  0  0  0  0  0  0  0  0  0
  2  3  1  0
  2  1  1  1
  4  5  2  0
  4  3  1  0
  6  5  1  0
  7 12  2  0
  7  6  1  0
  8  7  1  0
  9 10  1  0
  9  8  2  0
 10 11  2  0
 11 12  1  0
 12  4  1  0
 13  2  1  0
 14 13  2  0
 15 13  1  0
 16 15  1  0
 17 16  1  0
 18 19  1  0
 18 17  1  0
 19 15  1  0
 20 22  1  0
 19 20  1  1
 21 20  2  0
 23 22  1  0
 23 30  1  0
 23 24  1  6
 25 29  1  0
 25 24  1  0
 26 25  2  0
 27 26  1  0
 27 28  1  0
 28 29  2  0
 30 31  1  0
 32 30  2  0
M  END
$$$$
