WPH.pdb
     RDKit          3D

 32 35  0  0  1  0  0  0  0  0999 V2000
   25.4633  -21.8614  -12.0564 N   0  0  0  0  0  0  0  0  0  0  0  0
   26.1968  -20.6779  -12.5333 C   0  0  1  0  0  0  0  0  0  0  0  0
   27.6665  -21.0380  -12.3385 C   0  0  0  0  0  0  0  0  0  0  0  0
   28.0304  -21.1204  -10.8952 C   0  0  0  0  0  0  0  0  0  0  0  0
   29.2353  -21.6771  -10.4479 C   0  0  0  0  0  0  0  0  0  0  0  0
   29.2983  -21.5745   -9.1248 N   0  0  0  0  0  0  0  0  0  0  0  0
   28.1716  -20.9667   -8.6820 C   0  0  0  0  0  0  0  0  0  0  0  0
   27.7842  -20.6531   -7.4012 C   0  0  0  0  0  0  0  0  0  0  0  0
   26.5632  -20.0372   -7.2203 C   0  0  0  0  0  0  0  0  0  0  0  0
   25.7762  -19.7571   -8.3096 C   0  0  0  0  0  0  0  0  0  0  0  0
   26.1602  -20.0702   -9.6034 C   0  0  0  0  0  0  0  0  0  0  0  0
   27.3838  -20.6848   -9.7724 C   0  0  0  0  0  0  0  0  0  0  0  0
   25.8822  -20.3934  -13.9344 C   0  0  0  0  0  0  0  0  0  0  0  0
   24.9746  -21.1269  -14.4641 O   0  0  0  0  0  0  0  0  0  0  0  0
   26.5103  -19.3748  -14.7171 N   0  0  0  0  0  0  0  0  0  0  0  0
   27.4974  -18.4838  -14.2306 C   0  0  0  0  0  0  0  0  0  0  0  0
   27.9453  -17.6911  -15.4450 C   0  0  0  0  0  0  0  0  0  0  0  0
   26.7165  -17.7498  -16.3690 C   0  0  0  0  0  0  0  0  0  0  0  0
   26.2345  -19.1176  -16.0890 C   0  0  1  0  0  0  0  0  0  0  0  0
   26.7665  -20.1503  -17.0095 C   0  0  0  0  0  0  0  0  0  0  0  0
   27.9822  -20.4397  -16.9006 O   0  0  0  0  0  0  0  0  0  0  0  0
   26.0085  -20.8282  -17.9963 N   0  0  0  0  0  0  0  0  0  0  0  0
   26.5796  -21.7926  -18.9142 C   0  0  1  0  0  0  0  0  0  0  0  0
   25.7708  -23.0777  -18.8572 C   0  0  0  0  0  0  0  0  0  0  0  0
   25.9140  -23.7465  -17.5349 C   0  0  0  0  0  0  0  0  0  0  0  0
   27.0157  -23.7274  -16.7208 C   0  0  0  0  0  0  0  0  0  0  0  0
   26.7513  -24.4484  -15.6211 N   0  0  0  0  0  0  0  0  0  0  0  0
   25.4861  -24.9048  -15.7698 C   0  0  0  0  0  0  0  0  0  0  0  0
   24.9758  -24.4820  -16.9273 N   0  0  0  0  0  0  0  0  0  0  0  0
   26.5817  -21.3162  -20.3082 C   0  0  0  0  0  0  0  0  0  0  0  0
   27.1734  -22.1092  -21.2737 O   0  0  0  0  0  0  0  0  0  0  0  0
   26.0738  -20.2284  -20.6596 O   0  0  0  0  0  0  0  0  0  0  0  0
  2  3  1  0
  2  1  1  6
  4  5  2  0
  4  3  1  0
  6  5  1  0
  7 12  2  0
  7  6  1  0
  8  7  1  0
  9 10  1  0
  9  8  2  0
 10 11  2  0
 11 12  1  0
 12  4  1  0
 13  2  1  0
 14 13  2  0
 15 13  1  0
 16 15  1  0
 17 16  1  0
 18 19  1  0
 18 17  1  0
 19 15  1  0
 20 22  1  0
 19 20  1  6
 21 20  2  0
 23 22  1  0
 23 30  1  0
 23 24  1  6
 25 29  1  0
 25 24  1  0
 26 25  2  0
 27 26  1  0
 27 28  1  0
 28 29  2  0
 30 31  1  0
 32 30  2  0
M  END
$$$$
