WPH.pdb
     RDKit          3D

 32 35  0  0  1  0  0  0  0  0999 V2000
   24.1817  -20.8808  -11.5956 N   0  0  0  0  0  0  0  0  0  0  0  0
   25.5242  -20.4287  -11.9948 C   0  0  1  0  0  0  0  0  0  0  0  0
   26.4737  -21.2295  -11.1089 C   0  0  0  0  0  0  0  0  0  0  0  0
   26.5728  -20.6517   -9.7383 C   0  0  0  0  0  0  0  0  0  0  0  0
   25.4974  -20.0177   -9.1034 C   0  0  0  0  0  0  0  0  0  0  0  0
   25.8696  -19.6442   -7.8839 N   0  0  0  0  0  0  0  0  0  0  0  0
   27.1593  -20.0116   -7.6918 C   0  0  0  0  0  0  0  0  0  0  0  0
   27.9733  -19.8333   -6.5989 C   0  0  0  0  0  0  0  0  0  0  0  0
   29.2702  -20.2981   -6.6675 C   0  0  0  0  0  0  0  0  0  0  0  0
   29.7094  -20.9184   -7.8107 C   0  0  0  0  0  0  0  0  0  0  0  0
   28.8946  -21.1017   -8.9161 C   0  0  0  0  0  0  0  0  0  0  0  0
   27.5992  -20.6339   -8.8356 C   0  0  0  0  0  0  0  0  0  0  0  0
   25.7609  -20.6762  -13.4181 C   0  0  0  0  0  0  0  0  0  0  0  0
   24.9783  -21.5235  -13.9764 O   0  0  0  0  0  0  0  0  0  0  0  0
   26.7826  -20.0438  -14.1934 N   0  0  0  0  0  0  0  0  0  0  0  0
   27.6478  -19.0333  -13.7082 C   0  0  0  0  0  0  0  0  0  0  0  0
   28.6276  -18.7776  -14.8388 C   0  0  0  0  0  0  0  0  0  0  0  0
   27.8306  -19.1928  -16.0878 C   0  0  0  0  0  0  0  0  0  0  0  0
   27.0732  -20.3427  -15.5537 C   0  0  1  0  0  0  0  0  0  0  0  0
   27.7384  -21.6528  -15.7489 C   0  0  0  0  0  0  0  0  0  0  0  0
   28.7737  -21.8727  -15.0756 O   0  0  0  0  0  0  0  0  0  0  0  0
   27.2947  -22.6661  -16.6343 N   0  0  0  0  0  0  0  0  0  0  0  0
   27.9868  -23.9264  -16.8113 C   0  0  1  0  0  0  0  0  0  0  0  0
   26.9749  -25.0599  -16.7946 C   0  0  0  0  0  0  0  0  0  0  0  0
   27.6368  -26.3766  -17.0044 C   0  0  0  0  0  0  0  0  0  0  0  0
   28.2414  -27.1522  -16.0506 C   0  0  0  0  0  0  0  0  0  0  0  0
   28.7188  -28.2607  -16.6358 N   0  0  0  0  0  0  0  0  0  0  0  0
   28.4020  -28.1560  -17.9472 C   0  0  0  0  0  0  0  0  0  0  0  0
   27.7469  -27.0166  -18.1743 N   0  0  0  0  0  0  0  0  0  0  0  0
   28.7260  -23.9934  -18.0838 C   0  0  0  0  0  0  0  0  0  0  0  0
   29.8326  -24.8187  -18.1592 O   0  0  0  0  0  0  0  0  0  0  0  0
   28.4002  -23.3391  -19.0989 O   0  0  0  0  0  0  0  0  0  0  0  0
  2  3  1  0
  2  1  1  1
  4  5  2  0
  4  3  1  0
  6  5  1  0
  7 12  2  0
  7  6  1  0
  8  7  1  0
  9 10  1  0
  9  8  2  0
 10 11  2  0
 11 12  1  0
 12  4  1  0
 13  2  1  0
 14 13  2  0
 15 13  1  0
 16 15  1  0
 17 16  1  0
 18 19  1  0
 18 17  1  0
 19 15  1  0
 20 22  1  0
 19 20  1  1
 21 20  2  0
 23 22  1  0
 23 30  1  0
 23 24  1  6
 25 29  1  0
 25 24  1  0
 26 25  2  0
 27 26  1  0
 27 28  1  0
 28 29  2  0
 30 31  1  0
 32 30  2  0
M  END
$$$$
