WPH.pdb
     RDKit          3D

 32 35  0  0  1  0  0  0  0  0999 V2000
   23.8663  -20.6881  -12.1394 N   0  0  0  0  0  0  0  0  0  0  0  0
   25.2503  -20.2543  -12.3896 C   0  0  1  0  0  0  0  0  0  0  0  0
   26.1038  -21.2134  -11.5655 C   0  0  0  0  0  0  0  0  0  0  0  0
   26.2497  -20.7535  -10.1550 C   0  0  0  0  0  0  0  0  0  0  0  0
   25.1817  -20.2330   -9.4132 C   0  0  0  0  0  0  0  0  0  0  0  0
   25.6014  -19.9491   -8.1850 N   0  0  0  0  0  0  0  0  0  0  0  0
   26.9151  -20.2658   -8.0907 C   0  0  0  0  0  0  0  0  0  0  0  0
   27.7776  -20.1426   -7.0278 C   0  0  0  0  0  0  0  0  0  0  0  0
   29.0891  -20.5330   -7.2020 C   0  0  0  0  0  0  0  0  0  0  0  0
   29.4944  -21.0278   -8.4168 C   0  0  0  0  0  0  0  0  0  0  0  0
   28.6307  -21.1549   -9.4925 C   0  0  0  0  0  0  0  0  0  0  0  0
   27.3211  -20.7625   -9.3062 C   0  0  0  0  0  0  0  0  0  0  0  0
   25.5723  -20.3199  -13.8161 C   0  0  0  0  0  0  0  0  0  0  0  0
   24.7474  -20.9745  -14.5463 O   0  0  0  0  0  0  0  0  0  0  0  0
   26.7178  -19.7122  -14.4188 N   0  0  0  0  0  0  0  0  0  0  0  0
   27.7266  -19.0198  -13.7061 C   0  0  0  0  0  0  0  0  0  0  0  0
   28.7789  -18.6782  -14.7452 C   0  0  0  0  0  0  0  0  0  0  0  0
   27.9706  -18.6307  -16.0536 C   0  0  0  0  0  0  0  0  0  0  0  0
   27.0041  -19.7212  -15.8124 C   0  0  1  0  0  0  0  0  0  0  0  0
   27.4376  -21.0426  -16.3251 C   0  0  0  0  0  0  0  0  0  0  0  0
   28.3554  -21.6244  -15.6984 O   0  0  0  0  0  0  0  0  0  0  0  0
   26.8964  -21.6907  -17.4630 N   0  0  0  0  0  0  0  0  0  0  0  0
   27.5301  -22.8211  -18.1107 C   0  0  1  0  0  0  0  0  0  0  0  0
   26.5073  -23.9294  -18.2967 C   0  0  0  0  0  0  0  0  0  0  0  0
   25.8982  -24.3246  -16.9971 C   0  0  0  0  0  0  0  0  0  0  0  0
   25.0830  -23.5584  -16.2063 C   0  0  0  0  0  0  0  0  0  0  0  0
   24.7440  -24.2693  -15.1206 N   0  0  0  0  0  0  0  0  0  0  0  0
   25.3555  -25.4690  -15.2547 C   0  0  0  0  0  0  0  0  0  0  0  0
   26.0552  -25.5063  -16.3896 N   0  0  0  0  0  0  0  0  0  0  0  0
   28.0802  -22.4809  -19.4342 C   0  0  0  0  0  0  0  0  0  0  0  0
   27.8294  -21.2218  -19.9472 O   0  0  0  0  0  0  0  0  0  0  0  0
   28.7631  -23.2769  -20.1159 O   0  0  0  0  0  0  0  0  0  0  0  0
  2  3  1  0
  2  1  1  6
  4  5  2  0
  4  3  1  0
  6  5  1  0
  7 12  2  0
  7  6  1  0
  8  7  1  0
  9 10  1  0
  9  8  2  0
 10 11  2  0
 11 12  1  0
 12  4  1  0
 13  2  1  0
 14 13  2  0
 15 13  1  0
 16 15  1  0
 17 16  1  0
 18 19  1  0
 18 17  1  0
 19 15  1  0
 20 22  1  0
 19 20  1  1
 21 20  2  0
 23 22  1  0
 23 30  1  0
 23 24  1  6
 25 29  1  0
 25 24  1  0
 26 25  2  0
 27 26  1  0
 27 28  1  0
 28 29  2  0
 30 31  1  0
 32 30  2  0
M  END
$$$$
