WPH.pdb
     RDKit          3D

 32 35  0  0  1  0  0  0  0  0999 V2000
   22.3056  -35.8107  -11.8478 N   0  0  0  0  0  0  0  0  0  0  0  0
   22.5172  -34.6502  -10.9676 C   0  0  1  0  0  0  0  0  0  0  0  0
   21.1217  -34.2977  -10.4619 C   0  0  0  0  0  0  0  0  0  0  0  0
   20.2546  -33.7670  -11.5522 C   0  0  0  0  0  0  0  0  0  0  0  0
   20.4582  -32.5118  -12.1394 C   0  0  0  0  0  0  0  0  0  0  0  0
   19.5618  -32.3308  -13.1033 N   0  0  0  0  0  0  0  0  0  0  0  0
   18.7705  -33.4282  -13.1723 C   0  0  0  0  0  0  0  0  0  0  0  0
   17.7077  -33.6980  -14.0008 C   0  0  0  0  0  0  0  0  0  0  0  0
   17.0547  -34.9041  -13.8540 C   0  0  0  0  0  0  0  0  0  0  0  0
   17.4771  -35.7927  -12.8966 C   0  0  0  0  0  0  0  0  0  0  0  0
   18.5477  -35.5276  -12.0581 C   0  0  0  0  0  0  0  0  0  0  0  0
   19.1939  -34.3187  -12.2148 C   0  0  0  0  0  0  0  0  0  0  0  0
   23.4310  -34.9803   -9.8727 C   0  0  0  0  0  0  0  0  0  0  0  0
   23.2919  -36.1465   -9.3601 O   0  0  0  0  0  0  0  0  0  0  0  0
   24.4376  -34.1022   -9.3624 N   0  0  0  0  0  0  0  0  0  0  0  0
   24.6449  -32.7744   -9.8087 C   0  0  0  0  0  0  0  0  0  0  0  0
   25.7176  -32.2141   -8.8927 C   0  0  0  0  0  0  0  0  0  0  0  0
   26.4787  -33.4726   -8.4407 C   0  0  0  0  0  0  0  0  0  0  0  0
   25.3653  -34.4375   -8.3371 C   0  0  1  0  0  0  0  0  0  0  0  0
   24.7591  -34.5240   -6.9873 C   0  0  0  0  0  0  0  0  0  0  0  0
   23.9193  -33.6437   -6.6818 O   0  0  0  0  0  0  0  0  0  0  0  0
   25.0574  -35.5196   -6.0243 N   0  0  0  0  0  0  0  0  0  0  0  0
   24.3990  -35.6028   -4.7365 C   0  0  1  0  0  0  0  0  0  0  0  0
   24.9985  -36.7504   -3.9410 C   0  0  0  0  0  0  0  0  0  0  0  0
   24.7864  -38.0527   -4.6302 C   0  0  0  0  0  0  0  0  0  0  0  0
   24.0678  -38.2668   -5.7768 C   0  0  0  0  0  0  0  0  0  0  0  0
   24.1129  -39.5735   -6.0759 N   0  0  0  0  0  0  0  0  0  0  0  0
   24.8610  -40.1519   -5.1080 C   0  0  0  0  0  0  0  0  0  0  0  0
   25.2706  -39.2344   -4.2308 N   0  0  0  0  0  0  0  0  0  0  0  0
   24.5479  -34.3706   -3.9430 C   0  0  0  0  0  0  0  0  0  0  0  0
   23.4751  -33.9440   -3.1824 O   0  0  0  0  0  0  0  0  0  0  0  0
   25.5986  -33.6921   -3.9247 O   0  0  0  0  0  0  0  0  0  0  0  0
  2  3  1  0
  2  1  1  6
  4  5  2  0
  4  3  1  0
  6  5  1  0
  7 12  2  0
  7  6  1  0
  8  7  1  0
  9 10  1  0
  9  8  2  0
 10 11  2  0
 11 12  1  0
 12  4  1  0
 13  2  1  0
 14 13  2  0
 15 13  1  0
 16 15  1  0
 17 16  1  0
 18 19  1  0
 18 17  1  0
 19 15  1  0
 20 22  1  0
 19 20  1  1
 21 20  2  0
 23 22  1  0
 23 30  1  0
 23 24  1  1
 25 29  1  0
 25 24  1  0
 26 25  2  0
 27 26  1  0
 27 28  1  0
 28 29  2  0
 30 31  1  0
 32 30  2  0
M  END
$$$$
