WPH.pdb
     RDKit          3D

 32 35  0  0  1  0  0  0  0  0999 V2000
   27.4704  -20.5752  -13.0333 N   0  0  0  0  0  0  0  0  0  0  0  0
   26.3671  -21.3317  -12.4197 C   0  0  1  0  0  0  0  0  0  0  0  0
   26.1687  -20.6757  -11.0567 C   0  0  0  0  0  0  0  0  0  0  0  0
   27.3889  -20.7827  -10.2070 C   0  0  0  0  0  0  0  0  0  0  0  0
   28.6121  -21.2605  -10.6941 C   0  0  0  0  0  0  0  0  0  0  0  0
   29.5198  -21.2021   -9.7256 N   0  0  0  0  0  0  0  0  0  0  0  0
   28.9349  -20.7001   -8.6116 C   0  0  0  0  0  0  0  0  0  0  0  0
   29.4667  -20.4648   -7.3664 C   0  0  0  0  0  0  0  0  0  0  0  0
   28.6392  -19.9524   -6.3889 C   0  0  0  0  0  0  0  0  0  0  0  0
   27.3229  -19.6942   -6.6806 C   0  0  0  0  0  0  0  0  0  0  0  0
   26.7800  -19.9287   -7.9335 C   0  0  0  0  0  0  0  0  0  0  0  0
   27.6172  -20.4401   -8.9035 C   0  0  0  0  0  0  0  0  0  0  0  0
   25.1593  -21.2619  -13.2438 C   0  0  0  0  0  0  0  0  0  0  0  0
   24.6761  -20.0897  -13.4301 O   0  0  0  0  0  0  0  0  0  0  0  0
   24.5122  -22.3924  -13.8337 N   0  0  0  0  0  0  0  0  0  0  0  0
   24.9949  -23.7215  -13.7601 C   0  0  0  0  0  0  0  0  0  0  0  0
   23.9167  -24.5686  -14.4109 C   0  0  0  0  0  0  0  0  0  0  0  0
   23.2323  -23.5801  -15.3709 C   0  0  0  0  0  0  0  0  0  0  0  0
   23.2965  -22.3401  -14.5710 C   0  0  1  0  0  0  0  0  0  0  0  0
   22.0991  -22.0945  -13.7327 C   0  0  0  0  0  0  0  0  0  0  0  0
   22.1951  -22.3577  -12.5099 O   0  0  0  0  0  0  0  0  0  0  0  0
   20.8634  -21.5894  -14.2079 N   0  0  0  0  0  0  0  0  0  0  0  0
   19.6893  -21.4442  -13.3718 C   0  0  1  0  0  0  0  0  0  0  0  0
   19.9255  -20.3296  -12.3664 C   0  0  0  0  0  0  0  0  0  0  0  0
   20.2723  -19.0528  -13.0487 C   0  0  0  0  0  0  0  0  0  0  0  0
   20.4101  -18.8542  -14.3972 C   0  0  0  0  0  0  0  0  0  0  0  0
   20.7288  -17.5693  -14.6131 N   0  0  0  0  0  0  0  0  0  0  0  0
   20.7836  -16.9886  -13.3921 C   0  0  0  0  0  0  0  0  0  0  0  0
   20.5078  -17.8835  -12.4424 N   0  0  0  0  0  0  0  0  0  0  0  0
   18.4801  -21.1126  -14.1451 C   0  0  0  0  0  0  0  0  0  0  0  0
   17.2686  -21.0587  -13.4812 O   0  0  0  0  0  0  0  0  0  0  0  0
   18.4973  -20.8777  -15.3736 O   0  0  0  0  0  0  0  0  0  0  0  0
  2  3  1  0
  2  1  1  6
  4  5  2  0
  4  3  1  0
  6  5  1  0
  7 12  2  0
  7  6  1  0
  8  7  1  0
  9 10  1  0
  9  8  2  0
 10 11  2  0
 11 12  1  0
 12  4  1  0
 13  2  1  0
 14 13  2  0
 15 13  1  0
 16 15  1  0
 17 16  1  0
 18 19  1  0
 18 17  1  0
 19 15  1  0
 20 22  1  0
 19 20  1  1
 21 20  2  0
 23 22  1  0
 23 30  1  0
 23 24  1  1
 25 29  1  0
 25 24  1  0
 26 25  2  0
 27 26  1  0
 27 28  1  0
 28 29  2  0
 30 31  1  0
 32 30  2  0
M  END
$$$$
