WPH.pdb
     RDKit          3D

 32 35  0  0  1  0  0  0  0  0999 V2000
   23.0957  -20.5077  -17.4776 N   0  0  0  0  0  0  0  0  0  0  0  0
   23.9025  -19.5161  -16.7484 C   0  0  1  0  0  0  0  0  0  0  0  0
   22.8796  -18.5339  -16.1857 C   0  0  0  0  0  0  0  0  0  0  0  0
   22.2344  -17.7285  -17.2615 C   0  0  0  0  0  0  0  0  0  0  0  0
   20.8952  -17.8977  -17.6352 C   0  0  0  0  0  0  0  0  0  0  0  0
   20.5929  -17.0185  -18.5844 N   0  0  0  0  0  0  0  0  0  0  0  0
   21.6915  -16.2720  -18.8508 C   0  0  0  0  0  0  0  0  0  0  0  0
   21.8662  -15.2520  -19.7552 C   0  0  0  0  0  0  0  0  0  0  0  0
   23.1081  -14.6573  -19.8374 C   0  0  0  0  0  0  0  0  0  0  0  0
   24.1249  -15.0937  -19.0248 C   0  0  0  0  0  0  0  0  0  0  0  0
   23.9561  -16.1211  -18.1108 C   0  0  0  0  0  0  0  0  0  0  0  0
   22.7095  -16.7076  -18.0365 C   0  0  0  0  0  0  0  0  0  0  0  0
   24.6906  -20.1534  -15.6921 C   0  0  0  0  0  0  0  0  0  0  0  0
   24.1118  -21.1058  -15.0596 O   0  0  0  0  0  0  0  0  0  0  0  0
   26.0267  -19.7845  -15.3409 N   0  0  0  0  0  0  0  0  0  0  0  0
   26.8259  -18.8734  -16.0733 C   0  0  0  0  0  0  0  0  0  0  0  0
   28.0901  -18.7085  -15.2497 C   0  0  0  0  0  0  0  0  0  0  0  0
   28.1688  -20.0312  -14.4677 C   0  0  0  0  0  0  0  0  0  0  0  0
   26.7354  -20.2767  -14.2097 C   0  0  1  0  0  0  0  0  0  0  0  0
   26.2487  -19.7368  -12.9180 C   0  0  0  0  0  0  0  0  0  0  0  0
   25.4711  -18.7536  -12.9675 O   0  0  0  0  0  0  0  0  0  0  0  0
   26.5958  -20.2450  -11.6417 N   0  0  0  0  0  0  0  0  0  0  0  0
   25.6174  -20.5959  -10.6326 C   0  0  1  0  0  0  0  0  0  0  0  0
   24.6955  -21.6716  -11.1820 C   0  0  0  0  0  0  0  0  0  0  0  0
   23.3601  -21.1119  -11.5279 C   0  0  0  0  0  0  0  0  0  0  0  0
   22.9440  -19.8177  -11.3583 C   0  0  0  0  0  0  0  0  0  0  0  0
   21.6784  -19.7120  -11.7899 N   0  0  0  0  0  0  0  0  0  0  0  0
   21.3277  -20.9455  -12.2221 C   0  0  0  0  0  0  0  0  0  0  0  0
   22.3432  -21.7958  -12.0651 N   0  0  0  0  0  0  0  0  0  0  0  0
   26.2355  -21.1112   -9.3986 C   0  0  0  0  0  0  0  0  0  0  0  0
   25.8807  -20.5331   -8.1940 O   0  0  0  0  0  0  0  0  0  0  0  0
   27.0660  -22.0465   -9.3891 O   0  0  0  0  0  0  0  0  0  0  0  0
  2  3  1  0
  2  1  1  1
  4  5  2  0
  4  3  1  0
  6  5  1  0
  7 12  2  0
  7  6  1  0
  8  7  1  0
  9 10  1  0
  9  8  2  0
 10 11  2  0
 11 12  1  0
 12  4  1  0
 13  2  1  0
 14 13  2  0
 15 13  1  0
 16 15  1  0
 17 16  1  0
 18 19  1  0
 18 17  1  0
 19 15  1  0
 20 22  1  0
 19 20  1  1
 21 20  2  0
 23 22  1  0
 23 30  1  0
 23 24  1  6
 25 29  1  0
 25 24  1  0
 26 25  2  0
 27 26  1  0
 27 28  1  0
 28 29  2  0
 30 31  1  0
 32 30  2  0
M  END
$$$$
