WPH.pdb
     RDKit          3D

 32 35  0  0  1  0  0  0  0  0999 V2000
   27.8900  -20.7474  -12.9306 N   0  0  0  0  0  0  0  0  0  0  0  0
   26.7006  -21.4562  -12.4315 C   0  0  1  0  0  0  0  0  0  0  0  0
   26.4378  -20.8389  -11.0613 C   0  0  0  0  0  0  0  0  0  0  0  0
   27.5608  -21.0926  -10.1144 C   0  0  0  0  0  0  0  0  0  0  0  0
   28.7354  -21.7556  -10.4918 C   0  0  0  0  0  0  0  0  0  0  0  0
   29.5650  -21.7972   -9.4549 N   0  0  0  0  0  0  0  0  0  0  0  0
   28.9755  -21.1819   -8.4018 C   0  0  0  0  0  0  0  0  0  0  0  0
   29.4387  -20.9860   -7.1228 C   0  0  0  0  0  0  0  0  0  0  0  0
   28.6219  -20.3300   -6.2255 C   0  0  0  0  0  0  0  0  0  0  0  0
   27.3832  -19.8955   -6.6272 C   0  0  0  0  0  0  0  0  0  0  0  0
   26.9097  -20.0892   -7.9147 C   0  0  0  0  0  0  0  0  0  0  0  0
   27.7358  -20.7454   -8.8039 C   0  0  0  0  0  0  0  0  0  0  0  0
   25.5653  -21.2823  -13.3391 C   0  0  0  0  0  0  0  0  0  0  0  0
   25.3915  -20.0982  -13.7972 O   0  0  0  0  0  0  0  0  0  0  0  0
   24.6709  -22.3272  -13.7304 N   0  0  0  0  0  0  0  0  0  0  0  0
   24.7538  -23.6658  -13.2761 C   0  0  0  0  0  0  0  0  0  0  0  0
   23.5310  -24.3542  -13.8543 C   0  0  0  0  0  0  0  0  0  0  0  0
   23.2236  -23.5178  -15.1086 C   0  0  0  0  0  0  0  0  0  0  0  0
   23.5757  -22.1676  -14.6243 C   0  0  1  0  0  0  0  0  0  0  0  0
   22.4382  -21.4125  -14.0474 C   0  0  0  0  0  0  0  0  0  0  0  0
   22.1736  -21.6156  -12.8381 O   0  0  0  0  0  0  0  0  0  0  0  0
   21.6337  -20.4864  -14.7565 N   0  0  0  0  0  0  0  0  0  0  0  0
   20.6439  -19.6418  -14.1195 C   0  0  1  0  0  0  0  0  0  0  0  0
   20.8141  -18.2138  -14.6101 C   0  0  0  0  0  0  0  0  0  0  0  0
   19.7063  -17.3431  -14.1296 C   0  0  0  0  0  0  0  0  0  0  0  0
   18.7308  -17.6789  -13.2281 C   0  0  0  0  0  0  0  0  0  0  0  0
   17.9193  -16.6245  -13.0587 N   0  0  0  0  0  0  0  0  0  0  0  0
   18.4051  -15.6478  -13.8594 C   0  0  0  0  0  0  0  0  0  0  0  0
   19.4870  -16.0791  -14.5094 N   0  0  0  0  0  0  0  0  0  0  0  0
   19.2638  -20.0643  -14.4145 C   0  0  0  0  0  0  0  0  0  0  0  0
   18.3398  -20.0585  -13.3862 O   0  0  0  0  0  0  0  0  0  0  0  0
   18.8884  -20.4282  -15.5509 O   0  0  0  0  0  0  0  0  0  0  0  0
  2  3  1  0
  2  1  1  6
  4  5  2  0
  4  3  1  0
  6  5  1  0
  7 12  2  0
  7  6  1  0
  8  7  1  0
  9 10  1  0
  9  8  2  0
 10 11  2  0
 11 12  1  0
 12  4  1  0
 13  2  1  0
 14 13  2  0
 15 13  1  0
 16 15  1  0
 17 16  1  0
 18 19  1  0
 18 17  1  0
 19 15  1  0
 20 22  1  0
 19 20  1  1
 21 20  2  0
 23 22  1  0
 23 30  1  0
 23 24  1  6
 25 29  1  0
 25 24  1  0
 26 25  2  0
 27 26  1  0
 27 28  1  0
 28 29  2  0
 30 31  1  0
 32 30  2  0
M  END
$$$$
