WPH.pdb
     RDKit          3D

 32 35  0  0  1  0  0  0  0  0999 V2000
   23.8163  -13.0675  -18.4942 N   0  0  0  0  0  0  0  0  0  0  0  0
   24.7521  -13.6533  -17.5210 C   0  0  1  0  0  0  0  0  0  0  0  0
   24.2297  -13.1890  -16.1649 C   0  0  0  0  0  0  0  0  0  0  0  0
   24.2785  -11.7052  -16.0305 C   0  0  0  0  0  0  0  0  0  0  0  0
   23.1347  -10.9254  -15.8172 C   0  0  0  0  0  0  0  0  0  0  0  0
   23.4916   -9.6512  -15.6980 N   0  0  0  0  0  0  0  0  0  0  0  0
   24.8373   -9.5632  -15.8258 C   0  0  0  0  0  0  0  0  0  0  0  0
   25.6566   -8.4606  -15.7839 C   0  0  0  0  0  0  0  0  0  0  0  0
   27.0123   -8.6471  -15.9576 C   0  0  0  0  0  0  0  0  0  0  0  0
   27.5023   -9.9125  -16.1655 C   0  0  0  0  0  0  0  0  0  0  0  0
   26.6826  -11.0285  -16.2088 C   0  0  0  0  0  0  0  0  0  0  0  0
   25.3286  -10.8301  -16.0326 C   0  0  0  0  0  0  0  0  0  0  0  0
   24.7781  -15.1129  -17.6291 C   0  0  0  0  0  0  0  0  0  0  0  0
   23.6648  -15.6715  -17.9304 O   0  0  0  0  0  0  0  0  0  0  0  0
   25.9395  -15.9218  -17.4253 N   0  0  0  0  0  0  0  0  0  0  0  0
   27.2435  -15.4132  -17.2110 C   0  0  0  0  0  0  0  0  0  0  0  0
   28.0989  -16.6328  -16.9200 C   0  0  0  0  0  0  0  0  0  0  0  0
   27.3431  -17.7648  -17.6375 C   0  0  0  0  0  0  0  0  0  0  0  0
   25.9463  -17.3444  -17.4061 C   0  0  1  0  0  0  0  0  0  0  0  0
   25.3284  -17.9289  -16.1923 C   0  0  0  0  0  0  0  0  0  0  0  0
   25.3108  -17.2149  -15.1610 O   0  0  0  0  0  0  0  0  0  0  0  0
   24.7618  -19.2251  -16.1119 N   0  0  0  0  0  0  0  0  0  0  0  0
   23.5922  -19.5337  -15.3146 C   0  0  1  0  0  0  0  0  0  0  0  0
   22.4348  -18.6576  -15.7638 C   0  0  0  0  0  0  0  0  0  0  0  0
   21.1702  -19.0421  -15.0789 C   0  0  0  0  0  0  0  0  0  0  0  0
   21.0153  -20.0169  -14.1289 C   0  0  0  0  0  0  0  0  0  0  0  0
   19.7264  -20.0582  -13.7599 N   0  0  0  0  0  0  0  0  0  0  0  0
   19.0996  -19.1055  -14.4883 C   0  0  0  0  0  0  0  0  0  0  0  0
   19.9704  -18.4881  -15.2881 N   0  0  0  0  0  0  0  0  0  0  0  0
   23.1752  -20.9409  -15.4408 C   0  0  0  0  0  0  0  0  0  0  0  0
   22.8071  -21.6233  -14.2962 O   0  0  0  0  0  0  0  0  0  0  0  0
   23.1385  -21.5476  -16.5341 O   0  0  0  0  0  0  0  0  0  0  0  0
  2  3  1  0
  2  1  1  6
  4  5  2  0
  4  3  1  0
  6  5  1  0
  7 12  2  0
  7  6  1  0
  8  7  1  0
  9 10  1  0
  9  8  2  0
 10 11  2  0
 11 12  1  0
 12  4  1  0
 13  2  1  0
 14 13  2  0
 15 13  1  0
 16 15  1  0
 17 16  1  0
 18 19  1  0
 18 17  1  0
 19 15  1  0
 20 22  1  0
 19 20  1  1
 21 20  2  0
 23 22  1  0
 23 30  1  0
 23 24  1  6
 25 29  1  0
 25 24  1  0
 26 25  2  0
 27 26  1  0
 27 28  1  0
 28 29  2  0
 30 31  1  0
 32 30  2  0
M  END
$$$$
