WPH.pdb
     RDKit          3D

 32 35  0  0  1  0  0  0  0  0999 V2000
   27.9049  -21.8232  -17.7973 N   0  0  0  0  0  0  0  0  0  0  0  0
   27.6906  -20.7116  -16.8569 C   0  0  1  0  0  0  0  0  0  0  0  0
   27.1723  -19.5715  -17.7282 C   0  0  0  0  0  0  0  0  0  0  0  0
   27.2072  -18.2654  -17.0107 C   0  0  0  0  0  0  0  0  0  0  0  0
   28.3656  -17.4840  -16.9147 C   0  0  0  0  0  0  0  0  0  0  0  0
   28.0832  -16.3644  -16.2575 N   0  0  0  0  0  0  0  0  0  0  0  0
   26.7726  -16.3804  -15.9151 C   0  0  0  0  0  0  0  0  0  0  0  0
   26.0304  -15.4526  -15.2244 C   0  0  0  0  0  0  0  0  0  0  0  0
   24.6973  -15.7222  -14.9948 C   0  0  0  0  0  0  0  0  0  0  0  0
   24.1528  -16.8952  -15.4556 C   0  0  0  0  0  0  0  0  0  0  0  0
   24.8947  -17.8349  -16.1526 C   0  0  0  0  0  0  0  0  0  0  0  0
   26.2266  -17.5540  -16.3774 C   0  0  0  0  0  0  0  0  0  0  0  0
   26.7345  -21.0830  -15.8125 C   0  0  0  0  0  0  0  0  0  0  0  0
   25.6898  -21.7110  -16.2081 O   0  0  0  0  0  0  0  0  0  0  0  0
   26.8982  -20.7943  -14.4216 N   0  0  0  0  0  0  0  0  0  0  0  0
   28.0266  -20.1449  -13.8647 C   0  0  0  0  0  0  0  0  0  0  0  0
   27.6847  -19.9494  -12.3989 C   0  0  0  0  0  0  0  0  0  0  0  0
   26.6811  -21.0826  -12.1235 C   0  0  0  0  0  0  0  0  0  0  0  0
   25.9527  -21.1149  -13.4080 C   0  0  1  0  0  0  0  0  0  0  0  0
   24.7347  -20.2708  -13.4379 C   0  0  0  0  0  0  0  0  0  0  0  0
   24.8949  -19.0336  -13.3063 O   0  0  0  0  0  0  0  0  0  0  0  0
   23.4134  -20.7554  -13.6018 N   0  0  0  0  0  0  0  0  0  0  0  0
   22.2392  -19.9129  -13.5009 C   0  0  1  0  0  0  0  0  0  0  0  0
   22.2381  -18.9163  -14.6479 C   0  0  0  0  0  0  0  0  0  0  0  0
   22.2775  -19.6098  -15.9646 C   0  0  0  0  0  0  0  0  0  0  0  0
   22.4352  -20.9535  -16.1798 C   0  0  0  0  0  0  0  0  0  0  0  0
   22.4188  -21.1831  -17.5012 N   0  0  0  0  0  0  0  0  0  0  0  0
   22.2505  -19.9752  -18.0874 C   0  0  0  0  0  0  0  0  0  0  0  0
   22.1646  -19.0201  -17.1603 N   0  0  0  0  0  0  0  0  0  0  0  0
   20.9835  -20.6808  -13.5624 C   0  0  0  0  0  0  0  0  0  0  0  0
   19.7888  -20.0016  -13.4115 O   0  0  0  0  0  0  0  0  0  0  0  0
   20.9469  -21.9178  -13.7444 O   0  0  0  0  0  0  0  0  0  0  0  0
  2  3  1  0
  2  1  1  6
  4  5  2  0
  4  3  1  0
  6  5  1  0
  7 12  2  0
  7  6  1  0
  8  7  1  0
  9 10  1  0
  9  8  2  0
 10 11  2  0
 11 12  1  0
 12  4  1  0
 13  2  1  0
 14 13  2  0
 15 13  1  0
 16 15  1  0
 17 16  1  0
 18 19  1  0
 18 17  1  0
 19 15  1  0
 20 22  1  0
 19 20  1  1
 21 20  2  0
 23 22  1  0
 23 30  1  0
 23 24  1  6
 25 29  1  0
 25 24  1  0
 26 25  2  0
 27 26  1  0
 27 28  1  0
 28 29  2  0
 30 31  1  0
 32 30  2  0
M  END
$$$$
