WPH.pdb
     RDKit          3D

 32 35  0  0  1  0  0  0  0  0999 V2000
   24.6779  -20.1288   -9.9897 N   0  0  0  0  0  0  0  0  0  0  0  0
   26.0213  -20.0815  -10.5888 C   0  0  1  0  0  0  0  0  0  0  0  0
   26.8757  -20.9544   -9.6748 C   0  0  0  0  0  0  0  0  0  0  0  0
   27.1020  -20.3129   -8.3483 C   0  0  0  0  0  0  0  0  0  0  0  0
   26.3164  -19.2547   -7.8743 C   0  0  0  0  0  0  0  0  0  0  0  0
   26.7248  -18.9205   -6.6550 N   0  0  0  0  0  0  0  0  0  0  0  0
   27.7574  -19.7254   -6.3069 C   0  0  0  0  0  0  0  0  0  0  0  0
   28.5050  -19.7515   -5.1540 C   0  0  0  0  0  0  0  0  0  0  0  0
   29.5235  -20.6767   -5.0567 C   0  0  0  0  0  0  0  0  0  0  0  0
   29.7616  -21.5365   -6.1001 C   0  0  0  0  0  0  0  0  0  0  0  0
   29.0120  -21.5161   -7.2650 C   0  0  0  0  0  0  0  0  0  0  0  0
   27.9953  -20.5874   -7.3507 C   0  0  0  0  0  0  0  0  0  0  0  0
   26.0016  -20.5815  -11.9645 C   0  0  0  0  0  0  0  0  0  0  0  0
   25.0452  -21.3835  -12.2547 O   0  0  0  0  0  0  0  0  0  0  0  0
   26.9584  -20.2338  -12.9687 N   0  0  0  0  0  0  0  0  0  0  0  0
   28.0748  -19.3894  -12.7547 C   0  0  0  0  0  0  0  0  0  0  0  0
   28.8528  -19.4275  -14.0574 C   0  0  0  0  0  0  0  0  0  0  0  0
   27.7699  -19.7632  -15.0975 C   0  0  0  0  0  0  0  0  0  0  0  0
   26.9243  -20.6886  -14.3164 C   0  0  1  0  0  0  0  0  0  0  0  0
   27.2811  -22.1185  -14.4740 C   0  0  0  0  0  0  0  0  0  0  0  0
   28.4943  -22.3881  -14.6447 O   0  0  0  0  0  0  0  0  0  0  0  0
   26.3593  -23.1943  -14.4474 N   0  0  0  0  0  0  0  0  0  0  0  0
   26.1112  -24.0571  -15.5845 C   0  0  1  0  0  0  0  0  0  0  0  0
   24.7825  -23.6804  -16.2181 C   0  0  0  0  0  0  0  0  0  0  0  0
   23.6520  -23.9109  -15.2774 C   0  0  0  0  0  0  0  0  0  0  0  0
   23.7042  -24.5712  -14.0781 C   0  0  0  0  0  0  0  0  0  0  0  0
   22.4797  -24.5679  -13.5308 N   0  0  0  0  0  0  0  0  0  0  0  0
   21.6843  -23.9035  -14.4009 C   0  0  0  0  0  0  0  0  0  0  0  0
   22.3904  -23.5042  -15.4596 N   0  0  0  0  0  0  0  0  0  0  0  0
   27.1563  -23.9488  -16.6170 C   0  0  0  0  0  0  0  0  0  0  0  0
   28.1687  -24.8902  -16.6300 O   0  0  0  0  0  0  0  0  0  0  0  0
   27.1713  -23.0456  -17.4824 O   0  0  0  0  0  0  0  0  0  0  0  0
  2  3  1  0
  2  1  1  1
  4  5  2  0
  4  3  1  0
  6  5  1  0
  7 12  2  0
  7  6  1  0
  8  7  1  0
  9 10  1  0
  9  8  2  0
 10 11  2  0
 11 12  1  0
 12  4  1  0
 13  2  1  0
 14 13  2  0
 15 13  1  0
 16 15  1  0
 17 16  1  0
 18 19  1  0
 18 17  1  0
 19 15  1  0
 20 22  1  0
 19 20  1  1
 21 20  2  0
 23 22  1  0
 23 30  1  0
 23 24  1  6
 25 29  1  0
 25 24  1  0
 26 25  2  0
 27 26  1  0
 27 28  1  0
 28 29  2  0
 30 31  1  0
 32 30  2  0
M  END
$$$$
