WPH.pdb
     RDKit          3D

 32 35  0  0  1  0  0  0  0  0999 V2000
   24.6578  -19.5458  -16.1014 N   0  0  0  0  0  0  0  0  0  0  0  0
   25.8378  -19.2373  -15.2776 C   0  0  1  0  0  0  0  0  0  0  0  0
   25.6659  -17.7684  -14.9030 C   0  0  0  0  0  0  0  0  0  0  0  0
   24.3989  -17.2022  -15.4471 C   0  0  0  0  0  0  0  0  0  0  0  0
   23.1730  -17.8752  -15.3695 C   0  0  0  0  0  0  0  0  0  0  0  0
   22.2223  -17.1120  -15.8977 N   0  0  0  0  0  0  0  0  0  0  0  0
   22.7814  -15.9536  -16.3229 C   0  0  0  0  0  0  0  0  0  0  0  0
   22.2029  -14.8692  -16.9377 C   0  0  0  0  0  0  0  0  0  0  0  0
   23.0113  -13.8067  -17.2845 C   0  0  0  0  0  0  0  0  0  0  0  0
   24.3555  -13.8587  -17.0106 C   0  0  0  0  0  0  0  0  0  0  0  0
   24.9455  -14.9484  -16.3910 C   0  0  0  0  0  0  0  0  0  0  0  0
   24.1270  -16.0046  -16.0476 C   0  0  0  0  0  0  0  0  0  0  0  0
   25.8961  -20.1018  -14.0977 C   0  0  0  0  0  0  0  0  0  0  0  0
   24.7818  -20.6101  -13.7209 O   0  0  0  0  0  0  0  0  0  0  0  0
   27.0892  -20.4012  -13.3685 N   0  0  0  0  0  0  0  0  0  0  0  0
   28.3864  -19.9745  -13.7430 C   0  0  0  0  0  0  0  0  0  0  0  0
   29.2901  -20.4183  -12.6072 C   0  0  0  0  0  0  0  0  0  0  0  0
   28.5348  -21.6201  -12.0134 C   0  0  0  0  0  0  0  0  0  0  0  0
   27.1387  -21.1635  -12.1682 C   0  0  1  0  0  0  0  0  0  0  0  0
   26.5965  -20.4528  -10.9859 C   0  0  0  0  0  0  0  0  0  0  0  0
   26.9013  -19.2426  -10.8586 O   0  0  0  0  0  0  0  0  0  0  0  0
   25.7670  -21.0361   -9.9963 N   0  0  0  0  0  0  0  0  0  0  0  0
   25.5689  -20.4578   -8.6829 C   0  0  1  0  0  0  0  0  0  0  0  0
   24.4714  -21.2208   -7.9603 C   0  0  0  0  0  0  0  0  0  0  0  0
   23.2114  -21.2327   -8.7529 C   0  0  0  0  0  0  0  0  0  0  0  0
   23.0067  -20.6527   -9.9771 C   0  0  0  0  0  0  0  0  0  0  0  0
   21.7413  -20.8838  -10.3572 N   0  0  0  0  0  0  0  0  0  0  0  0
   21.1787  -21.6059   -9.3606 C   0  0  0  0  0  0  0  0  0  0  0  0
   22.0656  -21.8191   -8.3874 N   0  0  0  0  0  0  0  0  0  0  0  0
   26.7840  -20.5094   -7.8516 C   0  0  0  0  0  0  0  0  0  0  0  0
   26.8852  -19.6423   -6.7796 O   0  0  0  0  0  0  0  0  0  0  0  0
   27.7284  -21.3001   -8.0697 O   0  0  0  0  0  0  0  0  0  0  0  0
  2  3  1  0
  2  1  1  6
  4  5  2  0
  4  3  1  0
  6  5  1  0
  7 12  2  0
  7  6  1  0
  8  7  1  0
  9 10  1  0
  9  8  2  0
 10 11  2  0
 11 12  1  0
 12  4  1  0
 13  2  1  0
 14 13  2  0
 15 13  1  0
 16 15  1  0
 17 16  1  0
 18 19  1  0
 18 17  1  0
 19 15  1  0
 20 22  1  0
 19 20  1  1
 21 20  2  0
 23 22  1  0
 23 30  1  0
 23 24  1  1
 25 29  1  0
 25 24  1  0
 26 25  2  0
 27 26  1  0
 27 28  1  0
 28 29  2  0
 30 31  1  0
 32 30  2  0
M  END
$$$$
