VPP.pdb
     RDKit          3D

 22 23  0  0  1  0  0  0  0  0999 V2000
    9.7024  -21.4750    1.2145 C   0  0  0  0  0  0  0  0  0  0  0  0
   10.3413  -21.6828   -0.1203 C   0  0  2  0  0  0  0  0  0  0  0  0
    9.2759  -21.9742   -1.1863 C   0  0  0  0  0  0  0  0  0  0  0  0
   11.3714  -22.8070   -0.1076 C   0  0  2  0  0  0  0  0  0  0  0  0
   10.6871  -24.0683    0.2294 N   0  0  0  0  0  0  0  0  0  0  0  0
   12.4702  -22.5200    0.8317 C   0  0  0  0  0  0  0  0  0  0  0  0
   12.2479  -22.8838    2.0474 O   0  0  0  0  0  0  0  0  0  0  0  0
   13.6928  -21.9039    0.5038 N   0  0  0  0  0  0  0  0  0  0  0  0
   14.1168  -21.5127   -0.8243 C   0  0  0  0  0  0  0  0  0  0  0  0
   15.6309  -21.6746   -0.8047 C   0  0  0  0  0  0  0  0  0  0  0  0
   15.9549  -21.3291    0.6131 C   0  0  0  0  0  0  0  0  0  0  0  0
   14.7352  -21.5710    1.4542 C   0  0  1  0  0  0  0  0  0  0  0  0
   14.4400  -20.3424    2.2042 C   0  0  0  0  0  0  0  0  0  0  0  0
   13.6687  -19.4497    1.7909 O   0  0  0  0  0  0  0  0  0  0  0  0
   15.0927  -20.1816    3.4928 N   0  0  0  0  0  0  0  0  0  0  0  0
   15.9526  -21.1535    4.1267 C   0  0  0  0  0  0  0  0  0  0  0  0
   15.9591  -20.7757    5.6037 C   0  0  0  0  0  0  0  0  0  0  0  0
   15.7841  -19.2839    5.5592 C   0  0  0  0  0  0  0  0  0  0  0  0
   14.9868  -19.0317    4.3470 C   0  0  1  0  0  0  0  0  0  0  0  0
   15.3989  -17.7935    3.6216 C   0  0  0  0  0  0  0  0  0  0  0  0
   16.2239  -17.9192    2.6885 O   0  0  0  0  0  0  0  0  0  0  0  0
   14.9255  -16.5295    3.9197 O   0  0  0  0  0  0  0  0  0  0  0  0
  2  3  1  6
  2  1  1  0
  4  2  1  0
  4  6  1  0
  4  5  1  1
  6  8  1  0
  6  7  2  0
  8 12  1  0
  9  8  1  0
  9 10  1  0
 10 11  1  0
 12 11  1  0
 12 13  1  6
 13 15  1  0
 14 13  2  0
 15 19  1  0
 15 16  1  0
 16 17  1  0
 18 17  1  0
 19 20  1  6
 19 18  1  0
 20 22  1  0
 21 20  2  0
M  END
$$$$
