VPP.pdb
     RDKit          3D

 22 23  0  0  1  0  0  0  0  0999 V2000
   20.4862  -19.9005  -16.5835 C   0  0  0  0  0  0  0  0  0  0  0  0
   21.7110  -20.1451  -15.7631 C   0  0  2  0  0  0  0  0  0  0  0  0
   21.6794  -19.2961  -14.4845 C   0  0  0  0  0  0  0  0  0  0  0  0
   22.9969  -19.8619  -16.5320 C   0  0  2  0  0  0  0  0  0  0  0  0
   22.9864  -20.6548  -17.7746 N   0  0  0  0  0  0  0  0  0  0  0  0
   24.1882  -20.1531  -15.7146 C   0  0  0  0  0  0  0  0  0  0  0  0
   24.4431  -21.4067  -15.5621 O   0  0  0  0  0  0  0  0  0  0  0  0
   25.0301  -19.1957  -15.1174 N   0  0  0  0  0  0  0  0  0  0  0  0
   24.9612  -17.7631  -15.3162 C   0  0  0  0  0  0  0  0  0  0  0  0
   26.4027  -17.2899  -15.1848 C   0  0  0  0  0  0  0  0  0  0  0  0
   26.9457  -18.2476  -14.1737 C   0  0  0  0  0  0  0  0  0  0  0  0
   26.1172  -19.4989  -14.2080 C   0  0  1  0  0  0  0  0  0  0  0  0
   25.6471  -19.7795  -12.8444 C   0  0  0  0  0  0  0  0  0  0  0  0
   24.5376  -19.4060  -12.4061 O   0  0  0  0  0  0  0  0  0  0  0  0
   26.5392  -20.5335  -11.9797 N   0  0  0  0  0  0  0  0  0  0  0  0
   27.8565  -21.0056  -12.3373 C   0  0  0  0  0  0  0  0  0  0  0  0
   28.1579  -22.1289  -11.3518 C   0  0  0  0  0  0  0  0  0  0  0  0
   27.4116  -21.6929  -10.1226 C   0  0  0  0  0  0  0  0  0  0  0  0
   26.2556  -20.9346  -10.6300 C   0  0  1  0  0  0  0  0  0  0  0  0
   25.9152  -19.7508   -9.7862 C   0  0  0  0  0  0  0  0  0  0  0  0
   26.3856  -18.6428  -10.1303 O   0  0  0  0  0  0  0  0  0  0  0  0
   25.1183  -19.8091   -8.6582 O   0  0  0  0  0  0  0  0  0  0  0  0
  2  3  1  1
  2  1  1  0
  4  2  1  0
  4  6  1  0
  4  5  1  6
  6  8  1  0
  6  7  2  0
  8 12  1  0
  9  8  1  0
  9 10  1  0
 10 11  1  0
 12 11  1  0
 12 13  1  1
 13 15  1  0
 14 13  2  0
 15 19  1  0
 15 16  1  0
 16 17  1  0
 18 17  1  0
 19 20  1  1
 19 18  1  0
 20 22  1  0
 21 20  2  0
M  END
$$$$
