VPP.pdb
     RDKit          3D

 22 23  0  0  1  0  0  0  0  0999 V2000
   21.3128  -18.8757  -15.9674 C   0  0  0  0  0  0  0  0  0  0  0  0
   22.0243  -19.2800  -14.7170 C   0  0  2  0  0  0  0  0  0  0  0  0
   23.0214  -18.1932  -14.2910 C   0  0  0  0  0  0  0  0  0  0  0  0
   22.7523  -20.6119  -14.8621 C   0  0  2  0  0  0  0  0  0  0  0  0
   21.7882  -21.6273  -15.3225 N   0  0  0  0  0  0  0  0  0  0  0  0
   23.3984  -21.0126  -13.5995 C   0  0  0  0  0  0  0  0  0  0  0  0
   22.5825  -21.3035  -12.6460 O   0  0  0  0  0  0  0  0  0  0  0  0
   24.7859  -21.0970  -13.3762 N   0  0  0  0  0  0  0  0  0  0  0  0
   25.8204  -20.8467  -14.3580 C   0  0  0  0  0  0  0  0  0  0  0  0
   26.9574  -21.7784  -13.9601 C   0  0  0  0  0  0  0  0  0  0  0  0
   26.8199  -21.8070  -12.4720 C   0  0  0  0  0  0  0  0  0  0  0  0
   25.4027  -21.4626  -12.1166 C   0  0  1  0  0  0  0  0  0  0  0  0
   25.4241  -20.3494  -11.1577 C   0  0  0  0  0  0  0  0  0  0  0  0
   25.4548  -19.1466  -11.4967 O   0  0  0  0  0  0  0  0  0  0  0  0
   25.4081  -20.6930   -9.7456 N   0  0  0  0  0  0  0  0  0  0  0  0
   25.2525  -22.0236   -9.2058 C   0  0  0  0  0  0  0  0  0  0  0  0
   24.7916  -21.8180   -7.7672 C   0  0  0  0  0  0  0  0  0  0  0  0
   25.4523  -20.5205   -7.3956 C   0  0  0  0  0  0  0  0  0  0  0  0
   25.5414  -19.7656   -8.6570 C   0  0  1  0  0  0  0  0  0  0  0  0
   26.8050  -18.9804   -8.7820 C   0  0  0  0  0  0  0  0  0  0  0  0
   27.7290  -19.4791   -9.4636 O   0  0  0  0  0  0  0  0  0  0  0  0
   27.0097  -17.7465   -8.1934 O   0  0  0  0  0  0  0  0  0  0  0  0
  2  3  1  6
  2  1  1  0
  4  2  1  0
  4  6  1  0
  4  5  1  1
  6  8  1  0
  6  7  2  0
  8 12  1  0
  9  8  1  0
  9 10  1  0
 10 11  1  0
 12 11  1  0
 12 13  1  1
 13 15  1  0
 14 13  2  0
 15 19  1  0
 15 16  1  0
 16 17  1  0
 18 17  1  0
 19 20  1  6
 19 18  1  0
 20 22  1  0
 21 20  2  0
M  END
$$$$
