VPP.pdb
     RDKit          3D

 22 23  0  0  1  0  0  0  0  0999 V2000
   23.3800  -20.5519  -12.5345 C   0  0  0  0  0  0  0  0  0  0  0  0
   24.2232  -20.7328  -11.3141 C   0  0  2  0  0  0  0  0  0  0  0  0
   24.4437  -19.3871  -10.6093 C   0  0  0  0  0  0  0  0  0  0  0  0
   25.5716  -21.3737  -11.6238 C   0  0  2  0  0  0  0  0  0  0  0  0
   25.3376  -22.6326  -12.3540 N   0  0  0  0  0  0  0  0  0  0  0  0
   26.3557  -21.5982  -10.3962 C   0  0  0  0  0  0  0  0  0  0  0  0
   25.7753  -22.3364   -9.5142 O   0  0  0  0  0  0  0  0  0  0  0  0
   27.6402  -21.0843  -10.1352 N   0  0  0  0  0  0  0  0  0  0  0  0
   28.4557  -20.3270  -11.0614 C   0  0  0  0  0  0  0  0  0  0  0  0
   29.8880  -20.6956  -10.6982 C   0  0  0  0  0  0  0  0  0  0  0  0
   29.7830  -20.9030   -9.2216 C   0  0  0  0  0  0  0  0  0  0  0  0
   28.3599  -21.2443   -8.8873 C   0  0  1  0  0  0  0  0  0  0  0  0
   27.8941  -20.3166   -7.8473 C   0  0  0  0  0  0  0  0  0  0  0  0
   27.1677  -19.3264   -8.0805 O   0  0  0  0  0  0  0  0  0  0  0  0
   28.3149  -20.5879   -6.4829 N   0  0  0  0  0  0  0  0  0  0  0  0
   29.1029  -21.7203   -6.0556 C   0  0  0  0  0  0  0  0  0  0  0  0
   28.8457  -21.8417   -4.5578 C   0  0  0  0  0  0  0  0  0  0  0  0
   28.6093  -20.4145   -4.1511 C   0  0  0  0  0  0  0  0  0  0  0  0
   28.0137  -19.7760   -5.3370 C   0  0  1  0  0  0  0  0  0  0  0  0
   28.4810  -18.3733   -5.5442 C   0  0  0  0  0  0  0  0  0  0  0  0
   29.2987  -18.1685   -6.4697 O   0  0  0  0  0  0  0  0  0  0  0  0
   28.0657  -17.2993   -4.7794 O   0  0  0  0  0  0  0  0  0  0  0  0
  2  3  1  6
  2  1  1  0
  4  2  1  0
  4  6  1  0
  4  5  1  1
  6  8  1  0
  6  7  2  0
  8 12  1  0
  9  8  1  0
  9 10  1  0
 10 11  1  0
 12 11  1  0
 12 13  1  1
 13 15  1  0
 14 13  2  0
 15 19  1  0
 15 16  1  0
 16 17  1  0
 18 17  1  0
 19 20  1  6
 19 18  1  0
 20 22  1  0
 21 20  2  0
M  END
$$$$
