VPP.pdb
     RDKit          3D

 22 23  0  0  1  0  0  0  0  0999 V2000
   13.6215   -8.5667  -11.2058 C   0  0  0  0  0  0  0  0  0  0  0  0
   15.0038   -8.0835  -11.5040 C   0  0  2  0  0  0  0  0  0  0  0  0
   15.0381   -7.3539  -12.8542 C   0  0  0  0  0  0  0  0  0  0  0  0
   16.0302   -9.2110  -11.5069 C   0  0  2  0  0  0  0  0  0  0  0  0
   16.0549   -9.8283  -10.1686 N   0  0  0  0  0  0  0  0  0  0  0  0
   17.3638   -8.7240  -11.9026 C   0  0  0  0  0  0  0  0  0  0  0  0
   18.0084   -8.1057  -10.9742 O   0  0  0  0  0  0  0  0  0  0  0  0
   17.9550   -8.8838  -13.1703 N   0  0  0  0  0  0  0  0  0  0  0  0
   17.4043   -9.6419  -14.2742 C   0  0  0  0  0  0  0  0  0  0  0  0
   18.6225  -10.1766  -15.0152 C   0  0  0  0  0  0  0  0  0  0  0  0
   19.6124   -9.0763  -14.8058 C   0  0  0  0  0  0  0  0  0  0  0  0
   19.2278   -8.3168  -13.5694 C   0  0  1  0  0  0  0  0  0  0  0  0
   19.1243   -6.8924  -13.9155 C   0  0  0  0  0  0  0  0  0  0  0  0
   18.0688   -6.3535  -14.3130 O   0  0  0  0  0  0  0  0  0  0  0  0
   20.3283   -6.0899  -13.7793 N   0  0  0  0  0  0  0  0  0  0  0  0
   21.5988   -6.5587  -13.2772 C   0  0  0  0  0  0  0  0  0  0  0  0
   22.3467   -5.3008  -12.8503 C   0  0  0  0  0  0  0  0  0  0  0  0
   21.8249   -4.2697  -13.8109 C   0  0  0  0  0  0  0  0  0  0  0  0
   20.4505   -4.6998  -14.1190 C   0  0  1  0  0  0  0  0  0  0  0  0
   20.0691   -4.4672  -15.5436 C   0  0  0  0  0  0  0  0  0  0  0  0
   19.5889   -3.3490  -15.8371 O   0  0  0  0  0  0  0  0  0  0  0  0
   20.2150   -5.4077  -16.5462 O   0  0  0  0  0  0  0  0  0  0  0  0
  2  3  1  6
  2  1  1  0
  4  2  1  0
  4  6  1  0
  4  5  1  1
  6  8  1  0
  6  7  2  0
  8 12  1  0
  9  8  1  0
  9 10  1  0
 10 11  1  0
 12 11  1  0
 12 13  1  6
 13 15  1  0
 14 13  2  0
 15 19  1  0
 15 16  1  0
 16 17  1  0
 18 17  1  0
 19 20  1  6
 19 18  1  0
 20 22  1  0
 21 20  2  0
M  END
$$$$
