VPP.pdb
     RDKit          3D

 22 23  0  0  1  0  0  0  0  0999 V2000
   23.3572  -21.8433  -17.3022 C   0  0  0  0  0  0  0  0  0  0  0  0
   23.5297  -20.4494  -17.8126 C   0  0  2  0  0  0  0  0  0  0  0  0
   22.7750  -20.2649  -19.1365 C   0  0  0  0  0  0  0  0  0  0  0  0
   24.9949  -20.0731  -18.0036 C   0  0  2  0  0  0  0  0  0  0  0  0
   25.5900  -20.9871  -18.9952 N   0  0  0  0  0  0  0  0  0  0  0  0
   25.7304  -20.1069  -16.7269 C   0  0  0  0  0  0  0  0  0  0  0  0
   26.3968  -21.1896  -16.5181 O   0  0  0  0  0  0  0  0  0  0  0  0
   25.7541  -19.0803  -15.7638 N   0  0  0  0  0  0  0  0  0  0  0  0
   25.1308  -17.7799  -15.8940 C   0  0  0  0  0  0  0  0  0  0  0  0
   26.0339  -16.8430  -15.1029 C   0  0  0  0  0  0  0  0  0  0  0  0
   26.5183  -17.7397  -14.0094 C   0  0  0  0  0  0  0  0  0  0  0  0
   26.4233  -19.1617  -14.4807 C   0  0  1  0  0  0  0  0  0  0  0  0
   25.6505  -19.9258  -13.4916 C   0  0  0  0  0  0  0  0  0  0  0  0
   24.4212  -20.1322  -13.5859 O   0  0  0  0  0  0  0  0  0  0  0  0
   26.3787  -20.4589  -12.3525 N   0  0  0  0  0  0  0  0  0  0  0  0
   27.8057  -20.3676  -12.1494 C   0  0  0  0  0  0  0  0  0  0  0  0
   28.1365  -21.4690  -11.1486 C   0  0  0  0  0  0  0  0  0  0  0  0
   26.8829  -21.5472  -10.3238 C   0  0  0  0  0  0  0  0  0  0  0  0
   25.7988  -21.1657  -11.2447 C   0  0  1  0  0  0  0  0  0  0  0  0
   24.7361  -20.3456  -10.5912 C   0  0  0  0  0  0  0  0  0  0  0  0
   24.7943  -19.1036  -10.7373 O   0  0  0  0  0  0  0  0  0  0  0  0
   23.7025  -20.8753   -9.8415 O   0  0  0  0  0  0  0  0  0  0  0  0
  2  3  1  6
  2  1  1  0
  4  2  1  0
  4  6  1  0
  4  5  1  6
  6  8  1  0
  6  7  2  0
  8 12  1  0
  9  8  1  0
  9 10  1  0
 10 11  1  0
 12 11  1  0
 12 13  1  1
 13 15  1  0
 14 13  2  0
 15 19  1  0
 15 16  1  0
 16 17  1  0
 18 17  1  0
 19 20  1  1
 19 18  1  0
 20 22  1  0
 21 20  2  0
M  END
$$$$
