VPP.pdb
     RDKit          3D

 22 23  0  0  1  0  0  0  0  0999 V2000
   23.1050  -18.6833  -13.8432 C   0  0  0  0  0  0  0  0  0  0  0  0
   24.3050  -18.9833  -14.6816 C   0  0  2  0  0  0  0  0  0  0  0  0
   24.0725  -18.5363  -16.1317 C   0  0  0  0  0  0  0  0  0  0  0  0
   24.6818  -20.4606  -14.6572 C   0  0  2  0  0  0  0  0  0  0  0  0
   23.5484  -21.2440  -15.1808 N   0  0  0  0  0  0  0  0  0  0  0  0
   25.0608  -20.8972  -13.3015 C   0  0  0  0  0  0  0  0  0  0  0  0
   24.0753  -21.2741  -12.5623 O   0  0  0  0  0  0  0  0  0  0  0  0
   26.3696  -20.9304  -12.7838 N   0  0  0  0  0  0  0  0  0  0  0  0
   27.5780  -20.5989  -13.5094 C   0  0  0  0  0  0  0  0  0  0  0  0
   28.6474  -21.4952  -12.8995 C   0  0  0  0  0  0  0  0  0  0  0  0
   28.1929  -21.5862  -11.4783 C   0  0  0  0  0  0  0  0  0  0  0  0
   26.7170  -21.3167  -11.4308 C   0  0  1  0  0  0  0  0  0  0  0  0
   26.4747  -20.2408  -10.4597 C   0  0  0  0  0  0  0  0  0  0  0  0
   26.5922  -19.0263  -10.7313 O   0  0  0  0  0  0  0  0  0  0  0  0
   26.0783  -20.6375   -9.1189 N   0  0  0  0  0  0  0  0  0  0  0  0
   25.6460  -21.9584   -8.7262 C   0  0  0  0  0  0  0  0  0  0  0  0
   24.8772  -21.7552   -7.4255 C   0  0  0  0  0  0  0  0  0  0  0  0
   25.5719  -20.5691   -6.8183 C   0  0  0  0  0  0  0  0  0  0  0  0
   26.0490  -19.7803   -7.9667 C   0  0  1  0  0  0  0  0  0  0  0  0
   27.3865  -19.1584   -7.7353 C   0  0  0  0  0  0  0  0  0  0  0  0
   28.3853  -19.7451   -8.2098 O   0  0  0  0  0  0  0  0  0  0  0  0
   27.5814  -17.9833   -7.0338 O   0  0  0  0  0  0  0  0  0  0  0  0
  2  3  1  6
  2  1  1  0
  4  2  1  0
  4  6  1  0
  4  5  1  1
  6  8  1  0
  6  7  2  0
  8 12  1  0
  9  8  1  0
  9 10  1  0
 10 11  1  0
 12 11  1  0
 12 13  1  1
 13 15  1  0
 14 13  2  0
 15 19  1  0
 15 16  1  0
 16 17  1  0
 18 17  1  0
 19 20  1  1
 19 18  1  0
 20 22  1  0
 21 20  2  0
M  END
$$$$
