VPP.pdb
     RDKit          3D

 22 23  0  0  1  0  0  0  0  0999 V2000
   24.1160  -19.8094  -10.5389 C   0  0  0  0  0  0  0  0  0  0  0  0
   25.1553  -19.9135  -11.6075 C   0  0  2  0  0  0  0  0  0  0  0  0
   24.5287  -19.6851  -12.9902 C   0  0  0  0  0  0  0  0  0  0  0  0
   25.8799  -21.2550  -11.5909 C   0  0  2  0  0  0  0  0  0  0  0  0
   24.9030  -22.3210  -11.8771 N   0  0  0  0  0  0  0  0  0  0  0  0
   26.5657  -21.4805  -10.3060 C   0  0  0  0  0  0  0  0  0  0  0  0
   25.8495  -22.0654   -9.4090 O   0  0  0  0  0  0  0  0  0  0  0  0
   27.8927  -21.1175  -10.0071 N   0  0  0  0  0  0  0  0  0  0  0  0
   28.8442  -20.5411  -10.9339 C   0  0  0  0  0  0  0  0  0  0  0  0
   30.1964  -21.0622  -10.4657 C   0  0  0  0  0  0  0  0  0  0  0  0
   29.9945  -21.1452   -8.9870 C   0  0  0  0  0  0  0  0  0  0  0  0
   28.5245  -21.2760   -8.7124 C   0  0  1  0  0  0  0  0  0  0  0  0
   28.1358  -20.2222   -7.7648 C   0  0  0  0  0  0  0  0  0  0  0  0
   27.6377  -19.1299   -8.1133 O   0  0  0  0  0  0  0  0  0  0  0  0
   28.3526  -20.4900   -6.3529 N   0  0  0  0  0  0  0  0  0  0  0  0
   28.8168  -21.7390   -5.7957 C   0  0  0  0  0  0  0  0  0  0  0  0
   28.3982  -21.7010   -4.3303 C   0  0  0  0  0  0  0  0  0  0  0  0
   28.4571  -20.2335   -4.0126 C   0  0  0  0  0  0  0  0  0  0  0  0
   28.1380  -19.5577   -5.2816 C   0  0  1  0  0  0  0  0  0  0  0  0
   28.9310  -18.3113   -5.4974 C   0  0  0  0  0  0  0  0  0  0  0  0
   29.7864  -18.3229   -6.4114 O   0  0  0  0  0  0  0  0  0  0  0  0
   28.7754  -17.1575   -4.7523 O   0  0  0  0  0  0  0  0  0  0  0  0
  2  3  1  6
  2  1  1  0
  4  2  1  0
  4  6  1  0
  4  5  1  1
  6  8  1  0
  6  7  2  0
  8 12  1  0
  9  8  1  0
  9 10  1  0
 10 11  1  0
 12 11  1  0
 12 13  1  1
 13 15  1  0
 14 13  2  0
 15 19  1  0
 15 16  1  0
 16 17  1  0
 18 17  1  0
 19 20  1  6
 19 18  1  0
 20 22  1  0
 21 20  2  0
M  END
$$$$
