VPP.pdb
     RDKit          3D

 22 23  0  0  1  0  0  0  0  0999 V2000
   23.8246  -20.0758  -10.4953 C   0  0  0  0  0  0  0  0  0  0  0  0
   24.8422  -19.9954  -11.5867 C   0  0  2  0  0  0  0  0  0  0  0  0
   24.1585  -19.7742  -12.9433 C   0  0  0  0  0  0  0  0  0  0  0  0
   25.7251  -21.2365  -11.6566 C   0  0  2  0  0  0  0  0  0  0  0  0
   24.8838  -22.3930  -12.0137 N   0  0  0  0  0  0  0  0  0  0  0  0
   26.4414  -21.4599  -10.3880 C   0  0  0  0  0  0  0  0  0  0  0  0
   25.7786  -22.1244   -9.5055 O   0  0  0  0  0  0  0  0  0  0  0  0
   27.7441  -21.0171  -10.0900 N   0  0  0  0  0  0  0  0  0  0  0  0
   28.6321  -20.3204  -10.9970 C   0  0  0  0  0  0  0  0  0  0  0  0
   30.0279  -20.7656  -10.5816 C   0  0  0  0  0  0  0  0  0  0  0  0
   29.8626  -20.9467   -9.1071 C   0  0  0  0  0  0  0  0  0  0  0  0
   28.4120  -21.2013   -8.8169 C   0  0  1  0  0  0  0  0  0  0  0  0
   27.9667  -20.2344   -7.8039 C   0  0  0  0  0  0  0  0  0  0  0  0
   27.3358  -19.1903   -8.0764 O   0  0  0  0  0  0  0  0  0  0  0  0
   28.2900  -20.5323   -6.4186 N   0  0  0  0  0  0  0  0  0  0  0  0
   28.9207  -21.7418   -5.9438 C   0  0  0  0  0  0  0  0  0  0  0  0
   28.5825  -21.8104   -4.4589 C   0  0  0  0  0  0  0  0  0  0  0  0
   28.4951  -20.3596   -4.0772 C   0  0  0  0  0  0  0  0  0  0  0  0
   28.0327  -19.6742   -5.2960 C   0  0  1  0  0  0  0  0  0  0  0  0
   28.6688  -18.3380   -5.4940 C   0  0  0  0  0  0  0  0  0  0  0  0
   29.5026  -18.2279   -6.4212 O   0  0  0  0  0  0  0  0  0  0  0  0
   28.3915  -17.2276   -4.7189 O   0  0  0  0  0  0  0  0  0  0  0  0
  2  3  1  6
  2  1  1  0
  4  2  1  0
  4  6  1  0
  4  5  1  1
  6  8  1  0
  6  7  2  0
  8 12  1  0
  9  8  1  0
  9 10  1  0
 10 11  1  0
 12 11  1  0
 12 13  1  1
 13 15  1  0
 14 13  2  0
 15 19  1  0
 15 16  1  0
 16 17  1  0
 18 17  1  0
 19 20  1  6
 19 18  1  0
 20 22  1  0
 21 20  2  0
M  END
$$$$
