VPP.pdb
     RDKit          3D

 22 23  0  0  1  0  0  0  0  0999 V2000
   26.7256  -22.7838  -19.6647 C   0  0  0  0  0  0  0  0  0  0  0  0
   26.5722  -22.4199  -18.2235 C   0  0  2  0  0  0  0  0  0  0  0  0
   25.2298  -21.7136  -17.9877 C   0  0  0  0  0  0  0  0  0  0  0  0
   27.7086  -21.5378  -17.7182 C   0  0  2  0  0  0  0  0  0  0  0  0
   28.9882  -22.2169  -17.9905 N   0  0  0  0  0  0  0  0  0  0  0  0
   27.5544  -21.2290  -16.2854 C   0  0  0  0  0  0  0  0  0  0  0  0
   27.8631  -22.1946  -15.4904 O   0  0  0  0  0  0  0  0  0  0  0  0
   27.1135  -20.0034  -15.7509 N   0  0  0  0  0  0  0  0  0  0  0  0
   26.6980  -18.8451  -16.5140 C   0  0  0  0  0  0  0  0  0  0  0  0
   27.0940  -17.6561  -15.6488 C   0  0  0  0  0  0  0  0  0  0  0  0
   26.9063  -18.2067  -14.2718 C   0  0  0  0  0  0  0  0  0  0  0  0
   27.0160  -19.7024  -14.3365 C   0  0  1  0  0  0  0  0  0  0  0  0
   25.8139  -20.2810  -13.7206 C   0  0  0  0  0  0  0  0  0  0  0  0
   24.8105  -20.6434  -14.3723 O   0  0  0  0  0  0  0  0  0  0  0  0
   25.8178  -20.4291  -12.2748 N   0  0  0  0  0  0  0  0  0  0  0  0
   26.9086  -20.0759  -11.3965 C   0  0  0  0  0  0  0  0  0  0  0  0
   26.6587  -20.8632  -10.1152 C   0  0  0  0  0  0  0  0  0  0  0  0
   25.1590  -20.9488  -10.0726 C   0  0  0  0  0  0  0  0  0  0  0  0
   24.7393  -20.9532  -11.4842 C   0  0  1  0  0  0  0  0  0  0  0  0
   23.4834  -20.1825  -11.7246 C   0  0  0  0  0  0  0  0  0  0  0  0
   22.3974  -20.7797  -11.5479 O   0  0  0  0  0  0  0  0  0  0  0  0
   23.4529  -18.8604  -12.1271 O   0  0  0  0  0  0  0  0  0  0  0  0
  2  3  1  6
  2  1  1  0
  4  2  1  0
  4  6  1  0
  4  5  1  1
  6  8  1  0
  6  7  2  0
  8 12  1  0
  9  8  1  0
  9 10  1  0
 10 11  1  0
 12 11  1  0
 12 13  1  6
 13 15  1  0
 14 13  2  0
 15 19  1  0
 15 16  1  0
 16 17  1  0
 18 17  1  0
 19 20  1  1
 19 18  1  0
 20 22  1  0
 21 20  2  0
M  END
$$$$
