VPP.pdb
     RDKit          3D

 22 23  0  0  1  0  0  0  0  0999 V2000
   24.6290  -19.5437  -10.9188 C   0  0  0  0  0  0  0  0  0  0  0  0
   25.7414  -19.8638  -11.8639 C   0  0  2  0  0  0  0  0  0  0  0  0
   25.3085  -19.5983  -13.3126 C   0  0  0  0  0  0  0  0  0  0  0  0
   26.2258  -21.3036  -11.7317 C   0  0  2  0  0  0  0  0  0  0  0  0
   25.0973  -22.2078  -12.0176 N   0  0  0  0  0  0  0  0  0  0  0  0
   26.7988  -21.5586  -10.3980 C   0  0  0  0  0  0  0  0  0  0  0  0
   25.9715  -22.0512   -9.5420 O   0  0  0  0  0  0  0  0  0  0  0  0
   28.1308  -21.3126  -10.0143 N   0  0  0  0  0  0  0  0  0  0  0  0
   29.1950  -20.8593  -10.8853 C   0  0  0  0  0  0  0  0  0  0  0  0
   30.4552  -21.4899  -10.3079 C   0  0  0  0  0  0  0  0  0  0  0  0
   30.1449  -21.5048   -8.8458 C   0  0  0  0  0  0  0  0  0  0  0  0
   28.6538  -21.4873   -8.6739 C   0  0  1  0  0  0  0  0  0  0  0  0
   28.3040  -20.3710   -7.7846 C   0  0  0  0  0  0  0  0  0  0  0  0
   27.9490  -19.2454   -8.1965 O   0  0  0  0  0  0  0  0  0  0  0  0
   28.3834  -20.6155   -6.3542 N   0  0  0  0  0  0  0  0  0  0  0  0
   28.6723  -21.8872   -5.7334 C   0  0  0  0  0  0  0  0  0  0  0  0
   28.1491  -21.7617   -4.3070 C   0  0  0  0  0  0  0  0  0  0  0  0
   28.3346  -20.2985   -4.0194 C   0  0  0  0  0  0  0  0  0  0  0  0
   28.1849  -19.6336   -5.3249 C   0  0  1  0  0  0  0  0  0  0  0  0
   29.1164  -18.4810   -5.5058 C   0  0  0  0  0  0  0  0  0  0  0  0
   30.0606  -18.6240   -6.3153 O   0  0  0  0  0  0  0  0  0  0  0  0
   28.9961  -17.2776   -4.8365 O   0  0  0  0  0  0  0  0  0  0  0  0
  2  3  1  6
  2  1  1  0
  4  2  1  0
  4  6  1  0
  4  5  1  1
  6  8  1  0
  6  7  2  0
  8 12  1  0
  9  8  1  0
  9 10  1  0
 10 11  1  0
 12 11  1  0
 12 13  1  1
 13 15  1  0
 14 13  2  0
 15 19  1  0
 15 16  1  0
 16 17  1  0
 18 17  1  0
 19 20  1  6
 19 18  1  0
 20 22  1  0
 21 20  2  0
M  END
$$$$
