VPP.pdb
     RDKit          3D

 22 23  0  0  1  0  0  0  0  0999 V2000
   25.5622  -19.7689  -13.5587 C   0  0  0  0  0  0  0  0  0  0  0  0
   26.0744  -19.9273  -12.1639 C   0  0  2  0  0  0  0  0  0  0  0  0
   27.1703  -18.8924  -11.8732 C   0  0  0  0  0  0  0  0  0  0  0  0
   26.6111  -21.3286  -11.8929 C   0  0  2  0  0  0  0  0  0  0  0  0
   25.5602  -22.3073  -12.2251 N   0  0  0  0  0  0  0  0  0  0  0  0
   27.0620  -21.4719  -10.4970 C   0  0  0  0  0  0  0  0  0  0  0  0
   26.1240  -21.7285   -9.6521 O   0  0  0  0  0  0  0  0  0  0  0  0
   28.3903  -21.3542  -10.0455 N   0  0  0  0  0  0  0  0  0  0  0  0
   29.5393  -21.0290  -10.8643 C   0  0  0  0  0  0  0  0  0  0  0  0
   30.6966  -21.7719  -10.2101 C   0  0  0  0  0  0  0  0  0  0  0  0
   30.3102  -21.7251   -8.7669 C   0  0  0  0  0  0  0  0  0  0  0  0
   28.8217  -21.5533   -8.6763 C   0  0  1  0  0  0  0  0  0  0  0  0
   28.5419  -20.3893   -7.8242 C   0  0  0  0  0  0  0  0  0  0  0  0
   28.3897  -19.2303   -8.2671 O   0  0  0  0  0  0  0  0  0  0  0  0
   28.4415  -20.6260   -6.3938 N   0  0  0  0  0  0  0  0  0  0  0  0
   28.4935  -21.9177   -5.7498 C   0  0  0  0  0  0  0  0  0  0  0  0
   27.8488  -21.7078   -4.3843 C   0  0  0  0  0  0  0  0  0  0  0  0
   28.1972  -20.2790   -4.0757 C   0  0  0  0  0  0  0  0  0  0  0  0
   28.2715  -19.6149   -5.3880 C   0  0  1  0  0  0  0  0  0  0  0  0
   29.3618  -18.5983   -5.4695 C   0  0  0  0  0  0  0  0  0  0  0  0
   30.3912  -18.9067   -6.1117 O   0  0  0  0  0  0  0  0  0  0  0  0
   29.2991  -17.3488   -4.8815 O   0  0  0  0  0  0  0  0  0  0  0  0
  2  3  1  6
  2  1  1  0
  4  2  1  0
  4  6  1  0
  4  5  1  1
  6  8  1  0
  6  7  2  0
  8 12  1  0
  9  8  1  0
  9 10  1  0
 10 11  1  0
 12 11  1  0
 12 13  1  1
 13 15  1  0
 14 13  2  0
 15 19  1  0
 15 16  1  0
 16 17  1  0
 18 17  1  0
 19 20  1  1
 19 18  1  0
 20 22  1  0
 21 20  2  0
M  END
$$$$
