VPP.pdb
     RDKit          3D

 22 23  0  0  1  0  0  0  0  0999 V2000
   21.4556  -19.8846  -16.1766 C   0  0  0  0  0  0  0  0  0  0  0  0
   21.7496  -18.4572  -16.5071 C   0  0  2  0  0  0  0  0  0  0  0  0
   20.5994  -17.8461  -17.3195 C   0  0  0  0  0  0  0  0  0  0  0  0
   23.0586  -18.2908  -17.2712 C   0  0  2  0  0  0  0  0  0  0  0  0
   22.9609  -19.0351  -18.5397 N   0  0  0  0  0  0  0  0  0  0  0  0
   24.2110  -18.7385  -16.4688 C   0  0  0  0  0  0  0  0  0  0  0  0
   24.5979  -19.9437  -16.7083 O   0  0  0  0  0  0  0  0  0  0  0  0
   24.8884  -17.9707  -15.5024 N   0  0  0  0  0  0  0  0  0  0  0  0
   24.6619  -16.5685  -15.2212 C   0  0  0  0  0  0  0  0  0  0  0  0
   26.0235  -16.0413  -14.7886 C   0  0  0  0  0  0  0  0  0  0  0  0
   26.6063  -17.2337  -14.1008 C   0  0  0  0  0  0  0  0  0  0  0  0
   25.9385  -18.4672  -14.6355 C   0  0  1  0  0  0  0  0  0  0  0  0
   25.4122  -19.2369  -13.4998 C   0  0  0  0  0  0  0  0  0  0  0  0
   24.2299  -19.1588  -13.1015 O   0  0  0  0  0  0  0  0  0  0  0  0
   26.3368  -20.1295  -12.8211 N   0  0  0  0  0  0  0  0  0  0  0  0
   27.7382  -20.2848  -13.1341 C   0  0  0  0  0  0  0  0  0  0  0  0
   28.1306  -21.6345  -12.5439 C   0  0  0  0  0  0  0  0  0  0  0  0
   27.2223  -21.7454  -11.3519 C   0  0  0  0  0  0  0  0  0  0  0  0
   26.0073  -21.0046  -11.7308 C   0  0  1  0  0  0  0  0  0  0  0  0
   25.4115  -20.2370  -10.5973 C   0  0  0  0  0  0  0  0  0  0  0  0
   25.7495  -19.0382  -10.4715 O   0  0  0  0  0  0  0  0  0  0  0  0
   24.5169  -20.7704   -9.6884 O   0  0  0  0  0  0  0  0  0  0  0  0
  2  3  1  6
  2  1  1  0
  4  2  1  0
  4  6  1  0
  4  5  1  6
  6  8  1  0
  6  7  2  0
  8 12  1  0
  9  8  1  0
  9 10  1  0
 10 11  1  0
 12 11  1  0
 12 13  1  1
 13 15  1  0
 14 13  2  0
 15 19  1  0
 15 16  1  0
 16 17  1  0
 18 17  1  0
 19 20  1  1
 19 18  1  0
 20 22  1  0
 21 20  2  0
M  END
$$$$
