SRL.pdb
     RDKit          3D

 26 25  0  0  1  0  0  0  0  0999 V2000
   19.4164  -21.7798  -11.4829 O   0  0  0  0  0  0  0  0  0  0  0  0
   19.0028  -20.8291  -12.4112 C   0  0  0  0  0  0  0  0  0  0  0  0
   19.9614  -20.7922  -13.5795 C   0  0  2  0  0  0  0  0  0  0  0  0
   20.0386  -22.1163  -14.1593 N   0  0  0  0  0  0  0  0  0  0  0  0
   21.3340  -20.3862  -13.1213 C   0  0  0  0  0  0  0  0  0  0  0  0
   21.5058  -19.2776  -12.5457 O   0  0  0  0  0  0  0  0  0  0  0  0
   29.0677  -21.8835  -10.6841 N   0  0  0  0  0  0  0  0  0  0  0  0
   28.8198  -20.7250  -11.4489 C   0  0  0  0  0  0  0  0  0  0  0  0
   29.6765  -20.2064  -12.2519 N   0  0  0  0  0  0  0  0  0  0  0  0
   27.5502  -20.1112  -11.3125 N   0  0  0  0  0  0  0  0  0  0  0  0
   26.3625  -20.8801  -11.0700 C   0  0  0  0  0  0  0  0  0  0  0  0
   26.0267  -21.7603  -12.2758 C   0  0  0  0  0  0  0  0  0  0  0  0
   24.5398  -21.9574  -12.3856 C   0  0  0  0  0  0  0  0  0  0  0  0
   23.8069  -20.7246  -12.8693 C   0  0  2  0  0  0  0  0  0  0  0  0
   22.4729  -21.2118  -13.3105 N   0  0  0  0  0  0  0  0  0  0  0  0
   24.4564  -20.0478  -14.0065 C   0  0  0  0  0  0  0  0  0  0  0  0
   24.4399  -20.6509  -15.1307 O   0  0  0  0  0  0  0  0  0  0  0  0
   29.4876  -19.3414  -12.7864 C   0  0  0  0  0  0  0  0  0  0  0  0
   27.7426  -14.9948  -15.6500 C   0  0  2  0  0  0  0  0  0  0  0  0
   27.0192  -16.2974  -16.0544 C   0  0  0  0  0  0  0  0  0  0  0  0
   26.1158  -16.0047  -17.2350 C   0  0  0  0  0  0  0  0  0  0  0  0
   26.2828  -16.8599  -14.8720 C   0  0  2  0  0  0  0  0  0  0  0  0
   25.6939  -18.1875  -15.1883 N   0  0  0  0  0  0  0  0  0  0  0  0
   25.0957  -18.8016  -13.9977 C   0  0  0  0  0  0  0  0  0  0  0  0
   26.6738  -19.0818  -15.8049 O   0  0  0  0  0  0  0  0  0  0  0  0
   27.5548  -19.7850  -14.9401 O   0  0  0  0  0  0  0  0  0  0  0  0
  1  2  1  0
  3  2  1  0
  3  4  1  1
  5  3  1  0
  6  5  2  0
  7  8  1  0
  8 10  1  0
  8  9  2  0
 10 11  1  0
 11 12  1  0
 13 12  1  0
 14 13  1  6
 14 15  1  0
 15  5  1  0
 16 14  1  0
 16 17  2  0
 19 21  1  0
 19 18  1  6
 20 19  1  0
 22 21  1  6
 22 23  1  0
 23 16  1  0
 24 22  1  0
 25 24  1  0
 26 24  2  0
M  END
$$$$
