SRL.pdb
     RDKit          3D

 26 25  0  0  1  0  0  0  0  0999 V2000
   27.3004  -14.1685  -16.0514 O   0  0  0  0  0  0  0  0  0  0  0  0
   26.7949  -15.3099  -15.4365 C   0  0  0  0  0  0  0  0  0  0  0  0
   26.4781  -16.3624  -16.4743 C   0  0  2  0  0  0  0  0  0  0  0  0
   27.6276  -16.5227  -17.3394 N   0  0  0  0  0  0  0  0  0  0  0  0
   25.3019  -15.9406  -17.3094 C   0  0  0  0  0  0  0  0  0  0  0  0
   25.4652  -15.6338  -18.5215 O   0  0  0  0  0  0  0  0  0  0  0  0
   16.9831  -17.6167  -15.8415 N   0  0  0  0  0  0  0  0  0  0  0  0
   18.1844  -18.3050  -16.1091 C   0  0  0  0  0  0  0  0  0  0  0  0
   18.3538  -19.5561  -15.8770 N   0  0  0  0  0  0  0  0  0  0  0  0
   19.2542  -17.5607  -16.6649 N   0  0  0  0  0  0  0  0  0  0  0  0
   19.1282  -16.1608  -16.9559 C   0  0  0  0  0  0  0  0  0  0  0  0
   20.3477  -15.6519  -17.7274 C   0  0  0  0  0  0  0  0  0  0  0  0
   21.6166  -16.0251  -17.0116 C   0  0  0  0  0  0  0  0  0  0  0  0
   22.8626  -15.4909  -17.6847 C   0  0  2  0  0  0  0  0  0  0  0  0
   23.9847  -15.8698  -16.7853 N   0  0  0  0  0  0  0  0  0  0  0  0
   22.8730  -14.0264  -17.8527 C   0  0  0  0  0  0  0  0  0  0  0  0
   23.1414  -13.3231  -16.8225 O   0  0  0  0  0  0  0  0  0  0  0  0
   19.2305  -20.0528  -16.1099 C   0  0  0  0  0  0  0  0  0  0  0  0
   22.0974   -9.4224  -21.5711 C   0  0  1  0  0  0  0  0  0  0  0  0
   23.0646   -9.8392  -20.4420 C   0  0  0  0  0  0  0  0  0  0  0  0
   24.4078   -9.1820  -20.6861 C   0  0  0  0  0  0  0  0  0  0  0  0
   23.1448  -11.3374  -20.3665 C   0  0  2  0  0  0  0  0  0  0  0  0
   22.5768  -11.8417  -19.0888 N   0  0  0  0  0  0  0  0  0  0  0  0
   22.6221  -13.3068  -19.0279 C   0  0  0  0  0  0  0  0  0  0  0  0
   21.2175  -11.3482  -18.8680 O   0  0  0  0  0  0  0  0  0  0  0  0
   21.0719  -10.1150  -18.1776 O   0  0  0  0  0  0  0  0  0  0  0  0
  1  2  1  0
  3  2  1  0
  3  4  1  6
  5  3  1  0
  6  5  2  0
  7  8  1  0
  8 10  1  0
  8  9  2  0
 10 11  1  0
 11 12  1  0
 13 12  1  0
 14 13  1  1
 14 15  1  0
 15  5  1  0
 16 14  1  0
 16 17  2  0
 19 21  1  0
 19 18  1  1
 20 19  1  0
 22 21  1  1
 22 23  1  0
 23 16  1  0
 24 22  1  0
 25 24  1  0
 26 24  2  0
M  END
$$$$
