SRL.pdb
     RDKit          3D

 26 25  0  0  1  0  0  0  0  0999 V2000
   21.7464  -21.9405  -10.4773 O   0  0  0  0  0  0  0  0  0  0  0  0
   22.6883  -21.3410  -11.3078 C   0  0  0  0  0  0  0  0  0  0  0  0
   24.0090  -21.2078  -10.5846 C   0  0  2  0  0  0  0  0  0  0  0  0
   23.8091  -20.4062   -9.3959 N   0  0  0  0  0  0  0  0  0  0  0  0
   25.0222  -20.5258  -11.4606 C   0  0  0  0  0  0  0  0  0  0  0  0
   25.0058  -19.2714  -11.5870 O   0  0  0  0  0  0  0  0  0  0  0  0
   31.4436  -20.7376   -9.3067 N   0  0  0  0  0  0  0  0  0  0  0  0
   31.0886  -21.9590   -9.9156 C   0  0  0  0  0  0  0  0  0  0  0  0
   31.1414  -23.0934   -9.3173 N   0  0  0  0  0  0  0  0  0  0  0  0
   30.6515  -21.9150  -11.2625 N   0  0  0  0  0  0  0  0  0  0  0  0
   30.5619  -20.6788  -11.9866 C   0  0  0  0  0  0  0  0  0  0  0  0
   29.1174  -20.1759  -12.0311 C   0  0  0  0  0  0  0  0  0  0  0  0
   28.2786  -21.0616  -12.9106 C   0  0  0  0  0  0  0  0  0  0  0  0
   26.8827  -20.5248  -13.1433 C   0  0  2  0  0  0  0  0  0  0  0  0
   26.0204  -21.2446  -12.1688 N   0  0  0  0  0  0  0  0  0  0  0  0
   26.3625  -20.7737  -14.5000 C   0  0  0  0  0  0  0  0  0  0  0  0
   25.6513  -21.8194  -14.6691 O   0  0  0  0  0  0  0  0  0  0  0  0
   30.8558  -23.9775   -9.7717 C   0  0  0  0  0  0  0  0  0  0  0  0
   23.0048  -20.0473  -17.7130 C   0  0  1  0  0  0  0  0  0  0  0  0
   23.2004  -18.7795  -16.8537 C   0  0  0  0  0  0  0  0  0  0  0  0
   23.3762  -17.5903  -17.7759 C   0  0  0  0  0  0  0  0  0  0  0  0
   24.3558  -18.9740  -15.9135 C   0  0  1  0  0  0  0  0  0  0  0  0
   25.4910  -19.6533  -16.5914 N   0  0  0  0  0  0  0  0  0  0  0  0
   26.5579  -19.9839  -15.6402 C   0  0  0  0  0  0  0  0  0  0  0  0
   26.0084  -18.8609  -17.7070 O   0  0  0  0  0  0  0  0  0  0  0  0
   26.7723  -17.7053  -17.3914 O   0  0  0  0  0  0  0  0  0  0  0  0
  1  2  1  0
  3  2  1  0
  3  4  1  1
  5  3  1  0
  6  5  2  0
  7  8  1  0
  8 10  1  0
  8  9  2  0
 10 11  1  0
 11 12  1  0
 13 12  1  0
 14 13  1  6
 14 15  1  0
 15  5  1  0
 16 14  1  0
 16 17  2  0
 19 21  1  0
 19 18  1  1
 20 19  1  0
 22 21  1  1
 22 23  1  0
 23 16  1  0
 24 22  1  0
 25 24  1  0
 26 24  2  0
M  END
$$$$
