SRL.pdb
     RDKit          3D

 26 25  0  0  1  0  0  0  0  0999 V2000
   27.0731  -20.7045  -17.0031 O   0  0  0  0  0  0  0  0  0  0  0  0
   26.6205  -19.6432  -17.7811 C   0  0  0  0  0  0  0  0  0  0  0  0
   25.1125  -19.5595  -17.7195 C   0  0  2  0  0  0  0  0  0  0  0  0
   24.5549  -20.6805  -18.4462 N   0  0  0  0  0  0  0  0  0  0  0  0
   24.6297  -18.2858  -18.3546 C   0  0  0  0  0  0  0  0  0  0  0  0
   24.6707  -18.1493  -19.6074 O   0  0  0  0  0  0  0  0  0  0  0  0
   17.0557  -14.8421  -18.4198 N   0  0  0  0  0  0  0  0  0  0  0  0
   17.7513  -13.8840  -19.1859 C   0  0  0  0  0  0  0  0  0  0  0  0
   17.1746  -12.9435  -19.8419 N   0  0  0  0  0  0  0  0  0  0  0  0
   19.1644  -13.9782  -19.2233 N   0  0  0  0  0  0  0  0  0  0  0  0
   19.8728  -14.9911  -18.4935 C   0  0  0  0  0  0  0  0  0  0  0  0
   21.3791  -14.8909  -18.7431 C   0  0  0  0  0  0  0  0  0  0  0  0
   22.1011  -16.0237  -18.0668 C   0  0  0  0  0  0  0  0  0  0  0  0
   23.5973  -16.0002  -18.2940 C   0  0  2  0  0  0  0  0  0  0  0  0
   24.1174  -17.2037  -17.5921 N   0  0  0  0  0  0  0  0  0  0  0  0
   24.2696  -14.8103  -17.7413 C   0  0  0  0  0  0  0  0  0  0  0  0
   24.0559  -14.5374  -16.5135 O   0  0  0  0  0  0  0  0  0  0  0  0
   17.7015  -12.2337  -20.3786 C   0  0  0  0  0  0  0  0  0  0  0  0
   29.3717  -12.4113  -17.0737 C   0  0  1  0  0  0  0  0  0  0  0  0
   27.8542  -12.2991  -16.8122 C   0  0  0  0  0  0  0  0  0  0  0  0
   27.4782  -13.2693  -15.7108 C   0  0  0  0  0  0  0  0  0  0  0  0
   27.0981  -12.5329  -18.0891 C   0  0  2  0  0  0  0  0  0  0  0  0
   25.6429  -12.6902  -17.8302 N   0  0  0  0  0  0  0  0  0  0  0  0
   25.1298  -13.9340  -18.4151 C   0  0  0  0  0  0  0  0  0  0  0  0
   24.8806  -11.5341  -18.3015 O   0  0  0  0  0  0  0  0  0  0  0  0
   24.6583  -10.4757  -17.3801 O   0  0  0  0  0  0  0  0  0  0  0  0
  1  2  1  0
  3  2  1  0
  3  4  1  6
  5  3  1  0
  6  5  2  0
  7  8  1  0
  8 10  1  0
  8  9  2  0
 10 11  1  0
 11 12  1  0
 13 12  1  0
 14 13  1  1
 14 15  1  0
 15  5  1  0
 16 14  1  0
 16 17  2  0
 19 21  1  0
 19 18  1  1
 20 19  1  0
 22 21  1  1
 22 23  1  0
 23 16  1  0
 24 22  1  0
 25 24  1  0
 26 24  2  0
M  END
$$$$
