SRL.pdb
     RDKit          3D

 26 25  0  0  1  0  0  0  0  0999 V2000
   27.7610  -19.9679  -17.9560 O   0  0  0  0  0  0  0  0  0  0  0  0
   26.9096  -19.9216  -16.8563 C   0  0  0  0  0  0  0  0  0  0  0  0
   27.2770  -21.0054  -15.8686 C   0  0  2  0  0  0  0  0  0  0  0  0
   27.8474  -22.1209  -16.5936 N   0  0  0  0  0  0  0  0  0  0  0  0
   26.0563  -21.4827  -15.1329 C   0  0  0  0  0  0  0  0  0  0  0  0
   25.3702  -22.4332  -15.5973 O   0  0  0  0  0  0  0  0  0  0  0  0
   22.8870  -19.6663   -9.7040 N   0  0  0  0  0  0  0  0  0  0  0  0
   23.2106  -20.7013   -8.8026 C   0  0  0  0  0  0  0  0  0  0  0  0
   22.3796  -21.1933   -7.9569 N   0  0  0  0  0  0  0  0  0  0  0  0
   24.5298  -21.2162   -8.8452 N   0  0  0  0  0  0  0  0  0  0  0  0
   25.5350  -20.6464   -9.6968 C   0  0  0  0  0  0  0  0  0  0  0  0
   25.5197  -21.3072  -11.0769 C   0  0  0  0  0  0  0  0  0  0  0  0
   24.3650  -20.7947  -11.8929 C   0  0  0  0  0  0  0  0  0  0  0  0
   24.3435  -21.3369  -13.3058 C   0  0  2  0  0  0  0  0  0  0  0  0
   25.6298  -20.8999  -13.9110 N   0  0  0  0  0  0  0  0  0  0  0  0
   23.2385  -20.8167  -14.1315 C   0  0  0  0  0  0  0  0  0  0  0  0
   23.3585  -19.6306  -14.5859 O   0  0  0  0  0  0  0  0  0  0  0  0
   22.6287  -21.9642   -7.3141 C   0  0  0  0  0  0  0  0  0  0  0  0
   18.9331  -22.2636  -18.1982 C   0  0  1  0  0  0  0  0  0  0  0  0
   19.5911  -21.1783  -17.3190 C   0  0  0  0  0  0  0  0  0  0  0  0
   20.1398  -20.0906  -18.2198 C   0  0  0  0  0  0  0  0  0  0  0  0
   20.6377  -21.8004  -16.4390 C   0  0  2  0  0  0  0  0  0  0  0  0
   21.0112  -20.8911  -15.3241 N   0  0  0  0  0  0  0  0  0  0  0  0
   22.0574  -21.4826  -14.4827 C   0  0  0  0  0  0  0  0  0  0  0  0
   19.8477  -20.5078  -14.5244 O   0  0  0  0  0  0  0  0  0  0  0  0
   18.8851  -19.6583  -15.1331 O   0  0  0  0  0  0  0  0  0  0  0  0
  1  2  1  0
  3  2  1  0
  3  4  1  6
  5  3  1  0
  6  5  2  0
  7  8  1  0
  8 10  1  0
  8  9  2  0
 10 11  1  0
 11 12  1  0
 13 12  1  0
 14 13  1  1
 14 15  1  0
 15  5  1  0
 16 14  1  0
 16 17  2  0
 19 21  1  0
 19 18  1  1
 20 19  1  0
 22 21  1  6
 22 23  1  0
 23 16  1  0
 24 22  1  0
 25 24  1  0
 26 24  2  0
M  END
$$$$
