SRL.pdb
     RDKit          3D

 26 25  0  0  1  0  0  0  0  0999 V2000
   24.7341  -23.1273  -14.9366 O   0  0  0  0  0  0  0  0  0  0  0  0
   25.5856  -22.1396  -15.4222 C   0  0  0  0  0  0  0  0  0  0  0  0
   25.9122  -21.1503  -14.3269 C   0  0  2  0  0  0  0  0  0  0  0  0
   26.5705  -21.8539  -13.2465 N   0  0  0  0  0  0  0  0  0  0  0  0
   24.6557  -20.5195  -13.7957 C   0  0  0  0  0  0  0  0  0  0  0  0
   24.3897  -20.5804  -12.5647 O   0  0  0  0  0  0  0  0  0  0  0  0
   19.2450  -19.7445  -18.2647 N   0  0  0  0  0  0  0  0  0  0  0  0
   18.8138  -18.5637  -17.6257 C   0  0  0  0  0  0  0  0  0  0  0  0
   17.5791  -18.2666  -17.4390 N   0  0  0  0  0  0  0  0  0  0  0  0
   19.8106  -17.6659  -17.1702 N   0  0  0  0  0  0  0  0  0  0  0  0
   21.2054  -17.8985  -17.4171 C   0  0  0  0  0  0  0  0  0  0  0  0
   21.7661  -18.9370  -16.4432 C   0  0  0  0  0  0  0  0  0  0  0  0
   21.9372  -18.3368  -15.0749 C   0  0  0  0  0  0  0  0  0  0  0  0
   22.4681  -19.3188  -14.0528 C   0  0  2  0  0  0  0  0  0  0  0  0
   23.7326  -19.8422  -14.6347 N   0  0  0  0  0  0  0  0  0  0  0  0
   21.5687  -20.4570  -13.7904 C   0  0  0  0  0  0  0  0  0  0  0  0
   21.7145  -21.4951  -14.5175 O   0  0  0  0  0  0  0  0  0  0  0  0
   17.2806  -17.4147  -16.9341 C   0  0  0  0  0  0  0  0  0  0  0  0
   18.5982  -23.7001   -9.5965 C   0  0  2  0  0  0  0  0  0  0  0  0
   18.8461  -23.4127  -11.0931 C   0  0  0  0  0  0  0  0  0  0  0  0
   19.4913  -24.6314  -11.7211 C   0  0  0  0  0  0  0  0  0  0  0  0
   19.6691  -22.1650  -11.2432 C   0  0  2  0  0  0  0  0  0  0  0  0
   19.6819  -21.6968  -12.6540 N   0  0  0  0  0  0  0  0  0  0  0  0
   20.5608  -20.5340  -12.8208 C   0  0  0  0  0  0  0  0  0  0  0  0
   18.3329  -21.4104  -13.1420 O   0  0  0  0  0  0  0  0  0  0  0  0
   17.6520  -22.4479  -13.8338 O   0  0  0  0  0  0  0  0  0  0  0  0
  1  2  1  0
  3  2  1  0
  3  4  1  1
  5  3  1  0
  6  5  2  0
  7  8  1  0
  8 10  1  0
  8  9  2  0
 10 11  1  0
 11 12  1  0
 13 12  1  0
 14 13  1  6
 14 15  1  0
 15  5  1  0
 16 14  1  0
 16 17  2  0
 19 21  1  0
 19 18  1  6
 20 19  1  0
 22 21  1  6
 22 23  1  0
 23 16  1  0
 24 22  1  0
 25 24  1  0
 26 24  2  0
M  END
$$$$
