SRL.pdb
     RDKit          3D

 26 25  0  0  1  0  0  0  0  0999 V2000
   21.2962  -15.4236  -15.7194 O   0  0  0  0  0  0  0  0  0  0  0  0
   22.6496  -15.1013  -15.7487 C   0  0  0  0  0  0  0  0  0  0  0  0
   23.3877  -16.0410  -16.6746 C   0  0  2  0  0  0  0  0  0  0  0  0
   22.8584  -15.8855  -18.0130 N   0  0  0  0  0  0  0  0  0  0  0  0
   23.1922  -17.4671  -16.2422 C   0  0  0  0  0  0  0  0  0  0  0  0
   22.3220  -18.1847  -16.8059 O   0  0  0  0  0  0  0  0  0  0  0  0
   26.0443  -22.4013  -12.2362 N   0  0  0  0  0  0  0  0  0  0  0  0
   26.4787  -21.1780  -11.6853 C   0  0  0  0  0  0  0  0  0  0  0  0
   26.4118  -20.8980  -10.4344 N   0  0  0  0  0  0  0  0  0  0  0  0
   27.0166  -20.2153  -12.5747 N   0  0  0  0  0  0  0  0  0  0  0  0
   27.2582  -20.5170  -13.9571 C   0  0  0  0  0  0  0  0  0  0  0  0
   26.0634  -20.1089  -14.8217 C   0  0  0  0  0  0  0  0  0  0  0  0
   24.8448  -19.8934  -13.9672 C   0  0  0  0  0  0  0  0  0  0  0  0
   23.6350  -19.4377  -14.7542 C   0  0  2  0  0  0  0  0  0  0  0  0
   23.9596  -18.0581  -15.2046 N   0  0  0  0  0  0  0  0  0  0  0  0
   22.3895  -19.3909  -13.9668 C   0  0  0  0  0  0  0  0  0  0  0  0
   22.1096  -18.2915  -13.3831 O   0  0  0  0  0  0  0  0  0  0  0  0
   26.7412  -19.9979  -10.0460 C   0  0  0  0  0  0  0  0  0  0  0  0
   17.0607  -18.5063  -14.7808 C   0  0  1  0  0  0  0  0  0  0  0  0
   17.9825  -18.9842  -13.6381 C   0  0  0  0  0  0  0  0  0  0  0  0
   17.9680  -17.9448  -12.5358 C   0  0  0  0  0  0  0  0  0  0  0  0
   19.3589  -19.2579  -14.1741 C   0  0  2  0  0  0  0  0  0  0  0  0
   20.0933  -20.2138  -13.3043 N   0  0  0  0  0  0  0  0  0  0  0  0
   21.4633  -20.4256  -13.7845 C   0  0  0  0  0  0  0  0  0  0  0  0
   19.3802  -21.4842  -13.1723 O   0  0  0  0  0  0  0  0  0  0  0  0
   18.6358  -21.6974  -11.9811 O   0  0  0  0  0  0  0  0  0  0  0  0
  1  2  1  0
  3  2  1  0
  3  4  1  6
  5  3  1  0
  6  5  2  0
  7  8  1  0
  8 10  1  0
  8  9  2  0
 10 11  1  0
 11 12  1  0
 13 12  1  0
 14 13  1  1
 14 15  1  0
 15  5  1  0
 16 14  1  0
 16 17  2  0
 19 21  1  0
 19 18  1  1
 20 19  1  0
 22 21  1  1
 22 23  1  0
 23 16  1  0
 24 22  1  0
 25 24  1  0
 26 24  2  0
M  END
$$$$
