SRL.pdb
     RDKit          3D

 26 25  0  0  1  0  0  0  0  0999 V2000
   14.5570   -8.7510  -14.7537 O   0  0  0  0  0  0  0  0  0  0  0  0
   15.8692   -8.3897  -14.4637 C   0  0  0  0  0  0  0  0  0  0  0  0
   16.6854   -9.6181  -14.1323 C   0  0  2  0  0  0  0  0  0  0  0  0
   16.3774  -10.0295  -12.7790 N   0  0  0  0  0  0  0  0  0  0  0  0
   18.1545   -9.3133  -14.2204 C   0  0  0  0  0  0  0  0  0  0  0  0
   18.7692   -8.8693  -13.2130 O   0  0  0  0  0  0  0  0  0  0  0  0
   21.6005  -13.6189  -20.1360 N   0  0  0  0  0  0  0  0  0  0  0  0
   20.8094  -14.1737  -19.1089 C   0  0  0  0  0  0  0  0  0  0  0  0
   20.3430  -15.3692  -19.1378 N   0  0  0  0  0  0  0  0  0  0  0  0
   20.5224  -13.3536  -17.9898 N   0  0  0  0  0  0  0  0  0  0  0  0
   21.0264  -12.0135  -17.8874 C   0  0  0  0  0  0  0  0  0  0  0  0
   20.4585  -11.3097  -16.6531 C   0  0  0  0  0  0  0  0  0  0  0  0
   20.9363   -9.8850  -16.5932 C   0  0  0  0  0  0  0  0  0  0  0  0
   20.3294   -9.0977  -15.4519 C   0  0  2  0  0  0  0  0  0  0  0  0
   18.9001   -9.5065  -15.4126 N   0  0  0  0  0  0  0  0  0  0  0  0
   20.3920   -7.6358  -15.6312 C   0  0  0  0  0  0  0  0  0  0  0  0
   19.4576   -7.0906  -16.3075 O   0  0  0  0  0  0  0  0  0  0  0  0
   19.7772  -15.7659  -18.3684 C   0  0  0  0  0  0  0  0  0  0  0  0
   22.9791   -2.3469  -13.6826 C   0  0  1  0  0  0  0  0  0  0  0  0
   22.0653   -3.0841  -14.6852 C   0  0  0  0  0  0  0  0  0  0  0  0
   20.7007   -2.4258  -14.6732 C   0  0  0  0  0  0  0  0  0  0  0  0
   22.0181   -4.5480  -14.3510 C   0  0  2  0  0  0  0  0  0  0  0  0
   21.4217   -5.3335  -15.4631 N   0  0  0  0  0  0  0  0  0  0  0  0
   21.3694   -6.7629  -15.1365 C   0  0  0  0  0  0  0  0  0  0  0  0
   22.1270   -5.1080  -16.7247 O   0  0  0  0  0  0  0  0  0  0  0  0
   21.6400   -4.0773  -17.5727 O   0  0  0  0  0  0  0  0  0  0  0  0
  1  2  1  0
  3  2  1  0
  3  4  1  1
  5  3  1  0
  6  5  2  0
  7  8  1  0
  8 10  1  0
  8  9  2  0
 10 11  1  0
 11 12  1  0
 13 12  1  0
 14 13  1  6
 14 15  1  0
 15  5  1  0
 16 14  1  0
 16 17  2  0
 19 21  1  0
 19 18  1  6
 20 19  1  0
 22 21  1  1
 22 23  1  0
 23 16  1  0
 24 22  1  0
 25 24  1  0
 26 24  2  0
M  END
$$$$
