SQE.pdb
     RDKit          3D

 25 24  0  0  1  0  0  0  0  0999 V2000
    9.6411  -19.4668   19.9184 O   0  0  0  0  0  0  0  0  0  0  0  0
    8.3493  -18.9292   19.7340 C   0  0  0  0  0  0  0  0  0  0  0  0
    8.5593  -17.4556   19.3903 C   0  0  2  0  0  0  0  0  0  0  0  0
    9.2143  -17.4241   18.1057 N   0  0  0  0  0  0  0  0  0  0  0  0
    9.4021  -16.7825   20.3889 C   0  0  0  0  0  0  0  0  0  0  0  0
   10.6460  -16.6224   20.1744 O   0  0  0  0  0  0  0  0  0  0  0  0
    7.8920  -14.4137   26.0667 N   0  0  0  0  0  0  0  0  0  0  0  0
    7.0380  -15.1991   25.2530 C   0  0  0  0  0  0  0  0  0  0  0  0
    5.9202  -15.5309   25.7175 O   0  0  0  0  0  0  0  0  0  0  0  0
    7.5122  -15.5842   23.9006 C   0  0  0  0  0  0  0  0  0  0  0  0
    8.8393  -14.9388   23.6783 C   0  0  0  0  0  0  0  0  0  0  0  0
    9.6807  -15.6269   22.6317 C   0  0  2  0  0  0  0  0  0  0  0  0
    8.8901  -16.2857   21.6168 N   0  0  0  0  0  0  0  0  0  0  0  0
   10.6586  -16.5695   23.2421 C   0  0  0  0  0  0  0  0  0  0  0  0
   10.3231  -17.7568   23.4887 O   0  0  0  0  0  0  0  0  0  0  0  0
   11.9899  -16.2032   23.5751 N   0  0  0  0  0  0  0  0  0  0  0  0
   12.9786  -17.1835   24.0162 C   0  0  1  0  0  0  0  0  0  0  0  0
   14.3208  -16.9320   23.4493 C   0  0  0  0  0  0  0  0  0  0  0  0
   15.1545  -15.8591   24.0215 C   0  0  0  0  0  0  0  0  0  0  0  0
   16.4272  -15.5248   23.4376 C   0  0  0  0  0  0  0  0  0  0  0  0
   16.6284  -14.6481   22.6006 O   0  0  0  0  0  0  0  0  0  0  0  0
   12.9120  -17.4343   25.4503 C   0  0  0  0  0  0  0  0  0  0  0  0
   13.6304  -18.5035   26.0244 O   0  0  0  0  0  0  0  0  0  0  0  0
   17.5576  -16.2603   23.8522 O   0  0  0  0  0  0  0  0  0  0  0  0
   12.2296  -16.7429   26.2495 O   0  0  0  0  0  0  0  0  0  0  0  0
  2  1  1  0
  2  3  1  0
  3  5  1  0
  3  4  1  6
  5  6  2  0
  7  8  1  0
  8  9  2  0
 10  8  1  0
 10 11  1  0
 12 11  1  1
 13 12  1  0
 13  5  1  0
 14 16  1  0
 14 12  1  0
 15 14  2  0
 17 18  1  1
 17 16  1  0
 19 18  1  0
 20 24  1  0
 20 19  1  0
 21 20  2  0
 22 23  1  0
 22 17  1  0
 25 22  2  0
M  END
$$$$
