SQE.pdb
     RDKit          3D

 25 24  0  0  1  0  0  0  0  0999 V2000
   11.4783  -14.4950   16.7154 O   0  0  0  0  0  0  0  0  0  0  0  0
   12.4269  -15.4242   17.1938 C   0  0  0  0  0  0  0  0  0  0  0  0
   11.6357  -16.4328   18.0247 C   0  0  2  0  0  0  0  0  0  0  0  0
   10.4768  -16.7879   17.2429 N   0  0  0  0  0  0  0  0  0  0  0  0
   11.2063  -15.8580   19.3075 C   0  0  0  0  0  0  0  0  0  0  0  0
   12.0700  -15.5037   20.1720 O   0  0  0  0  0  0  0  0  0  0  0  0
    9.1739  -12.1466   18.6054 N   0  0  0  0  0  0  0  0  0  0  0  0
    8.1832  -13.0840   18.9905 C   0  0  0  0  0  0  0  0  0  0  0  0
    7.6485  -13.7805   18.0937 O   0  0  0  0  0  0  0  0  0  0  0  0
    7.8344  -13.1890   20.4290 C   0  0  0  0  0  0  0  0  0  0  0  0
    7.9481  -14.6233   20.8255 C   0  0  0  0  0  0  0  0  0  0  0  0
    9.3705  -15.1216   20.8982 C   0  0  2  0  0  0  0  0  0  0  0  0
    9.8400  -15.6703   19.6463 N   0  0  0  0  0  0  0  0  0  0  0  0
    9.5585  -16.0932   22.0109 C   0  0  0  0  0  0  0  0  0  0  0  0
    8.9752  -17.2076   21.9825 O   0  0  0  0  0  0  0  0  0  0  0  0
   10.3810  -15.8351   23.1398 N   0  0  0  0  0  0  0  0  0  0  0  0
   10.6311  -16.8435   24.1662 C   0  0  1  0  0  0  0  0  0  0  0  0
   12.0120  -17.3698   24.1216 C   0  0  0  0  0  0  0  0  0  0  0  0
   12.4193  -18.4054   25.0889 C   0  0  0  0  0  0  0  0  0  0  0  0
   13.7274  -19.0029   25.0208 C   0  0  0  0  0  0  0  0  0  0  0  0
   14.7979  -18.4037   25.0879 O   0  0  0  0  0  0  0  0  0  0  0  0
   10.1266  -16.4436   25.4737 C   0  0  0  0  0  0  0  0  0  0  0  0
    9.5977  -15.1514   25.6725 O   0  0  0  0  0  0  0  0  0  0  0  0
   13.8067  -20.4026   24.8628 O   0  0  0  0  0  0  0  0  0  0  0  0
   10.1311  -17.1936   26.4836 O   0  0  0  0  0  0  0  0  0  0  0  0
  2  1  1  0
  2  3  1  0
  3  5  1  0
  3  4  1  6
  5  6  2  0
  7  8  1  0
  8  9  2  0
 10  8  1  0
 10 11  1  0
 12 11  1  6
 13 12  1  0
 13  5  1  0
 14 16  1  0
 14 12  1  0
 15 14  2  0
 17 18  1  1
 17 16  1  0
 19 18  1  0
 20 24  1  0
 20 19  1  0
 21 20  2  0
 22 23  1  0
 22 17  1  0
 25 22  2  0
M  END
$$$$
