SQE.pdb
     RDKit          3D

 25 24  0  0  1  0  0  0  0  0999 V2000
    8.5057  -20.9016   19.4014 O   0  0  0  0  0  0  0  0  0  0  0  0
    7.2820  -20.2063   19.5055 C   0  0  0  0  0  0  0  0  0  0  0  0
    7.3996  -19.0167   18.5543 C   0  0  2  0  0  0  0  0  0  0  0  0
    7.7737  -19.5551   17.2696 N   0  0  0  0  0  0  0  0  0  0  0  0
    8.4233  -18.0632   19.0051 C   0  0  0  0  0  0  0  0  0  0  0  0
    9.5941  -18.0975   18.5083 O   0  0  0  0  0  0  0  0  0  0  0  0
    7.5878  -12.6031   21.7850 N   0  0  0  0  0  0  0  0  0  0  0  0
    7.5586  -12.8005   20.3819 C   0  0  0  0  0  0  0  0  0  0  0  0
    7.0285  -11.9120   19.6713 O   0  0  0  0  0  0  0  0  0  0  0  0
    8.1550  -14.0434   19.8331 C   0  0  0  0  0  0  0  0  0  0  0  0
    8.6361  -14.8675   20.9806 C   0  0  0  0  0  0  0  0  0  0  0  0
    9.1776  -16.2159   20.5741 C   0  0  2  0  0  0  0  0  0  0  0  0
    8.1711  -17.0758   19.9942 N   0  0  0  0  0  0  0  0  0  0  0  0
    9.8734  -16.8941   21.7025 C   0  0  0  0  0  0  0  0  0  0  0  0
    9.5303  -18.0529   22.0521 O   0  0  0  0  0  0  0  0  0  0  0  0
   10.9349  -16.2978   22.4342 N   0  0  0  0  0  0  0  0  0  0  0  0
   12.0396  -17.0821   22.9796 C   0  0  1  0  0  0  0  0  0  0  0  0
   12.5084  -18.1292   22.0470 C   0  0  0  0  0  0  0  0  0  0  0  0
   12.1939  -19.5410   22.3328 C   0  0  0  0  0  0  0  0  0  0  0  0
   12.8596  -20.6020   21.6229 C   0  0  0  0  0  0  0  0  0  0  0  0
   12.3649  -21.6830   21.3128 O   0  0  0  0  0  0  0  0  0  0  0  0
   13.0648  -16.2474   23.5930 C   0  0  0  0  0  0  0  0  0  0  0  0
   13.6287  -16.6030   24.8358 O   0  0  0  0  0  0  0  0  0  0  0  0
   14.2025  -20.3996   21.2405 O   0  0  0  0  0  0  0  0  0  0  0  0
   13.5010  -15.1854   23.0787 O   0  0  0  0  0  0  0  0  0  0  0  0
  2  1  1  0
  2  3  1  0
  3  5  1  0
  3  4  1  6
  5  6  2  0
  7  8  1  0
  8  9  2  0
 10  8  1  0
 10 11  1  0
 12 11  1  1
 13 12  1  0
 13  5  1  0
 14 16  1  0
 14 12  1  0
 15 14  2  0
 17 18  1  6
 17 16  1  0
 19 18  1  0
 20 24  1  0
 20 19  1  0
 21 20  2  0
 22 23  1  0
 22 17  1  0
 25 22  2  0
M  END
$$$$
