SQE.pdb
     RDKit          3D

 25 24  0  0  1  0  0  0  0  0999 V2000
    7.8004  -16.2352   20.0894 O   0  0  0  0  0  0  0  0  0  0  0  0
    8.0901  -15.1845   19.1927 C   0  0  0  0  0  0  0  0  0  0  0  0
    7.5271  -13.9205   19.8403 C   0  0  2  0  0  0  0  0  0  0  0  0
    7.9161  -12.8190   18.9944 N   0  0  0  0  0  0  0  0  0  0  0  0
    8.0687  -13.7182   21.1916 C   0  0  0  0  0  0  0  0  0  0  0  0
    9.2434  -13.2551   21.3484 O   0  0  0  0  0  0  0  0  0  0  0  0
    5.1265  -12.4246   26.3858 N   0  0  0  0  0  0  0  0  0  0  0  0
    6.3672  -12.7753   26.9741 C   0  0  0  0  0  0  0  0  0  0  0  0
    6.5226  -12.5560   28.2001 O   0  0  0  0  0  0  0  0  0  0  0  0
    7.4104  -13.3806   26.1097 C   0  0  0  0  0  0  0  0  0  0  0  0
    6.8772  -13.4364   24.7169 C   0  0  0  0  0  0  0  0  0  0  0  0
    7.8665  -13.9684   23.7095 C   0  0  2  0  0  0  0  0  0  0  0  0
    7.3319  -14.0198   22.3676 N   0  0  0  0  0  0  0  0  0  0  0  0
    8.4119  -15.2925   24.1179 C   0  0  0  0  0  0  0  0  0  0  0  0
    7.6945  -16.3231   24.0400 O   0  0  0  0  0  0  0  0  0  0  0  0
    9.7335  -15.4736   24.6059 N   0  0  0  0  0  0  0  0  0  0  0  0
   10.2483  -16.7861   24.9870 C   0  0  1  0  0  0  0  0  0  0  0  0
   11.4896  -17.1411   24.2664 C   0  0  0  0  0  0  0  0  0  0  0  0
   12.6036  -16.1758   24.2330 C   0  0  0  0  0  0  0  0  0  0  0  0
   13.8350  -16.4956   23.5589 C   0  0  0  0  0  0  0  0  0  0  0  0
   14.7654  -17.1468   24.0278 O   0  0  0  0  0  0  0  0  0  0  0  0
   10.2519  -16.9846   26.4308 C   0  0  0  0  0  0  0  0  0  0  0  0
   10.6409  -18.2229   26.9824 O   0  0  0  0  0  0  0  0  0  0  0  0
   14.0064  -16.0269   22.2392 O   0  0  0  0  0  0  0  0  0  0  0  0
    9.9155  -16.0991   27.2585 O   0  0  0  0  0  0  0  0  0  0  0  0
  2  1  1  0
  2  3  1  0
  3  5  1  0
  3  4  1  6
  5  6  2  0
  7  8  1  0
  8  9  2  0
 10  8  1  0
 10 11  1  0
 12 11  1  1
 13 12  1  0
 13  5  1  0
 14 16  1  0
 14 12  1  0
 15 14  2  0
 17 18  1  1
 17 16  1  0
 19 18  1  0
 20 24  1  0
 20 19  1  0
 21 20  2  0
 22 23  1  0
 22 17  1  0
 25 22  2  0
M  END
$$$$
