SQE.pdb
     RDKit          3D

 25 24  0  0  1  0  0  0  0  0999 V2000
    7.6515  -14.0440   21.1672 O   0  0  0  0  0  0  0  0  0  0  0  0
    8.0591  -12.8582   20.5195 C   0  0  0  0  0  0  0  0  0  0  0  0
    8.4361  -13.2715   19.0979 C   0  0  2  0  0  0  0  0  0  0  0  0
    7.2616  -13.8805   18.5235 N   0  0  0  0  0  0  0  0  0  0  0  0
    9.5440  -14.2374   19.0917 C   0  0  0  0  0  0  0  0  0  0  0  0
    9.3266  -15.4602   18.8152 O   0  0  0  0  0  0  0  0  0  0  0  0
   16.2467  -13.8694   17.9048 N   0  0  0  0  0  0  0  0  0  0  0  0
   15.2396  -14.7186   17.3821 C   0  0  0  0  0  0  0  0  0  0  0  0
   15.2418  -14.9474   16.1481 O   0  0  0  0  0  0  0  0  0  0  0  0
   14.2416  -15.2881   18.3210 C   0  0  0  0  0  0  0  0  0  0  0  0
   13.0949  -14.3366   18.4051 C   0  0  0  0  0  0  0  0  0  0  0  0
   12.0101  -14.7768   19.3571 C   0  0  2  0  0  0  0  0  0  0  0  0
   10.8842  -13.8711   19.3859 N   0  0  0  0  0  0  0  0  0  0  0  0
   12.5413  -15.0120   20.7282 C   0  0  0  0  0  0  0  0  0  0  0  0
   12.8797  -14.0392   21.4506 O   0  0  0  0  0  0  0  0  0  0  0  0
   12.6958  -16.3064   21.2922 N   0  0  0  0  0  0  0  0  0  0  0  0
   13.2459  -16.5109   22.6296 C   0  0  1  0  0  0  0  0  0  0  0  0
   12.8289  -17.7984   23.2251 C   0  0  0  0  0  0  0  0  0  0  0  0
   11.3992  -18.0373   23.4947 C   0  0  0  0  0  0  0  0  0  0  0  0
   10.9467  -19.3095   23.9943 C   0  0  0  0  0  0  0  0  0  0  0  0
   10.1060  -20.0335   23.4665 O   0  0  0  0  0  0  0  0  0  0  0  0
   14.6648  -16.1866   22.7032 C   0  0  0  0  0  0  0  0  0  0  0  0
   15.2358  -15.7417   23.9135 O   0  0  0  0  0  0  0  0  0  0  0  0
   11.5088  -19.7840   25.1983 O   0  0  0  0  0  0  0  0  0  0  0  0
   15.4526  -16.2723   21.7262 O   0  0  0  0  0  0  0  0  0  0  0  0
  2  1  1  0
  2  3  1  0
  3  5  1  0
  3  4  1  1
  5  6  2  0
  7  8  1  0
  8  9  2  0
 10  8  1  0
 10 11  1  0
 12 11  1  6
 13 12  1  0
 13  5  1  0
 14 16  1  0
 14 12  1  0
 15 14  2  0
 17 18  1  6
 17 16  1  0
 19 18  1  0
 20 24  1  0
 20 19  1  0
 21 20  2  0
 22 23  1  0
 22 17  1  0
 25 22  2  0
M  END
$$$$
