SQE.pdb
     RDKit          3D

 25 24  0  0  1  0  0  0  0  0999 V2000
    8.6244  -19.4004   18.4833 O   0  0  0  0  0  0  0  0  0  0  0  0
    8.8523  -19.3463   19.8751 C   0  0  0  0  0  0  0  0  0  0  0  0
    7.5114  -18.9645   20.4996 C   0  0  2  0  0  0  0  0  0  0  0  0
    7.2140  -17.6282   20.0456 N   0  0  0  0  0  0  0  0  0  0  0  0
    7.5743  -18.9825   21.9680 C   0  0  0  0  0  0  0  0  0  0  0  0
    7.8852  -17.9283   22.6091 O   0  0  0  0  0  0  0  0  0  0  0  0
    5.0396  -23.3270   25.6149 N   0  0  0  0  0  0  0  0  0  0  0  0
    5.5899  -22.5076   26.6318 C   0  0  0  0  0  0  0  0  0  0  0  0
    5.3659  -22.8188   27.8270 O   0  0  0  0  0  0  0  0  0  0  0  0
    6.3980  -21.3306   26.2276 C   0  0  0  0  0  0  0  0  0  0  0  0
    6.4101  -21.2722   24.7364 C   0  0  0  0  0  0  0  0  0  0  0  0
    7.3177  -20.2035   24.1785 C   0  0  2  0  0  0  0  0  0  0  0  0
    7.2991  -20.1459   22.7345 N   0  0  0  0  0  0  0  0  0  0  0  0
    8.7096  -20.3398   24.6896 C   0  0  0  0  0  0  0  0  0  0  0  0
    9.5409  -21.0578   24.0762 O   0  0  0  0  0  0  0  0  0  0  0  0
    9.1754  -19.6902   25.8637 N   0  0  0  0  0  0  0  0  0  0  0  0
   10.5726  -19.7528   26.2845 C   0  0  1  0  0  0  0  0  0  0  0  0
   11.4995  -19.2312   25.2575 C   0  0  0  0  0  0  0  0  0  0  0  0
   11.2213  -17.9246   24.6337 C   0  0  0  0  0  0  0  0  0  0  0  0
   12.1343  -17.3563   23.6765 C   0  0  0  0  0  0  0  0  0  0  0  0
   13.1799  -17.8692   23.2852 O   0  0  0  0  0  0  0  0  0  0  0  0
   10.7660  -19.2684   27.6453 C   0  0  0  0  0  0  0  0  0  0  0  0
    9.6712  -18.8006   28.4013 O   0  0  0  0  0  0  0  0  0  0  0  0
   11.8157  -16.0964   23.1272 O   0  0  0  0  0  0  0  0  0  0  0  0
   11.8840  -19.2295   28.2208 O   0  0  0  0  0  0  0  0  0  0  0  0
  2  1  1  0
  2  3  1  0
  3  5  1  0
  3  4  1  1
  5  6  2  0
  7  8  1  0
  8  9  2  0
 10  8  1  0
 10 11  1  0
 12 11  1  6
 13 12  1  0
 13  5  1  0
 14 16  1  0
 14 12  1  0
 15 14  2  0
 17 18  1  6
 17 16  1  0
 19 18  1  0
 20 24  1  0
 20 19  1  0
 21 20  2  0
 22 23  1  0
 22 17  1  0
 25 22  2  0
M  END
$$$$
