SQE.pdb
     RDKit          3D

 25 24  0  0  1  0  0  0  0  0999 V2000
    9.1045  -15.1458   17.4309 O   0  0  0  0  0  0  0  0  0  0  0  0
    7.7777  -15.0805   17.9076 C   0  0  0  0  0  0  0  0  0  0  0  0
    7.6901  -13.7846   18.7117 C   0  0  2  0  0  0  0  0  0  0  0  0
    7.9708  -12.7111   17.7903 N   0  0  0  0  0  0  0  0  0  0  0  0
    8.6695  -13.7611   19.8074 C   0  0  0  0  0  0  0  0  0  0  0  0
    9.7961  -13.1917   19.6478 O   0  0  0  0  0  0  0  0  0  0  0  0
    7.6241  -15.0245   25.8633 N   0  0  0  0  0  0  0  0  0  0  0  0
    7.4538  -16.0971   24.9529 C   0  0  0  0  0  0  0  0  0  0  0  0
    6.8429  -17.1186   25.3512 O   0  0  0  0  0  0  0  0  0  0  0  0
    8.0060  -15.9526   23.5832 C   0  0  0  0  0  0  0  0  0  0  0  0
    8.6991  -14.6333   23.5042 C   0  0  0  0  0  0  0  0  0  0  0  0
    9.3590  -14.3735   22.1723 C   0  0  2  0  0  0  0  0  0  0  0  0
    8.4212  -14.3563   21.0727 N   0  0  0  0  0  0  0  0  0  0  0  0
   10.4703  -15.3297   21.9114 C   0  0  0  0  0  0  0  0  0  0  0  0
   10.2266  -16.4663   21.4301 O   0  0  0  0  0  0  0  0  0  0  0  0
   11.8330  -15.0320   22.1793 N   0  0  0  0  0  0  0  0  0  0  0  0
   12.8965  -16.0131   21.9810 C   0  0  1  0  0  0  0  0  0  0  0  0
   14.0532  -15.4573   21.2467 C   0  0  0  0  0  0  0  0  0  0  0  0
   13.8441  -14.8753   19.9083 C   0  0  0  0  0  0  0  0  0  0  0  0
   14.9492  -14.3381   19.1581 C   0  0  0  0  0  0  0  0  0  0  0  0
   16.0801  -14.1290   19.5904 O   0  0  0  0  0  0  0  0  0  0  0  0
   13.1930  -16.7650   23.1938 C   0  0  0  0  0  0  0  0  0  0  0  0
   12.5236  -16.4715   24.3999 O   0  0  0  0  0  0  0  0  0  0  0  0
   14.7323  -14.0165   17.8016 O   0  0  0  0  0  0  0  0  0  0  0  0
   14.0405  -17.6930   23.2509 O   0  0  0  0  0  0  0  0  0  0  0  0
  2  1  1  0
  2  3  1  0
  3  5  1  0
  3  4  1  6
  5  6  2  0
  7  8  1  0
  8  9  2  0
 10  8  1  0
 10 11  1  0
 12 11  1  1
 13 12  1  0
 13  5  1  0
 14 16  1  0
 14 12  1  0
 15 14  2  0
 17 18  1  1
 17 16  1  0
 19 18  1  0
 20 24  1  0
 20 19  1  0
 21 20  2  0
 22 23  1  0
 22 17  1  0
 25 22  2  0
M  END
$$$$
