SQE.pdb
     RDKit          3D

 25 24  0  0  1  0  0  0  0  0999 V2000
    6.3688  -18.6279   23.5468 O   0  0  0  0  0  0  0  0  0  0  0  0
    5.0527  -18.3018   23.1551 C   0  0  0  0  0  0  0  0  0  0  0  0
    5.1027  -18.1305   21.6380 C   0  0  2  0  0  0  0  0  0  0  0  0
    5.2005  -19.4565   21.0791 N   0  0  0  0  0  0  0  0  0  0  0  0
    6.2661  -17.3343   21.2220 C   0  0  0  0  0  0  0  0  0  0  0  0
    7.3077  -17.9091   20.7708 O   0  0  0  0  0  0  0  0  0  0  0  0
    7.3079  -13.6491   17.8400 N   0  0  0  0  0  0  0  0  0  0  0  0
    8.3809  -13.1426   18.6149 C   0  0  0  0  0  0  0  0  0  0  0  0
    9.4893  -12.9742   18.0505 O   0  0  0  0  0  0  0  0  0  0  0  0
    8.1343  -12.8405   20.0466 C   0  0  0  0  0  0  0  0  0  0  0  0
    6.9994  -13.6932   20.5071 C   0  0  0  0  0  0  0  0  0  0  0  0
    7.4104  -15.0922   20.8952 C   0  0  2  0  0  0  0  0  0  0  0  0
    6.2934  -15.9164   21.2976 N   0  0  0  0  0  0  0  0  0  0  0  0
    8.4724  -15.0858   21.9390 C   0  0  0  0  0  0  0  0  0  0  0  0
    8.1862  -14.8006   23.1304 O   0  0  0  0  0  0  0  0  0  0  0  0
    9.8329  -15.3909   21.6678 N   0  0  0  0  0  0  0  0  0  0  0  0
   10.7845  -15.7092   22.7289 C   0  0  1  0  0  0  0  0  0  0  0  0
   10.2457  -16.6826   23.7027 C   0  0  0  0  0  0  0  0  0  0  0  0
   11.0937  -17.1215   24.8261 C   0  0  0  0  0  0  0  0  0  0  0  0
   10.5772  -18.0085   25.8358 C   0  0  0  0  0  0  0  0  0  0  0  0
    9.4507  -18.4984   25.8570 O   0  0  0  0  0  0  0  0  0  0  0  0
   12.1230  -15.9718   22.2155 C   0  0  0  0  0  0  0  0  0  0  0  0
   13.2394  -15.9393   23.0766 O   0  0  0  0  0  0  0  0  0  0  0  0
   11.4279  -18.3579   26.9057 O   0  0  0  0  0  0  0  0  0  0  0  0
   12.3701  -16.2322   21.0098 O   0  0  0  0  0  0  0  0  0  0  0  0
  2  1  1  0
  2  3  1  0
  3  5  1  0
  3  4  1  6
  5  6  2  0
  7  8  1  0
  8  9  2  0
 10  8  1  0
 10 11  1  0
 12 11  1  1
 13 12  1  0
 13  5  1  0
 14 16  1  0
 14 12  1  0
 15 14  2  0
 17 18  1  6
 17 16  1  0
 19 18  1  0
 20 24  1  0
 20 19  1  0
 21 20  2  0
 22 23  1  0
 22 17  1  0
 25 22  2  0
M  END
$$$$
