SQE.pdb
     RDKit          3D

 25 24  0  0  1  0  0  0  0  0999 V2000
   10.7405  -18.1374   14.1344 O   0  0  0  0  0  0  0  0  0  0  0  0
    9.4126  -17.6595   14.1141 C   0  0  0  0  0  0  0  0  0  0  0  0
    9.5207  -16.1429   13.9659 C   0  0  2  0  0  0  0  0  0  0  0  0
   10.4723  -15.9015   12.9093 N   0  0  0  0  0  0  0  0  0  0  0  0
    9.9921  -15.5108   15.2063 C   0  0  0  0  0  0  0  0  0  0  0  0
   11.2378  -15.3535   15.4120 O   0  0  0  0  0  0  0  0  0  0  0  0
    7.2459  -11.6642   20.4872 N   0  0  0  0  0  0  0  0  0  0  0  0
    7.5539  -13.0427   20.3715 C   0  0  0  0  0  0  0  0  0  0  0  0
    6.7701  -13.8693   20.8984 O   0  0  0  0  0  0  0  0  0  0  0  0
    8.7827  -13.4304   19.6356 C   0  0  0  0  0  0  0  0  0  0  0  0
    8.3674  -14.0625   18.3491 C   0  0  0  0  0  0  0  0  0  0  0  0
    9.5253  -14.5163   17.4946 C   0  0  2  0  0  0  0  0  0  0  0  0
    9.1081  -15.0519   16.2186 N   0  0  0  0  0  0  0  0  0  0  0  0
   10.4003  -15.4800   18.2177 C   0  0  0  0  0  0  0  0  0  0  0  0
   10.9531  -16.4227   17.5945 O   0  0  0  0  0  0  0  0  0  0  0  0
   10.6601  -15.4014   19.6120 N   0  0  0  0  0  0  0  0  0  0  0  0
   11.9838  -15.6612   20.1719 C   0  0  1  0  0  0  0  0  0  0  0  0
   13.0652  -15.0138   19.3989 C   0  0  0  0  0  0  0  0  0  0  0  0
   14.4625  -15.1769   19.8403 C   0  0  0  0  0  0  0  0  0  0  0  0
   15.5315  -14.4811   19.1726 C   0  0  0  0  0  0  0  0  0  0  0  0
   15.4072  -13.5065   18.4348 O   0  0  0  0  0  0  0  0  0  0  0  0
   12.0201  -15.4864   21.6183 C   0  0  0  0  0  0  0  0  0  0  0  0
   12.9785  -16.1666   22.3979 O   0  0  0  0  0  0  0  0  0  0  0  0
   16.8484  -14.9466   19.3719 O   0  0  0  0  0  0  0  0  0  0  0  0
   11.2247  -14.7467   22.2528 O   0  0  0  0  0  0  0  0  0  0  0  0
  2  1  1  0
  2  3  1  0
  3  5  1  0
  3  4  1  6
  5  6  2  0
  7  8  1  0
  8  9  2  0
 10  8  1  0
 10 11  1  0
 12 11  1  1
 13 12  1  0
 13  5  1  0
 14 16  1  0
 14 12  1  0
 15 14  2  0
 17 18  1  6
 17 16  1  0
 19 18  1  0
 20 24  1  0
 20 19  1  0
 21 20  2  0
 22 23  1  0
 22 17  1  0
 25 22  2  0
M  END
$$$$
