SQE.pdb
     RDKit          3D

 25 24  0  0  1  0  0  0  0  0999 V2000
   10.1435  -11.7009   20.0860 O   0  0  0  0  0  0  0  0  0  0  0  0
    9.9457  -12.9082   20.7898 C   0  0  0  0  0  0  0  0  0  0  0  0
    9.9355  -14.0083   19.7299 C   0  0  2  0  0  0  0  0  0  0  0  0
    8.6898  -13.8767   19.0150 N   0  0  0  0  0  0  0  0  0  0  0  0
   10.0154  -15.3445   20.3370 C   0  0  0  0  0  0  0  0  0  0  0  0
    8.9527  -15.9874   20.6134 O   0  0  0  0  0  0  0  0  0  0  0  0
   12.0840  -20.3232   18.5345 N   0  0  0  0  0  0  0  0  0  0  0  0
   11.2106  -19.3162   18.0532 C   0  0  0  0  0  0  0  0  0  0  0  0
   10.7879  -19.4144   16.8755 O   0  0  0  0  0  0  0  0  0  0  0  0
   10.8458  -18.2051   18.9666 C   0  0  0  0  0  0  0  0  0  0  0  0
   11.6188  -18.3777   20.2314 C   0  0  0  0  0  0  0  0  0  0  0  0
   11.3775  -17.2851   21.2437 C   0  0  2  0  0  0  0  0  0  0  0  0
   11.2497  -15.9774   20.6417 N   0  0  0  0  0  0  0  0  0  0  0  0
   12.4161  -17.2824   22.3108 C   0  0  0  0  0  0  0  0  0  0  0  0
   13.4091  -16.5147   22.2247 O   0  0  0  0  0  0  0  0  0  0  0  0
   12.3565  -18.1180   23.4579 N   0  0  0  0  0  0  0  0  0  0  0  0
   13.4089  -18.1242   24.4706 C   0  0  1  0  0  0  0  0  0  0  0  0
   12.9853  -18.7790   25.7267 C   0  0  0  0  0  0  0  0  0  0  0  0
   11.6917  -18.4101   26.3301 C   0  0  0  0  0  0  0  0  0  0  0  0
   11.2057  -19.0897   27.5026 C   0  0  0  0  0  0  0  0  0  0  0  0
   11.7791  -19.9980   28.0990 O   0  0  0  0  0  0  0  0  0  0  0  0
   14.7005  -18.5259   23.9281 C   0  0  0  0  0  0  0  0  0  0  0  0
   15.8959  -18.1664   24.5845 O   0  0  0  0  0  0  0  0  0  0  0  0
    9.9592  -18.6895   28.0288 O   0  0  0  0  0  0  0  0  0  0  0  0
   14.8371  -19.1936   22.8708 O   0  0  0  0  0  0  0  0  0  0  0  0
  2  1  1  0
  2  3  1  0
  3  5  1  0
  3  4  1  1
  5  6  2  0
  7  8  1  0
  8  9  2  0
 10  8  1  0
 10 11  1  0
 12 11  1  6
 13 12  1  0
 13  5  1  0
 14 16  1  0
 14 12  1  0
 15 14  2  0
 17 18  1  1
 17 16  1  0
 19 18  1  0
 20 24  1  0
 20 19  1  0
 21 20  2  0
 22 23  1  0
 22 17  1  0
 25 22  2  0
M  END
$$$$
