SQE.pdb
     RDKit          3D

 25 24  0  0  1  0  0  0  0  0999 V2000
    7.3027  -19.9471   20.2584 O   0  0  0  0  0  0  0  0  0  0  0  0
    6.5878  -20.3133   19.0979 C   0  0  0  0  0  0  0  0  0  0  0  0
    6.3017  -19.0074   18.3586 C   0  0  2  0  0  0  0  0  0  0  0  0
    6.4717  -19.2864   16.9538 N   0  0  0  0  0  0  0  0  0  0  0  0
    7.2295  -17.9421   18.7643 C   0  0  0  0  0  0  0  0  0  0  0  0
    8.4258  -17.9349   18.3312 O   0  0  0  0  0  0  0  0  0  0  0  0
    7.9303  -12.4003   18.6200 N   0  0  0  0  0  0  0  0  0  0  0  0
    8.6690  -13.0036   19.6683 C   0  0  0  0  0  0  0  0  0  0  0  0
    9.9108  -13.1184   19.5258 O   0  0  0  0  0  0  0  0  0  0  0  0
    7.9348  -13.4644   20.8726 C   0  0  0  0  0  0  0  0  0  0  0  0
    7.0239  -14.5720   20.4592 C   0  0  0  0  0  0  0  0  0  0  0  0
    7.7443  -15.8503   20.1071 C   0  0  2  0  0  0  0  0  0  0  0  0
    6.8540  -16.8883   19.6393 N   0  0  0  0  0  0  0  0  0  0  0  0
    8.5866  -16.3374   21.2342 C   0  0  0  0  0  0  0  0  0  0  0  0
    8.0488  -16.7323   22.3008 O   0  0  0  0  0  0  0  0  0  0  0  0
   10.0052  -16.3869   21.1817 N   0  0  0  0  0  0  0  0  0  0  0  0
   10.8093  -16.8460   22.3111 C   0  0  1  0  0  0  0  0  0  0  0  0
   11.8003  -17.8726   21.9236 C   0  0  0  0  0  0  0  0  0  0  0  0
   11.4587  -18.8391   20.8639 C   0  0  0  0  0  0  0  0  0  0  0  0
   12.4168  -19.8201   20.4253 C   0  0  0  0  0  0  0  0  0  0  0  0
   12.7864  -19.9994   19.2674 O   0  0  0  0  0  0  0  0  0  0  0  0
   11.2970  -15.7443   23.1311 C   0  0  0  0  0  0  0  0  0  0  0  0
   11.9472  -15.9971   24.3567 O   0  0  0  0  0  0  0  0  0  0  0  0
   12.9943  -20.6610   21.4000 O   0  0  0  0  0  0  0  0  0  0  0  0
   11.1730  -14.5322   22.8181 O   0  0  0  0  0  0  0  0  0  0  0  0
  2  1  1  0
  2  3  1  0
  3  5  1  0
  3  4  1  6
  5  6  2  0
  7  8  1  0
  8  9  2  0
 10  8  1  0
 10 11  1  0
 12 11  1  1
 13 12  1  0
 13  5  1  0
 14 16  1  0
 14 12  1  0
 15 14  2  0
 17 18  1  6
 17 16  1  0
 19 18  1  0
 20 24  1  0
 20 19  1  0
 21 20  2  0
 22 23  1  0
 22 17  1  0
 25 22  2  0
M  END
$$$$
