SQE.pdb
     RDKit          3D

 25 24  0  0  1  0  0  0  0  0999 V2000
    7.0029  -17.9043   21.3732 O   0  0  0  0  0  0  0  0  0  0  0  0
    7.8838  -17.5551   20.3273 C   0  0  0  0  0  0  0  0  0  0  0  0
    7.9839  -16.0311   20.3617 C   0  0  2  0  0  0  0  0  0  0  0  0
    8.8671  -15.6543   19.2856 N   0  0  0  0  0  0  0  0  0  0  0  0
    8.5333  -15.5542   21.6389 C   0  0  0  0  0  0  0  0  0  0  0  0
    9.7794  -15.6518   21.8768 O   0  0  0  0  0  0  0  0  0  0  0  0
    5.3533  -12.3689   26.0135 N   0  0  0  0  0  0  0  0  0  0  0  0
    6.6567  -12.2901   26.5644 C   0  0  0  0  0  0  0  0  0  0  0  0
    6.8444  -11.5082   27.5282 O   0  0  0  0  0  0  0  0  0  0  0  0
    7.7237  -13.1344   25.9724 C   0  0  0  0  0  0  0  0  0  0  0  0
    7.1938  -13.7245   24.7081 C   0  0  0  0  0  0  0  0  0  0  0  0
    8.2158  -14.5223   23.9362 C   0  0  2  0  0  0  0  0  0  0  0  0
    7.7267  -14.9729   22.6530 N   0  0  0  0  0  0  0  0  0  0  0  0
    8.7451  -15.6615   24.7358 C   0  0  0  0  0  0  0  0  0  0  0  0
    8.0728  -16.7185   24.8524 O   0  0  0  0  0  0  0  0  0  0  0  0
   10.0016  -15.6314   25.3975 N   0  0  0  0  0  0  0  0  0  0  0  0
   10.5346  -16.7915   26.1067 C   0  0  1  0  0  0  0  0  0  0  0  0
   11.9317  -17.0957   25.7302 C   0  0  0  0  0  0  0  0  0  0  0  0
   12.2725  -17.2664   24.3059 C   0  0  0  0  0  0  0  0  0  0  0  0
   13.6412  -17.2044   23.8638 C   0  0  0  0  0  0  0  0  0  0  0  0
   14.5799  -17.8433   24.3330 O   0  0  0  0  0  0  0  0  0  0  0  0
   10.2352  -16.7578   27.5326 C   0  0  0  0  0  0  0  0  0  0  0  0
    9.5197  -15.6771   28.0886 O   0  0  0  0  0  0  0  0  0  0  0  0
   13.9515  -16.3364   22.7957 O   0  0  0  0  0  0  0  0  0  0  0  0
   10.5852  -17.6554   28.3414 O   0  0  0  0  0  0  0  0  0  0  0  0
  2  1  1  0
  2  3  1  0
  3  5  1  0
  3  4  1  6
  5  6  2  0
  7  8  1  0
  8  9  2  0
 10  8  1  0
 10 11  1  0
 12 11  1  1
 13 12  1  0
 13  5  1  0
 14 16  1  0
 14 12  1  0
 15 14  2  0
 17 18  1  1
 17 16  1  0
 19 18  1  0
 20 24  1  0
 20 19  1  0
 21 20  2  0
 22 23  1  0
 22 17  1  0
 25 22  2  0
M  END
$$$$
