SQE.pdb
     RDKit          3D

 25 24  0  0  1  0  0  0  0  0999 V2000
    8.0162  -15.6411   19.6856 O   0  0  0  0  0  0  0  0  0  0  0  0
    6.9130  -14.7663   19.5881 C   0  0  0  0  0  0  0  0  0  0  0  0
    7.4222  -13.4042   20.0563 C   0  0  2  0  0  0  0  0  0  0  0  0
    8.2470  -12.8874   18.9920 N   0  0  0  0  0  0  0  0  0  0  0  0
    8.2199  -13.5187   21.2855 C   0  0  0  0  0  0  0  0  0  0  0  0
    9.4854  -13.6330   21.2198 O   0  0  0  0  0  0  0  0  0  0  0  0
    6.7662  -11.1538   26.7139 N   0  0  0  0  0  0  0  0  0  0  0  0
    6.0068  -12.3249   26.4682 C   0  0  0  0  0  0  0  0  0  0  0  0
    4.9426  -12.4852   27.1140 O   0  0  0  0  0  0  0  0  0  0  0  0
    6.5113  -13.2934   25.4636 C   0  0  0  0  0  0  0  0  0  0  0  0
    7.7998  -12.7671   24.9250 C   0  0  0  0  0  0  0  0  0  0  0  0
    8.3831  -13.6091   23.8170 C   0  0  2  0  0  0  0  0  0  0  0  0
    7.6397  -13.5084   22.5817 N   0  0  0  0  0  0  0  0  0  0  0  0
    8.5424  -15.0309   24.2299 C   0  0  0  0  0  0  0  0  0  0  0  0
    7.9564  -15.9438   23.5926 O   0  0  0  0  0  0  0  0  0  0  0  0
    9.3394  -15.4370   25.3332 N   0  0  0  0  0  0  0  0  0  0  0  0
   10.0221  -16.7278   25.3657 C   0  0  1  0  0  0  0  0  0  0  0  0
   11.0056  -16.8785   24.2721 C   0  0  0  0  0  0  0  0  0  0  0  0
   10.6993  -17.7818   23.1478 C   0  0  0  0  0  0  0  0  0  0  0  0
   11.6446  -17.9741   22.0791 C   0  0  0  0  0  0  0  0  0  0  0  0
   12.6400  -18.6932   22.1179 O   0  0  0  0  0  0  0  0  0  0  0  0
   10.4743  -17.0844   26.7044 C   0  0  0  0  0  0  0  0  0  0  0  0
   10.7208  -18.4313   27.0419 O   0  0  0  0  0  0  0  0  0  0  0  0
   11.4239  -17.2817   20.8697 O   0  0  0  0  0  0  0  0  0  0  0  0
   10.6656  -16.2469   27.6234 O   0  0  0  0  0  0  0  0  0  0  0  0
  2  1  1  0
  2  3  1  0
  3  5  1  0
  3  4  1  6
  5  6  2  0
  7  8  1  0
  8  9  2  0
 10  8  1  0
 10 11  1  0
 12 11  1  1
 13 12  1  0
 13  5  1  0
 14 16  1  0
 14 12  1  0
 15 14  2  0
 17 18  1  6
 17 16  1  0
 19 18  1  0
 20 24  1  0
 20 19  1  0
 21 20  2  0
 22 23  1  0
 22 17  1  0
 25 22  2  0
M  END
$$$$
