SQE.pdb
     RDKit          3D

 25 24  0  0  1  0  0  0  0  0999 V2000
   10.0376  -18.1958   15.6431 O   0  0  0  0  0  0  0  0  0  0  0  0
    9.1287  -19.1133   15.0737 C   0  0  0  0  0  0  0  0  0  0  0  0
    7.8091  -18.9020   15.8137 C   0  0  2  0  0  0  0  0  0  0  0  0
    7.4702  -17.5088   15.6567 N   0  0  0  0  0  0  0  0  0  0  0  0
    7.9339  -19.2198   17.2433 C   0  0  0  0  0  0  0  0  0  0  0  0
    8.1481  -18.2939   18.0893 O   0  0  0  0  0  0  0  0  0  0  0  0
    6.3345  -24.6375   19.8811 N   0  0  0  0  0  0  0  0  0  0  0  0
    6.8116  -23.9799   21.0423 C   0  0  0  0  0  0  0  0  0  0  0  0
    6.6969  -24.5696   22.1443 O   0  0  0  0  0  0  0  0  0  0  0  0
    7.4186  -22.6344   20.8904 C   0  0  0  0  0  0  0  0  0  0  0  0
    7.3787  -22.2734   19.4429 C   0  0  0  0  0  0  0  0  0  0  0  0
    7.9324  -20.9018   19.1444 C   0  0  2  0  0  0  0  0  0  0  0  0
    7.8256  -20.5426   17.7485 N   0  0  0  0  0  0  0  0  0  0  0  0
    9.3331  -20.7550   19.6277 C   0  0  0  0  0  0  0  0  0  0  0  0
   10.2964  -21.0449   18.8722 O   0  0  0  0  0  0  0  0  0  0  0  0
    9.6635  -20.2936   20.9299 N   0  0  0  0  0  0  0  0  0  0  0  0
   11.0409  -20.0210   21.3317 C   0  0  1  0  0  0  0  0  0  0  0  0
   11.2262  -18.6401   21.8263 C   0  0  0  0  0  0  0  0  0  0  0  0
   12.5487  -18.2276   22.3310 C   0  0  0  0  0  0  0  0  0  0  0  0
   12.7970  -16.8626   22.7156 C   0  0  0  0  0  0  0  0  0  0  0  0
   13.8470  -16.4238   23.1788 O   0  0  0  0  0  0  0  0  0  0  0  0
   11.6034  -21.0884   22.1492 C   0  0  0  0  0  0  0  0  0  0  0  0
   13.0005  -21.2307   22.2785 O   0  0  0  0  0  0  0  0  0  0  0  0
   11.7509  -15.9299   22.5531 O   0  0  0  0  0  0  0  0  0  0  0  0
   10.9082  -21.9320   22.7718 O   0  0  0  0  0  0  0  0  0  0  0  0
  2  1  1  0
  2  3  1  0
  3  5  1  0
  3  4  1  1
  5  6  2  0
  7  8  1  0
  8  9  2  0
 10  8  1  0
 10 11  1  0
 12 11  1  6
 13 12  1  0
 13  5  1  0
 14 16  1  0
 14 12  1  0
 15 14  2  0
 17 18  1  1
 17 16  1  0
 19 18  1  0
 20 24  1  0
 20 19  1  0
 21 20  2  0
 22 23  1  0
 22 17  1  0
 25 22  2  0
M  END
$$$$
