SFP.pdb
     RDKit          3D

 25 26  0  0  1  0  0  0  0  0999 V2000
   26.5150  -20.4710  -18.9806 O   0  0  0  0  0  0  0  0  0  0  0  0
   27.7241  -19.8034  -18.7926 C   0  0  0  0  0  0  0  0  0  0  0  0
   28.6914  -20.6519  -17.9577 C   0  0  2  0  0  0  0  0  0  0  0  0
   28.9689  -21.8432  -18.7351 N   0  0  0  0  0  0  0  0  0  0  0  0
   27.9619  -21.0412  -16.7307 C   0  0  0  0  0  0  0  0  0  0  0  0
   27.3957  -22.1628  -16.6663 O   0  0  0  0  0  0  0  0  0  0  0  0
   27.8568  -20.2086  -15.5912 N   0  0  0  0  0  0  0  0  0  0  0  0
   27.0560  -20.6094  -14.4428 C   0  0  1  0  0  0  0  0  0  0  0  0
   27.5653  -19.8533  -13.2099 C   0  0  0  0  0  0  0  0  0  0  0  0
   26.8164  -20.1733  -11.9930 C   0  0  0  0  0  0  0  0  0  0  0  0
   25.6980  -19.3884  -11.6680 C   0  0  0  0  0  0  0  0  0  0  0  0
   24.9395  -19.6118  -10.5443 C   0  0  0  0  0  0  0  0  0  0  0  0
   25.2558  -20.6334   -9.6806 C   0  0  0  0  0  0  0  0  0  0  0  0
   26.3428  -21.4238   -9.9633 C   0  0  0  0  0  0  0  0  0  0  0  0
   27.0974  -21.1757  -11.1119 C   0  0  0  0  0  0  0  0  0  0  0  0
   25.6184  -20.3988  -14.5924 C   0  0  0  0  0  0  0  0  0  0  0  0
   25.2606  -19.2777  -15.0937 O   0  0  0  0  0  0  0  0  0  0  0  0
   24.6604  -21.3433  -14.2314 N   0  0  0  0  0  0  0  0  0  0  0  0
   24.8990  -22.6052  -13.5682 C   0  0  0  0  0  0  0  0  0  0  0  0
   24.2180  -23.5006  -14.6178 C   0  0  0  0  0  0  0  0  0  0  0  0
   22.9027  -22.8077  -14.7793 C   0  0  0  0  0  0  0  0  0  0  0  0
   23.2381  -21.3361  -14.4724 C   0  0  1  0  0  0  0  0  0  0  0  0
   22.4884  -20.8954  -13.2880 C   0  0  0  0  0  0  0  0  0  0  0  0
   21.2226  -20.2933  -13.4056 O   0  0  0  0  0  0  0  0  0  0  0  0
   22.9616  -21.0468  -12.1476 O   0  0  0  0  0  0  0  0  0  0  0  0
  2  1  1  0
  3  2  1  0
  3  4  1  6
  5  3  1  0
  5  6  2  0
  7  5  1  0
  8  7  1  0
  8  9  1  1
  9 10  1  0
 10 11  2  0
 10 15  1  0
 11 12  1  0
 12 13  2  0
 14 13  1  0
 15 14  2  0
 16  8  1  0
 17 16  2  0
 18 22  1  0
 18 16  1  0
 19 20  1  0
 19 18  1  0
 20 21  1  0
 21 22  1  0
 23 24  1  0
 22 23  1  1
 25 23  2  0
M  END
$$$$
