SFP.pdb
     RDKit          3D

 25 26  0  0  1  0  0  0  0  0999 V2000
   25.4986  -19.2556  -14.3134 O   0  0  0  0  0  0  0  0  0  0  0  0
   25.2349  -18.2768  -13.3567 C   0  0  0  0  0  0  0  0  0  0  0  0
   26.5321  -17.5984  -12.8987 C   0  0  2  0  0  0  0  0  0  0  0  0
   27.4532  -17.6771  -14.0150 N   0  0  0  0  0  0  0  0  0  0  0  0
   27.0635  -18.4114  -11.7825 C   0  0  0  0  0  0  0  0  0  0  0  0
   27.9348  -19.2911  -12.0058 O   0  0  0  0  0  0  0  0  0  0  0  0
   26.6425  -18.2588  -10.4401 N   0  0  0  0  0  0  0  0  0  0  0  0
   27.2095  -19.0805   -9.3799 C   0  0  1  0  0  0  0  0  0  0  0  0
   26.7988  -18.4802   -8.0300 C   0  0  0  0  0  0  0  0  0  0  0  0
   27.5039  -19.0837   -6.8974 C   0  0  0  0  0  0  0  0  0  0  0  0
   28.6973  -18.4891   -6.4565 C   0  0  0  0  0  0  0  0  0  0  0  0
   29.4281  -18.9890   -5.4058 C   0  0  0  0  0  0  0  0  0  0  0  0
   29.0073  -20.1128   -4.7352 C   0  0  0  0  0  0  0  0  0  0  0  0
   27.8446  -20.7239   -5.1362 C   0  0  0  0  0  0  0  0  0  0  0  0
   27.1204  -20.1958   -6.2072 C   0  0  0  0  0  0  0  0  0  0  0  0
   26.8337  -20.4911   -9.4279 C   0  0  0  0  0  0  0  0  0  0  0  0
   25.6155  -20.7416   -9.7267 O   0  0  0  0  0  0  0  0  0  0  0  0
   27.7234  -21.5336   -9.1792 N   0  0  0  0  0  0  0  0  0  0  0  0
   29.0666  -21.4167   -8.6583 C   0  0  0  0  0  0  0  0  0  0  0  0
   29.7774  -22.1572   -9.8044 C   0  0  0  0  0  0  0  0  0  0  0  0
   28.9571  -23.4040   -9.8958 C   0  0  0  0  0  0  0  0  0  0  0  0
   27.5636  -22.9459   -9.4261 C   0  0  1  0  0  0  0  0  0  0  0  0
   27.1907  -23.6724   -8.2045 C   0  0  0  0  0  0  0  0  0  0  0  0
   26.8004  -25.0231   -8.2470 O   0  0  0  0  0  0  0  0  0  0  0  0
   27.2126  -23.1033   -7.0987 O   0  0  0  0  0  0  0  0  0  0  0  0
  2  1  1  0
  3  2  1  0
  3  4  1  6
  5  3  1  0
  5  6  2  0
  7  5  1  0
  8  7  1  0
  8  9  1  1
  9 10  1  0
 10 11  2  0
 10 15  1  0
 11 12  1  0
 12 13  2  0
 14 13  1  0
 15 14  2  0
 16  8  1  0
 17 16  2  0
 18 22  1  0
 18 16  1  0
 19 20  1  0
 19 18  1  0
 20 21  1  0
 21 22  1  0
 23 24  1  0
 22 23  1  1
 25 23  2  0
M  END
$$$$
