SFP.pdb
     RDKit          3D

 25 26  0  0  1  0  0  0  0  0999 V2000
   20.8541  -21.1723  -15.1981 O   0  0  0  0  0  0  0  0  0  0  0  0
   21.0083  -21.7057  -13.9195 C   0  0  0  0  0  0  0  0  0  0  0  0
   21.2391  -20.5935  -12.8888 C   0  0  2  0  0  0  0  0  0  0  0  0
   20.4347  -19.4655  -13.3145 N   0  0  0  0  0  0  0  0  0  0  0  0
   22.6686  -20.2223  -12.9796 C   0  0  0  0  0  0  0  0  0  0  0  0
   23.0000  -19.1209  -13.4894 O   0  0  0  0  0  0  0  0  0  0  0  0
   23.7180  -21.0509  -12.5164 N   0  0  0  0  0  0  0  0  0  0  0  0
   25.1110  -20.6708  -12.7062 C   0  0  1  0  0  0  0  0  0  0  0  0
   25.9693  -21.4676  -11.7164 C   0  0  0  0  0  0  0  0  0  0  0  0
   25.8445  -20.9900  -10.3378 C   0  0  0  0  0  0  0  0  0  0  0  0
   26.9610  -20.3908   -9.7320 C   0  0  0  0  0  0  0  0  0  0  0  0
   26.9375  -19.9187   -8.4418 C   0  0  0  0  0  0  0  0  0  0  0  0
   25.7958  -20.0188   -7.6828 C   0  0  0  0  0  0  0  0  0  0  0  0
   24.6821  -20.5988   -8.2393 C   0  0  0  0  0  0  0  0  0  0  0  0
   24.7322  -21.0707   -9.5527 C   0  0  0  0  0  0  0  0  0  0  0  0
   25.6197  -20.8573  -14.0626 C   0  0  0  0  0  0  0  0  0  0  0  0
   24.9380  -21.6299  -14.8206 O   0  0  0  0  0  0  0  0  0  0  0  0
   26.7713  -20.2395  -14.5445 N   0  0  0  0  0  0  0  0  0  0  0  0
   27.7393  -19.4945  -13.7718 C   0  0  0  0  0  0  0  0  0  0  0  0
   27.6708  -18.1931  -14.5896 C   0  0  0  0  0  0  0  0  0  0  0  0
   27.8446  -18.7157  -15.9798 C   0  0  0  0  0  0  0  0  0  0  0  0
   27.2482  -20.1336  -15.9018 C   0  0  1  0  0  0  0  0  0  0  0  0
   28.2934  -21.1255  -16.1896 C   0  0  0  0  0  0  0  0  0  0  0  0
   28.7380  -21.3597  -17.5034 O   0  0  0  0  0  0  0  0  0  0  0  0
   28.8107  -21.7840  -15.2697 O   0  0  0  0  0  0  0  0  0  0  0  0
  2  1  1  0
  3  2  1  0
  3  4  1  6
  5  3  1  0
  5  6  2  0
  7  5  1  0
  8  7  1  0
  8  9  1  1
  9 10  1  0
 10 11  2  0
 10 15  1  0
 11 12  1  0
 12 13  2  0
 14 13  1  0
 15 14  2  0
 16  8  1  0
 17 16  2  0
 18 22  1  0
 18 16  1  0
 19 20  1  0
 19 18  1  0
 20 21  1  0
 21 22  1  0
 23 24  1  0
 22 23  1  1
 25 23  2  0
M  END
$$$$
