SFP.pdb
     RDKit          3D

 25 26  0  0  1  0  0  0  0  0999 V2000
   21.4679  -20.7095  -16.4511 O   0  0  0  0  0  0  0  0  0  0  0  0
   20.7557  -20.4081  -15.2914 C   0  0  0  0  0  0  0  0  0  0  0  0
   21.1541  -19.0296  -14.7495 C   0  0  2  0  0  0  0  0  0  0  0  0
   21.2260  -18.1433  -15.8940 N   0  0  0  0  0  0  0  0  0  0  0  0
   22.5089  -19.1769  -14.1732 C   0  0  0  0  0  0  0  0  0  0  0  0
   23.4999  -18.6741  -14.7630 O   0  0  0  0  0  0  0  0  0  0  0  0
   22.7695  -19.8673  -12.9657 N   0  0  0  0  0  0  0  0  0  0  0  0
   24.1252  -19.9802  -12.4459 C   0  0  1  0  0  0  0  0  0  0  0  0
   24.0617  -20.6563  -11.0711 C   0  0  0  0  0  0  0  0  0  0  0  0
   25.3327  -20.5988  -10.3463 C   0  0  0  0  0  0  0  0  0  0  0  0
   25.4563  -19.6931   -9.2801 C   0  0  0  0  0  0  0  0  0  0  0  0
   26.6119  -19.5669   -8.5476 C   0  0  0  0  0  0  0  0  0  0  0  0
   27.7109  -20.3395   -8.8392 C   0  0  0  0  0  0  0  0  0  0  0  0
   27.6301  -21.2376   -9.8751 C   0  0  0  0  0  0  0  0  0  0  0  0
   26.4439  -21.3464  -10.6041 C   0  0  0  0  0  0  0  0  0  0  0  0
   25.0563  -20.7024  -13.3089 C   0  0  0  0  0  0  0  0  0  0  0  0
   24.6283  -21.7989  -13.8095 O   0  0  0  0  0  0  0  0  0  0  0  0
   26.3411  -20.2517  -13.6028 N   0  0  0  0  0  0  0  0  0  0  0  0
   27.0455  -19.1687  -12.9546 C   0  0  0  0  0  0  0  0  0  0  0  0
   27.3391  -18.3497  -14.2235 C   0  0  0  0  0  0  0  0  0  0  0  0
   27.9288  -19.3967  -15.1134 C   0  0  0  0  0  0  0  0  0  0  0  0
   27.2470  -20.6923  -14.6353 C   0  0  1  0  0  0  0  0  0  0  0  0
   28.2598  -21.6186  -14.1106 C   0  0  0  0  0  0  0  0  0  0  0  0
   29.0306  -22.4229  -14.9694 O   0  0  0  0  0  0  0  0  0  0  0  0
   28.4580  -21.7115  -12.8861 O   0  0  0  0  0  0  0  0  0  0  0  0
  2  1  1  0
  3  2  1  0
  3  4  1  6
  5  3  1  0
  5  6  2  0
  7  5  1  0
  8  7  1  0
  8  9  1  1
  9 10  1  0
 10 11  2  0
 10 15  1  0
 11 12  1  0
 12 13  2  0
 14 13  1  0
 15 14  2  0
 16  8  1  0
 17 16  2  0
 18 22  1  0
 18 16  1  0
 19 20  1  0
 19 18  1  0
 20 21  1  0
 21 22  1  0
 23 24  1  0
 22 23  1  1
 25 23  2  0
M  END
$$$$
