SFP.pdb
     RDKit          3D

 25 26  0  0  1  0  0  0  0  0999 V2000
   27.8404  -19.6957  -19.7887 O   0  0  0  0  0  0  0  0  0  0  0  0
   27.3332  -20.4056  -18.7017 C   0  0  0  0  0  0  0  0  0  0  0  0
   28.4653  -20.8661  -17.7749 C   0  0  2  0  0  0  0  0  0  0  0  0
   29.0546  -22.0356  -18.3958 N   0  0  0  0  0  0  0  0  0  0  0  0
   27.8310  -21.2701  -16.5006 C   0  0  0  0  0  0  0  0  0  0  0  0
   27.2533  -22.3842  -16.4125 O   0  0  0  0  0  0  0  0  0  0  0  0
   27.8323  -20.4602  -15.3401 N   0  0  0  0  0  0  0  0  0  0  0  0
   26.9942  -20.7906  -14.1960 C   0  0  1  0  0  0  0  0  0  0  0  0
   27.5431  -20.0575  -12.9661 C   0  0  0  0  0  0  0  0  0  0  0  0
   26.7518  -20.2965  -11.7574 C   0  0  0  0  0  0  0  0  0  0  0  0
   27.1624  -21.3107  -10.8769 C   0  0  0  0  0  0  0  0  0  0  0  0
   26.4792  -21.6087   -9.7226 C   0  0  0  0  0  0  0  0  0  0  0  0
   25.3457  -20.9094   -9.3822 C   0  0  0  0  0  0  0  0  0  0  0  0
   24.9114  -19.9095  -10.2176 C   0  0  0  0  0  0  0  0  0  0  0  0
   25.6238  -19.6265  -11.3850 C   0  0  0  0  0  0  0  0  0  0  0  0
   25.5764  -20.4818  -14.3631 C   0  0  0  0  0  0  0  0  0  0  0  0
   25.3025  -19.3363  -14.8620 O   0  0  0  0  0  0  0  0  0  0  0  0
   24.5516  -21.3608  -14.0206 N   0  0  0  0  0  0  0  0  0  0  0  0
   24.6997  -22.6705  -13.4273 C   0  0  0  0  0  0  0  0  0  0  0  0
   23.9192  -23.4513  -14.4988 C   0  0  0  0  0  0  0  0  0  0  0  0
   22.6634  -22.6444  -14.5873 C   0  0  0  0  0  0  0  0  0  0  0  0
   23.1294  -21.2233  -14.2189 C   0  0  1  0  0  0  0  0  0  0  0  0
   22.4497  -20.7832  -12.9927 C   0  0  0  0  0  0  0  0  0  0  0  0
   21.2257  -20.0918  -13.0426 O   0  0  0  0  0  0  0  0  0  0  0  0
   22.9469  -21.0147  -11.8762 O   0  0  0  0  0  0  0  0  0  0  0  0
  2  1  1  0
  3  2  1  0
  3  4  1  6
  5  3  1  0
  5  6  2  0
  7  5  1  0
  8  7  1  0
  8  9  1  1
  9 10  1  0
 10 11  2  0
 10 15  1  0
 11 12  1  0
 12 13  2  0
 14 13  1  0
 15 14  2  0
 16  8  1  0
 17 16  2  0
 18 22  1  0
 18 16  1  0
 19 20  1  0
 19 18  1  0
 20 21  1  0
 21 22  1  0
 23 24  1  0
 22 23  1  1
 25 23  2  0
M  END
$$$$
