SFP.pdb
     RDKit          3D

 25 26  0  0  1  0  0  0  0  0999 V2000
   23.8728  -20.8538  -11.8312 O   0  0  0  0  0  0  0  0  0  0  0  0
   24.8450  -19.9359  -12.2251 C   0  0  0  0  0  0  0  0  0  0  0  0
   26.2475  -20.5477  -12.1187 C   0  0  2  0  0  0  0  0  0  0  0  0
   26.1975  -21.8146  -12.8208 N   0  0  0  0  0  0  0  0  0  0  0  0
   26.4882  -20.8069  -10.6819 C   0  0  0  0  0  0  0  0  0  0  0  0
   26.3925  -21.9773  -10.2305 O   0  0  0  0  0  0  0  0  0  0  0  0
   26.8291  -19.7931   -9.7553 N   0  0  0  0  0  0  0  0  0  0  0  0
   26.9790  -20.0940   -8.3384 C   0  0  1  0  0  0  0  0  0  0  0  0
   27.7187  -18.9280   -7.6715 C   0  0  0  0  0  0  0  0  0  0  0  0
   28.0952  -19.2080   -6.2844 C   0  0  0  0  0  0  0  0  0  0  0  0
   29.1525  -20.1005   -6.0436 C   0  0  0  0  0  0  0  0  0  0  0  0
   29.5706  -20.4263   -4.7759 C   0  0  0  0  0  0  0  0  0  0  0  0
   28.9552  -19.8783   -3.6757 C   0  0  0  0  0  0  0  0  0  0  0  0
   27.9166  -19.0007   -3.8693 C   0  0  0  0  0  0  0  0  0  0  0  0
   27.5108  -18.6862   -5.1680 C   0  0  0  0  0  0  0  0  0  0  0  0
   25.7288  -20.3555   -7.6299 C   0  0  0  0  0  0  0  0  0  0  0  0
   24.6927  -19.7471   -8.0686 O   0  0  0  0  0  0  0  0  0  0  0  0
   25.6269  -21.2185   -6.5414 N   0  0  0  0  0  0  0  0  0  0  0  0
   26.7192  -21.8350   -5.8231 C   0  0  0  0  0  0  0  0  0  0  0  0
   26.2571  -23.2926   -5.9937 C   0  0  0  0  0  0  0  0  0  0  0  0
   24.8325  -23.1982   -5.5495 C   0  0  0  0  0  0  0  0  0  0  0  0
   24.4449  -21.7516   -5.9091 C   0  0  1  0  0  0  0  0  0  0  0  0
   24.1031  -21.0132   -4.6855 C   0  0  0  0  0  0  0  0  0  0  0  0
   22.8236  -21.1056   -4.1086 O   0  0  0  0  0  0  0  0  0  0  0  0
   24.9452  -20.2852   -4.1302 O   0  0  0  0  0  0  0  0  0  0  0  0
  2  1  1  0
  3  2  1  0
  3  4  1  6
  5  3  1  0
  5  6  2  0
  7  5  1  0
  8  7  1  0
  8  9  1  1
  9 10  1  0
 10 11  2  0
 10 15  1  0
 11 12  1  0
 12 13  2  0
 14 13  1  0
 15 14  2  0
 16  8  1  0
 17 16  2  0
 18 22  1  0
 18 16  1  0
 19 20  1  0
 19 18  1  0
 20 21  1  0
 21 22  1  0
 23 24  1  0
 22 23  1  1
 25 23  2  0
M  END
$$$$
