SFP.pdb
     RDKit          3D

 25 26  0  0  1  0  0  0  0  0999 V2000
   26.6081  -20.3103  -19.6372 O   0  0  0  0  0  0  0  0  0  0  0  0
   27.5870  -19.4987  -19.0661 C   0  0  0  0  0  0  0  0  0  0  0  0
   28.6136  -20.3407  -18.2981 C   0  0  2  0  0  0  0  0  0  0  0  0
   28.9059  -21.4912  -19.1297 N   0  0  0  0  0  0  0  0  0  0  0  0
   27.9430  -20.8020  -17.0625 C   0  0  0  0  0  0  0  0  0  0  0  0
   27.4777  -21.9692  -16.9991 O   0  0  0  0  0  0  0  0  0  0  0  0
   27.7867  -19.9911  -15.9133 N   0  0  0  0  0  0  0  0  0  0  0  0
   26.9862  -20.4412  -14.7831 C   0  0  1  0  0  0  0  0  0  0  0  0
   27.4507  -19.6882  -13.5307 C   0  0  0  0  0  0  0  0  0  0  0  0
   26.6773  -20.0334  -12.3362 C   0  0  0  0  0  0  0  0  0  0  0  0
   27.1642  -21.0436  -11.4908 C   0  0  0  0  0  0  0  0  0  0  0  0
   26.5034  -21.4370  -10.3521 C   0  0  0  0  0  0  0  0  0  0  0  0
   25.3171  -20.8425   -9.9932 C   0  0  0  0  0  0  0  0  0  0  0  0
   24.8074  -19.8501  -10.7941 C   0  0  0  0  0  0  0  0  0  0  0  0
   25.4986  -19.4688  -11.9461 C   0  0  0  0  0  0  0  0  0  0  0  0
   25.5439  -20.2813  -14.9490 C   0  0  0  0  0  0  0  0  0  0  0  0
   25.1590  -19.2268  -15.5622 O   0  0  0  0  0  0  0  0  0  0  0  0
   24.6091  -21.2060  -14.4895 N   0  0  0  0  0  0  0  0  0  0  0  0
   24.8845  -22.4204  -13.7557 C   0  0  0  0  0  0  0  0  0  0  0  0
   24.1704  -23.3865  -14.7168 C   0  0  0  0  0  0  0  0  0  0  0  0
   22.8439  -22.7137  -14.8705 C   0  0  0  0  0  0  0  0  0  0  0  0
   23.1784  -21.2232  -14.6736 C   0  0  1  0  0  0  0  0  0  0  0  0
   22.4721  -20.7106  -13.4914 C   0  0  0  0  0  0  0  0  0  0  0  0
   22.4731  -21.4171  -12.2751 O   0  0  0  0  0  0  0  0  0  0  0  0
   21.8537  -19.6325  -13.5423 O   0  0  0  0  0  0  0  0  0  0  0  0
  2  1  1  0
  3  2  1  0
  3  4  1  6
  5  3  1  0
  5  6  2  0
  7  5  1  0
  8  7  1  0
  8  9  1  1
  9 10  1  0
 10 11  2  0
 10 15  1  0
 11 12  1  0
 12 13  2  0
 14 13  1  0
 15 14  2  0
 16  8  1  0
 17 16  2  0
 18 22  1  0
 18 16  1  0
 19 20  1  0
 19 18  1  0
 20 21  1  0
 21 22  1  0
 23 24  1  0
 22 23  1  1
 25 23  2  0
M  END
$$$$
