SFP.pdb
     RDKit          3D

 25 26  0  0  1  0  0  0  0  0999 V2000
   21.5935  -20.9823  -16.5202 O   0  0  0  0  0  0  0  0  0  0  0  0
   20.9002  -21.1905  -15.3291 C   0  0  0  0  0  0  0  0  0  0  0  0
   20.9388  -19.9349  -14.4490 C   0  0  2  0  0  0  0  0  0  0  0  0
   20.6413  -18.8143  -15.3187 N   0  0  0  0  0  0  0  0  0  0  0  0
   22.3290  -19.8039  -13.9594 C   0  0  0  0  0  0  0  0  0  0  0  0
   23.0755  -18.9036  -14.4231 O   0  0  0  0  0  0  0  0  0  0  0  0
   22.8895  -20.6510  -12.9741 N   0  0  0  0  0  0  0  0  0  0  0  0
   24.2991  -20.5571  -12.6206 C   0  0  1  0  0  0  0  0  0  0  0  0
   24.5538  -21.4552  -11.4041 C   0  0  0  0  0  0  0  0  0  0  0  0
   25.8307  -21.1756  -10.7442 C   0  0  0  0  0  0  0  0  0  0  0  0
   25.8249  -20.3993   -9.5738 C   0  0  0  0  0  0  0  0  0  0  0  0
   26.9745  -20.0825   -8.8912 C   0  0  0  0  0  0  0  0  0  0  0  0
   28.1966  -20.5240   -9.3398 C   0  0  0  0  0  0  0  0  0  0  0  0
   28.2446  -21.2860  -10.4813 C   0  0  0  0  0  0  0  0  0  0  0  0
   27.0615  -21.5939  -11.1566 C   0  0  0  0  0  0  0  0  0  0  0  0
   25.2265  -20.9049  -13.6941 C   0  0  0  0  0  0  0  0  0  0  0  0
   24.8996  -21.9050  -14.4215 O   0  0  0  0  0  0  0  0  0  0  0  0
   26.4043  -20.2067  -13.9500 N   0  0  0  0  0  0  0  0  0  0  0  0
   27.0784  -19.2933  -13.0554 C   0  0  0  0  0  0  0  0  0  0  0  0
   27.1053  -18.0844  -14.0066 C   0  0  0  0  0  0  0  0  0  0  0  0
   27.6679  -18.7040  -15.2458 C   0  0  0  0  0  0  0  0  0  0  0  0
   27.1963  -20.1674  -15.1551 C   0  0  1  0  0  0  0  0  0  0  0  0
   28.3622  -21.0575  -15.0685 C   0  0  0  0  0  0  0  0  0  0  0  0
   28.7060  -21.6977  -13.8641 O   0  0  0  0  0  0  0  0  0  0  0  0
   29.0750  -21.2650  -16.0666 O   0  0  0  0  0  0  0  0  0  0  0  0
  2  1  1  0
  3  2  1  0
  3  4  1  6
  5  3  1  0
  5  6  2  0
  7  5  1  0
  8  7  1  0
  8  9  1  1
  9 10  1  0
 10 11  2  0
 10 15  1  0
 11 12  1  0
 12 13  2  0
 14 13  1  0
 15 14  2  0
 16  8  1  0
 17 16  2  0
 18 22  1  0
 18 16  1  0
 19 20  1  0
 19 18  1  0
 20 21  1  0
 21 22  1  0
 23 24  1  0
 22 23  1  1
 25 23  2  0
M  END
$$$$
