QSR.pdb
     RDKit          3D

 27 26  0  0  1  0  0  0  0  0999 V2000
   35.9537   -4.1108  -17.1884 N   0  0  0  0  0  0  0  0  0  0  0  0
   36.1629   -4.4481  -15.8357 C   0  0  0  0  0  0  0  0  0  0  0  0
   36.6771   -3.6156  -15.0507 O   0  0  0  0  0  0  0  0  0  0  0  0
   35.7761   -5.7764  -15.3527 C   0  0  0  0  0  0  0  0  0  0  0  0
   35.2307   -6.6513  -16.4878 C   0  0  0  0  0  0  0  0  0  0  0  0
   33.7198   -6.4942  -16.4608 C   0  0  2  0  0  0  0  0  0  0  0  0
   33.3011   -6.8132  -15.1083 N   0  0  0  0  0  0  0  0  0  0  0  0
   33.0405   -7.3907  -17.3960 C   0  0  0  0  0  0  0  0  0  0  0  0
   33.3064   -7.3463  -18.6431 O   0  0  0  0  0  0  0  0  0  0  0  0
   29.8732   -9.7385  -16.1948 O   0  0  0  0  0  0  0  0  0  0  0  0
   30.6457  -10.2682  -17.2050 C   0  0  0  0  0  0  0  0  0  0  0  0
   31.3483   -9.1660  -18.0086 C   0  0  2  0  0  0  0  0  0  0  0  0
   32.0594   -8.3603  -17.0361 N   0  0  0  0  0  0  0  0  0  0  0  0
   30.2789   -8.4177  -18.7038 C   0  0  0  0  0  0  0  0  0  0  0  0
   29.7551   -7.3881  -18.2029 O   0  0  0  0  0  0  0  0  0  0  0  0
   28.1209   -8.1878  -27.4282 N   0  0  0  0  0  0  0  0  0  0  0  0
   27.3118   -7.2494  -26.7181 C   0  0  0  0  0  0  0  0  0  0  0  0
   26.5485   -6.4527  -27.3936 N   0  0  0  0  0  0  0  0  0  0  0  0
   27.3569   -7.2053  -25.2912 N   0  0  0  0  0  0  0  0  0  0  0  0
   28.2323   -8.0756  -24.5645 C   0  0  0  0  0  0  0  0  0  0  0  0
   28.0790   -7.7683  -23.0947 C   0  0  0  0  0  0  0  0  0  0  0  0
   29.0181   -8.5494  -22.2371 C   0  0  0  0  0  0  0  0  0  0  0  0
   28.8681   -8.2002  -20.7795 C   0  0  2  0  0  0  0  0  0  0  0  0
   29.8657   -8.9154  -19.9709 N   0  0  0  0  0  0  0  0  0  0  0  0
   27.5083   -8.4244  -20.2438 C   0  0  0  0  0  0  0  0  0  0  0  0
   26.5143   -7.4642  -20.2769 O   0  0  0  0  0  0  0  0  0  0  0  0
   27.2241   -9.5360  -19.7289 O   0  0  0  0  0  0  0  0  0  0  0  0
  1  2  1  0
  2  4  1  0
  2  3  2  0
  4  5  1  0
  5  6  1  0
  6  7  1  1
  6  8  1  0
  8 13  1  0
  8  9  2  0
 11 10  1  0
 12 11  1  1
 13 12  1  0
 14 12  1  0
 14 15  2  0
 17 19  1  0
 17 16  1  0
 18 17  2  0
 20 19  1  0
 20 21  1  0
 21 22  1  0
 23 22  1  6
 23 24  1  0
 24 14  1  0
 25 23  1  0
 26 25  1  0
 27 25  2  0
M  END
$$$$
