QSR.pdb
     RDKit          3D

 27 26  0  0  1  0  0  0  0  0999 V2000
   14.2394  -10.8368  -15.7067 N   0  0  0  0  0  0  0  0  0  0  0  0
   14.7191  -11.6138  -16.7807 C   0  0  0  0  0  0  0  0  0  0  0  0
   13.9168  -12.1090  -17.6083 O   0  0  0  0  0  0  0  0  0  0  0  0
   16.1599  -11.8392  -16.9242 C   0  0  0  0  0  0  0  0  0  0  0  0
   16.9538  -11.1242  -15.8244 C   0  0  0  0  0  0  0  0  0  0  0  0
   18.4113  -11.4959  -16.0385 C   0  0  2  0  0  0  0  0  0  0  0  0
   18.5368  -12.8901  -15.6555 N   0  0  0  0  0  0  0  0  0  0  0  0
   19.3257  -10.6926  -15.2271 C   0  0  0  0  0  0  0  0  0  0  0  0
   19.4971  -10.9587  -13.9911 O   0  0  0  0  0  0  0  0  0  0  0  0
   22.0619   -8.1089  -16.8454 O   0  0  0  0  0  0  0  0  0  0  0  0
   22.2404   -8.5829  -15.5643 C   0  0  0  0  0  0  0  0  0  0  0  0
   20.8993   -8.7526  -14.8386 C   0  0  2  0  0  0  0  0  0  0  0  0
   20.0850   -9.5837  -15.7027 N   0  0  0  0  0  0  0  0  0  0  0  0
   20.3492   -7.3908  -14.6654 C   0  0  0  0  0  0  0  0  0  0  0  0
   19.6986   -6.8162  -15.5774 O   0  0  0  0  0  0  0  0  0  0  0  0
   15.5464   -5.3809   -8.8324 N   0  0  0  0  0  0  0  0  0  0  0  0
   16.1230   -6.5414   -9.4326 C   0  0  0  0  0  0  0  0  0  0  0  0
   15.7905   -7.7054   -8.9766 N   0  0  0  0  0  0  0  0  0  0  0  0
   17.0461   -6.4011  -10.5134 N   0  0  0  0  0  0  0  0  0  0  0  0
   16.7477   -5.5373  -11.6165 C   0  0  0  0  0  0  0  0  0  0  0  0
   17.8458   -5.6938  -12.6402 C   0  0  0  0  0  0  0  0  0  0  0  0
   19.1711   -5.2154  -12.1480 C   0  0  0  0  0  0  0  0  0  0  0  0
   20.2399   -5.3435  -13.2017 C   0  0  2  0  0  0  0  0  0  0  0  0
   20.5892   -6.7551  -13.4154 N   0  0  0  0  0  0  0  0  0  0  0  0
   21.4534   -4.5440  -12.9283 C   0  0  0  0  0  0  0  0  0  0  0  0
   22.6963   -5.1071  -12.7068 O   0  0  0  0  0  0  0  0  0  0  0  0
   21.3698   -3.2898  -12.8912 O   0  0  0  0  0  0  0  0  0  0  0  0
  1  2  1  0
  2  4  1  0
  2  3  2  0
  4  5  1  0
  5  6  1  0
  6  7  1  1
  6  8  1  0
  8 13  1  0
  8  9  2  0
 11 10  1  0
 12 11  1  6
 13 12  1  0
 14 12  1  0
 14 15  2  0
 17 19  1  0
 17 16  1  0
 18 17  2  0
 20 19  1  0
 20 21  1  0
 21 22  1  0
 23 22  1  1
 23 24  1  0
 24 14  1  0
 25 23  1  0
 26 25  1  0
 27 25  2  0
M  END
$$$$
