QSR.pdb
     RDKit          3D

 27 26  0  0  1  0  0  0  0  0999 V2000
   16.8272  -20.7637  -14.6568 N   0  0  0  0  0  0  0  0  0  0  0  0
   16.3503  -19.9168  -15.6779 C   0  0  0  0  0  0  0  0  0  0  0  0
   15.1247  -19.6639  -15.7660 O   0  0  0  0  0  0  0  0  0  0  0  0
   17.2945  -19.3342  -16.6351 C   0  0  0  0  0  0  0  0  0  0  0  0
   18.7322  -19.7872  -16.3544 C   0  0  0  0  0  0  0  0  0  0  0  0
   19.4899  -18.5504  -15.9024 C   0  0  2  0  0  0  0  0  0  0  0  0
   18.7020  -17.4100  -16.3324 N   0  0  0  0  0  0  0  0  0  0  0  0
   20.8259  -18.4582  -16.4911 C   0  0  0  0  0  0  0  0  0  0  0  0
   21.6565  -19.4181  -16.3632 O   0  0  0  0  0  0  0  0  0  0  0  0
   22.7059  -14.8895  -17.9126 O   0  0  0  0  0  0  0  0  0  0  0  0
   22.6983  -16.0406  -18.6694 C   0  0  0  0  0  0  0  0  0  0  0  0
   22.6595  -17.2926  -17.7834 C   0  0  2  0  0  0  0  0  0  0  0  0
   21.3200  -17.3453  -17.2325 N   0  0  0  0  0  0  0  0  0  0  0  0
   23.6992  -17.0983  -16.7498 C   0  0  0  0  0  0  0  0  0  0  0  0
   23.4368  -16.5801  -15.6327 O   0  0  0  0  0  0  0  0  0  0  0  0
   28.5366  -21.6605  -13.3028 N   0  0  0  0  0  0  0  0  0  0  0  0
   27.8901  -21.2310  -12.1041 C   0  0  0  0  0  0  0  0  0  0  0  0
   28.5506  -21.2768  -10.9927 N   0  0  0  0  0  0  0  0  0  0  0  0
   26.5413  -20.7633  -12.1498 N   0  0  0  0  0  0  0  0  0  0  0  0
   25.8279  -20.7224  -13.3913 C   0  0  0  0  0  0  0  0  0  0  0  0
   26.3655  -19.5661  -14.1990 C   0  0  0  0  0  0  0  0  0  0  0  0
   25.3804  -19.0425  -15.1903 C   0  0  0  0  0  0  0  0  0  0  0  0
   25.9632  -17.9346  -16.0281 C   0  0  2  0  0  0  0  0  0  0  0  0
   25.0167  -17.5253  -17.0755 N   0  0  0  0  0  0  0  0  0  0  0  0
   27.2817  -18.2547  -16.6161 C   0  0  0  0  0  0  0  0  0  0  0  0
   27.4360  -18.7895  -17.8815 O   0  0  0  0  0  0  0  0  0  0  0  0
   28.3241  -18.0371  -15.9472 O   0  0  0  0  0  0  0  0  0  0  0  0
  1  2  1  0
  2  4  1  0
  2  3  2  0
  4  5  1  0
  5  6  1  0
  6  7  1  6
  6  8  1  0
  8 13  1  0
  8  9  2  0
 11 10  1  0
 12 11  1  6
 13 12  1  0
 14 12  1  0
 14 15  2  0
 17 19  1  0
 17 16  1  0
 18 17  2  0
 20 19  1  0
 20 21  1  0
 21 22  1  0
 23 22  1  6
 23 24  1  0
 24 14  1  0
 25 23  1  0
 26 25  1  0
 27 25  2  0
M  END
$$$$
