QSR.pdb
     RDKit          3D

 27 26  0  0  1  0  0  0  0  0999 V2000
   26.6366  -19.6100  -21.3827 N   0  0  0  0  0  0  0  0  0  0  0  0
   27.8233  -20.3197  -21.1082 C   0  0  0  0  0  0  0  0  0  0  0  0
   28.6557  -20.5335  -22.0220 O   0  0  0  0  0  0  0  0  0  0  0  0
   28.0781  -20.8059  -19.7495 C   0  0  0  0  0  0  0  0  0  0  0  0
   26.9120  -20.4823  -18.8079 C   0  0  0  0  0  0  0  0  0  0  0  0
   27.3155  -20.9946  -17.4357 C   0  0  2  0  0  0  0  0  0  0  0  0
   27.6374  -22.3997  -17.6037 N   0  0  0  0  0  0  0  0  0  0  0  0
   26.2467  -20.8636  -16.4456 C   0  0  0  0  0  0  0  0  0  0  0  0
   25.8553  -21.8783  -15.7785 O   0  0  0  0  0  0  0  0  0  0  0  0
   24.2036  -17.3641  -16.0573 O   0  0  0  0  0  0  0  0  0  0  0  0
   24.2882  -18.0785  -14.8824 C   0  0  0  0  0  0  0  0  0  0  0  0
   24.4996  -19.5742  -15.1510 C   0  0  2  0  0  0  0  0  0  0  0  0
   25.5618  -19.6527  -16.1339 N   0  0  0  0  0  0  0  0  0  0  0  0
   23.2087  -20.0885  -15.6568 C   0  0  0  0  0  0  0  0  0  0  0  0
   22.9705  -20.1888  -16.8891 O   0  0  0  0  0  0  0  0  0  0  0  0
   17.1008  -25.3581  -11.7148 N   0  0  0  0  0  0  0  0  0  0  0  0
   16.7338  -25.1442  -13.0782 C   0  0  0  0  0  0  0  0  0  0  0  0
   15.7221  -25.7927  -13.5571 N   0  0  0  0  0  0  0  0  0  0  0  0
   17.4798  -24.2292  -13.8821 N   0  0  0  0  0  0  0  0  0  0  0  0
   18.6327  -23.5667  -13.3495 C   0  0  0  0  0  0  0  0  0  0  0  0
   19.1589  -22.6264  -14.4065 C   0  0  0  0  0  0  0  0  0  0  0  0
   20.3859  -21.8949  -13.9743 C   0  0  0  0  0  0  0  0  0  0  0  0
   20.9494  -21.0427  -15.0812 C   0  0  2  0  0  0  0  0  0  0  0  0
   22.2422  -20.4671  -14.6839 N   0  0  0  0  0  0  0  0  0  0  0  0
   20.0318  -19.9828  -15.5514 C   0  0  0  0  0  0  0  0  0  0  0  0
   20.0753  -18.6824  -15.0844 O   0  0  0  0  0  0  0  0  0  0  0  0
   19.1628  -20.2594  -16.4174 O   0  0  0  0  0  0  0  0  0  0  0  0
  1  2  1  0
  2  4  1  0
  2  3  2  0
  4  5  1  0
  5  6  1  0
  6  7  1  6
  6  8  1  0
  8 13  1  0
  8  9  2  0
 11 10  1  0
 12 11  1  6
 13 12  1  0
 14 12  1  0
 14 15  2  0
 17 19  1  0
 17 16  1  0
 18 17  2  0
 20 19  1  0
 20 21  1  0
 21 22  1  0
 23 22  1  1
 23 24  1  0
 24 14  1  0
 25 23  1  0
 26 25  1  0
 27 25  2  0
M  END
$$$$
