QSR.pdb
     RDKit          3D

 27 26  0  0  1  0  0  0  0  0999 V2000
   25.5760  -16.4922  -16.8967 N   0  0  0  0  0  0  0  0  0  0  0  0
   25.9008  -17.7237  -17.5011 C   0  0  0  0  0  0  0  0  0  0  0  0
   26.5816  -17.7488  -18.5545 O   0  0  0  0  0  0  0  0  0  0  0  0
   25.4386  -18.9735  -16.8914 C   0  0  0  0  0  0  0  0  0  0  0  0
   24.6732  -18.7146  -15.5882 C   0  0  0  0  0  0  0  0  0  0  0  0
   24.2580  -20.0766  -15.0583 C   0  0  2  0  0  0  0  0  0  0  0  0
   23.7177  -20.8069  -16.1901 N   0  0  0  0  0  0  0  0  0  0  0  0
   23.2380  -19.9908  -14.0132 C   0  0  0  0  0  0  0  0  0  0  0  0
   23.4733  -19.3582  -12.9305 O   0  0  0  0  0  0  0  0  0  0  0  0
   18.8882  -19.1240  -12.7959 O   0  0  0  0  0  0  0  0  0  0  0  0
   19.8667  -19.4654  -13.7036 C   0  0  0  0  0  0  0  0  0  0  0  0
   20.9251  -20.3770  -13.0688 C   0  0  2  0  0  0  0  0  0  0  0  0
   21.9388  -20.5731  -14.0859 N   0  0  0  0  0  0  0  0  0  0  0  0
   20.2262  -21.6284  -12.7046 C   0  0  0  0  0  0  0  0  0  0  0  0
   20.0773  -22.5698  -13.5273 O   0  0  0  0  0  0  0  0  0  0  0  0
   16.5920  -25.8901   -5.7086 N   0  0  0  0  0  0  0  0  0  0  0  0
   17.9395  -26.2480   -6.0177 C   0  0  0  0  0  0  0  0  0  0  0  0
   18.4158  -27.3484   -5.5320 N   0  0  0  0  0  0  0  0  0  0  0  0
   18.7308  -25.3967   -6.8478 N   0  0  0  0  0  0  0  0  0  0  0  0
   18.1876  -24.1760   -7.3642 C   0  0  0  0  0  0  0  0  0  0  0  0
   18.3562  -24.1893   -8.8641 C   0  0  0  0  0  0  0  0  0  0  0  0
   19.0033  -22.9501   -9.3867 C   0  0  0  0  0  0  0  0  0  0  0  0
   19.0830  -22.9512  -10.8910 C   0  0  2  0  0  0  0  0  0  0  0  0
   19.7266  -21.7219  -11.3758 N   0  0  0  0  0  0  0  0  0  0  0  0
   17.7816  -23.1555  -11.5625 C   0  0  0  0  0  0  0  0  0  0  0  0
   17.3396  -24.3916  -11.9958 O   0  0  0  0  0  0  0  0  0  0  0  0
   17.0271  -22.1685  -11.7579 O   0  0  0  0  0  0  0  0  0  0  0  0
  1  2  1  0
  2  4  1  0
  2  3  2  0
  4  5  1  0
  5  6  1  0
  6  7  1  6
  6  8  1  0
  8 13  1  0
  8  9  2  0
 11 10  1  0
 12 11  1  6
 13 12  1  0
 14 12  1  0
 14 15  2  0
 17 19  1  0
 17 16  1  0
 18 17  2  0
 20 19  1  0
 20 21  1  0
 21 22  1  0
 23 22  1  1
 23 24  1  0
 24 14  1  0
 25 23  1  0
 26 25  1  0
 27 25  2  0
M  END
$$$$
