QSR.pdb
     RDKit          3D

 27 26  0  0  1  0  0  0  0  0999 V2000
   21.8756  -24.0253  -13.4028 N   0  0  0  0  0  0  0  0  0  0  0  0
   22.0942  -25.3044  -13.9537 C   0  0  0  0  0  0  0  0  0  0  0  0
   23.0748  -25.5060  -14.7097 O   0  0  0  0  0  0  0  0  0  0  0  0
   21.1693  -26.3962  -13.6380 C   0  0  0  0  0  0  0  0  0  0  0  0
   20.0418  -25.9283  -12.7102 C   0  0  0  0  0  0  0  0  0  0  0  0
   19.9124  -26.9858  -11.6271 C   0  0  2  0  0  0  0  0  0  0  0  0
   19.7037  -28.2478  -12.3126 N   0  0  0  0  0  0  0  0  0  0  0  0
   18.7868  -26.7388  -10.7261 C   0  0  0  0  0  0  0  0  0  0  0  0
   17.5874  -26.8076  -11.1557 O   0  0  0  0  0  0  0  0  0  0  0  0
   17.4390  -25.0333   -6.3359 O   0  0  0  0  0  0  0  0  0  0  0  0
   18.3713  -25.6252   -7.1595 C   0  0  0  0  0  0  0  0  0  0  0  0
   17.8183  -25.8268   -8.5764 C   0  0  2  0  0  0  0  0  0  0  0  0
   18.9002  -26.4118   -9.3432 N   0  0  0  0  0  0  0  0  0  0  0  0
   17.4293  -24.4852   -9.0617 C   0  0  0  0  0  0  0  0  0  0  0  0
   18.2863  -23.6120   -9.3590 O   0  0  0  0  0  0  0  0  0  0  0  0
   14.4146  -22.9755  -15.7525 N   0  0  0  0  0  0  0  0  0  0  0  0
   14.3458  -21.8399  -14.8894 C   0  0  0  0  0  0  0  0  0  0  0  0
   13.8472  -20.7392  -15.3514 N   0  0  0  0  0  0  0  0  0  0  0  0
   14.8223  -21.9352  -13.5463 N   0  0  0  0  0  0  0  0  0  0  0  0
   16.2202  -22.1006  -13.2812 C   0  0  0  0  0  0  0  0  0  0  0  0
   16.4094  -22.1310  -11.7840 C   0  0  0  0  0  0  0  0  0  0  0  0
   15.3140  -22.8552  -11.0748 C   0  0  0  0  0  0  0  0  0  0  0  0
   15.5433  -22.8998   -9.5867 C   0  0  2  0  0  0  0  0  0  0  0  0
   16.0358  -24.2232   -9.1786 N   0  0  0  0  0  0  0  0  0  0  0  0
   14.3625  -22.5152   -8.7841 C   0  0  0  0  0  0  0  0  0  0  0  0
   13.8274  -21.2405   -8.7884 O   0  0  0  0  0  0  0  0  0  0  0  0
   13.8051  -23.3758   -8.0560 O   0  0  0  0  0  0  0  0  0  0  0  0
  1  2  1  0
  2  4  1  0
  2  3  2  0
  4  5  1  0
  5  6  1  0
  6  7  1  6
  6  8  1  0
  8 13  1  0
  8  9  2  0
 11 10  1  0
 12 11  1  1
 13 12  1  0
 14 12  1  0
 14 15  2  0
 17 19  1  0
 17 16  1  0
 18 17  2  0
 20 19  1  0
 20 21  1  0
 21 22  1  0
 23 22  1  6
 23 24  1  0
 24 14  1  0
 25 23  1  0
 26 25  1  0
 27 25  2  0
M  END
$$$$
