QSR.pdb
     RDKit          3D

 27 26  0  0  1  0  0  0  0  0999 V2000
   22.8714  -22.4134  -17.5487 N   0  0  0  0  0  0  0  0  0  0  0  0
   22.7423  -21.0304  -17.7893 C   0  0  0  0  0  0  0  0  0  0  0  0
   23.0674  -20.5510  -18.9021 O   0  0  0  0  0  0  0  0  0  0  0  0
   22.2266  -20.1568  -16.7319 C   0  0  0  0  0  0  0  0  0  0  0  0
   21.8802  -20.9494  -15.4659 C   0  0  0  0  0  0  0  0  0  0  0  0
   22.5659  -20.2356  -14.3133 C   0  0  2  0  0  0  0  0  0  0  0  0
   23.9924  -20.4038  -14.5205 N   0  0  0  0  0  0  0  0  0  0  0  0
   22.2034  -20.7888  -13.0085 C   0  0  0  0  0  0  0  0  0  0  0  0
   22.7703  -21.8463  -12.5745 O   0  0  0  0  0  0  0  0  0  0  0  0
   19.5514  -18.8405  -10.6059 O   0  0  0  0  0  0  0  0  0  0  0  0
   20.4736  -19.6281   -9.9523 C   0  0  0  0  0  0  0  0  0  0  0  0
   20.9251  -20.8045  -10.8277 C   0  0  2  0  0  0  0  0  0  0  0  0
   21.2294  -20.2368  -12.1260 N   0  0  0  0  0  0  0  0  0  0  0  0
   19.7885  -21.7499  -10.8654 C   0  0  0  0  0  0  0  0  0  0  0  0
   19.0459  -21.8560  -11.8766 O   0  0  0  0  0  0  0  0  0  0  0  0
   18.7834  -26.5107   -4.1378 N   0  0  0  0  0  0  0  0  0  0  0  0
   17.5667  -25.9137   -4.5878 C   0  0  0  0  0  0  0  0  0  0  0  0
   16.5543  -25.8869   -3.7829 N   0  0  0  0  0  0  0  0  0  0  0  0
   17.4869  -25.3621   -5.9029 N   0  0  0  0  0  0  0  0  0  0  0  0
   17.5905  -26.2089   -7.0536 C   0  0  0  0  0  0  0  0  0  0  0  0
   17.4719  -25.3405   -8.2825 C   0  0  0  0  0  0  0  0  0  0  0  0
   18.4965  -24.2563   -8.3286 C   0  0  0  0  0  0  0  0  0  0  0  0
   18.4925  -23.5372   -9.6522 C   0  0  2  0  0  0  0  0  0  0  0  0
   19.5701  -22.5389   -9.7018 N   0  0  0  0  0  0  0  0  0  0  0  0
   17.1947  -22.9179   -9.9966 C   0  0  0  0  0  0  0  0  0  0  0  0
   16.2542  -23.5311  -10.8031 O   0  0  0  0  0  0  0  0  0  0  0  0
   16.9159  -21.7784   -9.5436 O   0  0  0  0  0  0  0  0  0  0  0  0
  1  2  1  0
  2  4  1  0
  2  3  2  0
  4  5  1  0
  5  6  1  0
  6  7  1  6
  6  8  1  0
  8 13  1  0
  8  9  2  0
 11 10  1  0
 12 11  1  1
 13 12  1  0
 14 12  1  0
 14 15  2  0
 17 19  1  0
 17 16  1  0
 18 17  2  0
 20 19  1  0
 20 21  1  0
 21 22  1  0
 23 22  1  1
 23 24  1  0
 24 14  1  0
 25 23  1  0
 26 25  1  0
 27 25  2  0
M  END
$$$$
