QSR.pdb
     RDKit          3D

 27 26  0  0  1  0  0  0  0  0999 V2000
   19.7985  -12.8609  -17.5053 N   0  0  0  0  0  0  0  0  0  0  0  0
   19.0101  -13.0379  -16.3502 C   0  0  0  0  0  0  0  0  0  0  0  0
   18.2017  -13.9946  -16.2791 O   0  0  0  0  0  0  0  0  0  0  0  0
   19.1406  -12.0978  -15.2337 C   0  0  0  0  0  0  0  0  0  0  0  0
   20.0960  -10.9481  -15.5747 C   0  0  0  0  0  0  0  0  0  0  0  0
   19.2887   -9.6678  -15.4434 C   0  0  2  0  0  0  0  0  0  0  0  0
   19.6844   -8.8208  -16.5535 N   0  0  0  0  0  0  0  0  0  0  0  0
   19.5459   -8.9623  -14.1880 C   0  0  0  0  0  0  0  0  0  0  0  0
   19.1927   -9.4748  -13.0742 O   0  0  0  0  0  0  0  0  0  0  0  0
   21.5888   -5.1297  -11.9482 O   0  0  0  0  0  0  0  0  0  0  0  0
   21.3018   -5.8326  -13.0977 C   0  0  0  0  0  0  0  0  0  0  0  0
   20.3282   -6.9855  -12.8202 C   0  0  2  0  0  0  0  0  0  0  0  0
   20.1853   -7.6930  -14.0770 N   0  0  0  0  0  0  0  0  0  0  0  0
   19.0676   -6.3599  -12.3658 C   0  0  0  0  0  0  0  0  0  0  0  0
   18.2147   -5.9172  -13.1794 O   0  0  0  0  0  0  0  0  0  0  0  0
   12.0525   -9.0860  -10.7247 N   0  0  0  0  0  0  0  0  0  0  0  0
   12.9300   -9.4362   -9.6539 C   0  0  0  0  0  0  0  0  0  0  0  0
   12.5602  -10.3586   -8.8256 N   0  0  0  0  0  0  0  0  0  0  0  0
   14.1865   -8.7714   -9.5153 N   0  0  0  0  0  0  0  0  0  0  0  0
   14.6263   -7.8346  -10.5058 C   0  0  0  0  0  0  0  0  0  0  0  0
   15.9507   -7.2681  -10.0549 C   0  0  0  0  0  0  0  0  0  0  0  0
   16.4178   -6.1351  -10.9067 C   0  0  0  0  0  0  0  0  0  0  0  0
   17.7118   -5.5514  -10.4027 C   0  0  2  0  0  0  0  0  0  0  0  0
   18.8600   -6.2798  -10.9606 N   0  0  0  0  0  0  0  0  0  0  0  0
   17.8071   -5.4825   -8.9287 C   0  0  0  0  0  0  0  0  0  0  0  0
   16.9387   -4.7424   -8.1481 O   0  0  0  0  0  0  0  0  0  0  0  0
   18.7161   -6.1211   -8.3393 O   0  0  0  0  0  0  0  0  0  0  0  0
  1  2  1  0
  2  4  1  0
  2  3  2  0
  4  5  1  0
  5  6  1  0
  6  7  1  6
  6  8  1  0
  8 13  1  0
  8  9  2  0
 11 10  1  0
 12 11  1  6
 13 12  1  0
 14 12  1  0
 14 15  2  0
 17 19  1  0
 17 16  1  0
 18 17  2  0
 20 19  1  0
 20 21  1  0
 21 22  1  0
 23 22  1  1
 23 24  1  0
 24 14  1  0
 25 23  1  0
 26 25  1  0
 27 25  2  0
M  END
$$$$
